2y06_ligand
                    3D
 Schrodinger Suite 2020-3.
121124  0  0  1  0            999 V2000
    4.4310   -3.4910   57.0460 N   0  3  0  0  0  0
    4.8530   -3.5150   58.4740 C   0  0  2  0  0  0
    4.8030   -2.1180   59.1300 C   0  0  0  0  0  0
    4.6740   -2.0180   60.3560 O   0  0  0  0  0  0
    6.2670   -4.0990   58.5920 C   0  0  0  0  0  0
    6.5440   -4.7050   59.9750 C   0  0  0  0  0  0
    6.6320   -3.9390   60.9610 O   0  0  0  0  0  0
    6.6610   -5.9520   60.0760 O   0  5  0  0  0  0
    4.8920   -1.0290   58.3300 N   0  0  0  0  0  0
    4.8460    0.3190   58.9240 C   0  0  2  0  0  0
    3.5560    1.1280   58.6500 C   0  0  0  0  0  0
    3.2050    2.0040   59.4530 O   0  0  0  0  0  0
    6.0970    0.9770   58.3490 C   0  0  0  0  0  0
    6.0990    0.4530   56.9460 C   0  0  0  0  0  0
    5.5720   -0.9860   57.0200 C   0  0  0  0  0  0
    2.8950    0.8480   57.5120 N   0  0  0  0  0  0
    1.6210    1.4860   57.0850 C   0  0  2  0  0  0
    1.4220    1.9730   55.6070 C   0  0  0  0  0  0
    0.4220    1.6130   54.9750 O   0  0  0  0  0  0
    1.2420    2.6360   58.0550 C   0  0  0  0  0  0
    2.3620    2.7850   55.0360 N   0  0  0  0  0  0
    2.3000    3.3370   53.6600 C   0  0  2  0  0  0
    2.1890    2.5250   52.3440 C   0  0  0  0  0  0
    1.2090    2.7150   51.6000 O   0  0  0  0  0  0
    3.5160    4.2700   53.6060 C   0  0  0  0  0  0
    3.6800    4.6880   55.0260 C   0  0  0  0  0  0
    3.5000    3.3840   55.7620 C   0  0  0  0  0  0
    3.1720    1.6610   52.0390 N   0  0  0  0  0  0
    3.1750    0.8940   50.7740 C   0  0  2  0  0  0
    1.8460    0.3910   50.2550 C   0  0  0  0  0  0
    1.6310    0.3700   49.0330 O   0  0  0  0  0  0
    4.1080   -0.3140   50.8270 C   0  0  0  0  0  0
    3.9880   -1.0760   49.6290 O   0  0  0  0  0  0
    0.9560   -0.0280   51.1540 N   0  0  0  0  0  0
   -0.3200   -0.5280   50.6760 C   0  0  2  0  0  0
   -1.3270    0.5600   50.2940 C   0  0  0  0  0  0
   -0.9390    1.7070   49.9820 O   0  0  0  0  0  0
   -0.9310   -1.5280   51.6660 C   0  0  0  0  0  0
   -1.4000   -2.7570   50.9180 C   0  0  0  0  0  0
   -2.6580   -2.7940   50.3110 C   0  0  0  0  0  0
   -0.5230   -3.8200   50.6720 C   0  0  0  0  0  0
   -3.0260   -3.8420   49.4690 C   0  0  0  0  0  0
   -0.8860   -4.8780   49.8260 C   0  0  0  0  0  0
   -2.1390   -4.8770   49.2260 C   0  0  0  0  0  0
   -2.5050   -5.8970   48.3670 O   0  0  0  0  0  0
   -2.6130    0.1960   50.3220 N   0  0  0  0  0  0
   -3.6640    1.1090   49.9200 C   0  0  0  0  0  0
   -4.1210    0.4700   48.6250 C   0  0  0  0  0  0
   -4.4470    1.1510   47.6460 O   0  0  0  0  0  0
   -4.0930   -0.8700   48.6590 N   0  0  0  0  0  0
   -4.4600   -1.8060   47.5800 C   0  0  2  0  0  0
   -4.5250   -1.3380   46.1160 C   0  0  0  0  0  0
   -3.7740   -0.4460   45.6890 O   0  0  0  0  0  0
   -5.7780   -2.5010   47.9440 C   0  0  0  0  0  0
   -5.6760   -3.1070   49.2170 O   0  0  0  0  0  0
   -5.4110   -1.9840   45.3530 N   0  0  0  0  0  0
   -5.6210   -1.6850   43.9340 C   0  0  2  0  0  0
   -4.3350   -1.9310   43.1160 C   0  0  0  0  0  0
   -3.3400   -1.1640   43.2400 O   0  0  0  0  0  0
   -6.1030   -0.2350   43.7710 C   0  0  0  0  0  0
   -7.0550    0.2110   44.8400 C   0  0  0  0  0  0
   -6.6500    0.4560   46.1300 N   0  0  0  0  0  0
   -8.3950    0.4240   44.8160 C   0  0  0  0  0  0
   -7.6990    0.7980   46.8680 C   0  0  0  0  0  0
   -8.7690    0.7880   46.0950 N   0  0  0  0  0  0
   -4.3270   -2.9290   42.3640 N   0  0  0  0  0  0
    3.4171   -3.0713   56.9703 H   0  0  0  0  0  0
    4.4346   -4.5154   56.6453 H   0  0  0  0  0  0
    5.1296   -2.8686   56.4676 H   0  0  0  0  0  0
    4.1231   -4.1635   58.9807 H   0  0  0  0  0  0
    6.3990   -4.8939   57.8432 H   0  0  0  0  0  0
    7.0076   -3.3045   58.4178 H   0  0  0  0  0  0
    4.8407    0.2286   60.0203 H   0  0  0  0  0  0
    5.9936    2.0708   58.4028 H   0  0  0  0  0  0
    6.9766    0.6628   58.9300 H   0  0  0  0  0  0
    5.4469    1.0795   56.3197 H   0  0  0  0  0  0
    7.1238    0.4771   56.5470 H   0  0  0  0  0  0
    6.3802   -1.7320   57.0018 H   0  0  0  0  0  0
    4.8476   -1.2107   56.2233 H   0  0  0  0  0  0
    3.3668    0.0833   56.8775 H   0  0  0  0  0  0
    0.9936    0.5854   57.1580 H   0  0  0  0  0  0
    1.3796    2.3001   59.0934 H   0  0  0  0  0  0
    0.1904    2.9174   57.8969 H   0  0  0  0  0  0
    1.8873    3.5058   57.8624 H   0  0  0  0  0  0
    1.2681    3.7181   53.6547 H   0  0  0  0  0  0
    4.3865    3.7160   53.2249 H   0  0  0  0  0  0
    3.2992    5.1167   52.9381 H   0  0  0  0  0  0
    4.6790    5.1267   55.1660 H   0  0  0  0  0  0
    2.9129    5.4345   55.2794 H   0  0  0  0  0  0
    3.2306    3.5171   56.8202 H   0  0  0  0  0  0
    4.3735    2.7197   55.6868 H   0  0  0  0  0  0
    3.9908    1.5323   52.7622 H   0  0  0  0  0  0
    3.5127    1.6931   50.0977 H   0  0  0  0  0  0
    5.1473    0.0299   50.9343 H   0  0  0  0  0  0
    3.8405   -0.9465   51.6863 H   0  0  0  0  0  0
    4.5903   -1.9864   49.4936 H   0  0  0  0  0  0
    1.1672   -0.0022   52.2332 H   0  0  0  0  0  0
   -0.0264   -1.0327   49.7438 H   0  0  0  0  0  0
   -0.1733   -1.8181   52.4088 H   0  0  0  0  0  0
   -1.7861   -1.0618   52.1774 H   0  0  0  0  0  0
   -3.3659   -1.9869   50.4998 H   0  0  0  0  0  0
    0.4585   -3.8255   51.1460 H   0  0  0  0  0  0
   -4.0110   -3.8468   49.0023 H   0  0  0  0  0  0
   -0.1896   -5.6957   49.6404 H   0  0  0  0  0  0
   -3.4989   -5.8892   47.8958 H   0  0  0  0  0  0
   -2.8662   -0.8200   50.6590 H   0  0  0  0  0  0
   -4.4433    1.1354   50.6959 H   0  0  0  0  0  0
   -3.2436    2.1169   49.7882 H   0  0  0  0  0  0
   -3.7483   -1.2570   49.6292 H   0  0  0  0  0  0
   -3.5581   -2.4354   47.5986 H   0  0  0  0  0  0
   -6.5905   -1.7597   47.9626 H   0  0  0  0  0  0
   -6.0041   -3.2740   47.1947 H   0  0  0  0  0  0
   -6.5341   -3.6523   49.6369 H   0  0  0  0  0  0
   -5.9986   -2.7755   45.8411 H   0  0  0  0  0  0
   -6.4021   -2.3821   43.5966 H   0  0  0  0  0  0
   -5.8131    0.4589   42.9682 H   0  0  0  0  0  0
   -9.1509    0.3587   44.0195 H   0  0  0  0  0  0
   -7.6801    1.0446   47.9296 H   0  0  0  0  0  0
   -5.2190   -3.5683   42.2890 H   0  0  0  0  0  0
   -3.4280   -3.1682   41.7770 H   0  0  0  0  0  0
   -5.5891    0.3540   46.4022 H   0  0  0  0  0  0
  1  2  1  0  0  0
  1 67  1  0  0  0
  1 68  1  0  0  0
  1 69  1  0  0  0
  2  3  1  0  0  0
  2  5  1  0  0  0
  2 70  1  0  0  0
  3  4  2  0  0  0
  3  9  1  0  0  0
  5  6  1  0  0  0
  5 71  1  0  0  0
  5 72  1  0  0  0
  6  7  2  0  0  0
  6  8  1  0  0  0
  9 10  1  0  0  0
  9 15  1  0  0  0
 10 11  1  0  0  0
 10 13  1  0  0  0
 10 73  1  0  0  0
 11 12  2  0  0  0
 11 16  1  0  0  0
 13 14  1  0  0  0
 13 74  1  0  0  0
 13 75  1  0  0  0
 14 15  1  0  0  0
 14 76  1  0  0  0
 14 77  1  0  0  0
 15 78  1  0  0  0
 15 79  1  0  0  0
 16 17  1  0  0  0
 16 80  1  0  0  0
 17 18  1  0  0  0
 17 20  1  0  0  0
 17 81  1  0  0  0
 18 19  2  0  0  0
 18 21  1  0  0  0
 20 82  1  0  0  0
 20 83  1  0  0  0
 20 84  1  0  0  0
 21 22  1  0  0  0
 21 27  1  0  0  0
 22 23  1  0  0  0
 22 25  1  0  0  0
 22 85  1  0  0  0
 23 24  2  0  0  0
 23 28  1  0  0  0
 25 26  1  0  0  0
 25 86  1  0  0  0
 25 87  1  0  0  0
 26 27  1  0  0  0
 26 88  1  0  0  0
 26 89  1  0  0  0
 27 90  1  0  0  0
 27 91  1  0  0  0
 28 29  1  0  0  0
 28 92  1  0  0  0
 29 30  1  0  0  0
 29 32  1  0  0  0
 29 93  1  0  0  0
 30 31  2  0  0  0
 30 34  1  0  0  0
 32 33  1  0  0  0
 32 94  1  0  0  0
 32 95  1  0  0  0
 33 96  1  0  0  0
 34 35  1  0  0  0
 34 97  1  0  0  0
 35 36  1  0  0  0
 35 38  1  0  0  0
 35 98  1  0  0  0
 36 37  2  0  0  0
 36 46  1  0  0  0
 38 39  1  0  0  0
 38 99  1  0  0  0
 38100  1  0  0  0
 39 40  2  0  0  0
 39 41  1  0  0  0
 40 42  1  0  0  0
 40101  1  0  0  0
 41 43  2  0  0  0
 41102  1  0  0  0
 42 44  2  0  0  0
 42103  1  0  0  0
 43 44  1  0  0  0
 43104  1  0  0  0
 44 45  1  0  0  0
 45105  1  0  0  0
 46 47  1  0  0  0
 46106  1  0  0  0
 47 48  1  0  0  0
 47107  1  0  0  0
 47108  1  0  0  0
 48 49  2  0  0  0
 48 50  1  0  0  0
 50 51  1  0  0  0
 50109  1  0  0  0
 51 52  1  0  0  0
 51 54  1  0  0  0
 51110  1  0  0  0
 52 53  2  0  0  0
 52 56  1  0  0  0
 54 55  1  0  0  0
 54111  1  0  0  0
 54112  1  0  0  0
 55113  1  0  0  0
 56 57  1  0  0  0
 56114  1  0  0  0
 57 58  1  0  0  0
 57 60  1  0  0  0
 57115  1  0  0  0
 58 59  2  0  0  0
 58 66  1  0  0  0
 60 61  2  0  0  0
 60116  1  0  0  0
 61 62  1  0  0  0
 61 63  1  0  0  0
 62 64  1  0  0  0
 62121  1  0  0  0
 63 65  2  0  0  0
 63117  1  0  0  0
 64 65  1  0  0  0
 64118  1  0  0  0
 66119  1  0  0  0
 66120  1  0  0  0
M  CHG  2   1   1   8  -1
M  END
> <s_m_source_file>
../2y06_ligand.sdf

> <i_m_source_file_index>
1

> <s_epik_input>
Tz1DKFtPSF0pW0NIMl1bQ0BIXShbTkgzK10pQyg9TylOMVtDQEBIXShbQ0gyXVtDSDJdW0NIMl0xKUMoPU8pW05IXVtDQEBIXShbQ0gzXSlDKD1PKU4yW0NAQEhdKFtDSDJdW0NIMl1bQ0gyXTIpQyg9TylbTkhdW0NAQEhdKFtDSDJdW09IXSlDKD1PKVtOSF1bQ0BASF0oW0NIMl1jM1tjSF1bY0hdYyhbT0hdKVtjSF1bY0hdMylDKD1PKVtOSF1bQ0gyXUMoPU8pW05IXVtDQEBIXShbQ0gyXVtPSF0pQyg9TylbTkhdW0NASF0oQyg9TylbTkgyXSlbQ0gyXUM0PU5bQ0gyXU49W0NIXTQ=

> <s_epik_cmdline>
J2VwaWtfYXBwJywgJy1pbWFlJywgJ2xpZ2FuZF9wcm8ubWFlJywgJy1vbWFlJywgJ2xpZ2FuZF9wcmVwLm1hZScsICctbXMnLCAnMScsICctcGgnLCAnNycsICctcGh0JywgJzAuNScsICctbnQn

> <r_epik_Ionization_Penalty>
  0.0200

> <r_epik_Ionization_Penalty_Charging>
  0.0191

> <r_epik_Ionization_Penalty_Neutral>
  0.0009

> <r_epik_State_Penalty>
  0.0152

> <r_epik_Charging_Adjusted_Penalty>
0.0342979880639571

> <i_epik_Tot_Q>
0

> <i_epik_Tot_abs_Q>
2

> <s_epik_Chemistry_Notes>
This compound has an imine and may undergo hydrolysis.

$$$$
