2y07_ligand
                    3D
 Schrodinger Suite 2020-3.
100105  0  0  1  0            999 V2000
   -8.3740    4.2270   53.2950 N   0  3  0  0  0  0
   -7.7710    5.2070   54.2510 C   0  0  2  0  0  0
   -6.2840    5.4850   53.9210 C   0  0  0  0  0  0
   -5.3880    4.7260   54.3160 O   0  0  0  0  0  0
   -7.9630    4.6250   55.6370 C   0  0  0  0  0  0
   -9.3110    3.9000   55.4240 C   0  0  0  0  0  0
   -9.2660    3.2920   54.0090 C   0  0  0  0  0  0
   -6.0160    6.6270   53.2400 N   0  0  0  0  0  0
   -4.7870    7.2400   52.7250 C   0  0  2  0  0  0
   -3.6990    6.4790   51.9470 C   0  0  0  0  0  0
   -3.9250    5.3620   51.4180 O   0  0  0  0  0  0
   -4.2690    7.9810   53.9500 C   0  0  0  0  0  0
   -5.6090    8.6490   54.4660 C   0  0  0  0  0  0
   -6.7670    7.7130   53.9010 C   0  0  0  0  0  0
   -2.5270    7.1200   51.8280 N   0  0  0  0  0  0
   -1.4090    6.5570   51.0680 C   0  0  2  0  0  0
   -0.2040    7.4760   50.7780 C   0  0  0  0  0  0
    0.8840    6.9870   50.4470 O   0  0  0  0  0  0
   -1.9290    6.0370   49.7080 C   0  0  0  0  0  0
   -2.6690    7.0700   48.8430 C   0  0  0  0  0  0
   -3.6790    7.8820   49.3870 C   0  0  0  0  0  0
   -2.4060    7.1880   47.4680 C   0  0  0  0  0  0
   -4.4140    8.7790   48.5910 C   0  0  0  0  0  0
   -3.1500    8.0850   46.6570 C   0  0  0  0  0  0
   -4.1560    8.8750   47.2310 C   0  0  0  0  0  0
   -4.9450    9.7100   46.4570 O   0  0  0  0  0  0
   -0.3720    8.8100   50.8830 N   0  0  0  0  0  0
    0.8330    9.5870   50.5660 C   0  0  2  0  0  0
    1.2990   10.7340   51.4900 C   0  0  0  0  0  0
    1.9080   10.5080   52.5340 O   0  0  0  0  0  0
    0.5080   10.1000   49.1650 C   0  0  0  0  0  0
   -1.0420   10.3670   49.2550 C   0  0  0  0  0  0
   -1.5530    9.6040   50.5170 C   0  0  0  0  0  0
    1.0290   11.9680   51.0560 N   0  0  0  0  0  0
    1.4350   13.1820   51.7790 C   0  0  2  0  0  0
    0.3370   14.2450   51.9320 C   0  0  0  0  0  0
    0.5810   15.3270   52.4890 O   0  0  0  0  0  0
    2.6630   13.8120   51.0810 C   0  0  0  0  0  0
   -0.8570   13.9550   51.4280 N   0  0  0  0  0  0
   -1.9500   14.9100   51.5510 C   0  0  2  0  0  0
   -2.2580   15.2250   53.0310 C   0  0  0  0  0  0
   -3.1380   14.5260   53.6430 O   0  5  0  0  0  0
   -3.2050   14.3830   50.8390 C   0  0  0  0  0  0
   -3.6640   13.0070   51.2560 C   0  0  0  0  0  0
   -2.9980   12.1210   52.0650 C   0  0  0  0  0  0
   -4.8970   12.3640   50.8880 C   0  0  0  0  0  0
   -3.7460   10.9690   52.2240 N   0  3  0  0  0  0
   -4.9110   11.0920   51.5140 C   0  0  0  0  0  0
   -5.9880   12.7410   50.0930 C   0  0  0  0  0  0
   -5.9820   10.1890   51.3660 C   0  0  0  0  0  0
   -7.0620   11.8380   49.9440 C   0  0  0  0  0  0
   -7.0440   10.5780   50.5810 C   0  0  0  0  0  0
   -1.6524   16.1556   53.6266 O   0  0  0  0  0  0
   -8.9570    4.7676   52.5348 H   0  0  0  0  0  0
   -7.5738    3.6537   52.8042 H   0  0  0  0  0  0
   -8.2916    6.1731   54.1758 H   0  0  0  0  0  0
   -7.1229    3.9552   55.8730 H   0  0  0  0  0  0
   -8.0007    5.4399   56.3749 H   0  0  0  0  0  0
   -9.4289    3.1142   56.1846 H   0  0  0  0  0  0
  -10.1347    4.6235   55.5136 H   0  0  0  0  0  0
  -10.2499    3.2762   53.5173 H   0  0  0  0  0  0
   -8.8301    2.2822   53.9895 H   0  0  0  0  0  0
   -5.1292    7.8146   51.8517 H   0  0  0  0  0  0
   -3.8311    7.2604   54.6564 H   0  0  0  0  0  0
   -3.5010    8.7059   53.6425 H   0  0  0  0  0  0
   -5.6049    8.6770   55.5656 H   0  0  0  0  0  0
   -5.6826    9.6739   54.0734 H   0  0  0  0  0  0
   -7.4019    8.2226   53.1613 H   0  0  0  0  0  0
   -7.3980    7.2908   54.6970 H   0  0  0  0  0  0
   -2.4195    8.0968   52.3224 H   0  0  0  0  0  0
   -1.0639    5.7903   51.7773 H   0  0  0  0  0  0
   -1.0823    5.6773   49.1049 H   0  0  0  0  0  0
   -2.6357    5.2111   49.8771 H   0  0  0  0  0  0
   -3.8982    7.8149   50.4526 H   0  0  0  0  0  0
   -1.6197    6.5824   47.0174 H   0  0  0  0  0  0
   -5.1875    9.3997   49.0432 H   0  0  0  0  0  0
   -2.9394    8.1593   45.5901 H   0  0  0  0  0  0
   -5.7283   10.3206   46.9299 H   0  0  0  0  0  0
    1.6739    8.8892   50.6924 H   0  0  0  0  0  0
    1.0887   11.0125   48.9648 H   0  0  0  0  0  0
    0.7675    9.3302   48.4233 H   0  0  0  0  0  0
   -1.2230   11.4478   49.3500 H   0  0  0  0  0  0
   -1.5322    9.9918   48.3445 H   0  0  0  0  0  0
   -2.3962    8.9303   50.3045 H   0  0  0  0  0  0
   -1.8182   10.2720   51.3497 H   0  0  0  0  0  0
    0.4750   12.0510   50.1093 H   0  0  0  0  0  0
    1.6545   12.8011   52.7873 H   0  0  0  0  0  0
    3.4512   13.0528   50.9700 H   0  0  0  0  0  0
    3.0414   14.6474   51.6884 H   0  0  0  0  0  0
    2.3697   14.1839   50.0882 H   0  0  0  0  0  0
   -1.0208   12.9943   50.9179 H   0  0  0  0  0  0
   -1.5843   15.8180   51.0492 H   0  0  0  0  0  0
   -4.0487   15.0616   51.0329 H   0  0  0  0  0  0
   -3.0177   14.3308   49.7563 H   0  0  0  0  0  0
   -2.0135   12.3862   52.4778 H   0  0  0  0  0  0
   -6.0065   13.7127   49.5995 H   0  0  0  0  0  0
   -5.9703    9.2155   51.8562 H   0  0  0  0  0  0
   -7.9173   12.1170   49.3287 H   0  0  0  0  0  0
   -7.8873    9.9002   50.4487 H   0  0  0  0  0  0
   -3.3641   10.1469   52.8472 H   0  0  0  0  0  0
  1  2  1  0  0  0
  1  7  1  0  0  0
  1 54  1  0  0  0
  1 55  1  0  0  0
  2  3  1  0  0  0
  2  5  1  0  0  0
  2 56  1  0  0  0
  3  4  2  0  0  0
  3  8  1  0  0  0
  5  6  1  0  0  0
  5 57  1  0  0  0
  5 58  1  0  0  0
  6  7  1  0  0  0
  6 59  1  0  0  0
  6 60  1  0  0  0
  7 61  1  0  0  0
  7 62  1  0  0  0
  8  9  1  0  0  0
  8 14  1  0  0  0
  9 10  1  0  0  0
  9 12  1  0  0  0
  9 63  1  0  0  0
 10 11  2  0  0  0
 10 15  1  0  0  0
 12 13  1  0  0  0
 12 64  1  0  0  0
 12 65  1  0  0  0
 13 14  1  0  0  0
 13 66  1  0  0  0
 13 67  1  0  0  0
 14 68  1  0  0  0
 14 69  1  0  0  0
 15 16  1  0  0  0
 15 70  1  0  0  0
 16 17  1  0  0  0
 16 19  1  0  0  0
 16 71  1  0  0  0
 17 18  2  0  0  0
 17 27  1  0  0  0
 19 20  1  0  0  0
 19 72  1  0  0  0
 19 73  1  0  0  0
 20 21  2  0  0  0
 20 22  1  0  0  0
 21 23  1  0  0  0
 21 74  1  0  0  0
 22 24  2  0  0  0
 22 75  1  0  0  0
 23 25  2  0  0  0
 23 76  1  0  0  0
 24 25  1  0  0  0
 24 77  1  0  0  0
 25 26  1  0  0  0
 26 78  1  0  0  0
 27 28  1  0  0  0
 27 33  1  0  0  0
 28 29  1  0  0  0
 28 31  1  0  0  0
 28 79  1  0  0  0
 29 30  2  0  0  0
 29 34  1  0  0  0
 31 32  1  0  0  0
 31 80  1  0  0  0
 31 81  1  0  0  0
 32 33  1  0  0  0
 32 82  1  0  0  0
 32 83  1  0  0  0
 33 84  1  0  0  0
 33 85  1  0  0  0
 34 35  1  0  0  0
 34 86  1  0  0  0
 35 36  1  0  0  0
 35 38  1  0  0  0
 35 87  1  0  0  0
 36 37  2  0  0  0
 36 39  1  0  0  0
 38 88  1  0  0  0
 38 89  1  0  0  0
 38 90  1  0  0  0
 39 40  1  0  0  0
 39 91  1  0  0  0
 40 41  1  0  0  0
 40 43  1  0  0  0
 40 92  1  0  0  0
 41 42  1  0  0  0
 41 53  2  0  0  0
 43 44  1  0  0  0
 43 93  1  0  0  0
 43 94  1  0  0  0
 44 45  2  0  0  0
 44 46  1  0  0  0
 45 47  1  0  0  0
 45 95  1  0  0  0
 46 48  2  0  0  0
 46 49  1  0  0  0
 47 48  1  0  0  0
 47100  1  0  0  0
 48 50  1  0  0  0
 49 51  2  0  0  0
 49 96  1  0  0  0
 50 52  2  0  0  0
 50 97  1  0  0  0
 51 52  1  0  0  0
 51 98  1  0  0  0
 52 99  1  0  0  0
M  CHG  3   1   1  42  -1  47   1
M  END
> <s_m_source_file>
../2y07_ligand.sdf

> <i_m_source_file_index>
1

> <s_epik_input>
W0NIMl0xW0NIMl1bQ0gyXVtOSDIrXVtDQEBIXTFDKD1PKU4yW0NAQEhdKFtDSDJdW0NIMl1bQ0gyXTIpQyg9TylbTkhdW0NAQEhdKFtDSDJdYzNbY0hdW2NIXWMoW09IXSlbY0hdW2NIXTMpQyg9TylONFtDQEBIXShbQ0gyXVtDSDJdW0NIMl00KUMoPU8pW05IXVtDQEBIXShbQ0gzXSlDKD1PKVtOSF1bQ0BIXShDKD1PKVtPSF0pW0NIMl1jNVtjSF1bbkhdYyhjNTYpW2NIXVtjSF1bY0hdW2NIXTY=

> <s_epik_cmdline>
J2VwaWtfYXBwJywgJy1pbWFlJywgJ2xpZ2FuZF9wcm8ubWFlJywgJy1vbWFlJywgJ2xpZ2FuZF9wcmVwLm1hZScsICctbXMnLCAnMScsICctcGgnLCAnNycsICctcGh0JywgJzAuNScsICctbnQn

> <r_lp_tautomer_probability>
0.999999999997365

> <r_epik_Ionization_Penalty>
  0.0392

> <r_epik_Ionization_Penalty_Charging>
  0.0382

> <r_epik_Ionization_Penalty_Neutral>
  0.0010

> <r_epik_State_Penalty>
  0.0319

> <r_epik_Charging_Adjusted_Penalty>
0.0701053262317718

> <i_epik_Tot_Q>
1

> <i_epik_Tot_abs_Q>
3

$$$$
