2y0j_ligand
                    3D
 Schrodinger Suite 2020-3.
 38 42  0  0  1  0            999 V2000
  -21.9750  -16.2750   32.3800 C   0  0  0  0  0  0
  -21.5410  -15.2620   33.4310 C   0  0  0  0  0  0
  -21.0790  -14.0440   33.1750 N   0  0  0  0  0  0
  -21.5850  -15.4960   34.7370 N   0  0  0  0  0  0
  -21.1700  -14.4960   35.3210 N   0  0  0  0  0  0
  -20.8280  -13.5290   34.3700 C   0  0  0  0  0  0
  -20.3330  -12.3050   34.8080 C   0  0  0  0  0  0
  -19.9830  -11.3210   33.8850 C   0  0  0  0  0  0
  -19.4890  -10.0970   34.3260 C   0  0  0  0  0  0
  -19.3480   -9.8610   35.6940 C   0  0  0  0  0  0
  -19.7000  -10.8500   36.6170 C   0  0  0  0  0  0
  -20.1900  -12.0770   36.1810 C   0  0  0  0  0  0
  -20.5250  -13.0220   37.0820 N   0  0  0  0  0  0
  -21.0060  -14.2160   36.6860 C   0  0  0  0  0  0
  -21.4470  -15.4700   37.8060 S   0  0  0  0  0  0
  -21.0740  -14.7520   39.4560 C   0  0  0  0  0  0
  -22.2280  -13.8940   39.9870 C   0  0  0  0  0  0
  -22.2390  -12.5580   40.0320 N   0  5  0  0  0  0
  -23.4000  -12.1670   40.5410 C   0  0  0  0  0  0
  -23.9270  -10.9070   40.8050 C   0  0  0  0  0  0
  -25.2020  -10.8060   41.3520 C   0  0  0  0  0  0
  -25.9360  -11.9610   41.6330 C   0  0  0  0  0  0
  -25.4020  -13.2190   41.3670 C   0  0  0  0  0  0
  -24.1310  -13.3120   40.8200 C   0  0  0  0  0  0
  -23.3800  -14.3540   40.4750 N   0  3  0  0  0  0
  -21.8425  -15.8426   31.3773 H   0  0  0  0  0  0
  -23.0341  -16.5303   32.5322 H   0  0  0  0  0  0
  -21.3619  -17.1837   32.4714 H   0  0  0  0  0  0
  -20.0962  -11.5102   32.8175 H   0  0  0  0  0  0
  -19.2135   -9.3263   33.6061 H   0  0  0  0  0  0
  -18.9625   -8.9033   36.0437 H   0  0  0  0  0  0
  -19.5900  -10.6588   37.6844 H   0  0  0  0  0  0
  -20.1594  -14.8750   40.0546 H   0  0  0  0  0  0
  -23.3368  -10.0061   40.5813 H   0  0  0  0  0  0
  -25.6322   -9.8159   41.5633 H   0  0  0  0  0  0
  -26.9433  -11.8804   42.0675 H   0  0  0  0  0  0
  -25.9757  -14.1195   41.5859 H   0  0  0  0  0  0
  -23.7591  -15.3766   40.6182 H   0  0  0  0  0  0
  1  2  1  0  0  0
  1 26  1  0  0  0
  1 27  1  0  0  0
  1 28  1  0  0  0
  2  3  1  0  0  0
  2  4  2  0  0  0
  3  6  2  0  0  0
  4  5  1  0  0  0
  5  6  1  0  0  0
  5 14  1  0  0  0
  6  7  1  0  0  0
  7  8  1  0  0  0
  7 12  2  0  0  0
  8  9  2  0  0  0
  8 29  1  0  0  0
  9 10  1  0  0  0
  9 30  1  0  0  0
 10 11  2  0  0  0
 10 31  1  0  0  0
 11 12  1  0  0  0
 11 32  1  0  0  0
 12 13  1  0  0  0
 13 14  2  0  0  0
 14 15  1  0  0  0
 15 16  1  0  0  0
 16 17  2  0  0  0
 16 33  1  0  0  0
 17 18  1  0  0  0
 17 25  1  0  0  0
 18 19  1  0  0  0
 19 20  2  0  0  0
 19 24  1  0  0  0
 20 21  1  0  0  0
 20 34  1  0  0  0
 21 22  2  0  0  0
 21 35  1  0  0  0
 22 23  1  0  0  0
 22 36  1  0  0  0
 23 24  1  0  0  0
 23 37  1  0  0  0
 24 25  2  0  0  0
 25 38  1  0  0  0
M  CHG  2  18  -1  25   1
M  END
> <s_m_source_file>
../2y0j_ligand.sdf

> <i_m_source_file_index>
1

> <s_epik_input>
W0NIM11jKG4xKW5jKG4xMiljM2MoW2NIXVtjSF1bY0hdW2NIXTMpbmMyU1tDSDJdQyg9TjQpTj1DKEM0PTUpW0NIMl1bQ0hdPVtDSF1bQ0hdNQ==

> <s_epik_cmdline>
J2VwaWtfYXBwJywgJy1pbWFlJywgJ2xpZ2FuZF9wcm8ubWFlJywgJy1vbWFlJywgJ2xpZ2FuZF9wcmVwLm1hZScsICctbXMnLCAnMScsICctcGgnLCAnNycsICctcGh0JywgJzAuNScsICctbnQn

> <r_epik_Ionization_Penalty>
  0.0505

> <r_epik_Ionization_Penalty_Charging>
  0.0505

> <r_epik_Ionization_Penalty_Neutral>
  0.0000

> <r_epik_State_Penalty>
  0.4148

> <r_epik_Charging_Adjusted_Penalty>
0.465249116669658

> <i_epik_Tot_Q>
0

> <i_epik_Tot_abs_Q>
2

> <s_epik_Chemistry_Notes>
This compound has an imine and may undergo hydrolysis.

$$$$
