2y1d_ligand
                    3D
 Schrodinger Suite 2020-3.
 30 30  0  0  1  0            999 V2000
   40.4340   10.1120   24.9000 C   0  0  0  0  0  0
   41.5380   10.0110   25.5200 N   0  0  0  0  0  0
   39.3890    9.6660   25.3620 O   0  0  0  0  0  0
   44.7170   12.2280   20.0940 Cl  0  0  0  0  0  0
   42.7530   10.6110   24.9740 C   0  0  0  0  0  0
   41.6110    9.3390   26.7310 O   0  0  0  0  0  0
   41.7480   11.7980   18.7520 Cl  0  0  0  0  0  0
   43.7860    9.4930   24.7610 C   0  0  0  0  0  0
   43.4230    8.5310   23.6370 C   0  0  1  0  0  0
   43.0480    9.3380   22.4170 C   0  0  0  0  0  0
   43.9320   10.2840   21.8690 C   0  0  0  0  0  0
   43.5460   11.0390   20.7560 C   0  0  0  0  0  0
   42.2690   10.8530   20.1870 C   0  0  0  0  0  0
   41.3790    9.9130   20.7360 C   0  0  0  0  0  0
   41.7700    9.1610   21.8510 C   0  0  0  0  0  0
   44.5860    7.4320   23.3590 P   0  0  0  0  0  0
   44.8390    6.7950   24.7060 O   0  5  0  0  0  0
   43.9640    6.4870   22.3590 O   0  0  0  0  0  0
   45.7920    8.1410   22.8100 O   0  0  0  0  0  0
   40.4321   10.6164   23.9225 H   0  0  0  0  0  0
   42.5219   11.1000   24.0162 H   0  0  0  0  0  0
   43.1435   11.3570   25.6817 H   0  0  0  0  0  0
   40.7084    8.8797   27.1604 H   0  0  0  0  0  0
   44.7606    9.9372   24.5103 H   0  0  0  0  0  0
   43.8796    8.8998   25.6826 H   0  0  0  0  0  0
   42.5077    7.9982   23.9344 H   0  0  0  0  0  0
   44.9177   10.4292   22.3110 H   0  0  0  0  0  0
   40.3916    9.7705   20.2969 H   0  0  0  0  0  0
   41.0817    8.4347   22.2833 H   0  0  0  0  0  0
   43.0727    5.9039   22.6339 H   0  0  0  0  0  0
  1  2  1  0  0  0
  1  3  2  0  0  0
  1 20  1  0  0  0
  2  5  1  0  0  0
  2  6  1  0  0  0
  4 12  1  0  0  0
  5  8  1  0  0  0
  5 21  1  0  0  0
  5 22  1  0  0  0
  6 23  1  0  0  0
  7 13  1  0  0  0
  8  9  1  0  0  0
  8 24  1  0  0  0
  8 25  1  0  0  0
  9 10  1  0  0  0
  9 16  1  0  0  0
  9 26  1  0  0  0
 10 11  2  0  0  0
 10 15  1  0  0  0
 11 12  1  0  0  0
 11 27  1  0  0  0
 12 13  2  0  0  0
 13 14  1  0  0  0
 14 15  2  0  0  0
 14 28  1  0  0  0
 15 29  1  0  0  0
 16 17  1  0  0  0
 16 18  1  0  0  0
 16 19  2  0  0  0
 18 30  1  0  0  0
M  CHG  1  17  -1
M  END
> <s_m_source_file>
../2y1d_ligand.sdf

> <i_m_source_file_index>
1

> <s_epik_input>
Tz1bQ0hdTihbT0hdKVtDSDJdW0NIMl1bQ0BIXShQKD1PKShbT0hdKVtPSF0pYzFbY0hdYyhDbCljKENsKVtjSF1bY0hdMQ==

> <s_epik_cmdline>
J2VwaWtfYXBwJywgJy1pbWFlJywgJ2xpZ2FuZF9wcm8ubWFlJywgJy1vbWFlJywgJ2xpZ2FuZF9wcmVwLm1hZScsICctbXMnLCAnMScsICctcGgnLCAnNycsICctcGh0JywgJzAuNScsICctbnQn

> <r_epik_Ionization_Penalty>
  0.2070

> <r_epik_Ionization_Penalty_Charging>
  0.0000

> <r_epik_Ionization_Penalty_Neutral>
  0.2070

> <r_epik_State_Penalty>
  0.1924

> <r_epik_Charging_Adjusted_Penalty>
0.192364067018591

> <i_epik_Tot_Q>
-1

> <i_epik_Tot_abs_Q>
1

> <s_epik_Chemistry_Notes>
This compound has a N-S or N-O group and may undergo hydrolysis at high or low pH.

$$$$
