2y1n_ligand
                    3D
 Schrodinger Suite 2020-3.
124126  0  0  1  0            999 V2000
   42.6280  -51.2140   -3.9760 N   0  3  0  0  0  0
   43.4540  -52.4140   -4.1120 C   0  0  2  0  0  0
   44.9470  -52.0590   -4.0710 C   0  0  0  0  0  0
   45.7790  -52.8410   -3.5890 O   0  0  0  0  0  0
   43.1050  -53.1550   -5.4150 C   0  0  0  0  0  0
   43.6920  -54.4490   -5.4650 O   0  0  0  0  0  0
   45.2700  -50.8670   -4.5700 N   0  0  0  0  0  0
   46.6440  -50.4140   -4.7130 C   0  0  2  0  0  0
   46.6830  -48.9460   -4.3720 C   0  0  0  0  0  0
   47.7340  -48.3120   -4.4170 O   0  0  0  0  0  0
   47.1260  -50.5950   -6.1590 C   0  0  0  0  0  0
   47.5240  -52.0240   -6.4730 C   0  0  0  0  0  0
   48.1780  -52.6590   -5.6240 O   0  0  0  0  0  0
   47.1940  -52.5140   -7.5730 O   0  5  0  0  0  0
   45.5220  -48.3940   -4.0520 N   0  0  0  0  0  0
   45.4420  -46.9790   -3.7440 C   0  0  0  0  0  0
   45.0010  -46.7100   -2.3210 C   0  0  0  0  0  0
   44.7460  -47.6370   -1.5450 O   0  0  0  0  0  0
   44.9020  -45.4330   -1.9750 N   0  0  0  0  0  0
   44.3790  -45.0430   -0.6590 C   0  0  2  0  0  0
   42.8850  -44.6990   -0.7250 C   0  0  0  0  0  0
   42.4570  -43.8240   -1.4910 O   0  0  0  0  0  0
   45.2020  -43.9010   -0.0330 C   0  0  0  0  0  0
   46.6150  -44.3110    0.3380 C   0  0  0  0  0  0
   46.8330  -45.3320    1.2550 C   0  0  0  0  0  0
   47.7320  -43.6960   -0.2470 C   0  0  0  0  0  0
   48.1140  -45.7240    1.5890 C   0  0  0  0  0  0
   49.0190  -44.0840    0.0870 C   0  0  0  0  0  0
   49.2000  -45.0980    1.0020 C   0  0  0  0  0  0
   50.3260  -45.4710    1.3250 O   0  0  0  0  0  0
   51.6550  -44.6530    0.9390 P   0  0  0  0  0  0
   51.9050  -44.8250   -0.5020 O   0  0  0  0  0  0
   52.7880  -45.2680    1.7690 O   0  5  0  0  0  0
   51.5200  -43.1460    1.2580 O   0  5  0  0  0  0
   42.0960  -45.4020    0.0820 N   0  0  0  0  0  0
   40.6600  -45.1840    0.1290 C   0  0  2  0  0  0
   40.2720  -44.1450    1.1910 C   0  0  0  0  0  0
   41.0670  -43.8310    2.0820 O   0  0  0  0  0  0
   39.9350  -46.5050    0.3830 C   0  0  2  0  0  0
   40.7800  -47.3590    1.1540 O   0  0  0  0  0  0
   39.6540  -47.2000   -0.9270 C   0  0  0  0  0  0
   39.0490  -43.5870    1.0910 N   0  0  0  0  0  0
   38.6420  -42.6600    2.1490 C   0  0  2  0  0  0
   38.4430  -43.4590    3.4300 C   0  0  0  0  0  0
   38.1830  -44.6720    3.3820 O   0  0  0  0  0  0
   37.2890  -42.1100    1.6520 C   0  0  0  0  0  0
   37.1120  -42.6310    0.2490 C   0  0  0  0  0  0
   37.9390  -43.8800    0.1670 C   0  0  0  0  0  0
   38.5880  -42.7860    4.5640 N   0  0  0  0  0  0
   38.3960  -43.4130    5.8590 C   0  0  2  0  0  0
   36.9960  -44.0180    5.9060 C   0  0  0  0  0  0
   36.0170  -43.3430    5.5790 O   0  0  0  0  0  0
   38.5820  -42.3710    6.9710 C   0  0  0  0  0  0
   39.5990  -41.2660    6.6330 C   0  0  0  0  0  0
   39.9030  -40.3580    7.8140 C   0  0  0  0  0  0
   40.0590  -40.8770    8.9330 O   0  0  0  0  0  0
   39.9860  -39.1250    7.6230 O   0  5  0  0  0  0
   36.8900  -45.2950    6.3050 N   0  0  0  0  0  0
   35.6080  -46.0200    6.3680 C   0  0  2  0  0  0
   34.4490  -45.2690    7.0630 C   0  0  0  0  0  0
   34.6780  -44.4270    7.9390 O   0  0  0  0  0  0
   35.9690  -47.2830    7.1700 C   0  0  0  0  0  0
   37.2630  -46.9540    7.8580 C   0  0  0  0  0  0
   37.9850  -46.0910    6.8790 C   0  0  0  0  0  0
   33.2160  -45.5910    6.6730 N   0  0  0  0  0  0
   32.0120  -45.0050    7.2750 C   0  0  2  0  0  0
   32.1150  -44.7930    8.7920 C   0  0  0  0  0  0
   31.5350  -45.5440    9.5830 O   0  0  0  0  0  0
   30.7910  -45.8600    6.9430 C   0  0  0  0  0  0
   32.8031  -43.8364    9.2380 O   0  5  0  0  0  0
   42.8872  -50.6944   -3.0417 H   0  0  0  0  0  0
   41.5662  -51.5004   -3.9539 H   0  0  0  0  0  0
   42.8097  -50.5451   -4.8302 H   0  0  0  0  0  0
   43.2086  -53.0422   -3.2430 H   0  0  0  0  0  0
   42.0136  -53.2696   -5.4905 H   0  0  0  0  0  0
   43.4734  -52.5771   -6.2754 H   0  0  0  0  0  0
   43.5273  -55.0942   -6.3406 H   0  0  0  0  0  0
   44.4406  -50.2146   -4.8806 H   0  0  0  0  0  0
   47.2563  -51.0126   -4.0225 H   0  0  0  0  0  0
   46.3204  -50.3113   -6.8522 H   0  0  0  0  0  0
   48.0037  -49.9560   -6.3357 H   0  0  0  0  0  0
   44.6152  -49.0158   -4.0207 H   0  0  0  0  0  0
   46.4310  -46.5174   -3.8812 H   0  0  0  0  0  0
   44.7164  -46.4978   -4.4163 H   0  0  0  0  0  0
   45.2191  -44.6611   -2.6916 H   0  0  0  0  0  0
   44.5005  -45.9429   -0.0382 H   0  0  0  0  0  0
   45.2763  -43.0681   -0.7477 H   0  0  0  0  0  0
   44.7068  -43.5529    0.8855 H   0  0  0  0  0  0
   45.9808  -45.8304    1.7171 H   0  0  0  0  0  0
   47.5846  -42.8996   -0.9765 H   0  0  0  0  0  0
   48.2696  -46.5240    2.3128 H   0  0  0  0  0  0
   49.8787  -43.5928   -0.3688 H   0  0  0  0  0  0
   42.5577  -46.1655    0.7253 H   0  0  0  0  0  0
   40.4065  -44.7916   -0.8669 H   0  0  0  0  0  0
   39.0086  -46.3411    0.9530 H   0  0  0  0  0  0
   41.1121  -47.0461    2.1549 H   0  0  0  0  0  0
   39.0030  -46.5656   -1.5464 H   0  0  0  0  0  0
   39.1533  -48.1600   -0.7327 H   0  0  0  0  0  0
   40.6010  -47.3810   -1.4566 H   0  0  0  0  0  0
   39.3989  -41.8826    2.3301 H   0  0  0  0  0  0
   36.4838  -42.4671    2.3108 H   0  0  0  0  0  0
   37.3130  -41.0103    1.6653 H   0  0  0  0  0  0
   36.0482  -42.8452    0.0689 H   0  0  0  0  0  0
   37.4605  -41.8747   -0.4697 H   0  0  0  0  0  0
   38.3395  -44.0620   -0.8412 H   0  0  0  0  0  0
   37.3993  -44.7735    0.5139 H   0  0  0  0  0  0
   38.8620  -41.7224    4.5031 H   0  0  0  0  0  0
   39.1548  -44.2030    5.9600 H   0  0  0  0  0  0
   37.6210  -41.8755    7.1736 H   0  0  0  0  0  0
   38.9374  -42.8695    7.8849 H   0  0  0  0  0  0
   40.5457  -41.7248    6.3116 H   0  0  0  0  0  0
   39.2020  -40.6379    5.8219 H   0  0  0  0  0  0
   35.2597  -46.1733    5.3359 H   0  0  0  0  0  0
   35.1692  -47.4989    7.8937 H   0  0  0  0  0  0
   36.0810  -48.1344    6.4825 H   0  0  0  0  0  0
   37.0535  -46.4256    8.7998 H   0  0  0  0  0  0
   37.8106  -47.8835    8.0730 H   0  0  0  0  0  0
   38.4783  -46.6651    6.0809 H   0  0  0  0  0  0
   38.7162  -45.4202    7.3537 H   0  0  0  0  0  0
   33.1223  -46.3299    5.8635 H   0  0  0  0  0  0
   31.9426  -44.0131    6.8045 H   0  0  0  0  0  0
   30.7293  -46.0039    5.8542 H   0  0  0  0  0  0
   29.8813  -45.3537    7.2981 H   0  0  0  0  0  0
   30.8830  -46.8382    7.4376 H   0  0  0  0  0  0
  1  2  1  0  0  0
  1 71  1  0  0  0
  1 72  1  0  0  0
  1 73  1  0  0  0
  2  3  1  0  0  0
  2  5  1  0  0  0
  2 74  1  0  0  0
  3  4  2  0  0  0
  3  7  1  0  0  0
  5  6  1  0  0  0
  5 75  1  0  0  0
  5 76  1  0  0  0
  6 77  1  0  0  0
  7  8  1  0  0  0
  7 78  1  0  0  0
  8  9  1  0  0  0
  8 11  1  0  0  0
  8 79  1  0  0  0
  9 10  2  0  0  0
  9 15  1  0  0  0
 11 12  1  0  0  0
 11 80  1  0  0  0
 11 81  1  0  0  0
 12 13  2  0  0  0
 12 14  1  0  0  0
 15 16  1  0  0  0
 15 82  1  0  0  0
 16 17  1  0  0  0
 16 83  1  0  0  0
 16 84  1  0  0  0
 17 18  2  0  0  0
 17 19  1  0  0  0
 19 20  1  0  0  0
 19 85  1  0  0  0
 20 21  1  0  0  0
 20 23  1  0  0  0
 20 86  1  0  0  0
 21 22  2  0  0  0
 21 35  1  0  0  0
 23 24  1  0  0  0
 23 87  1  0  0  0
 23 88  1  0  0  0
 24 25  2  0  0  0
 24 26  1  0  0  0
 25 27  1  0  0  0
 25 89  1  0  0  0
 26 28  2  0  0  0
 26 90  1  0  0  0
 27 29  2  0  0  0
 27 91  1  0  0  0
 28 29  1  0  0  0
 28 92  1  0  0  0
 29 30  1  0  0  0
 30 31  1  0  0  0
 31 32  2  0  0  0
 31 33  1  0  0  0
 31 34  1  0  0  0
 35 36  1  0  0  0
 35 93  1  0  0  0
 36 37  1  0  0  0
 36 39  1  0  0  0
 36 94  1  0  0  0
 37 38  2  0  0  0
 37 42  1  0  0  0
 39 40  1  0  0  0
 39 41  1  0  0  0
 39 95  1  0  0  0
 40 96  1  0  0  0
 41 97  1  0  0  0
 41 98  1  0  0  0
 41 99  1  0  0  0
 42 43  1  0  0  0
 42 48  1  0  0  0
 43 44  1  0  0  0
 43 46  1  0  0  0
 43100  1  0  0  0
 44 45  2  0  0  0
 44 49  1  0  0  0
 46 47  1  0  0  0
 46101  1  0  0  0
 46102  1  0  0  0
 47 48  1  0  0  0
 47103  1  0  0  0
 47104  1  0  0  0
 48105  1  0  0  0
 48106  1  0  0  0
 49 50  1  0  0  0
 49107  1  0  0  0
 50 51  1  0  0  0
 50 53  1  0  0  0
 50108  1  0  0  0
 51 52  2  0  0  0
 51 58  1  0  0  0
 53 54  1  0  0  0
 53109  1  0  0  0
 53110  1  0  0  0
 54 55  1  0  0  0
 54111  1  0  0  0
 54112  1  0  0  0
 55 56  2  0  0  0
 55 57  1  0  0  0
 58 59  1  0  0  0
 58 64  1  0  0  0
 59 60  1  0  0  0
 59 62  1  0  0  0
 59113  1  0  0  0
 60 61  2  0  0  0
 60 65  1  0  0  0
 62 63  1  0  0  0
 62114  1  0  0  0
 62115  1  0  0  0
 63 64  1  0  0  0
 63116  1  0  0  0
 63117  1  0  0  0
 64118  1  0  0  0
 64119  1  0  0  0
 65 66  1  0  0  0
 65120  1  0  0  0
 66 67  1  0  0  0
 66 69  1  0  0  0
 66121  1  0  0  0
 67 68  2  0  0  0
 67 70  1  0  0  0
 69122  1  0  0  0
 69123  1  0  0  0
 69124  1  0  0  0
M  CHG  6   1   1  14  -1  33  -1  34  -1  57  -1  70  -1
M  END
> <s_m_source_file>
../2y1n_ligand.sdf

> <i_m_source_file_index>
1

> <s_epik_input>
W09IXVtDSDJdW0NASF0oW05IMytdKUMoPU8pW05IXVtDQEBIXShbQ0gyXUMoPU8pW09IXSlDKD1PKVtOSF1bQ0gyXUMoPU8pW05IXVtDQEBIXShbQ0gyXWMxW2NIXVtjSF1jKFtjSF1bY0hdMSlPUCg9TykoW09IXSlbT0hdKUMoPU8pW05IXVtDQEBIXShbQ0BIXShbT0hdKVtDSDNdKUMoPU8pTjJbQ0BASF0oW0NIMl1bQ0gyXVtDSDJdMilDKD1PKVtOSF1bQ0BASF0oW0NIMl1bQ0gyXUMoPU8pW09IXSlDKD1PKU4zW0NAQEhdKFtDSDJdW0NIMl1bQ0gyXTMpQyg9TylbTkhdW0NAQEhdKFtDSDNdKUMoPU8pW09IXQ==

> <s_epik_cmdline>
J2VwaWtfYXBwJywgJy1pbWFlJywgJ2xpZ2FuZF9wcm8ubWFlJywgJy1vbWFlJywgJ2xpZ2FuZF9wcmVwLm1hZScsICctbXMnLCAnMScsICctcGgnLCAnNycsICctcGh0JywgJzAuNScsICctbnQn

> <r_epik_Ionization_Penalty>
  0.2357

> <r_epik_Ionization_Penalty_Charging>
  0.2357

> <r_epik_Ionization_Penalty_Neutral>
  0.0000

> <r_epik_State_Penalty>
  0.1981

> <r_epik_Charging_Adjusted_Penalty>
0.433752763163765

> <i_epik_Tot_Q>
-4

> <i_epik_Tot_abs_Q>
6

$$$$
