2y1o_ligand
                    3D
 Schrodinger Suite 2020-3.
 53 55  0  0  1  0            999 V2000
   -5.3310   32.1810   54.1340 O   0  0  0  0  0  0
   -5.2680   31.2740   54.9930 C   0  0  0  0  0  0
   -4.4270   31.3180   55.9330 O   0  5  0  0  0  0
   -6.2500   30.1090   54.9630 C   0  0  0  0  0  0
   -6.1340   29.2490   53.6880 C   0  0  0  0  0  0
   -7.1500   27.4470   52.2920 C   0  0  0  0  0  0
   -7.1980   27.9700   51.1270 O   0  5  0  0  0  0
   -6.9180   26.2310   52.4900 O   0  0  0  0  0  0
   -8.5350   29.1540   53.3570 N   0  0  0  0  0  0
   -9.7600   28.7780   53.7440 C   0  0  0  0  0  0
   -9.9110   27.8100   54.4760 O   0  0  0  0  0  0
  -10.9480   29.4860   53.2280 C   0  0  0  0  0  0
  -10.8840   30.7730   52.8390 C   0  0  0  0  0  0
  -12.2500   28.7930   53.1040 C   0  0  0  0  0  0
  -11.9620   31.4140   52.2410 C   0  0  0  0  0  0
  -13.3230   29.4360   52.4790 C   0  0  0  0  0  0
  -13.2010   30.7770   52.1250 C   0  0  0  0  0  0
  -13.7750   33.9140   52.7120 C   0  0  0  0  0  0
  -12.9130   33.7270   51.5330 C   0  0  0  0  0  0
  -11.7730   32.7670   51.7230 N   0  0  0  0  0  0
  -13.2060   34.1790   53.9490 C   0  0  0  0  0  0
  -14.0160   34.3200   55.0630 C   0  0  0  0  0  0
  -15.1530   33.8200   52.5860 C   0  0  0  0  0  0
  -15.9710   33.9720   53.7110 C   0  0  0  0  0  0
  -15.4140   34.2360   54.9560 C   0  0  0  0  0  0
  -16.2160   34.3910   56.1910 C   0  0  0  0  0  0
  -17.5530   34.4750   56.3210 C   0  0  0  0  0  0
  -18.7890   34.3340   55.0900 S   0  0  0  0  0  0
  -19.9650   34.6570   56.3300 C   0  0  0  0  0  0
  -21.6740   34.6740   55.8690 S   0  0  0  0  0  0
  -19.5430   34.8220   57.6150 N   0  0  0  0  0  0
  -18.1870   34.7410   57.6220 C   0  0  0  0  0  0
   -7.3450   28.3040   53.5210 C   0  0  2  0  0  0
  -17.5010   34.8700   58.6990 O   0  0  0  0  0  0
   -6.0651   29.4513   55.8251 H   0  0  0  0  0  0
   -7.2788   30.4953   55.0105 H   0  0  0  0  0  0
   -6.0839   29.9051   52.8065 H   0  0  0  0  0  0
   -5.2223   28.6358   53.7410 H   0  0  0  0  0  0
   -8.4410   30.1492   52.8980 H   0  0  0  0  0  0
   -9.9597   31.3285   52.9977 H   0  0  0  0  0  0
  -12.3721   27.7843   53.4987 H   0  0  0  0  0  0
  -14.2451   28.8932   52.2712 H   0  0  0  0  0  0
  -14.0676   31.3277   51.7591 H   0  0  0  0  0  0
  -13.5140   33.3395   50.6972 H   0  0  0  0  0  0
  -12.4673   34.6914   51.2479 H   0  0  0  0  0  0
  -10.7476   33.0735   51.4687 H   0  0  0  0  0  0
  -12.1245   34.2759   54.0437 H   0  0  0  0  0  0
  -13.5620   34.4989   56.0377 H   0  0  0  0  0  0
  -15.5989   33.6276   51.6102 H   0  0  0  0  0  0
  -17.0526   33.8827   53.6099 H   0  0  0  0  0  0
  -15.5728   34.4368   57.0822 H   0  0  0  0  0  0
  -20.2767   34.9855   58.4181 H   0  0  0  0  0  0
   -7.4974   27.6420   54.3862 H   0  0  0  0  0  0
  1  2  2  0  0  0
  2  3  1  0  0  0
  2  4  1  0  0  0
  4  5  1  0  0  0
  4 35  1  0  0  0
  4 36  1  0  0  0
  5 33  1  0  0  0
  5 37  1  0  0  0
  5 38  1  0  0  0
  6  7  1  0  0  0
  6  8  2  0  0  0
  6 33  1  0  0  0
  9 10  1  0  0  0
  9 33  1  0  0  0
  9 39  1  0  0  0
 10 11  2  0  0  0
 10 12  1  0  0  0
 12 13  2  0  0  0
 12 14  1  0  0  0
 13 15  1  0  0  0
 13 40  1  0  0  0
 14 16  2  0  0  0
 14 41  1  0  0  0
 15 17  2  0  0  0
 15 20  1  0  0  0
 16 17  1  0  0  0
 16 42  1  0  0  0
 17 43  1  0  0  0
 18 19  1  0  0  0
 18 21  2  0  0  0
 18 23  1  0  0  0
 19 20  1  0  0  0
 19 44  1  0  0  0
 19 45  1  0  0  0
 20 46  1  0  0  0
 21 22  1  0  0  0
 21 47  1  0  0  0
 22 25  2  0  0  0
 22 48  1  0  0  0
 23 24  2  0  0  0
 23 49  1  0  0  0
 24 25  1  0  0  0
 24 50  1  0  0  0
 25 26  1  0  0  0
 26 27  2  0  0  0
 26 51  1  0  0  0
 27 28  1  0  0  0
 27 32  1  0  0  0
 28 29  1  0  0  0
 29 30  2  0  0  0
 29 31  1  0  0  0
 31 32  1  0  0  0
 31 52  1  0  0  0
 32 34  2  0  0  0
 33 53  1  0  0  0
M  CHG  2   3  -1   7  -1
M  END
> <s_m_source_file>
../2y1o_ligand.sdf

> <i_m_source_file_index>
1

> <s_epik_input>
Tz1DKFtPSF0pW0NIMl1bQ0gyXVtDQEhdKEMoPU8pW09IXSlbTkhdQyg9TyljMVtjSF1jKFtjSF1bY0hdW2NIXTEpW05IXVtDSDJdYzJbY0hdW2NIXWMoW2NIXVtjSF0yKS9bQ0hdPUMzXFNDKD1TKVtOSF1DMz1P

> <s_epik_cmdline>
J2VwaWtfYXBwJywgJy1pbWFlJywgJ2xpZ2FuZF9wcm8ubWFlJywgJy1vbWFlJywgJ2xpZ2FuZF9wcmVwLm1hZScsICctbXMnLCAnMScsICctcGgnLCAnNycsICctcGh0JywgJzAuNScsICctbnQn

> <r_epik_Ionization_Penalty>
  0.2911

> <r_epik_Ionization_Penalty_Charging>
  0.0043

> <r_epik_Ionization_Penalty_Neutral>
  0.2868

> <r_epik_State_Penalty>
  0.2796

> <r_epik_Charging_Adjusted_Penalty>
0.283943765168887

> <i_epik_Tot_Q>
-2

> <i_epik_Tot_abs_Q>
2

$$$$
