2y1w_ligand
                    3D
 Schrodinger Suite 2020-3.
 57 60  0  0  1  0            999 V2000
   28.8430  -28.9630  -78.6770 C   0  0  0  0  0  0
   28.2160  -27.6680  -78.4820 C   0  0  0  0  0  0
   28.3160  -26.6770  -79.5130 C   0  0  0  0  0  0
   29.0100  -26.9200  -80.7160 C   0  0  0  0  0  0
   29.5490  -29.2090  -79.8970 C   0  0  0  0  0  0
   29.6270  -28.1870  -80.9030 C   0  0  0  0  0  0
   30.3600  -28.6350  -81.9940 N   0  3  0  0  0  0
   30.7720  -29.9790  -81.6790 C   0  0  0  0  0  0
   30.2500  -30.3120  -80.3740 C   0  0  0  0  0  0
   31.5700  -30.8040  -82.5640 C   0  0  0  0  0  0
   27.4460  -27.3520  -77.1490 C   0  0  2  0  0  0
   27.6330  -28.3820  -75.9620 C   0  0  0  0  0  0
   26.6630  -29.6170  -75.9280 C   0  0  0  0  0  0
   25.2030  -29.2370  -76.2010 N   0  0  1  0  0  0
   25.0290  -28.3930  -77.4450 C   0  0  0  0  0  0
   25.9070  -27.1120  -77.3760 C   0  0  0  0  0  0
   24.2700  -30.4660  -76.2170 C   0  0  0  0  0  0
   24.7380  -31.5930  -77.1830 C   0  0  0  0  0  0
   23.7030  -32.6670  -77.3380 N   0  3  0  0  0  0
   23.9280  -33.5950  -78.4870 C   0  0  0  0  0  0
   31.1790  -31.0230  -83.9470 C   0  0  0  0  0  0
   32.0110  -31.8490  -84.7950 C   0  0  0  0  0  0
   33.1980  -32.4470  -84.2920 C   0  0  0  0  0  0
   33.5830  -32.2370  -82.9460 C   0  0  0  0  0  0
   32.7900  -31.4330  -82.0950 C   0  0  0  0  0  0
   29.9800  -30.4090  -84.4120 O   0  0  0  0  0  0
   29.2730  -30.6490  -85.6630 C   0  0  0  0  0  0
   30.4050  -31.4910  -79.7010 F   0  0  0  0  0  0
   28.7771  -29.7332  -77.9085 H   0  0  0  0  0  0
   27.8416  -25.7072  -79.3625 H   0  0  0  0  0  0
   29.0722  -26.1520  -81.4870 H   0  0  0  0  0  0
   27.9369  -26.4192  -76.8344 H   0  0  0  0  0  0
   28.6477  -28.8049  -76.0000 H   0  0  0  0  0  0
   27.4867  -27.8655  -75.0019 H   0  0  0  0  0  0
   26.9686  -30.3445  -76.6944 H   0  0  0  0  0  0
   26.7060  -30.0899  -74.9358 H   0  0  0  0  0  0
   25.3257  -28.9770  -78.3287 H   0  0  0  0  0  0
   23.9749  -28.0935  -77.5405 H   0  0  0  0  0  0
   25.5047  -26.5062  -76.5507 H   0  0  0  0  0  0
   25.7550  -26.5820  -78.3278 H   0  0  0  0  0  0
   24.2181  -30.9001  -75.2076 H   0  0  0  0  0  0
   23.2633  -30.1580  -76.5359 H   0  0  0  0  0  0
   24.9393  -31.1646  -78.1760 H   0  0  0  0  0  0
   25.6557  -32.0550  -76.7901 H   0  0  0  0  0  0
   23.6797  -33.2875  -76.4300 H   0  0  0  0  0  0
   22.7163  -32.2059  -77.4923 H   0  0  0  0  0  0
   23.1219  -34.3429  -78.5175 H   0  0  0  0  0  0
   24.8956  -34.1035  -78.3635 H   0  0  0  0  0  0
   23.9322  -33.0218  -79.4259 H   0  0  0  0  0  0
   31.7236  -32.0148  -85.8333 H   0  0  0  0  0  0
   33.8128  -33.0681  -84.9434 H   0  0  0  0  0  0
   34.4944  -32.6969  -82.5641 H   0  0  0  0  0  0
   33.1030  -31.2823  -81.0618 H   0  0  0  0  0  0
   28.3808  -30.0072  -85.7089 H   0  0  0  0  0  0
   28.9683  -31.7047  -85.7153 H   0  0  0  0  0  0
   29.9360  -30.4164  -86.5093 H   0  0  0  0  0  0
   30.5133  -27.9763  -82.8615 H   0  0  0  0  0  0
  1  2  2  0  0  0
  1  5  1  0  0  0
  1 29  1  0  0  0
  2  3  1  0  0  0
  2 11  1  0  0  0
  3  4  2  0  0  0
  3 30  1  0  0  0
  4  6  1  0  0  0
  4 31  1  0  0  0
  5  6  2  0  0  0
  5  9  1  0  0  0
  6  7  1  0  0  0
  7  8  1  0  0  0
  7 57  1  0  0  0
  8  9  2  0  0  0
  8 10  1  0  0  0
  9 28  1  0  0  0
 10 21  2  0  0  0
 10 25  1  0  0  0
 11 12  1  0  0  0
 11 16  1  0  0  0
 11 32  1  0  0  0
 12 13  1  0  0  0
 12 33  1  0  0  0
 12 34  1  0  0  0
 13 14  1  0  0  0
 13 35  1  0  0  0
 13 36  1  0  0  0
 14 15  1  0  0  0
 14 17  1  0  0  0
 15 16  1  0  0  0
 15 37  1  0  0  0
 15 38  1  0  0  0
 16 39  1  0  0  0
 16 40  1  0  0  0
 17 18  1  0  0  0
 17 41  1  0  0  0
 17 42  1  0  0  0
 18 19  1  0  0  0
 18 43  1  0  0  0
 18 44  1  0  0  0
 19 20  1  0  0  0
 19 45  1  0  0  0
 19 46  1  0  0  0
 20 47  1  0  0  0
 20 48  1  0  0  0
 20 49  1  0  0  0
 21 22  1  0  0  0
 21 26  1  0  0  0
 22 23  2  0  0  0
 22 50  1  0  0  0
 23 24  1  0  0  0
 23 51  1  0  0  0
 24 25  2  0  0  0
 24 52  1  0  0  0
 25 53  1  0  0  0
 26 27  1  0  0  0
 27 54  1  0  0  0
 27 55  1  0  0  0
 27 56  1  0  0  0
M  CHG  2   7   1  19   1
M  END
> <s_m_source_file>
../2y1w_ligand.sdf

> <i_m_source_file_index>
1

> <s_epik_input>
W0NIM11bTkgyK11bQ0gyXVtDSDJdW05ASCtdKFtDSDJdW0NIMl0xKVtDSDJdW0NIMl1bQ0BIXTFjKFtjSF0yKVtjSF1bY0hdYyhjMjMpW25IXWMoYzNGKS1jNGMoT1tDSDNdKVtjSF1bY0hdW2NIXVtjSF00

> <s_epik_cmdline>
J2VwaWtfYXBwJywgJy1pbWFlJywgJ2xpZ2FuZF9wcm8ubWFlJywgJy1vbWFlJywgJ2xpZ2FuZF9wcmVwLm1hZScsICctbXMnLCAnMScsICctcGgnLCAnNycsICctcGh0JywgJzAuNScsICctbnQn

> <r_epik_Ionization_Penalty>
  0.1113

> <r_epik_Ionization_Penalty_Charging>
  0.0010

> <r_epik_Ionization_Penalty_Neutral>
  0.1103

> <r_epik_State_Penalty>
  0.1614

> <r_epik_Charging_Adjusted_Penalty>
0.162387598956361

> <i_epik_Tot_Q>
2

> <i_epik_Tot_abs_Q>
2

$$$$
