2y2k_ligand
                    3D
 Schrodinger Suite 2020-3.
 23 23  0  0  1  0            999 V2000
   -9.6450    6.0470    6.6970 F   0  0  0  0  0  0
   -9.9210    7.2090    6.0690 C   0  0  0  0  0  0
  -10.5390    7.2850    4.8120 C   0  0  0  0  0  0
  -10.8190    8.5220    4.1920 C   0  0  0  0  0  0
  -10.4960    9.6960    4.8550 C   0  0  0  0  0  0
   -9.8810    9.6330    6.1180 C   0  0  0  0  0  0
   -9.5690   10.7790    6.7640 F   0  0  0  0  0  0
   -9.6480    8.3910    6.7440 C   0  0  0  0  0  0
   -8.8910    8.2610    8.0670 C   0  0  0  0  0  0
   -7.9280    7.5240    8.0490 O   0  0  0  0  0  0
   -9.3760    8.9450    9.1740 N   0  0  0  0  0  0
   -8.7430    8.9910   10.3970 C   0  0  0  0  0  0
   -9.0150   10.3710   11.1050 B   0  0  0  0  0  0
   -8.8580   11.5820   10.1650 O   0  0  0  0  0  0
   -8.1640   10.5200   12.3760 O   0  0  0  0  0  0
  -10.8109    6.3624    4.2992 H   0  0  0  0  0  0
  -11.2826    8.5537    3.2060 H   0  0  0  0  0  0
  -10.7173   10.6615    4.4002 H   0  0  0  0  0  0
  -10.3300    9.4729    9.0282 H   0  0  0  0  0  0
   -9.1214    8.1799   11.0364 H   0  0  0  0  0  0
   -7.6591    8.8696   10.2537 H   0  0  0  0  0  0
   -9.4091   11.6148    9.2136 H   0  0  0  0  0  0
   -8.1753    9.7299   13.1412 H   0  0  0  0  0  0
  1  2  1  0  0  0
  2  3  2  0  0  0
  2  8  1  0  0  0
  3  4  1  0  0  0
  3 16  1  0  0  0
  4  5  2  0  0  0
  4 17  1  0  0  0
  5  6  1  0  0  0
  5 18  1  0  0  0
  6  7  1  0  0  0
  6  8  2  0  0  0
  8  9  1  0  0  0
  9 10  2  0  0  0
  9 11  1  0  0  0
 11 12  1  0  0  0
 11 19  1  0  0  0
 12 13  1  0  0  0
 12 20  1  0  0  0
 12 21  1  0  0  0
 13 14  1  0  0  0
 13 15  1  0  0  0
 14 22  1  0  0  0
 15 23  1  0  0  0
M  END
> <s_m_source_file>
../2y2k_ligand.sdf

> <i_m_source_file_index>
1

> <s_epik_input>
RmMxW2NIXVtjSF1bY0hdYyhGKWMxQyg9TylbTkhdW0NIMl1CKFtPSF0pW09IXQ==

> <s_epik_cmdline>
J2VwaWtfYXBwJywgJy1pbWFlJywgJ2xpZ2FuZF9wcm8ubWFlJywgJy1vbWFlJywgJ2xpZ2FuZF9wcmVwLm1hZScsICctbXMnLCAnMScsICctcGgnLCAnNycsICctcGh0JywgJzAuNScsICctbnQn

> <r_lp_tautomer_probability>
1

> <r_epik_Ionization_Penalty>
  0.0000

> <r_epik_Ionization_Penalty_Charging>
  0.0000

> <r_epik_Ionization_Penalty_Neutral>
  0.0000

> <r_epik_State_Penalty>
 -0.0000

> <r_epik_Charging_Adjusted_Penalty>
0

> <i_epik_Tot_Q>
0

> <i_epik_Tot_abs_Q>
0

> <s_epik_Chemistry_Notes>
This compound contains a Lewis acid (boronic acid) which adds nucleophiles to form tetrahedral complexes, lowering the experimental pKa

$$$$
