2y2n_ligand
                    3D
 Schrodinger Suite 2020-3.
 39 40  0  0  1  0            999 V2000
    8.1110   10.3480  -12.8580 O   0  0  0  0  0  0
    8.7030   10.0250  -11.4580 B   0  0  0  0  0  0
    8.4960   11.2840  -10.5470 O   0  0  0  0  0  0
    8.1030    8.8230  -10.9910 C   0  0  1  0  0  0
    8.8700    8.1100   -9.8890 C   0  0  0  0  0  0
    6.7190    9.1350  -10.6340 N   0  0  0  0  0  0
    5.6600    8.1770  -10.3720 C   0  0  0  0  0  0
    5.7940    6.9510  -10.3830 O   0  0  0  0  0  0
    4.3140    8.7840  -10.1440 C   0  0  0  0  0  0
    4.0140    9.4090   -8.9330 C   0  0  0  0  0  0
    2.6860    9.7790   -8.7040 C   0  0  0  0  0  0
    1.6830    9.5590   -9.6670 C   0  0  0  0  0  0
    1.9930    8.9560  -10.8880 C   0  0  0  0  0  0
    3.3200    8.5770  -11.1090 C   0  0  0  0  0  0
    3.6770    7.9030  -12.4000 C   0  0  0  0  0  0
    3.7020    8.9190  -13.4970 C   0  0  0  0  0  0
    2.6320    8.9510  -14.4080 C   0  0  0  0  0  0
    2.6760    9.8100  -15.5130 C   0  0  0  0  0  0
    3.7960   10.6440  -15.6610 C   0  0  0  0  0  0
    4.8710   10.6530  -14.7460 C   0  0  0  0  0  0
    4.8570    9.8300  -13.6240 C   0  0  0  0  0  0
    8.4429   11.2446  -13.4020 H   0  0  0  0  0  0
    8.9293   12.2518  -10.8396 H   0  0  0  0  0  0
    8.1177    8.1320  -11.8468 H   0  0  0  0  0  0
    9.8970    7.9092  -10.2279 H   0  0  0  0  0  0
    8.3702    7.1596   -9.6503 H   0  0  0  0  0  0
    8.8977    8.7453   -8.9914 H   0  0  0  0  0  0
    6.3976   10.1830  -10.5420 H   0  0  0  0  0  0
    4.7889    9.6020   -8.1911 H   0  0  0  0  0  0
    2.4205   10.2492   -7.7571 H   0  0  0  0  0  0
    0.6569    9.8615   -9.4582 H   0  0  0  0  0  0
    1.2256    8.7866  -11.6434 H   0  0  0  0  0  0
    4.6686    7.4359  -12.3078 H   0  0  0  0  0  0
    2.9280    7.1309  -12.6299 H   0  0  0  0  0  0
    1.7668    8.3062  -14.2541 H   0  0  0  0  0  0
    1.8629    9.8307  -16.2386 H   0  0  0  0  0  0
    3.8372   11.3138  -16.5200 H   0  0  0  0  0  0
    5.7215   11.3120  -14.9203 H   0  0  0  0  0  0
    5.6538    9.8564  -12.8807 H   0  0  0  0  0  0
  1  2  1  0  0  0
  1 22  1  0  0  0
  2  3  1  0  0  0
  2  4  1  0  0  0
  3 23  1  0  0  0
  4  5  1  0  0  0
  4  6  1  0  0  0
  4 24  1  0  0  0
  5 25  1  0  0  0
  5 26  1  0  0  0
  5 27  1  0  0  0
  6  7  1  0  0  0
  6 28  1  0  0  0
  7  8  2  0  0  0
  7  9  1  0  0  0
  9 10  2  0  0  0
  9 14  1  0  0  0
 10 11  1  0  0  0
 10 29  1  0  0  0
 11 12  2  0  0  0
 11 30  1  0  0  0
 12 13  1  0  0  0
 12 31  1  0  0  0
 13 14  2  0  0  0
 13 32  1  0  0  0
 14 15  1  0  0  0
 15 16  1  0  0  0
 15 33  1  0  0  0
 15 34  1  0  0  0
 16 17  2  0  0  0
 16 21  1  0  0  0
 17 18  1  0  0  0
 17 35  1  0  0  0
 18 19  2  0  0  0
 18 36  1  0  0  0
 19 20  1  0  0  0
 19 37  1  0  0  0
 20 21  2  0  0  0
 20 38  1  0  0  0
 21 39  1  0  0  0
M  END
> <s_m_source_file>
../2y2n_ligand.sdf

> <i_m_source_file_index>
1

> <s_epik_input>
W09IXUIoW09IXSlbQ0BASF0oW0NIM10pW05IXUMoPU8pYzFbY0hdW2NIXVtjSF1bY0hdYzFbQ0gyXWMyW2NIXVtjSF1bY0hdW2NIXVtjSF0y

> <s_epik_cmdline>
J2VwaWtfYXBwJywgJy1pbWFlJywgJ2xpZ2FuZF9wcm8ubWFlJywgJy1vbWFlJywgJ2xpZ2FuZF9wcmVwLm1hZScsICctbXMnLCAnMScsICctcGgnLCAnNycsICctcGh0JywgJzAuNScsICctbnQn

> <r_lp_tautomer_probability>
1

> <r_epik_Ionization_Penalty>
  0.0000

> <r_epik_Ionization_Penalty_Charging>
  0.0000

> <r_epik_Ionization_Penalty_Neutral>
  0.0000

> <r_epik_State_Penalty>
 -0.0000

> <r_epik_Charging_Adjusted_Penalty>
0

> <i_epik_Tot_Q>
0

> <i_epik_Tot_abs_Q>
0

> <s_epik_Chemistry_Notes>
This compound contains a Lewis acid (boronic acid) which adds nucleophiles to form tetrahedral complexes, lowering the experimental pKa

$$$$
