2y2p_ligand
                    3D
 Schrodinger Suite 2020-3.
 36 37  0  0  1  0            999 V2000
   43.4540   66.4840   42.0610 F   0  0  0  0  0  0
   44.3640   66.0410   41.1720 C   0  0  0  0  0  0
   45.6160   65.6420   41.6330 C   0  0  0  0  0  0
   46.5800   65.1800   40.7400 C   0  0  0  0  0  0
   46.3000   65.1340   39.3790 C   0  0  0  0  0  0
   45.0520   65.5550   38.9150 C   0  0  0  0  0  0
   44.7400   65.4170   37.4750 C   0  0  0  0  0  0
   45.4100   66.1770   36.5180 C   0  0  0  0  0  0
   45.1270   65.9880   35.1650 C   0  0  0  0  0  0
   44.1880   65.0330   34.7720 C   0  0  0  0  0  0
   43.5480   64.2530   35.7300 C   0  0  0  0  0  0
   43.8410   64.4280   37.0800 C   0  0  0  0  0  0
   44.0790   65.9830   39.8060 C   0  0  0  0  0  0
   42.7660   66.4570   39.2490 C   0  0  0  0  0  0
   42.7120   67.6090   38.8380 O   0  0  0  0  0  0
   41.7380   65.6150   39.1760 N   0  0  0  0  0  0
   40.4280   65.9640   38.6130 C   0  0  2  0  0  0
   39.5520   66.5530   39.7160 C   0  0  0  0  0  0
   39.7930   64.7810   37.9620 B   0  0  0  0  0  0
   40.0920   63.4610   38.7380 O   0  0  0  0  0  0
   40.4070   64.6320   36.5460 O   0  0  0  0  0  0
   45.8428   65.6915   42.6980 H   0  0  0  0  0  0
   47.5531   64.8548   41.1080 H   0  0  0  0  0  0
   47.0511   64.7710   38.6774 H   0  0  0  0  0  0
   46.1511   66.9150   36.8249 H   0  0  0  0  0  0
   45.6403   66.5875   34.4132 H   0  0  0  0  0  0
   43.9563   64.8984   33.7155 H   0  0  0  0  0  0
   42.8170   63.5047   35.4237 H   0  0  0  0  0  0
   43.3674   63.7917   37.8276 H   0  0  0  0  0  0
   41.9152   64.6037   39.5708 H   0  0  0  0  0  0
   40.5859   66.7050   37.8155 H   0  0  0  0  0  0
   40.0602   67.4193   40.1645 H   0  0  0  0  0  0
   39.3745   65.7912   40.4894 H   0  0  0  0  0  0
   38.5901   66.8729   39.2888 H   0  0  0  0  0  0
   39.7456   63.3422   39.7752 H   0  0  0  0  0  0
   40.3162   65.4517   35.8181 H   0  0  0  0  0  0
  1  2  1  0  0  0
  2  3  2  0  0  0
  2 13  1  0  0  0
  3  4  1  0  0  0
  3 22  1  0  0  0
  4  5  2  0  0  0
  4 23  1  0  0  0
  5  6  1  0  0  0
  5 24  1  0  0  0
  6  7  1  0  0  0
  6 13  2  0  0  0
  7  8  2  0  0  0
  7 12  1  0  0  0
  8  9  1  0  0  0
  8 25  1  0  0  0
  9 10  2  0  0  0
  9 26  1  0  0  0
 10 11  1  0  0  0
 10 27  1  0  0  0
 11 12  2  0  0  0
 11 28  1  0  0  0
 12 29  1  0  0  0
 13 14  1  0  0  0
 14 15  2  0  0  0
 14 16  1  0  0  0
 16 17  1  0  0  0
 16 30  1  0  0  0
 17 18  1  0  0  0
 17 19  1  0  0  0
 17 31  1  0  0  0
 18 32  1  0  0  0
 18 33  1  0  0  0
 18 34  1  0  0  0
 19 20  1  0  0  0
 19 21  1  0  0  0
 20 35  1  0  0  0
 21 36  1  0  0  0
M  END
> <s_m_source_file>
../2y2p_ligand.sdf

> <i_m_source_file_index>
1

> <s_epik_input>
W09IXUIoW09IXSlbQ0BASF0oW0NIM10pW05IXUMoPU8pYzFjKFtjSF1bY0hdW2NIXWMxRiktYzJbY0hdW2NIXVtjSF1bY0hdW2NIXTI=

> <s_epik_cmdline>
J2VwaWtfYXBwJywgJy1pbWFlJywgJ2xpZ2FuZF9wcm8ubWFlJywgJy1vbWFlJywgJ2xpZ2FuZF9wcmVwLm1hZScsICctbXMnLCAnMScsICctcGgnLCAnNycsICctcGh0JywgJzAuNScsICctbnQn

> <r_lp_tautomer_probability>
1

> <r_epik_Ionization_Penalty>
  0.0000

> <r_epik_Ionization_Penalty_Charging>
  0.0000

> <r_epik_Ionization_Penalty_Neutral>
  0.0000

> <r_epik_State_Penalty>
 -0.0000

> <r_epik_Charging_Adjusted_Penalty>
0

> <i_epik_Tot_Q>
0

> <i_epik_Tot_abs_Q>
0

> <s_epik_Chemistry_Notes>
This compound contains a Lewis acid (boronic acid) which adds nucleophiles to form tetrahedral complexes, lowering the experimental pKa

$$$$
