2y34_ligand
                    3D
 Schrodinger Suite 2020-3.
 27 28  0  0  1  0            999 V2000
   36.3880  -16.7700    2.8300 O   0  0  0  0  0  0
   35.7900  -17.3170    1.8810 C   0  0  0  0  0  0
   34.6200  -17.0780    1.5110 O   0  5  0  0  0  0
   36.5440  -18.3850    1.0890 C   0  0  0  0  0  0
   37.9180  -18.5160    1.5930 N   0  0  0  0  0  0
   38.7190  -19.4490    1.0920 C   0  0  0  0  0  0
   38.3740  -20.2330    0.2060 O   0  0  0  0  0  0
   40.1290  -19.5310    1.6740 C   0  0  0  0  0  0
   40.8050  -20.6740    1.4890 N   0  0  0  0  0  0
   42.0280  -20.8830    1.9960 C   0  0  0  0  0  0
   42.7230  -22.4560    1.7570 Cl  0  0  0  0  0  0
   42.6510  -19.8780    2.7360 C   0  0  0  0  0  0
   40.6960  -18.4990    2.4140 C   0  0  0  0  0  0
   40.0200  -17.3440    2.6630 O   0  0  0  0  0  0
   41.9710  -18.6780    2.9400 C   0  0  0  0  0  0
   42.5530  -17.6500    3.6730 C   0  0  0  0  0  0
   43.8250  -17.8110    4.2140 C   0  0  0  0  0  0
   44.5060  -19.0070    4.0100 C   0  0  0  0  0  0
   43.9240  -20.0390    3.2760 C   0  0  0  0  0  0
   36.0287  -19.3512    1.1937 H   0  0  0  0  0  0
   36.5760  -18.0998    0.0271 H   0  0  0  0  0  0
   38.2805  -17.8422    2.3833 H   0  0  0  0  0  0
   39.0113  -17.1970    2.2495 H   0  0  0  0  0  0
   42.0119  -16.7160    3.8243 H   0  0  0  0  0  0
   44.2832  -17.0082    4.7917 H   0  0  0  0  0  0
   45.5040  -19.1381    4.4281 H   0  0  0  0  0  0
   44.4658  -20.9726    3.1247 H   0  0  0  0  0  0
  1  2  2  0  0  0
  2  3  1  0  0  0
  2  4  1  0  0  0
  4  5  1  0  0  0
  4 20  1  0  0  0
  4 21  1  0  0  0
  5  6  1  0  0  0
  5 22  1  0  0  0
  6  7  2  0  0  0
  6  8  1  0  0  0
  8  9  2  0  0  0
  8 13  1  0  0  0
  9 10  1  0  0  0
 10 11  1  0  0  0
 10 12  2  0  0  0
 12 15  1  0  0  0
 12 19  1  0  0  0
 13 14  1  0  0  0
 13 15  2  0  0  0
 14 23  1  0  0  0
 15 16  1  0  0  0
 16 17  2  0  0  0
 16 24  1  0  0  0
 17 18  1  0  0  0
 17 25  1  0  0  0
 18 19  2  0  0  0
 18 26  1  0  0  0
 19 27  1  0  0  0
M  CHG  1   3  -1
M  END
> <s_m_source_file>
../2y34_ligand.sdf

> <i_m_source_file_index>
1

> <s_epik_input>
Tz1DKFtPSF0pW0NIMl1bTkhdQyg9TyljKG5jMUNsKWMoW09IXSljKGMxMilbY0hdW2NIXVtjSF1bY0hdMg==

> <s_epik_cmdline>
J2VwaWtfYXBwJywgJy1pbWFlJywgJ2xpZ2FuZF9wcm8ubWFlJywgJy1vbWFlJywgJ2xpZ2FuZF9wcmVwLm1hZScsICctbXMnLCAnMScsICctcGgnLCAnNycsICctcGh0JywgJzAuNScsICctbnQn

> <r_epik_Ionization_Penalty>
  0.2507

> <r_epik_Ionization_Penalty_Charging>
  0.0002

> <r_epik_Ionization_Penalty_Neutral>
  0.2504

> <r_epik_State_Penalty>
  0.2552

> <r_epik_Charging_Adjusted_Penalty>
0.255393992824121

> <i_epik_Tot_Q>
-1

> <i_epik_Tot_abs_Q>
1

$$$$
