2y36_ligand
                    3D
 Schrodinger Suite 2020-3.
157159  0  0  1  0            999 V2000
    3.4240    9.3620  -45.9520 N   0  3  0  0  0  0
    2.6280    8.5660  -46.9370 C   0  0  2  0  0  0
    3.0700    7.1010  -46.8580 C   0  0  0  0  0  0
    4.2720    6.8190  -46.8030 O   0  0  0  0  0  0
    2.8500    9.1330  -48.3470 C   0  0  0  0  0  0
    2.3650   10.5780  -48.4760 C   0  0  0  0  0  0
    2.4670   11.3280  -47.4770 O   0  0  0  0  0  0
    1.8950   10.9700  -49.5690 O   0  0  0  0  0  0
    2.1150    6.1670  -46.8410 N   0  0  0  0  0  0
    2.4990    4.7620  -46.7370 C   0  0  2  0  0  0
    1.8720    3.6400  -47.5910 C   0  0  0  0  0  0
    1.8350    3.6930  -48.8270 O   0  0  0  0  0  0
    2.4880    4.3210  -45.2510 C   0  0  0  0  0  0
    1.5020    4.6840  -44.1220 C   0  0  0  0  0  0
    1.5770    6.1850  -43.8500 C   0  0  0  0  0  0
    0.0900    4.2380  -44.4560 C   0  0  0  0  0  0
    1.4340    2.6120  -46.8730 N   0  0  0  0  0  0
    0.8550    1.3700  -47.3660 C   0  0  2  0  0  0
    1.9430    0.3140  -47.6070 C   0  0  0  0  0  0
    1.7800   -0.5900  -48.4280 O   0  0  0  0  0  0
   -0.0930    1.5490  -48.5740 C   0  0  0  0  0  0
   -1.4810    0.9860  -48.2200 C   0  0  0  0  0  0
   -2.5320    0.7150  -49.0700 C   0  0  0  0  0  0
   -1.9210    0.5890  -46.9090 C   0  0  0  0  0  0
   -3.5880    0.1700  -48.3600 N   0  0  0  0  0  0
   -3.2380    0.0830  -47.0350 C   0  0  0  0  0  0
   -1.3260    0.6130  -45.6340 C   0  0  0  0  0  0
   -3.9640   -0.3990  -45.9320 C   0  0  0  0  0  0
   -2.0470    0.1390  -44.5440 C   0  0  0  0  0  0
   -3.3510   -0.3610  -44.7000 C   0  0  0  0  0  0
    3.0300    0.4860  -46.8290 N   0  0  0  0  0  0
    4.2580   -0.3410  -46.6640 C   0  0  2  0  0  0
    5.7050    0.1670  -46.6710 C   0  0  0  0  0  0
    6.0100    1.3630  -46.7250 O   0  0  0  0  0  0
    4.3600   -1.6450  -47.5370 C   0  0  2  0  0  0
    3.5300   -1.5900  -48.7000 O   0  0  0  0  0  0
    4.0650   -2.8520  -46.6660 C   0  0  0  0  0  0
    6.5680   -0.8470  -46.5640 N   0  0  0  0  0  0
    8.0320   -0.8110  -46.5190 C   0  0  2  0  0  0
    8.7710    0.3590  -45.8470 C   0  0  0  0  0  0
    9.3880    0.1670  -44.7930 O   0  0  0  0  0  0
    8.6330   -1.0850  -47.9380 C   0  0  2  0  0  0
    8.2020   -0.0750  -48.8600 O   0  0  0  0  0  0
    8.1750   -2.4540  -48.4500 C   0  0  0  0  0  0
    8.7140    1.5550  -46.4260 N   0  0  0  0  0  0
    9.4060    2.7190  -45.8650 C   0  0  2  0  0  0
    8.8960    3.2500  -44.5170 C   0  0  0  0  0  0
    9.3800    4.2810  -44.0430 O   0  0  0  0  0  0
    9.3760    3.8540  -46.8910 C   0  0  0  0  0  0
    7.9930    2.5170  -43.9260 N   0  0  0  0  0  0
    7.4510    2.9640  -42.8180 C   0  0  2  0  0  0
    7.0780    2.0130  -41.7560 C   0  0  0  0  0  0
    6.2420    0.9890  -41.9320 O   0  0  0  0  0  0
    6.1270    3.9300  -43.2930 C   0  0  2  0  0  0
    6.1510    5.3660  -42.7420 C   0  0  0  0  0  0
    4.8100    3.2730  -43.1210 C   0  0  0  0  0  0
    5.3350    6.3480  -43.6280 C   0  0  0  0  0  0
    7.9680    2.0260  -40.7010 N   0  0  0  0  0  0
    8.0360    1.3540  -39.4170 C   0  0  2  0  0  0
    8.3940    2.6290  -38.5430 C   0  0  0  0  0  0
    9.4860    3.2340  -38.6380 O   0  0  0  0  0  0
    9.2630    0.4200  -39.4700 C   0  0  0  0  0  0
    9.5580    0.2220  -40.8350 C   0  0  0  0  0  0
    9.2080    1.6220  -41.4260 C   0  0  0  0  0  0
    7.3950    3.0680  -37.7230 N   0  0  0  0  0  0
    7.5290    4.2170  -36.7920 C   0  0  0  0  0  0
    6.8810    5.4640  -37.3340 C   0  0  0  0  0  0
    7.1570    6.5640  -36.8690 O   0  0  0  0  0  0
    6.0530    5.2870  -38.3560 N   0  0  0  0  0  0
    5.3600    6.4070  -38.9700 C   0  0  2  0  0  0
    4.3200    5.8810  -39.9570 C   0  0  0  0  0  0
    3.4990    6.6860  -40.4540 O   0  0  0  0  0  0
    6.3710    7.4140  -39.6490 C   0  0  2  0  0  0
    5.5970    8.5770  -40.2830 C   0  0  0  0  0  0
    7.2830    6.7000  -40.6300 C   0  0  0  0  0  0
    6.4620    9.7780  -40.6430 C   0  0  0  0  0  0
    4.3200    4.6510  -40.1890 N   0  0  0  0  0  0
    3.2665    8.9576  -44.9412 H   0  0  0  0  0  0
    3.0990   10.4125  -45.9815 H   0  0  0  0  0  0
    4.4918    9.3012  -46.2090 H   0  0  0  0  0  0
    1.5601    8.6406  -46.6839 H   0  0  0  0  0  0
    3.9236    9.1119  -48.5858 H   0  0  0  0  0  0
    2.2997    8.5229  -49.0784 H   0  0  0  0  0  0
    2.1276   12.3726  -47.5366 H   0  0  0  0  0  0
    1.0522    6.4435  -46.9040 H   0  0  0  0  0  0
    3.4672    4.9117  -47.2372 H   0  0  0  0  0  0
    2.4067    3.2255  -45.1943 H   0  0  0  0  0  0
    3.4203    4.6451  -44.7654 H   0  0  0  0  0  0
    1.7736    4.1485  -43.2003 H   0  0  0  0  0  0
    2.6145    6.4633  -43.6131 H   0  0  0  0  0  0
    0.9265    6.4364  -42.9993 H   0  0  0  0  0  0
    1.2440    6.7363  -44.7417 H   0  0  0  0  0  0
    0.0826    3.1542  -44.6439 H   0  0  0  0  0  0
   -0.2592    4.7683  -45.3543 H   0  0  0  0  0  0
   -0.5766    4.4684  -43.6119 H   0  0  0  0  0  0
    1.5471    2.7747  -45.7910 H   0  0  0  0  0  0
    0.2226    1.0490  -46.5252 H   0  0  0  0  0  0
   -0.1805    2.6185  -48.8161 H   0  0  0  0  0  0
    0.3129    1.0086  -49.4419 H   0  0  0  0  0  0
   -2.5315    0.9024  -50.1438 H   0  0  0  0  0  0
   -0.3146    0.9976  -45.5030 H   0  0  0  0  0  0
   -4.9754   -0.7886  -46.0480 H   0  0  0  0  0  0
   -1.5938    0.1554  -43.5528 H   0  0  0  0  0  0
   -3.8893   -0.7270  -43.8257 H   0  0  0  0  0  0
    2.9108    1.4148  -46.2519 H   0  0  0  0  0  0
    3.9351   -0.3722  -45.6129 H   0  0  0  0  0  0
    5.3480   -1.7674  -48.0048 H   0  0  0  0  0  0
    3.6418   -0.7632  -49.4169 H   0  0  0  0  0  0
    4.7299   -2.8431  -45.7898 H   0  0  0  0  0  0
    4.2337   -3.7720  -47.2450 H   0  0  0  0  0  0
    3.0176   -2.8158  -46.3319 H   0  0  0  0  0  0
    6.0395   -1.8100  -46.5064 H   0  0  0  0  0  0
    8.1480   -1.6156  -45.7780 H   0  0  0  0  0  0
    9.7312   -1.0224  -47.9269 H   0  0  0  0  0  0
    8.4362    0.9822  -48.6666 H   0  0  0  0  0  0
    8.5015   -3.2358  -47.7484 H   0  0  0  0  0  0
    8.6167   -2.6418  -49.4398 H   0  0  0  0  0  0
    7.0780   -2.4675  -48.5295 H   0  0  0  0  0  0
    8.1272    1.6570  -47.3508 H   0  0  0  0  0  0
   10.4086    2.3105  -45.6705 H   0  0  0  0  0  0
    9.7400    3.4820  -47.8601 H   0  0  0  0  0  0
   10.0217    4.6757  -46.5477 H   0  0  0  0  0  0
    8.3447    4.2201  -47.0027 H   0  0  0  0  0  0
    7.6836    1.5444  -44.3362 H   0  0  0  0  0  0
    8.4001    3.3190  -42.3899 H   0  0  0  0  0  0
    6.0989    4.0996  -44.3795 H   0  0  0  0  0  0
    5.7183    5.3780  -41.7307 H   0  0  0  0  0  0
    7.1897    5.7256  -42.7006 H   0  0  0  0  0  0
    4.8525    2.2534  -43.5316 H   0  0  0  0  0  0
    4.0398    3.8507  -43.6530 H   0  0  0  0  0  0
    4.5601    3.2272  -42.0507 H   0  0  0  0  0  0
    5.3819    7.3580  -43.1949 H   0  0  0  0  0  0
    4.2870    6.0167  -43.6731 H   0  0  0  0  0  0
    5.7585    6.3643  -44.6431 H   0  0  0  0  0  0
    7.1493    0.7619  -39.1464 H   0  0  0  0  0  0
   10.1082    0.8951  -38.9504 H   0  0  0  0  0  0
    9.0196   -0.5335  -38.9784 H   0  0  0  0  0  0
   10.6189   -0.0470  -40.9456 H   0  0  0  0  0  0
    8.9307   -0.5898  -41.2317 H   0  0  0  0  0  0
    9.0025    1.5746  -42.5056 H   0  0  0  0  0  0
   10.0010    2.3602  -41.2358 H   0  0  0  0  0  0
    6.4461    2.5145  -37.7805 H   0  0  0  0  0  0
    7.0488    3.9703  -35.8336 H   0  0  0  0  0  0
    8.5949    4.4303  -36.6238 H   0  0  0  0  0  0
    5.8961    4.2672  -38.7374 H   0  0  0  0  0  0
    4.8377    6.9096  -38.1426 H   0  0  0  0  0  0
    7.0588    7.8536  -38.9116 H   0  0  0  0  0  0
    5.1165    8.2347  -41.2114 H   0  0  0  0  0  0
    4.8277    8.9314  -39.5811 H   0  0  0  0  0  0
    7.8062    5.8810  -40.1148 H   0  0  0  0  0  0
    8.0202    7.4117  -41.0300 H   0  0  0  0  0  0
    6.6835    6.2899  -41.4561 H   0  0  0  0  0  0
    5.8330   10.5622  -41.0895 H   0  0  0  0  0  0
    7.2332    9.4712  -41.3649 H   0  0  0  0  0  0
    6.9445   10.1678  -39.7346 H   0  0  0  0  0  0
    5.0724    4.0022  -39.7168 H   0  0  0  0  0  0
    3.5676    4.2188  -40.8651 H   0  0  0  0  0  0
  1  2  1  0  0  0
  1 78  1  0  0  0
  1 79  1  0  0  0
  1 80  1  0  0  0
  2  3  1  0  0  0
  2  5  1  0  0  0
  2 81  1  0  0  0
  3  4  2  0  0  0
  3  9  1  0  0  0
  5  6  1  0  0  0
  5 82  1  0  0  0
  5 83  1  0  0  0
  6  7  1  0  0  0
  6  8  2  0  0  0
  7 84  1  0  0  0
  9 10  1  0  0  0
  9 85  1  0  0  0
 10 11  1  0  0  0
 10 13  1  0  0  0
 10 86  1  0  0  0
 11 12  2  0  0  0
 11 17  1  0  0  0
 13 14  1  0  0  0
 13 87  1  0  0  0
 13 88  1  0  0  0
 14 15  1  0  0  0
 14 16  1  0  0  0
 14 89  1  0  0  0
 15 90  1  0  0  0
 15 91  1  0  0  0
 15 92  1  0  0  0
 16 93  1  0  0  0
 16 94  1  0  0  0
 16 95  1  0  0  0
 17 18  1  0  0  0
 17 96  1  0  0  0
 18 19  1  0  0  0
 18 21  1  0  0  0
 18 97  1  0  0  0
 19 20  2  0  0  0
 19 31  1  0  0  0
 21 22  1  0  0  0
 21 98  1  0  0  0
 21 99  1  0  0  0
 22 23  2  0  0  0
 22 24  1  0  0  0
 23 25  1  0  0  0
 23100  1  0  0  0
 24 26  2  0  0  0
 24 27  1  0  0  0
 25 26  1  0  0  0
 26 28  1  0  0  0
 27 29  2  0  0  0
 27101  1  0  0  0
 28 30  2  0  0  0
 28102  1  0  0  0
 29 30  1  0  0  0
 29103  1  0  0  0
 30104  1  0  0  0
 31 32  1  0  0  0
 31105  1  0  0  0
 32 33  1  0  0  0
 32 35  1  0  0  0
 32106  1  0  0  0
 33 34  2  0  0  0
 33 38  1  0  0  0
 35 36  1  0  0  0
 35 37  1  0  0  0
 35107  1  0  0  0
 36108  1  0  0  0
 37109  1  0  0  0
 37110  1  0  0  0
 37111  1  0  0  0
 38 39  1  0  0  0
 38112  1  0  0  0
 39 40  1  0  0  0
 39 42  1  0  0  0
 39113  1  0  0  0
 40 41  2  0  0  0
 40 45  1  0  0  0
 42 43  1  0  0  0
 42 44  1  0  0  0
 42114  1  0  0  0
 43115  1  0  0  0
 44116  1  0  0  0
 44117  1  0  0  0
 44118  1  0  0  0
 45 46  1  0  0  0
 45119  1  0  0  0
 46 47  1  0  0  0
 46 49  1  0  0  0
 46120  1  0  0  0
 47 48  2  0  0  0
 47 50  1  0  0  0
 49121  1  0  0  0
 49122  1  0  0  0
 49123  1  0  0  0
 50 51  1  0  0  0
 50124  1  0  0  0
 51 52  1  0  0  0
 51 54  1  0  0  0
 51125  1  0  0  0
 52 53  2  0  0  0
 52 58  1  0  0  0
 54 55  1  0  0  0
 54 56  1  0  0  0
 54126  1  0  0  0
 55 57  1  0  0  0
 55127  1  0  0  0
 55128  1  0  0  0
 56129  1  0  0  0
 56130  1  0  0  0
 56131  1  0  0  0
 57132  1  0  0  0
 57133  1  0  0  0
 57134  1  0  0  0
 58 59  1  0  0  0
 58 64  1  0  0  0
 59 60  1  0  0  0
 59 62  1  0  0  0
 59135  1  0  0  0
 60 61  2  0  0  0
 60 65  1  0  0  0
 62 63  1  0  0  0
 62136  1  0  0  0
 62137  1  0  0  0
 63 64  1  0  0  0
 63138  1  0  0  0
 63139  1  0  0  0
 64140  1  0  0  0
 64141  1  0  0  0
 65 66  1  0  0  0
 65142  1  0  0  0
 66 67  1  0  0  0
 66143  1  0  0  0
 66144  1  0  0  0
 67 68  2  0  0  0
 67 69  1  0  0  0
 69 70  1  0  0  0
 69145  1  0  0  0
 70 71  1  0  0  0
 70 73  1  0  0  0
 70146  1  0  0  0
 71 72  2  0  0  0
 71 77  1  0  0  0
 73 74  1  0  0  0
 73 75  1  0  0  0
 73147  1  0  0  0
 74 76  1  0  0  0
 74148  1  0  0  0
 74149  1  0  0  0
 75150  1  0  0  0
 75151  1  0  0  0
 75152  1  0  0  0
 76153  1  0  0  0
 76154  1  0  0  0
 76155  1  0  0  0
 77156  1  0  0  0
 77157  1  0  0  0
M  CHG  1   1   1
M  END
> <s_m_source_file>
../2y36_ligand.sdf

> <i_m_source_file_index>
1

> <s_epik_input>
W09IXUMoPU8pW0NIMl1bQ0BIXShbTkgzK10pQyg9TylbTkhdW0NAQEhdKFtDSDJdW0NIXShbQ0gzXSlbQ0gzXSlDKD1PKVtOSF1bQ0BASF0oW0NIMl1jMVtjSF1bbkhdYyhjMTIpW2NIXVtjSF1bY0hdW2NIXTIpQyg9TylbTkhdW0NAQEhdKFtDQEhdKFtPSF0pW0NIM10pQyg9TylbTkhdW0NAQEhdKFtDQEhdKFtPSF0pW0NIM10pQyg9TylbTkhdW0NAQEhdKFtDSDNdKUMoPU8pW05IXVtDQEBIXShbQ0BASF0oW0NIM10pW0NIMl1bQ0gzXSlDKD1PKU4zW0NAQEhdKFtDSDJdW0NIMl1bQ0gyXTMpQyg9TylbTkhdW0NIMl1DKD1PKVtOSF1bQ0BIXShDKD1PKVtOSDJdKVtDQEBIXShbQ0gzXSlbQ0gyXVtDSDNd

> <s_epik_cmdline>
J2VwaWtfYXBwJywgJy1pbWFlJywgJ2xpZ2FuZF9wcm8ubWFlJywgJy1vbWFlJywgJ2xpZ2FuZF9wcmVwLm1hZScsICctbXMnLCAnMScsICctcGgnLCAnNycsICctcGh0JywgJzAuNScsICctbnQn

> <s_epik_pKa_notes>
Molecule size exceeds maximum supported for generating protonation states

$$$$
