2y3p_ligand
                    3D
 Schrodinger Suite 2020-3.
107114  0  0  1  0            999 V2000
  -15.7270   45.1370   32.6520 N   0  0  0  0  0  0
  -21.7880   45.4590   34.9500 Cl  0  0  0  0  0  0
   -1.8770   52.3210   27.2830 C   0  0  0  0  0  0
   -2.5840   52.6090   29.5510 O   0  0  0  0  0  0
   -2.0240   53.1050   28.4120 C   0  0  0  0  0  0
   -2.7000   54.6480   30.5580 O   0  0  0  0  0  0
   -1.5960   54.4160   28.3910 C   0  0  0  0  0  0
   -1.3860   59.0120   26.0880 O   0  0  0  0  0  0
   -1.7740   55.2040   29.6230 C   0  0  1  0  0  0
    0.6890   59.0060   30.2630 O   0  0  0  0  0  0
   -1.7500   56.7200   29.4990 C   0  0  2  0  0  0
   -1.7740   57.5550   30.7700 C   0  0  2  0  0  0
    0.8780   58.6880   27.8970 O   0  0  0  0  0  0
   -1.7320   59.0460   30.4610 C   0  0  0  0  0  0
    0.2210   56.7460   26.3590 O   0  0  0  0  0  0
   -0.5180   59.4290   29.6200 C   0  0  1  0  0  0
   -2.4730   57.2490   28.3890 O   0  0  0  0  0  0
   -1.5800   61.4540   28.6140 C   0  0  0  0  0  0
   -0.4530   60.9460   29.4840 C   0  0  0  0  0  0
   -2.3070   62.7170   28.9710 C   0  0  0  0  0  0
   -1.9310   60.7750   27.5140 C   0  0  0  0  0  0
   -1.2840   59.4860   27.2080 C   0  0  0  0  0  0
   -0.5080   58.7370   28.2620 C   0  0  1  0  0  0
   -1.0480   57.3080   28.2820 C   0  0  1  0  0  0
   -0.5550   56.3630   27.2210 C   0  0  0  0  0  0
   -1.0240   54.9420   27.2440 C   0  0  0  0  0  0
   -0.8770   54.1560   26.1060 C   0  0  0  0  0  0
   -1.3080   52.8360   26.1240 C   0  0  0  0  0  0
   -2.3400   50.9220   27.3200 C   0  0  2  0  0  0
   -1.7330   50.1640   26.2760 O   0  0  0  0  0  0
   -3.8440   50.9550   27.1190 C   0  0  0  0  0  0
   -3.9560   47.2680   26.4230 O   0  0  0  0  0  0
   -4.3810   49.5340   27.1190 C   0  0  2  0  0  0
   -4.0480   45.4780   24.9980 O   0  0  0  0  0  0
   -3.5830   48.6240   26.1910 C   0  0  1  0  0  0
   -5.7280   49.6140   26.6710 O   0  0  0  0  0  0
   -2.0770   48.7840   26.3710 C   0  0  1  0  0  0
   -1.3220   48.0110   25.2980 C   0  0  0  0  0  0
   -4.4010   46.6290   25.1950 C   0  0  0  0  0  0
   -5.2610   47.3860   24.2230 C   0  0  0  0  0  0
   -6.5980   49.0400   27.6750 C   0  0  0  0  0  0
   -6.1070   48.7250   28.7460 O   0  0  0  0  0  0
   -7.8980   48.8690   27.4040 C   0  0  0  0  0  0
  -16.4630   45.7790   30.6310 O   0  0  0  0  0  0
   -8.6860   48.3380   28.3310 C   0  0  0  0  0  0
   -9.9790   48.1550   28.0970 C   0  0  0  0  0  0
  -10.6940   47.6190   29.0770 C   0  0  0  0  0  0
  -11.9950   47.3900   28.9550 C   0  0  0  0  0  0
  -12.5890   46.8500   30.0130 C   0  0  0  0  0  0
  -13.8840   46.5590   30.0530 C   0  0  0  0  0  0
  -14.2980   46.0260   31.1940 C   0  0  0  0  0  0
  -15.5590   45.6560   31.4430 C   0  0  0  0  0  0
  -17.0090   44.7350   33.0170 C   0  0  0  0  0  0
  -16.7610   42.3740   32.3080 O   0  5  0  0  0  0
  -17.5330   43.3580   32.8460 C   0  0  0  0  0  0
  -22.8520   42.6770   34.6030 O   0  0  0  0  0  0
  -18.9340   43.1250   33.2970 C   0  0  0  0  0  0
  -19.1510   45.4560   33.9860 O   0  0  0  0  0  0
  -19.5450   41.8790   33.1930 C   0  0  0  0  0  0
  -17.4570   46.9400   33.7570 O   0  0  0  0  0  0
  -20.8600   41.7200   33.6310 C   0  0  0  0  0  0
   -0.6310   57.1770   31.5450 O   0  0  0  0  0  0
  -21.5670   42.7950   34.1690 C   0  0  0  0  0  0
  -20.9540   44.0250   34.2690 C   0  0  0  0  0  0
  -19.6520   44.1900   33.8380 C   0  0  0  0  0  0
  -17.8820   45.7750   33.6070 C   0  0  0  0  0  0
  -14.8677   45.0354   33.3312 H   0  0  0  0  0  0
   -2.9305   51.5655   29.5843 H   0  0  0  0  0  0
   -2.7610   53.5576   30.6896 H   0  0  0  0  0  0
   -0.8425   54.9827   30.1646 H   0  0  0  0  0  0
    0.9295   59.3674   31.2737 H   0  0  0  0  0  0
   -2.6733   57.3482   31.3688 H   0  0  0  0  0  0
    1.4607   59.6181   27.8238 H   0  0  0  0  0  0
   -2.6363   59.3304   29.9031 H   0  0  0  0  0  0
   -1.6877   59.6143   31.4018 H   0  0  0  0  0  0
   -0.5368   61.4073   30.4791 H   0  0  0  0  0  0
    0.5056   61.2324   29.0267 H   0  0  0  0  0  0
   -1.8855   63.1332   29.8979 H   0  0  0  0  0  0
   -3.3742   62.4961   29.1204 H   0  0  0  0  0  0
   -2.1943   63.4477   28.1565 H   0  0  0  0  0  0
   -2.7010   61.1792   26.8404 H   0  0  0  0  0  0
   -0.4263   54.5735   25.2056 H   0  0  0  0  0  0
   -1.2012   52.2100   25.2381 H   0  0  0  0  0  0
   -2.0243   50.4317   28.2527 H   0  0  0  0  0  0
   -4.3106   51.5253   27.9357 H   0  0  0  0  0  0
   -4.0749   51.4362   26.1572 H   0  0  0  0  0  0
   -4.3722   49.0999   28.1297 H   0  0  0  0  0  0
   -3.8442   48.8470   25.1460 H   0  0  0  0  0  0
   -1.7740   48.4512   27.3747 H   0  0  0  0  0  0
   -0.2397   48.1399   25.4463 H   0  0  0  0  0  0
   -1.6039   48.3915   24.3052 H   0  0  0  0  0  0
   -1.5770   46.9432   25.3675 H   0  0  0  0  0  0
   -5.4491   48.3980   24.6108 H   0  0  0  0  0  0
   -6.2180   46.8595   24.0929 H   0  0  0  0  0  0
   -4.7455   47.4547   23.2537 H   0  0  0  0  0  0
   -8.3154   49.1617   26.4293 H   0  0  0  0  0  0
   -8.2685   48.0446   29.3055 H   0  0  0  0  0  0
  -10.4632   48.4245   27.1468 H   0  0  0  0  0  0
  -10.2098   47.3498   30.0273 H   0  0  0  0  0  0
  -12.5807   47.6184   28.0523 H   0  0  0  0  0  0
  -12.0033   46.6216   30.9157 H   0  0  0  0  0  0
  -14.5981   46.7268   29.2333 H   0  0  0  0  0  0
  -13.5847   45.8616   32.0150 H   0  0  0  0  0  0
  -23.3683   41.7080   34.5363 H   0  0  0  0  0  0
  -19.0003   41.0337   32.7725 H   0  0  0  0  0  0
  -21.3402   40.7447   33.5518 H   0  0  0  0  0  0
   -0.5006   56.1307   31.8584 H   0  0  0  0  0  0
  1 52  1  0  0  0
  1 53  1  0  0  0
  1 67  1  0  0  0
  2 64  1  0  0  0
  3  5  2  0  0  0
  3 28  1  0  0  0
  3 29  1  0  0  0
  4  5  1  0  0  0
  4 68  1  0  0  0
  5  7  1  0  0  0
  6  9  1  0  0  0
  6 69  1  0  0  0
  7  9  1  0  0  0
  7 26  2  0  0  0
  8 22  2  0  0  0
  9 11  1  0  0  0
  9 70  1  0  0  0
 10 16  1  0  0  0
 10 71  1  0  0  0
 11 12  1  0  0  0
 11 17  1  0  0  0
 11 24  1  0  0  0
 12 14  1  0  0  0
 12 62  1  0  0  0
 12 72  1  0  0  0
 13 23  1  0  0  0
 13 73  1  0  0  0
 14 16  1  0  0  0
 14 74  1  0  0  0
 14 75  1  0  0  0
 15 25  2  0  0  0
 16 19  1  0  0  0
 16 23  1  0  0  0
 17 24  1  0  0  0
 18 19  1  0  0  0
 18 20  1  0  0  0
 18 21  2  0  0  0
 19 76  1  0  0  0
 19 77  1  0  0  0
 20 78  1  0  0  0
 20 79  1  0  0  0
 20 80  1  0  0  0
 21 22  1  0  0  0
 21 81  1  0  0  0
 22 23  1  0  0  0
 23 24  1  0  0  0
 24 25  1  0  0  0
 25 26  1  0  0  0
 26 27  1  0  0  0
 27 28  2  0  0  0
 27 82  1  0  0  0
 28 83  1  0  0  0
 29 30  1  0  0  0
 29 31  1  0  0  0
 29 84  1  0  0  0
 30 37  1  0  0  0
 31 33  1  0  0  0
 31 85  1  0  0  0
 31 86  1  0  0  0
 32 35  1  0  0  0
 32 39  1  0  0  0
 33 35  1  0  0  0
 33 36  1  0  0  0
 33 87  1  0  0  0
 34 39  2  0  0  0
 35 37  1  0  0  0
 35 88  1  0  0  0
 36 41  1  0  0  0
 37 38  1  0  0  0
 37 89  1  0  0  0
 38 90  1  0  0  0
 38 91  1  0  0  0
 38 92  1  0  0  0
 39 40  1  0  0  0
 40 93  1  0  0  0
 40 94  1  0  0  0
 40 95  1  0  0  0
 41 42  2  0  0  0
 41 43  1  0  0  0
 43 45  2  0  0  0
 43 96  1  0  0  0
 44 52  2  0  0  0
 45 46  1  0  0  0
 45 97  1  0  0  0
 46 47  2  0  0  0
 46 98  1  0  0  0
 47 48  1  0  0  0
 47 99  1  0  0  0
 48 49  2  0  0  0
 48100  1  0  0  0
 49 50  1  0  0  0
 49101  1  0  0  0
 50 51  2  0  0  0
 50102  1  0  0  0
 51 52  1  0  0  0
 51103  1  0  0  0
 53 55  2  0  0  0
 53 66  1  0  0  0
 54 55  1  0  0  0
 55 57  1  0  0  0
 56 63  1  0  0  0
 56104  1  0  0  0
 57 59  2  0  0  0
 57 65  1  0  0  0
 58 65  1  0  0  0
 58 66  1  0  0  0
 59 61  1  0  0  0
 59105  1  0  0  0
 60 66  2  0  0  0
 61 63  2  0  0  0
 61106  1  0  0  0
 62107  1  0  0  0
 63 64  1  0  0  0
 64 65  2  0  0  0
M  CHG  1  54  -1
M  END
> <s_m_source_file>
../2y3p_ligand.sdf

> <i_m_source_file_index>
1

> <s_epik_input>
W2NIXTFbY0hdYyhbT0hdKWMoQ2wpYyhjMTIpb2MoPU8pYyhjMltPSF0pW05IXUMoPU8pXFtDSF09W0NIXVxbQ0hdPVtDSF1cW0NIXT1bQ0hdXFtDSF09W0NIXVxDKD1PKU9bQ0BIXShbQ0gyXTMpW0NASF0oT0MoPU8pW0NIM10pW0NAQEhdKFtDSDNdKU9bQ0BIXTNjKFtjSF1bY0hdNCljKFtPSF0pYyhbQ0BASF01W09IXSljNEMoPU8pW0NAXShbQ0BAXTU2NykoTzcpW0NAXTgoW09IXSlbQ0BdKFtPSF0pKFtDSDJdW0NAQEhdNltPSF0pW0NIMl1DKFtDSDNdKT1bQ0hdQzg9Tw==

> <s_epik_cmdline>
J2VwaWtfYXBwJywgJy1pbWFlJywgJ2xpZ2FuZF9wcm8ubWFlJywgJy1vbWFlJywgJ2xpZ2FuZF9wcmVwLm1hZScsICctbXMnLCAnMScsICctcGgnLCAnNycsICctcGh0JywgJzAuNScsICctbnQn

> <r_epik_Ionization_Penalty>
  0.2734

> <r_epik_Ionization_Penalty_Charging>
  0.0051

> <r_epik_Ionization_Penalty_Neutral>
  0.2683

> <r_epik_State_Penalty>
  0.2499

> <r_epik_Charging_Adjusted_Penalty>
0.254984810587075

> <i_epik_Tot_Q>
-1

> <i_epik_Tot_abs_Q>
1

> <s_epik_Chemistry_Notes>
This compound has an ester and may undergo hydrolysis at high or low pH.

$$$$
