2y4a_ligand
                    3D
 Schrodinger Suite 2020-3.
 23 23  0  0  1  0            999 V2000
   -0.9490   -2.9790   36.4080 B   0  0  0  0  0  0
   -2.4290    2.2580   37.2110 Cl  0  0  0  0  0  0
   -2.2520   -3.5730   35.8590 O   0  0  0  0  0  0
   -1.2240   -2.0050   37.5790 O   0  0  0  0  0  0
   -0.3040   -2.1990   35.1660 C   0  0  0  0  0  0
   -1.1420   -1.1090   34.7030 N   0  0  0  0  0  0
   -1.2320    0.0900   35.2650 C   0  0  0  0  0  0
   -0.5800    0.3810   36.2520 O   0  0  0  0  0  0
   -2.0970    1.1390   34.6480 C   0  0  0  0  0  0
   -2.2670    1.0990   33.2650 C   0  0  0  0  0  0
   -3.0290    2.0870   32.6470 C   0  0  0  0  0  0
   -3.6020    3.1110   33.4060 C   0  0  0  0  0  0
   -3.4240    3.1530   34.7850 C   0  0  0  0  0  0
   -2.6600    2.1670   35.4120 C   0  0  0  0  0  0
   -2.9040   -4.1689   36.5147 H   0  0  0  0  0  0
   -1.6678   -2.3795   38.5132 H   0  0  0  0  0  0
    0.6682   -1.7782   35.4622 H   0  0  0  0  0  0
   -0.1613   -2.8976   34.3284 H   0  0  0  0  0  0
   -1.7748   -1.2415   33.8131 H   0  0  0  0  0  0
   -1.8094    0.3048   32.6752 H   0  0  0  0  0  0
   -3.1791    2.0617   31.5677 H   0  0  0  0  0  0
   -4.1932    3.8830   32.9135 H   0  0  0  0  0  0
   -3.8783    3.9509   35.3724 H   0  0  0  0  0  0
  1  3  1  0  0  0
  1  4  1  0  0  0
  1  5  1  0  0  0
  2 14  1  0  0  0
  3 15  1  0  0  0
  4 16  1  0  0  0
  5  6  1  0  0  0
  5 17  1  0  0  0
  5 18  1  0  0  0
  6  7  1  0  0  0
  6 19  1  0  0  0
  7  8  2  0  0  0
  7  9  1  0  0  0
  9 10  2  0  0  0
  9 14  1  0  0  0
 10 11  1  0  0  0
 10 20  1  0  0  0
 11 12  2  0  0  0
 11 21  1  0  0  0
 12 13  1  0  0  0
 12 22  1  0  0  0
 13 14  2  0  0  0
 13 23  1  0  0  0
M  END
> <s_m_source_file>
../2y4a_ligand.sdf

> <i_m_source_file_index>
1

> <s_epik_input>
W09IXUIoW09IXSlbQ0gyXVtOSF1DKD1PKWMxW2NIXVtjSF1bY0hdW2NIXWMxQ2w=

> <s_epik_cmdline>
J2VwaWtfYXBwJywgJy1pbWFlJywgJ2xpZ2FuZF9wcm8ubWFlJywgJy1vbWFlJywgJ2xpZ2FuZF9wcmVwLm1hZScsICctbXMnLCAnMScsICctcGgnLCAnNycsICctcGh0JywgJzAuNScsICctbnQn

> <r_lp_tautomer_probability>
1

> <r_epik_Ionization_Penalty>
  0.0000

> <r_epik_Ionization_Penalty_Charging>
  0.0000

> <r_epik_Ionization_Penalty_Neutral>
  0.0000

> <r_epik_State_Penalty>
 -0.0000

> <r_epik_Charging_Adjusted_Penalty>
0

> <i_epik_Tot_Q>
0

> <i_epik_Tot_abs_Q>
0

> <s_epik_Chemistry_Notes>
This compound contains a Lewis acid (boronic acid) which adds nucleophiles to form tetrahedral complexes, lowering the experimental pKa

$$$$
