2y4k_ligand
                    3D
 Schrodinger Suite 2020-3.
 40 42  0  0  1  0            999 V2000
   38.7830  -45.1400   -5.0610 P   0  0  0  0  0  0
   40.0050  -45.0260   -5.9600 O   0  0  0  0  0  0
   37.5030  -45.1440   -5.9110 O   0  5  0  0  0  0
   38.8910  -46.4030   -4.2060 O   0  5  0  0  0  0
   38.8380  -43.8540   -4.0610 O   0  0  0  0  0  0
   38.2470  -42.3980   -4.3810 P   0  0  1  0  0  0
   39.3730  -41.3870   -4.3950 O   0  0  0  0  0  0
   37.4240  -42.3570   -5.6590 O   0  5  0  0  0  0
   37.3060  -42.3080   -3.0960 O   0  0  0  0  0  0
   36.3430  -43.3150   -2.7800 C   0  0  0  0  0  0
   35.0690  -42.6220   -2.2820 C   0  0  1  0  0  0
   35.1740  -42.1100   -0.9360 O   0  0  0  0  0  0
   34.7020  -41.4180   -3.1230 C   0  0  1  0  0  0
   33.2760  -41.3420   -3.1140 O   0  0  0  0  0  0
   35.3250  -40.2590   -2.3480 C   0  0  1  0  0  0
   34.6680  -39.0310   -2.5850 O   0  0  0  0  0  0
   35.1380  -40.6780   -0.9100 C   0  0  2  0  0  0
   36.2020  -40.2260    0.0050 N   0  0  0  0  0  0
   37.5430  -40.4200   -0.1190 C   0  0  0  0  0  0
   38.2130  -39.9060    0.9530 N   0  0  0  0  0  0
   37.2860  -39.3860    1.7830 C   0  0  0  0  0  0
   37.2950  -38.6690    3.0830 C   0  0  0  0  0  0
   38.3640  -38.4450    3.6770 O   0  0  0  0  0  0
   36.1190  -38.3050    3.6070 N   0  3  0  0  0  0
   34.9350  -38.5370    2.9840 C   0  0  0  0  0  0
   33.7820  -38.1200    3.5810 N   0  0  0  0  0  0
   34.8530  -39.1770    1.7870 N   0  0  0  0  0  0
   35.9660  -39.6010    1.1550 C   0  0  0  0  0  0
   36.1232  -43.9075   -3.6803 H   0  0  0  0  0  0
   36.7452  -43.9740   -1.9965 H   0  0  0  0  0  0
   34.2954  -43.4040   -2.2874 H   0  0  0  0  0  0
   34.9870  -41.4383   -4.1852 H   0  0  0  0  0  0
   32.6811  -42.1087   -3.6319 H   0  0  0  0  0  0
   36.3547  -40.0133   -2.6470 H   0  0  0  0  0  0
   34.6999  -38.5742   -3.5852 H   0  0  0  0  0  0
   34.1989  -40.2686   -0.5094 H   0  0  0  0  0  0
   38.0190  -40.9197   -0.9627 H   0  0  0  0  0  0
   33.8211  -37.5999    4.5495 H   0  0  0  0  0  0
   32.8129  -38.3037    3.0940 H   0  0  0  0  0  0
   36.0851  -37.7956    4.5813 H   0  0  0  0  0  0
  1  2  2  0  0  0
  1  3  1  0  0  0
  1  4  1  0  0  0
  1  5  1  0  0  0
  5  6  1  0  0  0
  6  7  2  0  0  0
  6  8  1  0  0  0
  6  9  1  0  0  0
  9 10  1  0  0  0
 10 11  1  0  0  0
 10 29  1  0  0  0
 10 30  1  0  0  0
 11 12  1  0  0  0
 11 13  1  0  0  0
 11 31  1  0  0  0
 12 17  1  0  0  0
 13 14  1  0  0  0
 13 15  1  0  0  0
 13 32  1  0  0  0
 14 33  1  0  0  0
 15 16  1  0  0  0
 15 17  1  0  0  0
 15 34  1  0  0  0
 16 35  1  0  0  0
 17 18  1  0  0  0
 17 36  1  0  0  0
 18 19  1  0  0  0
 18 28  1  0  0  0
 19 20  2  0  0  0
 19 37  1  0  0  0
 20 21  1  0  0  0
 21 22  1  0  0  0
 21 28  2  0  0  0
 22 23  2  0  0  0
 22 24  1  0  0  0
 24 25  1  0  0  0
 24 40  1  0  0  0
 25 26  1  0  0  0
 25 27  2  0  0  0
 26 38  1  0  0  0
 26 39  1  0  0  0
 27 28  1  0  0  0
M  CHG  4   3  -1   4  -1   8  -1  24   1
M  END
> <s_m_source_file>
../2y4k_ligand.sdf

> <i_m_source_file_index>
1

> <s_epik_input>
Tz1QKFtPSF0pKFtPSF0pT1tQQEBdKD1PKShbT0hdKU9bQ0gyXVtDQEhdMU9bQ0BIXShbQ0BIXShbT0hdKVtDQEBIXTFbT0hdKW4oW2NIXW4yKWMoYzIzKVtuSF1jKD1OXFtIXSlcW25IXWMzPU8=

> <s_epik_cmdline>
J2VwaWtfYXBwJywgJy1pbWFlJywgJ2xpZ2FuZF9wcm8ubWFlJywgJy1vbWFlJywgJ2xpZ2FuZF9wcmVwLm1hZScsICctbXMnLCAnMScsICctcGgnLCAnNycsICctcGh0JywgJzAuNScsICctbnQn

> <r_epik_Ionization_Penalty>
  2.4918

> <r_epik_Ionization_Penalty_Charging>
  2.4918

> <r_epik_Ionization_Penalty_Neutral>
  0.0000

> <r_epik_State_Penalty>
  0.1302

> <r_epik_Charging_Adjusted_Penalty>
2.62193179535438

> <i_epik_Tot_Q>
-2

> <i_epik_Tot_abs_Q>
4

> <s_epik_Chemistry_Notes>
This compound has an imine and may undergo hydrolysis. This compound contains an acetal/aminal-like group ( X-CH(R)-Y where X, Y are N, S, or O) that may be acid/base labile, releasing an aldehyde.

$$$$
