2y4l_ligand
                    3D
 Schrodinger Suite 2020-3.
 40 42  0  0  1  0            999 V2000
   92.5460  -22.3780  111.5800 P   0  0  0  0  0  0
   92.2230  -23.3290  110.4540 O   0  5  0  0  0  0
   91.3140  -22.1090  112.3990 O   0  0  0  0  0  0
   92.9680  -21.0580  110.9530 O   0  5  0  0  0  0
   93.7400  -22.9840  112.4600 O   0  0  0  0  0  0
   95.2030  -23.3720  111.8680 P   0  0  1  0  0  0
   95.2790  -24.5740  110.9450 O   0  5  0  0  0  0
   95.8970  -22.2580  111.1470 O   0  0  0  0  0  0
   95.8820  -23.6170  113.3130 O   0  0  0  0  0  0
   95.5260  -22.7750  114.4000 C   0  0  0  0  0  0
   96.7780  -22.6090  115.2340 C   0  0  1  0  0  0
   97.1010  -23.8510  115.8380 O   0  0  0  0  0  0
   97.9780  -22.3460  114.3770 C   0  0  1  0  0  0
   98.8290  -21.5800  115.2330 O   0  0  0  0  0  0
   98.5230  -23.7330  114.0640 C   0  0  1  0  0  0
   99.9040  -23.7210  113.8430 O   0  0  0  0  0  0
   98.3540  -24.3730  115.3840 C   0  0  2  0  0  0
   98.2520  -25.8400  115.3750 N   0  0  0  0  0  0
   97.4050  -26.6170  114.6530 C   0  0  0  0  0  0
   97.5490  -27.9340  114.9670 N   0  0  0  0  0  0
   98.5170  -27.9790  115.9200 C   0  0  0  0  0  0
   99.1920  -29.0310  116.7140 C   0  0  0  0  0  0
   98.8570  -30.2080  116.5380 O   0  0  0  0  0  0
  100.1300  -28.6950  117.6150 N   0  3  0  0  0  0
  100.4760  -27.4070  117.8150 C   0  0  0  0  0  0
  101.4170  -27.1250  118.7300 N   0  0  0  0  0  0
   99.9140  -26.3860  117.1340 N   0  0  0  0  0  0
   98.9570  -26.6080  116.1990 C   0  0  0  0  0  0
   95.1766  -21.8060  114.0140 H   0  0  0  0  0  0
   94.7224  -23.2488  114.9830 H   0  0  0  0  0  0
   96.5919  -21.8227  115.9804 H   0  0  0  0  0  0
   97.8487  -21.7628  113.4533 H   0  0  0  0  0  0
   98.5387  -20.5609  115.5283 H   0  0  0  0  0  0
   98.1004  -24.2139  113.1695 H   0  0  0  0  0  0
  100.3088  -23.2911  112.9149 H   0  0  0  0  0  0
   99.2208  -24.1501  116.0235 H   0  0  0  0  0  0
   96.6991  -26.2351  113.9154 H   0  0  0  0  0  0
  101.8915  -27.9378  119.2994 H   0  0  0  0  0  0
  101.7135  -26.0812  118.9103 H   0  0  0  0  0  0
  100.6307  -29.4766  118.2052 H   0  0  0  0  0  0
  1  2  1  0  0  0
  1  3  2  0  0  0
  1  4  1  0  0  0
  1  5  1  0  0  0
  5  6  1  0  0  0
  6  7  1  0  0  0
  6  8  2  0  0  0
  6  9  1  0  0  0
  9 10  1  0  0  0
 10 11  1  0  0  0
 10 29  1  0  0  0
 10 30  1  0  0  0
 11 12  1  0  0  0
 11 13  1  0  0  0
 11 31  1  0  0  0
 12 17  1  0  0  0
 13 14  1  0  0  0
 13 15  1  0  0  0
 13 32  1  0  0  0
 14 33  1  0  0  0
 15 16  1  0  0  0
 15 17  1  0  0  0
 15 34  1  0  0  0
 16 35  1  0  0  0
 17 18  1  0  0  0
 17 36  1  0  0  0
 18 19  1  0  0  0
 18 28  1  0  0  0
 19 20  2  0  0  0
 19 37  1  0  0  0
 20 21  1  0  0  0
 21 22  1  0  0  0
 21 28  2  0  0  0
 22 23  2  0  0  0
 22 24  1  0  0  0
 24 25  1  0  0  0
 24 40  1  0  0  0
 25 26  1  0  0  0
 25 27  2  0  0  0
 26 38  1  0  0  0
 26 39  1  0  0  0
 27 28  1  0  0  0
M  CHG  4   2  -1   4  -1   7  -1  24   1
M  END
> <s_m_source_file>
../2y4l_ligand.sdf

> <i_m_source_file_index>
1

> <s_epik_input>
W09IXVAoPU8pKFtPSF0pT1tQQF0oPU8pKFtPSF0pT1tDSDJdW0NASF0xT1tDQEhdKFtDQEhdKFtPSF0pW0NAQEhdMVtPSF0pbihbY0hdbjIpYyhjMjMpW25IXWMoPU5cW0hdKVxbbkhdYzM9Tw==

> <s_epik_cmdline>
J2VwaWtfYXBwJywgJy1pbWFlJywgJ2xpZ2FuZF9wcm8ubWFlJywgJy1vbWFlJywgJ2xpZ2FuZF9wcmVwLm1hZScsICctbXMnLCAnMScsICctcGgnLCAnNycsICctcGh0JywgJzAuNScsICctbnQn

> <r_epik_Ionization_Penalty>
  2.4918

> <r_epik_Ionization_Penalty_Charging>
  2.4918

> <r_epik_Ionization_Penalty_Neutral>
  0.0000

> <r_epik_State_Penalty>
  0.1302

> <r_epik_Charging_Adjusted_Penalty>
2.62193179535438

> <i_epik_Tot_Q>
-2

> <i_epik_Tot_abs_Q>
4

> <s_epik_Chemistry_Notes>
This compound has an imine and may undergo hydrolysis. This compound contains an acetal/aminal-like group ( X-CH(R)-Y where X, Y are N, S, or O) that may be acid/base labile, releasing an aldehyde.

$$$$
