2y4s_ligand
                    3D
 Schrodinger Suite 2020-3.
147154  0  0  1  0            999 V2000
   48.9330   31.4980   34.9780 C   0  0  2  0  0  0
   50.2660   30.9770   34.4760 C   0  0  2  0  0  0
   51.3430   31.3450   35.3220 O   0  0  0  0  0  0
   50.5800   31.5310   33.1150 C   0  0  1  0  0  0
   51.6820   30.7870   32.7220 O   0  0  0  0  0  0
   49.4470   31.4130   32.1160 C   0  0  2  0  0  0
   49.8910   32.1870   31.0140 O   0  0  0  0  0  0
   48.2370   32.0470   32.7590 C   0  0  2  0  0  0
   47.9440   31.3600   33.9560 O   0  0  0  0  0  0
   47.0190   31.9230   31.8890 C   0  0  0  0  0  0
   47.0080   32.9670   30.9210 O   0  0  0  0  0  0
   49.4640   31.8580   29.7190 C   0  0  2  0  0  0
   50.6910   31.7870   28.8630 C   0  0  2  0  0  0
   51.6690   31.0790   29.6060 O   0  0  0  0  0  0
   51.2450   33.1640   28.5660 C   0  0  1  0  0  0
   52.3170   33.0670   27.6450 O   0  0  0  0  0  0
   50.1660   34.0980   28.0720 C   0  0  2  0  0  0
   50.6600   35.4070   28.1070 O   0  0  0  0  0  0
   49.0440   34.1070   29.0740 C   0  0  2  0  0  0
   48.5640   32.8150   29.2380 O   0  0  0  0  0  0
   47.9950   35.0320   28.5240 C   0  0  0  0  0  0
   46.6700   34.6990   28.9140 O   0  0  0  0  0  0
   50.2390   36.2490   27.0830 C   0  0  2  0  0  0
   51.5330   36.9320   26.7650 C   0  0  2  0  0  0
   52.4780   35.8660   26.7770 O   0  0  0  0  0  0
   51.8840   37.9690   27.8030 C   0  0  1  0  0  0
   53.0920   38.5930   27.4600 O   0  0  0  0  0  0
   50.7640   38.9830   27.9380 C   0  0  2  0  0  0
   51.0570   39.8700   29.0060 O   0  0  0  0  0  0
   49.4760   38.2060   28.2660 C   0  0  2  0  0  0
   49.1790   37.1160   27.4040 O   0  0  0  0  0  0
   48.2650   39.1000   28.2940 C   0  0  0  0  0  0
   48.2720   39.8900   27.1250 O   0  0  0  0  0  0
   51.0950   41.2950   28.8190 C   0  0  2  0  0  0
   52.2370   41.9690   29.5570 C   0  0  2  0  0  0
   53.4880   41.4910   29.0940 O   0  0  0  0  0  0
   52.1060   41.7410   31.0570 C   0  0  1  0  0  0
   53.2570   42.1970   31.7390 O   0  0  0  0  0  0
   50.7980   42.3190   31.5660 C   0  0  2  0  0  0
   50.6220   41.8510   32.8860 O   0  0  0  0  0  0
   49.6430   41.8290   30.6660 C   0  0  2  0  0  0
   49.9340   41.9330   29.3130 O   0  0  0  0  0  0
   48.3890   42.6270   30.8590 C   0  0  0  0  0  0
   47.4510   41.8090   31.5500 O   0  0  0  0  0  0
   50.2340   42.8370   33.8500 C   0  0  2  0  0  0
   51.1390   42.9190   35.0560 C   0  0  2  0  0  0
   52.4430   43.2350   34.6960 O   0  0  0  0  0  0
   51.0910   41.6640   35.8740 C   0  0  1  0  0  0
   51.9510   41.8010   36.9820 O   0  0  0  0  0  0
   49.6330   41.4310   36.2550 C   0  0  2  0  0  0
   49.5650   40.1740   36.8390 O   0  0  0  0  0  0
   48.7750   41.4330   35.0110 C   0  0  2  0  0  0
   48.9290   42.6390   34.3090 O   0  0  0  0  0  0
   47.2790   41.1970   35.2440 C   0  0  0  0  0  0
   46.6480   41.6970   34.0920 O   0  0  0  0  0  0
   49.5760   40.1740   38.2580 C   0  0  2  0  0  0
   50.6050   39.2330   38.8410 C   0  0  2  0  0  0
   51.8370   39.7520   38.4660 O   0  0  0  0  0  0
   50.4350   37.8380   38.3010 C   0  0  1  0  0  0
   51.3880   36.9420   38.8060 O   0  0  0  0  0  0
   49.0560   37.3430   38.6940 C   0  0  2  0  0  0
   48.7220   36.2070   37.9530 O   0  0  0  0  0  0
   47.9720   38.3860   38.3960 C   0  0  2  0  0  0
   48.3350   39.7110   38.7360 O   0  0  0  0  0  0
   46.7540   38.0570   39.2570 C   0  0  0  0  0  0
   45.6930   38.6920   38.6160 O   0  0  0  0  0  0
   48.2590   35.1110   38.7140 C   0  0  2  0  0  0
   49.2780   34.0010   38.9240 C   0  0  2  0  0  0
   50.4640   34.4310   39.6010 O   0  0  0  0  0  0
   49.7170   33.3490   37.6420 C   0  0  1  0  0  0
   50.4890   32.2080   37.9770 O   0  0  0  0  0  0
   48.5400   33.0000   36.7380 C   0  0  2  0  0  0
   49.0610   32.8520   35.4280 O   0  0  0  0  0  0
   47.4620   34.0860   36.7160 C   0  0  2  0  0  0
   47.1600   34.5560   38.0110 O   0  0  0  0  0  0
   46.1520   33.6250   36.0870 C   0  0  0  0  0  0
   46.2940   33.0510   34.7910 O   0  0  0  0  0  0
   48.5522   30.9373   35.8444 H   0  0  0  0  0  0
   50.2218   29.8779   34.4859 H   0  0  0  0  0  0
   51.3370   31.0474   36.3810 H   0  0  0  0  0  0
   50.8403   32.5995   33.1384 H   0  0  0  0  0  0
   52.5870   30.7724   33.3470 H   0  0  0  0  0  0
   49.2038   30.4017   31.7581 H   0  0  0  0  0  0
   48.4563   33.1000   32.9893 H   0  0  0  0  0  0
   47.0333   30.9508   31.3746 H   0  0  0  0  0  0
   46.1149   31.9952   32.5114 H   0  0  0  0  0  0
   46.1851   33.0345   30.1942 H   0  0  0  0  0  0
   48.8842   30.9238   29.7513 H   0  0  0  0  0  0
   50.4715   31.2544   27.9259 H   0  0  0  0  0  0
   51.4722   30.0466   29.9308 H   0  0  0  0  0  0
   51.6979   33.6000   29.4686 H   0  0  0  0  0  0
   53.1785   32.4211   27.8698 H   0  0  0  0  0  0
   49.8638   33.8407   27.0461 H   0  0  0  0  0  0
   49.3436   34.3837   30.0956 H   0  0  0  0  0  0
   48.1891   36.0564   28.8747 H   0  0  0  0  0  0
   48.0256   35.0088   27.4247 H   0  0  0  0  0  0
   45.8243   35.3110   28.5672 H   0  0  0  0  0  0
   49.7276   35.6962   26.2812 H   0  0  0  0  0  0
   51.5316   37.4398   25.7892 H   0  0  0  0  0  0
   52.3665   35.0242   26.0777 H   0  0  0  0  0  0
   52.0894   37.4995   28.7763 H   0  0  0  0  0  0
   54.0028   37.9913   27.3246 H   0  0  0  0  0  0
   50.6757   39.6218   27.0469 H   0  0  0  0  0  0
   49.6597   37.7210   29.2361 H   0  0  0  0  0  0
   47.3547   38.4833   28.3277 H   0  0  0  0  0  0
   48.3049   39.7437   29.1851 H   0  0  0  0  0  0
   47.4663   40.6178   26.9482 H   0  0  0  0  0  0
   51.1390   41.3823   27.7233 H   0  0  0  0  0  0
   52.2541   43.0439   29.3241 H   0  0  0  0  0  0
   53.7495   41.5766   28.0290 H   0  0  0  0  0  0
   52.1280   40.6728   31.3186 H   0  0  0  0  0  0
   54.2521   41.8343   31.4420 H   0  0  0  0  0  0
   50.8144   43.4170   31.6296 H   0  0  0  0  0  0
   49.4952   40.7575   30.8661 H   0  0  0  0  0  0
   48.6148   43.5280   31.4483 H   0  0  0  0  0  0
   47.9872   42.9215   29.8783 H   0  0  0  0  0  0
   46.4540   42.2032   31.7963 H   0  0  0  0  0  0
   50.2441   43.7651   33.2596 H   0  0  0  0  0  0
   50.8450   43.7741   35.6824 H   0  0  0  0  0  0
   52.6448   44.1317   34.0916 H   0  0  0  0  0  0
   51.5089   40.7834   35.3642 H   0  0  0  0  0  0
   53.0262   41.9728   36.8258 H   0  0  0  0  0  0
   49.2561   42.1550   36.9924 H   0  0  0  0  0  0
   49.1750   40.6331   34.3706 H   0  0  0  0  0  0
   47.0935   40.1205   35.3737 H   0  0  0  0  0  0
   46.9593   41.7357   36.1482 H   0  0  0  0  0  0
   45.5528   41.6499   34.0004 H   0  0  0  0  0  0
   49.7433   41.2275   38.5266 H   0  0  0  0  0  0
   50.5808   39.1853   39.9397 H   0  0  0  0  0  0
   52.1243   40.7669   38.7782 H   0  0  0  0  0  0
   50.6278   37.8350   37.2180 H   0  0  0  0  0  0
   52.4589   37.1210   38.6297 H   0  0  0  0  0  0
   49.0848   37.0458   39.7527 H   0  0  0  0  0  0
   47.8060   38.4201   37.3091 H   0  0  0  0  0  0
   46.6165   36.9663   39.2961 H   0  0  0  0  0  0
   46.9093   38.4437   40.2750 H   0  0  0  0  0  0
   44.6767   38.6188   39.0306 H   0  0  0  0  0  0
   47.9642   35.5489   39.6791 H   0  0  0  0  0  0
   48.7839   33.2769   39.5885 H   0  0  0  0  0  0
   50.3884   34.9408   40.5728 H   0  0  0  0  0  0
   50.3865   34.0137   37.0764 H   0  0  0  0  0  0
   51.3716   32.3121   38.6252 H   0  0  0  0  0  0
   48.0827   32.0507   37.0537 H   0  0  0  0  0  0
   47.8861   34.9413   36.1696 H   0  0  0  0  0  0
   45.6863   32.8617   36.7277 H   0  0  0  0  0  0
   45.4717   34.4835   35.9858 H   0  0  0  0  0  0
   45.4078   32.6866   34.2507 H   0  0  0  0  0  0
  1  2  1  0  0  0
  1  9  1  0  0  0
  1 73  1  0  0  0
  1 78  1  0  0  0
  2  3  1  0  0  0
  2  4  1  0  0  0
  2 79  1  0  0  0
  3 80  1  0  0  0
  4  5  1  0  0  0
  4  6  1  0  0  0
  4 81  1  0  0  0
  5 82  1  0  0  0
  6  7  1  0  0  0
  6  8  1  0  0  0
  6 83  1  0  0  0
  7 12  1  0  0  0
  8  9  1  0  0  0
  8 10  1  0  0  0
  8 84  1  0  0  0
 10 11  1  0  0  0
 10 85  1  0  0  0
 10 86  1  0  0  0
 11 87  1  0  0  0
 12 13  1  0  0  0
 12 20  1  0  0  0
 12 88  1  0  0  0
 13 14  1  0  0  0
 13 15  1  0  0  0
 13 89  1  0  0  0
 14 90  1  0  0  0
 15 16  1  0  0  0
 15 17  1  0  0  0
 15 91  1  0  0  0
 16 92  1  0  0  0
 17 18  1  0  0  0
 17 19  1  0  0  0
 17 93  1  0  0  0
 18 23  1  0  0  0
 19 20  1  0  0  0
 19 21  1  0  0  0
 19 94  1  0  0  0
 21 22  1  0  0  0
 21 95  1  0  0  0
 21 96  1  0  0  0
 22 97  1  0  0  0
 23 24  1  0  0  0
 23 31  1  0  0  0
 23 98  1  0  0  0
 24 25  1  0  0  0
 24 26  1  0  0  0
 24 99  1  0  0  0
 25100  1  0  0  0
 26 27  1  0  0  0
 26 28  1  0  0  0
 26101  1  0  0  0
 27102  1  0  0  0
 28 29  1  0  0  0
 28 30  1  0  0  0
 28103  1  0  0  0
 29 34  1  0  0  0
 30 31  1  0  0  0
 30 32  1  0  0  0
 30104  1  0  0  0
 32 33  1  0  0  0
 32105  1  0  0  0
 32106  1  0  0  0
 33107  1  0  0  0
 34 35  1  0  0  0
 34 42  1  0  0  0
 34108  1  0  0  0
 35 36  1  0  0  0
 35 37  1  0  0  0
 35109  1  0  0  0
 36110  1  0  0  0
 37 38  1  0  0  0
 37 39  1  0  0  0
 37111  1  0  0  0
 38112  1  0  0  0
 39 40  1  0  0  0
 39 41  1  0  0  0
 39113  1  0  0  0
 40 45  1  0  0  0
 41 42  1  0  0  0
 41 43  1  0  0  0
 41114  1  0  0  0
 43 44  1  0  0  0
 43115  1  0  0  0
 43116  1  0  0  0
 44117  1  0  0  0
 45 46  1  0  0  0
 45 53  1  0  0  0
 45118  1  0  0  0
 46 47  1  0  0  0
 46 48  1  0  0  0
 46119  1  0  0  0
 47120  1  0  0  0
 48 49  1  0  0  0
 48 50  1  0  0  0
 48121  1  0  0  0
 49122  1  0  0  0
 50 51  1  0  0  0
 50 52  1  0  0  0
 50123  1  0  0  0
 51 56  1  0  0  0
 52 53  1  0  0  0
 52 54  1  0  0  0
 52124  1  0  0  0
 54 55  1  0  0  0
 54125  1  0  0  0
 54126  1  0  0  0
 55127  1  0  0  0
 56 57  1  0  0  0
 56 64  1  0  0  0
 56128  1  0  0  0
 57 58  1  0  0  0
 57 59  1  0  0  0
 57129  1  0  0  0
 58130  1  0  0  0
 59 60  1  0  0  0
 59 61  1  0  0  0
 59131  1  0  0  0
 60132  1  0  0  0
 61 62  1  0  0  0
 61 63  1  0  0  0
 61133  1  0  0  0
 62 67  1  0  0  0
 63 64  1  0  0  0
 63 65  1  0  0  0
 63134  1  0  0  0
 65 66  1  0  0  0
 65135  1  0  0  0
 65136  1  0  0  0
 66137  1  0  0  0
 67 68  1  0  0  0
 67 75  1  0  0  0
 67138  1  0  0  0
 68 69  1  0  0  0
 68 70  1  0  0  0
 68139  1  0  0  0
 69140  1  0  0  0
 70 71  1  0  0  0
 70 72  1  0  0  0
 70141  1  0  0  0
 71142  1  0  0  0
 72 73  1  0  0  0
 72 74  1  0  0  0
 72143  1  0  0  0
 74 75  1  0  0  0
 74 76  1  0  0  0
 74144  1  0  0  0
 76 77  1  0  0  0
 76145  1  0  0  0
 76146  1  0  0  0
 77147  1  0  0  0
M  END
> <s_m_source_file>
../2y4s_ligand.sdf

> <i_m_source_file_index>
1

> <s_epik_input>
W0NAQEhdMTJbQ0BIXShbT0hdKVtDQEBIXShbT0hdKVtDQEBIXShbQ0BIXShPMSlbQ0gyXVtPSF0pT1tDQEBIXTNbQ0BIXShbT0hdKVtDQEBIXShbT0hdKVtDQEBIXShbQ0BIXShPMylbQ0gyXVtPSF0pT1tDQEBIXTRbQ0BIXShbT0hdKVtDQEBIXShbT0hdKVtDQEBIXShbQ0BIXShPNClbQ0gyXVtPSF0pT1tDQEBIXTVbQ0BIXShbT0hdKVtDQEBIXShbT0hdKVtDQEBIXShbQ0BIXShPNSlbQ0gyXVtPSF0pT1tDQEBIXTZbQ0BIXShbT0hdKVtDQEBIXShbT0hdKVtDQEBIXShbQ0BIXShPNilbQ0gyXVtPSF0pT1tDQEBIXTdbQ0BIXShbT0hdKVtDQEBIXShbT0hdKVtDQEBIXShbQ0BIXShPNylbQ0gyXVtPSF0pT1tDQEBIXThbQ0BIXShbT0hdKVtDQEBIXShbT0hdKVtDQEhdKE8yKVtDQEhdKE84KVtDSDJdW09IXQ==

> <s_epik_cmdline>
J2VwaWtfYXBwJywgJy1pbWFlJywgJ2xpZ2FuZF9wcm8ubWFlJywgJy1vbWFlJywgJ2xpZ2FuZF9wcmVwLm1hZScsICctbXMnLCAnMScsICctcGgnLCAnNycsICctcGh0JywgJzAuNScsICctbnQn

> <r_lp_tautomer_probability>
1

> <r_epik_Ionization_Penalty>
  0.0000

> <r_epik_Ionization_Penalty_Charging>
  0.0000

> <r_epik_Ionization_Penalty_Neutral>
  0.0000

> <r_epik_State_Penalty>
 -0.0000

> <r_epik_Charging_Adjusted_Penalty>
0

> <i_epik_Tot_Q>
0

> <i_epik_Tot_abs_Q>
0

> <s_epik_Chemistry_Notes>
This compound contains an acetal/aminal-like group ( X-CH(R)-Y where X, Y are N, S, or O) that may be acid/base labile, releasing an aldehyde.

$$$$
