2y54_ligand
                    3D
 Schrodinger Suite 2020-3.
 35 37  0  0  1  0            999 V2000
   87.7860   34.2380  -30.2470 C   0  0  0  0  0  0
   87.1410   35.4140  -27.8040 C   0  0  0  0  0  0
   87.6940   34.1330  -27.8350 C   0  0  0  0  0  0
   91.3100   31.6960  -32.1800 C   0  0  0  0  0  0
   88.6030   32.1520  -29.1080 C   0  0  0  0  0  0
   89.0250   29.5290  -31.7330 C   0  0  0  0  0  0
   86.9080   36.1050  -28.9920 C   0  0  0  0  0  0
   90.8870   30.3100  -30.1480 C   0  0  0  0  0  0
   91.7370   30.4480  -31.4130 C   0  0  1  0  0  0
   87.2250   35.5150  -30.2160 C   0  0  0  0  0  0
   90.2120   31.2290  -33.1240 C   0  0  0  0  0  0
   90.0610   29.7390  -32.8380 C   0  0  1  0  0  0
   88.0190   33.5390  -29.0570 C   0  0  0  0  0  0
   89.3790   30.2220  -30.4130 C   0  0  1  0  0  0
   88.8860   31.5540  -28.0810 O   0  0  0  0  0  0
   91.3650   29.3290  -32.2910 N   0  3  0  0  0  0
   88.8130   31.5310  -30.4130 O   0  0  0  0  0  0
   88.0442   33.7823  -31.2029 H   0  0  0  0  0  0
   86.8907   35.8752  -26.8486 H   0  0  0  0  0  0
   87.8727   33.5950  -26.9040 H   0  0  0  0  0  0
   90.9397   32.4524  -31.4724 H   0  0  0  0  0  0
   92.1717   32.1004  -32.7313 H   0  0  0  0  0  0
   88.0536   29.9277  -32.0606 H   0  0  0  0  0  0
   88.9275   28.4540  -31.5213 H   0  0  0  0  0  0
   86.4781   37.1063  -28.9647 H   0  0  0  0  0  0
   91.1751   29.3943  -29.6108 H   0  0  0  0  0  0
   91.0510   31.1828  -29.4990 H   0  0  0  0  0  0
   92.8089   30.4538  -31.1660 H   0  0  0  0  0  0
   87.0347   36.0507  -31.1460 H   0  0  0  0  0  0
   89.2851   31.7814  -32.9101 H   0  0  0  0  0  0
   90.5184   31.4157  -34.1638 H   0  0  0  0  0  0
   89.7855   29.1669  -33.7362 H   0  0  0  0  0  0
   88.9163   29.6681  -29.5829 H   0  0  0  0  0  0
   92.1279   29.2082  -33.0742 H   0  0  0  0  0  0
   91.2982   28.4046  -31.6985 H   0  0  0  0  0  0
  1 10  2  0  0  0
  1 13  1  0  0  0
  1 18  1  0  0  0
  2  3  1  0  0  0
  2  7  2  0  0  0
  2 19  1  0  0  0
  3 13  2  0  0  0
  3 20  1  0  0  0
  4  9  1  0  0  0
  4 11  1  0  0  0
  4 21  1  0  0  0
  4 22  1  0  0  0
  5 13  1  0  0  0
  5 15  2  0  0  0
  5 17  1  0  0  0
  6 12  1  0  0  0
  6 14  1  0  0  0
  6 23  1  0  0  0
  6 24  1  0  0  0
  7 10  1  0  0  0
  7 25  1  0  0  0
  8  9  1  0  0  0
  8 14  1  0  0  0
  8 26  1  0  0  0
  8 27  1  0  0  0
  9 16  1  0  0  0
  9 28  1  0  0  0
 10 29  1  0  0  0
 11 12  1  0  0  0
 11 30  1  0  0  0
 11 31  1  0  0  0
 12 16  1  0  0  0
 12 32  1  0  0  0
 14 17  1  0  0  0
 14 33  1  0  0  0
 16 34  1  0  0  0
 16 35  1  0  0  0
M  CHG  1  16   1
M  END
> <s_m_source_file>
../2y54_ligand.sdf

> <i_m_source_file_index>
1

> <s_epik_input>
W2NIXTFbY0hdW2NIXVtjSF1bY0hdYzFDKD1PKU9bQ0BIXShbQ0gyXTIpW0NIMl1bQ0BIXShbTkgyK10zKVtDSDJdW0NIMl1bQ0BASF0yMw==

> <s_epik_cmdline>
J2VwaWtfYXBwJywgJy1pbWFlJywgJ2xpZ2FuZF9wcm8ubWFlJywgJy1vbWFlJywgJ2xpZ2FuZF9wcmVwLm1hZScsICctbXMnLCAnMScsICctcGgnLCAnNycsICctcGh0JywgJzAuNScsICctbnQn

> <r_lp_tautomer_probability>
1

> <r_epik_Ionization_Penalty>
  0.0004

> <r_epik_Ionization_Penalty_Charging>
  0.0004

> <r_epik_Ionization_Penalty_Neutral>
  0.0000

> <r_epik_State_Penalty>
 -0.0000

> <r_epik_Charging_Adjusted_Penalty>
0.000352554529974428

> <i_epik_Tot_Q>
1

> <i_epik_Tot_abs_Q>
1

> <s_epik_Chemistry_Notes>
This compound has an ester and may undergo hydrolysis at high or low pH.

$$$$
