2y56_ligand
                    3D
 Schrodinger Suite 2020-3.
 52 55  0  0  1  0            999 V2000
   90.7710   31.5510  -29.0800 O   0  0  0  0  0  0
   90.2860   32.1450  -30.0350 C   0  0  0  0  0  0
   89.6840   33.5320  -29.9070 C   0  0  0  0  0  0
   89.6070   34.3650  -31.0330 C   0  0  0  0  0  0
   89.0260   35.6330  -30.9410 C   0  0  0  0  0  0
   88.5190   36.0860  -29.7250 C   0  0  0  0  0  0
   88.5700   35.2550  -28.6030 C   0  0  0  0  0  0
   89.1430   33.9810  -28.6900 C   0  0  0  0  0  0
   90.2410   31.4970  -31.3360 O   0  0  0  0  0  0
   90.8700   30.2260  -31.4360 C   0  0  2  0  0  0
   92.3890   30.3660  -31.2880 C   0  0  0  0  0  0
   93.1250   30.6800  -32.5910 C   0  0  2  0  0  0
   92.5900   31.9870  -33.1770 C   0  0  0  0  0  0
   91.4430   31.5710  -34.0790 C   0  0  0  0  0  0
   91.3780   30.0470  -33.9420 C   0  0  2  0  0  0
   90.4570   29.6460  -32.7880 C   0  0  0  0  0  0
   92.7230   29.6220  -33.5300 N   0  3  1  0  0  0
   93.6240   29.5440  -34.6910 C   0  0  0  0  0  0
   94.4190   28.2510  -34.5710 C   0  0  2  0  0  0
   95.5970   28.4900  -33.7900 O   0  0  0  0  0  0
   94.8060   27.7290  -35.9040 C   0  0  0  0  0  0
   95.6810   28.4610  -36.7190 C   0  0  0  0  0  0
   96.0750   27.9570  -37.9620 C   0  0  0  0  0  0
   95.5840   26.7210  -38.3900 C   0  0  0  0  0  0
   94.7100   25.9860  -37.5760 C   0  0  0  0  0  0
   94.3230   26.4830  -36.3280 C   0  0  0  0  0  0
   90.0037   34.0205  -31.9880 H   0  0  0  0  0  0
   88.9694   36.2697  -31.8239 H   0  0  0  0  0  0
   88.0850   37.0830  -29.6494 H   0  0  0  0  0  0
   88.1609   35.6011  -27.6538 H   0  0  0  0  0  0
   89.1697   33.3356  -27.8120 H   0  0  0  0  0  0
   90.5111   29.6007  -30.6053 H   0  0  0  0  0  0
   92.6153   31.1830  -30.5871 H   0  0  0  0  0  0
   92.8081   29.4251  -30.9019 H   0  0  0  0  0  0
   94.2146   30.7223  -32.4464 H   0  0  0  0  0  0
   92.2489   32.6419  -32.3616 H   0  0  0  0  0  0
   93.3890   32.4900  -33.7414 H   0  0  0  0  0  0
   90.5149   32.0528  -33.7378 H   0  0  0  0  0  0
   91.6583   31.8805  -35.1124 H   0  0  0  0  0  0
   91.0547   29.5855  -34.8867 H   0  0  0  0  0  0
   90.4634   28.5474  -32.7331 H   0  0  0  0  0  0
   89.4452   29.9944  -33.0428 H   0  0  0  0  0  0
   92.7530   28.6197  -33.0777 H   0  0  0  0  0  0
   93.0299   29.5442  -35.6168 H   0  0  0  0  0  0
   94.3004   30.4115  -34.6892 H   0  0  0  0  0  0
   93.8295   27.4778  -34.0565 H   0  0  0  0  0  0
   95.5079   28.8812  -32.7658 H   0  0  0  0  0  0
   96.0558   29.4275  -36.3819 H   0  0  0  0  0  0
   96.7600   28.5240  -38.5924 H   0  0  0  0  0  0
   95.8817   26.3261  -39.3613 H   0  0  0  0  0  0
   94.3308   25.0230  -37.9179 H   0  0  0  0  0  0
   93.6520   25.9072  -35.6905 H   0  0  0  0  0  0
  1  2  2  0  0  0
  2  3  1  0  0  0
  2  9  1  0  0  0
  3  4  2  0  0  0
  3  8  1  0  0  0
  4  5  1  0  0  0
  4 27  1  0  0  0
  5  6  2  0  0  0
  5 28  1  0  0  0
  6  7  1  0  0  0
  6 29  1  0  0  0
  7  8  2  0  0  0
  7 30  1  0  0  0
  8 31  1  0  0  0
  9 10  1  0  0  0
 10 11  1  0  0  0
 10 16  1  0  0  0
 10 32  1  0  0  0
 11 12  1  0  0  0
 11 33  1  0  0  0
 11 34  1  0  0  0
 12 13  1  0  0  0
 12 17  1  0  0  0
 12 35  1  0  0  0
 13 14  1  0  0  0
 13 36  1  0  0  0
 13 37  1  0  0  0
 14 15  1  0  0  0
 14 38  1  0  0  0
 14 39  1  0  0  0
 15 16  1  0  0  0
 15 17  1  0  0  0
 15 40  1  0  0  0
 16 41  1  0  0  0
 16 42  1  0  0  0
 17 18  1  0  0  0
 17 43  1  0  0  0
 18 19  1  0  0  0
 18 44  1  0  0  0
 18 45  1  0  0  0
 19 20  1  0  0  0
 19 21  1  0  0  0
 19 46  1  0  0  0
 20 47  1  0  0  0
 21 22  2  0  0  0
 21 26  1  0  0  0
 22 23  1  0  0  0
 22 48  1  0  0  0
 23 24  2  0  0  0
 23 49  1  0  0  0
 24 25  1  0  0  0
 24 50  1  0  0  0
 25 26  2  0  0  0
 25 51  1  0  0  0
 26 52  1  0  0  0
M  CHG  1  17   1
M  END
> <s_m_source_file>
../2y56_ligand.sdf

> <i_m_source_file_index>
1

> <s_epik_input>
W2NIXTFbY0hdW2NIXVtjSF1bY0hdYzFDKD1PKU9bQ0BIXShbQ0gyXVtDQEhdMjMpW0NIMl1bQ0BASF0oW0NIMl1bQ0gyXTIpW05ASCtdM1tDSDJdW0NASF0oW09IXSljNFtjSF1bY0hdW2NIXVtjSF1bY0hdNA==

> <s_epik_cmdline>
J2VwaWtfYXBwJywgJy1pbWFlJywgJ2xpZ2FuZF9wcm8ubWFlJywgJy1vbWFlJywgJ2xpZ2FuZF9wcmVwLm1hZScsICctbXMnLCAnMScsICctcGgnLCAnNycsICctcGh0JywgJzAuNScsICctbnQn

> <r_lp_tautomer_probability>
1

> <r_epik_Ionization_Penalty>
  0.0060

> <r_epik_Ionization_Penalty_Charging>
  0.0060

> <r_epik_Ionization_Penalty_Neutral>
  0.0000

> <r_epik_State_Penalty>
 -0.0000

> <r_epik_Charging_Adjusted_Penalty>
0.00599963442300269

> <i_epik_Tot_Q>
1

> <i_epik_Tot_abs_Q>
1

> <s_epik_Chemistry_Notes>
This compound has an ester and may undergo hydrolysis at high or low pH.

$$$$
