2y57_ligand
                    3D
 Schrodinger Suite 2020-3.
 51 54  0  0  1  0            999 V2000
  -31.1780  -86.6850   27.1200 O   0  0  0  0  0  0
  -31.7510  -86.3820   28.1610 C   0  0  0  0  0  0
  -33.0910  -85.7000   28.1430 C   0  0  0  0  0  0
  -33.6460  -85.2500   29.3340 C   0  0  0  0  0  0
  -34.8750  -84.5960   29.3190 C   0  0  0  0  0  0
  -35.5670  -84.4100   28.1210 C   0  0  0  0  0  0
  -35.0200  -84.8680   26.9250 C   0  0  0  0  0  0
  -33.7750  -85.5010   26.9420 C   0  0  0  0  0  0
  -31.1370  -86.6810   29.4410 O   0  0  0  0  0  0
  -29.7880  -87.1200   29.3840 C   0  0  1  0  0  0
  -29.0780  -86.5150   30.6060 C   0  0  0  0  0  0
  -29.2000  -87.3670   31.8680 C   0  0  1  0  0  0
  -30.6750  -87.6060   32.2060 C   0  0  0  0  0  0
  -31.0690  -88.8540   31.4190 C   0  0  0  0  0  0
  -29.7940  -89.3030   30.7150 C   0  0  1  0  0  0
  -29.7750  -88.6570   29.3300 C   0  0  0  0  0  0
  -28.6900  -88.6930   31.5020 N   0  3  2  0  0  0
  -28.4290  -89.4490   32.7310 C   0  0  0  0  0  0
  -27.6640  -90.7230   32.3980 C   0  0  0  0  0  0
  -27.2330  -91.3060   33.7220 C   0  0  0  0  0  0
  -27.9330  -92.3910   34.2590 C   0  0  0  0  0  0
  -27.5630  -92.9160   35.4980 C   0  0  0  0  0  0
  -26.4890  -92.3660   36.1920 C   0  0  0  0  0  0
  -25.8020  -91.2810   35.6530 C   0  0  0  0  0  0
  -26.1720  -90.7350   34.4250 C   0  0  0  0  0  0
  -33.1216  -85.4082   30.2764 H   0  0  0  0  0  0
  -35.3009  -84.2257   30.2515 H   0  0  0  0  0  0
  -36.5340  -83.9070   28.1217 H   0  0  0  0  0  0
  -35.5574  -84.7340   25.9862 H   0  0  0  0  0  0
  -33.3322  -85.8437   26.0068 H   0  0  0  0  0  0
  -29.3168  -86.7489   28.4619 H   0  0  0  0  0  0
  -28.0057  -86.4021   30.3883 H   0  0  0  0  0  0
  -29.5120  -85.5298   30.8317 H   0  0  0  0  0  0
  -28.6539  -86.9051   32.7037 H   0  0  0  0  0  0
  -30.7824  -87.7608   33.2897 H   0  0  0  0  0  0
  -31.2677  -86.7313   31.9001 H   0  0  0  0  0  0
  -31.4396  -89.6231   32.1127 H   0  0  0  0  0  0
  -31.8598  -88.5986   30.6983 H   0  0  0  0  0  0
  -29.6965  -90.3966   30.6470 H   0  0  0  0  0  0
  -30.6610  -89.0122   28.7834 H   0  0  0  0  0  0
  -28.8651  -88.9981   28.8146 H   0  0  0  0  0  0
  -27.7459  -88.6651   30.9382 H   0  0  0  0  0  0
  -27.8308  -88.8342   33.4196 H   0  0  0  0  0  0
  -29.3839  -89.7119   33.2096 H   0  0  0  0  0  0
  -28.3237  -91.4153   31.8543 H   0  0  0  0  0  0
  -26.7951  -90.4756   31.7705 H   0  0  0  0  0  0
  -28.7677  -92.8267   33.7098 H   0  0  0  0  0  0
  -28.1142  -93.7555   35.9216 H   0  0  0  0  0  0
  -26.1870  -92.7826   37.1529 H   0  0  0  0  0  0
  -24.9622  -90.8522   36.1998 H   0  0  0  0  0  0
  -25.6399  -89.8743   34.0199 H   0  0  0  0  0  0
  1  2  2  0  0  0
  2  3  1  0  0  0
  2  9  1  0  0  0
  3  4  2  0  0  0
  3  8  1  0  0  0
  4  5  1  0  0  0
  4 26  1  0  0  0
  5  6  2  0  0  0
  5 27  1  0  0  0
  6  7  1  0  0  0
  6 28  1  0  0  0
  7  8  2  0  0  0
  7 29  1  0  0  0
  8 30  1  0  0  0
  9 10  1  0  0  0
 10 11  1  0  0  0
 10 16  1  0  0  0
 10 31  1  0  0  0
 11 12  1  0  0  0
 11 32  1  0  0  0
 11 33  1  0  0  0
 12 13  1  0  0  0
 12 17  1  0  0  0
 12 34  1  0  0  0
 13 14  1  0  0  0
 13 35  1  0  0  0
 13 36  1  0  0  0
 14 15  1  0  0  0
 14 37  1  0  0  0
 14 38  1  0  0  0
 15 16  1  0  0  0
 15 17  1  0  0  0
 15 39  1  0  0  0
 16 40  1  0  0  0
 16 41  1  0  0  0
 17 18  1  0  0  0
 17 42  1  0  0  0
 18 19  1  0  0  0
 18 43  1  0  0  0
 18 44  1  0  0  0
 19 20  1  0  0  0
 19 45  1  0  0  0
 19 46  1  0  0  0
 20 21  2  0  0  0
 20 25  1  0  0  0
 21 22  1  0  0  0
 21 47  1  0  0  0
 22 23  2  0  0  0
 22 48  1  0  0  0
 23 24  1  0  0  0
 23 49  1  0  0  0
 24 25  2  0  0  0
 24 50  1  0  0  0
 25 51  1  0  0  0
M  CHG  1  17   1
M  END
> <s_m_source_file>
../2y57_ligand.sdf

> <i_m_source_file_index>
1

> <s_epik_input>
W2NIXTFbY0hdW2NIXVtjSF1bY0hdYzFDKD1PKU9bQ0BASF0oW0NIMl1bQ0BASF0yMylbQ0gyXVtDQEhdKFtDSDJdW0NIMl0yKVtOQEBIK10zW0NIMl1bQ0gyXWM0W2NIXVtjSF1bY0hdW2NIXVtjSF00

> <s_epik_cmdline>
J2VwaWtfYXBwJywgJy1pbWFlJywgJ2xpZ2FuZF9wcm8ubWFlJywgJy1vbWFlJywgJ2xpZ2FuZF9wcmVwLm1hZScsICctbXMnLCAnMScsICctcGgnLCAnNycsICctcGh0JywgJzAuNScsICctbnQn

> <r_lp_tautomer_probability>
1

> <r_epik_Ionization_Penalty>
  0.0060

> <r_epik_Ionization_Penalty_Charging>
  0.0060

> <r_epik_Ionization_Penalty_Neutral>
  0.0000

> <r_epik_State_Penalty>
 -0.0000

> <r_epik_Charging_Adjusted_Penalty>
0.00599963442300269

> <i_epik_Tot_Q>
1

> <i_epik_Tot_abs_Q>
1

> <s_epik_Chemistry_Notes>
This compound has an ester and may undergo hydrolysis at high or low pH.

$$$$
