2y58_ligand
                    3D
 Schrodinger Suite 2020-3.
 55 58  0  0  1  0            999 V2000
  -87.8420  -32.2350  -30.3220 O   0  0  0  0  0  0
  -88.0800  -31.0650  -30.0430 C   0  0  0  0  0  0
  -88.1400  -30.5890  -28.6160 C   0  0  0  0  0  0
  -88.6040  -29.2870  -28.3480 C   0  0  0  0  0  0
  -88.6640  -28.8050  -27.0320 C   0  0  0  0  0  0
  -88.2490  -29.6210  -25.9750 C   0  0  0  0  0  0
  -87.7620  -30.9050  -26.2400 C   0  0  0  0  0  0
  -87.7020  -31.3940  -27.5560 C   0  0  0  0  0  0
  -88.3070  -30.0460  -31.0630 O   0  0  0  0  0  0
  -88.4690  -30.4690  -32.4150 C   0  0  1  0  0  0
  -89.6860  -31.3830  -32.6150 C   0  0  0  0  0  0
  -90.9470  -30.6500  -33.0680 C   0  0  1  0  0  0
  -91.2870  -29.6670  -31.9540 C   0  0  0  0  0  0
  -90.6110  -28.3540  -32.3410 C   0  0  0  0  0  0
  -89.8900  -28.6780  -33.6470 C   0  0  1  0  0  0
  -88.5000  -29.1980  -33.2730 C   0  0  0  0  0  0
  -90.6590  -29.7850  -34.2340 N   0  3  2  0  0  0
  -91.9130  -29.2750  -34.8110 C   0  0  0  0  0  0
  -89.9130  -30.4350  -35.3160 C   0  0  0  0  0  0
  -90.7140  -31.6360  -35.7790 C   0  0  2  0  0  0
  -90.1380  -32.8140  -35.2270 O   0  0  0  0  0  0
  -90.6620  -31.7110  -37.2430 C   0  0  0  0  0  0
  -91.8600  -31.6230  -37.9710 C   0  0  0  0  0  0
  -91.8440  -31.6660  -39.3700 C   0  0  0  0  0  0
  -90.6070  -31.8120  -40.0120 C   0  0  0  0  0  0
  -89.4040  -31.9080  -39.2760 C   0  0  0  0  0  0
  -89.4240  -31.8600  -37.8830 C   0  0  0  0  0  0
  -88.9199  -28.6468  -29.1717 H   0  0  0  0  0  0
  -89.0326  -27.7985  -26.8342 H   0  0  0  0  0  0
  -88.3048  -29.2579  -24.9488 H   0  0  0  0  0  0
  -87.4250  -31.5338  -25.4159 H   0  0  0  0  0  0
  -87.3166  -32.3947  -27.7513 H   0  0  0  0  0  0
  -87.5964  -31.0957  -32.6512 H   0  0  0  0  0  0
  -89.4561  -32.1370  -33.3822 H   0  0  0  0  0  0
  -89.9265  -31.8861  -31.6668 H   0  0  0  0  0  0
  -91.7326  -31.3745  -33.3286 H   0  0  0  0  0  0
  -92.3788  -29.5506  -31.8884 H   0  0  0  0  0  0
  -90.9008  -30.0489  -30.9974 H   0  0  0  0  0  0
  -91.3747  -27.5733  -32.4727 H   0  0  0  0  0  0
  -89.9124  -28.0531  -31.5464 H   0  0  0  0  0  0
  -89.8254  -27.8367  -34.3527 H   0  0  0  0  0  0
  -88.0014  -28.3792  -32.7335 H   0  0  0  0  0  0
  -87.9766  -29.3837  -34.2225 H   0  0  0  0  0  0
  -92.5024  -28.7785  -34.0261 H   0  0  0  0  0  0
  -92.4911  -30.1120  -35.2295 H   0  0  0  0  0  0
  -91.6828  -28.5533  -35.6086 H   0  0  0  0  0  0
  -89.7772  -29.7254  -36.1455 H   0  0  0  0  0  0
  -88.9291  -30.7549  -34.9424 H   0  0  0  0  0  0
  -91.7628  -31.5978  -35.4495 H   0  0  0  0  0  0
  -90.0862  -32.9415  -34.1356 H   0  0  0  0  0  0
  -92.8082  -31.5206  -37.4432 H   0  0  0  0  0  0
  -92.7675  -31.5881  -39.9437 H   0  0  0  0  0  0
  -90.5717  -31.8523  -41.1007 H   0  0  0  0  0  0
  -88.4552  -32.0202  -39.8007 H   0  0  0  0  0  0
  -88.5018  -31.9363  -37.3070 H   0  0  0  0  0  0
  1  2  2  0  0  0
  2  3  1  0  0  0
  2  9  1  0  0  0
  3  4  2  0  0  0
  3  8  1  0  0  0
  4  5  1  0  0  0
  4 28  1  0  0  0
  5  6  2  0  0  0
  5 29  1  0  0  0
  6  7  1  0  0  0
  6 30  1  0  0  0
  7  8  2  0  0  0
  7 31  1  0  0  0
  8 32  1  0  0  0
  9 10  1  0  0  0
 10 11  1  0  0  0
 10 16  1  0  0  0
 10 33  1  0  0  0
 11 12  1  0  0  0
 11 34  1  0  0  0
 11 35  1  0  0  0
 12 13  1  0  0  0
 12 17  1  0  0  0
 12 36  1  0  0  0
 13 14  1  0  0  0
 13 37  1  0  0  0
 13 38  1  0  0  0
 14 15  1  0  0  0
 14 39  1  0  0  0
 14 40  1  0  0  0
 15 16  1  0  0  0
 15 17  1  0  0  0
 15 41  1  0  0  0
 16 42  1  0  0  0
 16 43  1  0  0  0
 17 18  1  0  0  0
 17 19  1  0  0  0
 18 44  1  0  0  0
 18 45  1  0  0  0
 18 46  1  0  0  0
 19 20  1  0  0  0
 19 47  1  0  0  0
 19 48  1  0  0  0
 20 21  1  0  0  0
 20 22  1  0  0  0
 20 49  1  0  0  0
 21 50  1  0  0  0
 22 23  2  0  0  0
 22 27  1  0  0  0
 23 24  1  0  0  0
 23 51  1  0  0  0
 24 25  2  0  0  0
 24 52  1  0  0  0
 25 26  1  0  0  0
 25 53  1  0  0  0
 26 27  2  0  0  0
 26 54  1  0  0  0
 27 55  1  0  0  0
M  CHG  1  17   1
M  END
> <s_m_source_file>
../2y58_ligand.sdf

> <i_m_source_file_index>
1

> <s_epik_input>
W2NIXTFbY0hdW2NIXVtjSF1bY0hdYzFDKD1PKU9bQ0BASF0oW0NIMl1bQ0BASF0yMylbQ0gyXVtDQEhdKFtDSDJdW0NIMl0yKVtOQEArXTMoW0NIM10pW0NIMl1bQ0BIXShbT0hdKWM0W2NIXVtjSF1bY0hdW2NIXVtjSF00

> <s_epik_cmdline>
J2VwaWtfYXBwJywgJy1pbWFlJywgJ2xpZ2FuZF9wcm8ubWFlJywgJy1vbWFlJywgJ2xpZ2FuZF9wcmVwLm1hZScsICctbXMnLCAnMScsICctcGgnLCAnNycsICctcGh0JywgJzAuNScsICctbnQn

> <r_lp_tautomer_probability>
1

> <r_epik_Ionization_Penalty>
  0.0002

> <r_epik_Ionization_Penalty_Charging>
  0.0000

> <r_epik_Ionization_Penalty_Neutral>
  0.0002

> <r_epik_State_Penalty>
 -0.0000

> <r_epik_Charging_Adjusted_Penalty>
0

> <i_epik_Tot_Q>
1

> <i_epik_Tot_abs_Q>
1

> <s_epik_Chemistry_Notes>
This compound has an ester and may undergo hydrolysis at high or low pH.

$$$$
