2y5f_ligand
                    3D
 Schrodinger Suite 2020-3.
 67 72  0  0  1  0            999 V2000
   -0.5040    5.7010   27.9950 Cl  0  0  0  0  0  0
   -1.2770    7.2730   27.5840 C   0  0  0  0  0  0
   -2.3770    7.8220   28.1910 C   0  0  0  0  0  0
   -2.6990    9.0320   27.5800 C   0  0  0  0  0  0
   -0.5440    8.1750   26.3360 S   0  0  0  0  0  0
   -1.7920    9.3340   26.5820 C   0  0  0  0  0  0
   -1.8180   10.4320   25.7310 C   0  0  0  0  0  0
   -2.9060   11.1400   25.3110 C   0  0  0  0  0  0
   -0.7090   10.8190   25.0880 O   0  0  0  0  0  0
   -1.0440   11.8910   24.2560 N   0  0  0  0  0  0
   -2.3470   12.0750   24.3730 C   0  0  0  0  0  0
   -3.1590   13.1180   23.6470 C   0  0  2  0  0  0
   -4.5040   13.4520   24.1660 N   0  0  2  0  0  0
   -5.1350   14.2220   23.0740 C   0  0  1  0  0  0
   -4.7350   15.6770   23.3140 C   0  0  0  0  0  0
   -4.4180   15.7660   24.8030 C   0  0  0  0  0  0
   -4.4420   14.3340   25.3410 C   0  0  0  0  0  0
   -4.6220   13.6230   21.7710 C   0  0  1  0  0  0
   -3.4340   12.7590   22.1770 C   0  0  2  0  0  0
   -3.9270   11.3500   21.9650 C   0  0  0  0  0  0
   -3.2810   10.3010   22.1250 O   0  0  0  0  0  0
   -5.5970   12.6270   21.2260 C   0  0  0  0  0  0
   -6.5930   12.8870   20.5530 O   0  0  0  0  0  0
   -5.2690   11.3580   21.6520 N   0  0  0  0  0  0
   -5.9380   10.1520   21.1060 C   0  0  0  0  0  0
   -5.5230    9.6770   19.7290 C   0  0  0  0  0  0
   -6.4250    8.4940   19.3970 C   0  0  0  0  0  0
   -6.2420    7.9000   18.0570 N   0  3  0  0  0  0
   -6.3460    8.8810   16.9370 C   0  0  0  0  0  0
   -7.5910    9.7700   16.9810 C   0  0  0  0  0  0
   -8.7440    8.9660   16.7620 O   0  0  0  0  0  0
   -7.2340    6.8110   17.8900 C   0  0  0  0  0  0
   -6.5820    5.5360   18.4020 C   0  0  0  0  0  0
   -5.1140    5.7350   18.1010 C   0  0  0  0  0  0
   -4.9220    7.2350   18.0090 C   0  0  0  0  0  0
   -2.9185    7.3783   29.0265 H   0  0  0  0  0  0
   -3.5505    9.6557   27.8521 H   0  0  0  0  0  0
   -3.9468   11.0246   25.6134 H   0  0  0  0  0  0
   -2.5045   13.9831   23.8293 H   0  0  0  0  0  0
   -6.2331   14.1608   23.0534 H   0  0  0  0  0  0
   -3.8566   15.9220   22.6989 H   0  0  0  0  0  0
   -5.5708   16.3372   23.0390 H   0  0  0  0  0  0
   -3.4255   16.2200   24.9401 H   0  0  0  0  0  0
   -5.1769   16.3857   25.3031 H   0  0  0  0  0  0
   -5.3260   14.1649   25.9735 H   0  0  0  0  0  0
   -3.5313   14.1137   25.9172 H   0  0  0  0  0  0
   -4.4326   14.4192   21.0360 H   0  0  0  0  0  0
   -2.4992   12.8827   21.6105 H   0  0  0  0  0  0
   -5.7540    9.2969   21.7731 H   0  0  0  0  0  0
   -7.0204   10.3342   21.0336 H   0  0  0  0  0  0
   -5.6578   10.4929   19.0037 H   0  0  0  0  0  0
   -4.4655    9.3748   19.7486 H   0  0  0  0  0  0
   -6.2468    7.6832   20.1187 H   0  0  0  0  0  0
   -7.4776    8.8088   19.4517 H   0  0  0  0  0  0
   -5.4746    9.5521   16.9553 H   0  0  0  0  0  0
   -6.3734    8.3418   15.9786 H   0  0  0  0  0  0
   -7.6599   10.2560   17.9654 H   0  0  0  0  0  0
   -7.5209   10.5383   16.1969 H   0  0  0  0  0  0
   -9.7429    9.4267   16.7570 H   0  0  0  0  0  0
   -8.1381    7.0464   18.4707 H   0  0  0  0  0  0
   -7.4965    6.7140   16.8262 H   0  0  0  0  0  0
   -6.7753    5.4327   19.4799 H   0  0  0  0  0  0
   -7.0021    4.6700   17.8695 H   0  0  0  0  0  0
   -4.5112    5.3010   18.9124 H   0  0  0  0  0  0
   -4.8636    5.2381   17.1521 H   0  0  0  0  0  0
   -4.4198    7.4848   17.0628 H   0  0  0  0  0  0
   -4.3066    7.5801   18.8529 H   0  0  0  0  0  0
  1  2  1  0  0  0
  2  3  2  0  0  0
  2  5  1  0  0  0
  3  4  1  0  0  0
  3 36  1  0  0  0
  4  6  2  0  0  0
  4 37  1  0  0  0
  5  6  1  0  0  0
  6  7  1  0  0  0
  7  8  2  0  0  0
  7  9  1  0  0  0
  8 11  1  0  0  0
  8 38  1  0  0  0
  9 10  1  0  0  0
 10 11  2  0  0  0
 11 12  1  0  0  0
 12 13  1  0  0  0
 12 19  1  0  0  0
 12 39  1  0  0  0
 13 14  1  0  0  0
 13 17  1  0  0  0
 14 15  1  0  0  0
 14 18  1  0  0  0
 14 40  1  0  0  0
 15 16  1  0  0  0
 15 41  1  0  0  0
 15 42  1  0  0  0
 16 17  1  0  0  0
 16 43  1  0  0  0
 16 44  1  0  0  0
 17 45  1  0  0  0
 17 46  1  0  0  0
 18 19  1  0  0  0
 18 22  1  0  0  0
 18 47  1  0  0  0
 19 20  1  0  0  0
 19 48  1  0  0  0
 20 21  2  0  0  0
 20 24  1  0  0  0
 22 23  2  0  0  0
 22 24  1  0  0  0
 24 25  1  0  0  0
 25 26  1  0  0  0
 25 49  1  0  0  0
 25 50  1  0  0  0
 26 27  1  0  0  0
 26 51  1  0  0  0
 26 52  1  0  0  0
 27 28  1  0  0  0
 27 53  1  0  0  0
 27 54  1  0  0  0
 28 29  1  0  0  0
 28 32  1  0  0  0
 28 35  1  0  0  0
 29 30  1  0  0  0
 29 55  1  0  0  0
 29 56  1  0  0  0
 30 31  1  0  0  0
 30 57  1  0  0  0
 30 58  1  0  0  0
 31 59  1  0  0  0
 32 33  1  0  0  0
 32 60  1  0  0  0
 32 61  1  0  0  0
 33 34  1  0  0  0
 33 62  1  0  0  0
 33 63  1  0  0  0
 34 35  1  0  0  0
 34 64  1  0  0  0
 34 65  1  0  0  0
 35 66  1  0  0  0
 35 67  1  0  0  0
M  CHG  1  28   1
M  END
> <s_m_source_file>
../2y5f_ligand.sdf

> <i_m_source_file_index>
1

> <s_epik_input>
Q2xjMVtjSF1bY0hdYyhzMSktYzJbY0hdYyhubzIpW0NASF0zW0NASF0oW0NAQEhdNFtDQEBIXShbTkBASCtdMzUpW0NIMl1bQ0gyXVtDSDJdNSlDKD1PKU4oQzQ9TylbQ0gyXVtDSDJdW0NIMl1bTitdNihbQ0gyXVtDSDJdW09IXSlbQ0gyXVtDSDJdW0NIMl1bQ0gyXTY=

> <s_epik_cmdline>
J2VwaWtfYXBwJywgJy1pbWFlJywgJ2xpZ2FuZF9wcm8ubWFlJywgJy1vbWFlJywgJ2xpZ2FuZF9wcmVwLm1hZScsICctbXMnLCAnMScsICctcGgnLCAnNycsICctcGh0JywgJzAuNScsICctbnQn

> <r_lp_tautomer_probability>
1

> <r_epik_Ionization_Penalty>
  0.1043

> <r_epik_Ionization_Penalty_Charging>
  0.0000

> <r_epik_Ionization_Penalty_Neutral>
  0.1043

> <r_epik_State_Penalty>
  0.0942

> <r_epik_Charging_Adjusted_Penalty>
0.094197263534571

> <i_epik_Tot_Q>
1

> <i_epik_Tot_abs_Q>
1

$$$$
