2y5g_ligand
                    3D
 Schrodinger Suite 2020-3.
 60 64  0  0  1  0            999 V2000
   -0.4510    5.6420   27.6220 Cl  0  0  0  0  0  0
   -1.2230    7.2390   27.3000 C   0  0  0  0  0  0
   -2.2330    7.8110   28.0290 C   0  0  0  0  0  0
   -2.6050    9.0380   27.4390 C   0  0  0  0  0  0
   -0.7000    8.1000   25.9230 S   0  0  0  0  0  0
   -1.8540    9.3260   26.2850 C   0  0  0  0  0  0
   -2.0420   10.4240   25.4060 C   0  0  0  0  0  0
   -1.3070   10.5260   24.2520 O   0  0  0  0  0  0
   -3.0100   11.3560   25.4360 C   0  0  0  0  0  0
   -2.8130   12.1590   24.3020 N   0  0  0  0  0  0
   -1.8160   11.6500   23.6460 C   0  0  0  0  0  0
   -1.2060   12.0260   22.3440 C   0  0  2  0  0  0
   -1.8090   13.2360   21.7630 N   0  3  2  0  0  0
   -1.6000   13.1700   20.3040 C   0  0  1  0  0  0
   -0.3550   13.9830   19.9730 C   0  0  0  0  0  0
   -0.1830   14.9330   21.1510 C   0  0  0  0  0  0
   -1.1790   14.4890   22.2220 C   0  0  0  0  0  0
   -1.4780   11.7020   19.9530 C   0  0  1  0  0  0
   -1.4440   10.9530   21.2830 C   0  0  2  0  0  0
   -2.7820   10.2440   21.2700 C   0  0  0  0  0  0
   -3.3370    9.7070   22.2140 O   0  0  0  0  0  0
   -2.7270   11.2620   19.2540 C   0  0  0  0  0  0
   -3.2000   11.7490   18.2270 O   0  0  0  0  0  0
   -3.3260   10.2090   19.9540 N   0  0  0  0  0  0
   -4.7540    9.9570   19.7680 C   0  0  0  0  0  0
   -4.7070    8.6830   18.9160 C   0  0  0  0  0  0
   -6.0590    7.9940   18.8240 C   0  0  0  0  0  0
   -6.1600    6.9530   17.7870 N   0  3  0  0  0  0
   -5.8360    7.5000   16.4520 C   0  0  0  0  0  0
   -7.5650    6.5400   17.7640 C   0  0  0  0  0  0
   -5.3390    5.7690   18.1070 C   0  0  0  0  0  0
   -2.6802    7.3839   28.9266 H   0  0  0  0  0  0
   -3.3857    9.6887   27.8329 H   0  0  0  0  0  0
   -3.7904   11.4659   26.1890 H   0  0  0  0  0  0
   -0.1485   12.2002   22.5918 H   0  0  0  0  0  0
   -2.8652   13.2528   22.0699 H   0  0  0  0  0  0
   -2.4415   13.5980   19.7394 H   0  0  0  0  0  0
    0.5064   13.3073   19.8661 H   0  0  0  0  0  0
   -0.5127   14.5279   19.0306 H   0  0  0  0  0  0
    0.8492   14.8691   21.5258 H   0  0  0  0  0  0
   -0.3917   15.9627   20.8252 H   0  0  0  0  0  0
   -1.9529   15.2576   22.3647 H   0  0  0  0  0  0
   -0.6594   14.3105   23.1750 H   0  0  0  0  0  0
   -0.6037   11.5196   19.3109 H   0  0  0  0  0  0
   -0.6710   10.1943   21.4752 H   0  0  0  0  0  0
   -5.2322    9.8159   20.7485 H   0  0  0  0  0  0
   -5.2141   10.8149   19.2558 H   0  0  0  0  0  0
   -4.3859    8.9364   17.8949 H   0  0  0  0  0  0
   -3.9940    7.9719   19.3587 H   0  0  0  0  0  0
   -6.2876    7.5057   19.7828 H   0  0  0  0  0  0
   -6.8357    8.7393   18.5977 H   0  0  0  0  0  0
   -6.4675    8.3783   16.2525 H   0  0  0  0  0  0
   -6.0226    6.7327   15.6862 H   0  0  0  0  0  0
   -4.7769    7.7959   16.4242 H   0  0  0  0  0  0
   -8.1983    7.4076   17.5270 H   0  0  0  0  0  0
   -7.8456    6.1394   18.7493 H   0  0  0  0  0  0
   -7.7062    5.7628   16.9984 H   0  0  0  0  0  0
   -4.2770    6.0546   18.1301 H   0  0  0  0  0  0
   -5.4944    4.9967   17.3393 H   0  0  0  0  0  0
   -5.6338    5.3733   19.0901 H   0  0  0  0  0  0
  1  2  1  0  0  0
  2  3  2  0  0  0
  2  5  1  0  0  0
  3  4  1  0  0  0
  3 32  1  0  0  0
  4  6  2  0  0  0
  4 33  1  0  0  0
  5  6  1  0  0  0
  6  7  1  0  0  0
  7  8  1  0  0  0
  7  9  2  0  0  0
  8 11  1  0  0  0
  9 10  1  0  0  0
  9 34  1  0  0  0
 10 11  2  0  0  0
 11 12  1  0  0  0
 12 13  1  0  0  0
 12 19  1  0  0  0
 12 35  1  0  0  0
 13 14  1  0  0  0
 13 17  1  0  0  0
 13 36  1  0  0  0
 14 15  1  0  0  0
 14 18  1  0  0  0
 14 37  1  0  0  0
 15 16  1  0  0  0
 15 38  1  0  0  0
 15 39  1  0  0  0
 16 17  1  0  0  0
 16 40  1  0  0  0
 16 41  1  0  0  0
 17 42  1  0  0  0
 17 43  1  0  0  0
 18 19  1  0  0  0
 18 22  1  0  0  0
 18 44  1  0  0  0
 19 20  1  0  0  0
 19 45  1  0  0  0
 20 21  2  0  0  0
 20 24  1  0  0  0
 22 23  2  0  0  0
 22 24  1  0  0  0
 24 25  1  0  0  0
 25 26  1  0  0  0
 25 46  1  0  0  0
 25 47  1  0  0  0
 26 27  1  0  0  0
 26 48  1  0  0  0
 26 49  1  0  0  0
 27 28  1  0  0  0
 27 50  1  0  0  0
 27 51  1  0  0  0
 28 29  1  0  0  0
 28 30  1  0  0  0
 28 31  1  0  0  0
 29 52  1  0  0  0
 29 53  1  0  0  0
 29 54  1  0  0  0
 30 55  1  0  0  0
 30 56  1  0  0  0
 30 57  1  0  0  0
 31 58  1  0  0  0
 31 59  1  0  0  0
 31 60  1  0  0  0
M  CHG  2  13   1  28   1
M  END
> <s_m_source_file>
../2y5g_ligand.sdf

> <i_m_source_file_index>
1

> <s_epik_input>
Q2xjMVtjSF1bY0hdYyhzMSktYzJvYyhuW2NIXTIpW0NASF0zW0NASF0oW0NAQEhdNFtDQEBIXShbTkBASCtdMzUpW0NIMl1bQ0gyXVtDSDJdNSlDKD1PKU4oQzQ9TylbQ0gyXVtDSDJdW0NIMl1bTitdKFtDSDNdKShbQ0gzXSlbQ0gzXQ==

> <s_epik_cmdline>
J2VwaWtfYXBwJywgJy1pbWFlJywgJ2xpZ2FuZF9wcm8ubWFlJywgJy1vbWFlJywgJ2xpZ2FuZF9wcmVwLm1hZScsICctbXMnLCAnMScsICctcGgnLCAnNycsICctcGh0JywgJzAuNScsICctbnQn

> <r_lp_tautomer_probability>
1

> <r_epik_Ionization_Penalty>
  0.0394

> <r_epik_Ionization_Penalty_Charging>
  0.0394

> <r_epik_Ionization_Penalty_Neutral>
  0.0000

> <r_epik_State_Penalty>
  0.0331

> <r_epik_Charging_Adjusted_Penalty>
0.072484398016105

> <i_epik_Tot_Q>
2

> <i_epik_Tot_abs_Q>
2

$$$$
