2y5l_ligand
                    3D
 Schrodinger Suite 2020-3.
 26 27  0  0  1  0            999 V2000
   33.7980   12.4810  -19.3920 Cl  0  0  0  0  0  0
   39.4370    7.9450  -21.0730 S   0  0  0  0  0  0
   40.0940    8.6230  -22.5310 C   0  0  0  0  0  0
   40.9220    7.8190  -23.2570 N   0  0  0  0  0  0
   40.9880    6.6010  -22.6640 C   0  0  0  0  0  0
   40.2640    6.5190  -21.5150 C   0  0  0  0  0  0
   40.1210    4.9580  -20.4050 Br  0  0  0  0  0  0
   39.8710    9.9060  -22.8230 N   0  0  0  0  0  0
   38.6720   13.2420  -21.7080 S   0  0  0  0  0  0
   39.2370   12.0260  -22.4440 N   0  0  0  0  0  0
   39.3100   10.7760  -21.9930 C   0  0  0  0  0  0
   38.8730   10.4310  -20.9060 O   0  5  0  0  0  0
   39.1030   13.2680  -20.3350 O   0  0  0  0  0  0
   39.2000   14.4150  -22.3500 O   0  0  0  0  0  0
   36.9650   13.2740  -21.7790 C   0  0  0  0  0  0
   36.2050   12.9090  -20.6810 C   0  0  0  0  0  0
   36.3450   13.7120  -22.9290 C   0  0  0  0  0  0
   34.8100   12.9570  -20.7820 C   0  0  0  0  0  0
   34.9520   13.7670  -23.0230 C   0  0  0  0  0  0
   34.1770   13.3810  -21.9440 C   0  0  0  0  0  0
   41.5647    5.7692  -23.0684 H   0  0  0  0  0  0
   40.1582   10.3040  -23.8075 H   0  0  0  0  0  0
   36.6841   12.5902  -19.7553 H   0  0  0  0  0  0
   36.9518   14.0209  -23.7802 H   0  0  0  0  0  0
   34.4783   14.1123  -23.9419 H   0  0  0  0  0  0
   33.0890   13.4090  -22.0043 H   0  0  0  0  0  0
  1 18  1  0  0  0
  2  3  1  0  0  0
  2  6  1  0  0  0
  3  4  2  0  0  0
  3  8  1  0  0  0
  4  5  1  0  0  0
  5  6  2  0  0  0
  5 21  1  0  0  0
  6  7  1  0  0  0
  8 11  1  0  0  0
  8 22  1  0  0  0
  9 10  1  0  0  0
  9 13  2  0  0  0
  9 14  2  0  0  0
  9 15  1  0  0  0
 10 11  2  0  0  0
 11 12  1  0  0  0
 15 16  2  0  0  0
 15 17  1  0  0  0
 16 18  1  0  0  0
 16 23  1  0  0  0
 17 19  2  0  0  0
 17 24  1  0  0  0
 18 20  2  0  0  0
 19 20  1  0  0  0
 19 25  1  0  0  0
 20 26  1  0  0  0
M  CHG  1  12  -1
M  END
> <s_m_source_file>
../2y5l_ligand.sdf

> <i_m_source_file_index>
1

> <s_epik_input>
W2NIXTFbY0hdW2NIXWMoQ2wpW2NIXWMxUyg9TykoPU8pW05IXUMoPU8pW05IXWMyc2MoQnIpW2NIXW4y

> <s_epik_cmdline>
J2VwaWtfYXBwJywgJy1pbWFlJywgJ2xpZ2FuZF9wcm8ubWFlJywgJy1vbWFlJywgJ2xpZ2FuZF9wcmVwLm1hZScsICctbXMnLCAnMScsICctcGgnLCAnNycsICctcGh0JywgJzAuNScsICctbnQn

> <r_lp_tautomer_probability>
1

> <r_epik_Ionization_Penalty>
  0.0002

> <r_epik_Ionization_Penalty_Charging>
  0.0000

> <r_epik_Ionization_Penalty_Neutral>
  0.0002

> <r_epik_State_Penalty>
 -0.0000

> <r_epik_Charging_Adjusted_Penalty>
3.48871213386801e-05

> <i_epik_Tot_Q>
-1

> <i_epik_Tot_abs_Q>
1

$$$$
