2y68_ligand
                    3D
 Schrodinger Suite 2020-3.
 49 51  0  0  1  0            999 V2000
   27.4390    0.4830   47.2550 O   0  5  0  0  0  0
   27.5810    1.3050   46.3040 C   0  0  0  0  0  0
   28.3870    1.2190   45.3770 O   0  0  0  0  0  0
   26.6450    2.4370   46.1720 C   0  0  0  0  0  0
   25.9700    2.7970   47.2260 C   0  0  0  0  0  0
   25.3620    5.2240   46.6410 C   0  0  0  0  0  0
   25.5620    5.5180   45.4200 O   0  5  0  0  0  0
   25.4980    6.0320   47.5570 O   0  0  0  0  0  0
   23.8710    3.6220   47.6500 N   0  0  0  0  0  0
   22.8030    4.4020   47.7330 C   0  0  0  0  0  0
   22.5100    5.2200   46.8780 O   0  0  0  0  0  0
   21.9340    4.1000   48.9240 C   0  0  0  0  0  0
   21.6210    2.7490   49.1150 C   0  0  0  0  0  0
   21.4720    5.0620   49.8350 C   0  0  0  0  0  0
   20.6950    4.6680   50.9160 C   0  0  0  0  0  0
   20.3720    3.3310   51.1060 C   0  0  0  0  0  0
   20.8290    2.3750   50.2100 C   0  0  0  0  0  0
   20.5060    0.9640   50.4760 C   0  0  0  0  0  0
   19.1690    0.5770   50.5740 N   0  0  0  0  0  0
   18.5450    0.1670   49.4100 C   0  0  0  0  0  0
   19.1190    0.4500   48.1690 C   0  0  0  0  0  0
   18.4670    0.0400   47.0080 C   0  0  0  0  0  0
   17.3350   -0.5030   49.5070 C   0  0  0  0  0  0
   16.6860   -0.9210   48.3600 C   0  0  0  0  0  0
   17.2660   -0.6720   47.1160 C   0  0  0  0  0  0
   16.6120   -0.9870   45.8400 C   0  0  0  0  0  0
   15.1550   -1.1180   45.6180 C   0  0  0  0  0  0
   13.9460   -1.0220   46.8700 S   0  0  0  0  0  0
   12.7710   -1.2870   45.6280 C   0  0  0  0  0  0
   11.0800   -1.3960   46.0230 S   0  0  0  0  0  0
   13.1920   -1.4390   44.3610 N   0  0  0  0  0  0
   14.5460   -1.3430   44.3860 C   0  0  0  0  0  0
   21.7460    6.3860   49.7190 F   0  0  0  0  0  0
   15.2150   -1.4260   43.2820 O   0  0  0  0  0  0
   24.9920    3.8940   47.1200 C   0  0  0  0  0  0
   26.5076    2.9730   45.2213 H   0  0  0  0  0  0
   26.1323    2.2832   48.1850 H   0  0  0  0  0  0
   21.9894    1.9951   48.4193 H   0  0  0  0  0  0
   20.3349    5.4157   51.6226 H   0  0  0  0  0  0
   19.7604    3.0329   51.9576 H   0  0  0  0  0  0
   20.9136    0.3363   49.6699 H   0  0  0  0  0  0
   20.9491    0.6611   51.4362 H   0  0  0  0  0  0
   18.6578    0.6065   51.5476 H   0  0  0  0  0  0
   20.0664    0.9856   48.1092 H   0  0  0  0  0  0
   18.8862    0.2704   46.0286 H   0  0  0  0  0  0
   16.8964   -0.6997   50.4853 H   0  0  0  0  0  0
   15.7300   -1.4403   48.4271 H   0  0  0  0  0  0
   17.3110   -1.1297   45.0027 H   0  0  0  0  0  0
   12.4619   -1.6038   43.5549 H   0  0  0  0  0  0
  1  2  1  0  0  0
  2  3  2  0  0  0
  2  4  1  0  0  0
  4  5  2  0  0  0
  4 36  1  0  0  0
  5 35  1  0  0  0
  5 37  1  0  0  0
  6  7  1  0  0  0
  6  8  2  0  0  0
  6 35  1  0  0  0
  9 10  1  0  0  0
  9 35  2  0  0  0
 10 11  2  0  0  0
 10 12  1  0  0  0
 12 13  2  0  0  0
 12 14  1  0  0  0
 13 17  1  0  0  0
 13 38  1  0  0  0
 14 15  2  0  0  0
 14 33  1  0  0  0
 15 16  1  0  0  0
 15 39  1  0  0  0
 16 17  2  0  0  0
 16 40  1  0  0  0
 17 18  1  0  0  0
 18 19  1  0  0  0
 18 41  1  0  0  0
 18 42  1  0  0  0
 19 20  1  0  0  0
 19 43  1  0  0  0
 20 21  2  0  0  0
 20 23  1  0  0  0
 21 22  1  0  0  0
 21 44  1  0  0  0
 22 25  2  0  0  0
 22 45  1  0  0  0
 23 24  2  0  0  0
 23 46  1  0  0  0
 24 25  1  0  0  0
 24 47  1  0  0  0
 25 26  1  0  0  0
 26 27  2  0  0  0
 26 48  1  0  0  0
 27 28  1  0  0  0
 27 32  1  0  0  0
 28 29  1  0  0  0
 29 30  2  0  0  0
 29 31  1  0  0  0
 31 32  1  0  0  0
 31 49  1  0  0  0
 32 34  2  0  0  0
M  CHG  2   1  -1   7  -1
M  END
> <s_m_source_file>
../2y68_ligand.sdf

> <i_m_source_file_index>
1

> <s_epik_input>
W09IXUMoPU8pL1tDSF09W0NIXS9DKEMoPU8pW09IXSk9Ti9DKD1PKWMxW2NIXWMoW2NIXVtjSF1jMUYpW0NIMl1bTkhdYzJbY0hdW2NIXWMoW2NIXVtjSF0yKS9bQ0hdPUMzXFNDKD1TKVtOSF1DMz1P

> <s_epik_cmdline>
J2VwaWtfYXBwJywgJy1pbWFlJywgJ2xpZ2FuZF9wcm8ubWFlJywgJy1vbWFlJywgJ2xpZ2FuZF9wcmVwLm1hZScsICctbXMnLCAnMScsICctcGgnLCAnNycsICctcGh0JywgJzAuNScsICctbnQn

> <r_epik_Ionization_Penalty>
  0.3952

> <r_epik_Ionization_Penalty_Charging>
  0.0001

> <r_epik_Ionization_Penalty_Neutral>
  0.3952

> <r_epik_State_Penalty>
  0.3935

> <r_epik_Charging_Adjusted_Penalty>
0.393562363045753

> <i_epik_Tot_Q>
-2

> <i_epik_Tot_abs_Q>
2

> <s_epik_Chemistry_Notes>
This compound has an imine and may undergo hydrolysis.

$$$$
