2y6c_ligand
                    3D
 Schrodinger Suite 2020-3.
 42 44  0  0  1  0            999 V2000
   -7.4670  -16.5450   -7.9980 N   0  0  3  0  0  0
   -7.6760  -17.5620   -9.0380 C   0  0  2  0  0  0
   -8.4250  -18.6510   -8.3240 C   0  0  0  0  0  0
   -8.3470  -18.9350   -7.1370 O   0  0  0  0  0  0
   -6.3060  -18.0680   -9.4120 C   0  0  0  0  0  0
   -6.1650  -19.4730   -9.0250 C   0  0  0  0  0  0
   -5.9190  -19.9620   -7.7590 C   0  0  0  0  0  0
   -6.2660  -20.5800   -9.9060 C   0  0  0  0  0  0
   -5.8690  -21.3190   -7.8610 N   0  3  0  0  0  0
   -6.0750  -21.7220   -9.1530 C   0  0  0  0  0  0
   -6.5020  -20.6740  -11.2640 C   0  0  0  0  0  0
   -6.1010  -22.9950   -9.6680 C   0  0  0  0  0  0
   -6.5320  -21.9420  -11.7910 C   0  0  0  0  0  0
   -6.3390  -23.0620  -11.0210 C   0  0  0  0  0  0
   -9.2470  -19.2920   -9.1710 O   0  5  0  0  0  0
   -8.5570  -15.2350   -8.0160 S   0  0  0  0  0  0
  -11.4020  -16.3180   -5.4110 C   0  0  0  0  0  0
  -11.5360  -16.2510   -3.9310 C   0  0  0  0  0  0
  -10.0640  -15.8720   -7.3100 C   0  0  0  0  0  0
  -10.2360  -15.8320   -5.9510 C   0  0  0  0  0  0
   -8.9010  -14.8840   -9.3830 O   0  0  0  0  0  0
   -8.0470  -14.2100   -7.1340 O   0  0  0  0  0  0
  -12.3870  -16.8310   -6.2340 C   0  0  0  0  0  0
  -11.0340  -16.3800   -8.1400 C   0  0  0  0  0  0
  -10.4960  -15.5990   -3.3520 F   0  0  0  0  0  0
  -11.5330  -17.4750   -3.3460 F   0  0  0  0  0  0
  -12.6620  -15.5950   -3.5330 F   0  0  0  0  0  0
  -12.2040  -16.8600   -7.5980 C   0  0  0  0  0  0
  -13.8760  -17.4530   -5.5980 Cl  0  0  0  0  0  0
   -6.7600  -16.7351   -7.1771 H   0  0  0  0  0  0
   -8.2096  -17.1904   -9.9252 H   0  0  0  0  0  0
   -6.1659  -17.9775  -10.4993 H   0  0  0  0  0  0
   -5.5407  -17.4723   -8.8929 H   0  0  0  0  0  0
   -5.8058  -19.2675   -6.9135 H   0  0  0  0  0  0
   -6.6560  -19.7903  -11.8833 H   0  0  0  0  0  0
   -5.9454  -23.8816   -9.0534 H   0  0  0  0  0  0
   -6.7156  -22.0633  -12.8586 H   0  0  0  0  0  0
   -6.3757  -24.0406  -11.4996 H   0  0  0  0  0  0
   -9.4585  -15.4203   -5.3075 H   0  0  0  0  0  0
  -10.8780  -16.4025   -9.2185 H   0  0  0  0  0  0
  -12.9829  -17.2616   -8.2461 H   0  0  0  0  0  0
   -5.6818  -21.9313   -6.9665 H   0  0  0  0  0  0
  1  2  1  0  0  0
  1 16  1  0  0  0
  1 30  1  0  0  0
  2  3  1  0  0  0
  2  5  1  0  0  0
  2 31  1  0  0  0
  3  4  2  0  0  0
  3 15  1  0  0  0
  5  6  1  0  0  0
  5 32  1  0  0  0
  5 33  1  0  0  0
  6  7  2  0  0  0
  6  8  1  0  0  0
  7  9  1  0  0  0
  7 34  1  0  0  0
  8 10  2  0  0  0
  8 11  1  0  0  0
  9 10  1  0  0  0
  9 42  1  0  0  0
 10 12  1  0  0  0
 11 13  2  0  0  0
 11 35  1  0  0  0
 12 14  2  0  0  0
 12 36  1  0  0  0
 13 14  1  0  0  0
 13 37  1  0  0  0
 14 38  1  0  0  0
 16 19  1  0  0  0
 16 21  2  0  0  0
 16 22  2  0  0  0
 17 18  1  0  0  0
 17 20  2  0  0  0
 17 23  1  0  0  0
 18 25  1  0  0  0
 18 26  1  0  0  0
 18 27  1  0  0  0
 19 20  1  0  0  0
 19 24  2  0  0  0
 20 39  1  0  0  0
 23 28  2  0  0  0
 23 29  1  0  0  0
 24 28  1  0  0  0
 24 40  1  0  0  0
 28 41  1  0  0  0
M  CHG  2   9   1  15  -1
M  END
> <s_m_source_file>
../2y6c_ligand.sdf

> <i_m_source_file_index>
1

> <s_epik_input>
RkMoRikoRiljMVtjSF1jKFtjSF1bY0hdYzFDbClTKD1PKSg9TylbTkhdW0NASF0oQyg9TylbT0hdKVtDSDJdYzJbY0hdW25IXWMoYzIzKVtjSF1bY0hdW2NIXVtjSF0z

> <s_epik_cmdline>
J2VwaWtfYXBwJywgJy1pbWFlJywgJ2xpZ2FuZF9wcm8ubWFlJywgJy1vbWFlJywgJ2xpZ2FuZF9wcmVwLm1hZScsICctbXMnLCAnMScsICctcGgnLCAnNycsICctcGh0JywgJzAuNScsICctbnQn

> <r_lp_tautomer_probability>
1

> <r_epik_Ionization_Penalty>
  0.0002

> <r_epik_Ionization_Penalty_Charging>
  0.0001

> <r_epik_Ionization_Penalty_Neutral>
  0.0001

> <r_epik_State_Penalty>
 -0.0000

> <r_epik_Charging_Adjusted_Penalty>
8.92213467244978e-05

> <i_epik_Tot_Q>
0

> <i_epik_Tot_abs_Q>
2

$$$$
