2y6o_ligand
                    3D
 Schrodinger Suite 2020-3.
 59 62  0  0  1  0            999 V2000
   28.5980   59.6340   29.1920 C   0  0  0  0  0  0
   27.9200   58.4180   29.4700 C   0  0  0  0  0  0
   28.6530   57.1530   29.8850 C   0  0  0  0  0  0
   18.2390   63.2470   27.4410 N   0  0  0  0  0  0
   32.2170   53.9380   31.5060 C   0  0  0  0  0  0
   31.7810   54.8640   32.4390 C   0  0  0  0  0  0
   31.0380   56.0050   32.0290 C   0  0  0  0  0  0
   30.5580   57.0020   33.0500 C   0  0  0  0  0  0
   23.8980   60.5310   28.6150 C   0  0  0  0  0  0
   22.8620   61.4570   28.3310 C   0  0  0  0  0  0
   21.6020   60.9780   28.4370 C   0  0  0  0  0  0
   22.3800   58.8440   29.0790 C   0  0  0  0  0  0
   22.1160   57.4350   29.4840 C   0  0  0  0  0  0
   20.6520   63.1770   27.7640 C   0  0  0  0  0  0
   19.2720   61.5060   28.7710 C   0  0  0  0  0  0
   17.4940   64.3100   28.1770 C   0  0  0  0  0  0
   18.2110   65.0140   29.2570 C   0  0  0  0  0  0
   25.2550   60.9790   28.5130 N   0  0  0  0  0  0
   26.3400   60.0980   28.8670 C   0  0  0  0  0  0
   27.6330   60.6390   28.8200 N   0  0  0  0  0  0
   26.3270   58.5240   29.3040 S   0  0  0  0  0  0
   30.0310   57.2950   30.2710 N   0  0  0  0  0  0
   30.7760   56.1520   30.6800 C   0  0  0  0  0  0
   31.2090   55.2350   29.7440 C   0  0  0  0  0  0
   31.9490   54.0960   30.1630 C   0  0  0  0  0  0
   30.8580   55.4570   28.1030 Cl  0  0  0  0  0  0
   28.0650   56.0890   29.8730 O   0  0  0  0  0  0
   21.3630   59.6580   28.8170 N   0  0  0  0  0  0
   23.6380   59.2600   28.9740 N   0  0  0  0  0  0
   20.5290   61.8190   28.1720 N   0  0  0  0  0  0
   19.5220   63.5800   26.8800 C   0  0  0  0  0  0
   18.1430   61.8760   27.8750 C   0  0  0  0  0  0
   17.7250   65.0940   30.3650 O   0  0  0  0  0  0
   29.6760   59.7840   29.2504 H   0  0  0  0  0  0
   32.7826   53.0681   31.8398 H   0  0  0  0  0  0
   32.0089   54.7172   33.4947 H   0  0  0  0  0  0
   30.8804   56.6842   34.0525 H   0  0  0  0  0  0
   29.4599   57.0590   33.0188 H   0  0  0  0  0  0
   30.9831   57.9912   32.8246 H   0  0  0  0  0  0
   23.0683   62.4886   28.0456 H   0  0  0  0  0  0
   21.0304   57.2614   29.5209 H   0  0  0  0  0  0
   22.5507   57.2516   30.4777 H   0  0  0  0  0  0
   22.5720   56.7517   28.7525 H   0  0  0  0  0  0
   20.6523   63.8277   28.6509 H   0  0  0  0  0  0
   21.5938   63.3100   27.2114 H   0  0  0  0  0  0
   19.2208   60.4259   28.9728 H   0  0  0  0  0  0
   19.1674   62.0607   29.7151 H   0  0  0  0  0  0
   17.1830   65.0949   27.4719 H   0  0  0  0  0  0
   16.6046   63.8717   28.6533 H   0  0  0  0  0  0
   19.1816   64.5265   29.4312 H   0  0  0  0  0  0
   18.3742   66.0622   28.9662 H   0  0  0  0  0  0
   25.4727   61.9990   28.1634 H   0  0  0  0  0  0
   30.5087   58.2856   30.2502 H   0  0  0  0  0  0
   32.2977   53.3619   29.4367 H   0  0  0  0  0  0
   19.6454   63.0650   25.9159 H   0  0  0  0  0  0
   19.5836   64.6673   26.7254 H   0  0  0  0  0  0
   17.2012   61.7304   28.4243 H   0  0  0  0  0  0
   18.1627   61.2117   26.9985 H   0  0  0  0  0  0
   18.2651   65.6204   31.1658 H   0  0  0  0  0  0
  1  2  2  0  0  0
  1 20  1  0  0  0
  1 34  1  0  0  0
  2  3  1  0  0  0
  2 21  1  0  0  0
  3 22  1  0  0  0
  3 27  2  0  0  0
  4 16  1  0  0  0
  4 31  1  0  0  0
  4 32  1  0  0  0
  5  6  2  0  0  0
  5 25  1  0  0  0
  5 35  1  0  0  0
  6  7  1  0  0  0
  6 36  1  0  0  0
  7  8  1  0  0  0
  7 23  2  0  0  0
  8 37  1  0  0  0
  8 38  1  0  0  0
  8 39  1  0  0  0
  9 10  2  0  0  0
  9 18  1  0  0  0
  9 29  1  0  0  0
 10 11  1  0  0  0
 10 40  1  0  0  0
 11 28  2  0  0  0
 11 30  1  0  0  0
 12 13  1  0  0  0
 12 28  1  0  0  0
 12 29  2  0  0  0
 13 41  1  0  0  0
 13 42  1  0  0  0
 13 43  1  0  0  0
 14 30  1  0  0  0
 14 31  1  0  0  0
 14 44  1  0  0  0
 14 45  1  0  0  0
 15 30  1  0  0  0
 15 32  1  0  0  0
 15 46  1  0  0  0
 15 47  1  0  0  0
 16 17  1  0  0  0
 16 48  1  0  0  0
 16 49  1  0  0  0
 17 33  1  0  0  0
 17 50  1  0  0  0
 17 51  1  0  0  0
 18 19  1  0  0  0
 18 52  1  0  0  0
 19 20  2  0  0  0
 19 21  1  0  0  0
 22 23  1  0  0  0
 22 53  1  0  0  0
 23 24  1  0  0  0
 24 25  2  0  0  0
 24 26  1  0  0  0
 25 54  1  0  0  0
 31 55  1  0  0  0
 31 56  1  0  0  0
 32 57  1  0  0  0
 32 58  1  0  0  0
 33 59  1  0  0  0
M  END
> <s_m_source_file>
../2y6o_ligand.sdf

> <i_m_source_file_index>
1

> <s_epik_input>
W0NIM11jMVtjSF1bY0hdW2NIXWMoQ2wpYzFbTkhdQyg9TyljMltjSF1uYyhzMilbTkhdYzNbY0hdYyhuYyhuMylbQ0gzXSlOKFtDSDJdW0NIMl00KVtDSDJdW0NIMl1bTkgrXTRbQ0gyXVtDSDJdW09IXQ==

> <s_epik_cmdline>
J2VwaWtfYXBwJywgJy1pbWFlJywgJ2xpZ2FuZF9wcm8ubWFlJywgJy1vbWFlJywgJ2xpZ2FuZF9wcmVwLm1hZScsICctbXMnLCAnMScsICctcGgnLCAnNycsICctcGh0JywgJzAuNScsICctbnQn

> <r_lp_tautomer_probability>
0.999999999985434

> <r_epik_Ionization_Penalty>
  0.5787

> <r_epik_Ionization_Penalty_Charging>
  0.0000

> <r_epik_Ionization_Penalty_Neutral>
  0.5787

> <r_epik_State_Penalty>
  0.4045

> <r_epik_Charging_Adjusted_Penalty>
0.404525148573214

> <i_epik_Tot_Q>
0

> <i_epik_Tot_abs_Q>
0

$$$$
