2y6s_ligand
                    3D
 Schrodinger Suite 2020-3.
220219  0  0  1  0            999 V2000
   43.4920  -40.3900   18.7580 N   0  3  0  0  0  0
   43.9360  -39.9710   20.0820 C   0  0  2  0  0  0
   45.3900  -39.5230   20.0380 C   0  0  0  0  0  0
   45.8050  -38.8290   19.1100 O   0  0  0  0  0  0
   43.7830  -41.1170   21.0830 C   0  0  0  0  0  0
   42.3950  -41.7240   21.1170 C   0  0  0  0  0  0
   42.3480  -42.9620   21.9960 C   0  0  0  0  0  0
   40.9650  -43.5960   21.9810 C   0  0  0  0  0  0
   40.9180  -44.8360   22.8050 N   0  3  0  0  0  0
   46.1490  -39.9280   21.0540 N   0  0  0  0  0  0
   47.5890  -39.6780   21.1380 C   0  0  2  0  0  0
   48.0310  -38.3690   20.4800 C   0  0  0  0  0  0
   48.0890  -37.3280   21.1340 O   0  0  0  0  0  0
   48.3660  -40.8640   20.5580 C   0  0  0  0  0  0
   47.9700  -42.2300   21.1280 C   0  0  0  0  0  0
   48.7840  -43.3500   20.4920 C   0  0  0  0  0  0
   48.1180  -42.2470   22.6440 C   0  0  0  0  0  0
   48.3510  -38.4330   19.1900 N   0  0  0  0  0  0
   48.7350  -37.2520   18.4360 C   0  0  0  0  0  0
   47.6660  -36.1750   18.4730 C   0  0  0  0  0  0
   46.6640  -36.2510   17.7590 O   0  0  0  0  0  0
   47.8830  -35.1680   19.3130 N   0  0  0  0  0  0
   46.9250  -34.0860   19.4910 C   0  0  2  0  0  0
   47.6680  -32.7750   19.6970 C   0  0  0  0  0  0
   48.5030  -32.6620   20.5960 O   0  0  0  0  0  0
   46.0200  -34.3670   20.6900 C   0  0  0  0  0  0
   45.1000  -33.2290   21.1330 C   0  0  0  0  0  0
   44.1510  -32.8380   20.0140 C   0  0  0  0  0  0
   44.3230  -33.6240   22.3780 C   0  0  0  0  0  0
   47.3620  -31.7840   18.8650 N   0  0  0  0  0  0
   48.0930  -30.5210   18.8930 C   0  0  2  0  0  0
   47.5530  -29.5770   19.9660 C   0  0  0  0  0  0
   46.4200  -29.1030   19.8840 O   0  0  0  0  0  0
   48.0900  -29.8430   17.5150 C   0  0  2  0  0  0
   48.5970  -30.8260   16.4550 C   0  0  0  0  0  0
   48.9460  -28.5890   17.5380 C   0  0  0  0  0  0
   48.7420  -30.2250   15.0780 C   0  0  0  0  0  0
   48.3810  -29.3030   20.9690 N   0  0  0  0  0  0
   47.9240  -28.6150   22.1690 C   0  0  2  0  0  0
   48.5310  -27.2270   22.3480 C   0  0  0  0  0  0
   48.9460  -26.8630   23.4480 O   0  0  0  0  0  0
   48.2330  -29.4500   23.4220 C   0  0  2  0  0  0
   49.6390  -29.7300   23.4740 O   0  0  0  0  0  0
   47.4630  -30.7610   23.3880 C   0  0  0  0  0  0
   48.5740  -26.4500   21.2730 N   0  0  0  0  0  0
   49.0870  -25.0880   21.3530 C   0  0  2  0  0  0
   48.1500  -24.1630   22.1190 C   0  0  0  0  0  0
   48.5780  -23.4530   23.0290 O   0  0  0  0  0  0
   49.3670  -24.5280   19.9580 C   0  0  0  0  0  0
   50.5630  -25.1860   19.2990 C   0  0  0  0  0  0
   50.4600  -25.7270   18.2000 O   0  0  0  0  0  0
   51.7100  -25.1430   19.9720 N   0  0  0  0  0  0
   46.8700  -24.1790   21.7580 N   0  0  0  0  0  0
   45.9000  -23.3060   22.4120 C   0  0  2  0  0  0
   44.7680  -24.0670   23.1010 C   0  0  0  0  0  0
   43.8050  -23.4650   23.5670 O   0  0  0  0  0  0
   45.3080  -22.2740   21.4360 C   0  0  2  0  0  0
   44.5390  -22.9490   20.4400 O   0  0  0  0  0  0
   46.4130  -21.4850   20.7590 C   0  0  0  0  0  0
   44.8850  -25.3890   23.1640 N   0  0  0  0  0  0
   43.9790  -26.1910   23.9880 C   0  0  2  0  0  0
   44.7710  -27.1970   24.8160 C   0  0  0  0  0  0
   45.9320  -27.4760   24.5180 O   0  0  0  0  0  0
   42.9290  -26.9440   23.1510 C   0  0  2  0  0  0
   43.6060  -27.9830   22.2570 C   0  0  0  0  0  0
   42.0990  -25.9750   22.3300 C   0  0  0  0  0  0
   42.6350  -28.8930   21.5390 C   0  0  0  0  0  0
   44.1440  -27.7350   25.8570 N   0  0  0  0  0  0
   44.8010  -28.7160   26.7160 C   0  0  2  0  0  0
   44.4430  -30.1270   26.2820 C   0  0  0  0  0  0
   45.2720  -31.0340   26.3330 O   0  0  0  0  0  0
   44.4200  -28.4960   28.1710 C   0  0  0  0  0  0
   43.1960  -30.3040   25.8580 N   0  0  0  0  0  0
   42.7220  -31.5880   25.3800 C   0  0  0  0  0  0
   41.3660  -31.4440   24.7240 C   0  0  0  0  0  0
   40.9190  -30.3300   24.4500 O   0  0  0  0  0  0
   40.7090  -32.5670   24.4620 N   0  0  0  0  0  0
   39.3640  -32.5220   23.9080 C   0  0  2  0  0  0
   38.4200  -31.9860   24.9700 C   0  0  0  0  0  0
   38.7070  -32.0680   26.1650 O   0  0  0  0  0  0
   38.8820  -33.9060   23.4440 C   0  0  0  0  0  0
   39.8570  -34.4910   22.4330 C   0  0  0  0  0  0
   38.7040  -34.8380   24.6380 C   0  0  0  0  0  0
   37.3000  -31.4270   24.5290 N   0  0  0  0  0  0
   36.3200  -30.8640   25.4460 C   0  0  2  0  0  0
   35.4150  -31.9540   26.0150 C   0  0  0  0  0  0
   34.9090  -31.8290   27.1310 O   0  0  0  0  0  0
   35.5030  -29.7920   24.7500 C   0  0  0  0  0  0
   35.2210  -33.0210   25.2430 N   0  0  0  0  0  0
   34.4530  -34.1690   25.6920 C   0  0  0  0  0  0
   35.1290  -34.8750   26.8530 C   0  0  0  0  0  0
   35.7800  -35.9070   26.6720 O   0  0  0  0  0  0
   34.9640  -34.3040   28.0450 N   0  0  0  0  0  0
   35.5840  -34.7980   29.2750 C   0  0  2  0  0  0
   37.0590  -34.4140   29.3650 C   0  0  0  0  0  0
   37.3940  -33.2790   29.7110 O   0  0  0  0  0  0
   35.4100  -36.3140   29.4150 C   0  0  0  0  0  0
   33.9690  -36.8250   29.3350 C   0  0  0  0  0  0
   33.9330  -38.3410   29.4530 C   0  0  0  0  0  0
   33.0990  -36.1730   30.4030 C   0  0  0  0  0  0
   37.9433  -35.2660   29.0827 O   0  0  0  0  0  0
   43.6085  -39.5553   18.0510 H   0  0  0  0  0  0
   42.4339  -40.6873   18.8032 H   0  0  0  0  0  0
   44.0986  -41.2435   18.4209 H   0  0  0  0  0  0
   43.2881  -39.1265   20.3595 H   0  0  0  0  0  0
   44.4843  -41.9245   20.8259 H   0  0  0  0  0  0
   44.0019  -40.7502   22.0967 H   0  0  0  0  0  0
   41.6823  -40.9873   21.5162 H   0  0  0  0  0  0
   42.0947  -42.0098   20.0981 H   0  0  0  0  0  0
   43.0761  -43.7002   21.6288 H   0  0  0  0  0  0
   42.5960  -42.6861   23.0315 H   0  0  0  0  0  0
   40.2307  -42.8837   22.3854 H   0  0  0  0  0  0
   40.6923  -43.8566   20.9477 H   0  0  0  0  0  0
   39.9047  -45.2625   22.7682 H   0  0  0  0  0  0
   41.1765  -44.5942   23.8465 H   0  0  0  0  0  0
   41.6381  -45.5671   22.4087 H   0  0  0  0  0  0
   45.6383  -40.4775   21.8585 H   0  0  0  0  0  0
   47.7696  -39.5742   22.2181 H   0  0  0  0  0  0
   48.2021  -40.9136   19.4714 H   0  0  0  0  0  0
   49.4392  -40.7340   20.7613 H   0  0  0  0  0  0
   46.9118  -42.4084   20.8864 H   0  0  0  0  0  0
   48.6615  -43.3174   19.3993 H   0  0  0  0  0  0
   48.4317  -44.3204   20.8717 H   0  0  0  0  0  0
   49.8465  -43.2208   20.7459 H   0  0  0  0  0  0
   47.5226  -41.4311   23.0797 H   0  0  0  0  0  0
   49.1765  -42.1112   22.9106 H   0  0  0  0  0  0
   47.7618  -43.2109   23.0364 H   0  0  0  0  0  0
   48.3189  -39.4150   18.6953 H   0  0  0  0  0  0
   49.6588  -36.8309   18.8595 H   0  0  0  0  0  0
   48.9059  -37.5276   17.3849 H   0  0  0  0  0  0
   48.8233  -35.1695   19.8839 H   0  0  0  0  0  0
   46.3267  -34.0469   18.5688 H   0  0  0  0  0  0
   45.3586  -35.2151   20.4593 H   0  0  0  0  0  0
   46.6380  -34.6118   21.5665 H   0  0  0  0  0  0
   45.7186  -32.3525   21.3763 H   0  0  0  0  0  0
   44.7312  -32.5559   19.1230 H   0  0  0  0  0  0
   43.5358  -31.9850   20.3363 H   0  0  0  0  0  0
   43.4986  -33.6900   19.7721 H   0  0  0  0  0  0
   45.0266  -33.9034   23.1760 H   0  0  0  0  0  0
   43.6714  -34.4797   22.1474 H   0  0  0  0  0  0
   43.7086  -32.7747   22.7116 H   0  0  0  0  0  0
   46.5416  -31.9288   18.1467 H   0  0  0  0  0  0
   49.1198  -30.8103   19.1614 H   0  0  0  0  0  0
   47.0647  -29.5375   17.2591 H   0  0  0  0  0  0
   49.5871  -31.2043   16.7494 H   0  0  0  0  0  0
   47.8937  -31.6674   16.3690 H   0  0  0  0  0  0
   48.5646  -27.8987   18.3048 H   0  0  0  0  0  0
   48.9074  -28.1006   16.5531 H   0  0  0  0  0  0
   49.9861  -28.8593   17.7727 H   0  0  0  0  0  0
   49.1086  -30.9920   14.3799 H   0  0  0  0  0  0
   49.4582  -29.3910   15.1155 H   0  0  0  0  0  0
   47.7648  -29.8541   14.7351 H   0  0  0  0  0  0
   49.4337  -29.6087   20.8775 H   0  0  0  0  0  0
   46.8444  -28.5089   21.9866 H   0  0  0  0  0  0
   47.9907  -28.8898   24.3371 H   0  0  0  0  0  0
   50.3637  -28.9031   23.5045 H   0  0  0  0  0  0
   46.3839  -30.5515   23.3481 H   0  0  0  0  0  0
   47.6902  -31.3433   24.2932 H   0  0  0  0  0  0
   47.7580  -31.3365   22.4982 H   0  0  0  0  0  0
   48.2155  -26.8471   20.3119 H   0  0  0  0  0  0
   50.0240  -25.1865   21.9208 H   0  0  0  0  0  0
   48.4910  -24.6939   19.3137 H   0  0  0  0  0  0
   49.5703  -23.4493   20.0299 H   0  0  0  0  0  0
   51.7538  -24.6473   20.9530 H   0  0  0  0  0  0
   52.6144  -25.6032   19.5474 H   0  0  0  0  0  0
   46.5452  -24.8597   20.9573 H   0  0  0  0  0  0
   46.5154  -22.8147   23.1800 H   0  0  0  0  0  0
   44.6182  -21.5916   21.9541 H   0  0  0  0  0  0
   43.6861  -23.5775   20.7359 H   0  0  0  0  0  0
   47.0098  -20.9621   21.5208 H   0  0  0  0  0  0
   45.9700  -20.7493   20.0716 H   0  0  0  0  0  0
   47.0603  -22.1716   20.1937 H   0  0  0  0  0  0
   45.6798  -25.8798   22.5831 H   0  0  0  0  0  0
   43.4787  -25.4521   24.6312 H   0  0  0  0  0  0
   42.2385  -27.4698   23.8269 H   0  0  0  0  0  0
   44.2043  -27.4715   21.4887 H   0  0  0  0  0  0
   44.2617  -28.6209   22.8679 H   0  0  0  0  0  0
   41.6250  -25.2409   22.9981 H   0  0  0  0  0  0
   41.3215  -26.5295   21.7840 H   0  0  0  0  0  0
   42.7487  -25.4522   21.6127 H   0  0  0  0  0  0
   43.1939  -29.6093   20.9188 H   0  0  0  0  0  0
   41.9737  -28.2911   20.8983 H   0  0  0  0  0  0
   42.0311  -29.4405   22.2776 H   0  0  0  0  0  0
   43.1088  -27.4269   26.0657 H   0  0  0  0  0  0
   45.8817  -28.5534   26.5906 H   0  0  0  0  0  0
   44.6857  -27.4709   28.4686 H   0  0  0  0  0  0
   44.9618  -29.2138   28.8044 H   0  0  0  0  0  0
   43.3368  -28.6441   28.2928 H   0  0  0  0  0  0
   42.5164  -29.4393   25.8772 H   0  0  0  0  0  0
   43.4333  -31.9905   24.6437 H   0  0  0  0  0  0
   42.6364  -32.2855   26.2263 H   0  0  0  0  0  0
   41.1875  -33.5362   24.6663 H   0  0  0  0  0  0
   39.4250  -31.8491   23.0400 H   0  0  0  0  0  0
   37.9046  -33.8044   22.9496 H   0  0  0  0  0  0
   39.9652  -33.7987   21.5850 H   0  0  0  0  0  0
   39.4746  -35.4569   22.0713 H   0  0  0  0  0  0
   40.8360  -34.6403   22.9118 H   0  0  0  0  0  0
   37.9956  -34.3901   25.3504 H   0  0  0  0  0  0
   39.6747  -34.9897   25.1326 H   0  0  0  0  0  0
   38.3133  -35.8064   24.2922 H   0  0  0  0  0  0
   37.1203  -31.3948   23.4443 H   0  0  0  0  0  0
   36.9003  -30.4096   26.2625 H   0  0  0  0  0  0
   36.1764  -29.0199   24.3496 H   0  0  0  0  0  0
   34.8084  -29.3350   25.4702 H   0  0  0  0  0  0
   34.9318  -30.2438   23.9256 H   0  0  0  0  0  0
   35.6639  -33.0153   24.2361 H   0  0  0  0  0  0
   33.4566  -33.8380   26.0200 H   0  0  0  0  0  0
   34.3471  -34.8858   24.8644 H   0  0  0  0  0  0
   34.3198  -33.4128   28.0733 H   0  0  0  0  0  0
   35.0363  -34.2849   30.0792 H   0  0  0  0  0  0
   35.9633  -36.8223   28.6115 H   0  0  0  0  0  0
   35.7995  -36.6392   30.3910 H   0  0  0  0  0  0
   33.5543  -36.5514   28.3536 H   0  0  0  0  0  0
   34.5679  -38.7847   28.6720 H   0  0  0  0  0  0
   32.8986  -38.6939   29.3290 H   0  0  0  0  0  0
   34.3065  -38.6406   30.4433 H   0  0  0  0  0  0
   33.1434  -35.0793   30.2946 H   0  0  0  0  0  0
   33.4668  -36.4579   31.3998 H   0  0  0  0  0  0
   32.0589  -36.5112   30.2854 H   0  0  0  0  0  0
   39.0077  -34.9955   29.1456 H   0  0  0  0  0  0
  1  2  1  0  0  0
  1102  1  0  0  0
  1103  1  0  0  0
  1104  1  0  0  0
  2  3  1  0  0  0
  2  5  1  0  0  0
  2105  1  0  0  0
  3  4  2  0  0  0
  3 10  1  0  0  0
  5  6  1  0  0  0
  5106  1  0  0  0
  5107  1  0  0  0
  6  7  1  0  0  0
  6108  1  0  0  0
  6109  1  0  0  0
  7  8  1  0  0  0
  7110  1  0  0  0
  7111  1  0  0  0
  8  9  1  0  0  0
  8112  1  0  0  0
  8113  1  0  0  0
  9114  1  0  0  0
  9115  1  0  0  0
  9116  1  0  0  0
 10 11  1  0  0  0
 10117  1  0  0  0
 11 12  1  0  0  0
 11 14  1  0  0  0
 11118  1  0  0  0
 12 13  2  0  0  0
 12 18  1  0  0  0
 14 15  1  0  0  0
 14119  1  0  0  0
 14120  1  0  0  0
 15 16  1  0  0  0
 15 17  1  0  0  0
 15121  1  0  0  0
 16122  1  0  0  0
 16123  1  0  0  0
 16124  1  0  0  0
 17125  1  0  0  0
 17126  1  0  0  0
 17127  1  0  0  0
 18 19  1  0  0  0
 18128  1  0  0  0
 19 20  1  0  0  0
 19129  1  0  0  0
 19130  1  0  0  0
 20 21  2  0  0  0
 20 22  1  0  0  0
 22 23  1  0  0  0
 22131  1  0  0  0
 23 24  1  0  0  0
 23 26  1  0  0  0
 23132  1  0  0  0
 24 25  2  0  0  0
 24 30  1  0  0  0
 26 27  1  0  0  0
 26133  1  0  0  0
 26134  1  0  0  0
 27 28  1  0  0  0
 27 29  1  0  0  0
 27135  1  0  0  0
 28136  1  0  0  0
 28137  1  0  0  0
 28138  1  0  0  0
 29139  1  0  0  0
 29140  1  0  0  0
 29141  1  0  0  0
 30 31  1  0  0  0
 30142  1  0  0  0
 31 32  1  0  0  0
 31 34  1  0  0  0
 31143  1  0  0  0
 32 33  2  0  0  0
 32 38  1  0  0  0
 34 35  1  0  0  0
 34 36  1  0  0  0
 34144  1  0  0  0
 35 37  1  0  0  0
 35145  1  0  0  0
 35146  1  0  0  0
 36147  1  0  0  0
 36148  1  0  0  0
 36149  1  0  0  0
 37150  1  0  0  0
 37151  1  0  0  0
 37152  1  0  0  0
 38 39  1  0  0  0
 38153  1  0  0  0
 39 40  1  0  0  0
 39 42  1  0  0  0
 39154  1  0  0  0
 40 41  2  0  0  0
 40 45  1  0  0  0
 42 43  1  0  0  0
 42 44  1  0  0  0
 42155  1  0  0  0
 43156  1  0  0  0
 44157  1  0  0  0
 44158  1  0  0  0
 44159  1  0  0  0
 45 46  1  0  0  0
 45160  1  0  0  0
 46 47  1  0  0  0
 46 49  1  0  0  0
 46161  1  0  0  0
 47 48  2  0  0  0
 47 53  1  0  0  0
 49 50  1  0  0  0
 49162  1  0  0  0
 49163  1  0  0  0
 50 51  2  0  0  0
 50 52  1  0  0  0
 52164  1  0  0  0
 52165  1  0  0  0
 53 54  1  0  0  0
 53166  1  0  0  0
 54 55  1  0  0  0
 54 57  1  0  0  0
 54167  1  0  0  0
 55 56  2  0  0  0
 55 60  1  0  0  0
 57 58  1  0  0  0
 57 59  1  0  0  0
 57168  1  0  0  0
 58169  1  0  0  0
 59170  1  0  0  0
 59171  1  0  0  0
 59172  1  0  0  0
 60 61  1  0  0  0
 60173  1  0  0  0
 61 62  1  0  0  0
 61 64  1  0  0  0
 61174  1  0  0  0
 62 63  2  0  0  0
 62 68  1  0  0  0
 64 65  1  0  0  0
 64 66  1  0  0  0
 64175  1  0  0  0
 65 67  1  0  0  0
 65176  1  0  0  0
 65177  1  0  0  0
 66178  1  0  0  0
 66179  1  0  0  0
 66180  1  0  0  0
 67181  1  0  0  0
 67182  1  0  0  0
 67183  1  0  0  0
 68 69  1  0  0  0
 68184  1  0  0  0
 69 70  1  0  0  0
 69 72  1  0  0  0
 69185  1  0  0  0
 70 71  2  0  0  0
 70 73  1  0  0  0
 72186  1  0  0  0
 72187  1  0  0  0
 72188  1  0  0  0
 73 74  1  0  0  0
 73189  1  0  0  0
 74 75  1  0  0  0
 74190  1  0  0  0
 74191  1  0  0  0
 75 76  2  0  0  0
 75 77  1  0  0  0
 77 78  1  0  0  0
 77192  1  0  0  0
 78 79  1  0  0  0
 78 81  1  0  0  0
 78193  1  0  0  0
 79 80  2  0  0  0
 79 84  1  0  0  0
 81 82  1  0  0  0
 81 83  1  0  0  0
 81194  1  0  0  0
 82195  1  0  0  0
 82196  1  0  0  0
 82197  1  0  0  0
 83198  1  0  0  0
 83199  1  0  0  0
 83200  1  0  0  0
 84 85  1  0  0  0
 84201  1  0  0  0
 85 86  1  0  0  0
 85 88  1  0  0  0
 85202  1  0  0  0
 86 87  2  0  0  0
 86 89  1  0  0  0
 88203  1  0  0  0
 88204  1  0  0  0
 88205  1  0  0  0
 89 90  1  0  0  0
 89206  1  0  0  0
 90 91  1  0  0  0
 90207  1  0  0  0
 90208  1  0  0  0
 91 92  2  0  0  0
 91 93  1  0  0  0
 93 94  1  0  0  0
 93209  1  0  0  0
 94 95  1  0  0  0
 94 97  1  0  0  0
 94210  1  0  0  0
 95 96  2  0  0  0
 95101  1  0  0  0
 97 98  1  0  0  0
 97211  1  0  0  0
 97212  1  0  0  0
 98 99  1  0  0  0
 98100  1  0  0  0
 98213  1  0  0  0
 99214  1  0  0  0
 99215  1  0  0  0
 99216  1  0  0  0
100217  1  0  0  0
100218  1  0  0  0
100219  1  0  0  0
101220  1  0  0  0
M  CHG  2   1   1   9   1
M  END
> <s_m_source_file>
../2y6s_ligand.sdf

> <i_m_source_file_index>
1

> <s_epik_input>
W05IMytdW0NIMl1bQ0gyXVtDSDJdW0NIMl1bQ0BIXShbTkgzK10pQyg9TylbTkhdW0NAQEhdKFtDSDJdW0NIXShbQ0gzXSlbQ0gzXSlDKD1PKVtOSF1bQ0gyXUMoPU8pW05IXVtDQEBIXShbQ0gyXVtDSF0oW0NIM10pW0NIM10pQyg9TylbTkhdW0NAQEhdKFtDQEBIXShbQ0gzXSlbQ0gyXVtDSDNdKUMoPU8pW05IXVtDQEBIXShbQ0BIXShbT0hdKVtDSDNdKUMoPU8pW05IXVtDQEBIXShbQ0gyXUMoPU8pW05IMl0pQyg9TylbTkhdW0NAQEhdKFtDQEhdKFtPSF0pW0NIM10pQyg9TylbTkhdW0NAQEhdKFtDQEBIXShbQ0gzXSlbQ0gyXVtDSDNdKUMoPU8pW05IXVtDQEBIXShbQ0gzXSlDKD1PKVtOSF1bQ0gyXUMoPU8pW05IXVtDQEBIXShbQ0hdKFtDSDNdKVtDSDNdKUMoPU8pW05IXVtDQEBIXShbQ0gzXSlDKD1PKVtOSF1bQ0gyXUMoPU8pW05IXVtDQEhdKEMoPU8pW09IXSlbQ0gyXVtDSF0oW0NIM10pW0NIM10=

> <s_epik_cmdline>
J2VwaWtfYXBwJywgJy1pbWFlJywgJ2xpZ2FuZF9wcm8ubWFlJywgJy1vbWFlJywgJ2xpZ2FuZF9wcmVwLm1hZScsICctbXMnLCAnMScsICctcGgnLCAnNycsICctcGh0JywgJzAuNScsICctbnQn

> <s_epik_pKa_notes>
Molecule size exceeds maximum supported for generating protonation states

$$$$
