2y71_ligand
                    3D
 Schrodinger Suite 2020-3.
 41 43  0  0  1  0            999 V2000
    5.6510  -29.0870  -49.4140 C   0  0  0  0  0  0
    5.9390  -29.5490  -50.6510 C   0  0  0  0  0  0
    5.1090  -29.9770  -51.6870 C   0  0  0  0  0  0
    5.6510  -30.4120  -52.9030 C   0  0  0  0  0  0
    7.0340  -30.4370  -53.0910 C   0  0  0  0  0  0
    7.8550  -30.0220  -52.0780 C   0  0  0  0  0  0
    7.3120  -29.5940  -50.8940 C   0  0  0  0  0  0
    8.0990  -29.0760  -49.5360 S   0  0  0  0  0  0
    6.7090  -28.7630  -48.6650 C   0  0  0  0  0  0
    6.7420  -28.2850  -47.3390 C   0  0  0  0  0  0
    8.0960  -27.9670  -46.6890 O   0  0  0  0  0  0
    8.2250  -28.3980  -45.4140 C   0  0  0  0  0  0
    7.1110  -28.5960  -44.6010 C   0  0  0  0  0  0
    7.2310  -29.0660  -43.2800 C   0  0  2  0  0  0
    6.0570  -29.9960  -42.9330 C   0  0  0  0  0  0
    6.2270  -31.2030  -42.6100 O   0  5  0  0  0  0
    4.9450  -29.4430  -42.9650 O   0  0  0  0  0  0
    7.1080  -27.8790  -42.4100 O   0  0  0  0  0  0
    8.5800  -29.7490  -42.9660 C   0  0  0  0  0  0
    9.7320  -28.8760  -43.4530 C   0  0  1  0  0  0
   10.9570  -29.5260  -43.0940 O   0  0  0  0  0  0
    9.6340  -28.8020  -44.9640 C   0  0  2  0  0  0
   10.5890  -27.8680  -45.5530 O   0  0  0  0  0  0
    4.7770  -30.8840  -54.0840 C   0  0  0  0  0  0
    4.6276  -28.9858  -49.0528 H   0  0  0  0  0  0
    4.0278  -29.9729  -51.5489 H   0  0  0  0  0  0
    7.4554  -30.7834  -54.0347 H   0  0  0  0  0  0
    8.9367  -30.0316  -52.2119 H   0  0  0  0  0  0
    6.1803  -27.3414  -47.2753 H   0  0  0  0  0  0
    6.2858  -29.0291  -46.6695 H   0  0  0  0  0  0
    6.1033  -28.3837  -44.9876 H   0  0  0  0  0  0
    6.2131  -27.2423  -42.4716 H   0  0  0  0  0  0
    8.6720  -29.8970  -41.8799 H   0  0  0  0  0  0
    8.6245  -30.7237  -43.4740 H   0  0  0  0  0  0
    9.7492  -27.8764  -42.9942 H   0  0  0  0  0  0
   11.2104  -29.6751  -42.0340 H   0  0  0  0  0  0
    9.9146  -29.7984  -45.3361 H   0  0  0  0  0  0
   10.6171  -27.7246  -46.6432 H   0  0  0  0  0  0
    3.7152  -30.8143  -53.8052 H   0  0  0  0  0  0
    5.0241  -31.9275  -54.3289 H   0  0  0  0  0  0
    4.9687  -30.2466  -54.9597 H   0  0  0  0  0  0
  1  2  1  0  0  0
  1  9  2  0  0  0
  1 25  1  0  0  0
  2  3  2  0  0  0
  2  7  1  0  0  0
  3  4  1  0  0  0
  3 26  1  0  0  0
  4  5  2  0  0  0
  4 24  1  0  0  0
  5  6  1  0  0  0
  5 27  1  0  0  0
  6  7  2  0  0  0
  6 28  1  0  0  0
  7  8  1  0  0  0
  8  9  1  0  0  0
  9 10  1  0  0  0
 10 11  1  0  0  0
 10 29  1  0  0  0
 10 30  1  0  0  0
 11 12  1  0  0  0
 12 13  2  0  0  0
 12 22  1  0  0  0
 13 14  1  0  0  0
 13 31  1  0  0  0
 14 15  1  0  0  0
 14 18  1  0  0  0
 14 19  1  0  0  0
 15 16  1  0  0  0
 15 17  2  0  0  0
 18 32  1  0  0  0
 19 20  1  0  0  0
 19 33  1  0  0  0
 19 34  1  0  0  0
 20 21  1  0  0  0
 20 22  1  0  0  0
 20 35  1  0  0  0
 21 36  1  0  0  0
 22 23  1  0  0  0
 22 37  1  0  0  0
 23 38  1  0  0  0
 24 39  1  0  0  0
 24 40  1  0  0  0
 24 41  1  0  0  0
M  CHG  1  16  -1
M  END
> <s_m_source_file>
../2y71_ligand.sdf

> <i_m_source_file_index>
1

> <s_epik_input>
W2NIXTFjKFtDSDNdKVtjSF1bY0hdYyhjMTIpc2MoW2NIXTIpW0NIMl1PQyhbQ0BASF0oW09IXSlbQ0BASF0oW0NIMl0zKVtPSF0pPVtDSF1bQ0BAXTMoW09IXSlDKD1PKVtPSF0=

> <s_epik_cmdline>
J2VwaWtfYXBwJywgJy1pbWFlJywgJ2xpZ2FuZF9wcm8ubWFlJywgJy1vbWFlJywgJ2xpZ2FuZF9wcmVwLm1hZScsICctbXMnLCAnMScsICctcGgnLCAnNycsICctcGh0JywgJzAuNScsICctbnQn

> <r_lp_tautomer_probability>
1

> <r_epik_Ionization_Penalty>
  0.0000

> <r_epik_Ionization_Penalty_Charging>
  0.0000

> <r_epik_Ionization_Penalty_Neutral>
  0.0000

> <r_epik_State_Penalty>
 -0.0000

> <r_epik_Charging_Adjusted_Penalty>
4.10533768232396e-05

> <i_epik_Tot_Q>
-1

> <i_epik_Tot_abs_Q>
1

$$$$
