2y76_ligand
                    3D
 Schrodinger Suite 2020-3.
 54 58  0  0  1  0            999 V2000
    5.1690   15.2480   28.8970 C   0  0  0  0  0  0
    4.6510   14.3430   29.8240 C   0  0  0  0  0  0
    4.4460   13.0150   29.6800 C   0  0  0  0  0  0
    3.9260   12.3470   30.7200 C   0  0  0  0  0  0
    3.6590   13.4770   31.9440 S   0  0  0  0  0  0
    4.2500   14.8220   31.0880 C   0  0  0  0  0  0
    4.3840   16.1690   31.4200 C   0  0  0  0  0  0
    4.9060   17.0580   30.4770 C   0  0  0  0  0  0
    5.3140   16.5970   29.2200 C   0  0  0  0  0  0
    5.8730   17.5650   28.1720 C   0  0  0  0  0  0
    7.1700   18.2480   28.5730 C   0  0  0  0  0  0
    7.1020   19.7270   29.0020 C   0  0  2  0  0  0
    5.8770   20.0850   29.8470 C   0  0  0  0  0  0
    6.0140   20.1240   31.0870 O   0  0  0  0  0  0
    4.8470   20.3900   29.2110 O   0  5  0  0  0  0
    7.0080   20.4830   27.7810 O   0  0  0  0  0  0
    8.3610   20.1340   29.7780 C   0  0  0  0  0  0
    9.5740   19.8260   28.9090 C   0  0  1  0  0  0
   10.7390   20.3920   29.5220 O   0  0  0  0  0  0
    9.7390   18.3030   28.7530 C   0  0  2  0  0  0
   10.6040   17.9590   27.6630 O   0  0  0  0  0  0
    8.4140   17.6370   28.4280 C   0  0  0  0  0  0
    8.5200   16.3540   28.0440 O   0  0  0  0  0  0
    8.6700   15.6330   29.3450 C   0  0  0  0  0  0
    8.2970   14.2920   29.5510 C   0  0  0  0  0  0
    8.4450   13.6590   30.7850 C   0  0  0  0  0  0
    8.0720   12.3250   30.9730 C   0  0  0  0  0  0
    8.1470   11.5600   32.0870 C   0  0  0  0  0  0
    7.7090   10.2990   31.9840 C   0  0  0  0  0  0
    7.1870   10.1180   30.3840 S   0  0  0  0  0  0
    7.5420   11.6420   29.8820 C   0  0  0  0  0  0
    7.3840   12.2610   28.6690 C   0  0  0  0  0  0
    7.7620   13.5800   28.5030 C   0  0  0  0  0  0
    5.4640   14.8964   27.9083 H   0  0  0  0  0  0
    4.6949   12.5041   28.7499 H   0  0  0  0  0  0
    3.7160   11.2784   30.7658 H   0  0  0  0  0  0
    4.0845   16.5254   32.4056 H   0  0  0  0  0  0
    4.9960   18.1164   30.7216 H   0  0  0  0  0  0
    6.0746   17.0186   27.2388 H   0  0  0  0  0  0
    5.1387   18.3611   27.9795 H   0  0  0  0  0  0
    6.1623   20.3198   27.0968 H   0  0  0  0  0  0
    8.3205   21.2097   30.0042 H   0  0  0  0  0  0
    8.4133   19.5636   30.7171 H   0  0  0  0  0  0
    9.4871   20.3081   27.9241 H   0  0  0  0  0  0
   10.7909   21.4747   29.7095 H   0  0  0  0  0  0
   10.1985   17.9259   29.6786 H   0  0  0  0  0  0
   11.6427   18.3208   27.6498 H   0  0  0  0  0  0
    9.7309   15.6175   29.6354 H   0  0  0  0  0  0
    8.0851   16.1498   30.1202 H   0  0  0  0  0  0
    8.8615   14.2180   31.6229 H   0  0  0  0  0  0
    8.5449   11.9517   33.0231 H   0  0  0  0  0  0
    7.6920    9.5436   32.7696 H   0  0  0  0  0  0
    6.9579   11.7098   27.8307 H   0  0  0  0  0  0
    7.6350   14.0603   27.5328 H   0  0  0  0  0  0
  1  2  2  0  0  0
  1  9  1  0  0  0
  1 34  1  0  0  0
  2  3  1  0  0  0
  2  6  1  0  0  0
  3  4  2  0  0  0
  3 35  1  0  0  0
  4  5  1  0  0  0
  4 36  1  0  0  0
  5  6  1  0  0  0
  6  7  2  0  0  0
  7  8  1  0  0  0
  7 37  1  0  0  0
  8  9  2  0  0  0
  8 38  1  0  0  0
  9 10  1  0  0  0
 10 11  1  0  0  0
 10 39  1  0  0  0
 10 40  1  0  0  0
 11 12  1  0  0  0
 11 22  2  0  0  0
 12 13  1  0  0  0
 12 16  1  0  0  0
 12 17  1  0  0  0
 13 14  2  0  0  0
 13 15  1  0  0  0
 16 41  1  0  0  0
 17 18  1  0  0  0
 17 42  1  0  0  0
 17 43  1  0  0  0
 18 19  1  0  0  0
 18 20  1  0  0  0
 18 44  1  0  0  0
 19 45  1  0  0  0
 20 21  1  0  0  0
 20 22  1  0  0  0
 20 46  1  0  0  0
 21 47  1  0  0  0
 22 23  1  0  0  0
 23 24  1  0  0  0
 24 25  1  0  0  0
 24 48  1  0  0  0
 24 49  1  0  0  0
 25 26  1  0  0  0
 25 33  2  0  0  0
 26 27  2  0  0  0
 26 50  1  0  0  0
 27 28  1  0  0  0
 27 31  1  0  0  0
 28 29  2  0  0  0
 28 51  1  0  0  0
 29 30  1  0  0  0
 29 52  1  0  0  0
 30 31  1  0  0  0
 31 32  2  0  0  0
 32 33  1  0  0  0
 32 53  1  0  0  0
 33 54  1  0  0  0
M  CHG  1  15  -1
M  END
> <s_m_source_file>
../2y76_ligand.sdf

> <i_m_source_file_index>
1

> <s_epik_input>
W2NIXTFbY0hdc2MoYzEyKVtjSF1bY0hdYyhbY0hdMilbQ0gyXUMoW0NAQF0zKFtPSF0pQyg9TylbT0hdKT1DKFtDQEBIXShbT0hdKVtDQEBIXShbQ0gyXTMpW09IXSlPW0NIMl1jKFtjSF00KVtjSF1bY0hdYyhjNDUpc1tjSF1bY0hdNQ==

> <s_epik_cmdline>
J2VwaWtfYXBwJywgJy1pbWFlJywgJ2xpZ2FuZF9wcm8ubWFlJywgJy1vbWFlJywgJ2xpZ2FuZF9wcmVwLm1hZScsICctbXMnLCAnMScsICctcGgnLCAnNycsICctcGh0JywgJzAuNScsICctbnQn

> <r_lp_tautomer_probability>
1

> <r_epik_Ionization_Penalty>
  0.0000

> <r_epik_Ionization_Penalty_Charging>
  0.0000

> <r_epik_Ionization_Penalty_Neutral>
  0.0000

> <r_epik_State_Penalty>
 -0.0000

> <r_epik_Charging_Adjusted_Penalty>
3.6523149092521e-05

> <i_epik_Tot_Q>
-1

> <i_epik_Tot_abs_Q>
1

$$$$
