2y77_ligand
                    3D
 Schrodinger Suite 2020-3.
 48 51  0  0  1  0            999 V2000
    2.9040   13.9280   23.1960 C   0  0  0  0  0  0
    2.6640   13.3050   21.8120 C   0  0  1  0  0  0
    3.7080   13.7540   20.9280 O   0  0  0  0  0  0
    2.6300   11.7740   21.8920 C   0  0  2  0  0  0
    2.0630   11.2490   20.6830 O   0  0  0  0  0  0
    1.7360   11.3370   23.0510 C   0  0  0  0  0  0
    2.3530   11.7910   24.3830 C   0  0  1  0  0  0
    1.5660   11.3000   25.5910 C   0  0  0  0  0  0
    2.1970   11.2340   26.6680 O   0  5  0  0  0  0
    0.3710   11.0030   25.4260 O   0  0  0  0  0  0
    3.8540   10.9960   24.5060 O   0  0  0  0  0  0
    2.6220   13.3040   24.4060 C   0  0  0  0  0  0
    0.2950   17.0970   24.4200 C   0  0  0  0  0  0
    0.0350   17.7550   25.5740 C   0  0  0  0  0  0
   -1.2030   18.0950   26.1210 C   0  0  0  0  0  0
   -1.2960   18.7790   27.3260 C   0  0  0  0  0  0
   -0.1410   19.1400   28.0050 C   0  0  0  0  0  0
    1.1060   18.8130   27.4810 C   0  0  0  0  0  0
    1.1960   18.1270   26.2750 C   0  0  0  0  0  0
    2.5210   17.5950   25.3710 S   0  0  0  0  0  0
    1.5930   16.9200   24.1430 C   0  0  0  0  0  0
    2.1300   16.2340   23.0030 C   0  0  0  0  0  0
    3.3350   15.2340   23.2420 O   0  0  0  0  0  0
    2.8810   14.0110   25.7480 C   0  0  0  0  0  0
    1.5470   14.4020   26.4020 C   0  0  0  0  0  0
    1.3490   14.9570   27.6000 C   0  0  0  0  0  0
    0.0540   15.2010   27.9020 C   0  0  0  0  0  0
   -0.8500   14.8530   26.9720 C   0  0  0  0  0  0
    0.0330   14.2130   25.6840 S   0  0  0  0  0  0
    1.7173   13.6526   21.3727 H   0  0  0  0  0  0
    3.8634   14.8303   20.7624 H   0  0  0  0  0  0
    3.6481   11.3680   21.9848 H   0  0  0  0  0  0
    2.5506   11.4447   19.7166 H   0  0  0  0  0  0
    0.7405   11.7909   22.9375 H   0  0  0  0  0  0
    1.6417   10.2411   23.0483 H   0  0  0  0  0  0
    3.8956    9.8968   24.5088 H   0  0  0  0  0  0
   -0.4963   16.7367   23.7627 H   0  0  0  0  0  0
   -2.1150   17.8182   25.5920 H   0  0  0  0  0  0
   -2.2734   19.0315   27.7372 H   0  0  0  0  0  0
   -0.2105   19.6800   28.9493 H   0  0  0  0  0  0
    2.0127   19.0948   28.0163 H   0  0  0  0  0  0
    1.3410   15.6269   22.5352 H   0  0  0  0  0  0
    2.5063   16.9691   22.2764 H   0  0  0  0  0  0
    3.4284   13.3334   26.4197 H   0  0  0  0  0  0
    3.4789   14.9180   25.5752 H   0  0  0  0  0  0
    2.1666   15.1946   28.2806 H   0  0  0  0  0  0
   -0.2401   15.6552   28.8482 H   0  0  0  0  0  0
   -1.9327   14.9617   27.0359 H   0  0  0  0  0  0
  1  2  1  0  0  0
  1 12  2  0  0  0
  1 23  1  0  0  0
  2  3  1  0  0  0
  2  4  1  0  0  0
  2 30  1  0  0  0
  3 31  1  0  0  0
  4  5  1  0  0  0
  4  6  1  0  0  0
  4 32  1  0  0  0
  5 33  1  0  0  0
  6  7  1  0  0  0
  6 34  1  0  0  0
  6 35  1  0  0  0
  7  8  1  0  0  0
  7 11  1  0  0  0
  7 12  1  0  0  0
  8  9  1  0  0  0
  8 10  2  0  0  0
 11 36  1  0  0  0
 12 24  1  0  0  0
 13 14  1  0  0  0
 13 21  2  0  0  0
 13 37  1  0  0  0
 14 15  2  0  0  0
 14 19  1  0  0  0
 15 16  1  0  0  0
 15 38  1  0  0  0
 16 17  2  0  0  0
 16 39  1  0  0  0
 17 18  1  0  0  0
 17 40  1  0  0  0
 18 19  2  0  0  0
 18 41  1  0  0  0
 19 20  1  0  0  0
 20 21  1  0  0  0
 21 22  1  0  0  0
 22 23  1  0  0  0
 22 42  1  0  0  0
 22 43  1  0  0  0
 24 25  1  0  0  0
 24 44  1  0  0  0
 24 45  1  0  0  0
 25 26  2  0  0  0
 25 29  1  0  0  0
 26 27  1  0  0  0
 26 46  1  0  0  0
 27 28  2  0  0  0
 27 47  1  0  0  0
 28 29  1  0  0  0
 28 48  1  0  0  0
M  CHG  1   9  -1
M  END
> <s_m_source_file>
../2y77_ligand.sdf

> <i_m_source_file_index>
1

> <s_epik_input>
czFbY0hdW2NIXVtjSF1jMVtDSDJdQzI9QyhbQ0BASF0oW09IXSlbQ0BIXShbT0hdKVtDSDJdW0NAXTIoW09IXSlDKD1PKVtPSF0pT1tDSDJdYyhbY0hdMylzYyhjMzQpW2NIXVtjSF1bY0hdW2NIXTQ=

> <s_epik_cmdline>
J2VwaWtfYXBwJywgJy1pbWFlJywgJ2xpZ2FuZF9wcm8ubWFlJywgJy1vbWFlJywgJ2xpZ2FuZF9wcmVwLm1hZScsICctbXMnLCAnMScsICctcGgnLCAnNycsICctcGh0JywgJzAuNScsICctbnQn

> <r_lp_tautomer_probability>
1

> <r_epik_Ionization_Penalty>
  0.0000

> <r_epik_Ionization_Penalty_Charging>
  0.0000

> <r_epik_Ionization_Penalty_Neutral>
  0.0000

> <r_epik_State_Penalty>
 -0.0000

> <r_epik_Charging_Adjusted_Penalty>
3.00861849834119e-05

> <i_epik_Tot_Q>
-1

> <i_epik_Tot_abs_Q>
1

$$$$
