2y7i_ligand
                    3D
 Schrodinger Suite 2020-3.
 27 26  0  0  1  0            999 V2000
    1.5220    2.5190   36.5710 N   0  3  0  0  0  0
    1.3060    1.5670   37.7050 C   0  0  2  0  0  0
    2.6500    1.0640   38.2180 C   0  0  0  0  0  0
    2.6940    0.2440   39.1320 O   0  0  0  0  0  0
    0.4220    0.3780   37.2730 C   0  0  0  0  0  0
    0.9400   -0.3730   36.0330 C   0  0  0  0  0  0
    0.1250   -1.6270   35.7240 C   0  0  0  0  0  0
    0.4370   -2.1070   34.3750 N   0  0  0  0  0  0
   -0.0810   -3.1960   33.8100 C   0  0  0  0  0  0
   -0.9540   -3.9660   34.4630 N   0  0  0  0  0  0
    0.2790   -3.5170   32.5850 N   0  3  0  0  0  0
    3.7180    1.4530   37.7080 O   0  5  0  0  0  0
    2.1540    3.3538   36.9084 H   0  0  0  0  0  0
    0.5516    2.9085   36.2294 H   0  0  0  0  0  0
    2.0192    1.9946   35.7417 H   0  0  0  0  0  0
    0.7945    2.1269   38.5018 H   0  0  0  0  0  0
    0.3641   -0.3528   38.0931 H   0  0  0  0  0  0
   -0.5884    0.7405   37.0330 H   0  0  0  0  0  0
    0.8883    0.2884   35.1556 H   0  0  0  0  0  0
    1.9830   -0.6803   36.1996 H   0  0  0  0  0  0
    0.3703   -2.4127   36.4537 H   0  0  0  0  0  0
   -0.9477   -1.3915   35.7855 H   0  0  0  0  0  0
    1.1500   -1.5541   33.7457 H   0  0  0  0  0  0
   -1.2598   -3.7045   35.4868 H   0  0  0  0  0  0
   -1.3677   -4.8621   33.9774 H   0  0  0  0  0  0
    0.9980   -2.8875   32.0402 H   0  0  0  0  0  0
   -0.1392   -4.4147   32.1062 H   0  0  0  0  0  0
  1  2  1  0  0  0
  1 13  1  0  0  0
  1 14  1  0  0  0
  1 15  1  0  0  0
  2  3  1  0  0  0
  2  5  1  0  0  0
  2 16  1  0  0  0
  3  4  2  0  0  0
  3 12  1  0  0  0
  5  6  1  0  0  0
  5 17  1  0  0  0
  5 18  1  0  0  0
  6  7  1  0  0  0
  6 19  1  0  0  0
  6 20  1  0  0  0
  7  8  1  0  0  0
  7 21  1  0  0  0
  7 22  1  0  0  0
  8  9  1  0  0  0
  8 23  1  0  0  0
  9 10  1  0  0  0
  9 11  2  0  0  0
 10 24  1  0  0  0
 10 25  1  0  0  0
 11 26  1  0  0  0
 11 27  1  0  0  0
M  CHG  3   1   1  11   1  12  -1
M  END
> <s_m_source_file>
../2y7i_ligand.sdf

> <i_m_source_file_index>
1

> <s_epik_input>
Tz1DKFtPSF0pW0NAQEhdKFtOSDMrXSlbQ0gyXVtDSDJdW0NIMl1bTkhdL0MoW05IMl0pPU5cW0hd

> <s_epik_cmdline>
J2VwaWtfYXBwJywgJy1pbWFlJywgJ2xpZ2FuZF9wcm8ubWFlJywgJy1vbWFlJywgJ2xpZ2FuZF9wcmVwLm1hZScsICctbXMnLCAnMScsICctcGgnLCAnNycsICctcGh0JywgJzAuNScsICctbnQn

> <r_lp_tautomer_probability>
1

> <r_epik_Ionization_Penalty>
  0.0016

> <r_epik_Ionization_Penalty_Charging>
  0.0016

> <r_epik_Ionization_Penalty_Neutral>
  0.0000

> <r_epik_State_Penalty>
 -0.0000

> <r_epik_Charging_Adjusted_Penalty>
0.00164887027348048

> <i_epik_Tot_Q>
1

> <i_epik_Tot_abs_Q>
3

> <s_epik_Chemistry_Notes>
This compound has an imine and may undergo hydrolysis.

$$$$
