2y7k_ligand
                    3D
 Schrodinger Suite 2020-3.
 15 15  0  0  1  0            999 V2000
   25.7790   18.9330   73.8970 C   0  0  0  0  0  0
   24.9050   19.8400   73.8050 O   0  5  0  0  0  0
   26.0160   18.3160   74.9530 O   0  0  0  0  0  0
   26.6050   18.5570   72.6530 C   0  0  0  0  0  0
   26.4130   19.2730   71.4810 C   0  0  0  0  0  0
   27.1270   18.9290   70.3230 C   0  0  0  0  0  0
   28.0440   17.8550   70.3520 C   0  0  0  0  0  0
   28.2340   17.1440   71.5320 C   0  0  0  0  0  0
   27.5150   17.4920   72.6790 C   0  0  0  0  0  0
   25.5140   20.3190   71.5130 O   0  0  0  0  0  0
   26.9740   19.4904   69.4013 H   0  0  0  0  0  0
   28.5998   17.5849   69.4541 H   0  0  0  0  0  0
   28.9427   16.3164   71.5624 H   0  0  0  0  0  0
   27.6635   16.9303   73.6012 H   0  0  0  0  0  0
   24.9759   20.5535   72.4433 H   0  0  0  0  0  0
  1  2  1  0  0  0
  1  3  2  0  0  0
  1  4  1  0  0  0
  4  5  2  0  0  0
  4  9  1  0  0  0
  5  6  1  0  0  0
  5 10  1  0  0  0
  6  7  2  0  0  0
  6 11  1  0  0  0
  7  8  1  0  0  0
  7 12  1  0  0  0
  8  9  2  0  0  0
  8 13  1  0  0  0
  9 14  1  0  0  0
 10 15  1  0  0  0
M  CHG  1   2  -1
M  END
> <s_m_source_file>
../2y7k_ligand.sdf

> <i_m_source_file_index>
1

> <s_epik_input>
W09IXUMoPU8pYzFjKFtPSF0pW2NIXVtjSF1bY0hdW2NIXTE=

> <s_epik_cmdline>
J2VwaWtfYXBwJywgJy1pbWFlJywgJ2xpZ2FuZF9wcm8ubWFlJywgJy1vbWFlJywgJ2xpZ2FuZF9wcmVwLm1hZScsICctbXMnLCAnMScsICctcGgnLCAnNycsICctcGh0JywgJzAuNScsICctbnQn

> <r_lp_tautomer_probability>
1

> <r_epik_Ionization_Penalty>
  0.0001

> <r_epik_Ionization_Penalty_Charging>
  0.0001

> <r_epik_Ionization_Penalty_Neutral>
  0.0000

> <r_epik_State_Penalty>
 -0.0000

> <r_epik_Charging_Adjusted_Penalty>
5.40328802801808e-05

> <i_epik_Tot_Q>
-1

> <i_epik_Tot_abs_Q>
1

$$$$
