2y7p_ligand
                    3D
 Schrodinger Suite 2020-3.
 15 15  0  0  1  0            999 V2000
   14.8160   48.6310    3.5540 C   0  0  0  0  0  0
   15.5390   49.3720    2.8170 O   0  5  0  0  0  0
   14.9820   48.6050    4.7950 O   0  0  0  0  0  0
   13.7830   47.7510    2.9810 C   0  0  0  0  0  0
   12.9860   46.8930    3.8750 C   0  0  0  0  0  0
   12.0430   46.0320    3.3440 C   0  0  0  0  0  0
   11.8180   45.9740    1.9480 C   0  0  0  0  0  0
   12.5750   46.7800    1.1220 C   0  0  0  0  0  0
   13.5620   47.6770    1.5970 C   0  0  0  0  0  0
   13.1930   46.9800    5.2290 O   0  0  0  0  0  0
   11.4657   45.3899    4.0092 H   0  0  0  0  0  0
   11.0624   45.3065    1.5336 H   0  0  0  0  0  0
   12.4039   46.7229    0.0470 H   0  0  0  0  0  0
   14.1355   48.2943    0.9056 H   0  0  0  0  0  0
   13.9493   47.6729    5.6264 H   0  0  0  0  0  0
  1  2  1  0  0  0
  1  3  2  0  0  0
  1  4  1  0  0  0
  4  5  2  0  0  0
  4  9  1  0  0  0
  5  6  1  0  0  0
  5 10  1  0  0  0
  6  7  2  0  0  0
  6 11  1  0  0  0
  7  8  1  0  0  0
  7 12  1  0  0  0
  8  9  2  0  0  0
  8 13  1  0  0  0
  9 14  1  0  0  0
 10 15  1  0  0  0
M  CHG  1   2  -1
M  END
> <s_m_source_file>
../2y7p_ligand.sdf

> <i_m_source_file_index>
1

> <s_epik_input>
W09IXUMoPU8pYzFjKFtPSF0pW2NIXVtjSF1bY0hdW2NIXTE=

> <s_epik_cmdline>
J2VwaWtfYXBwJywgJy1pbWFlJywgJ2xpZ2FuZF9wcm8ubWFlJywgJy1vbWFlJywgJ2xpZ2FuZF9wcmVwLm1hZScsICctbXMnLCAnMScsICctcGgnLCAnNycsICctcGh0JywgJzAuNScsICctbnQn

> <r_lp_tautomer_probability>
1

> <r_epik_Ionization_Penalty>
  0.0001

> <r_epik_Ionization_Penalty_Charging>
  0.0001

> <r_epik_Ionization_Penalty_Neutral>
  0.0000

> <r_epik_State_Penalty>
 -0.0000

> <r_epik_Charging_Adjusted_Penalty>
5.40328802801808e-05

> <i_epik_Tot_Q>
-1

> <i_epik_Tot_abs_Q>
1

$$$$
