2y7w_ligand
                    3D
 Schrodinger Suite 2020-3.
 15 15  0  0  1  0            999 V2000
   14.3080   14.3500    2.7620 C   0  0  0  0  0  0
   14.0170   15.5530    2.9630 O   0  5  0  0  0  0
   14.7140   13.5600    3.6460 O   0  0  0  0  0  0
   14.1160   13.8140    1.3490 C   0  0  0  0  0  0
   14.3840   12.4960    1.0560 C   0  0  0  0  0  0
   14.1890   12.0290   -0.2280 C   0  0  0  0  0  0
   13.7290   12.8760   -1.2240 C   0  0  0  0  0  0
   13.4600   14.1970   -0.9360 C   0  0  0  0  0  0
   13.6540   14.6630    0.3560 C   0  0  0  0  0  0
   14.8380   11.6610    2.0170 O   0  0  0  0  0  0
   14.3986   10.9850   -0.4608 H   0  0  0  0  0  0
   13.5799   12.4975   -2.2352 H   0  0  0  0  0  0
   13.0987   14.8681   -1.7152 H   0  0  0  0  0  0
   13.4413   15.7056    0.5922 H   0  0  0  0  0  0
   14.9935   12.0331    3.0404 H   0  0  0  0  0  0
  1  2  1  0  0  0
  1  3  2  0  0  0
  1  4  1  0  0  0
  4  5  2  0  0  0
  4  9  1  0  0  0
  5  6  1  0  0  0
  5 10  1  0  0  0
  6  7  2  0  0  0
  6 11  1  0  0  0
  7  8  1  0  0  0
  7 12  1  0  0  0
  8  9  2  0  0  0
  8 13  1  0  0  0
  9 14  1  0  0  0
 10 15  1  0  0  0
M  CHG  1   2  -1
M  END
> <s_m_source_file>
../2y7w_ligand.sdf

> <i_m_source_file_index>
1

> <s_epik_input>
W09IXUMoPU8pYzFjKFtPSF0pW2NIXVtjSF1bY0hdW2NIXTE=

> <s_epik_cmdline>
J2VwaWtfYXBwJywgJy1pbWFlJywgJ2xpZ2FuZF9wcm8ubWFlJywgJy1vbWFlJywgJ2xpZ2FuZF9wcmVwLm1hZScsICctbXMnLCAnMScsICctcGgnLCAnNycsICctcGh0JywgJzAuNScsICctbnQn

> <r_lp_tautomer_probability>
1

> <r_epik_Ionization_Penalty>
  0.0001

> <r_epik_Ionization_Penalty_Charging>
  0.0001

> <r_epik_Ionization_Penalty_Neutral>
  0.0000

> <r_epik_State_Penalty>
 -0.0000

> <r_epik_Charging_Adjusted_Penalty>
5.40328802801808e-05

> <i_epik_Tot_Q>
-1

> <i_epik_Tot_abs_Q>
1

$$$$
