2y80_ligand
                    3D
 Schrodinger Suite 2020-3.
 60 64  0  0  1  0            999 V2000
    8.0060    6.6450   21.5840 O   0  0  0  0  0  0
    6.9190    6.1390   21.7650 C   0  0  0  0  0  0
    6.4680    5.0310   21.1370 N   0  0  0  0  0  0
    7.2060    4.2390   20.2470 C   0  0  0  0  0  0
    7.2350    2.8650   20.4600 C   0  0  0  0  0  0
    7.9060    4.7840   19.1670 C   0  0  0  0  0  0
    8.6240    3.9490   18.3230 C   0  0  0  0  0  0
    8.6450    2.5630   18.5370 C   0  0  0  0  0  0
    7.9500    2.0360   19.6140 C   0  0  0  0  0  0
    8.1230    0.5340   19.6590 C   0  0  0  0  0  0
    9.3560    0.2710   18.7710 C   0  0  0  0  0  0
    9.3430    1.4440   17.7680 C   0  0  1  0  0  0
    8.7850    1.1270   16.4310 N   0  3  0  0  0  0
    9.1430    2.2280   15.5200 C   0  0  0  0  0  0
    7.3060    1.0410   16.4520 C   0  0  0  0  0  0
    5.8750    6.6120   22.7520 C   0  0  2  0  0  0
    4.5870    5.9320   22.2380 C   0  0  0  0  0  0
    5.0960    4.6700   21.5230 C   0  0  0  0  0  0
    5.7720    8.0700   22.7800 N   0  0  3  0  0  0
    6.1980    8.9760   24.0460 S   0  0  0  0  0  0
    6.0360   10.2770   23.5070 O   0  0  0  0  0  0
    5.4830    8.5680   25.2050 O   0  0  0  0  0  0
    7.9180    8.7010   24.3740 C   0  0  0  0  0  0
    8.2940    8.0600   25.5270 C   0  0  0  0  0  0
    9.6710    7.8260   25.7840 C   0  0  0  0  0  0
   10.6250    8.2650   24.8180 C   0  0  0  0  0  0
   10.1950    8.9060   23.6370 C   0  0  0  0  0  0
    8.8610    9.1260   23.4320 C   0  0  0  0  0  0
   10.1150    7.1770   26.9590 C   0  0  0  0  0  0
   11.4560    6.9710   27.1530 C   0  0  0  0  0  0
   12.3770    7.4020   26.2030 C   0  0  0  0  0  0
   14.0840    7.1400   26.4370 Cl  0  0  0  0  0  0
   11.9920    8.0280   25.0570 C   0  0  0  0  0  0
    6.6894    2.4373   21.3011 H   0  0  0  0  0  0
    7.8880    5.8592   18.9887 H   0  0  0  0  0  0
    9.1771    4.3743   17.4855 H   0  0  0  0  0  0
    8.2866    0.2148   20.6989 H   0  0  0  0  0  0
    7.2181    0.0487   19.2645 H   0  0  0  0  0  0
   10.2624    0.2660   19.3943 H   0  0  0  0  0  0
    9.2481   -0.7039   18.2731 H   0  0  0  0  0  0
   10.3424    1.7423   17.4183 H   0  0  0  0  0  0
    9.1942    0.1590   16.1061 H   0  0  0  0  0  0
   10.2377    2.3260   15.4757 H   0  0  0  0  0  0
    8.7055    3.1670   15.8900 H   0  0  0  0  0  0
    8.7531    2.0131   14.5141 H   0  0  0  0  0  0
    6.9956    0.2272   17.1238 H   0  0  0  0  0  0
    6.9360    0.8390   15.4360 H   0  0  0  0  0  0
    6.8885    1.9929   16.8118 H   0  0  0  0  0  0
    6.1223    6.3947   23.8016 H   0  0  0  0  0  0
    3.9341    5.6918   23.0901 H   0  0  0  0  0  0
    4.0607    6.6135   21.5535 H   0  0  0  0  0  0
    4.5119    4.4329   20.6216 H   0  0  0  0  0  0
    5.1204    3.7922   22.1855 H   0  0  0  0  0  0
    5.5446    8.6231   21.8568 H   0  0  0  0  0  0
    7.5398    7.7319   26.2423 H   0  0  0  0  0  0
   10.9231    9.2246   22.8910 H   0  0  0  0  0  0
    8.5298    9.6364   22.5276 H   0  0  0  0  0  0
    9.3952    6.8425   27.7060 H   0  0  0  0  0  0
   11.8026    6.4674   28.0554 H   0  0  0  0  0  0
   12.7384    8.3441   24.3282 H   0  0  0  0  0  0
  1  2  2  0  0  0
  2  3  1  0  0  0
  2 16  1  0  0  0
  3  4  1  0  0  0
  3 18  1  0  0  0
  4  5  2  0  0  0
  4  6  1  0  0  0
  5  9  1  0  0  0
  5 34  1  0  0  0
  6  7  2  0  0  0
  6 35  1  0  0  0
  7  8  1  0  0  0
  7 36  1  0  0  0
  8  9  2  0  0  0
  8 12  1  0  0  0
  9 10  1  0  0  0
 10 11  1  0  0  0
 10 37  1  0  0  0
 10 38  1  0  0  0
 11 12  1  0  0  0
 11 39  1  0  0  0
 11 40  1  0  0  0
 12 13  1  0  0  0
 12 41  1  0  0  0
 13 14  1  0  0  0
 13 15  1  0  0  0
 13 42  1  0  0  0
 14 43  1  0  0  0
 14 44  1  0  0  0
 14 45  1  0  0  0
 15 46  1  0  0  0
 15 47  1  0  0  0
 15 48  1  0  0  0
 16 17  1  0  0  0
 16 19  1  0  0  0
 16 49  1  0  0  0
 17 18  1  0  0  0
 17 50  1  0  0  0
 17 51  1  0  0  0
 18 52  1  0  0  0
 18 53  1  0  0  0
 19 20  1  0  0  0
 19 54  1  0  0  0
 20 21  2  0  0  0
 20 22  2  0  0  0
 20 23  1  0  0  0
 23 24  2  0  0  0
 23 28  1  0  0  0
 24 25  1  0  0  0
 24 55  1  0  0  0
 25 26  2  0  0  0
 25 29  1  0  0  0
 26 27  1  0  0  0
 26 33  1  0  0  0
 27 28  2  0  0  0
 27 56  1  0  0  0
 28 57  1  0  0  0
 29 30  2  0  0  0
 29 58  1  0  0  0
 30 31  1  0  0  0
 30 59  1  0  0  0
 31 32  1  0  0  0
 31 33  2  0  0  0
 33 60  1  0  0  0
M  CHG  1  13   1
M  END
> <s_m_source_file>
../2y80_ligand.sdf

> <i_m_source_file_index>
1

> <s_epik_input>
W0NIM11bTkgrXShbQ0gzXSlbQ0BASF0xW0NIMl1bQ0gyXWMoYzEyKVtjSF1jKFtjSF1bY0hdMilOKEMzPU8pW0NIMl1bQ0gyXVtDQEBIXTNbTkhdUyg9TykoPU8pYyhbY0hdNClbY0hdW2NIXWMoYzQ1KVtjSF1jKENsKVtjSF1bY0hdNQ==

> <s_epik_cmdline>
J2VwaWtfYXBwJywgJy1pbWFlJywgJ2xpZ2FuZF9wcm8ubWFlJywgJy1vbWFlJywgJ2xpZ2FuZF9wcmVwLm1hZScsICctbXMnLCAnMScsICctcGgnLCAnNycsICctcGh0JywgJzAuNScsICctbnQn

> <r_epik_Ionization_Penalty>
  0.0340

> <r_epik_Ionization_Penalty_Charging>
  0.0332

> <r_epik_Ionization_Penalty_Neutral>
  0.0008

> <r_epik_State_Penalty>
  0.0276

> <r_epik_Charging_Adjusted_Penalty>
0.0608138928682035

> <i_epik_Tot_Q>
1

> <i_epik_Tot_abs_Q>
1

$$$$
