2y81_ligand
                    3D
 Schrodinger Suite 2020-3.
 57 61  0  0  1  0            999 V2000
    6.5580    2.1280   21.7640 F   0  0  0  0  0  0
    7.1050    2.7690   20.7220 C   0  0  0  0  0  0
    7.7510    1.9970   19.7680 C   0  0  0  0  0  0
    8.6430   -0.3770   16.7140 C   0  0  0  0  0  0
    8.1050    0.9760   16.8300 N   0  3  0  0  0  0
    8.3280    2.6230   18.6590 C   0  0  0  0  0  0
    8.2410    4.0190   18.5510 C   0  0  0  0  0  0
    7.5870    4.7840   19.5220 C   0  0  0  0  0  0
    6.9980    4.1590   20.6290 C   0  0  0  0  0  0
    6.3100    4.8860   21.6570 N   0  0  0  0  0  0
    6.8270    5.9660   22.2800 C   0  0  0  0  0  0
    7.9510    6.4300   22.0890 O   0  0  0  0  0  0
    4.9930    4.5170   22.1910 C   0  0  0  0  0  0
    4.5210    5.7620   22.9240 C   0  0  0  0  0  0
    5.8000    6.5060   23.2780 C   0  0  2  0  0  0
    5.6520    7.9460   23.2330 N   0  0  3  0  0  0
    6.1150    8.8680   24.4610 S   0  0  0  0  0  0
   10.1700    0.9170   18.1050 C   0  0  0  0  0  0
    5.4170    8.4920   25.6450 O   0  0  0  0  0  0
    5.9190   10.1660   23.9000 O   0  0  0  0  0  0
    7.8520    8.6210   24.7410 C   0  0  0  0  0  0
   10.0110   -0.4160   17.3910 C   0  0  0  0  0  0
    8.2790    7.9230   25.8430 C   0  0  0  0  0  0
    8.7650    9.1440   23.8100 C   0  0  0  0  0  0
   10.1140    8.9660   24.0030 C   0  0  0  0  0  0
   10.5810    8.2530   25.1330 C   0  0  0  0  0  0
   11.9530    8.0570   25.3430 C   0  0  0  0  0  0
   12.3780    7.3730   26.4560 C   0  0  0  0  0  0
   14.0900    7.1520   26.6590 Cl  0  0  0  0  0  0
    9.6660    7.7250   26.0730 C   0  0  0  0  0  0
   10.1480    7.0250   27.2100 C   0  0  0  0  0  0
   11.4960    6.8490   27.3930 C   0  0  0  0  0  0
    9.0420    1.8170   17.5900 C   0  0  1  0  0  0
    7.8082    0.9144   19.8815 H   0  0  0  0  0  0
    7.9610   -1.0862   17.2059 H   0  0  0  0  0  0
    8.7432   -0.6419   15.6511 H   0  0  0  0  0  0
    7.9642    1.4019   15.8256 H   0  0  0  0  0  0
    7.1378    0.9424   17.3529 H   0  0  0  0  0  0
    8.6922    4.5174   17.6930 H   0  0  0  0  0  0
    7.5354    5.8677   19.4175 H   0  0  0  0  0  0
    4.3227    4.2494   21.3609 H   0  0  0  0  0  0
    5.0998    3.6566   22.8680 H   0  0  0  0  0  0
    3.8728    6.3541   22.2612 H   0  0  0  0  0  0
    3.9568    5.4675   23.8212 H   0  0  0  0  0  0
    6.1011    6.3886   24.3295 H   0  0  0  0  0  0
    5.3717    8.4409   22.2915 H   0  0  0  0  0  0
   10.0881    0.7632   19.1911 H   0  0  0  0  0  0
   11.1556    1.3444   17.8685 H   0  0  0  0  0  0
   10.0434   -1.2529   18.1041 H   0  0  0  0  0  0
   10.7931   -0.5525   16.6297 H   0  0  0  0  0  0
    7.5497    7.5187   26.5450 H   0  0  0  0  0  0
    8.4046    9.6891   22.9376 H   0  0  0  0  0  0
   10.8252    9.3744   23.2850 H   0  0  0  0  0  0
   12.6782    8.4449   24.6276 H   0  0  0  0  0  0
    9.4443    6.6258   27.9404 H   0  0  0  0  0  0
   11.8698    6.3059   28.2610 H   0  0  0  0  0  0
    9.4677    2.5780   16.9194 H   0  0  0  0  0  0
  1  2  1  0  0  0
  2  3  2  0  0  0
  2  9  1  0  0  0
  3  6  1  0  0  0
  3 34  1  0  0  0
  4  5  1  0  0  0
  4 22  1  0  0  0
  4 35  1  0  0  0
  4 36  1  0  0  0
  5 33  1  0  0  0
  5 37  1  0  0  0
  5 38  1  0  0  0
  6  7  2  0  0  0
  6 33  1  0  0  0
  7  8  1  0  0  0
  7 39  1  0  0  0
  8  9  2  0  0  0
  8 40  1  0  0  0
  9 10  1  0  0  0
 10 11  1  0  0  0
 10 13  1  0  0  0
 11 12  2  0  0  0
 11 15  1  0  0  0
 13 14  1  0  0  0
 13 41  1  0  0  0
 13 42  1  0  0  0
 14 15  1  0  0  0
 14 43  1  0  0  0
 14 44  1  0  0  0
 15 16  1  0  0  0
 15 45  1  0  0  0
 16 17  1  0  0  0
 16 46  1  0  0  0
 17 19  2  0  0  0
 17 20  2  0  0  0
 17 21  1  0  0  0
 18 22  1  0  0  0
 18 33  1  0  0  0
 18 47  1  0  0  0
 18 48  1  0  0  0
 21 23  2  0  0  0
 21 24  1  0  0  0
 22 49  1  0  0  0
 22 50  1  0  0  0
 23 30  1  0  0  0
 23 51  1  0  0  0
 24 25  2  0  0  0
 24 52  1  0  0  0
 25 26  1  0  0  0
 25 53  1  0  0  0
 26 27  1  0  0  0
 26 30  2  0  0  0
 27 28  2  0  0  0
 27 54  1  0  0  0
 28 29  1  0  0  0
 28 32  1  0  0  0
 30 31  1  0  0  0
 31 32  2  0  0  0
 31 55  1  0  0  0
 32 56  1  0  0  0
 33 57  1  0  0  0
M  CHG  1   5   1
M  END
> <s_m_source_file>
../2y81_ligand.sdf

> <i_m_source_file_index>
1

> <s_epik_input>
W0NIMl0xW0NIMl1bQ0gyXVtOSDIrXVtDQEhdMWMoW2NIXWMyRilbY0hdW2NIXWMyTjNDKD1PKVtDQEhdKFtDSDJdW0NIMl0zKVtOSF1TKD1PKSg9TyljKFtjSF1bY0hdNClbY0hdYyhjNDUpW2NIXVtjSF1jKENsKVtjSF01

> <s_epik_cmdline>
J2VwaWtfYXBwJywgJy1pbWFlJywgJ2xpZ2FuZF9wcm8ubWFlJywgJy1vbWFlJywgJ2xpZ2FuZF9wcmVwLm1hZScsICctbXMnLCAnMScsICctcGgnLCAnNycsICctcGh0JywgJzAuNScsICctbnQn

> <r_epik_Ionization_Penalty>
  0.0104

> <r_epik_Ionization_Penalty_Charging>
  0.0096

> <r_epik_Ionization_Penalty_Neutral>
  0.0008

> <r_epik_State_Penalty>
  0.0073

> <r_epik_Charging_Adjusted_Penalty>
0.0169621266027425

> <i_epik_Tot_Q>
1

> <i_epik_Tot_abs_Q>
1

$$$$
