2y8c_ligand
                    3D
 Schrodinger Suite 2020-3.
 69 72  0  0  1  0            999 V2000
   -2.0330   25.4040   -0.9160 O   0  0  0  0  0  0
   -3.1920   25.4130   -0.4620 C   0  0  0  0  0  0
   -4.0470   24.3630   -0.6210 N   0  0  0  0  0  0
   -5.2950   24.4280   -0.1040 C   0  0  0  0  0  0
   -6.1410   23.5020   -0.1760 O   0  0  0  0  0  0
   -3.5810   26.5450    0.2040 C   0  0  0  0  0  0
   -4.8910   26.6240    0.7080 C   0  0  0  0  0  0
   -5.7180   25.5780    0.5790 N   0  0  0  0  0  0
   -7.1290   25.6180    1.0460 C   0  0  0  0  0  0
   -7.8340   26.8220    0.3880 C   0  0  2  0  0  0
   -9.2830   27.0750    0.7800 C   0  0  0  0  0  0
  -10.3300   26.6260    0.0970 N   0  0  0  0  0  0
  -11.7300   26.8630    0.4800 C   0  0  0  0  0  0
  -12.5360   25.9670   -0.4560 C   0  0  0  0  0  0
  -12.5900   26.6450   -1.7310 O   0  0  0  0  0  0
   -9.4240   27.7810    1.7290 O   0  0  0  0  0  0
   -7.6240   26.8950   -1.0970 C   0  0  0  0  0  0
   -8.3430   28.0280   -1.8470 C   0  0  0  0  0  0
   -9.0220   27.2660   -2.8810 O   0  0  0  0  0  0
   -8.4630   27.2000   -4.2170 C   0  0  0  0  0  0
   -9.2720   26.0900   -4.8620 C   0  0  0  0  0  0
  -10.4610   25.6460   -4.2450 C   0  0  0  0  0  0
  -11.1880   24.5950   -4.8470 C   0  0  0  0  0  0
  -10.8010   24.0140   -6.0580 C   0  0  0  0  0  0
   -9.6320   24.4860   -6.6780 C   0  0  0  0  0  0
   -8.9160   25.5180   -6.0860 C   0  0  0  0  0  0
   -8.8610   28.4920   -4.9180 C   0  0  0  0  0  0
   -9.8900   29.2920   -4.3520 C   0  0  0  0  0  0
  -10.3020   30.4900   -4.9780 C   0  0  0  0  0  0
   -9.7100   30.8580   -6.2000 C   0  0  0  0  0  0
   -8.7000   30.0650   -6.7890 C   0  0  0  0  0  0
   -8.2770   28.8830   -6.1440 C   0  0  0  0  0  0
   -6.9310   26.9170   -4.1300 C   0  0  0  0  0  0
   -6.4500   25.6250   -3.8040 C   0  0  0  0  0  0
   -5.0400   25.3500   -3.6600 C   0  0  0  0  0  0
   -4.1280   26.3820   -3.8750 C   0  0  0  0  0  0
   -4.5850   27.6880   -4.1960 C   0  0  0  0  0  0
   -5.9690   27.9430   -4.3140 C   0  0  0  0  0  0
   -3.7210   23.4663   -1.1685 H   0  0  0  0  0  0
   -2.8850   27.3725    0.3412 H   0  0  0  0  0  0
   -5.2327   27.5335    1.2022 H   0  0  0  0  0  0
   -7.6367   24.6853    0.7591 H   0  0  0  0  0  0
   -7.1501   25.7252    2.1406 H   0  0  0  0  0  0
   -7.3076   27.6875    0.8168 H   0  0  0  0  0  0
  -10.0981   26.0437   -0.8070 H   0  0  0  0  0  0
  -11.8727   26.5889    1.5357 H   0  0  0  0  0  0
  -11.9730   27.9268    0.3413 H   0  0  0  0  0  0
  -12.0358   24.9919   -0.5510 H   0  0  0  0  0  0
  -13.5462   25.8224   -0.0455 H   0  0  0  0  0  0
  -13.1250   26.1863   -2.5756 H   0  0  0  0  0  0
   -6.5534   27.0317   -1.3096 H   0  0  0  0  0  0
   -7.9742   25.9622   -1.5632 H   0  0  0  0  0  0
   -9.0248   28.5486   -1.1584 H   0  0  0  0  0  0
   -7.5999   28.7401   -2.2353 H   0  0  0  0  0  0
  -10.8119   26.1055   -3.3210 H   0  0  0  0  0  0
  -12.0835   24.2235   -4.3489 H   0  0  0  0  0  0
  -11.3905   23.2159   -6.5093 H   0  0  0  0  0  0
   -9.2903   24.0462   -7.6150 H   0  0  0  0  0  0
   -8.0343   25.9000   -6.6006 H   0  0  0  0  0  0
  -10.3673   28.9778   -3.4238 H   0  0  0  0  0  0
  -11.0663   31.1189   -4.5214 H   0  0  0  0  0  0
  -10.0359   31.7698   -6.7005 H   0  0  0  0  0  0
   -8.2502   30.3642   -7.7357 H   0  0  0  0  0  0
   -7.4965   28.2691   -6.5935 H   0  0  0  0  0  0
   -7.1649   24.8153   -3.6577 H   0  0  0  0  0  0
   -4.6946   24.3526   -3.3879 H   0  0  0  0  0  0
   -3.0587   26.1858   -3.7964 H   0  0  0  0  0  0
   -3.8673   28.4936   -4.3513 H   0  0  0  0  0  0
   -6.3059   28.9519   -4.5521 H   0  0  0  0  0  0
  1  2  2  0  0  0
  2  3  1  0  0  0
  2  6  1  0  0  0
  3  4  1  0  0  0
  3 39  1  0  0  0
  4  5  2  0  0  0
  4  8  1  0  0  0
  6  7  2  0  0  0
  6 40  1  0  0  0
  7  8  1  0  0  0
  7 41  1  0  0  0
  8  9  1  0  0  0
  9 10  1  0  0  0
  9 42  1  0  0  0
  9 43  1  0  0  0
 10 11  1  0  0  0
 10 17  1  0  0  0
 10 44  1  0  0  0
 11 12  1  0  0  0
 11 16  2  0  0  0
 12 13  1  0  0  0
 12 45  1  0  0  0
 13 14  1  0  0  0
 13 46  1  0  0  0
 13 47  1  0  0  0
 14 15  1  0  0  0
 14 48  1  0  0  0
 14 49  1  0  0  0
 15 50  1  0  0  0
 17 18  1  0  0  0
 17 51  1  0  0  0
 17 52  1  0  0  0
 18 19  1  0  0  0
 18 53  1  0  0  0
 18 54  1  0  0  0
 19 20  1  0  0  0
 20 21  1  0  0  0
 20 27  1  0  0  0
 20 33  1  0  0  0
 21 22  2  0  0  0
 21 26  1  0  0  0
 22 23  1  0  0  0
 22 55  1  0  0  0
 23 24  2  0  0  0
 23 56  1  0  0  0
 24 25  1  0  0  0
 24 57  1  0  0  0
 25 26  2  0  0  0
 25 58  1  0  0  0
 26 59  1  0  0  0
 27 28  2  0  0  0
 27 32  1  0  0  0
 28 29  1  0  0  0
 28 60  1  0  0  0
 29 30  2  0  0  0
 29 61  1  0  0  0
 30 31  1  0  0  0
 30 62  1  0  0  0
 31 32  2  0  0  0
 31 63  1  0  0  0
 32 64  1  0  0  0
 33 34  2  0  0  0
 33 38  1  0  0  0
 34 35  1  0  0  0
 34 65  1  0  0  0
 35 36  2  0  0  0
 35 66  1  0  0  0
 36 37  1  0  0  0
 36 67  1  0  0  0
 37 38  2  0  0  0
 37 68  1  0  0  0
 38 69  1  0  0  0
M  END
> <s_m_source_file>
../2y8c_ligand.sdf

> <i_m_source_file_index>
1

> <s_epik_input>
Tz1jMVtuSF1jKD1PKW4oW2NIXVtjSF0xKVtDSDJdW0NASF0oQyg9TylbTkhdW0NIMl1bQ0gyXVtPSF0pW0NIMl1bQ0gyXU9DKGMyW2NIXVtjSF1bY0hdW2NIXVtjSF0yKShjM1tjSF1bY0hdW2NIXVtjSF1bY0hdMyljNFtjSF1bY0hdW2NIXVtjSF1bY0hdNA==

> <s_epik_cmdline>
J2VwaWtfYXBwJywgJy1pbWFlJywgJ2xpZ2FuZF9wcm8ubWFlJywgJy1vbWFlJywgJ2xpZ2FuZF9wcmVwLm1hZScsICctbXMnLCAnMScsICctcGgnLCAnNycsICctcGh0JywgJzAuNScsICctbnQn

> <r_lp_tautomer_probability>
1

> <r_epik_Ionization_Penalty>
  0.0020

> <r_epik_Ionization_Penalty_Charging>
  0.0020

> <r_epik_Ionization_Penalty_Neutral>
  0.0000

> <r_epik_State_Penalty>
 -0.0000

> <r_epik_Charging_Adjusted_Penalty>
0.00197689822567142

> <i_epik_Tot_Q>
0

> <i_epik_Tot_abs_Q>
0

$$$$
