2y8i_ligand
                    3D
 Schrodinger Suite 2020-3.
 39 41  0  0  1  0            999 V2000
   21.6910   34.7160   57.4790 P   0  0  0  0  0  0
   23.1010   34.8130   58.0240 O   0  0  0  0  0  0
   21.7620   33.6840   56.3400 O   0  5  0  0  0  0
   20.7220   34.3150   58.6300 O   0  5  0  0  0  0
   20.5920   37.3260   57.4320 P   0  0  1  0  0  0
   19.0940   37.3060   57.1920 O   0  5  0  0  0  0
   20.9050   37.4810   58.8270 O   0  0  0  0  0  0
   21.2040   36.0870   56.7300 O   0  0  0  0  0  0
   21.1610   38.5740   56.6470 O   0  0  0  0  0  0
   22.3130   39.1670   57.0420 C   0  0  0  0  0  0
   22.1370   40.6150   57.2970 C   0  0  1  0  0  0
   21.6740   41.1730   56.1170 O   0  0  0  0  0  0
   21.0820   40.7510   58.2940 C   0  0  1  0  0  0
   21.6550   41.1440   59.5320 O   0  0  0  0  0  0
   20.1990   41.7490   57.8110 C   0  0  1  0  0  0
   20.4270   42.9890   58.4790 O   0  0  0  0  0  0
   20.5740   41.9670   56.4260 C   0  0  2  0  0  0
   19.5680   41.6870   55.4340 N   0  0  0  0  0  0
   19.3680   40.5300   54.7830 C   0  0  0  0  0  0
   18.3690   40.6860   53.9060 N   0  0  0  0  0  0
   17.9410   41.9590   53.9940 C   0  0  0  0  0  0
   16.9580   42.6910   53.3340 C   0  0  0  0  0  0
   16.1690   42.0510   52.3450 N   0  0  0  0  0  0
   16.7690   43.9830   53.6430 N   0  0  0  0  0  0
   17.5130   44.5760   54.5800 C   0  0  0  0  0  0
   18.4630   43.8920   55.2320 N   0  0  0  0  0  0
   18.7010   42.6000   54.9630 C   0  0  0  0  0  0
   22.6676   38.6968   57.9711 H   0  0  0  0  0  0
   23.0745   39.0481   56.2571 H   0  0  0  0  0  0
   23.0594   41.1332   57.5980 H   0  0  0  0  0  0
   20.5281   39.8178   58.4739 H   0  0  0  0  0  0
   22.3661   40.4794   60.0446 H   0  0  0  0  0  0
   19.1599   41.4273   57.9746 H   0  0  0  0  0  0
   20.2153   43.0814   59.5545 H   0  0  0  0  0  0
   20.8073   43.0397   56.3563 H   0  0  0  0  0  0
   19.9299   39.6098   54.9432 H   0  0  0  0  0  0
   16.3398   40.9909   52.1063 H   0  0  0  0  0  0
   15.3861   42.6146   51.8164 H   0  0  0  0  0  0
   17.3459   45.6268   54.8168 H   0  0  0  0  0  0
  1  2  2  0  0  0
  1  3  1  0  0  0
  1  4  1  0  0  0
  1  8  1  0  0  0
  5  6  1  0  0  0
  5  7  2  0  0  0
  5  8  1  0  0  0
  5  9  1  0  0  0
  9 10  1  0  0  0
 10 11  1  0  0  0
 10 28  1  0  0  0
 10 29  1  0  0  0
 11 12  1  0  0  0
 11 13  1  0  0  0
 11 30  1  0  0  0
 12 17  1  0  0  0
 13 14  1  0  0  0
 13 15  1  0  0  0
 13 31  1  0  0  0
 14 32  1  0  0  0
 15 16  1  0  0  0
 15 17  1  0  0  0
 15 33  1  0  0  0
 16 34  1  0  0  0
 17 18  1  0  0  0
 17 35  1  0  0  0
 18 19  1  0  0  0
 18 27  1  0  0  0
 19 20  2  0  0  0
 19 36  1  0  0  0
 20 21  1  0  0  0
 21 22  2  0  0  0
 21 27  1  0  0  0
 22 23  1  0  0  0
 22 24  1  0  0  0
 23 37  1  0  0  0
 23 38  1  0  0  0
 24 25  2  0  0  0
 25 26  1  0  0  0
 25 39  1  0  0  0
 26 27  2  0  0  0
M  CHG  3   3  -1   4  -1   6  -1
M  END
> <s_m_source_file>
../2y8i_ligand.sdf

> <i_m_source_file_index>
1

> <s_epik_input>
Tz1QKFtPSF0pKFtPSF0pT1tQQF0oPU8pKFtPSF0pT1tDSDJdW0NASF0xT1tDQEhdKFtDQEhdKFtPSF0pW0NAQEhdMVtPSF0pbihbY0hdbjIpYyhjMjMpbltjSF1uYzNbTkgyXQ==

> <s_epik_cmdline>
J2VwaWtfYXBwJywgJy1pbWFlJywgJ2xpZ2FuZF9wcm8ubWFlJywgJy1vbWFlJywgJ2xpZ2FuZF9wcmVwLm1hZScsICctbXMnLCAnMScsICctcGgnLCAnNycsICctcGh0JywgJzAuNScsICctbnQn

> <r_lp_tautomer_probability>
0.999997216410988

> <r_epik_Ionization_Penalty>
  0.1037

> <r_epik_Ionization_Penalty_Charging>
  0.1033

> <r_epik_Ionization_Penalty_Neutral>
  0.0004

> <r_epik_State_Penalty>
  0.0922

> <r_epik_Charging_Adjusted_Penalty>
0.19546844050481

> <i_epik_Tot_Q>
-3

> <i_epik_Tot_abs_Q>
3

> <s_epik_Chemistry_Notes>
This compound contains an acetal/aminal-like group ( X-CH(R)-Y where X, Y are N, S, or O) that may be acid/base labile, releasing an aldehyde.

$$$$
