2y8l_ligand
                    3D
 Schrodinger Suite 2020-3.
 39 41  0  0  1  0            999 V2000
   -2.5640   -7.7480  -37.6150 P   0  0  0  0  0  0
   -1.7110   -6.5300  -37.3160 O   0  5  0  0  0  0
   -4.0330   -7.4630  -37.5130 O   0  5  0  0  0  0
   -2.1150   -8.6650  -38.7020 O   0  0  0  0  0  0
   -2.6900  -10.1150  -35.9790 P   0  0  2  0  0  0
   -1.5450  -10.5190  -35.0980 O   0  5  0  0  0  0
   -2.9300  -10.9290  -37.2140 O   0  0  0  0  0  0
   -2.3580   -8.5860  -36.2750 O   0  0  0  0  0  0
   -4.0140  -10.0150  -35.0950 O   0  0  0  0  0  0
   -4.8790  -11.1330  -34.9320 C   0  0  0  0  0  0
   -5.7480  -11.0510  -33.6650 C   0  0  1  0  0  0
   -5.0140  -11.5060  -32.5250 O   0  0  0  0  0  0
   -6.2470   -9.6590  -33.2960 C   0  0  1  0  0  0
   -7.5650   -9.7710  -32.7160 O   0  0  0  0  0  0
   -5.2580   -9.1820  -32.2550 C   0  0  1  0  0  0
   -5.8120   -8.2420  -31.3290 O   0  0  0  0  0  0
   -4.8320  -10.4610  -31.5590 C   0  0  2  0  0  0
   -3.4030  -10.3670  -31.1530 N   0  0  0  0  0  0
   -2.3950   -9.8350  -31.8790 C   0  0  0  0  0  0
   -1.2210   -9.9140  -31.2150 N   0  0  0  0  0  0
   -1.4720  -10.5140  -30.0300 C   0  0  0  0  0  0
   -0.6900  -10.9150  -28.8270 C   0  0  0  0  0  0
    0.6300  -10.6790  -28.7610 N   0  0  0  0  0  0
   -1.3470  -11.5130  -27.7890 N   0  0  0  0  0  0
   -2.6750  -11.7560  -27.8400 C   0  0  0  0  0  0
   -3.4350  -11.4200  -28.9000 N   0  0  0  0  0  0
   -2.9110  -10.8090  -29.9970 C   0  0  0  0  0  0
   -5.5576  -11.2004  -35.7951 H   0  0  0  0  0  0
   -4.2801  -12.0531  -34.8637 H   0  0  0  0  0  0
   -6.6049  -11.7146  -33.8528 H   0  0  0  0  0  0
   -6.3618   -8.9652  -34.1418 H   0  0  0  0  0  0
   -8.4111  -10.1065  -33.3338 H   0  0  0  0  0  0
   -4.4391   -8.5837  -32.6810 H   0  0  0  0  0  0
   -6.1674   -7.2637  -31.6848 H   0  0  0  0  0  0
   -5.4200  -10.6959  -30.6595 H   0  0  0  0  0  0
   -2.5136   -9.3990  -32.8709 H   0  0  0  0  0  0
    1.1454  -10.1967  -29.6047 H   0  0  0  0  0  0
    1.1962  -10.9679  -27.8632 H   0  0  0  0  0  0
   -3.1506  -12.2436  -26.9890 H   0  0  0  0  0  0
  1  2  1  0  0  0
  1  3  1  0  0  0
  1  4  2  0  0  0
  1  8  1  0  0  0
  5  6  1  0  0  0
  5  7  2  0  0  0
  5  8  1  0  0  0
  5  9  1  0  0  0
  9 10  1  0  0  0
 10 11  1  0  0  0
 10 28  1  0  0  0
 10 29  1  0  0  0
 11 12  1  0  0  0
 11 13  1  0  0  0
 11 30  1  0  0  0
 12 17  1  0  0  0
 13 14  1  0  0  0
 13 15  1  0  0  0
 13 31  1  0  0  0
 14 32  1  0  0  0
 15 16  1  0  0  0
 15 17  1  0  0  0
 15 33  1  0  0  0
 16 34  1  0  0  0
 17 18  1  0  0  0
 17 35  1  0  0  0
 18 19  1  0  0  0
 18 27  1  0  0  0
 19 20  2  0  0  0
 19 36  1  0  0  0
 20 21  1  0  0  0
 21 22  2  0  0  0
 21 27  1  0  0  0
 22 23  1  0  0  0
 22 24  1  0  0  0
 23 37  1  0  0  0
 23 38  1  0  0  0
 24 25  2  0  0  0
 25 26  1  0  0  0
 25 39  1  0  0  0
 26 27  2  0  0  0
M  CHG  3   2  -1   3  -1   6  -1
M  END
> <s_m_source_file>
../2y8l_ligand.sdf

> <i_m_source_file_index>
1

> <s_epik_input>
W09IXVAoPU8pKFtPSF0pT1tQQEBdKD1PKShbT0hdKU9bQ0gyXVtDQEhdMU9bQ0BIXShbQ0BIXShbT0hdKVtDQEBIXTFbT0hdKW4oW2NIXW4yKWMoYzIzKW5bY0hdbmMzW05IMl0=

> <s_epik_cmdline>
J2VwaWtfYXBwJywgJy1pbWFlJywgJ2xpZ2FuZF9wcm8ubWFlJywgJy1vbWFlJywgJ2xpZ2FuZF9wcmVwLm1hZScsICctbXMnLCAnMScsICctcGgnLCAnNycsICctcGh0JywgJzAuNScsICctbnQn

> <r_lp_tautomer_probability>
0.999997216410988

> <r_epik_Ionization_Penalty>
  0.1037

> <r_epik_Ionization_Penalty_Charging>
  0.1033

> <r_epik_Ionization_Penalty_Neutral>
  0.0004

> <r_epik_State_Penalty>
  0.0922

> <r_epik_Charging_Adjusted_Penalty>
0.19546844050481

> <i_epik_Tot_Q>
-3

> <i_epik_Tot_abs_Q>
3

> <s_epik_Chemistry_Notes>
This compound contains an acetal/aminal-like group ( X-CH(R)-Y where X, Y are N, S, or O) that may be acid/base labile, releasing an aldehyde.

$$$$
