2y8o_ligand
                    3D
 Schrodinger Suite 2020-3.
122123  0  0  1  0            999 V2000
  -31.4450   51.3640   -1.1860 N   0  3  0  0  0  0
  -31.4660   50.0100   -0.6380 C   0  0  2  0  0  0
  -31.4170   50.0110    0.8860 C   0  0  0  0  0  0
  -30.5670   50.6670    1.4830 O   0  0  0  0  0  0
  -30.2690   49.2050   -1.1510 C   0  0  0  0  0  0
  -30.5520   48.4810   -2.4610 C   0  0  0  0  0  0
  -31.4380   48.8700   -3.2370 O   0  0  0  0  0  0
  -29.7820   47.4170   -2.7180 N   0  0  0  0  0  0
  -32.3240   49.2660    1.5270 N   0  0  0  0  0  0
  -32.1610   49.0900    2.9790 C   0  0  2  0  0  0
  -30.8950   48.2830    3.3280 C   0  0  0  0  0  0
  -30.4400   47.5020    2.4940 O   0  0  0  0  0  0
  -33.4390   48.3500    3.3980 C   0  0  0  0  0  0
  -34.0670   47.8460    2.1230 C   0  0  0  0  0  0
  -33.6030   48.7340    1.0210 C   0  0  0  0  0  0
  -30.3310   48.4810    4.5210 N   0  0  0  0  0  0
  -29.1010   47.8010    4.9200 C   0  0  0  0  0  0
  -29.3400   46.6800    5.9250 C   0  0  0  0  0  0
  -30.3660   46.6770    6.6040 O   0  0  0  0  0  0
  -28.4040   45.7330    6.0290 N   0  0  0  0  0  0
  -28.5650   44.5910    6.9370 C   0  0  2  0  0  0
  -27.2590   44.1920    7.6070 C   0  0  0  0  0  0
  -26.1820   44.3160    7.0130 O   0  0  0  0  0  0
  -29.1190   43.3760    6.1850 C   0  0  0  0  0  0
  -30.5610   43.4850    5.6850 C   0  0  0  0  0  0
  -30.8980   42.2870    4.8270 C   0  0  0  0  0  0
  -31.5340   43.5840    6.8650 C   0  0  0  0  0  0
  -27.3670   43.7180    8.8510 N   0  0  0  0  0  0
  -26.2550   43.0920    9.5510 C   0  0  2  0  0  0
  -26.1460   41.6610    9.0570 C   0  0  0  0  0  0
  -27.1550   40.9520    8.9820 O   0  0  0  0  0  0
  -26.5070   43.0510   11.0620 C   0  0  0  0  0  0
  -26.5660   44.4050   11.7450 C   0  0  0  0  0  0
  -27.3580   44.3320   13.0530 C   0  0  0  0  0  0
  -27.3350   45.6690   13.7760 C   0  0  0  0  0  0
  -27.8910   45.5660   15.1390 N   0  3  0  0  0  0
  -24.9280   41.2410    8.7280 N   0  0  0  0  0  0
  -24.6640   39.8770    8.2950 C   0  0  2  0  0  0
  -23.9120   39.1580    9.3940 C   0  0  0  0  0  0
  -22.8190   39.5720    9.7620 O   0  0  0  0  0  0
  -23.7980   39.8580    7.0290 C   0  0  2  0  0  0
  -24.6740   40.0070    5.7930 C   0  0  0  0  0  0
  -23.0150   38.5600    6.9370 C   0  0  0  0  0  0
  -25.2660   41.3630    5.6370 C   0  0  0  0  0  0
  -24.4860   38.0740    9.9280 N   0  0  0  0  0  0
  -23.8080   37.4340   11.0610 C   0  0  2  0  0  0
  -22.4470   36.8440   10.6630 C   0  0  0  0  0  0
  -22.2860   36.3800    9.5330 O   0  0  0  0  0  0
  -24.7870   36.3360   11.4830 C   0  0  0  0  0  0
  -25.5920   36.0390   10.2560 C   0  0  0  0  0  0
  -25.6710   37.3220    9.4760 C   0  0  0  0  0  0
  -21.4770   36.8740   11.5730 N   0  0  0  0  0  0
  -21.6630   37.4530   12.8960 C   0  0  2  0  0  0
  -20.3110   37.8200   13.4920 C   0  0  0  0  0  0
  -19.3051   37.0855   13.3015 O   0  0  0  0  0  0
  -22.3890   36.4660   13.8130 C   0  0  0  0  0  0
  -20.1969   38.8680   14.1822 O   0  5  0  0  0  0
  -32.3110   51.9264   -0.8070 H   0  0  0  0  0  0
  -31.4910   51.3159   -2.2840 H   0  0  0  0  0  0
  -30.5171   51.8692   -0.8797 H   0  0  0  0  0  0
  -32.4227   49.5947   -0.9876 H   0  0  0  0  0  0
  -29.4183   49.8812   -1.3215 H   0  0  0  0  0  0
  -29.9904   48.4463   -0.4048 H   0  0  0  0  0  0
  -29.0088   47.1109   -1.9980 H   0  0  0  0  0  0
  -29.9223   46.8486   -3.6492 H   0  0  0  0  0  0
  -32.0362   50.0679    3.4669 H   0  0  0  0  0  0
  -33.1777   47.5173    4.0676 H   0  0  0  0  0  0
  -34.1102   49.0457    3.9228 H   0  0  0  0  0  0
  -33.7492   46.8084    1.9430 H   0  0  0  0  0  0
  -35.1626   47.8834    2.2142 H   0  0  0  0  0  0
  -34.2972   49.5661    0.8321 H   0  0  0  0  0  0
  -33.4267   48.1840    0.0849 H   0  0  0  0  0  0
  -30.8214   49.1816    5.2129 H   0  0  0  0  0  0
  -28.6224   47.3590    4.0337 H   0  0  0  0  0  0
  -28.4155   48.5254    5.3840 H   0  0  0  0  0  0
  -27.4963   45.8232    5.4142 H   0  0  0  0  0  0
  -29.2688   44.9548    7.7001 H   0  0  0  0  0  0
  -28.5042   43.1853    5.2930 H   0  0  0  0  0  0
  -29.0938   42.4948    6.8429 H   0  0  0  0  0  0
  -30.6600   44.3907    5.0687 H   0  0  0  0  0  0
  -30.1923   42.2288    3.9852 H   0  0  0  0  0  0
  -31.9226   42.3896    4.4402 H   0  0  0  0  0  0
  -30.8243   41.3708    5.4313 H   0  0  0  0  0  0
  -31.2769   44.4592    7.4798 H   0  0  0  0  0  0
  -31.4625   42.6725    7.4766 H   0  0  0  0  0  0
  -32.5609   43.6913    6.4855 H   0  0  0  0  0  0
  -28.3442   43.8153    9.3467 H   0  0  0  0  0  0
  -25.3623   43.6938    9.3255 H   0  0  0  0  0  0
  -27.4706   42.5587   11.2598 H   0  0  0  0  0  0
  -25.6998   42.4878   11.5532 H   0  0  0  0  0  0
  -25.5451   44.7460   11.9719 H   0  0  0  0  0  0
  -27.0554   45.1307   11.0788 H   0  0  0  0  0  0
  -28.4028   44.0659   12.8347 H   0  0  0  0  0  0
  -26.9143   43.5679   13.7082 H   0  0  0  0  0  0
  -26.2975   46.0264   13.8529 H   0  0  0  0  0  0
  -27.9340   46.4003   13.2136 H   0  0  0  0  0  0
  -27.8555   46.5522   15.6249 H   0  0  0  0  0  0
  -27.2977   44.8476   15.7237 H   0  0  0  0  0  0
  -28.9342   45.2214   15.0844 H   0  0  0  0  0  0
  -24.1040   41.9668    8.7924 H   0  0  0  0  0  0
  -25.6469   39.4226    8.1019 H   0  0  0  0  0  0
  -23.0869   40.6959    7.0750 H   0  0  0  0  0  0
  -24.0747   39.8067    4.8926 H   0  0  0  0  0  0
  -25.5073   39.2909    5.8457 H   0  0  0  0  0  0
  -22.3811   38.4502    7.8293 H   0  0  0  0  0  0
  -22.3822   38.5765    6.0374 H   0  0  0  0  0  0
  -23.7146   37.7132    6.8777 H   0  0  0  0  0  0
  -25.8822   41.3915    4.7262 H   0  0  0  0  0  0
  -24.4604   42.1079    5.5581 H   0  0  0  0  0  0
  -25.8930   41.5921    6.5113 H   0  0  0  0  0  0
  -23.5985   38.1757   11.8459 H   0  0  0  0  0  0
  -24.2244   35.4536   11.8220 H   0  0  0  0  0  0
  -25.4200   36.7047   12.3036 H   0  0  0  0  0  0
  -25.0919   35.2534    9.6707 H   0  0  0  0  0  0
  -26.5948   35.6952   10.5497 H   0  0  0  0  0  0
  -26.5800   37.8967    9.7069 H   0  0  0  0  0  0
  -25.6080   37.1562    8.3904 H   0  0  0  0  0  0
  -20.5056   36.4394   11.2944 H   0  0  0  0  0  0
  -22.2746   38.3561   12.7529 H   0  0  0  0  0  0
  -23.3639   36.2070   13.3743 H   0  0  0  0  0  0
  -22.5418   36.9269   14.8000 H   0  0  0  0  0  0
  -21.7830   35.5547   13.9237 H   0  0  0  0  0  0
  1  2  1  0  0  0
  1 58  1  0  0  0
  1 59  1  0  0  0
  1 60  1  0  0  0
  2  3  1  0  0  0
  2  5  1  0  0  0
  2 61  1  0  0  0
  3  4  2  0  0  0
  3  9  1  0  0  0
  5  6  1  0  0  0
  5 62  1  0  0  0
  5 63  1  0  0  0
  6  7  2  0  0  0
  6  8  1  0  0  0
  8 64  1  0  0  0
  8 65  1  0  0  0
  9 10  1  0  0  0
  9 15  1  0  0  0
 10 11  1  0  0  0
 10 13  1  0  0  0
 10 66  1  0  0  0
 11 12  2  0  0  0
 11 16  1  0  0  0
 13 14  1  0  0  0
 13 67  1  0  0  0
 13 68  1  0  0  0
 14 15  1  0  0  0
 14 69  1  0  0  0
 14 70  1  0  0  0
 15 71  1  0  0  0
 15 72  1  0  0  0
 16 17  1  0  0  0
 16 73  1  0  0  0
 17 18  1  0  0  0
 17 74  1  0  0  0
 17 75  1  0  0  0
 18 19  2  0  0  0
 18 20  1  0  0  0
 20 21  1  0  0  0
 20 76  1  0  0  0
 21 22  1  0  0  0
 21 24  1  0  0  0
 21 77  1  0  0  0
 22 23  2  0  0  0
 22 28  1  0  0  0
 24 25  1  0  0  0
 24 78  1  0  0  0
 24 79  1  0  0  0
 25 26  1  0  0  0
 25 27  1  0  0  0
 25 80  1  0  0  0
 26 81  1  0  0  0
 26 82  1  0  0  0
 26 83  1  0  0  0
 27 84  1  0  0  0
 27 85  1  0  0  0
 27 86  1  0  0  0
 28 29  1  0  0  0
 28 87  1  0  0  0
 29 30  1  0  0  0
 29 32  1  0  0  0
 29 88  1  0  0  0
 30 31  2  0  0  0
 30 37  1  0  0  0
 32 33  1  0  0  0
 32 89  1  0  0  0
 32 90  1  0  0  0
 33 34  1  0  0  0
 33 91  1  0  0  0
 33 92  1  0  0  0
 34 35  1  0  0  0
 34 93  1  0  0  0
 34 94  1  0  0  0
 35 36  1  0  0  0
 35 95  1  0  0  0
 35 96  1  0  0  0
 36 97  1  0  0  0
 36 98  1  0  0  0
 36 99  1  0  0  0
 37 38  1  0  0  0
 37100  1  0  0  0
 38 39  1  0  0  0
 38 41  1  0  0  0
 38101  1  0  0  0
 39 40  2  0  0  0
 39 45  1  0  0  0
 41 42  1  0  0  0
 41 43  1  0  0  0
 41102  1  0  0  0
 42 44  1  0  0  0
 42103  1  0  0  0
 42104  1  0  0  0
 43105  1  0  0  0
 43106  1  0  0  0
 43107  1  0  0  0
 44108  1  0  0  0
 44109  1  0  0  0
 44110  1  0  0  0
 45 46  1  0  0  0
 45 51  1  0  0  0
 46 47  1  0  0  0
 46 49  1  0  0  0
 46111  1  0  0  0
 47 48  2  0  0  0
 47 52  1  0  0  0
 49 50  1  0  0  0
 49112  1  0  0  0
 49113  1  0  0  0
 50 51  1  0  0  0
 50114  1  0  0  0
 50115  1  0  0  0
 51116  1  0  0  0
 51117  1  0  0  0
 52 53  1  0  0  0
 52118  1  0  0  0
 53 54  1  0  0  0
 53 56  1  0  0  0
 53119  1  0  0  0
 54 55  2  0  0  0
 54 57  1  0  0  0
 56120  1  0  0  0
 56121  1  0  0  0
 56122  1  0  0  0
M  CHG  3   1   1  36   1  57  -1
M  END
> <s_m_source_file>
../2y8o_ligand.sdf

> <i_m_source_file_index>
1

> <s_epik_input>
Tz1DKFtOSDJdKVtDSDJdW0NASF0oW05IMytdKUMoPU8pTjFbQ0BASF0oW0NIMl1bQ0gyXVtDSDJdMSlDKD1PKVtOSF1bQ0gyXUMoPU8pW05IXVtDQEBIXShbQ0gyXVtDSF0oW0NIM10pW0NIM10pQyg9TylbTkhdW0NAQEhdKFtDSDJdW0NIMl1bQ0gyXVtDSDJdW05IMytdKUMoPU8pW05IXVtDQEBIXShbQ0BASF0oW0NIM10pW0NIMl1bQ0gzXSlDKD1PKU4yW0NAQEhdKFtDSDJdW0NIMl1bQ0gyXTIpQyg9TylbTkhdW0NAQEhdKFtDSDNdKUMoPU8pW09IXQ==

> <s_epik_cmdline>
J2VwaWtfYXBwJywgJy1pbWFlJywgJ2xpZ2FuZF9wcm8ubWFlJywgJy1vbWFlJywgJ2xpZ2FuZF9wcmVwLm1hZScsICctbXMnLCAnMScsICctcGgnLCAnNycsICctcGh0JywgJzAuNScsICctbnQn

> <r_epik_Ionization_Penalty>
  0.1956

> <r_epik_Ionization_Penalty_Charging>
  0.1956

> <r_epik_Ionization_Penalty_Neutral>
  0.0000

> <r_epik_State_Penalty>
  0.1847

> <r_epik_Charging_Adjusted_Penalty>
0.380345239163644

> <i_epik_Tot_Q>
1

> <i_epik_Tot_abs_Q>
3

$$$$
