2y8q_ligand
                    3D
 Schrodinger Suite 2020-3.
 39 41  0  0  1  0            999 V2000
   26.9930   67.2870   25.4890 P   0  0  0  0  0  0
   26.3690   65.9120   25.6990 O   0  5  0  0  0  0
   28.4830   67.3380   25.6740 O   0  0  0  0  0  0
   26.4450   68.0090   24.2730 O   0  5  0  0  0  0
   27.0640   69.6510   27.0740 P   0  0  2  0  0  0
   26.0650   70.2110   28.0580 O   0  5  0  0  0  0
   27.3660   70.4050   25.8130 O   0  0  0  0  0  0
   26.5390   68.1570   26.7660 O   0  0  0  0  0  0
   28.4550   69.4780   27.8440 O   0  0  0  0  0  0
   29.2190   70.6660   28.0540 C   0  0  0  0  0  0
   30.1050   70.5580   29.2970 C   0  0  1  0  0  0
   29.4300   71.0770   30.4520 O   0  0  0  0  0  0
   30.4810   69.1220   29.6400 C   0  0  1  0  0  0
   31.8440   69.1370   30.0790 O   0  0  0  0  0  0
   29.5370   68.7210   30.7630 C   0  0  1  0  0  0
   30.1120   67.7750   31.6700 O   0  0  0  0  0  0
   29.2100   70.0480   31.4370 C   0  0  2  0  0  0
   27.7980   70.0530   31.9010 N   0  0  0  0  0  0
   26.7510   69.5440   31.2230 C   0  0  0  0  0  0
   25.6000   69.7020   31.9300 N   0  0  0  0  0  0
   25.9050   70.3360   33.0790 C   0  0  0  0  0  0
   25.1470   70.8180   34.2630 C   0  0  0  0  0  0
   23.8070   70.6310   34.3500 N   0  0  0  0  0  0
   25.8470   71.4390   35.2440 N   0  0  0  0  0  0
   27.1850   71.6090   35.1510 C   0  0  0  0  0  0
   27.9300   71.2000   34.1010 N   0  0  0  0  0  0
   27.3580   70.5670   33.0530 C   0  0  0  0  0  0
   29.8661   70.8446   27.1826 H   0  0  0  0  0  0
   28.5391   71.5204   28.1871 H   0  0  0  0  0  0
   30.9995   71.1686   29.1045 H   0  0  0  0  0  0
   30.4516   68.4044   28.8069 H   0  0  0  0  0  0
   32.6453   69.4089   29.3761 H   0  0  0  0  0  0
   28.6613   68.1465   30.4265 H   0  0  0  0  0  0
   30.3962   66.7739   31.3136 H   0  0  0  0  0  0
   29.8426   70.2623   32.3110 H   0  0  0  0  0  0
   26.8172   69.0709   30.2432 H   0  0  0  0  0  0
   23.2686   70.1232   33.5363 H   0  0  0  0  0  0
   23.2582   70.9871   35.2343 H   0  0  0  0  0  0
   27.6948   72.1076   35.9754 H   0  0  0  0  0  0
  1  2  1  0  0  0
  1  3  2  0  0  0
  1  4  1  0  0  0
  1  8  1  0  0  0
  5  6  1  0  0  0
  5  7  2  0  0  0
  5  8  1  0  0  0
  5  9  1  0  0  0
  9 10  1  0  0  0
 10 11  1  0  0  0
 10 28  1  0  0  0
 10 29  1  0  0  0
 11 12  1  0  0  0
 11 13  1  0  0  0
 11 30  1  0  0  0
 12 17  1  0  0  0
 13 14  1  0  0  0
 13 15  1  0  0  0
 13 31  1  0  0  0
 14 32  1  0  0  0
 15 16  1  0  0  0
 15 17  1  0  0  0
 15 33  1  0  0  0
 16 34  1  0  0  0
 17 18  1  0  0  0
 17 35  1  0  0  0
 18 19  1  0  0  0
 18 27  1  0  0  0
 19 20  2  0  0  0
 19 36  1  0  0  0
 20 21  1  0  0  0
 21 22  2  0  0  0
 21 27  1  0  0  0
 22 23  1  0  0  0
 22 24  1  0  0  0
 23 37  1  0  0  0
 23 38  1  0  0  0
 24 25  2  0  0  0
 25 26  1  0  0  0
 25 39  1  0  0  0
 26 27  2  0  0  0
M  CHG  3   2  -1   4  -1   6  -1
M  END
> <s_m_source_file>
../2y8q_ligand.sdf

> <i_m_source_file_index>
1

> <s_epik_input>
W09IXVAoPU8pKFtPSF0pT1tQQEBdKD1PKShbT0hdKU9bQ0gyXVtDQEhdMU9bQ0BIXShbQ0BIXShbT0hdKVtDQEBIXTFbT0hdKW4oW2NIXW4yKWMoYzIzKW5bY0hdbmMzW05IMl0=

> <s_epik_cmdline>
J2VwaWtfYXBwJywgJy1pbWFlJywgJ2xpZ2FuZF9wcm8ubWFlJywgJy1vbWFlJywgJ2xpZ2FuZF9wcmVwLm1hZScsICctbXMnLCAnMScsICctcGgnLCAnNycsICctcGh0JywgJzAuNScsICctbnQn

> <r_lp_tautomer_probability>
0.999997216410988

> <r_epik_Ionization_Penalty>
  0.1037

> <r_epik_Ionization_Penalty_Charging>
  0.1033

> <r_epik_Ionization_Penalty_Neutral>
  0.0004

> <r_epik_State_Penalty>
  0.0922

> <r_epik_Charging_Adjusted_Penalty>
0.19546844050481

> <i_epik_Tot_Q>
-3

> <i_epik_Tot_abs_Q>
3

> <s_epik_Chemistry_Notes>
This compound contains an acetal/aminal-like group ( X-CH(R)-Y where X, Y are N, S, or O) that may be acid/base labile, releasing an aldehyde.

$$$$
