2y9q_ligand
                    3D
 Schrodinger Suite 2020-3.
295296  0  0  1  0            999 V2000
   55.0030   45.5030   -1.6070 N   0  3  0  0  0  0
   56.1670   45.9540   -0.8570 C   0  0  2  0  0  0
   57.3200   46.2700   -1.7970 C   0  0  0  0  0  0
   57.6090   45.5140   -2.7200 O   0  0  0  0  0  0
   56.6080   44.8780    0.1330 C   0  0  0  0  0  0
   56.9950   45.4230    1.4970 C   0  0  0  0  0  0
   57.6670   44.1540    2.5780 S   0  0  0  0  0  0
   58.8430   43.4320    1.4720 C   0  0  0  0  0  0
   57.9850   47.3900   -1.5510 N   0  0  0  0  0  0
   59.1820   47.7590   -2.2980 C   0  0  2  0  0  0
   60.4220   47.3790   -1.4880 C   0  0  0  0  0  0
   60.6930   47.9690   -0.4520 O   0  0  0  0  0  0
   59.1830   49.2600   -2.5720 C   0  0  0  0  0  0
   60.5160   49.8220   -3.0540 C   0  0  0  0  0  0
   60.8790   49.3510   -4.4580 C   0  0  0  0  0  0
   61.8590   50.3260   -5.1190 C   0  0  0  0  0  0
   62.3450   49.8490   -6.4480 N   0  3  0  0  0  0
   61.1750   46.4020   -1.9650 N   0  0  0  0  0  0
   62.3880   45.9870   -1.2760 C   0  0  2  0  0  0
   63.5040   47.0040   -1.4720 C   0  0  0  0  0  0
   63.7160   47.5430   -2.5780 O   0  0  0  0  0  0
   62.8700   44.6350   -1.8000 C   0  0  0  0  0  0
   61.9890   43.4210   -1.5230 C   0  0  0  0  0  0
   62.4460   42.2400   -2.3850 C   0  0  0  0  0  0
   62.0170   43.0620   -0.0230 C   0  0  0  0  0  0
   64.2130   47.2680   -0.3830 N   0  0  0  0  0  0
   65.4510   48.0160   -0.4370 C   0  0  2  0  0  0
   66.5140   47.1120   -1.0330 C   0  0  0  0  0  0
   66.3280   45.9060   -1.1220 O   0  0  0  0  0  0
   65.8580   48.4630    0.9630 C   0  0  0  0  0  0
   64.8890   49.3540    1.4950 O   0  0  0  0  0  0
   67.6310   47.6990   -1.4650 N   0  0  0  0  0  0
   68.7250   46.8550   -1.9450 C   0  0  2  0  0  0
   69.2350   45.9780   -0.8140 C   0  0  0  0  0  0
   69.2420   46.4080    0.3420 O   0  0  0  0  0  0
   69.7990   47.8680   -2.3600 C   0  0  0  0  0  0
   69.0970   49.1500   -2.5240 C   0  0  0  0  0  0
   67.9470   49.1320   -1.5670 C   0  0  0  0  0  0
   69.6520   44.7470   -1.1250 N   0  0  0  0  0  0
   70.1410   43.8930   -0.0400 C   0  0  2  0  0  0
   71.3050   44.5140    0.7330 C   0  0  0  0  0  0
   71.4540   44.2360    1.9120 O   0  0  0  0  0  0
   70.5890   42.6040   -0.7540 C   0  0  0  0  0  0
   70.0440   42.6740   -2.1100 C   0  0  0  0  0  0
   69.6720   44.0810   -2.4370 C   0  0  0  0  0  0
   72.0800   45.3790    0.0860 N   0  0  0  0  0  0
   73.2690   45.9430    0.7060 C   0  0  2  0  0  0
   72.9350   46.8280    1.9110 C   0  0  0  0  0  0
   73.8180   47.1710    2.6970 O   0  0  0  0  0  0
   74.0490   46.7460   -0.3290 C   0  0  0  0  0  0
   73.3210   47.8990   -0.7030 O   0  0  0  0  0  0
   71.6650   47.1990    2.0520 N   0  0  0  0  0  0
   71.2230   48.0270    3.1670 C   0  0  2  0  0  0
   70.8370   47.1820    4.3860 C   0  0  0  0  0  0
   70.6470   47.7100    5.4810 O   0  0  0  0  0  0
   70.0250   48.8880    2.7480 C   0  0  0  0  0  0
   70.2700   49.7840    1.5500 C   0  0  0  0  0  0
   71.0090   51.0360    1.9310 C   0  0  0  0  0  0
   71.0230   52.0340    0.7790 C   0  0  0  0  0  0
   69.6430   52.3820    0.3060 N   0  3  0  0  0  0
   70.7300   45.8710    4.1940 N   0  0  0  0  0  0
   70.3290   44.9670    5.2630 C   0  0  2  0  0  0
   71.4930   44.7970    6.2450 C   0  0  0  0  0  0
   72.6510   44.8120    5.8300 O   0  0  0  0  0  0
   69.9170   43.6180    4.6510 C   0  0  0  0  0  0
   69.4540   42.6990    5.6090 O   0  0  0  0  0  0
   71.1940   44.6270    7.5320 N   0  0  0  0  0  0
   72.2420   44.5840    8.5660 C   0  0  2  0  0  0
   73.2160   43.4170    8.3760 C   0  0  0  0  0  0
   74.4250   43.6040    8.4700 O   0  0  0  0  0  0
   71.6200   44.5470    9.9750 C   0  0  0  0  0  0
   71.1400   45.8850   10.4690 C   0  0  0  0  0  0
   70.2460   45.7260   11.6970 C   0  0  0  0  0  0
   68.9860   45.0530   11.3650 N   0  0  0  0  0  0
   68.0130   44.8110   12.2380 C   0  0  0  0  0  0
   68.1440   45.1830   13.5040 N   0  0  0  0  0  0
   66.9080   44.1940   11.8460 N   0  0  0  0  0  0
   72.7000   42.2190    8.1020 N   0  0  0  0  0  0
   73.5450   41.0450    7.8840 C   0  0  2  0  0  0
   74.4100   41.2240    6.6380 C   0  0  0  0  0  0
   75.6140   40.9520    6.6610 O   0  0  0  0  0  0
   72.6590   39.7990    7.7660 C   0  0  0  0  0  0
   73.2560   38.4970    7.2400 C   0  0  0  0  0  0
   74.3320   37.9850    8.1740 C   0  0  0  0  0  0
   72.1730   37.4530    7.0620 C   0  0  0  0  0  0
   73.8230   41.7010    5.5480 N   0  0  0  0  0  0
   74.6220   42.0270    4.3630 C   0  0  2  0  0  0
   75.7280   43.0280    4.6810 C   0  0  0  0  0  0
   76.8410   42.9310    4.1500 O   0  0  0  0  0  0
   73.7390   42.5870    3.2600 C   0  0  0  0  0  0
   75.4190   44.0210    5.5070 N   0  0  0  0  0  0
   76.3990   45.0640    5.8180 C   0  0  2  0  0  0
   77.5610   44.4730    6.6050 C   0  0  0  0  0  0
   78.7150   44.8690    6.4100 O   0  0  0  0  0  0
   75.7510   46.2240    6.5800 C   0  0  0  0  0  0
   74.8640   47.1060    5.7130 C   0  0  0  0  0  0
   74.2600   48.2770    6.4810 C   0  0  0  0  0  0
   73.9650   49.3920    5.5720 N   0  0  0  0  0  0
   72.8580   50.1360    5.5970 C   0  0  0  0  0  0
   71.9010   49.9090    6.4900 N   0  0  0  0  0  0
   72.7080   51.1180    4.7170 N   0  0  0  0  0  0
   77.2680   43.5170    7.4890 N   0  0  0  0  0  0
   78.3380   42.8170    8.2140 C   0  0  2  0  0  0
   79.2570   42.0810    7.2410 C   0  0  0  0  0  0
   80.4780   42.0880    7.4010 O   0  0  0  0  0  0
   77.7770   41.8080    9.2250 C   0  0  0  0  0  0
   76.9450   42.4240   10.3240 C   0  0  0  0  0  0
   76.9800   41.6050   11.6290 C   0  0  0  0  0  0
   76.4700   40.2430   11.4800 N   0  0  0  0  0  0
   75.1820   39.9000   11.5840 C   0  0  0  0  0  0
   74.2450   40.8140   11.8230 N   0  0  0  0  0  0
   74.8310   38.6410   11.4460 N   0  0  0  0  0  0
   78.6730   41.4620    6.2200 N   0  0  0  0  0  0
   79.4520   40.7210    5.2340 C   0  0  2  0  0  0
   80.3030   41.6090    4.3360 C   0  0  0  0  0  0
   81.3240   41.1700    3.8080 O   0  0  0  0  0  0
   78.5260   39.8770    4.3660 C   0  0  0  0  0  0
   77.8490   38.7860    5.1360 C   0  0  0  0  0  0
   78.8390   37.7160    5.5510 C   0  0  0  0  0  0
   78.1130   36.6710    6.2550 N   0  0  0  0  0  0
   77.8340   36.7090    7.5490 C   0  0  0  0  0  0
   78.2430   37.7240    8.2900 N   0  0  0  0  0  0
   77.1320   35.7370    8.0960 N   0  0  0  0  0  0
   79.8810   42.8530    4.1560 N   0  0  0  0  0  0
   80.5850   43.7700    3.2620 C   0  0  2  0  0  0
   81.8650   44.3060    3.8840 C   0  0  0  0  0  0
   82.7440   44.7950    3.1760 O   0  0  0  0  0  0
   79.6750   44.9150    2.8660 C   0  0  0  0  0  0
   81.9710   44.2210    5.2050 N   0  0  0  0  0  0
   83.1560   44.7220    5.8950 C   0  0  2  0  0  0
   84.3730   43.8390    5.6290 C   0  0  0  0  0  0
   84.2430   42.6370    5.3870 O   0  0  0  0  0  0
   82.8940   44.8040    7.3920 C   0  0  0  0  0  0
   81.7390   45.7250    7.7870 C   0  0  0  0  0  0
   81.3190   45.4530    9.2250 C   0  0  0  0  0  0
   82.1210   47.1860    7.5890 C   0  0  0  0  0  0
   85.5262   44.3458    5.6572 O   0  0  0  0  0  0
   54.6969   46.2870   -2.3152 H   0  0  0  0  0  0
   54.1769   45.2944   -0.9113 H   0  0  0  0  0  0
   55.2561   44.5870   -2.1609 H   0  0  0  0  0  0
   55.8438   46.8643   -0.3308 H   0  0  0  0  0  0
   55.7863   44.1632    0.2877 H   0  0  0  0  0  0
   57.4845   44.3479   -0.2679 H   0  0  0  0  0  0
   57.7591   46.2050    1.3761 H   0  0  0  0  0  0
   56.1074   45.8503    1.9865 H   0  0  0  0  0  0
   59.3674   42.6094    1.9803 H   0  0  0  0  0  0
   59.5718   44.1955    1.1622 H   0  0  0  0  0  0
   58.3213   43.0421    0.5856 H   0  0  0  0  0  0
   57.6081   48.0495   -0.7554 H   0  0  0  0  0  0
   59.1495   47.2030   -3.2466 H   0  0  0  0  0  0
   58.4417   49.4910   -3.3512 H   0  0  0  0  0  0
   58.9261   49.8013   -1.6495 H   0  0  0  0  0  0
   60.4667   50.9208   -3.0691 H   0  0  0  0  0  0
   61.3174   49.5003   -2.3727 H   0  0  0  0  0  0
   61.3487   48.3579   -4.4016 H   0  0  0  0  0  0
   59.9681   49.2914   -5.0717 H   0  0  0  0  0  0
   61.3639   51.2963   -5.2717 H   0  0  0  0  0  0
   62.7367   50.4604   -4.4696 H   0  0  0  0  0  0
   63.0418   50.5879   -6.8704 H   0  0  0  0  0  0
   61.4892   49.7219   -7.1273 H   0  0  0  0  0  0
   62.8620   48.8858   -6.3252 H   0  0  0  0  0  0
   60.8728   45.9011   -2.8966 H   0  0  0  0  0  0
   62.0985   45.9268   -0.2165 H   0  0  0  0  0  0
   62.9690   44.6802   -2.8946 H   0  0  0  0  0  0
   63.8461   44.3954   -1.3531 H   0  0  0  0  0  0
   60.9527   43.6683   -1.7969 H   0  0  0  0  0  0
   62.4149   42.5271   -3.4464 H   0  0  0  0  0  0
   61.7770   41.3831   -2.2172 H   0  0  0  0  0  0
   63.4742   41.9618   -2.1103 H   0  0  0  0  0  0
   61.6844   43.9283    0.5676 H   0  0  0  0  0  0
   63.0419   42.7902    0.2699 H   0  0  0  0  0  0
   61.3447   42.2115    0.1630 H   0  0  0  0  0  0
   63.8344   46.9000    0.5820 H   0  0  0  0  0  0
   65.2806   48.9012   -1.0673 H   0  0  0  0  0  0
   65.9377   47.5842    1.6198 H   0  0  0  0  0  0
   66.8304   48.9751    0.9162 H   0  0  0  0  0  0
   65.0242   49.7764    2.5016 H   0  0  0  0  0  0
   68.3927   46.1904   -2.7561 H   0  0  0  0  0  0
   70.5668   47.9306   -1.5748 H   0  0  0  0  0  0
   70.2641   47.5438   -3.3026 H   0  0  0  0  0  0
   69.7854   49.9769   -2.2950 H   0  0  0  0  0  0
   68.7431   49.2442   -3.5612 H   0  0  0  0  0  0
   67.0693   49.6748   -1.9477 H   0  0  0  0  0  0
   68.2154   49.5199   -0.5733 H   0  0  0  0  0  0
   69.3349   43.7595    0.6965 H   0  0  0  0  0  0
   71.6879   42.5580   -0.7724 H   0  0  0  0  0  0
   70.1944   41.7301   -0.2149 H   0  0  0  0  0  0
   70.8002   42.3230   -2.8276 H   0  0  0  0  0  0
   69.1496   42.0374   -2.1790 H   0  0  0  0  0  0
   68.6769   44.1533   -2.9001 H   0  0  0  0  0  0
   70.4144   44.5698   -3.0851 H   0  0  0  0  0  0
   71.8056   45.6665   -0.9397 H   0  0  0  0  0  0
   73.8443   45.0726    1.0545 H   0  0  0  0  0  0
   75.0153   47.0532    0.0975 H   0  0  0  0  0  0
   74.2224   46.1250   -1.2203 H   0  0  0  0  0  0
   73.7379   48.5961   -1.4448 H   0  0  0  0  0  0
   70.9405   46.8622    1.2960 H   0  0  0  0  0  0
   72.0977   48.6489    3.4083 H   0  0  0  0  0  0
   69.1784   48.2360    2.4867 H   0  0  0  0  0  0
   69.7373   49.5463    3.5810 H   0  0  0  0  0  0
   70.8700   49.2425    0.8038 H   0  0  0  0  0  0
   69.3064   50.0736    1.1055 H   0  0  0  0  0  0
   70.5167   51.5033    2.7966 H   0  0  0  0  0  0
   72.0474   50.7838    2.1919 H   0  0  0  0  0  0
   71.5143   52.9628    1.1045 H   0  0  0  0  0  0
   71.5749   51.6056   -0.0706 H   0  0  0  0  0  0
   69.7102   53.1024   -0.5226 H   0  0  0  0  0  0
   69.0731   52.8281    1.1344 H   0  0  0  0  0  0
   69.1336   51.4708   -0.0407 H   0  0  0  0  0  0
   70.9544   45.4738    3.1930 H   0  0  0  0  0  0
   69.4732   45.4235    5.7818 H   0  0  0  0  0  0
   69.1082   43.7775    3.9227 H   0  0  0  0  0  0
   70.7824   43.1655    4.1447 H   0  0  0  0  0  0
   69.1287   41.6957    5.2965 H   0  0  0  0  0  0
   70.1368   44.5175    7.8155 H   0  0  0  0  0  0
   72.8024   45.5188    8.4170 H   0  0  0  0  0  0
   70.7521   43.8712    9.9750 H   0  0  0  0  0  0
   72.3672   44.1843   10.6962 H   0  0  0  0  0  0
   72.0053   46.5075   10.7407 H   0  0  0  0  0  0
   70.5642   46.3838    9.6755 H   0  0  0  0  0  0
   70.7696   45.1269   12.4566 H   0  0  0  0  0  0
   70.0110   46.7179   12.1104 H   0  0  0  0  0  0
   68.7990   44.7122   10.3360 H   0  0  0  0  0  0
   69.0594   45.6956   13.8347 H   0  0  0  0  0  0
   67.3373   44.9790   14.2235 H   0  0  0  0  0  0
   66.7942   43.8833   10.7970 H   0  0  0  0  0  0
   71.6055   42.1277    8.0417 H   0  0  0  0  0  0
   74.2063   40.9633    8.7592 H   0  0  0  0  0  0
   72.2652   39.5338    8.7583 H   0  0  0  0  0  0
   71.8222   40.0074    7.0831 H   0  0  0  0  0  0
   73.7175   38.6911    6.2605 H   0  0  0  0  0  0
   75.1102   38.7533    8.2930 H   0  0  0  0  0  0
   74.7791   37.0724    7.7530 H   0  0  0  0  0  0
   73.8884   37.7573    9.1545 H   0  0  0  0  0  0
   71.3996   37.8393    6.3818 H   0  0  0  0  0  0
   71.7212   37.2233    8.0383 H   0  0  0  0  0  0
   72.6118   36.5383    6.6367 H   0  0  0  0  0  0
   72.7334   41.8517    5.5352 H   0  0  0  0  0  0
   75.0681   41.0705    4.0532 H   0  0  0  0  0  0
   72.9403   41.8669    3.0286 H   0  0  0  0  0  0
   74.3452   42.7641    2.3594 H   0  0  0  0  0  0
   73.2924   43.5353    3.5937 H   0  0  0  0  0  0
   74.4167   44.0557    5.9589 H   0  0  0  0  0  0
   76.7638   45.4351    4.8489 H   0  0  0  0  0  0
   75.1236   45.8251    7.3907 H   0  0  0  0  0  0
   76.5356   46.8667    7.0059 H   0  0  0  0  0  0
   75.4566   47.5192    4.8835 H   0  0  0  0  0  0
   74.0347   46.5071    5.3085 H   0  0  0  0  0  0
   73.3265   47.9551    6.9658 H   0  0  0  0  0  0
   74.9716   48.6194    7.2467 H   0  0  0  0  0  0
   74.6880   49.6713    4.7914 H   0  0  0  0  0  0
   72.0149   49.0977    7.2240 H   0  0  0  0  0  0
   70.9947   50.5324    6.4954 H   0  0  0  0  0  0
   73.4941   51.3148    3.9731 H   0  0  0  0  0  0
   76.2158   43.2543    7.6731 H   0  0  0  0  0  0
   78.8822   43.6158    8.7391 H   0  0  0  0  0  0
   77.1338   41.0846    8.7026 H   0  0  0  0  0  0
   78.6078   41.2757    9.7113 H   0  0  0  0  0  0
   77.3236   43.4319   10.5493 H   0  0  0  0  0  0
   75.8969   42.4907    9.9969 H   0  0  0  0  0  0
   78.0174   41.5296   11.9868 H   0  0  0  0  0  0
   76.3645   42.1042   12.3918 H   0  0  0  0  0  0
   77.1636   39.4162   11.2671 H   0  0  0  0  0  0
   74.5252   41.8712   11.9406 H   0  0  0  0  0  0
   73.1902   40.5124   11.9030 H   0  0  0  0  0  0
   75.5956   37.8754   11.2482 H   0  0  0  0  0  0
   77.5783   41.5170    6.1275 H   0  0  0  0  0  0
   80.1240   40.1033    5.8478 H   0  0  0  0  0  0
   77.7447   40.5183    3.9321 H   0  0  0  0  0  0
   79.1069   39.4088    3.5577 H   0  0  0  0  0  0
   77.3872   39.2080    6.0408 H   0  0  0  0  0  0
   77.0722   38.3228    4.5098 H   0  0  0  0  0  0
   79.3259   37.3002    4.6565 H   0  0  0  0  0  0
   79.6003   38.1570    6.2113 H   0  0  0  0  0  0
   77.7607   35.7830    5.7097 H   0  0  0  0  0  0
   78.8290   38.5361    7.8350 H   0  0  0  0  0  0
   77.9974   37.7567    9.3617 H   0  0  0  0  0  0
   76.7908   34.8914    7.4807 H   0  0  0  0  0  0
   78.9833   43.1907    4.6945 H   0  0  0  0  0  0
   80.8481   43.1681    2.3797 H   0  0  0  0  0  0
   78.7541   44.5134    2.4180 H   0  0  0  0  0  0
   80.1892   45.5560    2.1347 H   0  0  0  0  0  0
   79.4211   45.5068    3.7578 H   0  0  0  0  0  0
   81.1511   43.7659    5.7799 H   0  0  0  0  0  0
   83.3331   45.7245    5.4784 H   0  0  0  0  0  0
   82.6493   43.8030    7.7768 H   0  0  0  0  0  0
   83.7923   45.1830    7.9013 H   0  0  0  0  0  0
   80.8774   45.5183    7.1352 H   0  0  0  0  0  0
   81.0502   44.3919    9.3340 H   0  0  0  0  0  0
   80.4507   46.0791    9.4780 H   0  0  0  0  0  0
   82.1527   45.6915    9.9018 H   0  0  0  0  0  0
   82.4186   47.3486    6.5426 H   0  0  0  0  0  0
   82.9612   47.4385    8.2526 H   0  0  0  0  0  0
   81.2591   47.8261    7.8288 H   0  0  0  0  0  0
   86.4082   43.7167    5.4667 H   0  0  0  0  0  0
  1  2  1  0  0  0
  1138  1  0  0  0
  1139  1  0  0  0
  1140  1  0  0  0
  2  3  1  0  0  0
  2  5  1  0  0  0
  2141  1  0  0  0
  3  4  2  0  0  0
  3  9  1  0  0  0
  5  6  1  0  0  0
  5142  1  0  0  0
  5143  1  0  0  0
  6  7  1  0  0  0
  6144  1  0  0  0
  6145  1  0  0  0
  7  8  1  0  0  0
  8146  1  0  0  0
  8147  1  0  0  0
  8148  1  0  0  0
  9 10  1  0  0  0
  9149  1  0  0  0
 10 11  1  0  0  0
 10 13  1  0  0  0
 10150  1  0  0  0
 11 12  2  0  0  0
 11 18  1  0  0  0
 13 14  1  0  0  0
 13151  1  0  0  0
 13152  1  0  0  0
 14 15  1  0  0  0
 14153  1  0  0  0
 14154  1  0  0  0
 15 16  1  0  0  0
 15155  1  0  0  0
 15156  1  0  0  0
 16 17  1  0  0  0
 16157  1  0  0  0
 16158  1  0  0  0
 17159  1  0  0  0
 17160  1  0  0  0
 17161  1  0  0  0
 18 19  1  0  0  0
 18162  1  0  0  0
 19 20  1  0  0  0
 19 22  1  0  0  0
 19163  1  0  0  0
 20 21  2  0  0  0
 20 26  1  0  0  0
 22 23  1  0  0  0
 22164  1  0  0  0
 22165  1  0  0  0
 23 24  1  0  0  0
 23 25  1  0  0  0
 23166  1  0  0  0
 24167  1  0  0  0
 24168  1  0  0  0
 24169  1  0  0  0
 25170  1  0  0  0
 25171  1  0  0  0
 25172  1  0  0  0
 26 27  1  0  0  0
 26173  1  0  0  0
 27 28  1  0  0  0
 27 30  1  0  0  0
 27174  1  0  0  0
 28 29  2  0  0  0
 28 32  1  0  0  0
 30 31  1  0  0  0
 30175  1  0  0  0
 30176  1  0  0  0
 31177  1  0  0  0
 32 33  1  0  0  0
 32 38  1  0  0  0
 33 34  1  0  0  0
 33 36  1  0  0  0
 33178  1  0  0  0
 34 35  2  0  0  0
 34 39  1  0  0  0
 36 37  1  0  0  0
 36179  1  0  0  0
 36180  1  0  0  0
 37 38  1  0  0  0
 37181  1  0  0  0
 37182  1  0  0  0
 38183  1  0  0  0
 38184  1  0  0  0
 39 40  1  0  0  0
 39 45  1  0  0  0
 40 41  1  0  0  0
 40 43  1  0  0  0
 40185  1  0  0  0
 41 42  2  0  0  0
 41 46  1  0  0  0
 43 44  1  0  0  0
 43186  1  0  0  0
 43187  1  0  0  0
 44 45  1  0  0  0
 44188  1  0  0  0
 44189  1  0  0  0
 45190  1  0  0  0
 45191  1  0  0  0
 46 47  1  0  0  0
 46192  1  0  0  0
 47 48  1  0  0  0
 47 50  1  0  0  0
 47193  1  0  0  0
 48 49  2  0  0  0
 48 52  1  0  0  0
 50 51  1  0  0  0
 50194  1  0  0  0
 50195  1  0  0  0
 51196  1  0  0  0
 52 53  1  0  0  0
 52197  1  0  0  0
 53 54  1  0  0  0
 53 56  1  0  0  0
 53198  1  0  0  0
 54 55  2  0  0  0
 54 61  1  0  0  0
 56 57  1  0  0  0
 56199  1  0  0  0
 56200  1  0  0  0
 57 58  1  0  0  0
 57201  1  0  0  0
 57202  1  0  0  0
 58 59  1  0  0  0
 58203  1  0  0  0
 58204  1  0  0  0
 59 60  1  0  0  0
 59205  1  0  0  0
 59206  1  0  0  0
 60207  1  0  0  0
 60208  1  0  0  0
 60209  1  0  0  0
 61 62  1  0  0  0
 61210  1  0  0  0
 62 63  1  0  0  0
 62 65  1  0  0  0
 62211  1  0  0  0
 63 64  2  0  0  0
 63 67  1  0  0  0
 65 66  1  0  0  0
 65212  1  0  0  0
 65213  1  0  0  0
 66214  1  0  0  0
 67 68  1  0  0  0
 67215  1  0  0  0
 68 69  1  0  0  0
 68 71  1  0  0  0
 68216  1  0  0  0
 69 70  2  0  0  0
 69 78  1  0  0  0
 71 72  1  0  0  0
 71217  1  0  0  0
 71218  1  0  0  0
 72 73  1  0  0  0
 72219  1  0  0  0
 72220  1  0  0  0
 73 74  1  0  0  0
 73221  1  0  0  0
 73222  1  0  0  0
 74 75  1  0  0  0
 74223  1  0  0  0
 75 76  1  0  0  0
 75 77  2  0  0  0
 76224  1  0  0  0
 76225  1  0  0  0
 77226  1  0  0  0
 78 79  1  0  0  0
 78227  1  0  0  0
 79 80  1  0  0  0
 79 82  1  0  0  0
 79228  1  0  0  0
 80 81  2  0  0  0
 80 86  1  0  0  0
 82 83  1  0  0  0
 82229  1  0  0  0
 82230  1  0  0  0
 83 84  1  0  0  0
 83 85  1  0  0  0
 83231  1  0  0  0
 84232  1  0  0  0
 84233  1  0  0  0
 84234  1  0  0  0
 85235  1  0  0  0
 85236  1  0  0  0
 85237  1  0  0  0
 86 87  1  0  0  0
 86238  1  0  0  0
 87 88  1  0  0  0
 87 90  1  0  0  0
 87239  1  0  0  0
 88 89  2  0  0  0
 88 91  1  0  0  0
 90240  1  0  0  0
 90241  1  0  0  0
 90242  1  0  0  0
 91 92  1  0  0  0
 91243  1  0  0  0
 92 93  1  0  0  0
 92 95  1  0  0  0
 92244  1  0  0  0
 93 94  2  0  0  0
 93102  1  0  0  0
 95 96  1  0  0  0
 95245  1  0  0  0
 95246  1  0  0  0
 96 97  1  0  0  0
 96247  1  0  0  0
 96248  1  0  0  0
 97 98  1  0  0  0
 97249  1  0  0  0
 97250  1  0  0  0
 98 99  1  0  0  0
 98251  1  0  0  0
 99100  1  0  0  0
 99101  2  0  0  0
100252  1  0  0  0
100253  1  0  0  0
101254  1  0  0  0
102103  1  0  0  0
102255  1  0  0  0
103104  1  0  0  0
103106  1  0  0  0
103256  1  0  0  0
104105  2  0  0  0
104113  1  0  0  0
106107  1  0  0  0
106257  1  0  0  0
106258  1  0  0  0
107108  1  0  0  0
107259  1  0  0  0
107260  1  0  0  0
108109  1  0  0  0
108261  1  0  0  0
108262  1  0  0  0
109110  1  0  0  0
109263  1  0  0  0
110111  1  0  0  0
110112  2  0  0  0
111264  1  0  0  0
111265  1  0  0  0
112266  1  0  0  0
113114  1  0  0  0
113267  1  0  0  0
114115  1  0  0  0
114117  1  0  0  0
114268  1  0  0  0
115116  2  0  0  0
115124  1  0  0  0
117118  1  0  0  0
117269  1  0  0  0
117270  1  0  0  0
118119  1  0  0  0
118271  1  0  0  0
118272  1  0  0  0
119120  1  0  0  0
119273  1  0  0  0
119274  1  0  0  0
120121  1  0  0  0
120275  1  0  0  0
121122  1  0  0  0
121123  2  0  0  0
122276  1  0  0  0
122277  1  0  0  0
123278  1  0  0  0
124125  1  0  0  0
124279  1  0  0  0
125126  1  0  0  0
125128  1  0  0  0
125280  1  0  0  0
126127  2  0  0  0
126129  1  0  0  0
128281  1  0  0  0
128282  1  0  0  0
128283  1  0  0  0
129130  1  0  0  0
129284  1  0  0  0
130131  1  0  0  0
130133  1  0  0  0
130285  1  0  0  0
131132  2  0  0  0
131137  1  0  0  0
133134  1  0  0  0
133286  1  0  0  0
133287  1  0  0  0
134135  1  0  0  0
134136  1  0  0  0
134288  1  0  0  0
135289  1  0  0  0
135290  1  0  0  0
135291  1  0  0  0
136292  1  0  0  0
136293  1  0  0  0
136294  1  0  0  0
137295  1  0  0  0
M  CHG  3   1   1  17   1  60   1
M  END
> <s_m_source_file>
../2y9q_ligand.sdf

> <i_m_source_file_index>
1

> <s_epik_input>
W0NIM11TW0NIMl1bQ0gyXVtDQEhdKFtOSDMrXSlDKD1PKVtOSF1bQ0BASF0oW0NIMl1bQ0gyXVtDSDJdW0NIMl1bTkgzK10pQyg9TylbTkhdW0NAQEhdKFtDSDJdW0NIXShbQ0gzXSlbQ0gzXSlDKD1PKVtOSF1bQ0BASF0oW0NIMl1bT0hdKUMoPU8pTjFbQ0BASF0oW0NIMl1bQ0gyXVtDSDJdMSlDKD1PKU4yW0NAQEhdKFtDSDJdW0NIMl1bQ0gyXTIpQyg9TylbTkhdW0NAQEhdKFtDSDJdW09IXSlDKD1PKVtOSF1bQ0BASF0oW0NIMl1bQ0gyXVtDSDJdW0NIMl1bTkgzK10pQyg9TylbTkhdW0NAQEhdKFtDSDJdW09IXSlDKD1PKVtOSF1bQ0BASF0oW0NIMl1bQ0gyXVtDSDJdW05IXS9DKFtOSDJdKT1OXFtIXSlDKD1PKVtOSF1bQ0BASF0oW0NIMl1bQ0hdKFtDSDNdKVtDSDNdKUMoPU8pW05IXVtDQEBIXShbQ0gzXSlDKD1PKVtOSF1bQ0BASF0oW0NIMl1bQ0gyXVtDSDJdW05IXS9DKFtOSDJdKT1OXFtIXSlDKD1PKVtOSF1bQ0BASF0oW0NIMl1bQ0gyXVtDSDJdW05IXS9DKFtOSDJdKT1OXFtIXSlDKD1PKVtOSF1bQ0BASF0oW0NIMl1bQ0gyXVtDSDJdW05IXS9DKFtOSDJdKT1OXFtIXSlDKD1PKVtOSF1bQ0BASF0oW0NIM10pQyg9TylbTkhdW0NASF0oQyg9TylbT0hdKVtDSDJdW0NIXShbQ0gzXSlbQ0gzXQ==

> <s_epik_cmdline>
J2VwaWtfYXBwJywgJy1pbWFlJywgJ2xpZ2FuZF9wcm8ubWFlJywgJy1vbWFlJywgJ2xpZ2FuZF9wcmVwLm1hZScsICctbXMnLCAnMScsICctcGgnLCAnNycsICctcGh0JywgJzAuNScsICctbnQn

> <s_epik_pKa_notes>
Molecule size exceeds maximum supported for generating protonation states

> <s_epik_Chemistry_Notes>
This compound has an imine and may undergo hydrolysis.

$$$$
