2ya7_ligand
                    3D
 Schrodinger Suite 2020-3.
 43 43  0  0  1  0            999 V2000
   20.2480  -30.4970   15.6440 C   0  0  0  0  0  0
   20.3370  -31.5390   14.9830 O   0  0  0  0  0  0
   20.4640  -29.3550   15.2030 O   0  5  0  0  0  0
   19.8220  -30.6580   17.0990 C   0  0  0  0  0  0
   19.6530  -29.5290   17.8940 C   0  0  0  0  0  0
   19.2710  -29.5820   19.3860 C   0  0  1  0  0  0
   19.3310  -31.0240   19.9230 C   0  0  1  0  0  0
   18.5020  -31.2130   21.1440 N   0  0  0  0  0  0
   19.0090  -31.8720   22.1810 C   0  0  0  0  0  0
   20.1490  -32.3540   22.2010 O   0  0  0  0  0  0
   18.0620  -32.0400   23.3790 C   0  0  0  0  0  0
   18.9340  -32.0700   18.8450 C   0  0  1  0  0  0
   19.6430  -31.9260   17.5500 O   0  0  0  0  0  0
   19.2060  -33.5350   19.2550 C   0  0  2  0  0  0
   20.5830  -33.6650   19.6910 O   0  0  0  0  0  0
   18.9410  -34.5370   18.1240 C   0  0  2  0  0  0
   17.5750  -34.4800   17.6650 O   0  0  0  0  0  0
   19.3030  -35.9580   18.5720 C   0  0  0  0  0  0
   19.1560  -36.8640   17.4840 O   0  0  0  0  0  0
   20.3610  -28.8070   19.9730 N   0  0  0  0  0  0
   20.2420  -27.7630   20.7600 C   0  0  0  0  0  0
   19.0550  -27.3360   21.1300 N   0  3  0  0  0  0
   21.3580  -27.1620   21.2010 N   0  0  0  0  0  0
   19.7929  -28.5267   17.4628 H   0  0  0  0  0  0
   18.2744  -29.1826   19.6254 H   0  0  0  0  0  0
   20.3705  -31.1913   20.2415 H   0  0  0  0  0  0
   17.4796  -30.8090   21.1826 H   0  0  0  0  0  0
   17.1053  -31.5421   23.1627 H   0  0  0  0  0  0
   18.5171  -31.5875   24.2724 H   0  0  0  0  0  0
   17.8856  -33.1106   23.5596 H   0  0  0  0  0  0
   17.8653  -31.8567   18.6953 H   0  0  0  0  0  0
   18.5587  -33.7916   20.1065 H   0  0  0  0  0  0
   20.9663  -33.0263   20.5004 H   0  0  0  0  0  0
   19.5259  -34.2505   17.2375 H   0  0  0  0  0  0
   17.1543  -33.5288   17.3069 H   0  0  0  0  0  0
   20.3460  -35.9779   18.9210 H   0  0  0  0  0  0
   18.6363  -36.2652   19.3912 H   0  0  0  0  0  0
   19.3744  -37.9328   17.6250 H   0  0  0  0  0  0
   21.4056  -29.0835   19.7670 H   0  0  0  0  0  0
   18.1495  -27.8392   20.7600 H   0  0  0  0  0  0
   22.3441  -27.5310   20.8824 H   0  0  0  0  0  0
   21.2867  -26.3004   21.8811 H   0  0  0  0  0  0
   18.9673  -26.4755   21.8096 H   0  0  0  0  0  0
  1  2  2  0  0  0
  1  3  1  0  0  0
  1  4  1  0  0  0
  4  5  2  0  0  0
  4 13  1  0  0  0
  5  6  1  0  0  0
  5 24  1  0  0  0
  6  7  1  0  0  0
  6 20  1  0  0  0
  6 25  1  0  0  0
  7  8  1  0  0  0
  7 12  1  0  0  0
  7 26  1  0  0  0
  8  9  1  0  0  0
  8 27  1  0  0  0
  9 10  2  0  0  0
  9 11  1  0  0  0
 11 28  1  0  0  0
 11 29  1  0  0  0
 11 30  1  0  0  0
 12 13  1  0  0  0
 12 14  1  0  0  0
 12 31  1  0  0  0
 14 15  1  0  0  0
 14 16  1  0  0  0
 14 32  1  0  0  0
 15 33  1  0  0  0
 16 17  1  0  0  0
 16 18  1  0  0  0
 16 34  1  0  0  0
 17 35  1  0  0  0
 18 19  1  0  0  0
 18 36  1  0  0  0
 18 37  1  0  0  0
 19 38  1  0  0  0
 20 21  1  0  0  0
 20 39  1  0  0  0
 21 22  2  0  0  0
 21 23  1  0  0  0
 22 40  1  0  0  0
 22 43  1  0  0  0
 23 41  1  0  0  0
 23 42  1  0  0  0
M  CHG  2   3  -1  22   1
M  END
> <s_m_source_file>
../2ya7_ligand.sdf

> <i_m_source_file_index>
1

> <s_epik_input>
Tz1DKFtPSF0pQzE9W0NIXVtDQEhdKFtOSF0vQyg9TlxbSF0pW05IMl0pW0NAQEhdKFtOSF1DKD1PKVtDSDNdKVtDQEBIXShPMSlbQ0BIXShbT0hdKVtDQEhdKFtPSF0pW0NIMl1bT0hd

> <s_epik_cmdline>
J2VwaWtfYXBwJywgJy1pbWFlJywgJ2xpZ2FuZF9wcm8ubWFlJywgJy1vbWFlJywgJ2xpZ2FuZF9wcmVwLm1hZScsICctbXMnLCAnMScsICctcGgnLCAnNycsICctcGh0JywgJzAuNScsICctbnQn

> <r_lp_tautomer_probability>
1

> <r_epik_Ionization_Penalty>
  0.0006

> <r_epik_Ionization_Penalty_Charging>
  0.0006

> <r_epik_Ionization_Penalty_Neutral>
  0.0000

> <r_epik_State_Penalty>
 -0.0000

> <r_epik_Charging_Adjusted_Penalty>
0.000578302121615858

> <i_epik_Tot_Q>
0

> <i_epik_Tot_abs_Q>
2

> <s_epik_Chemistry_Notes>
This compound has an imine and may undergo hydrolysis.

$$$$
