2ya8_ligand
                    3D
 Schrodinger Suite 2020-3.
 44 44  0  0  1  0            999 V2000
   15.2630  -20.2890   44.7640 C   0  0  0  0  0  0
   16.1740  -20.3740   45.6350 O   0  5  0  0  0  0
   14.0770  -20.5560   45.0390 O   0  0  0  0  0  0
   15.5900  -19.8430   43.4040 C   0  0  0  0  0  0
   14.4990  -19.4280   42.4410 C   0  0  0  0  0  0
   15.0740  -18.4510   41.4040 C   0  0  1  0  0  0
   16.2840  -19.0580   40.7210 C   0  0  1  0  0  0
   16.7490  -18.2400   39.5950 N   0  0  0  0  0  0
   17.0470  -18.7480   38.3960 C   0  0  0  0  0  0
   16.8220  -19.9060   38.0580 O   0  0  0  0  0  0
   17.6810  -17.7630   37.4570 C   0  0  0  0  0  0
   17.3970  -19.1960   41.7500 C   0  0  1  0  0  0
   16.8890  -19.8220   43.0400 C   0  0  0  0  0  0
   18.3540  -20.0790   41.1950 O   0  0  0  0  0  0
   19.6620  -19.9490   41.7720 C   0  0  0  0  0  0
   20.4740  -18.8620   41.0620 C   0  0  0  0  0  0
   20.3640  -21.3120   41.6530 C   0  0  0  0  0  0
   19.8920  -22.2330   42.7550 C   0  0  0  0  0  0
   20.4130  -18.9930   39.5630 C   0  0  0  0  0  0
   14.0470  -18.1000   40.4400 N   0  3  0  0  0  0
   14.1055  -20.3176   41.9274 H   0  0  0  0  0  0
   13.6870  -18.9362   42.9967 H   0  0  0  0  0  0
   15.3755  -17.5028   41.8731 H   0  0  0  0  0  0
   16.0070  -20.0268   40.2799 H   0  0  0  0  0  0
   16.8668  -17.1531   39.7165 H   0  0  0  0  0  0
   17.7895  -16.7921   37.9625 H   0  0  0  0  0  0
   17.0459  -17.6440   36.5668 H   0  0  0  0  0  0
   18.6722  -18.1313   37.1537 H   0  0  0  0  0  0
   17.8678  -18.2239   41.9585 H   0  0  0  0  0  0
   17.6502  -20.2754   43.6919 H   0  0  0  0  0  0
   19.5087  -19.6468   42.8185 H   0  0  0  0  0  0
   20.0788  -17.8723   41.3345 H   0  0  0  0  0  0
   21.5281  -18.9329   41.3682 H   0  0  0  0  0  0
   20.1271  -21.7625   40.6778 H   0  0  0  0  0  0
   21.4518  -21.1729   41.7381 H   0  0  0  0  0  0
   20.3986  -23.2050   42.6626 H   0  0  0  0  0  0
   18.8046  -22.3769   42.6720 H   0  0  0  0  0  0
   20.1293  -21.7872   43.7322 H   0  0  0  0  0  0
   21.0094  -18.1928   39.1005 H   0  0  0  0  0  0
   19.3679  -18.9106   39.2300 H   0  0  0  0  0  0
   20.8172  -19.9713   39.2637 H   0  0  0  0  0  0
   13.1848  -17.6634   40.9654 H   0  0  0  0  0  0
   13.7279  -19.0031   39.8991 H   0  0  0  0  0  0
   14.4501  -17.3676   39.7251 H   0  0  0  0  0  0
  1  2  1  0  0  0
  1  3  2  0  0  0
  1  4  1  0  0  0
  4  5  1  0  0  0
  4 13  2  0  0  0
  5  6  1  0  0  0
  5 21  1  0  0  0
  5 22  1  0  0  0
  6  7  1  0  0  0
  6 20  1  0  0  0
  6 23  1  0  0  0
  7  8  1  0  0  0
  7 12  1  0  0  0
  7 24  1  0  0  0
  8  9  1  0  0  0
  8 25  1  0  0  0
  9 10  2  0  0  0
  9 11  1  0  0  0
 11 26  1  0  0  0
 11 27  1  0  0  0
 11 28  1  0  0  0
 12 13  1  0  0  0
 12 14  1  0  0  0
 12 29  1  0  0  0
 13 30  1  0  0  0
 14 15  1  0  0  0
 15 16  1  0  0  0
 15 17  1  0  0  0
 15 31  1  0  0  0
 16 19  1  0  0  0
 16 32  1  0  0  0
 16 33  1  0  0  0
 17 18  1  0  0  0
 17 34  1  0  0  0
 17 35  1  0  0  0
 18 36  1  0  0  0
 18 37  1  0  0  0
 18 38  1  0  0  0
 19 39  1  0  0  0
 19 40  1  0  0  0
 19 41  1  0  0  0
 20 42  1  0  0  0
 20 43  1  0  0  0
 20 44  1  0  0  0
M  CHG  2   2  -1  20   1
M  END
> <s_m_source_file>
../2ya8_ligand.sdf

> <i_m_source_file_index>
1

> <s_epik_input>
W09IXUMoPU8pQzE9W0NIXVtDQEhdKFtDQEBIXShbQ0BIXShbQ0gyXTEpW05IMytdKVtOSF1DKD1PKVtDSDNdKU9bQ0hdKFtDSDJdW0NIM10pW0NIMl1bQ0gzXQ==

> <s_epik_cmdline>
J2VwaWtfYXBwJywgJy1pbWFlJywgJ2xpZ2FuZF9wcm8ubWFlJywgJy1vbWFlJywgJ2xpZ2FuZF9wcmVwLm1hZScsICctbXMnLCAnMScsICctcGgnLCAnNycsICctcGh0JywgJzAuNScsICctbnQn

> <r_lp_tautomer_probability>
1

> <r_epik_Ionization_Penalty>
  0.0028

> <r_epik_Ionization_Penalty_Charging>
  0.0028

> <r_epik_Ionization_Penalty_Neutral>
  0.0000

> <r_epik_State_Penalty>
 -0.0000

> <r_epik_Charging_Adjusted_Penalty>
0.00284468522204639

> <i_epik_Tot_Q>
0

> <i_epik_Tot_abs_Q>
2

$$$$
