2yac_ligand
                    3D
 Schrodinger Suite 2020-3.
 64 68  0  0  1  0            999 V2000
  -43.9590   14.9870    8.0220 N   0  0  0  0  0  0
  -44.1700   13.7410    8.2110 C   0  0  0  0  0  0
  -43.8090   13.1160    9.4240 N   0  0  0  0  0  0
  -43.3490   15.7750    9.0310 C   0  0  0  0  0  0
  -42.9920   15.1850   10.1930 C   0  0  0  0  0  0
  -43.2490   13.7560   10.3590 C   0  0  0  0  0  0
  -41.4050   15.0950   12.2490 C   0  0  0  0  0  0
  -42.3310   15.9770   11.3250 C   0  0  0  0  0  0
  -41.8610   13.6450   12.3550 C   0  0  0  0  0  0
  -42.7240   13.0810   11.5410 C   0  0  0  0  0  0
  -42.9140   11.7630   11.9770 N   0  0  0  0  0  0
  -42.1370   11.5430   13.0760 N   0  0  0  0  0  0
  -41.4880   12.6220   13.3350 C   0  0  0  0  0  0
  -44.7020   12.9080    7.2190 N   0  0  0  0  0  0
  -40.5100   12.7420   14.4540 C   0  0  0  0  0  0
  -39.9820   13.8150   14.7380 O   0  0  0  0  0  0
  -45.1030   11.5140    7.2840 C   0  0  0  0  0  0
  -44.1950   10.5900    7.7200 C   0  0  0  0  0  0
  -44.5610    9.1340    7.7980 C   0  0  0  0  0  0
  -45.8160    8.7490    7.4230 C   0  0  0  0  0  0
  -46.7930    9.7320    6.9560 C   0  0  0  0  0  0
  -46.4740   11.0500    6.8830 C   0  0  0  0  0  0
  -47.3900   12.0330    6.4380 O   0  0  0  0  0  0
  -47.8580   11.9640    5.0760 C   0  0  0  0  0  0
  -48.8650   11.0480    4.9920 F   0  0  0  0  0  0
  -48.3360   13.2050    4.6730 F   0  0  0  0  0  0
  -46.8640   11.5500    4.2000 F   0  0  0  0  0  0
  -40.1710   11.6040   15.1920 N   0  0  0  0  0  0
  -43.7590   10.7660   11.3500 C   0  0  0  0  0  0
  -44.4220    9.8750   12.4020 C   0  0  0  0  0  0
  -43.6500    8.6770   12.5050 O   0  0  0  0  0  0
  -43.6220    8.1500    8.2490 N   0  0  0  0  0  0
  -44.1240    6.9210    8.9200 C   0  0  0  0  0  0
  -43.0780    6.2140    9.8120 C   0  0  0  0  0  0
  -41.7160    6.2730    9.2270 N   0  3  0  0  0  0
  -41.3080    7.6880    9.0880 C   0  0  0  0  0  0
  -42.1850    8.3700    8.0100 C   0  0  0  0  0  0
  -40.7770    5.5980   10.1270 C   0  0  0  0  0  0
  -43.1712   16.8386    8.8719 H   0  0  0  0  0  0
  -40.5253   15.4847   12.7613 H   0  0  0  0  0  0
  -42.4852   17.0452   11.4773 H   0  0  0  0  0  0
  -44.8718   13.2993    6.2051 H   0  0  0  0  0  0
  -43.1960   10.9119    8.0139 H   0  0  0  0  0  0
  -46.0932    7.6960    7.4723 H   0  0  0  0  0  0
  -47.7898    9.4026    6.6628 H   0  0  0  0  0  0
  -40.6333   10.6351   14.9522 H   0  0  0  0  0  0
  -39.4419   11.6775   16.0124 H   0  0  0  0  0  0
  -44.5440   11.2666   10.7643 H   0  0  0  0  0  0
  -43.1507   10.1358   10.6846 H   0  0  0  0  0  0
  -44.4427   10.4012   13.3678 H   0  0  0  0  0  0
  -45.4506    9.6418   12.0895 H   0  0  0  0  0  0
  -43.9503    7.8881   13.2104 H   0  0  0  0  0  0
  -44.9773    7.1779    9.5649 H   0  0  0  0  0  0
  -44.4448    6.1933    8.1600 H   0  0  0  0  0  0
  -43.0489    6.6999   10.7984 H   0  0  0  0  0  0
  -43.3539    5.1560    9.9325 H   0  0  0  0  0  0
  -41.7051    5.7764    8.2455 H   0  0  0  0  0  0
  -41.4400    8.2039   10.0505 H   0  0  0  0  0  0
  -40.2509    7.7370    8.7877 H   0  0  0  0  0  0
  -41.9088    7.9555    7.0292 H   0  0  0  0  0  0
  -41.9717    9.4490    8.0253 H   0  0  0  0  0  0
  -41.0699    4.5436   10.2388 H   0  0  0  0  0  0
  -40.7944    6.0897   11.1109 H   0  0  0  0  0  0
  -39.7619    5.6541    9.7069 H   0  0  0  0  0  0
  1  2  1  0  0  0
  1  4  2  0  0  0
  2  3  2  0  0  0
  2 14  1  0  0  0
  3  6  1  0  0  0
  4  5  1  0  0  0
  4 39  1  0  0  0
  5  6  1  0  0  0
  5  8  2  0  0  0
  6 10  2  0  0  0
  7  8  1  0  0  0
  7  9  2  0  0  0
  7 40  1  0  0  0
  8 41  1  0  0  0
  9 10  1  0  0  0
  9 13  1  0  0  0
 10 11  1  0  0  0
 11 12  1  0  0  0
 11 29  1  0  0  0
 12 13  2  0  0  0
 13 15  1  0  0  0
 14 17  1  0  0  0
 14 42  1  0  0  0
 15 16  2  0  0  0
 15 28  1  0  0  0
 17 18  2  0  0  0
 17 22  1  0  0  0
 18 19  1  0  0  0
 18 43  1  0  0  0
 19 20  2  0  0  0
 19 32  1  0  0  0
 20 21  1  0  0  0
 20 44  1  0  0  0
 21 22  2  0  0  0
 21 45  1  0  0  0
 22 23  1  0  0  0
 23 24  1  0  0  0
 24 25  1  0  0  0
 24 26  1  0  0  0
 24 27  1  0  0  0
 28 46  1  0  0  0
 28 47  1  0  0  0
 29 30  1  0  0  0
 29 48  1  0  0  0
 29 49  1  0  0  0
 30 31  1  0  0  0
 30 50  1  0  0  0
 30 51  1  0  0  0
 31 52  1  0  0  0
 32 33  1  0  0  0
 32 37  1  0  0  0
 33 34  1  0  0  0
 33 53  1  0  0  0
 33 54  1  0  0  0
 34 35  1  0  0  0
 34 55  1  0  0  0
 34 56  1  0  0  0
 35 36  1  0  0  0
 35 38  1  0  0  0
 35 57  1  0  0  0
 36 37  1  0  0  0
 36 58  1  0  0  0
 36 59  1  0  0  0
 37 60  1  0  0  0
 37 61  1  0  0  0
 38 62  1  0  0  0
 38 63  1  0  0  0
 38 64  1  0  0  0
M  CHG  1  35   1
M  END
> <s_m_source_file>
../2yac_ligand.sdf

> <i_m_source_file_index>
1

> <s_epik_input>
W09IXVtDSDJdW0NIMl1uMW5jKEMoPU8pW05IMl0pYyhbY0hdW2NIXTIpYzFjKGMyMyluYyhuW2NIXTMpW05IXWM0W2NIXWMoW2NIXVtjSF1jNE9DKEYpKEYpRilONVtDSDJdW0NIMl1bTkgrXShbQ0gzXSlbQ0gyXVtDSDJdNQ==

> <s_epik_cmdline>
J2VwaWtfYXBwJywgJy1pbWFlJywgJ2xpZ2FuZF9wcm8ubWFlJywgJy1vbWFlJywgJ2xpZ2FuZF9wcmVwLm1hZScsICctbXMnLCAnMScsICctcGgnLCAnNycsICctcGh0JywgJzAuNScsICctbnQn

> <r_epik_Ionization_Penalty>
  0.0424

> <r_epik_Ionization_Penalty_Charging>
  0.0424

> <r_epik_Ionization_Penalty_Neutral>
  0.0000

> <r_epik_State_Penalty>
  0.0358

> <r_epik_Charging_Adjusted_Penalty>
0.0781544210575721

> <i_epik_Tot_Q>
1

> <i_epik_Tot_abs_Q>
1

$$$$
