2yak_ligand
                    3D
 Schrodinger Suite 2020-3.
 64 72  0  0  1  0            999 V2000
  -11.0700  -12.0330   20.3670 C   0  0  0  0  0  0
  -10.8450  -11.1470   19.6550 N   0  0  0  0  0  0
  -11.4610  -13.3430   21.4510 S   0  0  0  0  0  0
  -14.6070   -8.9640   18.2810 C   0  0  0  0  0  0
  -13.9120   -8.1130   17.2150 C   0  0  0  0  0  0
  -11.5360   -7.1840   17.1280 C   0  0  0  0  0  0
  -11.2280   -6.8970   18.6330 C   0  0  0  0  0  0
  -11.7990   -8.1880   20.8320 C   0  0  0  0  0  0
  -13.2690   -8.5370   20.5430 C   0  0  0  0  0  0
  -13.3920   -9.5760   19.2480 S   0  0  0  0  0  0
  -12.3460   -8.6380   16.9560 S   0  0  0  0  0  0
  -10.9840   -8.3470   19.4230 S   0  0  0  0  0  0
  -14.8370  -17.5040   15.2610 C   0  0  0  0  0  0
  -14.6830  -15.8320   13.1320 C   0  0  0  0  0  0
   -7.5290  -12.0560   12.6590 O   0  5  0  0  0  0
  -11.2350  -14.5830   12.6520 O   0  0  0  0  0  0
   -6.6240   -8.5240   16.0780 F   0  0  0  0  0  0
  -15.0770  -13.6960   16.8990 C   0  0  0  0  0  0
  -14.2510  -12.6990   17.3520 C   0  0  0  0  0  0
   -8.6710   -9.0750   17.1290 C   0  0  0  0  0  0
   -7.9630  -10.2720   15.1240 C   0  0  0  0  0  0
  -13.5190  -14.1580   15.0780 C   0  0  0  0  0  0
   -9.8760   -9.8660   17.1220 N   0  0  0  0  0  0
   -9.2710  -13.4700   12.3830 N   0  0  0  0  0  0
  -12.1900  -11.5680   16.9670 N   0  0  0  0  0  0
  -15.6340  -15.4330   15.4590 O   0  0  0  0  0  0
   -7.7390   -9.2830   16.1140 C   0  0  0  0  0  0
  -14.7070  -14.4490   15.8070 C   0  0  0  0  0  0
   -8.6210  -12.5060   13.0330 C   0  0  0  0  0  0
  -10.4220  -13.7230   13.0390 C   0  0  0  0  0  0
  -13.0770  -12.4650   16.6800 C   0  0  0  0  0  0
  -12.6760  -13.1730   15.5310 C   0  0  0  0  0  0
   -9.1090  -11.0760   15.1410 C   0  0  0  0  0  0
  -10.0430  -10.8690   16.1350 C   0  0  0  0  0  0
  -11.1850  -11.6420   16.1260 C   0  0  0  0  0  0
   -9.3520  -12.0810   14.1720 C   0  0  3  0  0  0
  -10.5180  -12.8790   14.1760 C   0  0  0  0  0  0
  -11.4530  -12.6410   15.1550 C   0  0  0  0  0  0
  -15.4270  -16.4060   14.3630 C   0  0  0  0  0  0
  -11.6880   -9.8710   18.2930 Ru  0  0  0  0  0  0
  -15.2965   -8.3334   18.8615 H   0  0  0  0  0  0
  -15.1717   -9.7726   17.7939 H   0  0  0  0  0  0
  -14.4687   -8.1839   16.2689 H   0  0  0  0  0  0
  -13.8822   -7.0641   17.5451 H   0  0  0  0  0  0
  -12.1641   -6.3773   16.7220 H   0  0  0  0  0  0
  -10.5931   -7.2338   16.5638 H   0  0  0  0  0  0
  -10.3237   -6.2755   18.7101 H   0  0  0  0  0  0
  -12.0778   -6.3657   19.0864 H   0  0  0  0  0  0
  -11.7338   -7.1550   21.2044 H   0  0  0  0  0  0
  -11.4009   -8.8772   21.5913 H   0  0  0  0  0  0
  -13.7116   -9.0205   21.4264 H   0  0  0  0  0  0
  -13.8256   -7.6170   20.3112 H   0  0  0  0  0  0
  -14.5868  -18.3831   14.6490 H   0  0  0  0  0  0
  -15.5747  -17.7877   16.0260 H   0  0  0  0  0  0
  -13.9270  -17.1273   15.7509 H   0  0  0  0  0  0
  -14.5730  -16.6182   12.3706 H   0  0  0  0  0  0
  -13.6881  -15.4761   13.4380 H   0  0  0  0  0  0
  -15.2594  -14.9940   12.7131 H   0  0  0  0  0  0
  -16.0239  -13.8918   17.4021 H   0  0  0  0  0  0
  -14.5207  -12.1059   18.2258 H   0  0  0  0  0  0
   -8.4772   -8.3229   17.9080 H   0  0  0  0  0  0
   -7.2125  -10.4009   14.3302 H   0  0  0  0  0  0
  -13.2811  -14.7114   14.1696 H   0  0  0  0  0  0
  -16.2920  -16.7506   13.7774 H   0  0  0  0  0  0
  1  2  2  0  0  0
  1  3  2  0  0  0
  2 40  1  0  0  0
  4  5  1  0  0  0
  4 10  1  0  0  0
  4 41  1  0  0  0
  4 42  1  0  0  0
  5 11  1  0  0  0
  5 43  1  0  0  0
  5 44  1  0  0  0
  6  7  1  0  0  0
  6 11  1  0  0  0
  6 45  1  0  0  0
  6 46  1  0  0  0
  7 12  1  0  0  0
  7 47  1  0  0  0
  7 48  1  0  0  0
  8  9  1  0  0  0
  8 12  1  0  0  0
  8 49  1  0  0  0
  8 50  1  0  0  0
  9 10  1  0  0  0
  9 51  1  0  0  0
  9 52  1  0  0  0
 10 40  1  0  0  0
 11 40  1  0  0  0
 12 40  1  0  0  0
 13 39  1  0  0  0
 13 53  1  0  0  0
 13 54  1  0  0  0
 13 55  1  0  0  0
 14 39  1  0  0  0
 14 56  1  0  0  0
 14 57  1  0  0  0
 14 58  1  0  0  0
 15 29  1  0  0  0
 16 30  2  0  0  0
 17 27  1  0  0  0
 18 19  2  0  0  0
 18 28  1  0  0  0
 18 59  1  0  0  0
 19 31  1  0  0  0
 19 60  1  0  0  0
 20 23  1  0  0  0
 20 27  2  0  0  0
 20 61  1  0  0  0
 21 27  1  0  0  0
 21 33  2  0  0  0
 21 62  1  0  0  0
 22 28  2  0  0  0
 22 32  1  0  0  0
 22 63  1  0  0  0
 23 34  1  0  0  0
 23 40  1  0  0  0
 24 29  2  0  0  0
 24 30  1  0  0  0
 25 31  1  0  0  0
 25 35  1  0  0  0
 25 40  1  0  0  0
 26 28  1  0  0  0
 26 39  1  0  0  0
 29 36  1  0  0  0
 30 37  1  0  0  0
 31 32  2  0  0  0
 32 38  1  0  0  0
 33 34  1  0  0  0
 33 36  1  0  0  0
 34 35  2  0  0  0
 35 38  1  0  0  0
 36 37  1  0  0  0
 37 38  2  0  0  0
 39 64  1  0  0  0
M  CHG  1  15  -1
M  END
> <s_m_source_file>
../2yak_ligand.sdf

> <i_m_source_file_index>
1

> <s_epik_input>
W0NIMl0xW0NIMl1bU0hdMltDSDJdW0NIMl1bU0hdM1tDSDJdW0NIMl1bU0hdMVtSdV0yMzQoTj1DPVMpTjVDNj1jN240YzhjKFtjSF1jKFtjSF1bY0hdOClPW0NIXShbQ0gzXSlbQ0gzXSljNz1DOVtDSF0oQyg9TylbTkhdQzk9TylDNj1bQ0hdQyhGKT1bQ0hdNQ==

> <s_epik_cmdline>
J2VwaWtfYXBwJywgJy1pbWFlJywgJ2xpZ2FuZF9wcm8ubWFlJywgJy1vbWFlJywgJ2xpZ2FuZF9wcmVwLm1hZScsICctbXMnLCAnMScsICctcGgnLCAnNycsICctcGh0JywgJzAuNScsICctbnQn

> <r_lp_tautomer_probability>
1

> <r_epik_Ionization_Penalty>
  0.0001

> <r_epik_Ionization_Penalty_Charging>
  0.0001

> <r_epik_Ionization_Penalty_Neutral>
  0.0000

> <r_epik_State_Penalty>
 -0.0000

> <r_epik_Charging_Adjusted_Penalty>
7.307331628105e-05

> <i_epik_Tot_Q>
-1

> <i_epik_Tot_abs_Q>
1

> <s_epik_Chemistry_Notes>
This compound has an imine and may undergo hydrolysis.

$$$$
