2yay_ligand
                    3D
 Schrodinger Suite 2020-3.
 41 42  0  0  1  0            999 V2000
   -5.8790   28.1630   -4.0830 O   0  5  0  0  0  0
   -6.9370   28.7960   -3.5900 C   0  0  0  0  0  0
   -7.9880   29.0280   -4.5010 C   0  0  0  0  0  0
   -9.1340   29.6000   -4.0120 C   0  0  0  0  0  0
   -7.0560   29.1280   -2.2860 N   0  0  0  0  0  0
   -8.1760   29.7010   -1.8490 C   0  0  0  0  0  0
   -8.2680   30.0760   -0.6660 O   0  0  0  0  0  0
   -9.2000   29.9760   -2.7150 N   0  0  0  0  0  0
  -10.4170   30.6040   -2.2050 C   0  0  1  0  0  0
  -10.2720   31.9760   -1.6370 C   0  0  0  0  0  0
  -11.6010   32.6620   -1.8040 C   0  0  2  0  0  0
  -12.2980   32.8540   -0.5440 O   0  0  0  0  0  0
  -11.4380   30.7800   -3.2210 O   0  0  0  0  0  0
  -12.3400   31.7200   -2.7070 C   0  0  2  0  0  0
  -12.9910   32.3640   -3.9130 C   0  0  0  0  0  0
  -13.5650   31.3400   -4.7380 O   0  0  0  0  0  0
  -14.4530   31.7580   -6.0610 P   0  0  2  0  0  0
  -14.4520   30.5530   -6.9150 O   0  0  0  0  0  0
  -13.8830   33.0630   -6.5690 O   0  5  0  0  0  0
  -16.0440   32.0980   -5.6570 N   0  0  1  0  0  0
  -16.5870   33.3430   -4.6940 P   0  0  2  0  0  0
  -15.8360   34.7270   -4.8210 O   0  5  0  0  0  0
  -16.6840   32.8670   -3.2470 O   0  0  0  0  0  0
  -18.0240   33.5690   -5.4180 O   0  0  0  0  0  0
  -18.0470   33.8930   -7.0420 P   0  0  0  0  0  0
  -18.1110   32.5770   -7.8260 O   0  5  0  0  0  0
  -16.7590   34.6080   -7.5350 O   0  5  0  0  0  0
  -19.2700   34.7670   -7.0640 O   0  0  0  0  0  0
   -7.8696   28.7520   -5.5592 H   0  0  0  0  0  0
   -9.3488   30.5242   -4.5686 H   0  0  0  0  0  0
   -9.9729   28.8982   -4.1289 H   0  0  0  0  0  0
   -6.2295   28.9249   -1.5891 H   0  0  0  0  0  0
  -10.6905   29.8660   -1.4365 H   0  0  0  0  0  0
  -10.0011   31.9057   -0.5732 H   0  0  0  0  0  0
   -9.4836   32.5167   -2.1811 H   0  0  0  0  0  0
  -11.5242   33.6928   -2.1802 H   0  0  0  0  0  0
  -11.8754   33.5205    0.2223 H   0  0  0  0  0  0
  -13.0978   31.2255   -2.0816 H   0  0  0  0  0  0
  -13.7786   33.0555   -3.5790 H   0  0  0  0  0  0
  -12.2337   32.9198   -4.4854 H   0  0  0  0  0  0
  -16.6208   32.2948   -6.5727 H   0  0  0  0  0  0
  1  2  1  0  0  0
  2  3  2  0  0  0
  2  5  1  0  0  0
  3  4  1  0  0  0
  3 29  1  0  0  0
  4  8  1  0  0  0
  4 30  1  0  0  0
  4 31  1  0  0  0
  5  6  1  0  0  0
  5 32  1  0  0  0
  6  7  2  0  0  0
  6  8  1  0  0  0
  8  9  1  0  0  0
  9 10  1  0  0  0
  9 13  1  0  0  0
  9 33  1  0  0  0
 10 11  1  0  0  0
 10 34  1  0  0  0
 10 35  1  0  0  0
 11 12  1  0  0  0
 11 14  1  0  0  0
 11 36  1  0  0  0
 12 37  1  0  0  0
 13 14  1  0  0  0
 14 15  1  0  0  0
 14 38  1  0  0  0
 15 16  1  0  0  0
 15 39  1  0  0  0
 15 40  1  0  0  0
 16 17  1  0  0  0
 17 18  2  0  0  0
 17 19  1  0  0  0
 17 20  1  0  0  0
 20 21  1  0  0  0
 20 41  1  0  0  0
 21 22  1  0  0  0
 21 23  2  0  0  0
 21 24  1  0  0  0
 24 25  1  0  0  0
 25 26  1  0  0  0
 25 27  1  0  0  0
 25 28  2  0  0  0
M  CHG  5   1  -1  19  -1  22  -1  26  -1  27  -1
M  END
> <s_m_source_file>
../2yay_ligand.sdf

> <i_m_source_file_index>
1

> <s_epik_input>
W09IXUMxPVtDSF1bQ0gyXU4oQyg9TylbTkhdMSlbQ0BIXTJbQ0gyXVtDQEhdKFtPSF0pW0NASF0oTzIpW0NIMl1PW1BAXSg9TykoW09IXSlbTkhdW1BAQF0oPU8pKFtPSF0pT1AoPU8pKFtPSF0pW09IXQ==

> <s_epik_cmdline>
J2VwaWtfYXBwJywgJy1pbWFlJywgJ2xpZ2FuZF9wcm8ubWFlJywgJy1vbWFlJywgJ2xpZ2FuZF9wcmVwLm1hZScsICctbXMnLCAnMScsICctcGgnLCAnNycsICctcGh0JywgJzAuNScsICctbnQn

> <r_lp_tautomer_probability>
2.12659276646772e-05

> <r_epik_Ionization_Penalty>
  0.1412

> <r_epik_Ionization_Penalty_Charging>
  0.1391

> <r_epik_Ionization_Penalty_Neutral>
  0.0021

> <r_epik_State_Penalty>
  0.1208

> <r_epik_Charging_Adjusted_Penalty>
0.2599109961889

> <i_epik_Tot_Q>
-5

> <i_epik_Tot_abs_Q>
5

> <s_epik_Chemistry_Notes>
This compound contains an acetal/aminal-like group ( X-CH(R)-Y where X, Y are N, S, or O) that may be acid/base labile, releasing an aldehyde.

$$$$
