2yb0_ligand
                    3D
 Schrodinger Suite 2020-3.
 28 29  0  0  1  0            999 V2000
  -17.1760   35.0590   -7.7030 N   0  0  0  0  0  0
  -17.8380   34.2480   -6.7500 C   0  0  0  0  0  0
  -17.3030   34.0450   -5.5520 N   0  0  0  0  0  0
  -16.1110   34.5640   -5.2500 C   0  0  0  0  0  0
  -15.4460   35.3580   -6.1610 C   0  0  0  0  0  0
  -16.0000   35.6010   -7.4020 C   0  0  0  0  0  0
  -18.9370   33.7270   -6.9920 O   0  0  0  0  0  0
  -15.5950   34.3580   -4.1340 O   0  0  0  0  0  0
  -17.8060   35.3360   -8.9850 C   0  0  1  0  0  0
  -18.9480   36.3090   -8.7590 C   0  0  0  0  0  0
  -19.1180   36.9830  -10.1040 C   0  0  1  0  0  0
  -17.8060   36.7540  -10.8220 C   0  0  2  0  0  0
  -20.1660   36.3940  -10.8810 O   0  0  0  0  0  0
  -16.9920   35.9750   -9.9570 O   0  0  0  0  0  0
  -17.1150   38.0630  -11.2070 C   0  0  0  0  0  0
  -18.0320   39.0050  -11.8060 O   0  0  0  0  0  0
  -17.8424   33.4467   -4.8030 H   0  0  0  0  0  0
  -14.4816   35.7943   -5.9007 H   0  0  0  0  0  0
  -15.4800   36.2290   -8.1255 H   0  0  0  0  0  0
  -18.0320   34.3370   -9.3861 H   0  0  0  0  0  0
  -19.8476   35.7541   -8.4545 H   0  0  0  0  0  0
  -18.6715   37.0216   -7.9680 H   0  0  0  0  0  0
  -19.4238   38.0343   -9.9983 H   0  0  0  0  0  0
  -17.9543   36.1707  -11.7427 H   0  0  0  0  0  0
  -21.2076   36.4497  -10.5316 H   0  0  0  0  0  0
  -16.6841   38.5283  -10.3082 H   0  0  0  0  0  0
  -16.3144   37.8555  -11.9322 H   0  0  0  0  0  0
  -17.6716   39.9916  -12.1327 H   0  0  0  0  0  0
  1  2  1  0  0  0
  1  6  1  0  0  0
  1  9  1  0  0  0
  2  3  1  0  0  0
  2  7  2  0  0  0
  3  4  1  0  0  0
  3 17  1  0  0  0
  4  5  1  0  0  0
  4  8  2  0  0  0
  5  6  2  0  0  0
  5 18  1  0  0  0
  6 19  1  0  0  0
  9 10  1  0  0  0
  9 14  1  0  0  0
  9 20  1  0  0  0
 10 11  1  0  0  0
 10 21  1  0  0  0
 10 22  1  0  0  0
 11 12  1  0  0  0
 11 13  1  0  0  0
 11 23  1  0  0  0
 12 14  1  0  0  0
 12 15  1  0  0  0
 12 24  1  0  0  0
 13 25  1  0  0  0
 15 16  1  0  0  0
 15 26  1  0  0  0
 15 27  1  0  0  0
 16 28  1  0  0  0
M  END
> <s_m_source_file>
../2yb0_ligand.sdf

> <i_m_source_file_index>
1

> <s_epik_input>
W2NIXTFbY0hdYyg9TylbbkhdYyg9TyluMVtDQEhdMltDSDJdW0NASF0oW09IXSlbQ0BIXShPMilbQ0gyXVtPSF0=

> <s_epik_cmdline>
J2VwaWtfYXBwJywgJy1pbWFlJywgJ2xpZ2FuZF9wcm8ubWFlJywgJy1vbWFlJywgJ2xpZ2FuZF9wcmVwLm1hZScsICctbXMnLCAnMScsICctcGgnLCAnNycsICctcGh0JywgJzAuNScsICctbnQn

> <r_lp_tautomer_probability>
1

> <r_epik_Ionization_Penalty>
  0.0020

> <r_epik_Ionization_Penalty_Charging>
  0.0020

> <r_epik_Ionization_Penalty_Neutral>
  0.0000

> <r_epik_State_Penalty>
 -0.0000

> <r_epik_Charging_Adjusted_Penalty>
0.00203055708945023

> <i_epik_Tot_Q>
0

> <i_epik_Tot_abs_Q>
0

> <s_epik_Chemistry_Notes>
This compound contains an acetal/aminal-like group ( X-CH(R)-Y where X, Y are N, S, or O) that may be acid/base labile, releasing an aldehyde.

$$$$
