2yb9_ligand
                    3D
 Schrodinger Suite 2020-3.
 60 62  0  0  1  0            999 V2000
   30.2360   43.2290   35.1230 C   0  0  0  0  0  0
   29.2320   43.0360   36.0120 N   0  0  0  0  0  0
   31.2550   42.5490   34.9840 O   0  0  0  0  0  0
   29.3080   40.6310   36.2670 C   0  0  0  0  0  0
   30.5670   40.1670   36.3760 O   0  5  0  0  0  0
   28.8450   40.8130   39.9910 N   0  0  0  0  0  0
   31.2630   44.9330   33.5270 C   0  0  0  0  0  0
   29.7030   45.7400   35.2070 C   0  0  0  0  0  0
   31.0280   41.3130   40.1940 O   0  0  0  0  0  0
   28.6480   42.8650   32.5890 C   0  0  1  0  0  0
   29.4180   40.1800   41.2280 C   0  0  0  0  0  0
   25.8050   40.5790   31.2640 C   0  0  0  0  0  0
   27.2130   41.0850   31.5640 C   0  0  0  0  0  0
   30.0150   42.3270   38.1990 C   0  0  0  0  0  0
   29.0790   41.9900   37.0120 C   0  0  1  0  0  0
   31.5950   39.3050   43.3960 C   0  0  0  0  0  0
   32.6720   39.0000   44.2800 C   0  0  0  0  0  0
   33.9870   39.5090   44.0080 C   0  0  0  0  0  0
   29.9560   44.4950   34.2850 C   0  0  0  0  0  0
   27.2660   42.4580   32.1900 C   0  0  0  0  0  0
   29.4710   43.1400   31.3540 C   0  0  0  0  0  0
   31.8290   40.1540   42.2550 C   0  0  0  0  0  0
   33.1710   40.6550   42.0490 C   0  0  0  0  0  0
   32.0110   45.9980   34.3770 C   0  0  0  0  0  0
   29.5540   44.1210   30.6230 O   0  0  0  0  0  0
   31.1140   46.2290   35.6070 C   0  0  0  0  0  0
   30.2240   42.1190   31.2630 O   0  5  0  0  0  0
   30.7490   40.5230   41.2660 C   0  0  0  0  0  0
   28.7030   44.2040   33.4010 C   0  0  0  0  0  0
   28.4490   40.1060   35.5840 O   0  0  0  0  0  0
   29.9020   41.4570   39.4680 C   0  0  0  0  0  0
   34.2490   40.3390   42.9230 C   0  0  0  0  0  0
   28.4611   43.8137   35.9072 H   0  0  0  0  0  0
   31.9112   44.0569   33.3775 H   0  0  0  0  0  0
   30.9943   45.3613   32.5501 H   0  0  0  0  0  0
   29.1503   46.5067   34.6443 H   0  0  0  0  0  0
   29.1142   45.4332   36.0840 H   0  0  0  0  0  0
   29.0069   42.0056   33.1743 H   0  0  0  0  0  0
   28.8825   39.5680   41.9538 H   0  0  0  0  0  0
   25.8637   39.5777   30.8123 H   0  0  0  0  0  0
   25.3090   41.2682   30.5647 H   0  0  0  0  0  0
   25.2274   40.5264   32.1987 H   0  0  0  0  0  0
   27.7090   40.3958   32.2633 H   0  0  0  0  0  0
   27.7906   41.1376   30.6294 H   0  0  0  0  0  0
   31.0629   42.2350   37.8772 H   0  0  0  0  0  0
   29.8239   43.3566   38.5358 H   0  0  0  0  0  0
   28.0662   41.9716   37.4408 H   0  0  0  0  0  0
   30.6009   38.8985   43.5822 H   0  0  0  0  0  0
   32.4972   38.3817   45.1605 H   0  0  0  0  0  0
   34.8062   39.2361   44.6732 H   0  0  0  0  0  0
   26.6167   42.4457   33.0778 H   0  0  0  0  0  0
   26.8700   43.1753   31.4561 H   0  0  0  0  0  0
   33.3637   41.2994   41.1912 H   0  0  0  0  0  0
   32.9999   45.6103   34.6630 H   0  0  0  0  0  0
   32.1346   46.9178   33.7864 H   0  0  0  0  0  0
   31.0710   47.2959   35.8715 H   0  0  0  0  0  0
   31.4709   45.6509   36.4721 H   0  0  0  0  0  0
   28.6479   45.0560   32.7074 H   0  0  0  0  0  0
   27.8542   44.2444   34.0995 H   0  0  0  0  0  0
   35.2491   40.7352   42.7475 H   0  0  0  0  0  0
  1  2  1  0  0  0
  1  3  2  0  0  0
  1 19  1  0  0  0
  2 15  1  0  0  0
  2 33  1  0  0  0
  4  5  1  0  0  0
  4 15  1  0  0  0
  4 30  2  0  0  0
  6 11  1  0  0  0
  6 31  2  0  0  0
  7 19  1  0  0  0
  7 24  1  0  0  0
  7 34  1  0  0  0
  7 35  1  0  0  0
  8 19  1  0  0  0
  8 26  1  0  0  0
  8 36  1  0  0  0
  8 37  1  0  0  0
  9 28  1  0  0  0
  9 31  1  0  0  0
 10 20  1  0  0  0
 10 21  1  0  0  0
 10 29  1  0  0  0
 10 38  1  0  0  0
 11 28  2  0  0  0
 11 39  1  0  0  0
 12 13  1  0  0  0
 12 40  1  0  0  0
 12 41  1  0  0  0
 12 42  1  0  0  0
 13 20  1  0  0  0
 13 43  1  0  0  0
 13 44  1  0  0  0
 14 15  1  0  0  0
 14 31  1  0  0  0
 14 45  1  0  0  0
 14 46  1  0  0  0
 15 47  1  0  0  0
 16 17  2  0  0  0
 16 22  1  0  0  0
 16 48  1  0  0  0
 17 18  1  0  0  0
 17 49  1  0  0  0
 18 32  2  0  0  0
 18 50  1  0  0  0
 19 29  1  0  0  0
 20 51  1  0  0  0
 20 52  1  0  0  0
 21 25  2  0  0  0
 21 27  1  0  0  0
 22 23  2  0  0  0
 22 28  1  0  0  0
 23 32  1  0  0  0
 23 53  1  0  0  0
 24 26  1  0  0  0
 24 54  1  0  0  0
 24 55  1  0  0  0
 26 56  1  0  0  0
 26 57  1  0  0  0
 29 58  1  0  0  0
 29 59  1  0  0  0
 32 60  1  0  0  0
M  CHG  2   5  -1  27  -1
M  END
> <s_m_source_file>
../2yb9_ligand.sdf

> <i_m_source_file_index>
1

> <s_epik_input>
W0NIM11bQ0gyXVtDSDJdW0NAQEhdKEMoPU8pW09IXSlbQ0gyXUMxKFtDSDJdW0NIMl1bQ0gyXVtDSDJdMSlDKD1PKVtOSF1bQ0BASF0oQyg9TylbT0hdKVtDSDJdYyhuW2NIXTIpb2MyLWMzW2NIXVtjSF1bY0hdW2NIXVtjSF0z

> <s_epik_cmdline>
J2VwaWtfYXBwJywgJy1pbWFlJywgJ2xpZ2FuZF9wcm8ubWFlJywgJy1vbWFlJywgJ2xpZ2FuZF9wcmVwLm1hZScsICctbXMnLCAnMScsICctcGgnLCAnNycsICctcGh0JywgJzAuNScsICctbnQn

> <r_lp_tautomer_probability>
1

> <r_epik_Ionization_Penalty>
  0.0027

> <r_epik_Ionization_Penalty_Charging>
  0.0027

> <r_epik_Ionization_Penalty_Neutral>
  0.0000

> <r_epik_State_Penalty>
 -0.0000

> <r_epik_Charging_Adjusted_Penalty>
0.00267801341410874

> <i_epik_Tot_Q>
-2

> <i_epik_Tot_abs_Q>
2

$$$$
