2ybk_ligand
                    3D
 Schrodinger Suite 2020-3.
 16 15  0  0  1  0            999 V2000
  -24.0610  -21.5210    4.3850 C   0  0  0  0  0  0
  -23.2290  -21.6140    3.4560 O   0  5  0  0  0  0
  -25.5210  -21.8220    4.0420 C   0  0  1  0  0  0
  -23.8090  -21.2040    5.5670 O   0  0  0  0  0  0
  -26.4130  -21.4370    5.2240 C   0  0  0  0  0  0
  -25.9060  -21.0700    2.8890 O   0  0  0  0  0  0
  -27.8590  -21.8770    4.9860 C   0  0  0  0  0  0
  -29.9500  -21.2640    5.9310 O   0  5  0  0  0  0
  -28.7480  -21.5070    6.1750 C   0  0  0  0  0  0
  -28.2050  -21.4750    7.3000 O   0  0  0  0  0  0
  -25.6555  -22.8790    3.7686 H   0  0  0  0  0  0
  -26.0418  -21.9245    6.1375 H   0  0  0  0  0  0
  -26.3940  -20.3453    5.3574 H   0  0  0  0  0  0
  -25.3741  -21.2124    1.9367 H   0  0  0  0  0  0
  -28.2499  -21.3805    4.0856 H   0  0  0  0  0  0
  -27.8922  -22.9677    4.8469 H   0  0  0  0  0  0
  1  2  1  0  0  0
  1  3  1  0  0  0
  1  4  2  0  0  0
  3  5  1  0  0  0
  3  6  1  0  0  0
  3 11  1  0  0  0
  5  7  1  0  0  0
  5 12  1  0  0  0
  5 13  1  0  0  0
  6 14  1  0  0  0
  7  9  1  0  0  0
  7 15  1  0  0  0
  7 16  1  0  0  0
  8  9  1  0  0  0
  9 10  2  0  0  0
M  CHG  2   2  -1   8  -1
M  END
> <s_m_source_file>
../2ybk_ligand.sdf

> <i_m_source_file_index>
1

> <s_epik_input>
W09IXUMoPU8pW0NASF0oW09IXSlbQ0gyXVtDSDJdQyg9TylbT0hd

> <s_epik_cmdline>
J2VwaWtfYXBwJywgJy1pbWFlJywgJ2xpZ2FuZF9wcm8ubWFlJywgJy1vbWFlJywgJ2xpZ2FuZF9wcmVwLm1hZScsICctbXMnLCAnMScsICctcGgnLCAnNycsICctcGh0JywgJzAuNScsICctbnQn

> <r_lp_tautomer_probability>
1

> <r_epik_Ionization_Penalty>
  0.0049

> <r_epik_Ionization_Penalty_Charging>
  0.0049

> <r_epik_Ionization_Penalty_Neutral>
  0.0001

> <r_epik_State_Penalty>
 -0.0000

> <r_epik_Charging_Adjusted_Penalty>
0.00486278482717453

> <i_epik_Tot_Q>
-2

> <i_epik_Tot_abs_Q>
2

$$$$
