2ybt_ligand
                    3D
 Schrodinger Suite 2020-3.
 49 52  0  0  1  0            999 V2000
   26.7730  -31.7400  -41.8440 N   0  0  0  0  0  0
   27.6310  -30.8100  -41.3050 C   0  0  0  0  0  0
   28.8550  -30.7840  -41.6500 O   0  0  0  0  0  0
   27.0880  -29.9170  -40.3830 N   0  0  0  0  0  0
   25.6880  -30.0210  -39.9980 C   0  0  0  0  0  0
   24.8200  -30.9870  -40.5760 C   0  0  0  0  0  0
   25.3860  -31.8430  -41.5260 C   0  0  0  0  0  0
   24.7130  -32.7090  -42.1260 O   0  0  0  0  0  0
   23.5880  -30.8060  -40.0070 N   0  0  0  0  0  0
   23.6740  -29.7920  -39.1320 C   0  0  0  0  0  0
   24.9300  -29.2990  -39.1340 N   0  0  0  0  0  0
   28.5050  -36.1870  -43.2990 N   0  0  0  0  0  0
   28.1620  -34.7680  -43.5540 C   0  0  0  0  0  0
   22.2500  -31.5370  -40.2420 C   0  0  0  0  0  0
   25.6560  -39.8500  -42.8900 C   0  0  0  0  0  0
   28.0360  -28.9120  -39.7870 C   0  0  0  0  0  0
   31.6400  -38.2890  -42.8160 C   0  0  0  0  0  0
   26.2600  -36.7080  -43.3690 O   0  0  0  0  0  0
   30.8060  -35.8350  -43.2340 O   0  0  0  0  0  0
   27.9900  -40.6500  -42.6220 C   0  0  0  0  0  0
   27.3460  -32.6410  -42.8600 C   0  0  0  0  0  0
   27.5600  -34.0520  -42.3350 C   0  0  0  0  0  0
   29.2470  -40.1200  -42.6340 N   0  0  0  0  0  0
   27.4330  -37.1360  -43.2180 C   0  0  0  0  0  0
   29.8580  -36.6100  -43.1840 C   0  0  0  0  0  0
   29.1550  -38.8260  -42.8430 C   0  0  0  0  0  0
   27.7920  -38.4750  -42.9730 C   0  0  0  0  0  0
   27.1230  -39.6350  -42.8190 N   0  0  0  0  0  0
   30.1830  -37.9070  -42.9540 N   0  0  0  0  0  0
   22.8549  -29.4233  -38.5145 H   0  0  0  0  0  0
   29.0695  -34.2177  -43.8430 H   0  0  0  0  0  0
   27.4233  -34.7097  -44.3670 H   0  0  0  0  0  0
   22.3920  -32.3299  -40.9911 H   0  0  0  0  0  0
   21.4992  -30.8197  -40.6051 H   0  0  0  0  0  0
   21.9048  -31.9826  -39.2974 H   0  0  0  0  0  0
   25.4327  -40.9136  -42.7199 H   0  0  0  0  0  0
   25.2895  -39.5527  -43.8836 H   0  0  0  0  0  0
   25.1587  -39.2430  -42.1191 H   0  0  0  0  0  0
   29.0312  -29.0333  -40.2397 H   0  0  0  0  0  0
   28.1051  -29.0724  -38.7010 H   0  0  0  0  0  0
   27.6647  -27.8956  -39.9847 H   0  0  0  0  0  0
   32.2672  -37.3942  -42.9423 H   0  0  0  0  0  0
   31.8993  -39.0302  -43.5863 H   0  0  0  0  0  0
   31.8131  -38.7204  -41.8190 H   0  0  0  0  0  0
   27.7334  -41.6997  -42.4796 H   0  0  0  0  0  0
   26.6659  -32.7008  -43.7225 H   0  0  0  0  0  0
   28.3208  -32.2509  -43.1881 H   0  0  0  0  0  0
   26.6219  -34.5478  -42.0449 H   0  0  0  0  0  0
   28.2713  -34.0938  -41.4969 H   0  0  0  0  0  0
  1  2  1  0  0  0
  1  7  1  0  0  0
  1 21  1  0  0  0
  2  3  2  0  0  0
  2  4  1  0  0  0
  4  5  1  0  0  0
  4 16  1  0  0  0
  5  6  2  0  0  0
  5 11  1  0  0  0
  6  7  1  0  0  0
  6  9  1  0  0  0
  7  8  2  0  0  0
  9 10  1  0  0  0
  9 14  1  0  0  0
 10 11  2  0  0  0
 10 30  1  0  0  0
 12 13  1  0  0  0
 12 24  1  0  0  0
 12 25  1  0  0  0
 13 22  1  0  0  0
 13 31  1  0  0  0
 13 32  1  0  0  0
 14 33  1  0  0  0
 14 34  1  0  0  0
 14 35  1  0  0  0
 15 28  1  0  0  0
 15 36  1  0  0  0
 15 37  1  0  0  0
 15 38  1  0  0  0
 16 39  1  0  0  0
 16 40  1  0  0  0
 16 41  1  0  0  0
 17 29  1  0  0  0
 17 42  1  0  0  0
 17 43  1  0  0  0
 17 44  1  0  0  0
 18 24  2  0  0  0
 19 25  2  0  0  0
 20 23  2  0  0  0
 20 28  1  0  0  0
 20 45  1  0  0  0
 21 22  1  0  0  0
 21 46  1  0  0  0
 21 47  1  0  0  0
 22 48  1  0  0  0
 22 49  1  0  0  0
 23 26  1  0  0  0
 24 27  1  0  0  0
 25 29  1  0  0  0
 26 27  2  0  0  0
 26 29  1  0  0  0
 27 28  1  0  0  0
M  END
> <s_m_source_file>
../2ybt_ligand.sdf

> <i_m_source_file_index>
1

> <s_epik_input>
bjFbY0hdbihbQ0gzXSljKGMxMiljKD1PKW4oYyg9TyluMltDSDNdKVtDSDJdW0NIMl1bQ0gyXW4oYyg9TyluM1tDSDNdKWMoPU8pYyhjMzQpbihbQ0gzXSlbY0hdbjQ=

> <s_epik_cmdline>
J2VwaWtfYXBwJywgJy1pbWFlJywgJ2xpZ2FuZF9wcm8ubWFlJywgJy1vbWFlJywgJ2xpZ2FuZF9wcmVwLm1hZScsICctbXMnLCAnMScsICctcGgnLCAnNycsICctcGh0JywgJzAuNScsICctbnQn

> <r_lp_tautomer_probability>
1

> <r_epik_Ionization_Penalty>
  0.0000

> <r_epik_Ionization_Penalty_Charging>
  0.0000

> <r_epik_Ionization_Penalty_Neutral>
  0.0000

> <r_epik_State_Penalty>
 -0.0000

> <r_epik_Charging_Adjusted_Penalty>
3.21256830555247e-09

> <i_epik_Tot_Q>
0

> <i_epik_Tot_abs_Q>
0

$$$$
