2ybu_ligand
                    3D
 Schrodinger Suite 2020-3.
 45 48  0  0  1  0            999 V2000
   26.2630  -36.9630  -42.8820 O   0  0  0  0  0  0
   27.4710  -37.1950  -42.7660 C   0  0  0  0  0  0
   27.9460  -38.4690  -42.5360 C   0  0  0  0  0  0
   28.4110  -36.1940  -42.9100 N   0  0  0  0  0  0
   27.3270  -39.6150  -42.3560 N   0  0  0  0  0  0
   29.2970  -38.7440  -42.4460 C   0  0  0  0  0  0
   25.8540  -39.8250  -42.4170 C   0  0  0  0  0  0
   28.2690  -40.5710  -42.1940 C   0  0  0  0  0  0
   29.5010  -40.0080  -42.2380 N   0  0  0  0  0  0
   30.2210  -37.7760  -42.5470 N   0  0  0  0  0  0
   31.7360  -38.1630  -42.4400 C   0  0  0  0  0  0
   29.7510  -36.5110  -42.8020 C   0  0  0  0  0  0
   30.5670  -35.6250  -42.8730 O   0  0  0  0  0  0
   27.9510  -34.8270  -43.1830 C   0  0  0  0  0  0
   27.5260  -34.0460  -41.9380 C   0  0  0  0  0  0
   27.2560  -32.6530  -42.5100 C   0  0  0  0  0  0
   26.5970  -31.8070  -41.5000 N   0  0  0  0  0  0
   25.2540  -31.9750  -41.2150 C   0  0  0  0  0  0
   27.3770  -30.8700  -40.8470 C   0  0  0  0  0  0
   24.6020  -32.8790  -41.8320 O   0  0  0  0  0  0
   24.6840  -31.1210  -40.2810 C   0  0  0  0  0  0
   23.4410  -31.0510  -39.7770 N   0  0  0  0  0  0
   25.4600  -30.1810  -39.6020 C   0  0  0  0  0  0
   23.3920  -30.0950  -38.8330 C   0  0  0  0  0  0
   24.6380  -29.5220  -38.7460 N   0  0  0  0  0  0
   26.8340  -30.0430  -39.9220 N   0  0  0  0  0  0
   27.7730  -29.0380  -39.2860 C   0  0  0  0  0  0
   28.5820  -30.7580  -41.1290 O   0  0  0  0  0  0
   25.3510  -38.8566  -42.5552 H   0  0  0  0  0  0
   25.5103  -40.2863  -41.4794 H   0  0  0  0  0  0
   25.6127  -40.4873  -43.2615 H   0  0  0  0  0  0
   28.0683  -41.6326  -42.0500 H   0  0  0  0  0  0
   31.8256  -39.2390  -42.2297 H   0  0  0  0  0  0
   32.2042  -37.5900  -41.6261 H   0  0  0  0  0  0
   32.2415  -37.9316  -43.3892 H   0  0  0  0  0  0
   28.7610  -34.2560  -43.6603 H   0  0  0  0  0  0
   27.0807  -34.8603  -43.8549 H   0  0  0  0  0  0
   26.6309  -34.5123  -41.5005 H   0  0  0  0  0  0
   28.3428  -34.0576  -41.2013 H   0  0  0  0  0  0
   28.2078  -32.1868  -42.8045 H   0  0  0  0  0  0
   26.6018  -32.7385  -43.3902 H   0  0  0  0  0  0
   22.5182  -29.8225  -38.2411 H   0  0  0  0  0  0
   28.7778  -29.1496  -39.7195 H   0  0  0  0  0  0
   27.8198  -29.2153  -38.2014 H   0  0  0  0  0  0
   27.4030  -28.0196  -39.4755 H   0  0  0  0  0  0
  1  2  2  0  0  0
  2  3  1  0  0  0
  2  4  1  0  0  0
  3  5  1  0  0  0
  3  6  2  0  0  0
  4 12  1  0  0  0
  4 14  1  0  0  0
  5  7  1  0  0  0
  5  8  1  0  0  0
  6  9  1  0  0  0
  6 10  1  0  0  0
  7 29  1  0  0  0
  7 30  1  0  0  0
  7 31  1  0  0  0
  8  9  2  0  0  0
  8 32  1  0  0  0
 10 11  1  0  0  0
 10 12  1  0  0  0
 11 33  1  0  0  0
 11 34  1  0  0  0
 11 35  1  0  0  0
 12 13  2  0  0  0
 14 15  1  0  0  0
 14 36  1  0  0  0
 14 37  1  0  0  0
 15 16  1  0  0  0
 15 38  1  0  0  0
 15 39  1  0  0  0
 16 17  1  0  0  0
 16 40  1  0  0  0
 16 41  1  0  0  0
 17 18  1  0  0  0
 17 19  1  0  0  0
 18 20  2  0  0  0
 18 21  1  0  0  0
 19 26  1  0  0  0
 19 28  2  0  0  0
 21 22  2  0  0  0
 21 23  1  0  0  0
 22 24  1  0  0  0
 23 25  2  0  0  0
 23 26  1  0  0  0
 24 25  1  0  0  0
 24 42  1  0  0  0
 26 27  1  0  0  0
 27 43  1  0  0  0
 27 44  1  0  0  0
 27 45  1  0  0  0
M  END
> <s_m_source_file>
../2ybu_ligand.sdf

> <i_m_source_file_index>
1

> <s_epik_input>
W0NIM11uMVtjSF1uYyhjMTIpbihbQ0gzXSljKD1PKW4oYzI9TylbQ0gyXVtDSDJdW0NIMl1uKGMzPU8pYyg9TyluKFtDSDNdKWMoYzM9NCk9TltDSDJdTjQ=

> <s_epik_cmdline>
J2VwaWtfYXBwJywgJy1pbWFlJywgJ2xpZ2FuZF9wcm8ubWFlJywgJy1vbWFlJywgJ2xpZ2FuZF9wcmVwLm1hZScsICctbXMnLCAnMScsICctcGgnLCAnNycsICctcGh0JywgJzAuNScsICctbnQn

> <r_lp_tautomer_probability>
1

> <r_epik_Ionization_Penalty>
  0.0009

> <r_epik_Ionization_Penalty_Charging>
  0.0000

> <r_epik_Ionization_Penalty_Neutral>
  0.0009

> <r_epik_State_Penalty>
 -0.0000

> <r_epik_Charging_Adjusted_Penalty>
1.46008246989206e-07

> <i_epik_Tot_Q>
0

> <i_epik_Tot_abs_Q>
0

> <s_epik_Chemistry_Notes>
This compound has an imine and may undergo hydrolysis.

$$$$
