2yc3_ligand
                    3D
 Schrodinger Suite 2020-3.
 26 28  0  0  1  0            999 V2000
   17.1090   55.4690  -19.6490 O   0  5  0  0  0  0
   16.8120   56.6680  -19.3450 C   0  0  0  0  0  0
   17.6400   57.6880  -19.6690 N   0  0  0  0  0  0
   18.7970   57.6320  -20.3240 N   0  0  0  0  0  0
   19.2010   58.8760  -20.3610 C   0  0  0  0  0  0
   15.6430   56.9700  -18.6920 C   0  0  0  0  0  0
   15.4030   58.3390  -18.4580 C   0  0  0  0  0  0
   13.9100   58.7940  -17.7390 Cl  0  0  0  0  0  0
   16.1950   59.3450  -18.8200 N   0  0  0  0  0  0
   17.3290   59.0170  -19.4590 C   0  0  0  0  0  0
   18.2900   59.7730  -19.8880 N   0  0  0  0  0  0
   14.6590   55.9450  -18.2050 C   0  0  0  0  0  0
   13.6500   55.3820  -19.1800 C   0  0  0  0  0  0
   13.9380   55.2020  -20.5390 C   0  0  0  0  0  0
   13.0000   54.6660  -21.4020 C   0  0  0  0  0  0
   11.8100   54.2030  -20.9190 C   0  0  0  0  0  0
   11.5470   54.3630  -19.5530 C   0  0  0  0  0  0
   12.4570   54.9540  -18.7260 C   0  0  0  0  0  0
   20.1809   59.1696  -20.7374 H   0  0  0  0  0  0
   15.2018   55.0654  -17.8286 H   0  0  0  0  0  0
   14.0518   56.3754  -17.3950 H   0  0  0  0  0  0
   14.9172   55.4891  -20.9223 H   0  0  0  0  0  0
   13.2111   54.6130  -22.4700 H   0  0  0  0  0  0
   11.0859   53.7229  -21.5773 H   0  0  0  0  0  0
   10.6004   54.0098  -19.1440 H   0  0  0  0  0  0
   12.2121   55.0828  -17.6717 H   0  0  0  0  0  0
  1  2  1  0  0  0
  2  3  1  0  0  0
  2  6  2  0  0  0
  3  4  1  0  0  0
  3 10  1  0  0  0
  4  5  2  0  0  0
  5 11  1  0  0  0
  5 19  1  0  0  0
  6  7  1  0  0  0
  6 12  1  0  0  0
  7  8  1  0  0  0
  7  9  2  0  0  0
  9 10  1  0  0  0
 10 11  2  0  0  0
 12 13  1  0  0  0
 12 20  1  0  0  0
 12 21  1  0  0  0
 13 14  2  0  0  0
 13 18  1  0  0  0
 14 15  1  0  0  0
 14 22  1  0  0  0
 15 16  2  0  0  0
 15 23  1  0  0  0
 16 17  1  0  0  0
 16 24  1  0  0  0
 17 18  2  0  0  0
 17 25  1  0  0  0
 18 26  1  0  0  0
M  CHG  1   1  -1
M  END
> <s_m_source_file>
../2yc3_ligand.sdf

> <i_m_source_file_index>
1

> <s_epik_input>
bjFbY0hdbmMobjEyKVtuSF1jKENsKWMoYzI9TylbQ0gyXWMzW2NIXVtjSF1bY0hdW2NIXVtjSF0z

> <s_epik_cmdline>
J2VwaWtfYXBwJywgJy1pbWFlJywgJ2xpZ2FuZF9wcm8ubWFlJywgJy1vbWFlJywgJ2xpZ2FuZF9wcmVwLm1hZScsICctbXMnLCAnMScsICctcGgnLCAnNycsICctcGh0JywgJzAuNScsICctbnQn

> <r_lp_tautomer_probability>
1

> <r_epik_Ionization_Penalty>
  0.0016

> <r_epik_Ionization_Penalty_Charging>
  0.0000

> <r_epik_Ionization_Penalty_Neutral>
  0.0016

> <r_epik_State_Penalty>
 -0.0000

> <r_epik_Charging_Adjusted_Penalty>
7.61327697310887e-13

> <i_epik_Tot_Q>
-1

> <i_epik_Tot_abs_Q>
1

$$$$
