2ycf_ligand
                    3D
 Schrodinger Suite 2020-3.
 58 59  0  0  1  0            999 V2000
   46.7270   22.9070  -12.1180 N   0  0  0  0  0  0
   47.3660   23.2680  -14.2880 N   0  0  0  0  0  0
   47.2310   21.1070  -13.5160 N   0  3  0  0  0  0
   46.9940   20.3110  -12.6010 N   0  0  0  0  0  0
   45.9050   16.3120   -7.9750 N   0  0  0  0  0  0
   45.8540   14.9470   -6.1840 N   0  0  0  0  0  0
   46.8190   12.1420   -0.5790 N   0  0  0  0  0  0
   47.0560   11.5380    0.4830 N   0  3  0  0  0  0
   45.9740   13.2180    1.6260 N   0  0  0  0  0  0
   46.8500   11.4740    2.8180 N   0  0  0  0  0  0
   47.1110   22.4230  -13.3010 C   0  0  0  0  0  0
   47.0690   18.9820  -12.7220 C   0  0  1  0  0  0
   47.5420   18.3330  -14.0280 C   0  0  0  0  0  0
   46.7960   18.2410  -11.5650 C   0  0  0  0  0  0
   46.0110   18.8340  -10.5680 C   0  0  0  0  0  0
   45.7340   18.1680   -9.3780 C   0  0  0  0  0  0
   46.2350   16.8830   -9.1600 C   0  0  0  0  0  0
   47.0280   16.2890  -10.1510 C   0  0  0  0  0  0
   47.3190   16.9690  -11.3500 C   0  0  0  0  0  0
   46.4870   15.2830   -7.3270 C   0  0  0  0  0  0
   46.2410   14.1060   -5.1900 C   0  0  0  0  0  0
   45.4700   14.1360   -4.0170 C   0  0  0  0  0  0
   45.7780   13.3420   -2.9150 C   0  0  0  0  0  0
   46.8970   12.5000   -2.9360 C   0  0  0  0  0  0
   47.6910   12.4740   -4.1020 C   0  0  0  0  0  0
   47.3700   13.2740   -5.2140 C   0  0  0  0  0  0
   47.2040   11.7190   -1.8050 C   0  0  1  0  0  0
   48.0540   10.4470   -1.9400 C   0  0  0  0  0  0
   46.6480   12.0810    1.6420 C   0  0  0  0  0  0
   47.4500   14.6570   -7.7720 O   0  0  0  0  0  0
   47.2400   24.6030  -14.0670 O   0  0  0  0  0  0
   45.5150   13.7630    2.7930 O   0  0  0  0  0  0
   46.5001   22.2195  -11.2899 H   0  0  0  0  0  0
   47.6765   22.9012  -15.2775 H   0  0  0  0  0  0
   45.0468   16.6921   -7.4014 H   0  0  0  0  0  0
   44.8697   15.3802   -5.9526 H   0  0  0  0  0  0
   45.7828   13.7259    0.6692 H   0  0  0  0  0  0
   46.0999   19.4549  -12.5049 H   0  0  0  0  0  0
   47.6901   19.1110  -14.7914 H   0  0  0  0  0  0
   46.7838   17.6164  -14.3769 H   0  0  0  0  0  0
   48.4915   17.8059  -13.8526 H   0  0  0  0  0  0
   45.6100   19.8350  -10.7271 H   0  0  0  0  0  0
   45.1244   18.6506   -8.6141 H   0  0  0  0  0  0
   47.4253   15.2865   -9.9919 H   0  0  0  0  0  0
   47.9505   16.5015  -12.1055 H   0  0  0  0  0  0
   44.6064   14.7992   -3.9674 H   0  0  0  0  0  0
   45.1434   13.3761   -2.0295 H   0  0  0  0  0  0
   48.5657   11.8248   -4.1419 H   0  0  0  0  0  0
   48.0034   13.2470   -6.1007 H   0  0  0  0  0  0
   46.2199   12.1426   -1.5559 H   0  0  0  0  0  0
   48.1799    9.9834   -0.9504 H   0  0  0  0  0  0
   49.0405   10.7072   -2.3512 H   0  0  0  0  0  0
   47.5504    9.7394   -2.6150 H   0  0  0  0  0  0
   47.4485   25.3168  -14.8776 H   0  0  0  0  0  0
   44.9546   14.7093    2.7750 H   0  0  0  0  0  0
   47.5395   20.7337  -14.5036 H   0  0  0  0  0  0
   46.4583   11.9225    3.7429 H   0  0  0  0  0  0
   47.5909   10.5770    0.4616 H   0  0  0  0  0  0
  1 11  2  0  0  0
  1 33  1  0  0  0
  2 11  1  0  0  0
  2 31  1  0  0  0
  2 34  1  0  0  0
  3  4  2  0  0  0
  3 11  1  0  0  0
  3 56  1  0  0  0
  4 12  1  0  0  0
  5 17  1  0  0  0
  5 20  1  0  0  0
  5 35  1  0  0  0
  6 20  1  0  0  0
  6 21  1  0  0  0
  6 36  1  0  0  0
  7  8  2  0  0  0
  7 27  1  0  0  0
  8 29  1  0  0  0
  8 58  1  0  0  0
  9 29  1  0  0  0
  9 32  1  0  0  0
  9 37  1  0  0  0
 10 29  2  0  0  0
 10 57  1  0  0  0
 12 13  1  0  0  0
 12 14  1  0  0  0
 12 38  1  0  0  0
 13 39  1  0  0  0
 13 40  1  0  0  0
 13 41  1  0  0  0
 14 15  2  0  0  0
 14 19  1  0  0  0
 15 16  1  0  0  0
 15 42  1  0  0  0
 16 17  2  0  0  0
 16 43  1  0  0  0
 17 18  1  0  0  0
 18 19  2  0  0  0
 18 44  1  0  0  0
 19 45  1  0  0  0
 20 30  2  0  0  0
 21 22  2  0  0  0
 21 26  1  0  0  0
 22 23  1  0  0  0
 22 46  1  0  0  0
 23 24  2  0  0  0
 23 47  1  0  0  0
 24 25  1  0  0  0
 24 27  1  0  0  0
 25 26  2  0  0  0
 25 48  1  0  0  0
 26 49  1  0  0  0
 27 28  1  0  0  0
 27 50  1  0  0  0
 28 51  1  0  0  0
 28 52  1  0  0  0
 28 53  1  0  0  0
 31 54  1  0  0  0
 32 55  1  0  0  0
M  CHG  2   3   1   8   1
M  END
> <s_m_source_file>
../2ycf_ligand.sdf

> <i_m_source_file_index>
1

> <s_epik_input>
W09IXVtOSF1cQyg9TlxbSF0pXE49TlxbQ0BASF0oW0NIM10pYzFbY0hdW2NIXWMoW2NIXVtjSF0xKVtOSF1DKD1PKVtOSF1jMltjSF1bY0hdYyhbY0hdW2NIXTIpW0NAQEhdKFtDSDNdKS9OPU4vQyg9TlxbSF0pW05IXVtPSF0=

> <s_epik_cmdline>
J2VwaWtfYXBwJywgJy1pbWFlJywgJ2xpZ2FuZF9wcm8ubWFlJywgJy1vbWFlJywgJ2xpZ2FuZF9wcmVwLm1hZScsICctbXMnLCAnMScsICctcGgnLCAnNycsICctcGh0JywgJzAuNScsICctbnQn

> <r_epik_Ionization_Penalty>
  0.0005

> <r_epik_Ionization_Penalty_Charging>
  0.0000

> <r_epik_Ionization_Penalty_Neutral>
  0.0005

> <r_epik_State_Penalty>
  0.4107

> <r_epik_Charging_Adjusted_Penalty>
0.410682388314406

> <i_epik_Tot_Q>
2

> <i_epik_Tot_abs_Q>
2

> <s_epik_Chemistry_Notes>
This compound has an imine and may undergo hydrolysis. This compound has a N-S or N-O group and may undergo hydrolysis at high or low pH.

$$$$
