2ych_ligand
                    3D
 Schrodinger Suite 2020-3.
 43 45  0  0  1  0            999 V2000
   15.0390    5.6060   22.5330 P   0  0  0  0  0  0
   15.9450    5.9450   23.7070 O   0  5  0  0  0  0
   14.7070    6.8620   21.7860 O   0  5  0  0  0  0
   13.8770    4.7670   22.8810 O   0  0  0  0  0  0
   15.7620    3.6240   20.4700 P   0  0  2  0  0  0
   16.1710    4.3160   19.1940 O   0  5  0  0  0  0
   14.3210    3.2270   20.5410 O   0  0  0  0  0  0
   16.1210    4.7200   21.6290 O   0  0  0  0  0  0
   16.6990    0.8940   20.4190 P   0  0  2  0  0  0
   16.2990    0.9970   18.9450 O   0  5  0  0  0  0
   15.9060    0.0520   21.3690 O   0  0  0  0  0  0
   16.7720    2.4520   20.8520 O   0  0  0  0  0  0
   18.1450    0.4290   20.7230 O   0  0  0  0  0  0
   19.2010    1.1740   20.1840 C   0  0  0  0  0  0
   20.3740    1.0690   21.1830 C   0  0  1  0  0  0
   20.7730   -0.2540   21.5070 O   0  0  0  0  0  0
   21.5930    1.6960   20.5490 C   0  0  1  0  0  0
   22.1250    2.4340   21.6120 O   0  0  0  0  0  0
   22.5430    0.5890   20.2010 C   0  0  1  0  0  0
   23.8910    1.0020   20.2650 O   0  0  0  0  0  0
   22.2100   -0.3620   21.3100 C   0  0  2  0  0  0
   22.4670   -1.7160   20.8390 N   0  0  0  0  0  0
   21.7930   -2.2590   19.7810 C   0  0  0  0  0  0
   22.1780   -3.5380   19.6300 N   0  0  0  0  0  0
   23.1210   -3.8140   20.5090 C   0  0  0  0  0  0
   23.9680   -4.9860   20.7600 C   0  0  0  0  0  0
   23.8490   -6.1130   20.0540 N   0  0  0  0  0  0
   24.8590   -4.9000   21.7430 N   0  0  0  0  0  0
   24.9870   -3.7460   22.4810 C   0  0  0  0  0  0
   24.2780   -2.6140   22.2830 N   0  0  0  0  0  0
   23.3360   -2.6020   21.3070 C   0  0  0  0  0  0
   19.4819    0.7571   19.2056 H   0  0  0  0  0  0
   18.8855    2.2204   20.0597 H   0  0  0  0  0  0
   20.0484    1.5014   22.1406 H   0  0  0  0  0  0
   21.4226    2.3415   19.6748 H   0  0  0  0  0  0
   21.5717    3.2950   22.0150 H   0  0  0  0  0  0
   22.4990    0.2039   19.1716 H   0  0  0  0  0  0
   24.2876    1.7031   19.5159 H   0  0  0  0  0  0
   22.7752   -0.1651   22.2329 H   0  0  0  0  0  0
   21.0624   -1.7395   19.1609 H   0  0  0  0  0  0
   23.1099   -6.1778   19.2419 H   0  0  0  0  0  0
   24.4901   -6.9767   20.2844 H   0  0  0  0  0  0
   25.7184   -3.7454   23.2892 H   0  0  0  0  0  0
  1  2  1  0  0  0
  1  3  1  0  0  0
  1  4  2  0  0  0
  1  8  1  0  0  0
  5  6  1  0  0  0
  5  7  2  0  0  0
  5  8  1  0  0  0
  5 12  1  0  0  0
  9 10  1  0  0  0
  9 11  2  0  0  0
  9 12  1  0  0  0
  9 13  1  0  0  0
 13 14  1  0  0  0
 14 15  1  0  0  0
 14 32  1  0  0  0
 14 33  1  0  0  0
 15 16  1  0  0  0
 15 17  1  0  0  0
 15 34  1  0  0  0
 16 21  1  0  0  0
 17 18  1  0  0  0
 17 19  1  0  0  0
 17 35  1  0  0  0
 18 36  1  0  0  0
 19 20  1  0  0  0
 19 21  1  0  0  0
 19 37  1  0  0  0
 20 38  1  0  0  0
 21 22  1  0  0  0
 21 39  1  0  0  0
 22 23  1  0  0  0
 22 31  1  0  0  0
 23 24  2  0  0  0
 23 40  1  0  0  0
 24 25  1  0  0  0
 25 26  2  0  0  0
 25 31  1  0  0  0
 26 27  1  0  0  0
 26 28  1  0  0  0
 27 41  1  0  0  0
 27 42  1  0  0  0
 28 29  2  0  0  0
 29 30  1  0  0  0
 29 43  1  0  0  0
 30 31  2  0  0  0
M  CHG  4   2  -1   3  -1   6  -1  10  -1
M  END
> <s_m_source_file>
../2ych_ligand.sdf

> <i_m_source_file_index>
1

> <s_epik_input>
W09IXVAoPU8pKFtPSF0pT1tQQEBdKD1PKShbT0hdKU9bUEBAXSg9TykoW09IXSlPW0NIMl1bQ0BIXTFPW0NASF0oW0NASF0oW09IXSlbQ0BASF0xW09IXSluKFtjSF1uMiljKGMyMyluW2NIXW5jM1tOSDJd

> <s_epik_cmdline>
J2VwaWtfYXBwJywgJy1pbWFlJywgJ2xpZ2FuZF9wcm8ubWFlJywgJy1vbWFlJywgJ2xpZ2FuZF9wcmVwLm1hZScsICctbXMnLCAnMScsICctcGgnLCAnNycsICctcGh0JywgJzAuNScsICctbnQn

> <r_lp_tautomer_probability>
0.999997216410988

> <r_epik_Ionization_Penalty>
  0.0818

> <r_epik_Ionization_Penalty_Charging>
  0.0813

> <r_epik_Ionization_Penalty_Neutral>
  0.0004

> <r_epik_State_Penalty>
  0.0708

> <r_epik_Charging_Adjusted_Penalty>
0.152157994418768

> <i_epik_Tot_Q>
-4

> <i_epik_Tot_abs_Q>
4

> <s_epik_Chemistry_Notes>
This compound contains an acetal/aminal-like group ( X-CH(R)-Y where X, Y are N, S, or O) that may be acid/base labile, releasing an aldehyde.

$$$$
