2ycm_ligand
                    3D
 Schrodinger Suite 2020-3.
 29 31  0  0  1  0            999 V2000
   14.2150   58.8110  -17.7750 Cl  0  0  0  0  0  0
   18.6850   59.9200  -20.0970 C   0  0  0  0  0  0
   18.6830   61.4110  -19.9000 C   0  0  0  0  0  0
   19.2990   62.1100  -20.7350 O   0  0  0  0  0  0
   17.6430   59.1340  -19.6240 C   0  0  0  0  0  0
   18.1040   61.9440  -18.9170 O   0  5  0  0  0  0
   17.9500   57.8840  -19.9610 N   0  0  0  0  0  0
   17.1650   56.8370  -19.6480 C   0  0  0  0  0  0
   17.4540   55.5460  -19.9760 O   0  5  0  0  0  0
   15.9920   57.1010  -18.9870 C   0  0  0  0  0  0
   15.1100   55.9390  -18.5970 C   0  0  0  0  0  0
   14.0170   55.4890  -19.5410 C   0  0  0  0  0  0
   12.7560   55.2110  -19.0030 C   0  0  0  0  0  0
   11.7350   54.7680  -19.8200 C   0  0  0  0  0  0
   11.9790   54.5900  -21.1680 C   0  0  0  0  0  0
   13.2310   54.8440  -21.7040 C   0  0  0  0  0  0
   14.2570   55.2930  -20.8890 C   0  0  0  0  0  0
   15.7080   58.4260  -18.6420 C   0  0  0  0  0  0
   16.5210   59.4610  -18.9600 N   0  0  0  0  0  0
   19.1530   57.7880  -20.6290 N   0  0  0  0  0  0
   19.5970   59.0690  -20.7070 C   0  0  0  0  0  0
   15.7293   55.0419  -18.4497 H   0  0  0  0  0  0
   14.5816   56.1773  -17.6621 H   0  0  0  0  0  0
   12.5790   55.3445  -17.9358 H   0  0  0  0  0  0
   10.7480   54.5611  -19.4063 H   0  0  0  0  0  0
   11.1755   54.2450  -21.8188 H   0  0  0  0  0  0
   13.4089   54.6903  -22.7684 H   0  0  0  0  0  0
   15.2445   55.4901  -21.3061 H   0  0  0  0  0  0
   20.5290   59.3820  -21.1776 H   0  0  0  0  0  0
  1 18  1  0  0  0
  2  3  1  0  0  0
  2  5  2  0  0  0
  2 21  1  0  0  0
  3  4  2  0  0  0
  3  6  1  0  0  0
  5  7  1  0  0  0
  5 19  1  0  0  0
  7  8  1  0  0  0
  7 20  1  0  0  0
  8  9  1  0  0  0
  8 10  2  0  0  0
 10 11  1  0  0  0
 10 18  1  0  0  0
 11 12  1  0  0  0
 11 22  1  0  0  0
 11 23  1  0  0  0
 12 13  2  0  0  0
 12 17  1  0  0  0
 13 14  1  0  0  0
 13 24  1  0  0  0
 14 15  2  0  0  0
 14 25  1  0  0  0
 15 16  1  0  0  0
 15 26  1  0  0  0
 16 17  2  0  0  0
 16 27  1  0  0  0
 17 28  1  0  0  0
 18 19  2  0  0  0
 20 21  2  0  0  0
 21 29  1  0  0  0
M  CHG  2   6  -1   9  -1
M  END
> <s_m_source_file>
../2ycm_ligand.sdf

> <i_m_source_file_index>
1

> <s_epik_input>
W2NIXTFbY0hdW2NIXVtjSF1bY0hdYzFbQ0gyXWMoYyhDbCluMiljKFtPSF0pbihjMjMpbltjSF1jM0MoPU8pW09IXQ==

> <s_epik_cmdline>
J2VwaWtfYXBwJywgJy1pbWFlJywgJ2xpZ2FuZF9wcm8ubWFlJywgJy1vbWFlJywgJ2xpZ2FuZF9wcmVwLm1hZScsICctbXMnLCAnMScsICctcGgnLCAnNycsICctcGh0JywgJzAuNScsICctbnQn

> <r_epik_Ionization_Penalty>
  0.0396

> <r_epik_Ionization_Penalty_Charging>
  0.0000

> <r_epik_Ionization_Penalty_Neutral>
  0.0395

> <r_epik_State_Penalty>
  0.0332

> <r_epik_Charging_Adjusted_Penalty>
0.0332425660166843

> <i_epik_Tot_Q>
-2

> <i_epik_Tot_abs_Q>
2

$$$$
