2ycq_ligand
                    3D
 Schrodinger Suite 2020-3.
 47 50  0  0  1  0            999 V2000
  -49.5680  -15.8120  -11.4110 O   0  5  0  0  0  0
  -48.9160  -16.9670  -11.8910 N   0  3  0  0  0  0
  -49.2380  -17.3740  -13.1800 O   0  0  0  0  0  0
  -47.9940  -17.6060  -11.1750 C   0  0  0  0  0  0
  -47.3380  -18.7390  -11.6610 C   0  0  0  0  0  0
  -46.3750  -19.3700  -10.8650 C   0  0  0  0  0  0
  -46.0670  -18.8780   -9.5990 C   0  0  0  0  0  0
  -46.7150  -17.7390   -9.1170 C   0  0  0  0  0  0
  -46.6330  -17.0350   -7.9760 C   0  0  0  0  0  0
  -47.6710  -17.1180   -9.9160 C   0  0  0  0  0  0
  -48.1330  -16.0760   -9.2540 N   0  3  0  0  0  0
  -47.5100  -16.0240   -8.0870 C   0  0  0  0  0  0
  -47.8480  -14.9140   -7.0760 C   0  0  0  0  0  0
  -48.7420  -14.1150   -7.3760 O   0  0  0  0  0  0
  -47.1270  -14.9100   -5.9370 N   0  0  0  0  0  0
  -47.2870  -14.0870   -4.8750 C   0  0  0  0  0  0
  -46.4980  -14.3090   -3.7420 C   0  0  0  0  0  0
  -46.6170  -13.5380   -2.5870 C   0  0  0  0  0  0
  -48.2170  -13.0670   -4.8260 C   0  0  0  0  0  0
  -48.3440  -12.2810   -3.6710 C   0  0  0  0  0  0
  -47.5480  -12.4930   -2.5420 C   0  0  0  0  0  0
  -47.6830  -11.6990   -1.3920 C   0  0  0  0  0  0
  -48.2940  -10.2880   -1.4510 C   0  0  0  0  0  0
  -47.3100  -12.2040   -0.2110 N   0  0  0  0  0  0
  -47.3570  -11.5860    0.8690 N   0  0  0  0  0  0
  -46.9740  -12.2050    2.0030 C   0  0  0  0  0  0
  -47.0180  -11.6760    3.2280 N   0  0  0  0  0  0
  -46.5010  -12.6080    4.2190 C   0  0  0  0  0  0
  -46.1550  -13.8310    3.4020 C   0  0  0  0  0  0
  -46.5340  -13.4560    2.0400 N   0  3  0  0  0  0
  -47.5738  -19.1285  -12.6514 H   0  0  0  0  0  0
  -45.8610  -20.2552  -11.2396 H   0  0  0  0  0  0
  -45.3206  -19.3818   -8.9849 H   0  0  0  0  0  0
  -46.0286  -17.1410   -7.0631 H   0  0  0  0  0  0
  -46.3079  -15.6317   -5.8020 H   0  0  0  0  0  0
  -45.7634  -15.1140   -3.7629 H   0  0  0  0  0  0
  -45.9877  -13.7477   -1.7220 H   0  0  0  0  0  0
  -48.8548  -12.8720   -5.6882 H   0  0  0  0  0  0
  -49.0850  -11.4818   -3.6536 H   0  0  0  0  0  0
  -48.5396  -10.0381   -2.4937 H   0  0  0  0  0  0
  -47.5698   -9.5582   -1.0598 H   0  0  0  0  0  0
  -49.2094  -10.2591   -0.8417 H   0  0  0  0  0  0
  -47.7089  -10.5440    0.8916 H   0  0  0  0  0  0
  -46.3900  -12.4594    5.2931 H   0  0  0  0  0  0
  -45.7278  -14.8251    3.6001 H   0  0  0  0  0  0
  -46.4321  -14.1830    1.2208 H   0  0  0  0  0  0
  -48.9055  -15.4360   -9.7053 H   0  0  0  0  0  0
  1  2  1  0  0  0
  2  3  2  0  0  0
  2  4  1  0  0  0
  4  5  2  0  0  0
  4 10  1  0  0  0
  5  6  1  0  0  0
  5 31  1  0  0  0
  6  7  2  0  0  0
  6 32  1  0  0  0
  7  8  1  0  0  0
  7 33  1  0  0  0
  8  9  1  0  0  0
  8 10  2  0  0  0
  9 12  2  0  0  0
  9 34  1  0  0  0
 10 11  1  0  0  0
 11 12  1  0  0  0
 11 47  1  0  0  0
 12 13  1  0  0  0
 13 14  2  0  0  0
 13 15  1  0  0  0
 15 16  1  0  0  0
 15 35  1  0  0  0
 16 17  2  0  0  0
 16 19  1  0  0  0
 17 18  1  0  0  0
 17 36  1  0  0  0
 18 21  2  0  0  0
 18 37  1  0  0  0
 19 20  2  0  0  0
 19 38  1  0  0  0
 20 21  1  0  0  0
 20 39  1  0  0  0
 21 22  1  0  0  0
 22 23  1  0  0  0
 22 24  2  0  0  0
 23 40  1  0  0  0
 23 41  1  0  0  0
 23 42  1  0  0  0
 24 25  1  0  0  0
 25 26  1  0  0  0
 25 43  1  0  0  0
 26 27  2  0  0  0
 26 30  1  0  0  0
 27 28  1  0  0  0
 28 29  1  0  0  0
 28 44  1  0  0  0
 29 30  2  0  0  0
 29 45  1  0  0  0
 30 46  1  0  0  0
M  CHG  4   1  -1   2   1  11   1  30   1
M  END
> <s_m_source_file>
../2ycq_ligand.sdf

> <i_m_source_file_index>
1

> <s_epik_input>
W2NIXTFbY0hdW2NIXWMoW04rXShbTy1dKT1PKWMoYzEyKVtuSF1jKFtjSF0yKUMoPU8pW05IXWMzW2NIXVtjSF1jKFtjSF1bY0hdMykvQyhbQ0gzXSk9Ti9bTkhdQzQ9TltDSDJdW0NIXT1ONA==

> <s_epik_cmdline>
J2VwaWtfYXBwJywgJy1pbWFlJywgJ2xpZ2FuZF9wcm8ubWFlJywgJy1vbWFlJywgJ2xpZ2FuZF9wcmVwLm1hZScsICctbXMnLCAnMScsICctcGgnLCAnNycsICctcGh0JywgJzAuNScsICctbnQn

> <r_epik_Ionization_Penalty>
  0.0003

> <r_epik_Ionization_Penalty_Charging>
  0.0000

> <r_epik_Ionization_Penalty_Neutral>
  0.0003

> <r_epik_State_Penalty>
  0.0041

> <r_epik_Charging_Adjusted_Penalty>
0.0040660285342471

> <i_epik_Tot_Q>
2

> <i_epik_Tot_abs_Q>
4

> <s_epik_Chemistry_Notes>
This compound has an imine and may undergo hydrolysis.

$$$$
