2ycr_ligand
                    3D
 Schrodinger Suite 2020-3.
 60 63  0  0  1  0            999 V2000
  -36.5350   33.7960    7.7370 O   0  0  0  0  0  0
  -37.1040   32.9820    8.4370 C   0  0  0  0  0  0
  -37.9890   32.0890    8.0030 N   0  0  0  0  0  0
  -38.4690   31.8330    6.7630 C   0  0  0  0  0  0
  -38.0810   32.5160    5.6140 C   0  0  0  0  0  0
  -38.6400   32.1650    4.3960 C   0  0  0  0  0  0
  -39.4110   30.8100    6.6800 C   0  0  0  0  0  0
  -39.9650   30.4620    5.4600 C   0  0  0  0  0  0
  -39.5820   31.1450    4.3090 C   0  0  0  0  0  0
  -40.1870   30.7670    2.9900 C   0  0  0  0  0  0
  -39.7980   31.4600    1.7180 C   0  0  0  0  0  0
  -41.0760   29.7740    2.9570 N   0  0  0  0  0  0
  -41.7370   29.3580    1.8890 N   0  0  3  0  0  0
  -42.9390   28.5400    2.0710 C   0  0  1  0  0  0
  -43.5320   28.6510    3.4170 N   0  0  0  0  0  0
  -44.7540   28.9810    3.3880 C   0  0  0  0  0  0
  -45.2670   29.1950    1.9860 C   0  0  0  0  0  0
  -44.0490   28.9780    1.2360 N   0  0  1  0  0  0
  -36.9320   32.8670    9.7520 N   0  0  0  0  0  0
  -36.1610   33.5520   10.6340 C   0  0  0  0  0  0
  -35.2900   34.5980   10.3350 C   0  0  0  0  0  0
  -34.5730   35.1930   11.3620 C   0  0  0  0  0  0
  -34.6940   34.7560   12.6860 C   0  0  0  0  0  0
  -35.5640   33.7130   12.9620 C   0  0  0  0  0  0
  -36.2960   33.1260   11.9460 C   0  0  0  0  0  0
  -33.9440   35.3470   13.8550 C   0  0  0  0  0  0
  -32.9510   36.4690   13.7560 C   0  0  0  0  0  0
  -34.2020   34.8130   15.0460 N   0  0  0  0  0  0
  -33.6670   35.1200   16.1250 N   0  0  0  0  0  0
  -34.2020   34.4930   17.3340 C   0  0  0  0  0  0
  -33.5350   34.5610   18.6140 N   0  0  0  0  0  0
  -34.2460   33.7060   19.5440 C   0  5  0  0  0  0
  -34.9010   32.7610   18.5440 C   0  0  0  0  0  0
  -34.7950   33.1520   17.3300 N   0  3  0  0  0  0
  -38.4639   31.3956    8.7127 H   0  0  0  0  0  0
  -37.3454   33.3183    5.6719 H   0  0  0  0  0  0
  -38.3375   32.6955    3.4931 H   0  0  0  0  0  0
  -39.7142   30.2795    7.5826 H   0  0  0  0  0  0
  -40.6976   29.6571    5.4009 H   0  0  0  0  0  0
  -39.0601   32.2453    1.9392 H   0  0  0  0  0  0
  -40.6895   31.9131    1.2599 H   0  0  0  0  0  0
  -39.3591   30.7299    1.0221 H   0  0  0  0  0  0
  -41.4146   29.6031    0.9528 H   0  0  0  0  0  0
  -42.5698   27.5326    1.8285 H   0  0  0  0  0  0
  -45.3189   29.0819    4.3265 H   0  0  0  0  0  0
  -46.0605   28.4644    1.7704 H   0  0  0  0  0  0
  -45.6720   30.2137    1.8952 H   0  0  0  0  0  0
  -43.7857   29.9257    0.7436 H   0  0  0  0  0  0
  -37.4800   32.0956   10.3130 H   0  0  0  0  0  0
  -35.1739   34.9437    9.3078 H   0  0  0  0  0  0
  -33.9002   36.0194   11.1330 H   0  0  0  0  0  0
  -35.6719   33.3534   13.9853 H   0  0  0  0  0  0
  -36.9884   32.3174   12.1802 H   0  0  0  0  0  0
  -32.8608   36.7873   12.7069 H   0  0  0  0  0  0
  -31.9717   36.1251   14.1203 H   0  0  0  0  0  0
  -33.2931   37.3164   14.3682 H   0  0  0  0  0  0
  -32.6435   35.1935   18.7367 H   0  0  0  0  0  0
  -33.6207   33.2213   20.2938 H   0  0  0  0  0  0
  -35.4100   31.8419   18.8343 H   0  0  0  0  0  0
  -35.0602   32.6707   16.3771 H   0  0  0  0  0  0
  1  2  2  0  0  0
  2  3  1  0  0  0
  2 19  1  0  0  0
  3  4  1  0  0  0
  3 35  1  0  0  0
  4  5  2  0  0  0
  4  7  1  0  0  0
  5  6  1  0  0  0
  5 36  1  0  0  0
  6  9  2  0  0  0
  6 37  1  0  0  0
  7  8  2  0  0  0
  7 38  1  0  0  0
  8  9  1  0  0  0
  8 39  1  0  0  0
  9 10  1  0  0  0
 10 11  1  0  0  0
 10 12  2  0  0  0
 11 40  1  0  0  0
 11 41  1  0  0  0
 11 42  1  0  0  0
 12 13  1  0  0  0
 13 14  1  0  0  0
 13 43  1  0  0  0
 14 15  1  0  0  0
 14 18  1  0  0  0
 14 44  1  0  0  0
 15 16  2  0  0  0
 16 17  1  0  0  0
 16 45  1  0  0  0
 17 18  1  0  0  0
 17 46  1  0  0  0
 17 47  1  0  0  0
 18 48  1  0  0  0
 19 20  1  0  0  0
 19 49  1  0  0  0
 20 21  2  0  0  0
 20 25  1  0  0  0
 21 22  1  0  0  0
 21 50  1  0  0  0
 22 23  2  0  0  0
 22 51  1  0  0  0
 23 24  1  0  0  0
 23 26  1  0  0  0
 24 25  2  0  0  0
 24 52  1  0  0  0
 25 53  1  0  0  0
 26 27  1  0  0  0
 26 28  2  0  0  0
 27 54  1  0  0  0
 27 55  1  0  0  0
 27 56  1  0  0  0
 28 29  1  0  0  0
 29 30  2  0  0  0
 30 31  1  0  0  0
 30 34  1  0  0  0
 31 32  1  0  0  0
 31 57  1  0  0  0
 32 33  1  0  0  0
 32 58  1  0  0  0
 33 34  2  0  0  0
 33 59  1  0  0  0
 34 60  1  0  0  0
M  CHG  2  32  -1  34   1
M  END
> <s_m_source_file>
../2ycr_ligand.sdf

> <i_m_source_file_index>
1

> <s_epik_input>
TjE9W0NIXVtDSDJdW05IXVxDMT1OXE49QyhbQ0gzXSlcYyhbY0hdW2NIXTIpW2NIXVtjSF1jMltOSF1DKD1PKVtOSF1jM1tjSF1bY0hdYyhbY0hdW2NIXTMpL0MoW0NIM10pPU4vW05IXVtDQEhdNE49W0NIXVtDSDJdW05IMitdNA==

> <s_epik_cmdline>
J2VwaWtfYXBwJywgJy1pbWFlJywgJ2xpZ2FuZF9wcm8ubWFlJywgJy1vbWFlJywgJ2xpZ2FuZF9wcmVwLm1hZScsICctbXMnLCAnMScsICctcGgnLCAnNycsICctcGh0JywgJzAuNScsICctbnQn

> <r_lp_tautomer_probability>
0.999986

> <r_epik_Ionization_Penalty>
  0.0488

> <r_epik_Ionization_Penalty_Charging>
  0.0091

> <r_epik_Ionization_Penalty_Neutral>
  0.0397

> <r_epik_State_Penalty>
  0.0008

> <r_epik_Charging_Adjusted_Penalty>
0.00981604225161047

> <i_epik_Tot_Q>
0

> <i_epik_Tot_abs_Q>
2

> <s_epik_Chemistry_Notes>
This compound has an imine and may undergo hydrolysis. This compound contains an acetal/aminal-like group ( X-CH(R)-Y where X, Y are N, S, or O) that may be acid/base labile, releasing an aldehyde.

$$$$
