2ydf_ligand
                    3D
 Schrodinger Suite 2020-3.
 26 26  0  0  1  0            999 V2000
    7.2560  -13.1420    7.2940 I   0  0  0  0  0  0
    3.9020  -12.0250   12.0250 I   0  0  0  0  0  0
    3.1480   -8.5590    7.2340 I   0  0  0  0  0  0
    2.8260   -9.7470   10.0540 O   0  5  0  0  0  0
    4.6850   -8.9210    3.1840 O   0  0  0  0  0  0
    6.2480  -10.4520    3.3010 O   0  5  0  0  0  0
    5.1420  -10.9020    7.4700 C   0  0  0  0  0  0
    5.7490  -11.9520    8.1530 C   0  0  0  0  0  0
    5.3910  -12.2650    9.4430 C   0  0  0  0  0  0
    4.4180  -11.5240   10.0610 C   0  0  0  0  0  0
    3.8000  -10.4780    9.4150 C   0  0  0  0  0  0
    4.1630  -10.1650    8.1250 C   0  0  0  0  0  0
    5.5660  -10.5750    6.0730 C   0  0  0  0  0  0
    4.5430  -10.4550    4.9960 C   0  0  1  0  0  0
    5.1940   -9.9200    3.7620 C   0  0  0  0  0  0
    3.9240  -11.7820    4.7160 C   0  0  0  0  0  0
    4.7530  -12.8490    4.0840 C   0  0  0  0  0  0
    5.8739  -13.0902    9.9663 H   0  0  0  0  0  0
    6.0790   -9.6020    6.0638 H   0  0  0  0  0  0
    6.2505  -11.3539    5.7057 H   0  0  0  0  0  0
    3.7489   -9.7685    5.3249 H   0  0  0  0  0  0
    3.5720  -12.2284    5.6577 H   0  0  0  0  0  0
    3.0731  -11.6525    4.0310 H   0  0  0  0  0  0
    4.1441  -13.7552    3.9499 H   0  0  0  0  0  0
    5.6125  -13.0772    4.7314 H   0  0  0  0  0  0
    5.1137  -12.5013    3.1047 H   0  0  0  0  0  0
  1  8  1  0  0  0
  2 10  1  0  0  0
  3 12  1  0  0  0
  4 11  1  0  0  0
  5 15  2  0  0  0
  6 15  1  0  0  0
  7  8  2  0  0  0
  7 12  1  0  0  0
  7 13  1  0  0  0
  8  9  1  0  0  0
  9 10  2  0  0  0
  9 18  1  0  0  0
 10 11  1  0  0  0
 11 12  2  0  0  0
 13 14  1  0  0  0
 13 19  1  0  0  0
 13 20  1  0  0  0
 14 15  1  0  0  0
 14 16  1  0  0  0
 14 21  1  0  0  0
 16 17  1  0  0  0
 16 22  1  0  0  0
 16 23  1  0  0  0
 17 24  1  0  0  0
 17 25  1  0  0  0
 17 26  1  0  0  0
M  CHG  2   4  -1   6  -1
M  END
> <s_m_source_file>
../2ydf_ligand.sdf

> <i_m_source_file_index>
1

> <s_epik_input>
Tz1DKFtPSF0pW0NAQEhdKFtDSDJdW0NIM10pW0NIMl1jMWMoSSlbY0hdYyhJKWMoW09IXSljMUk=

> <s_epik_cmdline>
J2VwaWtfYXBwJywgJy1pbWFlJywgJ2xpZ2FuZF9wcm8ubWFlJywgJy1vbWFlJywgJ2xpZ2FuZF9wcmVwLm1hZScsICctbXMnLCAnMScsICctcGgnLCAnNycsICctcGh0JywgJzAuNScsICctbnQn

> <r_epik_Ionization_Penalty>
  0.3920

> <r_epik_Ionization_Penalty_Charging>
  0.3920

> <r_epik_Ionization_Penalty_Neutral>
  0.0000

> <r_epik_State_Penalty>
  0.3891

> <r_epik_Charging_Adjusted_Penalty>
0.781062584235844

> <i_epik_Tot_Q>
-2

> <i_epik_Tot_abs_Q>
2

$$$$
