2ydi_ligand
                    3D
 Schrodinger Suite 2020-3.
 45 46  0  0  1  0            999 V2000
    2.7040   -3.2270   19.9480 S   0  0  0  0  0  0
    3.9910   -3.9740   19.0660 C   0  0  0  0  0  0
    3.5570   -5.1270   18.4340 C   0  0  0  0  0  0
    2.1780   -5.3590   18.6910 C   0  0  0  0  0  0
    1.5620   -4.4230   19.5050 C   0  0  0  0  0  0
    5.2890   -3.4650   19.0100 N   0  0  0  0  0  0
    5.6100   -2.2280   19.5250 C   0  0  0  0  0  0
    6.8540   -1.7920   19.1610 N   0  0  0  0  0  0
    4.8580   -1.5750   20.2450 O   0  0  0  0  0  0
    4.4510   -5.9240   17.6230 C   0  0  0  0  0  0
    5.6370   -5.6480   17.4900 O   0  0  0  0  0  0
    3.8280   -6.9810   16.9920 N   0  0  0  0  0  0
   -7.2820   -3.6610   20.3140 C   0  0  0  0  0  0
   -6.0700   -2.8400   20.5130 N   0  3  0  0  0  0
   -5.5990   -2.8700   21.9200 C   0  0  0  0  0  0
   -4.0970   -3.0410   21.8770 C   0  0  0  0  0  0
    0.1870   -4.3280   19.9610 C   0  0  0  0  0  0
   -0.2480   -3.2880   20.7620 C   0  0  0  0  0  0
   -1.5700   -3.1930   21.1620 C   0  0  0  0  0  0
   -2.4600   -4.1660   20.7440 C   0  0  0  0  0  0
   -6.2480   -1.4570   20.0080 C   0  0  0  0  0  0
   -2.0380   -5.2080   19.9460 C   0  0  0  0  0  0
   -0.7220   -5.2820   19.5530 C   0  0  0  0  0  0
   -3.8040   -4.1800   21.0820 O   0  0  0  0  0  0
    1.6432   -6.2135   18.2765 H   0  0  0  0  0  0
    6.0918   -4.0556   18.5444 H   0  0  0  0  0  0
    7.4880   -2.4160   18.5139 H   0  0  0  0  0  0
    7.2207   -0.8173   19.5153 H   0  0  0  0  0  0
    2.7571   -7.1680   17.1599 H   0  0  0  0  0  0
    4.4022   -7.6368   16.3210 H   0  0  0  0  0  0
   -7.1056   -4.6752   20.7017 H   0  0  0  0  0  0
   -7.5165   -3.7144   19.2406 H   0  0  0  0  0  0
   -8.1263   -3.2047   20.8515 H   0  0  0  0  0  0
   -5.2762   -3.2995   19.9058 H   0  0  0  0  0  0
   -5.8697   -1.9270   22.4175 H   0  0  0  0  0  0
   -6.0721   -3.7116   22.4472 H   0  0  0  0  0  0
   -3.6383   -2.1436   21.4362 H   0  0  0  0  0  0
   -3.7148   -3.1840   22.8985 H   0  0  0  0  0  0
    0.4639   -2.5282   21.0847 H   0  0  0  0  0  0
   -1.9026   -2.3688   21.7930 H   0  0  0  0  0  0
   -6.5967   -1.4895   18.9652 H   0  0  0  0  0  0
   -5.2879   -0.9223   20.0571 H   0  0  0  0  0  0
   -6.9914   -0.9334   20.6271 H   0  0  0  0  0  0
   -2.7465   -5.9724   19.6269 H   0  0  0  0  0  0
   -0.3945   -6.1017   18.9135 H   0  0  0  0  0  0
  1  2  1  0  0  0
  1  5  1  0  0  0
  2  3  2  0  0  0
  2  6  1  0  0  0
  3  4  1  0  0  0
  3 10  1  0  0  0
  4  5  2  0  0  0
  4 25  1  0  0  0
  5 17  1  0  0  0
  6  7  1  0  0  0
  6 26  1  0  0  0
  7  8  1  0  0  0
  7  9  2  0  0  0
  8 27  1  0  0  0
  8 28  1  0  0  0
 10 11  2  0  0  0
 10 12  1  0  0  0
 12 29  1  0  0  0
 12 30  1  0  0  0
 13 14  1  0  0  0
 13 31  1  0  0  0
 13 32  1  0  0  0
 13 33  1  0  0  0
 14 15  1  0  0  0
 14 21  1  0  0  0
 14 34  1  0  0  0
 15 16  1  0  0  0
 15 35  1  0  0  0
 15 36  1  0  0  0
 16 24  1  0  0  0
 16 37  1  0  0  0
 16 38  1  0  0  0
 17 18  2  0  0  0
 17 23  1  0  0  0
 18 19  1  0  0  0
 18 39  1  0  0  0
 19 20  2  0  0  0
 19 40  1  0  0  0
 20 22  1  0  0  0
 20 24  1  0  0  0
 21 41  1  0  0  0
 21 42  1  0  0  0
 21 43  1  0  0  0
 22 23  2  0  0  0
 22 44  1  0  0  0
 23 45  1  0  0  0
M  CHG  1  14   1
M  END
> <s_m_source_file>
../2ydi_ligand.sdf

> <i_m_source_file_index>
1

> <s_epik_input>
W05IMl1DKD1PKVtOSF1jMXNjKFtjSF1jMUMoPU8pW05IMl0pLWMyW2NIXVtjSF1jKFtjSF1bY0hdMilPW0NIMl1bQ0gyXVtOSCtdKFtDSDNdKVtDSDNd

> <s_epik_cmdline>
J2VwaWtfYXBwJywgJy1pbWFlJywgJ2xpZ2FuZF9wcm8ubWFlJywgJy1vbWFlJywgJ2xpZ2FuZF9wcmVwLm1hZScsICctbXMnLCAnMScsICctcGgnLCAnNycsICctcGh0JywgJzAuNScsICctbnQn

> <r_lp_tautomer_probability>
1

> <r_epik_Ionization_Penalty>
  0.0248

> <r_epik_Ionization_Penalty_Charging>
  0.0248

> <r_epik_Ionization_Penalty_Neutral>
  0.0000

> <r_epik_State_Penalty>
  0.0202

> <r_epik_Charging_Adjusted_Penalty>
0.0449633694247609

> <i_epik_Tot_Q>
1

> <i_epik_Tot_abs_Q>
1

$$$$
