2ydj_ligand
                    3D
 Schrodinger Suite 2020-3.
 45 47  0  0  1  0            999 V2000
    9.2180   -1.2330   46.6090 C   0  0  0  0  0  0
    7.9690   -1.2940   46.0070 C   0  0  0  0  0  0
    7.2630   -2.4770   45.9420 C   0  0  0  0  0  0
    7.8150   -3.6100   46.5010 C   0  0  0  0  0  0
    9.0580   -3.5510   47.0900 C   0  0  0  0  0  0
    9.7740   -2.3710   47.1510 C   0  0  0  0  0  0
    9.5570   -4.6800   47.6230 F   0  0  0  0  0  0
    5.9730   -2.5440   45.2730 C   0  0  0  0  0  0
    5.4240   -1.7070   44.3220 C   0  0  0  0  0  0
    4.1240   -2.0850   43.9010 C   0  0  0  0  0  0
    3.6650   -3.2280   44.5210 C   0  0  0  0  0  0
    4.8540   -3.8030   45.6210 S   0  0  0  0  0  0
    2.3830   -3.8490   44.2870 C   0  0  0  0  0  0
    1.5590   -3.3440   43.5240 O   0  0  0  0  0  0
    2.1110   -5.0300   44.9490 N   0  0  0  0  0  0
    0.7140   -5.4280   44.9620 C   0  0  1  0  0  0
    0.5650   -6.9220   44.7110 C   0  0  0  0  0  0
   -0.8490   -7.4230   44.9750 C   0  0  0  0  0  0
   -1.2520   -7.1160   46.4030 C   0  0  0  0  0  0
   -1.2310   -5.6220   46.4710 N   0  3  0  0  0  0
    0.1070   -4.9850   46.2820 C   0  0  0  0  0  0
    3.3350   -1.4360   42.9570 N   0  0  0  0  0  0
    3.5890   -0.1590   42.5230 C   0  0  0  0  0  0
    4.6340    0.4540   42.7080 O   0  0  0  0  0  0
    2.5050    0.3420   41.8320 N   0  0  0  0  0  0
    9.7577   -0.2870   46.6529 H   0  0  0  0  0  0
    7.5378   -0.3898   45.5774 H   0  0  0  0  0  0
    7.2675   -4.5522   46.4766 H   0  0  0  0  0  0
   10.7583   -2.3410   47.6182 H   0  0  0  0  0  0
    5.9440   -0.8330   43.9297 H   0  0  0  0  0  0
    2.8662   -5.6571   45.4453 H   0  0  0  0  0  0
    0.2094   -4.9139   44.1307 H   0  0  0  0  0  0
    0.8112   -7.1439   43.6621 H   0  0  0  0  0  0
    1.2479   -7.4749   45.3728 H   0  0  0  0  0  0
   -1.5487   -6.9252   44.2875 H   0  0  0  0  0  0
   -0.8886   -8.5105   44.8146 H   0  0  0  0  0  0
   -2.2541   -7.5259   46.5973 H   0  0  0  0  0  0
   -0.5286   -7.5728   47.0944 H   0  0  0  0  0  0
   -1.8827   -5.2101   45.6864 H   0  0  0  0  0  0
   -1.5923   -5.2947   47.4571 H   0  0  0  0  0  0
    0.7689   -5.2833   47.1084 H   0  0  0  0  0  0
   -0.0105   -3.8913   46.2829 H   0  0  0  0  0  0
    2.4629   -1.9476   42.5238 H   0  0  0  0  0  0
    1.6004   -0.2714   41.7082 H   0  0  0  0  0  0
    2.5454    1.3549   41.4049 H   0  0  0  0  0  0
  1  2  2  0  0  0
  1  6  1  0  0  0
  1 26  1  0  0  0
  2  3  1  0  0  0
  2 27  1  0  0  0
  3  4  2  0  0  0
  3  8  1  0  0  0
  4  5  1  0  0  0
  4 28  1  0  0  0
  5  6  2  0  0  0
  5  7  1  0  0  0
  6 29  1  0  0  0
  8  9  2  0  0  0
  8 12  1  0  0  0
  9 10  1  0  0  0
  9 30  1  0  0  0
 10 11  2  0  0  0
 10 22  1  0  0  0
 11 12  1  0  0  0
 11 13  1  0  0  0
 13 14  2  0  0  0
 13 15  1  0  0  0
 15 16  1  0  0  0
 15 31  1  0  0  0
 16 17  1  0  0  0
 16 21  1  0  0  0
 16 32  1  0  0  0
 17 18  1  0  0  0
 17 33  1  0  0  0
 17 34  1  0  0  0
 18 19  1  0  0  0
 18 35  1  0  0  0
 18 36  1  0  0  0
 19 20  1  0  0  0
 19 37  1  0  0  0
 19 38  1  0  0  0
 20 21  1  0  0  0
 20 39  1  0  0  0
 20 40  1  0  0  0
 21 41  1  0  0  0
 21 42  1  0  0  0
 22 23  1  0  0  0
 22 43  1  0  0  0
 23 24  2  0  0  0
 23 25  1  0  0  0
 25 44  1  0  0  0
 25 45  1  0  0  0
M  CHG  1  20   1
M  END
> <s_m_source_file>
../2ydj_ligand.sdf

> <i_m_source_file_index>
1

> <s_epik_input>
W2NIXTFjKEYpW2NIXVtjSF1bY0hdYzEtYzJbY0hdYyhbTkhdQyg9TylbTkgyXSljKHMyKUMoPU8pW05IXVtDQEhdM1tDSDJdW0NIMl1bQ0gyXVtOSDIrXVtDSDJdMw==

> <s_epik_cmdline>
J2VwaWtfYXBwJywgJy1pbWFlJywgJ2xpZ2FuZF9wcm8ubWFlJywgJy1vbWFlJywgJ2xpZ2FuZF9wcmVwLm1hZScsICctbXMnLCAnMScsICctcGgnLCAnNycsICctcGh0JywgJzAuNScsICctbnQn

> <r_lp_tautomer_probability>
1

> <r_epik_Ionization_Penalty>
  0.0004

> <r_epik_Ionization_Penalty_Charging>
  0.0003

> <r_epik_Ionization_Penalty_Neutral>
  0.0000

> <r_epik_State_Penalty>
 -0.0000

> <r_epik_Charging_Adjusted_Penalty>
0.000344157670468044

> <i_epik_Tot_Q>
1

> <i_epik_Tot_abs_Q>
1

$$$$
