2ydk_ligand
                    3D
 Schrodinger Suite 2020-3.
 45 47  0  0  1  0            999 V2000
    1.2590   71.9410   10.0000 S   0  0  0  0  0  0
    2.7360   72.8250    9.7660 C   0  0  0  0  0  0
    2.9350   73.8130   10.7180 C   0  0  0  0  0  0
    1.8450   73.8320   11.6340 C   0  0  0  0  0  0
    0.8610   72.8960   11.3850 C   0  0  0  0  0  0
    3.5990   72.5150    8.7140 N   0  0  0  0  0  0
    3.3740   71.4330    7.9070 C   0  0  0  0  0  0
    4.4360   71.0590    7.1280 N   0  0  0  0  0  0
    2.3180   70.8440    7.8680 O   0  0  0  0  0  0
    4.1220   74.6620   10.7220 C   0  0  0  0  0  0
    5.0040   74.5430    9.8990 O   0  0  0  0  0  0
    4.2280   75.5830   11.7290 N   0  0  0  0  0  0
    5.5240   76.1430   12.0570 C   0  0  2  0  0  0
    6.2170   75.2340   13.0390 C   0  0  0  0  0  0
    7.5240   75.8190   13.4510 N   0  3  0  0  0  0
    7.4040   77.1600   14.0990 C   0  0  0  0  0  0
    6.7580   78.0830   13.0800 C   0  0  0  0  0  0
    5.4040   77.5620   12.6190 C   0  0  0  0  0  0
   -0.3740   72.6280   12.1140 C   0  0  0  0  0  0
   -0.8100   73.4350   13.1440 C   0  0  0  0  0  0
   -1.9880   73.1630   13.8240 C   0  0  0  0  0  0
   -2.7240   72.0570   13.4540 C   0  0  0  0  0  0
   -2.3000   71.2370   12.4270 C   0  0  0  0  0  0
   -1.1290   71.5280   11.7660 C   0  0  0  0  0  0
    1.7915   74.5319   12.4679 H   0  0  0  0  0  0
    4.4795   73.1454    8.5209 H   0  0  0  0  0  0
    5.3835   71.6148    7.1862 H   0  0  0  0  0  0
    4.3418   70.2027    6.4440 H   0  0  0  0  0  0
    3.3350   75.8985   12.2885 H   0  0  0  0  0  0
    6.0858   76.1819   11.1121 H   0  0  0  0  0  0
    5.5841   75.1057   13.9295 H   0  0  0  0  0  0
    6.3935   74.2545   12.5705 H   0  0  0  0  0  0
    8.0143   75.1492   14.1728 H   0  0  0  0  0  0
    8.1671   75.9389   12.5667 H   0  0  0  0  0  0
    6.7804   77.0767   15.0013 H   0  0  0  0  0  0
    8.4042   77.5238   14.3769 H   0  0  0  0  0  0
    6.6101   79.0769   13.5275 H   0  0  0  0  0  0
    7.4109   78.1710   12.1991 H   0  0  0  0  0  0
    5.0147   78.2334   11.8395 H   0  0  0  0  0  0
    4.7163   77.5594   13.4775 H   0  0  0  0  0  0
   -0.2170   74.3039   13.4294 H   0  0  0  0  0  0
   -2.3249   73.8100   14.6339 H   0  0  0  0  0  0
   -3.6515   71.8273   13.9785 H   0  0  0  0  0  0
   -2.8890   70.3652   12.1420 H   0  0  0  0  0  0
   -0.7935   70.8801   10.9562 H   0  0  0  0  0  0
  1  2  1  0  0  0
  1  5  1  0  0  0
  2  3  2  0  0  0
  2  6  1  0  0  0
  3  4  1  0  0  0
  3 10  1  0  0  0
  4  5  2  0  0  0
  4 25  1  0  0  0
  5 19  1  0  0  0
  6  7  1  0  0  0
  6 26  1  0  0  0
  7  8  1  0  0  0
  7  9  2  0  0  0
  8 27  1  0  0  0
  8 28  1  0  0  0
 10 11  2  0  0  0
 10 12  1  0  0  0
 12 13  1  0  0  0
 12 29  1  0  0  0
 13 14  1  0  0  0
 13 18  1  0  0  0
 13 30  1  0  0  0
 14 15  1  0  0  0
 14 31  1  0  0  0
 14 32  1  0  0  0
 15 16  1  0  0  0
 15 33  1  0  0  0
 15 34  1  0  0  0
 16 17  1  0  0  0
 16 35  1  0  0  0
 16 36  1  0  0  0
 17 18  1  0  0  0
 17 37  1  0  0  0
 17 38  1  0  0  0
 18 39  1  0  0  0
 18 40  1  0  0  0
 19 20  2  0  0  0
 19 24  1  0  0  0
 20 21  1  0  0  0
 20 41  1  0  0  0
 21 22  2  0  0  0
 21 42  1  0  0  0
 22 23  1  0  0  0
 22 43  1  0  0  0
 23 24  2  0  0  0
 23 44  1  0  0  0
 24 45  1  0  0  0
M  CHG  1  15   1
M  END
> <s_m_source_file>
../2ydk_ligand.sdf

> <i_m_source_file_index>
1

> <s_epik_input>
W2NIXTFbY0hdW2NIXVtjSF1bY0hdYzEtYyhzYzJbTkhdQyg9TylbTkgyXSlbY0hdYzJDKD1PKVtOSF1bQ0BASF0zW0NIMl1bTkgyK11bQ0gyXVtDSDJdW0NIMl0z

> <s_epik_cmdline>
J2VwaWtfYXBwJywgJy1pbWFlJywgJ2xpZ2FuZF9wcm8ubWFlJywgJy1vbWFlJywgJ2xpZ2FuZF9wcmVwLm1hZScsICctbXMnLCAnMScsICctcGgnLCAnNycsICctcGh0JywgJzAuNScsICctbnQn

> <r_lp_tautomer_probability>
1

> <r_epik_Ionization_Penalty>
  0.0003

> <r_epik_Ionization_Penalty_Charging>
  0.0003

> <r_epik_Ionization_Penalty_Neutral>
  0.0000

> <r_epik_State_Penalty>
 -0.0000

> <r_epik_Charging_Adjusted_Penalty>
0.000287105582458797

> <i_epik_Tot_Q>
1

> <i_epik_Tot_abs_Q>
1

$$$$
