2ydm_ligand
                    3D
 Schrodinger Suite 2020-3.
 25 25  0  0  1  0            999 V2000
   12.9620   -8.3170  -21.7140 C   0  0  0  0  0  0
   11.8620   -8.6530  -21.3290 O   0  0  0  0  0  0
   13.9790   -8.1970  -20.6680 C   0  0  0  0  0  0
   15.2600   -8.2290  -20.9450 C   0  0  0  0  0  0
   13.5610   -8.1020  -19.2200 C   0  0  0  0  0  0
   13.7880   -6.2380  -18.6610 Se  0  0  0  0  0  0
   13.2500   -8.1130  -23.0170 N   0  0  0  0  0  0
   12.3260   -8.2580  -23.9570 C   0  0  3  0  0  0
   11.4960   -9.3140  -24.0970 C   0  0  0  0  0  0
   10.6740   -9.3950  -25.0330 O   0  5  0  0  0  0
   12.5120   -7.1560  -24.9390 C   0  0  0  0  0  0
   14.0340   -7.0490  -24.9080 C   0  0  0  0  0  0
   14.5170   -7.6820  -23.5970 C   0  0  0  0  0  0
   11.4890  -10.2190  -23.2480 O   0  0  0  0  0  0
   15.5951   -8.2980  -21.9904 H   0  0  0  0  0  0
   15.9997   -8.1869  -20.1320 H   0  0  0  0  0  0
   12.5087   -8.4070  -19.1214 H   0  0  0  0  0  0
   14.1935   -8.7651  -18.6115 H   0  0  0  0  0  0
   11.5254   -8.8041  -23.4366 H   0  0  0  0  0  0
   12.1002   -7.4593  -25.9129 H   0  0  0  0  0  0
   11.9885   -6.2561  -24.5838 H   0  0  0  0  0  0
   14.4568   -7.5845  -25.7708 H   0  0  0  0  0  0
   14.3282   -5.9900  -24.9536 H   0  0  0  0  0  0
   15.0072   -6.9687  -22.9181 H   0  0  0  0  0  0
   15.1690   -8.5556  -23.7440 H   0  0  0  0  0  0
  1  2  2  0  0  0
  1  3  1  0  0  0
  1  7  1  0  0  0
  3  4  2  0  0  0
  3  5  1  0  0  0
  4 15  1  0  0  0
  4 16  1  0  0  0
  5  6  1  0  0  0
  5 17  1  0  0  0
  5 18  1  0  0  0
  7  8  1  0  0  0
  7 13  1  0  0  0
  8  9  1  0  0  0
  8 11  1  0  0  0
  8 19  1  0  0  0
  9 10  1  0  0  0
  9 14  2  0  0  0
 11 12  1  0  0  0
 11 20  1  0  0  0
 11 21  1  0  0  0
 12 13  1  0  0  0
 12 22  1  0  0  0
 12 23  1  0  0  0
 13 24  1  0  0  0
 13 25  1  0  0  0
M  CHG  1  10  -1
M  END
> <s_m_source_file>
../2ydm_ligand.sdf

> <i_m_source_file_index>
1

> <s_epik_input>
W1NlSF1bQ0gyXUMoPVtDSDJdKUMoPU8pTjFbQ0hdKEMoPU8pW09IXSlbQ0gyXVtDSDJdW0NIMl0x

> <s_epik_cmdline>
J2VwaWtfYXBwJywgJy1pbWFlJywgJ2xpZ2FuZF9wcm8ubWFlJywgJy1vbWFlJywgJ2xpZ2FuZF9wcmVwLm1hZScsICctbXMnLCAnMScsICctcGgnLCAnNycsICctcGh0JywgJzAuNScsICctbnQn

> <r_lp_tautomer_probability>
1

> <r_epik_Ionization_Penalty>
  0.0002

> <r_epik_Ionization_Penalty_Charging>
  0.0002

> <r_epik_Ionization_Penalty_Neutral>
  0.0000

> <r_epik_State_Penalty>
 -0.0000

> <r_epik_Charging_Adjusted_Penalty>
0.000222083925459041

> <i_epik_Tot_Q>
-1

> <i_epik_Tot_abs_Q>
1

$$$$
