2ydt_ligand
                    3D
 Schrodinger Suite 2020-3.
 38 39  0  0  1  0            999 V2000
   64.3550   26.4330   55.1530 O   0  0  0  0  0  0
   65.5060   26.4670   54.2620 C   0  0  1  0  0  0
   65.0730   26.1030   52.8560 C   0  0  0  0  0  0
   65.2460   27.3310   52.0690 N   0  3  0  0  0  0
   66.1630   27.8510   54.1740 C   0  0  1  0  0  0
   67.4370   27.9450   54.8490 O   0  0  0  0  0  0
   66.3520   28.0740   52.6620 C   0  0  2  0  0  0
   66.4060   29.5100   52.2170 C   0  0  0  0  0  0
   66.8520   29.5160   50.8690 O   0  0  0  0  0  0
   63.2810   32.2020   48.7990 O   0  0  0  0  0  0
   64.5700   32.3730   48.1850 C   0  0  0  0  0  0
   65.5470   31.3140   48.6330 C   0  0  2  0  0  0
   65.8230   31.3750   50.0180 O   0  0  0  0  0  0
   66.9480   31.4870   48.0170 C   0  0  2  0  0  0
   67.0510   30.9760   46.6640 O   0  0  0  0  0  0
   67.7900   30.6490   48.9480 C   0  0  1  0  0  0
   69.1650   31.0450   49.0580 O   0  0  0  0  0  0
   67.0760   30.7920   50.2650 C   0  0  2  0  0  0
   63.7998   25.4947   55.2987 H   0  0  0  0  0  0
   66.1942   25.7350   54.7097 H   0  0  0  0  0  0
   65.7064   25.2875   52.4768 H   0  0  0  0  0  0
   64.0228   25.7759   52.8688 H   0  0  0  0  0  0
   65.4729   27.0686   51.0251 H   0  0  0  0  0  0
   64.3197   27.9232   52.1051 H   0  0  0  0  0  0
   65.5845   28.6168   54.7116 H   0  0  0  0  0  0
   67.4928   27.8116   55.9394 H   0  0  0  0  0  0
   67.3208   27.7071   52.2920 H   0  0  0  0  0  0
   65.4034   29.9558   52.2946 H   0  0  0  0  0  0
   67.1054   30.0665   52.8582 H   0  0  0  0  0  0
   62.4643   32.9015   48.5673 H   0  0  0  0  0  0
   64.4668   32.3083   47.0918 H   0  0  0  0  0  0
   64.9781   33.3576   48.4571 H   0  0  0  0  0  0
   65.0354   30.3689   48.3984 H   0  0  0  0  0  0
   67.2614   32.5330   47.8837 H   0  0  0  0  0  0
   66.5004   31.4662   45.8476 H   0  0  0  0  0  0
   67.9250   29.6219   48.5780 H   0  0  0  0  0  0
   69.8230   30.9978   48.1778 H   0  0  0  0  0  0
   67.6415   31.4116   50.9765 H   0  0  0  0  0  0
  1  2  1  0  0  0
  1 19  1  0  0  0
  2  3  1  0  0  0
  2  5  1  0  0  0
  2 20  1  0  0  0
  3  4  1  0  0  0
  3 21  1  0  0  0
  3 22  1  0  0  0
  4  7  1  0  0  0
  4 23  1  0  0  0
  4 24  1  0  0  0
  5  6  1  0  0  0
  5  7  1  0  0  0
  5 25  1  0  0  0
  6 26  1  0  0  0
  7  8  1  0  0  0
  7 27  1  0  0  0
  8  9  1  0  0  0
  8 28  1  0  0  0
  8 29  1  0  0  0
  9 18  1  0  0  0
 10 11  1  0  0  0
 10 30  1  0  0  0
 11 12  1  0  0  0
 11 31  1  0  0  0
 11 32  1  0  0  0
 12 13  1  0  0  0
 12 14  1  0  0  0
 12 33  1  0  0  0
 13 18  1  0  0  0
 14 15  1  0  0  0
 14 16  1  0  0  0
 14 34  1  0  0  0
 15 35  1  0  0  0
 16 17  1  0  0  0
 16 18  1  0  0  0
 16 36  1  0  0  0
 17 37  1  0  0  0
 18 38  1  0  0  0
M  CHG  1   4   1
M  END
> <s_m_source_file>
../2ydt_ligand.sdf

> <i_m_source_file_index>
1

> <s_epik_input>
W09IXVtDQEhdMVtDSDJdW05IMitdW0NASF0oW0NAQEhdMVtPSF0pW0NIMl1PW0NAQEhdKFtDQEhdKFtPSF0pW0NASF0yW09IXSlPW0NASF0yW0NIMl1bT0hd

> <s_epik_cmdline>
J2VwaWtfYXBwJywgJy1pbWFlJywgJ2xpZ2FuZF9wcm8ubWFlJywgJy1vbWFlJywgJ2xpZ2FuZF9wcmVwLm1hZScsICctbXMnLCAnMScsICctcGgnLCAnNycsICctcGh0JywgJzAuNScsICctbnQn

> <r_lp_tautomer_probability>
1

> <r_epik_Ionization_Penalty>
  0.0078

> <r_epik_Ionization_Penalty_Charging>
  0.0078

> <r_epik_Ionization_Penalty_Neutral>
  0.0000

> <r_epik_State_Penalty>
 -0.0000

> <r_epik_Charging_Adjusted_Penalty>
0.00775004120784491

> <i_epik_Tot_Q>
1

> <i_epik_Tot_abs_Q>
1

> <s_epik_Chemistry_Notes>
This compound contains an acetal/aminal-like group ( X-CH(R)-Y where X, Y are N, S, or O) that may be acid/base labile, releasing an aldehyde.

$$$$
