2ydw_ligand
                    3D
 Schrodinger Suite 2020-3.
 53 57  0  0  1  0            999 V2000
    7.1390    6.5740   21.5560 C   0  0  0  0  0  0
   -2.0150   -2.2200   23.9330 C   0  0  0  0  0  0
    6.3820    7.6820   21.2600 C   0  0  0  0  0  0
    6.5290    5.3490   21.6970 C   0  0  0  0  0  0
    2.4680    7.7580   17.7270 C   0  0  0  0  0  0
   -1.6260   -1.4950   25.0370 C   0  0  0  0  0  0
   -1.4840   -1.9250   22.6960 C   0  0  0  0  0  0
    1.3030    8.4730   17.8980 C   0  0  0  0  0  0
    5.0200    7.5640   21.1090 C   0  0  0  0  0  0
    5.1630    5.2340   21.5400 C   0  0  0  0  0  0
    2.9870    7.0170   18.7650 C   0  0  0  0  0  0
   -0.7080   -0.4760   24.8990 C   0  0  0  0  0  0
   -0.5660   -0.9040   22.5650 C   0  0  0  0  0  0
    0.6530    8.4530   19.1120 C   0  0  0  0  0  0
    4.4000    6.3430   21.2470 C   0  0  0  0  0  0
    2.3410    6.9930   19.9850 C   0  0  0  0  0  0
   -0.1760   -0.1770   23.6670 C   0  0  0  0  0  0
    1.1780    7.7170   20.1530 C   0  0  0  0  0  0
    0.1790    6.5670   22.1350 C   0  0  0  0  0  0
   -0.2440    8.7040   22.0130 C   0  0  0  0  0  0
    2.9220    6.2020   21.0800 C   0  0  0  0  0  0
    0.6580    2.9520   22.3600 C   0  0  0  0  0  0
    0.8510    5.2780   21.7160 C   0  0  1  0  0  0
   -0.2220   10.1050   21.5610 C   0  0  0  0  0  0
    0.8130    0.9320   23.5350 C   0  0  0  0  0  0
   -0.6650    6.8650   23.0900 N   0  0  0  0  0  0
   -0.9350    8.2130   23.0110 N   0  0  0  0  0  0
    2.3030    5.4170   21.8850 N   0  0  0  0  0  0
    0.4770    7.7090   21.4060 N   0  0  0  0  0  0
    0.3880    4.2450   22.6000 N   0  0  0  0  0  0
    1.2900    2.5290   21.4020 O   0  0  0  0  0  0
    0.1190    2.1680   23.3360 O   0  0  0  0  0  0
    8.2182    6.6653   21.6786 H   0  0  0  0  0  0
   -2.7416   -3.0258   24.0372 H   0  0  0  0  0  0
    6.8609    8.6544   21.1449 H   0  0  0  0  0  0
    7.1257    4.4679   21.9331 H   0  0  0  0  0  0
    2.9813    7.7789   16.7656 H   0  0  0  0  0  0
   -2.0428   -1.7262   26.0173 H   0  0  0  0  0  0
   -1.7895   -2.4987   21.8210 H   0  0  0  0  0  0
    0.8952    9.0552   17.0716 H   0  0  0  0  0  0
    4.4250    8.4474   20.8774 H   0  0  0  0  0  0
    4.6850    4.2604   21.6484 H   0  0  0  0  0  0
    3.9070    6.4499   18.6237 H   0  0  0  0  0  0
   -0.4014    0.0974   25.7738 H   0  0  0  0  0  0
   -0.1479   -0.6720   21.5855 H   0  0  0  0  0  0
   -0.2706    9.0154   19.2490 H   0  0  0  0  0  0
    0.6270    4.9989   20.6758 H   0  0  0  0  0  0
   -0.8784   10.7084   22.2052 H   0  0  0  0  0  0
   -0.5769   10.1604   20.5213 H   0  0  0  0  0  0
    0.8057   10.4928   21.6188 H   0  0  0  0  0  0
    1.4183    0.9944   24.4513 H   0  0  0  0  0  0
    1.4697    0.7372   22.6743 H   0  0  0  0  0  0
   -0.1991    4.5072   23.4925 H   0  0  0  0  0  0
  1  3  2  0  0  0
  1  4  1  0  0  0
  1 33  1  0  0  0
  2  6  2  0  0  0
  2  7  1  0  0  0
  2 34  1  0  0  0
  3  9  1  0  0  0
  3 35  1  0  0  0
  4 10  2  0  0  0
  4 36  1  0  0  0
  5  8  2  0  0  0
  5 11  1  0  0  0
  5 37  1  0  0  0
  6 12  1  0  0  0
  6 38  1  0  0  0
  7 13  2  0  0  0
  7 39  1  0  0  0
  8 14  1  0  0  0
  8 40  1  0  0  0
  9 15  2  0  0  0
  9 41  1  0  0  0
 10 15  1  0  0  0
 10 42  1  0  0  0
 11 16  2  0  0  0
 11 43  1  0  0  0
 12 17  2  0  0  0
 12 44  1  0  0  0
 13 17  1  0  0  0
 13 45  1  0  0  0
 14 18  2  0  0  0
 14 46  1  0  0  0
 15 21  1  0  0  0
 16 18  1  0  0  0
 16 21  1  0  0  0
 17 25  1  0  0  0
 18 29  1  0  0  0
 19 23  1  0  0  0
 19 26  2  0  0  0
 19 29  1  0  0  0
 20 24  1  0  0  0
 20 27  2  0  0  0
 20 29  1  0  0  0
 21 28  2  0  0  0
 22 30  1  0  0  0
 22 31  2  0  0  0
 22 32  1  0  0  0
 23 28  1  0  0  0
 23 30  1  0  0  0
 23 47  1  0  0  0
 24 48  1  0  0  0
 24 49  1  0  0  0
 24 50  1  0  0  0
 25 32  1  0  0  0
 25 51  1  0  0  0
 25 52  1  0  0  0
 26 27  1  0  0  0
 30 53  1  0  0  0
M  END
> <s_m_source_file>
../2ydw_ligand.sdf

> <i_m_source_file_index>
1

> <s_epik_input>
W2NIXTFbY0hdW2NIXVtjSF1bY0hdYzFDMj1OW0NASF0oYyhubmMzW0NIM10pbjNjKGMyNClbY0hdW2NIXVtjSF1bY0hdNClbTkhdQyg9TylPW0NIMl1jNVtjSF1bY0hdW2NIXVtjSF1bY0hdNQ==

> <s_epik_cmdline>
J2VwaWtfYXBwJywgJy1pbWFlJywgJ2xpZ2FuZF9wcm8ubWFlJywgJy1vbWFlJywgJ2xpZ2FuZF9wcmVwLm1hZScsICctbXMnLCAnMScsICctcGgnLCAnNycsICctcGh0JywgJzAuNScsICctbnQn

> <r_lp_tautomer_probability>
1

> <r_epik_Ionization_Penalty>
  0.0007

> <r_epik_Ionization_Penalty_Charging>
  0.0000

> <r_epik_Ionization_Penalty_Neutral>
  0.0007

> <r_epik_State_Penalty>
 -0.0000

> <r_epik_Charging_Adjusted_Penalty>
0

> <i_epik_Tot_Q>
0

> <i_epik_Tot_abs_Q>
0

> <s_epik_Chemistry_Notes>
This compound has an ester and may undergo hydrolysis at high or low pH. This compound has an imine and may undergo hydrolysis. This compound contains an acetal/aminal-like group ( X-CH(R)-Y where X, Y are N, S, or O) that may be acid/base labile, releasing an aldehyde.

$$$$
