2ye9_ligand
                    3D
 Schrodinger Suite 2020-3.
 41 44  0  0  1  0            999 V2000
   35.4570    7.2770   24.0510 C   0  0  0  0  0  0
   35.7800    7.6710   22.7990 C   0  0  0  0  0  0
   35.2060    6.9810   21.7990 C   0  0  0  0  0  0
   34.2340    5.8030   22.5230 S   0  0  0  0  0  0
   34.6060    6.2480   24.0920 C   0  0  0  0  0  0
   33.9820    5.4880   25.5530 S   0  0  0  0  0  0
   34.1600    3.9960   25.4620 O   0  0  0  0  0  0
   34.7160    6.0230   26.7540 O   0  0  0  0  0  0
   32.4060    5.9030   25.5800 N   0  0  0  0  0  0
   32.0440    7.1150   25.9910 C   0  0  0  0  0  0
   32.0790    8.1870   25.1070 C   0  0  0  0  0  0
   31.6320    7.3100   27.3040 C   0  0  0  0  0  0
   31.2540    8.5770   27.7330 C   0  0  0  0  0  0
   31.2880    9.6490   26.8480 C   0  0  0  0  0  0
   30.9180   10.8890   27.2680 O   0  5  0  0  0  0
   31.7010    9.4540   25.5360 C   0  0  0  0  0  0
   31.7350   10.5260   24.6510 C   0  0  0  0  0  0
   32.9550   11.0060   24.1880 C   0  0  0  0  0  0
   34.1400   10.4140   24.6090 C   0  0  0  0  0  0
   35.3590   10.8930   24.1450 C   0  0  0  0  0  0
   35.3940   11.9650   23.2610 C   0  0  0  0  0  0
   34.2090   12.5580   22.8410 C   0  0  0  0  0  0
   32.9890   12.0780   23.3040 C   0  0  0  0  0  0
   31.8040   12.6700   22.8830 C   0  0  0  0  0  0
   30.5850   12.1900   23.3460 C   0  0  0  0  0  0
   30.5500   11.1180   24.2310 C   0  0  0  0  0  0
   29.3570   10.6490   24.6840 O   0  0  0  0  0  0
   35.8548    7.7554   24.9460 H   0  0  0  0  0  0
   36.4646    8.4983   22.6119 H   0  0  0  0  0  0
   35.3408    7.1482   20.7304 H   0  0  0  0  0  0
   31.6414    5.1806   25.2582 H   0  0  0  0  0  0
   32.4028    8.0342   24.0775 H   0  0  0  0  0  0
   31.6053    6.4694   27.9973 H   0  0  0  0  0  0
   30.9311    8.7301   28.7627 H   0  0  0  0  0  0
   34.1130    9.5740   25.3031 H   0  0  0  0  0  0
   36.2881   10.4279   24.4744 H   0  0  0  0  0  0
   36.3504   12.3406   22.8972 H   0  0  0  0  0  0
   34.2362   13.3994   22.1486 H   0  0  0  0  0  0
   31.8310   13.5107   22.1897 H   0  0  0  0  0  0
   29.6558   12.6540   23.0153 H   0  0  0  0  0  0
   29.3294    9.8010   25.3841 H   0  0  0  0  0  0
  1  2  1  0  0  0
  1  5  2  0  0  0
  1 28  1  0  0  0
  2  3  2  0  0  0
  2 29  1  0  0  0
  3  4  1  0  0  0
  3 30  1  0  0  0
  4  5  1  0  0  0
  5  6  1  0  0  0
  6  7  2  0  0  0
  6  8  2  0  0  0
  6  9  1  0  0  0
  9 10  1  0  0  0
  9 31  1  0  0  0
 10 11  2  0  0  0
 10 12  1  0  0  0
 11 16  1  0  0  0
 11 32  1  0  0  0
 12 13  2  0  0  0
 12 33  1  0  0  0
 13 14  1  0  0  0
 13 34  1  0  0  0
 14 15  1  0  0  0
 14 16  2  0  0  0
 16 17  1  0  0  0
 17 18  2  0  0  0
 17 26  1  0  0  0
 18 19  1  0  0  0
 18 23  1  0  0  0
 19 20  2  0  0  0
 19 35  1  0  0  0
 20 21  1  0  0  0
 20 36  1  0  0  0
 21 22  2  0  0  0
 21 37  1  0  0  0
 22 23  1  0  0  0
 22 38  1  0  0  0
 23 24  2  0  0  0
 24 25  1  0  0  0
 24 39  1  0  0  0
 25 26  2  0  0  0
 25 40  1  0  0  0
 26 27  1  0  0  0
 27 41  1  0  0  0
M  CHG  1  15  -1
M  END
> <s_m_source_file>
../2ye9_ligand.sdf

> <i_m_source_file_index>
1

> <s_epik_input>
czFbY0hdW2NIXVtjSF1jMVMoPU8pKD1PKVtOSF1jMltjSF1jKGMoW09IXSlbY0hdW2NIXTIpLWMzYyhbT0hdKVtjSF1bY0hdYyhjMzQpW2NIXVtjSF1bY0hdW2NIXTQ=

> <s_epik_cmdline>
J2VwaWtfYXBwJywgJy1pbWFlJywgJ2xpZ2FuZF9wcm8ubWFlJywgJy1vbWFlJywgJ2xpZ2FuZF9wcmVwLm1hZScsICctbXMnLCAnMScsICctcGgnLCAnNycsICctcGh0JywgJzAuNScsICctbnQn

> <r_lp_tautomer_probability>
1

> <r_epik_Ionization_Penalty>
  0.2084

> <r_epik_Ionization_Penalty_Charging>
  0.2048

> <r_epik_Ionization_Penalty_Neutral>
  0.0036

> <r_epik_State_Penalty>
 -0.0000

> <r_epik_Charging_Adjusted_Penalty>
0.20478241567955

> <i_epik_Tot_Q>
-1

> <i_epik_Tot_abs_Q>
1

$$$$
