2yek_ligand
                    3D
 Schrodinger Suite 2020-3.
 52 55  0  0  1  0            999 V2000
   20.4090   17.3370  -11.3060 Cl  0  0  0  0  0  0
   20.3800   15.6030  -11.2500 C   0  0  0  0  0  0
   19.7700   15.0070  -10.1730 C   0  0  0  0  0  0
   19.7580   13.6420  -10.1240 C   0  0  0  0  0  0
   20.9640   14.9040  -12.2790 C   0  0  0  0  0  0
   20.9270   13.5370  -12.2040 C   0  0  0  0  0  0
   20.3390   12.9010  -11.1350 C   0  0  0  0  0  0
   20.3410   11.4140  -11.1200 C   0  0  0  0  0  0
   21.4520   10.8490  -11.4260 N   0  0  0  0  0  0
   19.0710   10.7350  -10.7770 C   0  0  0  0  0  0
   19.0270    9.6320   -9.9320 C   0  0  0  0  0  0
   17.8110    9.0410   -9.6470 C   0  0  0  0  0  0
   16.6360    9.5360  -10.1750 C   0  0  0  0  0  0
   16.7020   10.6380  -11.0060 C   0  0  0  0  0  0
   15.5670   11.2030  -11.5800 O   0  0  0  0  0  0
   14.2920   10.7650  -11.1250 C   0  0  0  0  0  0
   17.9020   11.2420  -11.3070 C   0  0  0  0  0  0
   20.2330    9.0820   -9.3680 N   0  0  0  0  0  0
   21.3880    8.8710  -10.0890 C   0  0  0  0  0  0
   22.2500    8.2170   -9.3500 N   0  0  0  0  0  0
   21.6820    7.9770   -8.1410 N   0  0  0  0  0  0
   20.4730    8.4930   -8.1530 C   0  0  0  0  0  0
   19.5270    8.4520   -7.0320 C   0  0  0  0  0  0
   21.5070    9.3850  -11.5080 C   0  0  2  0  0  0
   22.8210    9.0050  -12.2170 C   0  0  0  0  0  0
   22.7420    9.5950  -13.5980 C   0  0  0  0  0  0
   21.6660    9.7380  -14.1600 O   0  0  0  0  0  0
   23.8990    9.9380  -14.1500 N   0  0  0  0  0  0
   24.0190   10.4590  -15.4910 C   0  0  0  0  0  0
   25.3570   10.0170  -16.0250 C   0  0  0  0  0  0
   19.3111   15.6032   -9.3843 H   0  0  0  0  0  0
   19.2872   13.1343   -9.2822 H   0  0  0  0  0  0
   21.4360   15.4151  -13.1181 H   0  0  0  0  0  0
   21.3703   12.9436  -13.0037 H   0  0  0  0  0  0
   17.7793    8.1689   -8.9939 H   0  0  0  0  0  0
   15.6790    9.0690   -9.9422 H   0  0  0  0  0  0
   13.5031   11.3021  -11.6720 H   0  0  0  0  0  0
   14.1965   10.9701  -10.0485 H   0  0  0  0  0  0
   14.1907    9.6842  -11.3027 H   0  0  0  0  0  0
   17.9286   12.1147  -11.9595 H   0  0  0  0  0  0
   18.5947    8.9597   -7.3202 H   0  0  0  0  0  0
   19.9675    8.9605   -6.1617 H   0  0  0  0  0  0
   19.3097    7.4051   -6.7737 H   0  0  0  0  0  0
   20.6713    8.9672  -12.0886 H   0  0  0  0  0  0
   23.6725    9.4207  -11.6584 H   0  0  0  0  0  0
   22.9107    7.9095  -12.2604 H   0  0  0  0  0  0
   24.7970    9.8072  -13.5284 H   0  0  0  0  0  0
   23.2041   10.0607  -16.1134 H   0  0  0  0  0  0
   23.9572   11.5570  -15.4647 H   0  0  0  0  0  0
   25.4863   10.3961  -17.0495 H   0  0  0  0  0  0
   25.4041    8.9180  -16.0320 H   0  0  0  0  0  0
   26.1573   10.4142  -15.3833 H   0  0  0  0  0  0
  1  2  1  0  0  0
  2  3  2  0  0  0
  2  5  1  0  0  0
  3  4  1  0  0  0
  3 31  1  0  0  0
  4  7  2  0  0  0
  4 32  1  0  0  0
  5  6  2  0  0  0
  5 33  1  0  0  0
  6  7  1  0  0  0
  6 34  1  0  0  0
  7  8  1  0  0  0
  8  9  2  0  0  0
  8 10  1  0  0  0
  9 24  1  0  0  0
 10 11  2  0  0  0
 10 17  1  0  0  0
 11 12  1  0  0  0
 11 18  1  0  0  0
 12 13  2  0  0  0
 12 35  1  0  0  0
 13 14  1  0  0  0
 13 36  1  0  0  0
 14 15  1  0  0  0
 14 17  2  0  0  0
 15 16  1  0  0  0
 16 37  1  0  0  0
 16 38  1  0  0  0
 16 39  1  0  0  0
 17 40  1  0  0  0
 18 19  1  0  0  0
 18 22  1  0  0  0
 19 20  2  0  0  0
 19 24  1  0  0  0
 20 21  1  0  0  0
 21 22  2  0  0  0
 22 23  1  0  0  0
 23 41  1  0  0  0
 23 42  1  0  0  0
 23 43  1  0  0  0
 24 25  1  0  0  0
 24 44  1  0  0  0
 25 26  1  0  0  0
 25 45  1  0  0  0
 25 46  1  0  0  0
 26 27  2  0  0  0
 26 28  1  0  0  0
 28 29  1  0  0  0
 28 47  1  0  0  0
 29 30  1  0  0  0
 29 48  1  0  0  0
 29 49  1  0  0  0
 30 50  1  0  0  0
 30 51  1  0  0  0
 30 52  1  0  0  0
M  END
> <s_m_source_file>
../2yek_ligand.sdf

> <i_m_source_file_index>
1

> <s_epik_input>
Q2xjMVtjSF1bY0hdYyhbY0hdW2NIXTEpQzI9TltDQEBIXShbQ0gyXUMoPU8pW05IXVtDSDJdW0NIM10pYyhubmMzW0NIM10pbjNjKGMyNClbY0hdW2NIXWMoW2NIXTQpT1tDSDNd

> <s_epik_cmdline>
J2VwaWtfYXBwJywgJy1pbWFlJywgJ2xpZ2FuZF9wcm8ubWFlJywgJy1vbWFlJywgJ2xpZ2FuZF9wcmVwLm1hZScsICctbXMnLCAnMScsICctcGgnLCAnNycsICctcGh0JywgJzAuNScsICctbnQn

> <r_lp_tautomer_probability>
1

> <r_epik_Ionization_Penalty>
  0.0027

> <r_epik_Ionization_Penalty_Charging>
  0.0000

> <r_epik_Ionization_Penalty_Neutral>
  0.0027

> <r_epik_State_Penalty>
 -0.0000

> <r_epik_Charging_Adjusted_Penalty>
0

> <i_epik_Tot_Q>
0

> <i_epik_Tot_abs_Q>
0

> <s_epik_Chemistry_Notes>
This compound has an imine and may undergo hydrolysis.

$$$$
