2yel_ligand
                    3D
 Schrodinger Suite 2020-3.
 53 57  0  0  1  0            999 V2000
   -8.2370   -4.7200    5.7940 C   0  0  0  0  0  0
   -9.0160  -11.4920    3.7670 C   0  0  0  0  0  0
   -7.9280   -4.4380    4.4830 C   0  0  0  0  0  0
   -9.3360   -5.4870    6.0820 C   0  0  0  0  0  0
   -8.2570   -7.1230   -0.0320 C   0  0  0  0  0  0
  -10.0570  -12.3890    3.7020 C   0  0  0  0  0  0
   -9.2780  -10.1570    3.9810 C   0  0  0  0  0  0
   -8.9100   -6.7120   -1.1740 C   0  0  0  0  0  0
   -8.7160   -4.9200    3.4640 C   0  0  0  0  0  0
  -10.1280   -5.9680    5.0620 C   0  0  0  0  0  0
   -8.8380   -6.9600    1.2010 C   0  0  0  0  0  0
  -11.3540  -11.9450    3.8480 C   0  0  0  0  0  0
  -10.5700   -9.7180    4.1320 C   0  0  0  0  0  0
  -10.1550   -6.1290   -1.0840 C   0  0  0  0  0  0
   -9.8250   -5.6880    3.7450 C   0  0  0  0  0  0
  -10.0870   -6.3740    1.2880 C   0  0  0  0  0  0
  -11.6140  -10.6120    4.0670 C   0  0  0  0  0  0
  -10.7510   -5.9560    0.1480 C   0  0  0  0  0  0
  -13.1070   -5.7760    0.9330 C   0  0  0  0  0  0
  -12.5660   -4.3120   -0.5840 C   0  0  0  0  0  0
  -10.6920   -6.1960    2.6380 C   0  0  0  0  0  0
  -14.2580   -8.2630    3.3540 C   0  0  0  0  0  0
  -12.8480   -6.8860    1.9300 C   0  0  1  0  0  0
  -11.7760   -3.5100   -1.5520 C   0  0  0  0  0  0
  -13.0080  -10.0990    4.2300 C   0  0  0  0  0  0
  -14.1890   -5.1000    0.6260 N   0  0  0  0  0  0
  -13.8480   -4.1790   -0.3390 N   0  0  0  0  0  0
  -11.9230   -6.3800    2.9510 N   0  0  0  0  0  0
  -12.0460   -5.3230    0.1950 N   0  0  0  0  0  0
  -14.0950   -7.1680    2.5910 N   0  0  0  0  0  0
  -15.2800   -8.5600    3.9600 O   0  0  0  0  0  0
  -13.1200   -8.9990    3.3430 O   0  0  0  0  0  0
   -7.6111   -4.3355    6.5993 H   0  0  0  0  0  0
   -7.9885  -11.8363    3.6497 H   0  0  0  0  0  0
   -7.0540   -3.8294    4.2509 H   0  0  0  0  0  0
   -9.5836   -5.7166    7.1184 H   0  0  0  0  0  0
   -7.2710   -7.5813   -0.1085 H   0  0  0  0  0  0
   -9.8570  -13.4475    3.5356 H   0  0  0  0  0  0
   -8.4545   -9.4446    4.0308 H   0  0  0  0  0  0
   -8.4413   -6.8482   -2.1486 H   0  0  0  0  0  0
   -8.4619   -4.6933    2.4286 H   0  0  0  0  0  0
  -11.0020   -6.5753    5.2976 H   0  0  0  0  0  0
   -8.3200   -7.2891    2.1018 H   0  0  0  0  0  0
  -12.1790  -12.6550    3.7895 H   0  0  0  0  0  0
  -10.7690   -8.6601    4.3036 H   0  0  0  0  0  0
  -10.6700   -5.8038   -1.9879 H   0  0  0  0  0  0
  -12.4506   -7.7984    1.4615 H   0  0  0  0  0  0
  -12.4317   -2.7733   -2.0391 H   0  0  0  0  0  0
  -11.3436   -4.1760   -2.3133 H   0  0  0  0  0  0
  -10.9674   -2.9866   -1.0208 H   0  0  0  0  0  0
  -13.7236  -10.8938    3.9728 H   0  0  0  0  0  0
  -13.1647   -9.7881    5.2735 H   0  0  0  0  0  0
  -14.9453   -6.4793    2.4784 H   0  0  0  0  0  0
  1  3  2  0  0  0
  1  4  1  0  0  0
  1 33  1  0  0  0
  2  6  2  0  0  0
  2  7  1  0  0  0
  2 34  1  0  0  0
  3  9  1  0  0  0
  3 35  1  0  0  0
  4 10  2  0  0  0
  4 36  1  0  0  0
  5  8  2  0  0  0
  5 11  1  0  0  0
  5 37  1  0  0  0
  6 12  1  0  0  0
  6 38  1  0  0  0
  7 13  2  0  0  0
  7 39  1  0  0  0
  8 14  1  0  0  0
  8 40  1  0  0  0
  9 15  2  0  0  0
  9 41  1  0  0  0
 10 15  1  0  0  0
 10 42  1  0  0  0
 11 16  2  0  0  0
 11 43  1  0  0  0
 12 17  2  0  0  0
 12 44  1  0  0  0
 13 17  1  0  0  0
 13 45  1  0  0  0
 14 18  2  0  0  0
 14 46  1  0  0  0
 15 21  1  0  0  0
 16 18  1  0  0  0
 16 21  1  0  0  0
 17 25  1  0  0  0
 18 29  1  0  0  0
 19 23  1  0  0  0
 19 26  2  0  0  0
 19 29  1  0  0  0
 20 24  1  0  0  0
 20 27  2  0  0  0
 20 29  1  0  0  0
 21 28  2  0  0  0
 22 30  1  0  0  0
 22 31  2  0  0  0
 22 32  1  0  0  0
 23 28  1  0  0  0
 23 30  1  0  0  0
 23 47  1  0  0  0
 24 48  1  0  0  0
 24 49  1  0  0  0
 24 50  1  0  0  0
 25 32  1  0  0  0
 25 51  1  0  0  0
 25 52  1  0  0  0
 26 27  1  0  0  0
 30 53  1  0  0  0
M  END
> <s_m_source_file>
../2yel_ligand.sdf

> <i_m_source_file_index>
1

> <s_epik_input>
W2NIXTFbY0hdW2NIXVtjSF1bY0hdYzFDMj1OW0NASF0oYyhubmMzW0NIM10pbjNjKGMyNClbY0hdW2NIXVtjSF1bY0hdNClbTkhdQyg9TylPW0NIMl1jNVtjSF1bY0hdW2NIXVtjSF1bY0hdNQ==

> <s_epik_cmdline>
J2VwaWtfYXBwJywgJy1pbWFlJywgJ2xpZ2FuZF9wcm8ubWFlJywgJy1vbWFlJywgJ2xpZ2FuZF9wcmVwLm1hZScsICctbXMnLCAnMScsICctcGgnLCAnNycsICctcGh0JywgJzAuNScsICctbnQn

> <r_lp_tautomer_probability>
1

> <r_epik_Ionization_Penalty>
  0.0007

> <r_epik_Ionization_Penalty_Charging>
  0.0000

> <r_epik_Ionization_Penalty_Neutral>
  0.0007

> <r_epik_State_Penalty>
 -0.0000

> <r_epik_Charging_Adjusted_Penalty>
0

> <i_epik_Tot_Q>
0

> <i_epik_Tot_abs_Q>
0

> <s_epik_Chemistry_Notes>
This compound has an ester and may undergo hydrolysis at high or low pH. This compound has an imine and may undergo hydrolysis. This compound contains an acetal/aminal-like group ( X-CH(R)-Y where X, Y are N, S, or O) that may be acid/base labile, releasing an aldehyde.

$$$$
