2yer_ligand
                    3D
 Schrodinger Suite 2020-3.
 32 35  0  0  1  0            999 V2000
   -2.4760   35.5230   13.0930 C   0  0  0  0  0  0
    1.2590   37.4840   12.5640 C   0  0  0  0  0  0
    2.4260   38.0550   12.2810 C   0  0  0  0  0  0
   -1.3590   36.3040   12.9980 C   0  0  0  0  0  0
    1.2870   36.0710   10.5950 C   0  0  0  0  0  0
   -2.3990   34.5430   12.1340 C   0  0  0  0  0  0
    0.6710   36.4820   11.7160 C   0  0  0  0  0  0
    3.1530   37.6920   11.1090 C   0  0  0  0  0  0
    2.5870   36.6630   10.2170 C   0  0  0  0  0  0
   -0.5560   35.8430   11.9870 C   0  0  3  0  0  0
    5.0320   37.7850    9.5660 C   0  0  0  0  0  0
    4.3390   38.2110   10.7470 C   0  0  0  0  0  0
    4.4590   36.8460    8.8220 C   0  0  0  0  0  0
    2.9430   35.2690    8.0920 C   0  0  0  0  0  0
    5.0320   39.2280   11.5750 C   0  0  0  0  0  0
    4.9320   36.3360    7.7640 N   0  0  0  0  0  0
   -1.1860   34.7480   11.4390 N   0  0  0  0  0  0
    4.0470   35.4030    7.3000 N   0  0  0  0  0  0
    3.2400   36.3150    9.1640 N   0  0  0  0  0  0
    1.9540   34.5590    8.0990 O   0  0  0  0  0  0
    5.5340   38.5430   12.7160 O   0  0  0  0  0  0
   -3.2391   35.7447   13.8537 H   0  0  0  0  0  0
    0.7305   37.7852   13.4685 H   0  0  0  0  0  0
    2.8323   38.8104   12.9536 H   0  0  0  0  0  0
   -1.2226   37.1543   13.6824 H   0  0  0  0  0  0
    0.8304   35.3052    9.9679 H   0  0  0  0  0  0
   -3.0614   33.7117   11.8508 H   0  0  0  0  0  0
    5.9940   38.2162    9.2891 H   0  0  0  0  0  0
    5.8505   39.6780   10.9940 H   0  0  0  0  0  0
    4.3172   40.0109   11.8685 H   0  0  0  0  0  0
    4.1507   34.7898    6.3927 H   0  0  0  0  0  0
    6.0931   39.0941   13.4865 H   0  0  0  0  0  0
  1  4  2  0  0  0
  1  6  1  0  0  0
  1 22  1  0  0  0
  2  3  2  0  0  0
  2  7  1  0  0  0
  2 23  1  0  0  0
  3  8  1  0  0  0
  3 24  1  0  0  0
  4 10  1  0  0  0
  4 25  1  0  0  0
  5  7  2  0  0  0
  5  9  1  0  0  0
  5 26  1  0  0  0
  6 17  2  0  0  0
  6 27  1  0  0  0
  7 10  1  0  0  0
  8  9  2  0  0  0
  8 12  1  0  0  0
  9 19  1  0  0  0
 10 17  1  0  0  0
 11 12  2  0  0  0
 11 13  1  0  0  0
 11 28  1  0  0  0
 12 15  1  0  0  0
 13 16  2  0  0  0
 13 19  1  0  0  0
 14 18  1  0  0  0
 14 19  1  0  0  0
 14 20  2  0  0  0
 15 21  1  0  0  0
 15 29  1  0  0  0
 15 30  1  0  0  0
 16 18  1  0  0  0
 18 31  1  0  0  0
 21 32  1  0  0  0
M  END
> <s_m_source_file>
../2yer_ligand.sdf

> <i_m_source_file_index>
1

> <s_epik_input>
TjE9W0NIXVtDSF09W0NIXVtDSF0xYyhbY0hdW2NIXTIpW2NIXWMoYzIzKW40YyhuW25IXWM0PU8pW2NIXWMzW0NIMl1bT0hd

> <s_epik_cmdline>
J2VwaWtfYXBwJywgJy1pbWFlJywgJ2xpZ2FuZF9wcm8ubWFlJywgJy1vbWFlJywgJ2xpZ2FuZF9wcmVwLm1hZScsICctbXMnLCAnMScsICctcGgnLCAnNycsICctcGh0JywgJzAuNScsICctbnQn

> <r_lp_tautomer_probability>
1

> <r_epik_Ionization_Penalty>
  0.0002

> <r_epik_Ionization_Penalty_Charging>
  0.0000

> <r_epik_Ionization_Penalty_Neutral>
  0.0002

> <r_epik_State_Penalty>
 -0.0000

> <r_epik_Charging_Adjusted_Penalty>
4.75302284310565e-05

> <i_epik_Tot_Q>
0

> <i_epik_Tot_abs_Q>
0

> <s_epik_Chemistry_Notes>
This compound has an imine and may undergo hydrolysis.

$$$$
