2yex_ligand
                    3D
 Schrodinger Suite 2020-3.
 32 35  0  0  1  0            999 V2000
   -2.4900   36.0680   13.2500 C   0  0  0  0  0  0
    1.2570   38.3050   12.5270 C   0  0  0  0  0  0
    2.4230   38.9140   12.1120 C   0  0  0  0  0  0
   -1.4160   36.9890   13.2430 C   0  0  0  0  0  0
    1.4080   36.7870   10.7240 C   0  0  0  0  0  0
   -2.2280   35.1240   12.3000 C   0  0  0  0  0  0
    0.7320   37.2260   11.8460 C   0  0  0  0  0  0
    3.1080   38.4760   10.9860 C   0  0  0  0  0  0
    2.5760   37.3970   10.2890 C   0  0  0  0  0  0
   -0.5160   36.5900   12.2800 C   0  0  3  0  0  0
    4.9480   38.6150    9.4710 C   0  0  0  0  0  0
    4.2910   39.1030   10.5760 C   0  0  0  0  0  0
    4.3940   37.5220    8.8330 C   0  0  3  0  0  0
    2.9610   35.8730    8.3440 C   0  0  0  0  0  0
    4.8790   40.2920   11.2630 C   0  0  0  0  0  0
    4.9330   36.9000    7.7660 N   0  0  3  0  0  0
   -1.0360   35.4500   11.7240 N   0  0  0  0  0  0
    4.0120   35.8380    7.4850 N   0  0  0  0  0  0
    3.2370   36.9520    9.2060 N   0  0  0  0  0  0
    1.9880   35.1330    8.3900 O   0  0  0  0  0  0
   -3.3276   36.2052   13.9497 H   0  0  0  0  0  0
    0.7408   38.6832   13.4094 H   0  0  0  0  0  0
    2.8154   39.7574   12.6802 H   0  0  0  0  0  0
   -1.4169   37.8403   13.9396 H   0  0  0  0  0  0
    1.0132   35.9384   10.1653 H   0  0  0  0  0  0
   -2.7760   34.2317   11.9629 H   0  0  0  0  0  0
    5.8771   39.0935    9.1277 H   0  0  0  0  0  0
    4.2501   40.5670   12.1226 H   0  0  0  0  0  0
    4.9269   41.1358   10.5589 H   0  0  0  0  0  0
    5.8929   40.0488   11.6134 H   0  0  0  0  0  0
    5.8303   37.0291    7.1430 H   0  0  0  0  0  0
    4.2153   35.1370    6.6620 H   0  0  0  0  0  0
  1  4  2  0  0  0
  1  6  1  0  0  0
  1 21  1  0  0  0
  2  3  2  0  0  0
  2  7  1  0  0  0
  2 22  1  0  0  0
  3  8  1  0  0  0
  3 23  1  0  0  0
  4 10  1  0  0  0
  4 24  1  0  0  0
  5  7  2  0  0  0
  5  9  1  0  0  0
  5 25  1  0  0  0
  6 17  2  0  0  0
  6 26  1  0  0  0
  7 10  1  0  0  0
  8  9  2  0  0  0
  8 12  1  0  0  0
  9 19  1  0  0  0
 10 17  1  0  0  0
 11 12  2  0  0  0
 11 13  1  0  0  0
 11 27  1  0  0  0
 12 15  1  0  0  0
 13 16  1  0  0  0
 13 19  1  0  0  0
 14 18  1  0  0  0
 14 19  1  0  0  0
 14 20  2  0  0  0
 15 28  1  0  0  0
 15 29  1  0  0  0
 15 30  1  0  0  0
 16 18  1  0  0  0
 16 31  1  0  0  0
 18 32  1  0  0  0
M  END
> <s_m_source_file>
../2yex_ligand.sdf

> <i_m_source_file_index>
1

> <s_epik_input>
TjE9W0NIXVtDSF09W0NIXVtDSF0xYyhbY0hdW2NIXTIpW2NIXWMoYzIzKU40W0NIXShbQ0hdPUMzW0NIM10pW05IXVtOSF1DND1P

> <s_epik_cmdline>
J2VwaWtfYXBwJywgJy1pbWFlJywgJ2xpZ2FuZF9wcm8ubWFlJywgJy1vbWFlJywgJ2xpZ2FuZF9wcmVwLm1hZScsICctbXMnLCAnMScsICctcGgnLCAnNycsICctcGh0JywgJzAuNScsICctbnQn

> <r_lp_tautomer_probability>
1

> <r_epik_Ionization_Penalty>
  0.0001

> <r_epik_Ionization_Penalty_Charging>
  0.0000

> <r_epik_Ionization_Penalty_Neutral>
  0.0001

> <r_epik_State_Penalty>
 -0.0000

> <r_epik_Charging_Adjusted_Penalty>
0

> <i_epik_Tot_Q>
0

> <i_epik_Tot_abs_Q>
0

> <s_epik_Chemistry_Notes>
This compound has an imine and may undergo hydrolysis.

$$$$
