2yfa_ligand
                    3D
 Schrodinger Suite 2020-3.
 13 12  0  0  1  0            999 V2000
  -60.1610   27.0270   18.9840 C   0  0  0  0  0  0
  -59.4130   28.0130   18.7570 O   0  0  0  0  0  0
  -59.6910   25.8870   19.2480 O   0  5  0  0  0  0
  -61.6380   27.2250   18.9800 C   0  0  1  0  0  0
  -61.8780   28.5700   19.3340 O   0  0  0  0  0  0
  -62.2050   26.9160   17.5990 C   0  0  0  0  0  0
  -63.6900   27.1770   17.5900 C   0  0  0  0  0  0
  -64.2080   27.8760   16.6900 O   0  5  0  0  0  0
  -64.4240   26.6990   18.4840 O   0  0  0  0  0  0
  -62.1351   26.6032   19.7391 H   0  0  0  0  0  0
  -61.5303   28.9538   20.3045 H   0  0  0  0  0  0
  -61.7172   27.5576   16.8504 H   0  0  0  0  0  0
  -62.0187   25.8599   17.3540 H   0  0  0  0  0  0
  1  2  2  0  0  0
  1  3  1  0  0  0
  1  4  1  0  0  0
  4  5  1  0  0  0
  4  6  1  0  0  0
  4 10  1  0  0  0
  5 11  1  0  0  0
  6  7  1  0  0  0
  6 12  1  0  0  0
  6 13  1  0  0  0
  7  8  1  0  0  0
  7  9  2  0  0  0
M  CHG  2   3  -1   8  -1
M  END
> <s_m_source_file>
../2yfa_ligand.sdf

> <i_m_source_file_index>
1

> <s_epik_input>
Tz1DKFtPSF0pW0NAQEhdKFtPSF0pW0NIMl1DKD1PKVtPSF0=

> <s_epik_cmdline>
J2VwaWtfYXBwJywgJy1pbWFlJywgJ2xpZ2FuZF9wcm8ubWFlJywgJy1vbWFlJywgJ2xpZ2FuZF9wcmVwLm1hZScsICctbXMnLCAnMScsICctcGgnLCAnNycsICctcGh0JywgJzAuNScsICctbnQn

> <r_lp_tautomer_probability>
1

> <r_epik_Ionization_Penalty>
  0.0023

> <r_epik_Ionization_Penalty_Charging>
  0.0023

> <r_epik_Ionization_Penalty_Neutral>
  0.0000

> <r_epik_State_Penalty>
 -0.0000

> <r_epik_Charging_Adjusted_Penalty>
0.00227537966929545

> <i_epik_Tot_Q>
-2

> <i_epik_Tot_abs_Q>
2

$$$$
