2yga_ligand
                    3D
 Schrodinger Suite 2020-3.
 86 87  0  0  1  0            999 V2000
   26.1920  -34.0760   -5.4050 C   0  0  2  0  0  0
   26.2580  -33.8010   -3.8950 C   0  0  0  0  0  0
   25.5780  -32.5610   -3.3090 C   0  0  0  0  0  0
   24.8710  -31.6240   -4.1700 C   0  0  0  0  0  0
   24.8130  -31.8720   -5.6690 C   0  0  0  0  0  0
   25.4770  -33.1120   -6.2540 C   0  0  1  0  0  0
   26.2470  -35.5490   -5.8650 C   0  0  0  0  0  0
   24.8360  -36.1000   -5.6250 C   0  0  1  0  0  0
   24.1370  -36.3360   -6.9740 C   0  0  0  0  0  0
   22.7590  -36.9830   -6.7570 C   0  0  1  0  0  0
   21.8840  -36.4960   -7.9100 C   0  0  1  0  0  0
   21.2250  -35.1510   -7.5390 C   0  0  2  0  0  0
   20.4730  -35.1960   -6.1940 C   0  0  0  0  0  0
   20.4380  -34.0080   -5.3370 C   0  0  0  0  0  0
   19.6610  -34.0380   -4.0170 C   0  0  1  0  0  0
   20.6330  -34.1340   -2.8450 C   0  0  2  0  0  0
   21.2480  -35.5330   -2.8500 C   0  0  0  0  0  0
   22.4840  -35.6870   -2.0980 C   0  0  0  0  0  0
   23.3510  -34.4370   -1.9170 C   0  0  0  0  0  0
   24.6370  -34.5440   -1.2140 C   0  0  1  0  0  0
   25.3050  -33.2170   -0.8470 C   0  0  0  0  0  0
   25.6210  -32.2550   -1.8830 N   0  0  0  0  0  0
   26.8190  -34.5720   -3.1740 O   0  0  0  0  0  0
   24.2350  -31.1060   -6.3820 O   0  0  0  0  0  0
   25.3970  -33.2890   -7.6620 O   0  0  0  0  0  0
   26.4840  -32.5600   -8.2440 C   0  0  0  0  0  0
   24.9370  -37.3950   -4.8110 C   0  0  0  0  0  0
   22.8270  -38.4190   -6.8190 O   0  0  0  0  0  0
   23.6700  -38.8240   -7.9010 C   0  0  0  0  0  0
   22.7560  -36.2970   -9.0320 O   0  0  0  0  0  0
   20.1610  -34.8700   -8.6160 C   0  0  0  0  0  0
   21.1830  -32.7350   -5.7600 C   0  0  0  0  0  0
   18.9780  -32.8100   -3.8180 O   0  0  0  0  0  0
   17.7940  -32.7030   -4.5960 C   0  0  0  0  0  0
   17.0680  -31.7510   -4.4570 O   0  0  0  0  0  0
   17.4660  -33.7250   -5.5760 N   0  0  0  0  0  0
   19.9250  -33.8990   -1.6170 O   0  0  0  0  0  0
   18.7510  -34.7160   -1.4890 C   0  0  0  0  0  0
   24.9560  -35.7960   -0.3660 C   0  0  0  0  0  0
   25.5720  -32.9480    0.2850 O   0  0  0  0  0  0
   27.1682  -33.6914   -5.7353 H   0  0  0  0  0  0
   24.3810  -30.7401   -3.7357 H   0  0  0  0  0  0
   24.5447  -33.6783   -6.1119 H   0  0  0  0  0  0
   26.5210  -35.5907   -6.9295 H   0  0  0  0  0  0
   26.9983  -36.0907   -5.2715 H   0  0  0  0  0  0
   24.2361  -35.3768   -5.0531 H   0  0  0  0  0  0
   24.0040  -35.3743   -7.4912 H   0  0  0  0  0  0
   24.7529  -37.0038   -7.5942 H   0  0  0  0  0  0
   22.3592  -36.7715   -5.7543 H   0  0  0  0  0  0
   21.1214  -37.2369   -8.1918 H   0  0  0  0  0  0
   22.0175  -34.3914   -7.4685 H   0  0  0  0  0  0
   19.9632  -36.1179   -5.8773 H   0  0  0  0  0  0
   18.9178  -34.8482   -4.0526 H   0  0  0  0  0  0
   21.4093  -33.3555   -2.8822 H   0  0  0  0  0  0
   20.5344  -36.2488   -2.4160 H   0  0  0  0  0  0
   21.4800  -35.8279   -3.8840 H   0  0  0  0  0  0
   22.2531  -36.0353   -1.0805 H   0  0  0  0  0  0
   23.1293  -36.4230   -2.5999 H   0  0  0  0  0  0
   23.6148  -34.0278   -2.9034 H   0  0  0  0  0  0
   22.7915  -33.6824   -1.3447 H   0  0  0  0  0  0
   25.1673  -34.8668   -2.1221 H   0  0  0  0  0  0
   25.9053  -31.2476   -1.5450 H   0  0  0  0  0  0
   26.4569  -32.6724   -9.3379 H   0  0  0  0  0  0
   27.4366  -32.9523   -7.8586 H   0  0  0  0  0  0
   26.3932  -31.4954   -7.9824 H   0  0  0  0  0  0
   25.4409  -37.1889   -3.8552 H   0  0  0  0  0  0
   25.5153  -38.1399   -5.3773 H   0  0  0  0  0  0
   23.9272  -37.7854   -4.6164 H   0  0  0  0  0  0
   23.7150  -39.9224   -7.9394 H   0  0  0  0  0  0
   24.6819  -38.4206   -7.7482 H   0  0  0  0  0  0
   23.2614  -38.4404   -8.8475 H   0  0  0  0  0  0
   23.3206  -37.1450   -9.4470 H   0  0  0  0  0  0
   20.6422  -34.8265   -9.6042 H   0  0  0  0  0  0
   19.6702  -33.9086   -8.4045 H   0  0  0  0  0  0
   19.4106  -35.6743   -8.6087 H   0  0  0  0  0  0
   21.6777  -32.9041   -6.7278 H   0  0  0  0  0  0
   21.9384  -32.4830   -5.0012 H   0  0  0  0  0  0
   20.4669  -31.9053   -5.8542 H   0  0  0  0  0  0
   18.1264  -34.5951   -5.7054 H   0  0  0  0  0  0
   16.5573  -33.6284   -6.1883 H   0  0  0  0  0  0
   18.2520  -34.4939   -0.5342 H   0  0  0  0  0  0
   19.0385  -35.7775   -1.5143 H   0  0  0  0  0  0
   18.0633  -34.5025   -2.3205 H   0  0  0  0  0  0
   24.3980  -36.6580   -0.7605 H   0  0  0  0  0  0
   24.6621  -35.6159    0.6786 H   0  0  0  0  0  0
   26.0349  -36.0052   -0.4125 H   0  0  0  0  0  0
  1  2  1  0  0  0
  1  6  1  0  0  0
  1  7  1  0  0  0
  1 41  1  0  0  0
  2  3  1  0  0  0
  2 23  2  0  0  0
  3  4  2  0  0  0
  3 22  1  0  0  0
  4  5  1  0  0  0
  4 42  1  0  0  0
  5  6  1  0  0  0
  5 24  2  0  0  0
  6 25  1  0  0  0
  6 43  1  0  0  0
  7  8  1  0  0  0
  7 44  1  0  0  0
  7 45  1  0  0  0
  8  9  1  0  0  0
  8 27  1  0  0  0
  8 46  1  0  0  0
  9 10  1  0  0  0
  9 47  1  0  0  0
  9 48  1  0  0  0
 10 11  1  0  0  0
 10 28  1  0  0  0
 10 49  1  0  0  0
 11 12  1  0  0  0
 11 30  1  0  0  0
 11 50  1  0  0  0
 12 13  1  0  0  0
 12 31  1  0  0  0
 12 51  1  0  0  0
 13 14  2  0  0  0
 13 52  1  0  0  0
 14 15  1  0  0  0
 14 32  1  0  0  0
 15 16  1  0  0  0
 15 33  1  0  0  0
 15 53  1  0  0  0
 16 17  1  0  0  0
 16 37  1  0  0  0
 16 54  1  0  0  0
 17 18  1  0  0  0
 17 55  1  0  0  0
 17 56  1  0  0  0
 18 19  1  0  0  0
 18 57  1  0  0  0
 18 58  1  0  0  0
 19 20  1  0  0  0
 19 59  1  0  0  0
 19 60  1  0  0  0
 20 21  1  0  0  0
 20 39  1  0  0  0
 20 61  1  0  0  0
 21 22  1  0  0  0
 21 40  2  0  0  0
 22 62  1  0  0  0
 25 26  1  0  0  0
 26 63  1  0  0  0
 26 64  1  0  0  0
 26 65  1  0  0  0
 27 66  1  0  0  0
 27 67  1  0  0  0
 27 68  1  0  0  0
 28 29  1  0  0  0
 29 69  1  0  0  0
 29 70  1  0  0  0
 29 71  1  0  0  0
 30 72  1  0  0  0
 31 73  1  0  0  0
 31 74  1  0  0  0
 31 75  1  0  0  0
 32 76  1  0  0  0
 32 77  1  0  0  0
 32 78  1  0  0  0
 33 34  1  0  0  0
 34 35  2  0  0  0
 34 36  1  0  0  0
 36 79  1  0  0  0
 36 80  1  0  0  0
 37 38  1  0  0  0
 38 81  1  0  0  0
 38 82  1  0  0  0
 38 83  1  0  0  0
 39 84  1  0  0  0
 39 85  1  0  0  0
 39 86  1  0  0  0
M  END
> <s_m_source_file>
../2yga_ligand.sdf

> <i_m_source_file_index>
1

> <s_epik_input>
W0NIM11PW0NIXTFDKD1PKVtDSF09QyhDKD1PKVtDQEhdMTIpW05IXUMoPU8pW0NAQEhdKFtDSDNdKVtDSDJdW0NIMl1bQ0gyXVtDQEhdKE9bQ0gzXSlbQ0BASF0oT0MoPU8pW05IMl0pXEMoW0NIM10pPVtDSF1cW0NASF0oW0NIM10pW0NAQEhdKFtPSF0pW0NAQEhdKE9bQ0gzXSlbQ0gyXVtDQEhdKFtDSDJdMilbQ0gzXQ==

> <s_epik_cmdline>
J2VwaWtfYXBwJywgJy1pbWFlJywgJ2xpZ2FuZF9wcm8ubWFlJywgJy1vbWFlJywgJ2xpZ2FuZF9wcmVwLm1hZScsICctbXMnLCAnMScsICctcGgnLCAnNycsICctcGh0JywgJzAuNScsICctbnQn

> <r_lp_tautomer_probability>
1

> <r_epik_Ionization_Penalty>
  0.0001

> <r_epik_Ionization_Penalty_Charging>
  0.0000

> <r_epik_Ionization_Penalty_Neutral>
  0.0001

> <r_epik_State_Penalty>
 -0.0000

> <r_epik_Charging_Adjusted_Penalty>
0

> <i_epik_Tot_Q>
0

> <i_epik_Tot_abs_Q>
0

> <s_epik_Chemistry_Notes>
This compound has an ester and may undergo hydrolysis at high or low pH.

$$$$
