2ygf_ligand
                    3D
 Schrodinger Suite 2020-3.
 86 87  0  0  1  0            999 V2000
   25.8940  -34.1360   -5.6360 C   0  0  2  0  0  0
   26.0240  -33.9190   -4.1290 C   0  0  0  0  0  0
   25.4390  -32.6570   -3.4950 C   0  0  0  0  0  0
   24.7680  -31.6410   -4.3100 C   0  0  0  0  0  0
   24.6500  -31.8480   -5.8220 C   0  0  0  0  0  0
   25.2170  -33.1240   -6.4490 C   0  0  1  0  0  0
   25.9310  -35.5850   -6.1410 C   0  0  0  0  0  0
   24.4920  -36.0830   -5.9440 C   0  0  1  0  0  0
   23.7890  -36.1460   -7.3140 C   0  0  0  0  0  0
   22.5190  -37.0000   -7.1990 C   0  0  1  0  0  0
   21.5500  -36.5240   -8.2950 C   0  0  1  0  0  0
   21.0410  -35.0920   -8.0000 C   0  0  2  0  0  0
   20.3620  -35.0260   -6.6230 C   0  0  0  0  0  0
   20.3800  -33.8240   -5.7870 C   0  0  0  0  0  0
   19.6330  -33.8950   -4.4500 C   0  0  1  0  0  0
   20.6460  -33.8730   -3.2950 C   0  0  2  0  0  0
   21.1130  -35.2980   -2.9900 C   0  0  0  0  0  0
   22.2140  -35.4480   -2.0290 C   0  0  0  0  0  0
   23.4980  -34.6670   -2.3080 C   0  0  0  0  0  0
   24.6510  -34.7500   -1.4020 C   0  0  1  0  0  0
   25.2940  -33.4120   -1.0280 C   0  0  0  0  0  0
   25.5620  -32.4200   -2.0590 N   0  0  0  0  0  0
   26.5710  -34.7510   -3.4490 O   0  0  0  0  0  0
   24.1030  -31.0370   -6.5110 O   0  0  0  0  0  0
   25.1070  -33.2960   -7.8490 O   0  0  0  0  0  0
   26.2330  -32.6210   -8.4220 C   0  0  0  0  0  0
   24.5120  -37.4340   -5.2220 C   0  0  0  0  0  0
   22.9080  -38.3660   -7.4420 O   0  0  0  0  0  0
   21.7750  -39.2360   -7.4850 C   0  0  0  0  0  0
   22.2820  -36.5090   -9.5270 O   0  0  0  0  0  0
   19.9670  -34.7170   -9.0410 C   0  0  0  0  0  0
   21.0880  -32.5220   -6.2130 C   0  0  0  0  0  0
   18.7980  -32.7450   -4.2920 O   0  0  0  0  0  0
   17.6400  -32.7150   -5.1230 C   0  0  0  0  0  0
   17.3610  -33.6100   -5.8690 O   0  0  0  0  0  0
   16.7840  -31.5310   -5.0200 N   0  0  0  0  0  0
   19.9950  -33.3840   -2.1210 O   0  0  0  0  0  0
   18.9760  -34.3050   -1.7100 C   0  0  0  0  0  0
   24.7920  -35.9220   -0.4250 C   0  0  0  0  0  0
   25.5600  -33.1450    0.1100 O   0  0  0  0  0  0
   26.8502  -33.7235   -5.9904 H   0  0  0  0  0  0
   24.3545  -30.7394   -3.8344 H   0  0  0  0  0  0
   25.2170  -34.1328   -6.8876 H   0  0  0  0  0  0
   26.2329  -35.5971   -7.1987 H   0  0  0  0  0  0
   26.6546  -36.1621   -5.5466 H   0  0  0  0  0  0
   23.9215  -35.3917   -5.3063 H   0  0  0  0  0  0
   23.5190  -35.1290   -7.6347 H   0  0  0  0  0  0
   24.4674  -36.5958   -8.0539 H   0  0  0  0  0  0
   22.0475  -36.9754   -6.2055 H   0  0  0  0  0  0
   20.7017  -37.2150   -8.4082 H   0  0  0  0  0  0
   21.9011  -34.4068   -8.0283 H   0  0  0  0  0  0
   19.8471  -35.9324   -6.2720 H   0  0  0  0  0  0
   18.9764  -34.7774   -4.4330 H   0  0  0  0  0  0
   21.4863  -33.2005   -3.5224 H   0  0  0  0  0  0
   20.2758  -35.8768   -2.5728 H   0  0  0  0  0  0
   21.4629  -35.7755   -3.9171 H   0  0  0  0  0  0
   21.8801  -35.1174   -1.0344 H   0  0  0  0  0  0
   22.5179  -36.5041   -1.9814 H   0  0  0  0  0  0
   23.9140  -34.9795   -3.2772 H   0  0  0  0  0  0
   23.2738  -33.5904   -2.3352 H   0  0  0  0  0  0
   25.2959  -35.1852   -2.1797 H   0  0  0  0  0  0
   25.8775  -31.4331   -1.6895 H   0  0  0  0  0  0
   26.2019  -32.7206   -9.5170 H   0  0  0  0  0  0
   27.1623  -33.0683   -8.0394 H   0  0  0  0  0  0
   26.1995  -31.5558   -8.1496 H   0  0  0  0  0  0
   25.0246  -37.3253   -4.2548 H   0  0  0  0  0  0
   25.0459  -38.1716   -5.8391 H   0  0  0  0  0  0
   23.4799  -37.7751   -5.0537 H   0  0  0  0  0  0
   22.1110  -40.2666   -7.6718 H   0  0  0  0  0  0
   21.0994  -38.9185   -8.2929 H   0  0  0  0  0  0
   21.2426  -39.1925   -6.5234 H   0  0  0  0  0  0
   22.7282  -37.4374   -9.9130 H   0  0  0  0  0  0
   20.4062  -34.7498  -10.0490 H   0  0  0  0  0  0
   19.5959  -33.7021   -8.8356 H   0  0  0  0  0  0
   19.1329  -35.4316   -8.9810 H   0  0  0  0  0  0
   21.5636  -32.6674   -7.1941 H   0  0  0  0  0  0
   21.8549  -32.2613   -5.4688 H   0  0  0  0  0  0
   20.3505  -31.7086   -6.2800 H   0  0  0  0  0  0
   17.0522  -30.7167   -4.3309 H   0  0  0  0  0  0
   15.8729  -31.4561   -5.6318 H   0  0  0  0  0  0
   18.4791  -33.9226   -0.8062 H   0  0  0  0  0  0
   19.4313  -35.2824   -1.4925 H   0  0  0  0  0  0
   18.2358  -34.4165   -2.5160 H   0  0  0  0  0  0
   24.2796  -36.8048   -0.8350 H   0  0  0  0  0  0
   24.3397  -35.6510    0.5404 H   0  0  0  0  0  0
   25.8579  -36.1515   -0.2791 H   0  0  0  0  0  0
  1  2  1  0  0  0
  1  6  1  0  0  0
  1  7  1  0  0  0
  1 41  1  0  0  0
  2  3  1  0  0  0
  2 23  2  0  0  0
  3  4  2  0  0  0
  3 22  1  0  0  0
  4  5  1  0  0  0
  4 42  1  0  0  0
  5  6  1  0  0  0
  5 24  2  0  0  0
  6 25  1  0  0  0
  6 43  1  0  0  0
  7  8  1  0  0  0
  7 44  1  0  0  0
  7 45  1  0  0  0
  8  9  1  0  0  0
  8 27  1  0  0  0
  8 46  1  0  0  0
  9 10  1  0  0  0
  9 47  1  0  0  0
  9 48  1  0  0  0
 10 11  1  0  0  0
 10 28  1  0  0  0
 10 49  1  0  0  0
 11 12  1  0  0  0
 11 30  1  0  0  0
 11 50  1  0  0  0
 12 13  1  0  0  0
 12 31  1  0  0  0
 12 51  1  0  0  0
 13 14  2  0  0  0
 13 52  1  0  0  0
 14 15  1  0  0  0
 14 32  1  0  0  0
 15 16  1  0  0  0
 15 33  1  0  0  0
 15 53  1  0  0  0
 16 17  1  0  0  0
 16 37  1  0  0  0
 16 54  1  0  0  0
 17 18  1  0  0  0
 17 55  1  0  0  0
 17 56  1  0  0  0
 18 19  1  0  0  0
 18 57  1  0  0  0
 18 58  1  0  0  0
 19 20  1  0  0  0
 19 59  1  0  0  0
 19 60  1  0  0  0
 20 21  1  0  0  0
 20 39  1  0  0  0
 20 61  1  0  0  0
 21 22  1  0  0  0
 21 40  2  0  0  0
 22 62  1  0  0  0
 25 26  1  0  0  0
 26 63  1  0  0  0
 26 64  1  0  0  0
 26 65  1  0  0  0
 27 66  1  0  0  0
 27 67  1  0  0  0
 27 68  1  0  0  0
 28 29  1  0  0  0
 29 69  1  0  0  0
 29 70  1  0  0  0
 29 71  1  0  0  0
 30 72  1  0  0  0
 31 73  1  0  0  0
 31 74  1  0  0  0
 31 75  1  0  0  0
 32 76  1  0  0  0
 32 77  1  0  0  0
 32 78  1  0  0  0
 33 34  1  0  0  0
 34 35  2  0  0  0
 34 36  1  0  0  0
 36 79  1  0  0  0
 36 80  1  0  0  0
 37 38  1  0  0  0
 38 81  1  0  0  0
 38 82  1  0  0  0
 38 83  1  0  0  0
 39 84  1  0  0  0
 39 85  1  0  0  0
 39 86  1  0  0  0
M  END
> <s_m_source_file>
../2ygf_ligand.sdf

> <i_m_source_file_index>
1

> <s_epik_input>
W0NIM11PW0NAQEhdMUMoPU8pW0NIXT1DKEMoPU8pW0NASF0xMilbTkhdQyg9TylbQ0BASF0oW0NIM10pW0NIMl1bQ0gyXVtDSDJdW0NASF0oT1tDSDNdKVtDQEBIXShPQyg9TylbTkgyXSlcQyhbQ0gzXSk9W0NIXVxbQ0BIXShbQ0gzXSlbQ0BASF0oW09IXSlbQ0BASF0oT1tDSDNdKVtDSDJdW0NASF0oW0NIMl0yKVtDSDNd

> <s_epik_cmdline>
J2VwaWtfYXBwJywgJy1pbWFlJywgJ2xpZ2FuZF9wcm8ubWFlJywgJy1vbWFlJywgJ2xpZ2FuZF9wcmVwLm1hZScsICctbXMnLCAnMScsICctcGgnLCAnNycsICctcGh0JywgJzAuNScsICctbnQn

> <r_lp_tautomer_probability>
1

> <r_epik_Ionization_Penalty>
  0.0001

> <r_epik_Ionization_Penalty_Charging>
  0.0000

> <r_epik_Ionization_Penalty_Neutral>
  0.0001

> <r_epik_State_Penalty>
 -0.0000

> <r_epik_Charging_Adjusted_Penalty>
0

> <i_epik_Tot_Q>
0

> <i_epik_Tot_abs_Q>
0

> <s_epik_Chemistry_Notes>
This compound has an ester and may undergo hydrolysis at high or low pH.

$$$$
