2yhy_ligand
                    3D
 Schrodinger Suite 2020-3.
 30 30  0  0  1  0            999 V2000
  -11.2590   30.9810   17.2800 C   0  0  2  0  0  0
  -12.3060   30.4620   18.0610 O   0  0  0  0  0  0
  -10.6400   29.9510   16.3990 C   0  0  1  0  0  0
   -9.7360   30.6600   15.4690 N   0  0  0  0  0  0
   -9.7350   30.5080   14.1000 C   0  0  0  0  0  0
  -10.4080   29.6140   13.5110 O   0  0  0  0  0  0
   -8.7430   31.4540   13.4030 C   0  0  0  0  0  0
   -9.9750   28.9240   17.2250 C   0  0  1  0  0  0
   -9.3980   27.9910   16.3220 O   0  0  0  0  0  0
   -9.0070   29.5240   18.1660 C   0  0  2  0  0  0
   -8.4230   28.4830   18.9810 O   0  0  0  0  0  0
   -9.6070   30.6120   19.0190 C   0  0  1  0  0  0
   -8.6450   31.3310   19.9440 C   0  0  0  0  0  0
   -7.6520   31.9840   19.1760 O   0  0  0  0  0  0
  -10.2560   31.5520   18.1420 O   0  0  0  0  0  0
  -11.7218   31.7682   16.6667 H   0  0  0  0  0  0
  -13.1688   29.9825   17.5755 H   0  0  0  0  0  0
  -11.3765   29.3990   15.7966 H   0  0  0  0  0  0
   -8.9933   31.3714   15.8592 H   0  0  0  0  0  0
   -8.2970   32.1305   14.1470 H   0  0  0  0  0  0
   -9.2731   32.0448   12.6414 H   0  0  0  0  0  0
   -7.9494   30.8634   12.9220 H   0  0  0  0  0  0
  -10.6816   28.3668   17.8577 H   0  0  0  0  0  0
  -10.0290   27.4840   15.5772 H   0  0  0  0  0  0
   -8.2008   29.9771   17.5704 H   0  0  0  0  0  0
   -7.9433   27.6154   18.5044 H   0  0  0  0  0  0
  -10.3540   30.1448   19.6776 H   0  0  0  0  0  0
   -9.1955   32.0739   20.5399 H   0  0  0  0  0  0
   -8.1686   30.6021   20.6161 H   0  0  0  0  0  0
   -6.8610   32.5617   19.6766 H   0  0  0  0  0  0
  1  2  1  0  0  0
  1  3  1  0  0  0
  1 15  1  0  0  0
  1 16  1  0  0  0
  2 17  1  0  0  0
  3  4  1  0  0  0
  3  8  1  0  0  0
  3 18  1  0  0  0
  4  5  1  0  0  0
  4 19  1  0  0  0
  5  6  2  0  0  0
  5  7  1  0  0  0
  7 20  1  0  0  0
  7 21  1  0  0  0
  7 22  1  0  0  0
  8  9  1  0  0  0
  8 10  1  0  0  0
  8 23  1  0  0  0
  9 24  1  0  0  0
 10 11  1  0  0  0
 10 12  1  0  0  0
 10 25  1  0  0  0
 11 26  1  0  0  0
 12 13  1  0  0  0
 12 15  1  0  0  0
 12 27  1  0  0  0
 13 14  1  0  0  0
 13 28  1  0  0  0
 13 29  1  0  0  0
 14 30  1  0  0  0
M  END
> <s_m_source_file>
../2yhy_ligand.sdf

> <i_m_source_file_index>
1

> <s_epik_input>
Tz1DKFtDSDNdKVtOSF1bQ0BIXShbQ0BIXTFbT0hdKVtDQEBIXShbT0hdKVtDQEhdKFtPSF0pW0NASF0oTzEpW0NIMl1bT0hd

> <s_epik_cmdline>
J2VwaWtfYXBwJywgJy1pbWFlJywgJ2xpZ2FuZF9wcm8ubWFlJywgJy1vbWFlJywgJ2xpZ2FuZF9wcmVwLm1hZScsICctbXMnLCAnMScsICctcGgnLCAnNycsICctcGh0JywgJzAuNScsICctbnQn

> <r_lp_tautomer_probability>
1

> <r_epik_Ionization_Penalty>
  0.0000

> <r_epik_Ionization_Penalty_Charging>
  0.0000

> <r_epik_Ionization_Penalty_Neutral>
  0.0000

> <r_epik_State_Penalty>
 -0.0000

> <r_epik_Charging_Adjusted_Penalty>
0

> <i_epik_Tot_Q>
0

> <i_epik_Tot_abs_Q>
0

> <s_epik_Chemistry_Notes>
This compound contains an acetal/aminal-like group ( X-CH(R)-Y where X, Y are N, S, or O) that may be acid/base labile, releasing an aldehyde.

$$$$
