2yi0_ligand
                    3D
 Schrodinger Suite 2020-3.
 33 35  0  0  1  0            999 V2000
   30.1230    9.0240   28.0130 N   0  0  0  0  0  0
   30.0090    9.9180   27.0770 N   0  0  0  0  0  0
   30.8210    9.6080   26.0270 C   0  0  0  0  0  0
   31.6090    8.4490   26.1710 C   0  0  0  0  0  0
   30.8820   10.4360   24.8480 C   0  0  0  0  0  0
   32.5560    7.8240   25.3410 C   0  0  0  0  0  0
   32.2050    7.4140   24.0780 C   0  0  0  0  0  0
   33.0390    6.8120   23.1840 C   0  0  0  0  0  0
   34.3760    6.6920   23.5110 C   0  0  0  0  0  0
   34.8020    7.0880   24.7700 C   0  0  0  0  0  0
   33.8940    7.6470   25.6490 C   0  0  0  0  0  0
   29.7440   10.8380   24.1780 C   0  0  0  0  0  0
   29.7380   11.5920   22.9570 C   0  0  0  0  0  0
   31.0040   12.0830   22.5960 C   0  0  0  0  0  0
   32.1320   11.6890   23.3220 C   0  0  0  0  0  0
   32.1590   10.9080   24.4240 C   0  0  0  0  0  0
   31.1400   12.7290   21.4090 O   0  0  0  0  0  0
   28.5370   10.4350   24.6060 O   0  0  0  0  0  0
   35.3390    6.1070   22.7550 O   0  0  0  0  0  0
   31.1670    7.8150   27.7500 S   0  0  0  0  0  0
   34.9620    5.7450   21.4020 C   0  0  0  0  0  0
   33.7210   12.3740   22.7910 Cl  0  0  0  0  0  0
   31.1748    7.5841   23.7650 H   0  0  0  0  0  0
   32.6605    6.4344   22.2341 H   0  0  0  0  0  0
   35.8438    6.9594   25.0636 H   0  0  0  0  0  0
   34.2477    7.9632   26.6303 H   0  0  0  0  0  0
   28.8384   11.7669   22.3668 H   0  0  0  0  0  0
   33.0824   10.6588   24.9468 H   0  0  0  0  0  0
   30.2472   13.0355   20.8442 H   0  0  0  0  0  0
   28.4493    9.8512   25.5342 H   0  0  0  0  0  0
   35.8208    5.2826   20.8934 H   0  0  0  0  0  0
   34.6532    6.6472   20.8536 H   0  0  0  0  0  0
   34.1261    5.0307   21.4330 H   0  0  0  0  0  0
  1  2  2  0  0  0
  1 20  1  0  0  0
  2  3  1  0  0  0
  3  4  2  0  0  0
  3  5  1  0  0  0
  4  6  1  0  0  0
  4 20  1  0  0  0
  5 12  2  0  0  0
  5 16  1  0  0  0
  6  7  2  0  0  0
  6 11  1  0  0  0
  7  8  1  0  0  0
  7 23  1  0  0  0
  8  9  2  0  0  0
  8 24  1  0  0  0
  9 10  1  0  0  0
  9 19  1  0  0  0
 10 11  2  0  0  0
 10 25  1  0  0  0
 11 26  1  0  0  0
 12 13  1  0  0  0
 12 18  1  0  0  0
 13 14  2  0  0  0
 13 27  1  0  0  0
 14 15  1  0  0  0
 14 17  1  0  0  0
 15 16  2  0  0  0
 15 22  1  0  0  0
 16 28  1  0  0  0
 17 29  1  0  0  0
 18 30  1  0  0  0
 19 21  1  0  0  0
 21 31  1  0  0  0
 21 32  1  0  0  0
 21 33  1  0  0  0
M  END
> <s_m_source_file>
../2yi0_ligand.sdf

> <i_m_source_file_index>
1

> <s_epik_input>
W2NIXTFjKENsKWMoW09IXSlbY0hdYyhbT0hdKWMxLWMybm5zYzItYzNbY0hdW2NIXWMoW2NIXVtjSF0zKU9bQ0gzXQ==

> <s_epik_cmdline>
J2VwaWtfYXBwJywgJy1pbWFlJywgJ2xpZ2FuZF9wcm8ubWFlJywgJy1vbWFlJywgJ2xpZ2FuZF9wcmVwLm1hZScsICctbXMnLCAnMScsICctcGgnLCAnNycsICctcGh0JywgJzAuNScsICctbnQn

> <r_lp_tautomer_probability>
0.999999999898

> <r_epik_Ionization_Penalty>
  0.1458

> <r_epik_Ionization_Penalty_Charging>
  0.0000

> <r_epik_Ionization_Penalty_Neutral>
  0.1458

> <r_epik_State_Penalty>
  0.1251

> <r_epik_Charging_Adjusted_Penalty>
0.125055181950202

> <i_epik_Tot_Q>
0

> <i_epik_Tot_abs_Q>
0

$$$$
