2yim_ligand
                    3D
 Schrodinger Suite 2020-3.
 93 95  0  0  1  0            999 V2000
  125.4820   28.4460  -11.1800 C   0  0  0  0  0  0
  125.6440   29.6670  -11.1920 O   0  0  0  0  0  0
  126.4800   27.6130  -10.6360 C   0  0  1  0  0  0
  126.3730   26.0720  -10.5710 C   0  0  0  0  0  0
  127.3940   25.4170   -9.9450 O   0  0  0  0  0  0
  125.3310   25.3460  -11.1360 C   0  0  0  0  0  0
  112.6770   17.7030  -22.4040 N   0  0  0  0  0  0
  118.9350   26.9720  -21.2860 O   0  0  0  0  0  0
  119.6270   26.2860  -22.4380 P   0  0  1  0  0  0
  115.9060   21.6500  -23.4890 C   0  0  1  0  0  0
  123.9570   27.8240  -11.8060 S   0  0  0  0  0  0
  113.2820   18.0300  -23.5680 C   0  0  0  0  0  0
  120.2270   27.3660  -23.5800 O   0  5  0  0  0  0
  122.3270   25.2950  -22.0590 P   0  0  2  0  0  0
  115.2970   22.9650  -23.9300 C   0  0  2  0  0  0
  114.2810   22.7630  -24.9140 O   0  0  0  0  0  0
  123.3550   29.2510  -12.7420 C   0  0  0  0  0  0
  114.1030   19.0900  -23.7190 N   0  0  0  0  0  0
  120.7290   25.2720  -21.8370 O   0  0  0  0  0  0
  116.5060   23.6860  -24.4860 C   0  0  2  0  0  0
  116.6980   23.2960  -25.8440 O   0  0  0  0  0  0
  116.9770   24.3460  -27.0360 P   0  0  0  0  0  0
  123.5420   29.0730  -14.2460 C   0  0  0  0  0  0
  114.3630   19.8910  -22.6770 C   0  0  0  0  0  0
  122.7630   25.6940  -23.6350 O   0  5  0  0  0  0
  117.6560   23.1730  -23.6260 C   0  0  2  0  0  0
  117.2020   21.9780  -22.9880 O   0  0  0  0  0  0
  122.9050   30.1380  -15.0060 N   0  0  0  0  0  0
  127.7480   28.2820  -10.0840 C   0  0  0  0  0  0
  113.7400   19.5910  -21.3930 C   0  0  0  0  0  0
  122.8550   23.9540  -21.6120 O   0  0  0  0  0  0
  118.0470   24.1680  -22.5440 C   0  0  0  0  0  0
  118.5960   25.3100  -23.1860 O   0  0  0  0  0  0
  121.5840   30.1850  -15.2000 C   0  0  0  0  0  0
  120.8070   29.3490  -14.7540 O   0  0  0  0  0  0
  112.8490   18.4190  -21.2800 C   0  0  0  0  0  0
  112.2430   18.0840  -20.1190 N   0  0  0  0  0  0
  122.8630   26.4480  -21.0720 O   0  0  0  0  0  0
  121.0710   31.3570  -16.0050 C   0  0  0  0  0  0
  114.1220   20.5010  -20.4980 N   0  0  0  0  0  0
  116.0050   25.5020  -26.9680 O   0  0  0  0  0  0
  119.9780   30.9380  -16.9920 C   0  0  0  0  0  0
  114.9440   21.3430  -21.1570 C   0  0  0  0  0  0
  118.5630   24.9270  -26.9310 O   0  5  0  0  0  0
  120.3040   29.7190  -17.7250 N   0  0  0  0  0  0
  115.0880   20.9830  -22.4550 N   0  0  0  0  0  0
  116.7780   23.5090  -28.4990 O   0  5  0  0  0  0
  121.2180   29.6630  -18.6990 C   0  0  0  0  0  0
  121.8470   30.6430  -19.0800 O   0  0  0  0  0  0
  121.4310   28.3120  -19.3480 C   0  0  2  0  0  0
  120.3050   27.4640  -19.0430 O   0  0  0  0  0  0
  122.7530   27.6170  -18.9580 C   0  0  0  0  0  0
  122.8430   26.2670  -19.6570 C   0  0  0  0  0  0
  122.8230   27.3700  -17.4540 C   0  0  0  0  0  0
  123.9460   28.4580  -19.3980 C   0  0  0  0  0  0
  126.0035   27.6878   -9.6474 H   0  0  0  0  0  0
  128.2205   25.9877   -9.4966 H   0  0  0  0  0  0
  124.5063   25.8699  -11.6414 H   0  0  0  0  0  0
  125.3311   24.2475  -11.0778 H   0  0  0  0  0  0
  116.0039   20.9206  -24.3066 H   0  0  0  0  0  0
  113.0952   17.3991  -24.4370 H   0  0  0  0  0  0
  114.7373   23.5205  -23.1631 H   0  0  0  0  0  0
  113.3467   22.2498  -24.6425 H   0  0  0  0  0  0
  122.2821   29.3925  -12.5451 H   0  0  0  0  0  0
  123.9063   30.1513  -12.4330 H   0  0  0  0  0  0
  116.4163   24.7816  -24.5251 H   0  0  0  0  0  0
  124.6157   29.0764  -14.4849 H   0  0  0  0  0  0
  123.0996   28.1160  -14.5598 H   0  0  0  0  0  0
  118.5341   22.9464  -24.2486 H   0  0  0  0  0  0
  123.5150   30.9417  -15.4442 H   0  0  0  0  0  0
  127.6689   29.3726  -10.2036 H   0  0  0  0  0  0
  128.6260   27.9154  -10.6360 H   0  0  0  0  0  0
  127.8570   28.0370   -9.0172 H   0  0  0  0  0  0
  117.1556   24.4471  -21.9631 H   0  0  0  0  0  0
  118.7912   23.7098  -21.8760 H   0  0  0  0  0  0
  111.5861   17.2028  -20.0758 H   0  0  0  0  0  0
  112.4068   18.6926  -19.2175 H   0  0  0  0  0  0
  120.6497   32.1123  -15.3253 H   0  0  0  0  0  0
  121.8997   31.7999  -16.5769 H   0  0  0  0  0  0
  119.0405   30.7572  -16.4458 H   0  0  0  0  0  0
  119.8238   31.7389  -17.7301 H   0  0  0  0  0  0
  115.4315   22.2053  -20.7021 H   0  0  0  0  0  0
  119.7862   28.7784  -17.4859 H   0  0  0  0  0  0
  121.4448   28.4676  -20.4369 H   0  0  0  0  0  0
  119.2828   27.8082  -19.2591 H   0  0  0  0  0  0
  121.9713   25.6570  -19.3777 H   0  0  0  0  0  0
  123.7644   25.7568  -19.3395 H   0  0  0  0  0  0
  121.9604   26.7630  -17.1416 H   0  0  0  0  0  0
  122.8052   28.3332  -16.9230 H   0  0  0  0  0  0
  123.7539   26.8357  -17.2131 H   0  0  0  0  0  0
  123.8910   28.6332  -20.4826 H   0  0  0  0  0  0
  124.8782   27.9250  -19.1595 H   0  0  0  0  0  0
  123.9295   29.4225  -18.8694 H   0  0  0  0  0  0
  1  2  2  0  0  0
  1  3  1  0  0  0
  1 11  1  0  0  0
  3  4  1  0  0  0
  3 29  1  0  0  0
  3 56  1  0  0  0
  4  5  1  0  0  0
  4  6  2  0  0  0
  5 57  1  0  0  0
  6 58  1  0  0  0
  6 59  1  0  0  0
  7 12  1  0  0  0
  7 36  2  0  0  0
  8  9  2  0  0  0
  9 13  1  0  0  0
  9 19  1  0  0  0
  9 33  1  0  0  0
 10 15  1  0  0  0
 10 27  1  0  0  0
 10 46  1  0  0  0
 10 60  1  0  0  0
 11 17  1  0  0  0
 12 18  2  0  0  0
 12 61  1  0  0  0
 14 19  1  0  0  0
 14 25  1  0  0  0
 14 31  2  0  0  0
 14 38  1  0  0  0
 15 16  1  0  0  0
 15 20  1  0  0  0
 15 62  1  0  0  0
 16 63  1  0  0  0
 17 23  1  0  0  0
 17 64  1  0  0  0
 17 65  1  0  0  0
 18 24  1  0  0  0
 20 21  1  0  0  0
 20 26  1  0  0  0
 20 66  1  0  0  0
 21 22  1  0  0  0
 22 41  2  0  0  0
 22 44  1  0  0  0
 22 47  1  0  0  0
 23 28  1  0  0  0
 23 67  1  0  0  0
 23 68  1  0  0  0
 24 30  2  0  0  0
 24 46  1  0  0  0
 26 27  1  0  0  0
 26 32  1  0  0  0
 26 69  1  0  0  0
 28 34  1  0  0  0
 28 70  1  0  0  0
 29 71  1  0  0  0
 29 72  1  0  0  0
 29 73  1  0  0  0
 30 36  1  0  0  0
 30 40  1  0  0  0
 32 33  1  0  0  0
 32 74  1  0  0  0
 32 75  1  0  0  0
 34 35  2  0  0  0
 34 39  1  0  0  0
 36 37  1  0  0  0
 37 76  1  0  0  0
 37 77  1  0  0  0
 38 53  1  0  0  0
 39 42  1  0  0  0
 39 78  1  0  0  0
 39 79  1  0  0  0
 40 43  2  0  0  0
 42 45  1  0  0  0
 42 80  1  0  0  0
 42 81  1  0  0  0
 43 46  1  0  0  0
 43 82  1  0  0  0
 45 48  1  0  0  0
 45 83  1  0  0  0
 48 49  2  0  0  0
 48 50  1  0  0  0
 50 51  1  0  0  0
 50 52  1  0  0  0
 50 84  1  0  0  0
 51 85  1  0  0  0
 52 53  1  0  0  0
 52 54  1  0  0  0
 52 55  1  0  0  0
 53 86  1  0  0  0
 53 87  1  0  0  0
 54 88  1  0  0  0
 54 89  1  0  0  0
 54 90  1  0  0  0
 55 91  1  0  0  0
 55 92  1  0  0  0
 55 93  1  0  0  0
M  CHG  4  13  -1  25  -1  44  -1  47  -1
M  END
> <s_m_source_file>
../2yim_ligand.sdf

> <i_m_source_file_index>
1

> <s_epik_input>
W09IXUMoPVtDSDJdKVtDSF0oW0NIM10pQyg9TylTW0NIMl1bQ0gyXVtOSF1DKD1PKVtDSDJdW0NIMl1bTkhdQyg9TylbQ0BIXShbT0hdKUMoW0NIM10pKFtDSDNdKVtDSDJdT1tQQF0oPU8pKFtPSF0pT1tQQEBdKD1PKShbT0hdKU9bQ0gyXVtDQEBIXShPMSlbQ0BASF0oT1AoPU8pKFtPSF0pW09IXSlbQ0BASF0oW09IXSlbQ0BASF0xbjJbY0hdbmMoYzIzKWMoW05IMl0pbltjSF1uMw==

> <s_epik_cmdline>
J2VwaWtfYXBwJywgJy1pbWFlJywgJ2xpZ2FuZF9wcm8ubWFlJywgJy1vbWFlJywgJ2xpZ2FuZF9wcmVwLm1hZScsICctbXMnLCAnMScsICctcGgnLCAnNycsICctcGh0JywgJzAuNScsICctbnQn

> <r_lp_tautomer_probability>
9.99997206411044e-09

> <r_epik_Ionization_Penalty>
  0.0819

> <r_epik_Ionization_Penalty_Charging>
  0.0752

> <r_epik_Ionization_Penalty_Neutral>
  0.0067

> <r_epik_State_Penalty>
  0.0657

> <r_epik_Charging_Adjusted_Penalty>
0.140907442939625

> <i_epik_Tot_Q>
-4

> <i_epik_Tot_abs_Q>
4

> <s_epik_Chemistry_Notes>
This compound contains an acetal/aminal-like group ( X-CH(R)-Y where X, Y are N, S, or O) that may be acid/base labile, releasing an aldehyde.

$$$$
