2yiq_ligand
                    3D
 Schrodinger Suite 2020-3.
 45 48  0  0  1  0            999 V2000
  -38.2950   32.1040    5.1890 C   0  0  0  0  0  0
  -39.0910   31.6650    4.1130 C   0  0  0  0  0  0
  -39.2320   32.1070    2.8640 N   0  0  0  0  0  0
  -40.1290   31.3200    2.2450 C   0  0  0  0  0  0
  -40.5590   30.3760    3.0870 C   0  0  0  0  0  0
  -39.9320   30.5570    4.2590 C   0  0  0  0  0  0
  -39.9990   29.8770    5.4770 C   0  0  0  0  0  0
  -39.2140   30.3010    6.5580 C   0  0  0  0  0  0
  -38.3660   31.4200    6.4100 C   0  0  0  0  0  0
  -37.6420   31.7930    7.4840 N   0  0  0  0  0  0
  -37.0360   32.9740    7.6730 C   0  0  0  0  0  0
  -37.1350   33.9520    6.9390 O   0  5  0  0  0  0
  -36.3610   33.0670    9.0440 C   0  0  0  0  0  0
  -36.1300   31.9970    9.8170 N   0  0  0  0  0  0
  -36.0100   34.2080    9.6640 C   0  0  0  0  0  0
  -35.5040   33.8540   10.8590 C   0  0  0  0  0  0
  -34.9920   34.6130   11.9150 C   0  0  0  0  0  0
  -35.5850   32.4650   10.9610 C   0  0  0  0  0  0
  -35.1200   31.8240   12.1190 C   0  0  0  0  0  0
  -34.6000   32.5840   13.1680 C   0  0  0  0  0  0
  -34.5300   33.9900   13.0880 C   0  0  0  0  0  0
  -34.0040   34.7420   14.1750 C   0  0  0  0  0  0
  -33.3120   36.1060   13.9680 C   0  0  0  0  0  0
  -34.1700   34.2370   15.4180 N   0  0  0  0  0  0
  -33.7610   34.7660   16.4790 N   0  0  0  0  0  0
  -34.0000   34.1770   17.6550 C   0  0  0  0  0  0
  -33.6230   34.7490   18.7880 N   0  3  0  0  0  0
  -34.6910   33.0320   17.7090 N   0  0  0  0  0  0
  -37.6306   32.9716    5.0635 H   0  0  0  0  0  0
  -40.3986   31.5128    1.1961 H   0  0  0  0  0  0
  -41.2805   29.5539    2.9704 H   0  0  0  0  0  0
  -40.6607   29.0179    5.5868 H   0  0  0  0  0  0
  -39.2565   29.7663    7.5183 H   0  0  0  0  0  0
  -36.0639   35.2700    9.3823 H   0  0  0  0  0  0
  -34.9526   35.7083   11.8219 H   0  0  0  0  0  0
  -35.1662   30.7277   12.1971 H   0  0  0  0  0  0
  -34.2413   32.0810   14.0660 H   0  0  0  0  0  0
  -33.2743   36.3387   12.8936 H   0  0  0  0  0  0
  -32.2890   36.0629   14.3700 H   0  0  0  0  0  0
  -33.8796   36.8885   14.4930 H   0  0  0  0  0  0
  -35.0139   32.5401   16.7796 H   0  0  0  0  0  0
  -34.9360   32.5828   18.6828 H   0  0  0  0  0  0
  -33.0543   35.6903   18.7663 H   0  0  0  0  0  0
  -33.2055   35.7147   16.4420 H   0  0  0  0  0  0
  -33.8785   34.2829   19.7511 H   0  0  0  0  0  0
  1  2  2  0  0  0
  1  9  1  0  0  0
  1 29  1  0  0  0
  2  3  1  0  0  0
  2  6  1  0  0  0
  3  4  2  0  0  0
  4  5  1  0  0  0
  4 30  1  0  0  0
  5  6  2  0  0  0
  5 31  1  0  0  0
  6  7  1  0  0  0
  7  8  1  0  0  0
  7 32  1  0  0  0
  8  9  2  0  0  0
  8 33  1  0  0  0
  9 10  1  0  0  0
 10 11  2  0  0  0
 11 12  1  0  0  0
 11 13  1  0  0  0
 13 14  2  0  0  0
 13 15  1  0  0  0
 14 18  1  0  0  0
 15 16  2  0  0  0
 15 34  1  0  0  0
 16 17  1  0  0  0
 16 18  1  0  0  0
 17 21  2  0  0  0
 17 35  1  0  0  0
 18 19  2  0  0  0
 19 20  1  0  0  0
 19 36  1  0  0  0
 20 21  1  0  0  0
 20 37  1  0  0  0
 21 22  1  0  0  0
 22 23  1  0  0  0
 22 24  2  0  0  0
 23 38  1  0  0  0
 23 39  1  0  0  0
 23 40  1  0  0  0
 24 25  1  0  0  0
 25 26  1  0  0  0
 25 44  1  0  0  0
 26 27  2  0  0  0
 26 28  1  0  0  0
 27 43  1  0  0  0
 27 45  1  0  0  0
 28 41  1  0  0  0
 28 42  1  0  0  0
M  CHG  2  12  -1  27   1
M  END
> <s_m_source_file>
../2yiq_ligand.sdf

> <i_m_source_file_index>
1

> <s_epik_input>
TjE9W0NIXVtDSF09QyhDMTIpW0NIMl1bQ0hdPUMoW0NIXT0yKVtOSF1DKD1PKUMoW0NIXT0zKT1OQyhDMzQpPVtDSF1bQ0gyXUMoPVtDSF00KS9DKFtDSDNdKT1OL1tOSF0vQyg9TlxbSF0pW05IMl0=

> <s_epik_cmdline>
J2VwaWtfYXBwJywgJy1pbWFlJywgJ2xpZ2FuZF9wcm8ubWFlJywgJy1vbWFlJywgJ2xpZ2FuZF9wcmVwLm1hZScsICctbXMnLCAnMScsICctcGgnLCAnNycsICctcGh0JywgJzAuNScsICctbnQn

> <r_epik_Ionization_Penalty>
  3.7197

> <r_epik_Ionization_Penalty_Charging>
  3.7197

> <r_epik_Ionization_Penalty_Neutral>
  0.0000

> <r_epik_State_Penalty>
  0.0293

> <r_epik_Charging_Adjusted_Penalty>
3.74900464305732

> <i_epik_Tot_Q>
0

> <i_epik_Tot_abs_Q>
2

> <s_epik_Chemistry_Notes>
This compound has an imine and may undergo hydrolysis.

$$$$
