2yir_ligand
                    3D
 Schrodinger Suite 2020-3.
 45 48  0  0  1  0            999 V2000
   49.1170   16.7440  -11.8510 N   0  3  0  0  0  0
   48.2680   15.7750   -9.1980 N   0  0  0  0  0  0
   47.1390   14.6600   -5.8880 N   0  0  0  0  0  0
   47.1910   12.2110   -0.1030 N   0  0  0  0  0  0
   47.2880   11.6590    1.0070 N   0  3  0  0  0  0
   46.2540   13.4850    1.9420 N   0  0  0  0  0  0
   46.9070   11.7760    3.2980 N   0  0  0  0  0  0
   47.5190   18.5610  -11.7640 C   0  0  0  0  0  0
   46.5510   19.1430  -10.9470 C   0  0  0  0  0  0
   46.2120   18.6470   -9.6950 C   0  0  0  0  0  0
   46.8180   17.5080   -9.1680 C   0  0  0  0  0  0
   47.8210   16.8400   -9.8730 C   0  0  0  0  0  0
   48.1760   17.3420  -11.1270 C   0  0  3  0  0  0
   46.5910   16.7740   -7.8700 C   0  0  0  0  0  0
   47.6240   15.6990   -8.0280 C   0  0  0  0  0  0
   47.9270   14.6500   -6.9710 C   0  0  0  0  0  0
   47.2660   13.8980   -4.7960 C   0  0  0  0  0  0
   48.2690   12.9260   -4.6450 C   0  0  0  0  0  0
   48.3720   12.1950   -3.4530 C   0  0  0  0  0  0
   47.4810   12.4410   -2.4100 C   0  0  0  0  0  0
   46.4950   13.4320   -2.5540 C   0  0  0  0  0  0
   46.3880   14.1550   -3.7400 C   0  0  0  0  0  0
   49.4750   11.1280   -3.3300 C   0  0  0  0  0  0
   49.0250    9.9330   -2.4800 C   0  0  0  0  0  0
   48.4020   10.3530   -1.1540 C   0  0  0  0  0  0
   47.6420   11.6910   -1.2400 C   0  0  0  0  0  0
   46.8260   12.3010    2.0790 C   0  0  0  0  0  0
   49.7960   15.5800  -11.4230 O   0  0  0  0  0  0
   49.4440   17.2530  -13.1210 O   0  5  0  0  0  0
   48.8920   13.7480   -7.2290 O   0  0  0  0  0  0
   46.2820   15.3478   -5.8377 H   0  0  0  0  0  0
   46.1725   13.9445    0.9459 H   0  0  0  0  0  0
   47.3775   10.7924    3.4431 H   0  0  0  0  0  0
   46.5035   12.3253    4.1614 H   0  0  0  0  0  0
   47.7341   18.9905  -12.7536 H   0  0  0  0  0  0
   46.0130   20.0407  -11.2855 H   0  0  0  0  0  0
   45.4426   19.1786   -9.1158 H   0  0  0  0  0  0
   45.9643   16.8060   -6.9666 H   0  0  0  0  0  0
   48.9703   12.7393   -5.4582 H   0  0  0  0  0  0
   45.8091   13.6364   -1.7319 H   0  0  0  0  0  0
   45.6195   14.9210   -3.8441 H   0  0  0  0  0  0
   50.4587   11.2118   -3.7920 H   0  0  0  0  0  0
   49.1386    8.8945   -2.7911 H   0  0  0  0  0  0
   48.4854    9.7671   -0.2386 H   0  0  0  0  0  0
   47.7472   10.6627    1.0875 H   0  0  0  0  0  0
  1 13  1  0  0  0
  1 28  2  0  0  0
  1 29  1  0  0  0
  2 12  2  0  0  0
  2 15  1  0  0  0
  3 16  1  0  0  0
  3 17  1  0  0  0
  3 31  1  0  0  0
  4  5  2  0  0  0
  4 26  1  0  0  0
  5 27  1  0  0  0
  5 45  1  0  0  0
  6 27  2  0  0  0
  6 32  1  0  0  0
  7 27  1  0  0  0
  7 33  1  0  0  0
  7 34  1  0  0  0
  8  9  2  0  0  0
  8 13  1  0  0  0
  8 35  1  0  0  0
  9 10  1  0  0  0
  9 36  1  0  0  0
 10 11  2  0  0  0
 10 37  1  0  0  0
 11 12  1  0  0  0
 11 14  1  0  0  0
 12 13  1  0  0  0
 14 15  2  0  0  0
 14 38  1  0  0  0
 15 16  1  0  0  0
 16 30  2  0  0  0
 17 18  2  0  0  0
 17 22  1  0  0  0
 18 19  1  0  0  0
 18 39  1  0  0  0
 19 20  2  0  0  0
 19 23  1  0  0  0
 20 21  1  0  0  0
 20 26  1  0  0  0
 21 22  2  0  0  0
 21 40  1  0  0  0
 22 41  1  0  0  0
 23 24  2  0  0  0
 23 42  1  0  0  0
 24 25  1  0  0  0
 24 43  1  0  0  0
 25 26  2  0  0  0
 25 44  1  0  0  0
M  CHG  3   1   1   5   1  29  -1
M  END
> <s_m_source_file>
../2yir_ligand.sdf

> <i_m_source_file_index>
1

> <s_epik_input>
W0NIXT0xW0NIXT1bQ0hdW0NIXShbTitdKD1PKVtPLV0pQyhDMTIpPU5DKD1bQ0hdMilDKD1PKVtOSF1jKFtjSF0zKVtjSF1bY0hdYyhjMzQpYyhbY0hdW2NIXVtjSF00KS9OPU4vQyg9TlxbSF0pW05IMl0=

> <s_epik_cmdline>
J2VwaWtfYXBwJywgJy1pbWFlJywgJ2xpZ2FuZF9wcm8ubWFlJywgJy1vbWFlJywgJ2xpZ2FuZF9wcmVwLm1hZScsICctbXMnLCAnMScsICctcGgnLCAnNycsICctcGh0JywgJzAuNScsICctbnQn

> <r_lp_tautomer_probability>
1

> <r_epik_Ionization_Penalty>
  0.0008

> <r_epik_Ionization_Penalty_Charging>
  0.0000

> <r_epik_Ionization_Penalty_Neutral>
  0.0008

> <r_epik_State_Penalty>
 -0.0000

> <r_epik_Charging_Adjusted_Penalty>
9.46313092932596e-10

> <i_epik_Tot_Q>
1

> <i_epik_Tot_abs_Q>
3

> <s_epik_Chemistry_Notes>
This compound has an imine and may undergo hydrolysis.

$$$$
