2yit_ligand
                    3D
 Schrodinger Suite 2020-3.
 53 55  0  0  1  0            999 V2000
   46.9850  -16.9060   -7.7150 N   0  0  0  0  0  0
   47.0020  -17.6790   -6.6340 C   0  0  0  0  0  0
   46.4080  -18.9010   -6.3730 C   0  0  0  0  0  0
   46.5960  -19.5170   -5.1390 C   0  0  0  0  0  0
   47.3840  -18.9320   -4.1560 C   0  0  3  0  0  0
   47.5120  -19.6420   -2.9810 O   0  0  0  0  0  0
   48.1120  -18.9770   -1.8380 C   0  0  0  0  0  0
   48.0010  -17.6900   -4.4150 C   0  0  0  0  0  0
   47.8090  -17.0640   -5.6730 C   0  0  0  0  0  0
   48.2450  -15.9220   -6.2270 C   0  0  0  0  0  0
   47.7330  -15.8310   -7.4650 C   0  0  0  0  0  0
   48.0110  -14.6880   -8.4710 C   0  0  0  0  0  0
   48.8490  -13.8340   -8.2030 O   0  0  0  0  0  0
   47.3860  -14.7720   -9.6620 N   0  0  0  0  0  0
   47.5380  -13.9470  -10.7130 C   0  0  0  0  0  0
   46.6590  -14.1350  -11.7810 C   0  0  0  0  0  0
   46.7430  -13.3930  -12.9470 C   0  0  0  0  0  0
   48.5240  -12.9780  -10.8290 C   0  0  0  0  0  0
   48.6130  -12.2030  -12.0000 C   0  0  0  0  0  0
   47.7160  -12.3960  -13.0690 C   0  0  0  0  0  0
   47.7950  -11.6060  -14.2310 C   0  0  0  0  0  0
   48.3530  -10.1870  -14.2140 C   0  0  0  0  0  0
   49.6710  -10.0900  -15.0070 C   0  0  0  0  0  0
   50.2010   -8.6410  -14.9860 C   0  0  0  0  0  0
   47.3480  -12.1120  -15.3940 N   0  0  0  0  0  0
   47.3720  -11.5010  -16.4900 N   0  0  0  0  0  0
   46.9450  -12.1090  -17.6190 C   0  0  0  0  0  0
   46.9640  -11.5300  -18.8110 N   0  0  0  0  0  0
   46.5130  -13.3380  -17.5860 N   0  3  0  0  0  0
   45.7871  -19.3858   -7.1408 H   0  0  0  0  0  0
   46.1165  -20.4843   -4.9284 H   0  0  0  0  0  0
   48.1425  -19.6705   -0.9847 H   0  0  0  0  0  0
   47.5128  -18.0939   -1.5715 H   0  0  0  0  0  0
   49.1351  -18.6629   -2.0920 H   0  0  0  0  0  0
   48.6270  -17.2071   -3.6502 H   0  0  0  0  0  0
   48.9010  -15.1267   -5.8433 H   0  0  0  0  0  0
   46.6649  -15.5814   -9.8489 H   0  0  0  0  0  0
   45.8796  -14.8920  -11.6940 H   0  0  0  0  0  0
   46.0523  -13.5856  -13.7679 H   0  0  0  0  0  0
   49.2292  -12.8171  -10.0136 H   0  0  0  0  0  0
   49.3883  -11.4412  -12.0813 H   0  0  0  0  0  0
   47.6225   -9.5003  -14.6667 H   0  0  0  0  0  0
   48.5480   -9.8821  -13.1753 H   0  0  0  0  0  0
   50.4215  -10.7542  -14.5535 H   0  0  0  0  0  0
   49.4949  -10.3936  -16.0495 H   0  0  0  0  0  0
   51.1409   -8.5861  -15.5549 H   0  0  0  0  0  0
   50.3833   -8.3323  -13.9461 H   0  0  0  0  0  0
   49.4567   -7.9717  -15.4421 H   0  0  0  0  0  0
   47.7417  -10.4660  -16.5347 H   0  0  0  0  0  0
   47.3168  -10.4931  -18.9132 H   0  0  0  0  0  0
   46.6270  -12.0863  -19.6981 H   0  0  0  0  0  0
   46.4700  -13.8804  -16.6300 H   0  0  0  0  0  0
   46.1913  -13.8330  -18.5142 H   0  0  0  0  0  0
  1  2  2  0  0  0
  1 11  1  0  0  0
  2  3  1  0  0  0
  2  9  1  0  0  0
  3  4  2  0  0  0
  3 30  1  0  0  0
  4  5  1  0  0  0
  4 31  1  0  0  0
  5  6  1  0  0  0
  5  8  1  0  0  0
  6  7  1  0  0  0
  7 32  1  0  0  0
  7 33  1  0  0  0
  7 34  1  0  0  0
  8  9  2  0  0  0
  8 35  1  0  0  0
  9 10  1  0  0  0
 10 11  2  0  0  0
 10 36  1  0  0  0
 11 12  1  0  0  0
 12 13  2  0  0  0
 12 14  1  0  0  0
 14 15  1  0  0  0
 14 37  1  0  0  0
 15 16  2  0  0  0
 15 18  1  0  0  0
 16 17  1  0  0  0
 16 38  1  0  0  0
 17 20  2  0  0  0
 17 39  1  0  0  0
 18 19  2  0  0  0
 18 40  1  0  0  0
 19 20  1  0  0  0
 19 41  1  0  0  0
 20 21  1  0  0  0
 21 22  1  0  0  0
 21 25  2  0  0  0
 22 23  1  0  0  0
 22 42  1  0  0  0
 22 43  1  0  0  0
 23 24  1  0  0  0
 23 44  1  0  0  0
 23 45  1  0  0  0
 24 46  1  0  0  0
 24 47  1  0  0  0
 24 48  1  0  0  0
 25 26  1  0  0  0
 26 27  1  0  0  0
 26 49  1  0  0  0
 27 28  1  0  0  0
 27 29  2  0  0  0
 28 50  1  0  0  0
 28 51  1  0  0  0
 29 52  1  0  0  0
 29 53  1  0  0  0
M  CHG  1  29   1
M  END
> <s_m_source_file>
../2yit_ligand.sdf

> <i_m_source_file_index>
1

> <s_epik_input>
W0NIXTE9W0NIXVtDSF0oT1tDSDNdKVtDSF09QyhDMTIpW0NIXT1DKE49MilDKD1PKVtOSF1jM1tjSF1bY0hdYyhbY0hdW2NIXTMpL0MoW0NIMl1bQ0gyXVtDSDNdKT1OL1tOSF0vQyhbTkgyXSk9TlxbSF0=

> <s_epik_cmdline>
J2VwaWtfYXBwJywgJy1pbWFlJywgJ2xpZ2FuZF9wcm8ubWFlJywgJy1vbWFlJywgJ2xpZ2FuZF9wcmVwLm1hZScsICctbXMnLCAnMScsICctcGgnLCAnNycsICctcGh0JywgJzAuNScsICctbnQn

> <r_lp_tautomer_probability>
1

> <r_epik_Ionization_Penalty>
  0.0009

> <r_epik_Ionization_Penalty_Charging>
  0.0008

> <r_epik_Ionization_Penalty_Neutral>
  0.0001

> <r_epik_State_Penalty>
 -0.0000

> <r_epik_Charging_Adjusted_Penalty>
0.00079691672902126

> <i_epik_Tot_Q>
1

> <i_epik_Tot_abs_Q>
1

> <s_epik_Chemistry_Notes>
This compound has an imine and may undergo hydrolysis.

$$$$
