2yiu_ligand
                    3D
 Schrodinger Suite 2020-3.
 79 80  0  0  1  0            999 V2000
    3.5990  -39.4940  -40.1990 C   0  0  0  0  0  0
    3.1510  -38.8960  -41.3970 C   0  0  0  0  0  0
    2.5660  -39.7300  -42.5270 C   0  0  0  0  0  0
    3.2310  -37.5110  -41.5880 C   0  0  0  0  0  0
    3.8100  -36.7450  -40.5900 C   0  0  0  0  0  0
    4.0470  -35.3670  -40.7580 C   0  0  0  0  0  0
    4.3530  -33.3520  -42.0850 C   0  0  0  0  0  0
    4.6470  -34.6990  -39.6860 C   0  0  0  0  0  0
    5.0220  -35.3360  -38.5150 C   0  0  0  0  0  0
    5.7730  -33.1980  -37.5220 C   0  0  0  0  0  0
    4.7830  -36.6870  -38.3730 C   0  0  0  0  0  0
    4.1980  -37.3790  -39.4150 C   0  0  0  0  0  0
    3.6570  -41.0010  -39.8190 C   0  0  0  0  0  0
    2.3540  -41.6460  -39.3720 C   0  0  0  0  0  0
    2.5890  -42.9780  -38.5740 C   0  0  1  0  0  0
    1.2580  -43.6810  -38.2520 C   0  0  1  0  0  0
    0.1920  -42.9900  -37.3530 C   0  0  1  0  0  0
   -0.9770  -43.9330  -37.0680 C   0  0  2  0  0  0
   -1.9830  -43.0930  -36.6000 C   0  0  0  0  0  0
   -2.3660  -43.0760  -35.2590 C   0  0  0  0  0  0
   -3.3440  -42.1800  -34.8320 C   0  0  0  0  0  0
   -3.7530  -42.1510  -33.5010 C   0  0  0  0  0  0
   -4.7300  -41.2580  -33.0480 C   0  0  0  0  0  0
   -5.0970  -41.2760  -31.7290 C   0  0  0  0  0  0
   -6.1780  -40.2890  -31.3180 C   0  0  0  0  0  0
    3.4530  -44.0220  -39.2730 C   0  0  0  0  0  0
    0.4130  -45.3460  -39.6080 C   0  0  0  0  0  0
    0.7610  -42.5050  -36.0350 C   0  0  0  0  0  0
   -1.4910  -46.0120  -36.1170 C   0  0  0  0  0  0
   -5.4570  -40.2470  -33.9380 C   0  0  0  0  0  0
    4.0790  -38.6940  -39.2220 O   0  0  0  0  0  0
    2.8420  -36.9680  -42.6240 O   0  0  0  0  0  0
    3.6870  -34.6520  -41.9230 O   0  0  0  0  0  0
    5.6200  -34.6760  -37.4710 O   0  0  0  0  0  0
    5.1750  -37.3500  -37.2440 O   0  0  0  0  0  0
    0.7430  -43.9440  -39.5930 O   0  0  0  0  0  0
   -0.4990  -44.9720  -36.1340 O   0  0  0  0  0  0
    2.5664  -40.7912  -42.2376 H   0  0  0  0  0  0
    3.1744  -39.5970  -43.4338 H   0  0  0  0  0  0
    1.5343  -39.4047  -42.7266 H   0  0  0  0  0  0
    4.0084  -32.8769  -43.0153 H   0  0  0  0  0  0
    5.4419  -33.5011  -42.1310 H   0  0  0  0  0  0
    4.1072  -32.7051  -41.2300 H   0  0  0  0  0  0
    4.8278  -33.6279  -39.7762 H   0  0  0  0  0  0
    6.2704  -32.8490  -36.6050 H   0  0  0  0  0  0
    4.7811  -32.7293  -37.6022 H   0  0  0  0  0  0
    6.3807  -32.9223  -38.3965 H   0  0  0  0  0  0
    3.9958  -41.5853  -40.6872 H   0  0  0  0  0  0
    4.3603  -41.1421  -38.9851 H   0  0  0  0  0  0
    1.8059  -40.9508  -38.7191 H   0  0  0  0  0  0
    1.7402  -41.8819  -40.2538 H   0  0  0  0  0  0
    3.1289  -42.6588  -37.6703 H   0  0  0  0  0  0
    1.4562  -44.5776  -37.6463 H   0  0  0  0  0  0
   -0.1675  -42.1036  -37.8961 H   0  0  0  0  0  0
   -1.4511  -44.4833  -37.8941 H   0  0  0  0  0  0
   -2.4804  -42.4293  -37.3225 H   0  0  0  0  0  0
   -1.8965  -43.7678  -34.5441 H   0  0  0  0  0  0
   -3.7942  -41.4900  -35.5609 H   0  0  0  0  0  0
   -3.3051  -42.8432  -32.7728 H   0  0  0  0  0  0
   -4.6151  -41.9790  -31.0336 H   0  0  0  0  0  0
   -6.3849  -40.3983  -30.2432 H   0  0  0  0  0  0
   -7.0954  -40.4907  -31.8904 H   0  0  0  0  0  0
   -5.8357  -39.2639  -31.5231 H   0  0  0  0  0  0
    4.4261  -43.5790  -39.5316 H   0  0  0  0  0  0
    2.9489  -44.3606  -40.1902 H   0  0  0  0  0  0
    3.6073  -44.8795  -38.6015 H   0  0  0  0  0  0
    0.0151  -45.6185  -40.5967 H   0  0  0  0  0  0
   -0.3450  -45.5525  -38.8381 H   0  0  0  0  0  0
    1.3169  -45.9377  -39.4007 H   0  0  0  0  0  0
    1.6038  -41.8249  -36.2276 H   0  0  0  0  0  0
    1.1118  -43.3665  -35.4479 H   0  0  0  0  0  0
   -0.0196  -41.9715  -35.4728 H   0  0  0  0  0  0
   -1.1734  -46.8105  -35.4303 H   0  0  0  0  0  0
   -1.6072  -46.4244  -37.1301 H   0  0  0  0  0  0
   -2.4515  -45.5970  -35.7776 H   0  0  0  0  0  0
   -5.0789  -40.3267  -34.9679 H   0  0  0  0  0  0
   -5.2780  -39.2299  -33.5594 H   0  0  0  0  0  0
   -6.5365  -40.4579  -33.9263 H   0  0  0  0  0  0
    5.6408  -36.7969  -36.4151 H   0  0  0  0  0  0
  1  2  2  0  0  0
  1 13  1  0  0  0
  1 31  1  0  0  0
  2  3  1  0  0  0
  2  4  1  0  0  0
  3 38  1  0  0  0
  3 39  1  0  0  0
  3 40  1  0  0  0
  4  5  1  0  0  0
  4 32  2  0  0  0
  5  6  2  0  0  0
  5 12  1  0  0  0
  6  8  1  0  0  0
  6 33  1  0  0  0
  7 33  1  0  0  0
  7 41  1  0  0  0
  7 42  1  0  0  0
  7 43  1  0  0  0
  8  9  2  0  0  0
  8 44  1  0  0  0
  9 11  1  0  0  0
  9 34  1  0  0  0
 10 34  1  0  0  0
 10 45  1  0  0  0
 10 46  1  0  0  0
 10 47  1  0  0  0
 11 12  2  0  0  0
 11 35  1  0  0  0
 12 31  1  0  0  0
 13 14  1  0  0  0
 13 48  1  0  0  0
 13 49  1  0  0  0
 14 15  1  0  0  0
 14 50  1  0  0  0
 14 51  1  0  0  0
 15 16  1  0  0  0
 15 26  1  0  0  0
 15 52  1  0  0  0
 16 17  1  0  0  0
 16 36  1  0  0  0
 16 53  1  0  0  0
 17 18  1  0  0  0
 17 28  1  0  0  0
 17 54  1  0  0  0
 18 19  1  0  0  0
 18 37  1  0  0  0
 18 55  1  0  0  0
 19 20  2  0  0  0
 19 56  1  0  0  0
 20 21  1  0  0  0
 20 57  1  0  0  0
 21 22  2  0  0  0
 21 58  1  0  0  0
 22 23  1  0  0  0
 22 59  1  0  0  0
 23 24  2  0  0  0
 23 30  1  0  0  0
 24 25  1  0  0  0
 24 60  1  0  0  0
 25 61  1  0  0  0
 25 62  1  0  0  0
 25 63  1  0  0  0
 26 64  1  0  0  0
 26 65  1  0  0  0
 26 66  1  0  0  0
 27 36  1  0  0  0
 27 67  1  0  0  0
 27 68  1  0  0  0
 27 69  1  0  0  0
 28 70  1  0  0  0
 28 71  1  0  0  0
 28 72  1  0  0  0
 29 37  1  0  0  0
 29 73  1  0  0  0
 29 74  1  0  0  0
 29 75  1  0  0  0
 30 76  1  0  0  0
 30 77  1  0  0  0
 30 78  1  0  0  0
 35 79  1  0  0  0
M  END
> <s_m_source_file>
../2yiu_ligand.sdf

> <i_m_source_file_index>
1

> <s_epik_input>
W0NIM11PYzFbY0hdYyhPW0NIM10pYyhbT0hdKWMoYzEyKW9jKGMoW0NIM10pYzI9TylbQ0gyXVtDSDJdW0NASF0oW0NIM10pW0NASF0oT1tDSDNdKVtDQEhdKFtDSDNdKVtDQEBIXShPW0NIM10pL1tDSF09W0NIXS9bQ0hdPVtDSF0vQyhbQ0gzXSk9W0NIXS9bQ0gzXQ==

> <s_epik_cmdline>
J2VwaWtfYXBwJywgJy1pbWFlJywgJ2xpZ2FuZF9wcm8ubWFlJywgJy1vbWFlJywgJ2xpZ2FuZF9wcmVwLm1hZScsICctbXMnLCAnMScsICctcGgnLCAnNycsICctcGh0JywgJzAuNScsICctbnQn

> <r_lp_tautomer_probability>
1

> <r_epik_Ionization_Penalty>
  0.0015

> <r_epik_Ionization_Penalty_Charging>
  0.0000

> <r_epik_Ionization_Penalty_Neutral>
  0.0015

> <r_epik_State_Penalty>
 -0.0000

> <r_epik_Charging_Adjusted_Penalty>
0

> <i_epik_Tot_Q>
0

> <i_epik_Tot_abs_Q>
0

$$$$
