2yj2_ligand
                    3D
 Schrodinger Suite 2020-3.
 60 64  0  0  1  0            999 V2000
    8.1280   35.4980   20.9040 C   0  0  1  0  0  0
    8.2780   35.9250   19.5210 N   0  0  0  0  0  0
    9.2270   35.1110   18.7670 C   0  0  0  0  0  0
    9.4390   33.8950   19.6910 C   0  0  1  0  0  0
    9.2330   34.4600   21.1000 C   0  0  0  0  0  0
    8.2830   36.6220   21.9350 C   0  0  0  0  0  0
    9.3280   37.2880   22.0010 O   0  0  0  0  0  0
    8.3070   32.5750   19.4190 S   0  0  0  0  0  0
    8.6140   32.1140   17.7930 C   0  0  0  0  0  0
    9.7470   31.4530   17.3110 C   0  0  0  0  0  0
    9.8970   31.1290   15.9580 C   0  0  0  0  0  0
    8.9140   31.4980   15.0500 C   0  0  0  0  0  0
    7.7850   32.1680   15.4990 C   0  0  0  0  0  0
    7.6420   32.4630   16.8490 C   0  0  0  0  0  0
   10.9710   30.9680   18.3710 Cl  0  0  0  0  0  0
    7.2150   36.7800   22.7510 N   0  0  0  0  0  0
    7.1870   37.6420   23.8700 C   0  0  0  0  0  0
    7.7160   37.0690   25.1130 C   0  0  0  0  0  0
    7.3880   39.1470   23.5800 C   0  0  0  0  0  0
    6.0210   38.6370   23.8970 C   0  0  0  0  0  0
    7.3890   36.8000   18.9570 C   0  0  0  0  0  0
    6.4610   37.2130   19.6650 O   0  0  0  0  0  0
    7.5990   37.2070   17.5190 C   0  0  0  0  0  0
    8.9580   37.7700   17.2900 C   0  0  0  0  0  0
    9.3880   38.8640   18.0390 C   0  0  0  0  0  0
   10.6520   39.3960   17.8620 C   0  0  0  0  0  0
   11.5320   38.8050   16.9500 C   0  0  0  0  0  0
   11.1260   37.7000   16.2230 C   0  0  0  0  0  0
    9.8530   37.1700   16.3930 C   0  0  0  0  0  0
   13.3310   39.5250   16.7930 Br  0  0  0  0  0  0
    6.8900   36.3360   16.4880 C   0  0  0  0  0  0
    6.3960   37.7200   16.7750 C   0  0  0  0  0  0
    8.6470   31.5300   20.3400 O   0  0  0  0  0  0
    6.9910   33.1020   19.4810 O   0  0  0  0  0  0
    7.6920   37.6400   26.2590 N   0  0  0  0  0  0
    7.0998   35.1239   21.0178 H   0  0  0  0  0  0
    8.7856   34.8367   17.7975 H   0  0  0  0  0  0
   10.1506   35.6846   18.6002 H   0  0  0  0  0  0
   10.4843   33.5841   19.5474 H   0  0  0  0  0  0
   10.1348   34.9539   21.4910 H   0  0  0  0  0  0
    8.8949   33.6950   21.8145 H   0  0  0  0  0  0
   10.7813   30.5896   15.6188 H   0  0  0  0  0  0
    9.0282   31.2631   13.9918 H   0  0  0  0  0  0
    7.0097   32.4631   14.7920 H   0  0  0  0  0  0
    6.7442   32.9828   17.1834 H   0  0  0  0  0  0
    6.3281   36.1817   22.4953 H   0  0  0  0  0  0
    8.1595   36.0680   25.0064 H   0  0  0  0  0  0
    8.0898   39.5711   24.3132 H   0  0  0  0  0  0
    7.7957   39.2738   22.5662 H   0  0  0  0  0  0
    5.2693   38.3413   23.1504 H   0  0  0  0  0  0
    5.5634   38.6386   24.8973 H   0  0  0  0  0  0
    8.7176   39.3070   18.7755 H   0  0  0  0  0  0
   10.9612   40.2727   18.4312 H   0  0  0  0  0  0
   11.8112   37.2410   15.5103 H   0  0  0  0  0  0
    9.5501   36.2878   15.8290 H   0  0  0  0  0  0
    7.5947   36.0693   15.6866 H   0  0  0  0  0  0
    6.5222   35.4197   16.9728 H   0  0  0  0  0  0
    5.6005   37.9702   17.4923 H   0  0  0  0  0  0
    6.6729   38.6198   16.2060 H   0  0  0  0  0  0
    7.2485   38.6410   26.3656 H   0  0  0  0  0  0
  1  2  1  0  0  0
  1  5  1  0  0  0
  1  6  1  0  0  0
  1 36  1  0  0  0
  2  3  1  0  0  0
  2 21  1  0  0  0
  3  4  1  0  0  0
  3 37  1  0  0  0
  3 38  1  0  0  0
  4  5  1  0  0  0
  4  8  1  0  0  0
  4 39  1  0  0  0
  5 40  1  0  0  0
  5 41  1  0  0  0
  6  7  2  0  0  0
  6 16  1  0  0  0
  8  9  1  0  0  0
  8 33  2  0  0  0
  8 34  2  0  0  0
  9 10  2  0  0  0
  9 14  1  0  0  0
 10 11  1  0  0  0
 10 15  1  0  0  0
 11 12  2  0  0  0
 11 42  1  0  0  0
 12 13  1  0  0  0
 12 43  1  0  0  0
 13 14  2  0  0  0
 13 44  1  0  0  0
 14 45  1  0  0  0
 16 17  1  0  0  0
 16 46  1  0  0  0
 17 18  1  0  0  0
 17 19  1  0  0  0
 17 20  1  0  0  0
 18 35  2  0  0  0
 18 47  1  0  0  0
 19 20  1  0  0  0
 19 48  1  0  0  0
 19 49  1  0  0  0
 20 50  1  0  0  0
 20 51  1  0  0  0
 21 22  2  0  0  0
 21 23  1  0  0  0
 23 24  1  0  0  0
 23 31  1  0  0  0
 23 32  1  0  0  0
 24 25  2  0  0  0
 24 29  1  0  0  0
 25 26  1  0  0  0
 25 52  1  0  0  0
 26 27  2  0  0  0
 26 53  1  0  0  0
 27 28  1  0  0  0
 27 30  1  0  0  0
 28 29  2  0  0  0
 28 54  1  0  0  0
 29 55  1  0  0  0
 31 32  1  0  0  0
 31 56  1  0  0  0
 31 57  1  0  0  0
 32 58  1  0  0  0
 32 59  1  0  0  0
 35 60  1  0  0  0
M  END
> <s_m_source_file>
../2yj2_ligand.sdf

> <i_m_source_file_index>
1

> <s_epik_input>
W2NIXTFbY0hdYyhCcilbY0hdW2NIXWMxQzIoW0NIMl1bQ0gyXTIpQyg9TylOKFtDQEBIXTNDKD1PKVtOSF1DNCgvW0NIXT1OXFtIXSlbQ0gyXVtDSDJdNClbQ0gyXVtDQEBIXShbQ0gyXTMpUyg9TykoPU8pYzVjKENsKVtjSF1bY0hdW2NIXVtjSF01

> <s_epik_cmdline>
J2VwaWtfYXBwJywgJy1pbWFlJywgJ2xpZ2FuZF9wcm8ubWFlJywgJy1vbWFlJywgJ2xpZ2FuZF9wcmVwLm1hZScsICctbXMnLCAnMScsICctcGgnLCAnNycsICctcGh0JywgJzAuNScsICctbnQn

> <r_lp_tautomer_probability>
0.5

> <r_epik_Ionization_Penalty>
  0.1388

> <r_epik_Ionization_Penalty_Charging>
  0.0000

> <r_epik_Ionization_Penalty_Neutral>
  0.1388

> <r_epik_State_Penalty>
  0.4782

> <r_epik_Charging_Adjusted_Penalty>
0.478177744925303

> <i_epik_Tot_Q>
0

> <i_epik_Tot_abs_Q>
0

> <s_epik_Chemistry_Notes>
This compound has an imine and may undergo hydrolysis.

$$$$
