2yj8_ligand
                    3D
 Schrodinger Suite 2020-3.
 60 64  0  0  1  0            999 V2000
    8.2790   35.8240   20.9840 C   0  0  1  0  0  0
    8.4580   36.2440   19.6210 N   0  0  0  0  0  0
    9.4670   35.4420   18.9610 C   0  0  0  0  0  0
    9.6320   34.1740   19.8400 C   0  0  1  0  0  0
    9.3830   34.7680   21.2090 C   0  0  0  0  0  0
    8.4610   36.9540   22.0020 C   0  0  0  0  0  0
    9.5230   37.6170   22.1010 O   0  0  0  0  0  0
    8.5180   32.8680   19.5370 S   0  0  0  0  0  0
    8.8470   32.3860   17.9480 C   0  0  0  0  0  0
    9.9860   31.7590   17.5150 C   0  0  0  0  0  0
   10.1980   31.3980   16.1920 C   0  0  0  0  0  0
    9.2520   31.6850   15.2180 C   0  0  0  0  0  0
    8.0840   32.3350   15.6070 C   0  0  0  0  0  0
    7.8990   32.6720   16.9440 C   0  0  0  0  0  0
   11.2000   31.3400   18.5700 Cl  0  0  0  0  0  0
    7.3700   37.0780   22.8110 N   0  0  0  0  0  0
    7.3400   37.9010   23.9450 C   0  0  0  0  0  0
    7.8300   37.2730   25.1840 C   0  0  0  0  0  0
    7.5930   39.3910   23.7160 C   0  0  0  0  0  0
    6.2230   38.9320   24.0810 C   0  0  0  0  0  0
    7.5630   37.1040   19.0260 C   0  0  0  0  0  0
    6.6590   37.5590   19.7750 O   0  0  0  0  0  0
    7.7680   37.5270   17.5940 C   0  0  0  0  0  0
    9.1090   38.0830   17.3810 C   0  0  0  0  0  0
    9.5560   39.1540   18.1870 C   0  0  0  0  0  0
   10.8280   39.6460   17.9920 C   0  0  0  0  0  0
   11.6620   39.0610   17.0540 C   0  0  0  0  0  0
   11.2560   37.9880   16.2810 C   0  0  0  0  0  0
    9.9710   37.4800   16.4460 C   0  0  0  0  0  0
   13.5940   39.8320   16.8570 I   0  0  0  0  0  0
    7.0920   36.6500   16.5700 C   0  0  0  0  0  0
    6.6050   38.0510   16.8130 C   0  0  0  0  0  0
    8.8510   31.8500   20.4870 O   0  0  0  0  0  0
    7.1930   33.3490   19.6070 O   0  0  0  0  0  0
    7.7680   37.8560   26.3340 N   0  0  0  0  0  0
    7.2398   35.4736   21.0691 H   0  0  0  0  0  0
    9.1261   35.1856   17.9471 H   0  0  0  0  0  0
   10.4058   36.0120   18.8990 H   0  0  0  0  0  0
   10.6589   33.8003   19.7143 H   0  0  0  0  0  0
   10.2821   35.2576   21.6113 H   0  0  0  0  0  0
    9.0266   34.0115   21.9236 H   0  0  0  0  0  0
   11.1179   30.8832   15.9147 H   0  0  0  0  0  0
    9.4189   31.4090   14.1768 H   0  0  0  0  0  0
    7.3196   32.5782   14.8690 H   0  0  0  0  0  0
    6.9782   33.1809   17.2288 H   0  0  0  0  0  0
    6.4824   36.4899   22.5346 H   0  0  0  0  0  0
    8.2626   36.2651   25.1010 H   0  0  0  0  0  0
    8.3504   39.7482   24.4293 H   0  0  0  0  0  0
    7.9538   39.5480   22.6888 H   0  0  0  0  0  0
    5.4220   38.7017   23.3631 H   0  0  0  0  0  0
    5.8187   38.9018   25.1035 H   0  0  0  0  0  0
    8.9060   39.5833   18.9495 H   0  0  0  0  0  0
   11.1783   40.4966   18.5767 H   0  0  0  0  0  0
   11.9345   37.5458   15.5515 H   0  0  0  0  0  0
    9.6361   36.6254   15.8582 H   0  0  0  0  0  0
    7.8204   36.3580   15.7992 H   0  0  0  0  0  0
    6.6978   35.7487   17.0621 H   0  0  0  0  0  0
    5.7945   38.3275   17.5033 H   0  0  0  0  0  0
    6.9171   38.9368   16.2404 H   0  0  0  0  0  0
    7.3354   38.8639   26.4170 H   0  0  0  0  0  0
  1  2  1  0  0  0
  1  5  1  0  0  0
  1  6  1  0  0  0
  1 36  1  0  0  0
  2  3  1  0  0  0
  2 21  1  0  0  0
  3  4  1  0  0  0
  3 37  1  0  0  0
  3 38  1  0  0  0
  4  5  1  0  0  0
  4  8  1  0  0  0
  4 39  1  0  0  0
  5 40  1  0  0  0
  5 41  1  0  0  0
  6  7  2  0  0  0
  6 16  1  0  0  0
  8  9  1  0  0  0
  8 33  2  0  0  0
  8 34  2  0  0  0
  9 10  2  0  0  0
  9 14  1  0  0  0
 10 11  1  0  0  0
 10 15  1  0  0  0
 11 12  2  0  0  0
 11 42  1  0  0  0
 12 13  1  0  0  0
 12 43  1  0  0  0
 13 14  2  0  0  0
 13 44  1  0  0  0
 14 45  1  0  0  0
 16 17  1  0  0  0
 16 46  1  0  0  0
 17 18  1  0  0  0
 17 19  1  0  0  0
 17 20  1  0  0  0
 18 35  2  0  0  0
 18 47  1  0  0  0
 19 20  1  0  0  0
 19 48  1  0  0  0
 19 49  1  0  0  0
 20 50  1  0  0  0
 20 51  1  0  0  0
 21 22  2  0  0  0
 21 23  1  0  0  0
 23 24  1  0  0  0
 23 31  1  0  0  0
 23 32  1  0  0  0
 24 25  2  0  0  0
 24 29  1  0  0  0
 25 26  1  0  0  0
 25 52  1  0  0  0
 26 27  2  0  0  0
 26 53  1  0  0  0
 27 28  1  0  0  0
 27 30  1  0  0  0
 28 29  2  0  0  0
 28 54  1  0  0  0
 29 55  1  0  0  0
 31 32  1  0  0  0
 31 56  1  0  0  0
 31 57  1  0  0  0
 32 58  1  0  0  0
 32 59  1  0  0  0
 35 60  1  0  0  0
M  END
> <s_m_source_file>
../2yj8_ligand.sdf

> <i_m_source_file_index>
1

> <s_epik_input>
W2NIXTFbY0hdYyhJKVtjSF1bY0hdYzFDMihbQ0gyXVtDSDJdMilDKD1PKU4oW0NAQEhdM0MoPU8pW05IXUM0KC9bQ0hdPU5cW0hdKVtDSDJdW0NIMl00KVtDSDJdW0NAQEhdKFtDSDJdMylTKD1PKSg9TyljNWMoQ2wpW2NIXVtjSF1bY0hdW2NIXTU=

> <s_epik_cmdline>
J2VwaWtfYXBwJywgJy1pbWFlJywgJ2xpZ2FuZF9wcm8ubWFlJywgJy1vbWFlJywgJ2xpZ2FuZF9wcmVwLm1hZScsICctbXMnLCAnMScsICctcGgnLCAnNycsICctcGh0JywgJzAuNScsICctbnQn

> <r_lp_tautomer_probability>
0.5

> <r_epik_Ionization_Penalty>
  0.1387

> <r_epik_Ionization_Penalty_Charging>
  0.0000

> <r_epik_Ionization_Penalty_Neutral>
  0.1387

> <r_epik_State_Penalty>
  0.4782

> <r_epik_Charging_Adjusted_Penalty>
0.47815496883597

> <i_epik_Tot_Q>
0

> <i_epik_Tot_abs_Q>
0

> <s_epik_Chemistry_Notes>
This compound has an imine and may undergo hydrolysis.

$$$$
