2yjb_ligand
                    3D
 Schrodinger Suite 2020-3.
 63 67  0  0  1  0            999 V2000
    8.9810    7.4670  -14.6280 C   0  0  1  0  0  0
    9.1500    8.5310  -13.5200 C   0  0  0  0  0  0
    8.0790    8.6320  -12.6640 N   0  0  0  0  0  0
    7.9600    9.4540  -11.5090 C   0  0  0  0  0  0
    8.3140    8.7210  -10.2890 C   0  0  0  0  0  0
   10.2070    9.1810  -13.4370 O   0  0  0  0  0  0
    8.2590   10.9440  -11.5870 C   0  0  0  0  0  0
    6.8430   10.4850  -11.4400 C   0  0  0  0  0  0
    8.1860    9.1950   -9.0740 N   0  0  0  0  0  0
    9.1670    7.9510  -15.9800 N   0  0  0  0  0  0
   10.1260    7.1370  -16.6890 C   0  0  0  0  0  0
   10.3080    5.8760  -15.8670 C   0  0  1  0  0  0
   10.0610    6.3780  -14.4550 C   0  0  0  0  0  0
    9.2020    4.6190  -16.3100 S   0  0  0  0  0  0
    9.6580    4.2220  -17.9030 C   0  0  0  0  0  0
   10.8200    3.5750  -18.3060 C   0  0  0  0  0  0
   11.1430    3.2760  -19.6200 C   0  0  0  0  0  0
   10.2210    3.6170  -20.5990 C   0  0  0  0  0  0
    9.0380    4.2400  -20.2390 C   0  0  0  0  0  0
    8.7640    4.5370  -18.9200 C   0  0  0  0  0  0
   11.9840    3.1430  -17.1740 Cl  0  0  0  0  0  0
    9.5220    3.5150  -15.4790 O   0  0  0  0  0  0
    7.8900    5.1110  -16.2790 O   0  0  0  0  0  0
    8.3010    8.8480  -16.5480 C   0  0  0  0  0  0
    7.3470    9.2850  -15.8850 O   0  0  0  0  0  0
    7.9310    8.3830  -19.0280 C   0  0  0  0  0  0
    8.5260    9.2770  -17.9710 C   0  0  0  0  0  0
    7.3200    9.7260  -18.7440 C   0  0  0  0  0  0
   11.9960   10.0790  -19.3600 C   0  0  0  0  0  0
   12.4370   10.9640  -18.3800 C   0  0  0  0  0  0
   11.6190   11.2890  -17.3140 C   0  0  0  0  0  0
   10.3520   10.7270  -17.1920 C   0  0  0  0  0  0
    9.8710    9.8530  -18.1650 C   0  0  0  0  0  0
   10.7140    9.5110  -19.2400 C   0  0  0  0  0  0
   13.8160   11.6040  -18.4220 C   0  0  0  0  0  0
   14.1170   12.4030  -17.3690 F   0  0  0  0  0  0
   14.8310   10.7370  -18.4340 F   0  0  0  0  0  0
   14.0300   12.3700  -19.4870 F   0  0  0  0  0  0
    7.9345    7.1323  -14.5762 H   0  0  0  0  0  0
    7.2474    7.9756  -12.9600 H   0  0  0  0  0  0
    8.7109    7.7070  -10.4448 H   0  0  0  0  0  0
    8.9202   11.2293  -10.7555 H   0  0  0  0  0  0
    8.7542   11.1691  -12.5431 H   0  0  0  0  0  0
    6.1420   10.3223  -12.2719 H   0  0  0  0  0  0
    6.3080   10.3826  -10.4844 H   0  0  0  0  0  0
    7.7891   10.2090   -8.9182 H   0  0  0  0  0  0
    9.7375    6.9015  -17.6908 H   0  0  0  0  0  0
   11.0745    7.6861  -16.7833 H   0  0  0  0  0  0
   11.3484    5.5330  -15.9666 H   0  0  0  0  0  0
   10.9630    6.8236  -14.0103 H   0  0  0  0  0  0
    9.6799    5.5852  -13.7945 H   0  0  0  0  0  0
   12.0855    2.7914  -19.8747 H   0  0  0  0  0  0
   10.4268    3.3956  -21.6462 H   0  0  0  0  0  0
    8.3121    4.4997  -21.0096 H   0  0  0  0  0  0
    7.8248    5.0301  -18.6694 H   0  0  0  0  0  0
    8.6838    8.1820  -19.8044 H   0  0  0  0  0  0
    7.6143    7.4343  -18.5701 H   0  0  0  0  0  0
    7.3464   10.3410  -19.6556 H   0  0  0  0  0  0
    6.2768    9.5934  -18.4212 H   0  0  0  0  0  0
   12.6342    9.8297  -20.2077 H   0  0  0  0  0  0
   11.9706   11.9936  -16.5604 H   0  0  0  0  0  0
    9.7317   10.9719  -16.3298 H   0  0  0  0  0  0
   10.3692    8.7975  -19.9884 H   0  0  0  0  0  0
  1  2  1  0  0  0
  1 10  1  0  0  0
  1 13  1  0  0  0
  1 39  1  0  0  0
  2  3  1  0  0  0
  2  6  2  0  0  0
  3  4  1  0  0  0
  3 40  1  0  0  0
  4  5  1  0  0  0
  4  7  1  0  0  0
  4  8  1  0  0  0
  5  9  2  0  0  0
  5 41  1  0  0  0
  7  8  1  0  0  0
  7 42  1  0  0  0
  7 43  1  0  0  0
  8 44  1  0  0  0
  8 45  1  0  0  0
  9 46  1  0  0  0
 10 11  1  0  0  0
 10 24  1  0  0  0
 11 12  1  0  0  0
 11 47  1  0  0  0
 11 48  1  0  0  0
 12 13  1  0  0  0
 12 14  1  0  0  0
 12 49  1  0  0  0
 13 50  1  0  0  0
 13 51  1  0  0  0
 14 15  1  0  0  0
 14 22  2  0  0  0
 14 23  2  0  0  0
 15 16  2  0  0  0
 15 20  1  0  0  0
 16 17  1  0  0  0
 16 21  1  0  0  0
 17 18  2  0  0  0
 17 52  1  0  0  0
 18 19  1  0  0  0
 18 53  1  0  0  0
 19 20  2  0  0  0
 19 54  1  0  0  0
 20 55  1  0  0  0
 24 25  2  0  0  0
 24 27  1  0  0  0
 26 27  1  0  0  0
 26 28  1  0  0  0
 26 56  1  0  0  0
 26 57  1  0  0  0
 27 28  1  0  0  0
 27 33  1  0  0  0
 28 58  1  0  0  0
 28 59  1  0  0  0
 29 30  2  0  0  0
 29 34  1  0  0  0
 29 60  1  0  0  0
 30 31  1  0  0  0
 30 35  1  0  0  0
 31 32  2  0  0  0
 31 61  1  0  0  0
 32 33  1  0  0  0
 32 62  1  0  0  0
 33 34  2  0  0  0
 34 63  1  0  0  0
 35 36  1  0  0  0
 35 37  1  0  0  0
 35 38  1  0  0  0
M  END
> <s_m_source_file>
../2yjb_ligand.sdf

> <i_m_source_file_index>
1

> <s_epik_input>
RkMoRikoRiljMVtjSF1bY0hdYyhbY0hdW2NIXTEpQzIoW0NIMl1bQ0gyXTIpQyg9TylOKFtDQEBIXTNDKD1PKVtOSF1DNCgvW0NIXT1OXFtIXSlbQ0gyXVtDSDJdNClbQ0gyXVtDQEBIXShbQ0gyXTMpUyg9TykoPU8pYzVjKENsKVtjSF1bY0hdW2NIXVtjSF01

> <s_epik_cmdline>
J2VwaWtfYXBwJywgJy1pbWFlJywgJ2xpZ2FuZF9wcm8ubWFlJywgJy1vbWFlJywgJ2xpZ2FuZF9wcmVwLm1hZScsICctbXMnLCAnMScsICctcGgnLCAnNycsICctcGh0JywgJzAuNScsICctbnQn

> <r_lp_tautomer_probability>
0.5

> <r_epik_Ionization_Penalty>
  0.1399

> <r_epik_Ionization_Penalty_Charging>
  0.0000

> <r_epik_Ionization_Penalty_Neutral>
  0.1399

> <r_epik_State_Penalty>
  0.4788

> <r_epik_Charging_Adjusted_Penalty>
0.478795449636245

> <i_epik_Tot_Q>
0

> <i_epik_Tot_abs_Q>
0

> <s_epik_Chemistry_Notes>
This compound has an imine and may undergo hydrolysis.

$$$$
