2yjc_ligand
                    3D
 Schrodinger Suite 2020-3.
 60 64  0  0  1  0            999 V2000
    8.4290   32.9700   19.4430 S   0  0  0  0  0  0
    8.5100   36.3610   19.5850 N   0  0  0  0  0  0
   11.0140   31.3330   18.3710 Cl  0  0  0  0  0  0
    8.0660   37.8340   17.6890 C   0  0  0  0  0  0
   13.5670   40.1270   17.1090 Cl  0  0  0  0  0  0
    9.6380   34.2780   19.7540 C   0  0  1  0  0  0
    7.8100   37.3830   19.0890 C   0  0  0  0  0  0
    8.2870   35.8810   20.9370 C   0  0  1  0  0  0
    8.6850   32.4980   17.7470 C   0  0  0  0  0  0
    9.4880   35.5340   18.8550 C   0  0  0  0  0  0
    9.3690   34.8110   21.1830 C   0  0  0  0  0  0
    8.4580   36.9300   21.9960 C   0  0  0  0  0  0
    7.4280   37.0230   16.5610 C   0  0  0  0  0  0
    6.8840   38.4120   16.9210 C   0  0  0  0  0  0
    7.4100   37.9140   23.9920 C   0  0  0  0  0  0
    7.4130   37.0330   22.8380 N   0  0  0  0  0  0
    7.9010   37.2620   25.2250 C   0  0  0  0  0  0
    7.8680   37.8280   26.3960 N   0  0  0  0  0  0
    9.4430   38.4020   17.4930 C   0  0  0  0  0  0
    8.7830   31.8780   20.3040 O   0  0  0  0  0  0
    7.1130   33.5310   19.4330 O   0  0  0  0  0  0
    7.6410   39.4080   23.7770 C   0  0  0  0  0  0
    6.2260   38.8860   24.0880 C   0  0  0  0  0  0
    7.0100   37.9600   19.7990 O   0  0  0  0  0  0
    9.7910   31.8210   17.2970 C   0  0  0  0  0  0
    9.4960   37.5960   22.1360 O   0  0  0  0  0  0
   10.3550   37.7690   16.6610 C   0  0  0  0  0  0
    9.7980   39.5450   18.1940 C   0  0  0  0  0  0
   11.9800   39.4360   17.2400 C   0  0  0  0  0  0
    7.7330   32.8680   16.8310 C   0  0  0  0  0  0
   11.6260   38.3030   16.5150 C   0  0  0  0  0  0
   11.0630   40.0680   18.0680 C   0  0  0  0  0  0
    9.9450   31.4670   15.9640 C   0  0  0  0  0  0
    7.8810   32.5290   15.5010 C   0  0  0  0  0  0
    8.9830   31.8360   15.0470 C   0  0  0  0  0  0
   10.6842   33.9689   19.6133 H   0  0  0  0  0  0
    7.2371   35.5545   20.9704 H   0  0  0  0  0  0
    9.0915   35.2916   17.8580 H   0  0  0  0  0  0
   10.4315   36.0895   18.7492 H   0  0  0  0  0  0
    9.0189   33.9868   21.8219 H   0  0  0  0  0  0
   10.2975   35.2287   21.5994 H   0  0  0  0  0  0
    8.1803   36.8198   15.7847 H   0  0  0  0  0  0
    7.0492   36.0715   16.9624 H   0  0  0  0  0  0
    6.0540   38.6054   17.6166 H   0  0  0  0  0  0
    7.1852   39.3537   16.4388 H   0  0  0  0  0  0
    6.5331   36.4102   22.6192 H   0  0  0  0  0  0
    8.3097   36.2466   25.1163 H   0  0  0  0  0  0
    7.4593   38.8434   26.5047 H   0  0  0  0  0  0
    8.3565   39.7798   24.5252 H   0  0  0  0  0  0
    8.0458   39.5750   22.7679 H   0  0  0  0  0  0
    5.4703   38.6188   23.3347 H   0  0  0  0  0  0
    5.7809   38.8237   25.0920 H   0  0  0  0  0  0
   10.0750   36.8608   16.1274 H   0  0  0  0  0  0
    9.0719   40.0298   18.8466 H   0  0  0  0  0  0
    6.8575   33.4311   17.1542 H   0  0  0  0  0  0
   12.3423   37.8386   15.8373 H   0  0  0  0  0  0
   11.3429   40.9697   18.6127 H   0  0  0  0  0  0
   10.8200   30.9013   15.6439 H   0  0  0  0  0  0
    7.1059   32.8169   14.7908 H   0  0  0  0  0  0
    9.0912   31.5864   13.9915 H   0  0  0  0  0  0
  1  6  1  0  0  0
  1  9  1  0  0  0
  1 20  2  0  0  0
  1 21  2  0  0  0
  2  7  1  0  0  0
  2  8  1  0  0  0
  2 10  1  0  0  0
  3 25  1  0  0  0
  4  7  1  0  0  0
  4 13  1  0  0  0
  4 14  1  0  0  0
  4 19  1  0  0  0
  5 29  1  0  0  0
  6 10  1  0  0  0
  6 11  1  0  0  0
  6 36  1  0  0  0
  7 24  2  0  0  0
  8 11  1  0  0  0
  8 12  1  0  0  0
  8 37  1  0  0  0
  9 25  2  0  0  0
  9 30  1  0  0  0
 10 38  1  0  0  0
 10 39  1  0  0  0
 11 40  1  0  0  0
 11 41  1  0  0  0
 12 16  1  0  0  0
 12 26  2  0  0  0
 13 14  1  0  0  0
 13 42  1  0  0  0
 13 43  1  0  0  0
 14 44  1  0  0  0
 14 45  1  0  0  0
 15 16  1  0  0  0
 15 17  1  0  0  0
 15 22  1  0  0  0
 15 23  1  0  0  0
 16 46  1  0  0  0
 17 18  2  0  0  0
 17 47  1  0  0  0
 18 48  1  0  0  0
 19 27  2  0  0  0
 19 28  1  0  0  0
 22 23  1  0  0  0
 22 49  1  0  0  0
 22 50  1  0  0  0
 23 51  1  0  0  0
 23 52  1  0  0  0
 25 33  1  0  0  0
 27 31  1  0  0  0
 27 53  1  0  0  0
 28 32  2  0  0  0
 28 54  1  0  0  0
 29 31  2  0  0  0
 29 32  1  0  0  0
 30 34  2  0  0  0
 30 55  1  0  0  0
 31 56  1  0  0  0
 32 57  1  0  0  0
 33 35  2  0  0  0
 33 58  1  0  0  0
 34 35  1  0  0  0
 34 59  1  0  0  0
 35 60  1  0  0  0
M  END
> <s_m_source_file>
../2yjc_ligand.sdf

> <i_m_source_file_index>
1

> <s_epik_input>
W2NIXTFbY0hdW2NIXVtjSF1jKENsKWMxUyg9TykoPU8pW0NAQEhdKFtDSDJdMilbQ0gyXVtDQEBIXShDKD1PKVtOSF1DMygvW0NIXT1OXFtIXSlbQ0gyXVtDSDJdMylOMkMoPU8pQzQoW0NIMl1bQ0gyXTQpYzVbY0hdW2NIXWMoQ2wpW2NIXVtjSF01

> <s_epik_cmdline>
J2VwaWtfYXBwJywgJy1pbWFlJywgJ2xpZ2FuZF9wcm8ubWFlJywgJy1vbWFlJywgJ2xpZ2FuZF9wcmVwLm1hZScsICctbXMnLCAnMScsICctcGgnLCAnNycsICctcGh0JywgJzAuNScsICctbnQn

> <r_lp_tautomer_probability>
0.5

> <r_epik_Ionization_Penalty>
  0.1387

> <r_epik_Ionization_Penalty_Charging>
  0.0000

> <r_epik_Ionization_Penalty_Neutral>
  0.1387

> <r_epik_State_Penalty>
  0.4782

> <r_epik_Charging_Adjusted_Penalty>
0.47815496883597

> <i_epik_Tot_Q>
0

> <i_epik_Tot_abs_Q>
0

> <s_epik_Chemistry_Notes>
This compound has an imine and may undergo hydrolysis.

$$$$
