2yjq_ligand
                    3D
 Schrodinger Suite 2020-3.
 63 65  0  0  1  0            999 V2000
   12.3840  -24.1220   12.3620 C   0  0  0  0  0  0
   12.8440  -25.5200   11.9400 C   0  0  2  0  0  0
   14.3950  -25.7150   11.9840 C   0  0  2  0  0  0
   14.8370  -27.0570   11.4010 C   0  0  1  0  0  0
   14.2970  -27.2940    9.9620 C   0  0  0  0  0  0
   13.0750  -23.1640   11.5160 O   0  0  0  0  0  0
   12.4930  -25.6950   10.5610 O   0  0  0  0  0  0
   14.8410  -25.6310   13.3380 O   0  0  0  0  0  0
   16.2760  -27.2530   11.4410 O   0  0  0  0  0  0
   12.8670  -26.9110    9.9740 N   0  0  1  0  0  0
   16.0740  -24.2390   14.9090 C   0  0  2  0  0  0
   17.4230  -23.6090   15.2250 C   0  0  2  0  0  0
   18.4820  -24.7140   15.2030 C   0  0  1  0  0  0
   18.4210  -25.6250   13.9800 C   0  0  1  0  0  0
   19.3160  -26.8360   14.1700 C   0  0  0  0  0  0
   16.1340  -25.0090   13.5740 C   0  0  1  0  0  0
   15.0670  -23.2310   14.8120 O   0  0  0  0  0  0
   17.3630  -23.2110   16.5930 O   0  0  0  0  0  0
   19.7460  -24.1800   15.1250 O   0  0  0  0  0  0
   17.0810  -26.0790   13.7470 O   0  0  0  0  0  0
   19.2080  -27.5500   12.9320 O   0  0  0  0  0  0
   21.9130  -23.7940   15.8750 C   0  0  2  0  0  0
   22.8480  -23.7740   17.1070 C   0  0  2  0  0  0
   22.2100  -23.0390   18.2740 C   0  0  1  0  0  0
   20.8510  -23.6740   18.5120 C   0  0  1  0  0  0
   20.2820  -23.0830   19.7980 C   0  0  0  0  0  0
   20.5610  -24.3310   16.2790 C   0  0  1  0  0  0
   22.4420  -24.5910   14.8060 O   0  0  0  0  0  0
   24.0730  -23.1230   16.8200 O   0  0  0  0  0  0
   23.0090  -23.3270   19.4160 O   0  0  0  0  0  0
   20.1000  -23.4680   17.3040 O   0  0  0  0  0  0
   19.1000  -22.3200   19.5760 O   0  0  0  0  0  0
   11.2953  -24.0386   12.2290 H   0  0  0  0  0  0
   12.6380  -23.9560   13.4193 H   0  0  0  0  0  0
   12.3227  -26.2442   12.5832 H   0  0  0  0  0  0
   14.8985  -24.9077   11.4319 H   0  0  0  0  0  0
   14.4516  -27.8237   12.0892 H   0  0  0  0  0  0
   14.8619  -26.6728    9.2514 H   0  0  0  0  0  0
   14.4152  -28.3548    9.6961 H   0  0  0  0  0  0
   12.8949  -22.0865   11.6445 H   0  0  0  0  0  0
   16.8225  -27.1245   12.3869 H   0  0  0  0  0  0
   12.6125  -26.8168    8.9908 H   0  0  0  0  0  0
   15.7732  -24.8886   15.7442 H   0  0  0  0  0  0
   17.6464  -22.7558   14.5677 H   0  0  0  0  0  0
   18.3749  -25.2556   16.1544 H   0  0  0  0  0  0
   18.7119  -25.0538   13.0861 H   0  0  0  0  0  0
   20.3460  -26.5035   14.3665 H   0  0  0  0  0  0
   18.9536  -27.4297   15.0221 H   0  0  0  0  0  0
   16.4092  -24.3840   12.7117 H   0  0  0  0  0  0
   14.8677  -22.5685   15.6672 H   0  0  0  0  0  0
   16.6703  -22.4153   16.9044 H   0  0  0  0  0  0
   19.7641  -28.4881   12.7878 H   0  0  0  0  0  0
   21.8272  -22.7871   15.4405 H   0  0  0  0  0  0
   23.1115  -24.8082   17.3735 H   0  0  0  0  0  0
   22.1587  -21.9492   18.1340 H   0  0  0  0  0  0
   20.8212  -24.7668   18.6341 H   0  0  0  0  0  0
   20.0324  -23.8957   20.4959 H   0  0  0  0  0  0
   21.0292  -22.4204   20.2590 H   0  0  0  0  0  0
   20.5101  -25.3702   16.6361 H   0  0  0  0  0  0
   23.4255  -24.3511   14.3758 H   0  0  0  0  0  0
   24.7118  -23.4885   16.0025 H   0  0  0  0  0  0
   24.0457  -22.9630   19.4679 H   0  0  0  0  0  0
   18.5889  -21.8387   20.4228 H   0  0  0  0  0  0
  1  2  1  0  0  0
  1  6  1  0  0  0
  1 33  1  0  0  0
  1 34  1  0  0  0
  2  3  1  0  0  0
  2  7  1  0  0  0
  2 35  1  0  0  0
  3  4  1  0  0  0
  3  8  1  0  0  0
  3 36  1  0  0  0
  4  5  1  0  0  0
  4  9  1  0  0  0
  4 37  1  0  0  0
  5 10  1  0  0  0
  5 38  1  0  0  0
  5 39  1  0  0  0
  6 40  1  0  0  0
  7 10  1  0  0  0
  8 16  1  0  0  0
  9 41  1  0  0  0
 10 42  1  0  0  0
 11 12  1  0  0  0
 11 16  1  0  0  0
 11 17  1  0  0  0
 11 43  1  0  0  0
 12 13  1  0  0  0
 12 18  1  0  0  0
 12 44  1  0  0  0
 13 14  1  0  0  0
 13 19  1  0  0  0
 13 45  1  0  0  0
 14 15  1  0  0  0
 14 20  1  0  0  0
 14 46  1  0  0  0
 15 21  1  0  0  0
 15 47  1  0  0  0
 15 48  1  0  0  0
 16 20  1  0  0  0
 16 49  1  0  0  0
 17 50  1  0  0  0
 18 51  1  0  0  0
 19 27  1  0  0  0
 21 52  1  0  0  0
 22 23  1  0  0  0
 22 27  1  0  0  0
 22 28  1  0  0  0
 22 53  1  0  0  0
 23 24  1  0  0  0
 23 29  1  0  0  0
 23 54  1  0  0  0
 24 25  1  0  0  0
 24 30  1  0  0  0
 24 55  1  0  0  0
 25 26  1  0  0  0
 25 31  1  0  0  0
 25 56  1  0  0  0
 26 32  1  0  0  0
 26 57  1  0  0  0
 26 58  1  0  0  0
 27 31  1  0  0  0
 27 59  1  0  0  0
 28 60  1  0  0  0
 29 61  1  0  0  0
 30 62  1  0  0  0
 32 63  1  0  0  0
M  END
> <s_m_source_file>
../2yjq_ligand.sdf

> <i_m_source_file_index>
1

> <s_epik_input>
TzFbTkgyK11bQ0gyXVtDQEBIXShbT0hdKVtDQEBIXShbQ0BIXTFbQ0gyXVtPSF0pT1tDQEBIXTJPW0NASF0oW0NIMl1bT0hdKVtDQEhdKFtDQEhdKFtPSF0pW0NASF0yW09IXSlPW0NAQEhdM09bQ0BIXShbQ0gyXVtPSF0pW0NAQEhdKFtPSF0pW0NASF0oW09IXSlbQ0BIXTNbT0hd

> <s_epik_cmdline>
J2VwaWtfYXBwJywgJy1pbWFlJywgJ2xpZ2FuZF9wcm8ubWFlJywgJy1vbWFlJywgJ2xpZ2FuZF9wcmVwLm1hZScsICctbXMnLCAnMScsICctcGgnLCAnNycsICctcGh0JywgJzAuNScsICctbnQn

> <r_lp_tautomer_probability>
1

> <r_epik_Ionization_Penalty>
  0.0007

> <r_epik_Ionization_Penalty_Charging>
  0.0000

> <r_epik_Ionization_Penalty_Neutral>
  0.0007

> <r_epik_State_Penalty>
 -0.0000

> <r_epik_Charging_Adjusted_Penalty>
0

> <i_epik_Tot_Q>
0

> <i_epik_Tot_abs_Q>
0

> <s_epik_Chemistry_Notes>
This compound contains an acetal/aminal-like group ( X-CH(R)-Y where X, Y are N, S, or O) that may be acid/base labile, releasing an aldehyde. This compound has a N-S or N-O group and may undergo hydrolysis at high or low pH.

$$$$
