2yk9_ligand
                    3D
 Schrodinger Suite 2020-3.
 35 39  0  0  1  0            999 V2000
    8.5650   10.3360   23.4420 C   0  0  0  0  0  0
    7.4890    9.7420   22.7970 C   0  0  0  0  0  0
    8.4020   11.5240   24.1480 C   0  0  0  0  0  0
    6.2270   10.3040   22.8680 C   0  0  0  0  0  0
   11.5690   14.6830   28.1450 C   0  0  0  0  0  0
   12.8560   14.7080   27.6500 C   0  0  0  0  0  0
   12.1460   14.4460   25.4870 C   0  0  0  0  0  0
    7.1370   12.1100   24.2230 C   0  0  0  0  0  0
    6.0390   11.4810   23.5950 C   0  0  0  0  0  0
   10.5450   14.5280   27.2130 C   0  0  0  0  0  0
   10.8000   14.3880   25.8500 C   0  0  0  0  0  0
    8.6590   14.3160   26.0820 C   0  0  0  0  0  0
    6.6390   13.3040   24.9400 C   0  0  0  0  0  0
    4.7970   12.2440   23.8900 C   0  0  0  0  0  0
    7.2080   14.2690   25.7920 C   0  0  0  0  0  0
    6.4000   15.2490   26.3950 C   0  0  0  0  0  0
    5.0280   15.2860   26.1720 C   0  0  0  0  0  0
    4.4410   14.3620   25.3290 C   0  0  0  0  0  0
   13.1530   14.5980   26.3500 N   0  3  0  0  0  0
    9.1650   14.4930   27.3340 N   0  0  0  0  0  0
    5.2310   13.3810   24.7390 C   0  0  0  0  0  0
    9.6050   14.2430   25.1550 N   0  3  0  0  0  0
    3.6480   11.9920   23.5050 O   0  0  0  0  0  0
    9.5478    9.8670   23.3950 H   0  0  0  0  0  0
    7.6399    8.8239   22.2291 H   0  0  0  0  0  0
    9.2549   11.9932   24.6384 H   0  0  0  0  0  0
    5.3860    9.8317   22.3604 H   0  0  0  0  0  0
   11.3634   14.7796   29.2111 H   0  0  0  0  0  0
   13.6772   14.8238   28.3574 H   0  0  0  0  0  0
   12.3915   14.3616   24.4284 H   0  0  0  0  0  0
    6.8568   15.9923   27.0483 H   0  0  0  0  0  0
    4.4160   16.0434   26.6619 H   0  0  0  0  0  0
    3.3703   14.4014   25.1285 H   0  0  0  0  0  0
    9.6167   14.1048   24.0638 H   0  0  0  0  0  0
   14.2019   14.6340   26.0205 H   0  0  0  0  0  0
  1  2  2  0  0  0
  1  3  1  0  0  0
  1 24  1  0  0  0
  2  4  1  0  0  0
  2 25  1  0  0  0
  3  8  2  0  0  0
  3 26  1  0  0  0
  4  9  2  0  0  0
  4 27  1  0  0  0
  5  6  2  0  0  0
  5 10  1  0  0  0
  5 28  1  0  0  0
  6 19  1  0  0  0
  6 29  1  0  0  0
  7 11  1  0  0  0
  7 19  2  0  0  0
  7 30  1  0  0  0
  8  9  1  0  0  0
  8 13  1  0  0  0
  9 14  1  0  0  0
 10 11  2  0  0  0
 10 20  1  0  0  0
 11 22  1  0  0  0
 12 15  1  0  0  0
 12 20  2  0  0  0
 12 22  1  0  0  0
 13 15  2  0  0  0
 13 21  1  0  0  0
 14 21  1  0  0  0
 14 23  2  0  0  0
 15 16  1  0  0  0
 16 17  2  0  0  0
 16 31  1  0  0  0
 17 18  1  0  0  0
 17 32  1  0  0  0
 18 21  2  0  0  0
 18 33  1  0  0  0
 19 35  1  0  0  0
 22 34  1  0  0  0
M  CHG  2  19   1  22   1
M  END
> <s_m_source_file>
../2yk9_ligand.sdf

> <i_m_source_file_index>
1

> <s_epik_input>
W2NIXTFbY0hdW2NIXVtjSF1jKGMxMilDKD1PKWMzYzJjKFtjSF1bY0hdW2NIXTMpLWMobjQpW25IXWMoYzQ1KVtjSF1uW2NIXVtjSF01

> <s_epik_cmdline>
J2VwaWtfYXBwJywgJy1pbWFlJywgJ2xpZ2FuZF9wcm8ubWFlJywgJy1vbWFlJywgJ2xpZ2FuZF9wcmVwLm1hZScsICctbXMnLCAnMScsICctcGgnLCAnNycsICctcGh0JywgJzAuNScsICctbnQn

> <r_epik_Ionization_Penalty>
  7.5157

> <r_epik_Ionization_Penalty_Charging>
  0.0580

> <r_epik_Ionization_Penalty_Neutral>
  7.4578

> <r_epik_State_Penalty>
  0.2394

> <r_epik_Charging_Adjusted_Penalty>
0.297367661651929

> <i_epik_Tot_Q>
2

> <i_epik_Tot_abs_Q>
2

> <s_epik_Chemistry_Notes>
This compound has an imine and may undergo hydrolysis.

$$$$
