2ykj_ligand
                    3D
 Schrodinger Suite 2020-3.
 51 56  0  0  1  0            999 V2000
   13.1630   14.5080   26.3330 C   0  0  0  0  0  0
   12.9200   14.6840   27.6900 N   0  3  0  0  0  0
   11.5990   14.7380   28.1430 C   0  0  0  0  0  0
    9.1460   14.6310   27.3570 N   0  0  0  0  0  0
   12.1340   14.3720   25.3770 C   0  0  0  0  0  0
    9.6160   14.3480   25.2220 N   0  3  0  0  0  0
    8.6090   14.4700   26.1120 C   0  0  0  0  0  0
    3.3120   11.8590   24.7590 N   0  0  0  0  0  0
   10.8140   14.4330   25.8440 C   0  0  0  0  0  0
   -1.4130   10.5800   26.2210 N   0  0  0  0  0  0
   10.5250   14.6120   27.2460 C   0  0  0  0  0  0
   -0.0740    9.5580   27.8070 N   0  0  0  0  0  0
    7.2530   14.4660   25.8850 C   0  0  0  0  0  0
    4.3870   14.7330   25.5160 C   0  0  0  0  0  0
    5.0990   15.7030   26.2880 C   0  0  0  0  0  0
    6.5120   15.5570   26.4570 C   0  0  0  0  0  0
    2.2180   11.7290   24.0010 C   0  0  0  0  0  0
    0.8680   11.3390   24.7660 C   0  0  0  0  0  0
    2.1940   11.8880   22.7780 O   0  0  0  0  0  0
   -0.4190   11.6970   24.2800 C   0  0  0  0  0  0
   -1.5390   11.2950   25.0410 C   0  0  0  0  0  0
    4.5710   12.6170   24.1690 C   0  0  1  0  0  0
    5.0980   13.6430   24.9460 C   0  0  0  0  0  0
    6.5020   13.4600   25.0980 C   0  0  0  0  0  0
    5.6260   11.6830   23.7870 C   0  0  0  0  0  0
    6.8450   12.2630   24.3910 C   0  0  0  0  0  0
    8.0800   11.5530   24.1790 C   0  0  0  0  0  0
    8.1310   10.3300   23.4080 C   0  0  0  0  0  0
    6.9300    9.7960   22.8360 C   0  0  0  0  0  0
    5.6890   10.4860   23.0320 C   0  0  0  0  0  0
    1.0380   10.5970   25.9870 C   0  0  0  0  0  0
   -0.1470   10.2460   26.6690 C   0  0  0  0  0  0
   14.1974   14.4734   25.9910 H   0  0  0  0  0  0
   11.3995   14.8796   29.2052 H   0  0  0  0  0  0
   12.3564   14.2257   24.3200 H   0  0  0  0  0  0
    3.3454   11.4483   25.7789 H   0  0  0  0  0  0
   -0.9942    9.2818   28.3427 H   0  0  0  0  0  0
    0.9065    9.2660   28.2112 H   0  0  0  0  0  0
    3.3115   14.8285   25.3665 H   0  0  0  0  0  0
    4.5723   16.5425   26.7417 H   0  0  0  0  0  0
    7.0485   16.3031   27.0432 H   0  0  0  0  0  0
   -0.5372   12.2607   23.3546 H   0  0  0  0  0  0
   -2.5366   11.5562   24.6878 H   0  0  0  0  0  0
    4.2826   13.2116   23.2896 H   0  0  0  0  0  0
    9.0000   11.9473   24.6106 H   0  0  0  0  0  0
    9.0809    9.8156   23.2623 H   0  0  0  0  0  0
    6.9602    8.8731   22.2569 H   0  0  0  0  0  0
    4.7771   10.0823   22.5921 H   0  0  0  0  0  0
    2.0235   10.3222   26.3631 H   0  0  0  0  0  0
    9.3923   14.2019   24.1549 H   0  0  0  0  0  0
   13.7618   14.7787   28.3917 H   0  0  0  0  0  0
  1  2  2  0  0  0
  1  5  1  0  0  0
  1 33  1  0  0  0
  2  3  1  0  0  0
  2 51  1  0  0  0
  3 11  2  0  0  0
  3 34  1  0  0  0
  4  7  2  0  0  0
  4 11  1  0  0  0
  5  9  2  0  0  0
  5 35  1  0  0  0
  6  7  1  0  0  0
  6  9  1  0  0  0
  6 50  1  0  0  0
  7 13  1  0  0  0
  8 17  1  0  0  0
  8 22  1  0  0  0
  8 36  1  0  0  0
  9 11  1  0  0  0
 10 21  2  0  0  0
 10 32  1  0  0  0
 12 32  1  0  0  0
 12 37  1  0  0  0
 12 38  1  0  0  0
 13 16  2  0  0  0
 13 24  1  0  0  0
 14 15  2  0  0  0
 14 23  1  0  0  0
 14 39  1  0  0  0
 15 16  1  0  0  0
 15 40  1  0  0  0
 16 41  1  0  0  0
 17 18  1  0  0  0
 17 19  2  0  0  0
 18 20  2  0  0  0
 18 31  1  0  0  0
 20 21  1  0  0  0
 20 42  1  0  0  0
 21 43  1  0  0  0
 22 23  1  0  0  0
 22 25  1  0  0  0
 22 44  1  0  0  0
 23 24  2  0  0  0
 24 26  1  0  0  0
 25 26  2  0  0  0
 25 30  1  0  0  0
 26 27  1  0  0  0
 27 28  2  0  0  0
 27 45  1  0  0  0
 28 29  1  0  0  0
 28 46  1  0  0  0
 29 30  2  0  0  0
 29 47  1  0  0  0
 30 48  1  0  0  0
 31 32  2  0  0  0
 31 49  1  0  0  0
M  CHG  2   2   1   6   1
M  END
> <s_m_source_file>
../2ykj_ligand.sdf

> <i_m_source_file_index>
1

> <s_epik_input>
W2NIXTFbY0hdbltjSF1jKGMxMiluYyhbbkhdMiktYyhbY0hdW2NIXVtjSF0zKWMoYzM0KWM1YyhbY0hdW2NIXVtjSF1bY0hdNSlbQ0BIXTRbTkhdQyg9TyljNltjSF1bY0hdbmMoW05IMl0pW2NIXTY=

> <s_epik_cmdline>
J2VwaWtfYXBwJywgJy1pbWFlJywgJ2xpZ2FuZF9wcm8ubWFlJywgJy1vbWFlJywgJ2xpZ2FuZF9wcmVwLm1hZScsICctbXMnLCAnMScsICctcGgnLCAnNycsICctcGh0JywgJzAuNScsICctbnQn

> <r_lp_tautomer_probability>
1

> <r_epik_Ionization_Penalty>
  1.3693

> <r_epik_Ionization_Penalty_Charging>
  0.0050

> <r_epik_Ionization_Penalty_Neutral>
  1.3643

> <r_epik_State_Penalty>
 -0.0000

> <r_epik_Charging_Adjusted_Penalty>
0.00504549817230932

> <i_epik_Tot_Q>
2

> <i_epik_Tot_abs_Q>
2

> <s_epik_Chemistry_Notes>
This compound has an imine and may undergo hydrolysis.

$$$$
