2ylc_ligand
                    3D
 Schrodinger Suite 2020-3.
 32 33  0  0  1  0            999 V2000
   -3.0180   -3.4630  -11.9720 P   0  0  0  0  0  0
   -2.8910   -2.8630  -13.2730 O   0  0  0  0  0  0
   -2.4130   -2.8100  -10.8090 O   0  0  0  0  0  0
   -2.5600   -4.9820  -12.0710 O   0  0  0  0  0  0
   -2.2800   -5.7070  -10.9210 C   0  0  0  0  0  0
   -1.2920   -6.8030  -11.1900 C   0  0  1  0  0  0
   -1.8630   -7.8100  -12.0570 O   0  0  0  0  0  0
   -0.0100   -6.4560  -11.9200 C   0  0  1  0  0  0
    0.9140   -5.6510  -11.1600 O   0  0  0  0  0  0
    0.5050   -7.8540  -12.2480 C   0  0  1  0  0  0
    1.1000   -8.4400  -11.0920 O   0  0  0  0  0  0
   -0.8240   -8.5940  -12.5740 C   0  0  2  0  0  0
   -1.0180   -8.7680  -14.0360 N   0  0  0  0  0  0
   -0.8060  -10.0330  -14.5610 C   0  0  0  0  0  0
   -0.6040  -10.9720  -13.8330 O   0  0  0  0  0  0
   -0.9070  -10.1390  -15.9140 N   0  0  0  0  0  0
   -1.1410   -9.1380  -16.8080 C   0  0  0  0  0  0
   -1.1530   -9.4080  -18.0110 O   0  0  0  0  0  0
   -1.3070   -7.8530  -16.2030 C   0  0  0  0  0  0
   -1.2370   -7.7080  -14.8800 C   0  0  0  0  0  0
   -2.6297   -1.7525  -10.5974 H   0  0  0  0  0  0
   -1.8572   -5.0362  -10.1585 H   0  0  0  0  0  0
   -3.2066   -6.1595  -10.5381 H   0  0  0  0  0  0
   -1.0782   -7.1396  -10.1648 H   0  0  0  0  0  0
   -0.1249   -5.7680  -12.7705 H   0  0  0  0  0  0
    0.6408   -4.6256  -10.8705 H   0  0  0  0  0  0
    1.3109   -7.9005  -12.9952 H   0  0  0  0  0  0
    2.0525   -8.0486  -10.7053 H   0  0  0  0  0  0
   -0.8950   -9.5918  -12.1165 H   0  0  0  0  0  0
   -0.7959  -11.1202  -16.3986 H   0  0  0  0  0  0
   -1.4930   -6.9819  -16.8312 H   0  0  0  0  0  0
   -1.3579   -6.7124  -14.4531 H   0  0  0  0  0  0
  1  2  2  0  0  0
  1  3  1  0  0  0
  1  4  1  0  0  0
  3 21  1  0  0  0
  4  5  1  0  0  0
  5  6  1  0  0  0
  5 22  1  0  0  0
  5 23  1  0  0  0
  6  7  1  0  0  0
  6  8  1  0  0  0
  6 24  1  0  0  0
  7 12  1  0  0  0
  8  9  1  0  0  0
  8 10  1  0  0  0
  8 25  1  0  0  0
  9 26  1  0  0  0
 10 11  1  0  0  0
 10 12  1  0  0  0
 10 27  1  0  0  0
 11 28  1  0  0  0
 12 13  1  0  0  0
 12 29  1  0  0  0
 13 14  1  0  0  0
 13 20  1  0  0  0
 14 15  2  0  0  0
 14 16  1  0  0  0
 16 17  1  0  0  0
 16 30  1  0  0  0
 17 18  2  0  0  0
 17 19  1  0  0  0
 19 20  2  0  0  0
 19 31  1  0  0  0
 20 32  1  0  0  0
M  END
> <s_m_source_file>
../2ylc_ligand.sdf

> <i_m_source_file_index>
1

> <s_epik_input>
Tz1bUEhdKFtPSF0pT1tDSDJdW0NASF0xT1tDQEhdKFtDQEhdKFtPSF0pW0NAQEhdMVtPSF0pbjJjKD1PKVtuSF1jKD1PKVtjSF1bY0hdMg==

> <s_epik_cmdline>
J2VwaWtfYXBwJywgJy1pbWFlJywgJ2xpZ2FuZF9wcm8ubWFlJywgJy1vbWFlJywgJ2xpZ2FuZF9wcmVwLm1hZScsICctbXMnLCAnMScsICctcGgnLCAnNycsICctcGh0JywgJzAuNScsICctbnQn

> <r_lp_tautomer_probability>
1

> <r_epik_Ionization_Penalty>
  0.0043

> <r_epik_Ionization_Penalty_Charging>
  0.0043

> <r_epik_Ionization_Penalty_Neutral>
  0.0000

> <r_epik_State_Penalty>
 -0.0000

> <r_epik_Charging_Adjusted_Penalty>
0.00429660537975568

> <i_epik_Tot_Q>
0

> <i_epik_Tot_abs_Q>
0

> <s_epik_Chemistry_Notes>
This compound contains an acetal/aminal-like group ( X-CH(R)-Y where X, Y are N, S, or O) that may be acid/base labile, releasing an aldehyde.

$$$$
