2ylo_ligand
                    3D
 Schrodinger Suite 2020-3.
 53 56  0  0  1  0            999 V2000
  -25.4820   19.6610  -27.7480 C   0  0  0  0  0  0
  -24.4000   19.3000  -28.7640 C   0  0  0  0  0  0
  -23.9660   20.2130  -29.7310 C   0  0  0  0  0  0
  -22.9970   19.9350  -30.6880 C   0  0  0  0  0  0
  -22.4310   18.6860  -30.7340 C   0  0  0  0  0  0
  -22.8600   17.7590  -29.7610 C   0  0  0  0  0  0
  -23.8260   18.0440  -28.7870 C   0  0  0  0  0  0
  -21.4640   18.3890  -31.7080 O   0  0  0  0  0  0
  -20.8830   17.1320  -31.7450 C   0  0  0  0  0  0
  -19.5040   17.1470  -31.1800 C   0  0  0  0  0  0
  -18.7550   16.0240  -30.5940 N   0  0  0  0  0  0
  -18.0020   16.1000  -29.4370 C   0  0  0  0  0  0
  -17.7530   17.1060  -28.5190 C   0  0  0  0  0  0
  -16.9520   16.9330  -27.4310 C   0  0  0  0  0  0
  -16.3650   15.7180  -27.2160 C   0  0  0  0  0  0
  -16.6010   14.7160  -28.1310 C   0  0  0  0  0  0
  -17.4230   14.9030  -29.2500 C   0  0  0  0  0  0
  -17.8030   14.0750  -30.2940 N   0  0  0  0  0  0
  -18.6060   14.7750  -31.0920 C   0  0  0  0  0  0
  -19.2730   14.1180  -32.5060 S   0  0  0  0  0  0
  -20.4160   12.7880  -32.2870 C   0  0  0  0  0  0
  -20.3470   11.8000  -33.4460 C   0  0  0  0  0  0
  -21.4760   11.6320  -34.2440 O   0  0  0  0  0  0
  -21.7260   12.4660  -35.3130 C   0  0  0  0  0  0
  -20.8520   12.5700  -36.3660 C   0  0  0  0  0  0
  -21.1240   13.4000  -37.4420 C   0  0  0  0  0  0
  -22.2970   14.1240  -37.4630 C   0  0  0  0  0  0
  -23.1700   14.0250  -36.4160 C   0  0  0  0  0  0
  -22.8990   13.1920  -35.3540 C   0  0  0  0  0  0
  -25.7988   20.7027  -27.9043 H   0  0  0  0  0  0
  -25.0811   19.5484  -26.7299 H   0  0  0  0  0  0
  -26.3452   18.9918  -27.8783 H   0  0  0  0  0  0
  -24.4164   21.2056  -29.7342 H   0  0  0  0  0  0
  -22.6890   20.7037  -31.3968 H   0  0  0  0  0  0
  -22.4145   16.7642  -29.7673 H   0  0  0  0  0  0
  -24.1196   17.2872  -28.0596 H   0  0  0  0  0  0
  -21.4913   16.4295  -31.1564 H   0  0  0  0  0  0
  -20.8270   16.7845  -32.7871 H   0  0  0  0  0  0
  -18.7919   17.4565  -31.9592 H   0  0  0  0  0  0
  -19.4595   17.8560  -30.3401 H   0  0  0  0  0  0
  -18.2185   18.0794  -28.6737 H   0  0  0  0  0  0
  -16.7808   17.7566  -26.7379 H   0  0  0  0  0  0
  -15.7295   15.5470  -26.3471 H   0  0  0  0  0  0
  -16.1320   13.7438  -27.9793 H   0  0  0  0  0  0
  -20.1803   12.2515  -31.3561 H   0  0  0  0  0  0
  -21.4387   13.1890  -32.2302 H   0  0  0  0  0  0
  -19.5536   12.1074  -34.1431 H   0  0  0  0  0  0
  -20.1251   10.7948  -33.0582 H   0  0  0  0  0  0
  -19.9289   11.9904  -36.3559 H   0  0  0  0  0  0
  -20.4152   13.4798  -38.2662 H   0  0  0  0  0  0
  -22.5268   14.7714  -38.3093 H   0  0  0  0  0  0
  -24.0891   14.6109  -36.4220 H   0  0  0  0  0  0
  -23.6170   13.1051  -34.5385 H   0  0  0  0  0  0
  1  2  1  0  0  0
  1 30  1  0  0  0
  1 31  1  0  0  0
  1 32  1  0  0  0
  2  3  2  0  0  0
  2  7  1  0  0  0
  3  4  1  0  0  0
  3 33  1  0  0  0
  4  5  2  0  0  0
  4 34  1  0  0  0
  5  6  1  0  0  0
  5  8  1  0  0  0
  6  7  2  0  0  0
  6 35  1  0  0  0
  7 36  1  0  0  0
  8  9  1  0  0  0
  9 10  1  0  0  0
  9 37  1  0  0  0
  9 38  1  0  0  0
 10 11  1  0  0  0
 10 39  1  0  0  0
 10 40  1  0  0  0
 11 12  1  0  0  0
 11 19  1  0  0  0
 12 13  1  0  0  0
 12 17  2  0  0  0
 13 14  2  0  0  0
 13 41  1  0  0  0
 14 15  1  0  0  0
 14 42  1  0  0  0
 15 16  2  0  0  0
 15 43  1  0  0  0
 16 17  1  0  0  0
 16 44  1  0  0  0
 17 18  1  0  0  0
 18 19  2  0  0  0
 19 20  1  0  0  0
 20 21  1  0  0  0
 21 22  1  0  0  0
 21 45  1  0  0  0
 21 46  1  0  0  0
 22 23  1  0  0  0
 22 47  1  0  0  0
 22 48  1  0  0  0
 23 24  1  0  0  0
 24 25  2  0  0  0
 24 29  1  0  0  0
 25 26  1  0  0  0
 25 49  1  0  0  0
 26 27  2  0  0  0
 26 50  1  0  0  0
 27 28  1  0  0  0
 27 51  1  0  0  0
 28 29  2  0  0  0
 28 52  1  0  0  0
 29 53  1  0  0  0
M  END
> <s_m_source_file>
../2ylo_ligand.sdf

> <i_m_source_file_index>
1

> <s_epik_input>
W0NIM11jMVtjSF1bY0hdYyhbY0hdW2NIXTEpT1tDSDJdW0NIMl1uMmMobmMoYzIzKVtjSF1bY0hdW2NIXVtjSF0zKVNbQ0gyXVtDSDJdT2M0W2NIXVtjSF1bY0hdW2NIXVtjSF00

> <s_epik_cmdline>
J2VwaWtfYXBwJywgJy1pbWFlJywgJ2xpZ2FuZF9wcm8ubWFlJywgJy1vbWFlJywgJ2xpZ2FuZF9wcmVwLm1hZScsICctbXMnLCAnMScsICctcGgnLCAnNycsICctcGh0JywgJzAuNScsICctbnQn

> <r_lp_tautomer_probability>
1

> <r_epik_Ionization_Penalty>
  0.0260

> <r_epik_Ionization_Penalty_Charging>
  0.0000

> <r_epik_Ionization_Penalty_Neutral>
  0.0260

> <r_epik_State_Penalty>
  0.0212

> <r_epik_Charging_Adjusted_Penalty>
0.0212330270448252

> <i_epik_Tot_Q>
0

> <i_epik_Tot_abs_Q>
0

$$$$
