2ylp_ligand
                    3D
 Schrodinger Suite 2020-3.
 31 32  0  0  1  0            999 V2000
   15.2720  -17.5170  -27.2950 O   0  0  0  0  0  0
   16.3300  -17.9240  -27.8080 C   0  0  0  0  0  0
   16.6260  -19.1370  -27.9140 O   0  5  0  0  0  0
   17.2520  -16.8630  -28.2850 C   0  0  0  0  0  0
   17.9540  -16.9460  -29.4880 C   0  0  0  0  0  0
   18.7890  -15.8990  -29.8430 C   0  0  0  0  0  0
   18.8740  -14.8050  -29.0190 C   0  0  0  0  0  0
   18.1700  -14.7350  -27.8340 C   0  0  0  0  0  0
   17.3460  -15.7650  -27.4640 C   0  0  0  0  0  0
   19.4740  -14.1710  -31.6550 S   0  0  0  0  0  0
   19.9340  -12.2450  -35.7860 C   0  0  0  0  0  0
   19.5990  -15.8520  -31.1140 C   0  0  0  0  0  0
   19.9070  -13.0510  -34.6470 C   0  0  0  0  0  0
   18.6430  -14.3410  -34.5580 Cl  0  0  0  0  0  0
   20.9110  -12.7870  -33.5580 C   0  0  0  0  0  0
   21.0130  -13.5780  -32.2690 C   0  0  0  0  0  0
   21.8350  -11.7650  -33.7380 C   0  0  0  0  0  0
   21.8060  -11.0040  -34.8990 C   0  0  0  0  0  0
   20.8750  -11.2240  -35.9160 C   0  0  0  0  0  0
   20.8870  -10.1860  -37.3970 Cl  0  0  0  0  0  0
   17.8476  -17.8166  -30.1351 H   0  0  0  0  0  0
   19.5133  -13.9707  -29.3075 H   0  0  0  0  0  0
   18.2697  -13.8597  -27.1921 H   0  0  0  0  0  0
   16.7759  -15.7146  -26.5363 H   0  0  0  0  0  0
   19.2109  -12.4156  -36.5836 H   0  0  0  0  0  0
   20.6389  -16.1374  -30.8968 H   0  0  0  0  0  0
   19.1721  -16.5523  -31.8470 H   0  0  0  0  0  0
   21.4749  -12.9155  -31.5222 H   0  0  0  0  0  0
   21.6811  -14.4291  -32.4673 H   0  0  0  0  0  0
   22.5808  -11.5612  -32.9697 H   0  0  0  0  0  0
   22.5373  -10.2050  -35.0210 H   0  0  0  0  0  0
  1  2  2  0  0  0
  2  3  1  0  0  0
  2  4  1  0  0  0
  4  5  2  0  0  0
  4  9  1  0  0  0
  5  6  1  0  0  0
  5 21  1  0  0  0
  6  7  2  0  0  0
  6 12  1  0  0  0
  7  8  1  0  0  0
  7 22  1  0  0  0
  8  9  2  0  0  0
  8 23  1  0  0  0
  9 24  1  0  0  0
 10 12  1  0  0  0
 10 16  1  0  0  0
 11 13  2  0  0  0
 11 19  1  0  0  0
 11 25  1  0  0  0
 12 26  1  0  0  0
 12 27  1  0  0  0
 13 14  1  0  0  0
 13 15  1  0  0  0
 15 16  1  0  0  0
 15 17  2  0  0  0
 16 28  1  0  0  0
 16 29  1  0  0  0
 17 18  1  0  0  0
 17 30  1  0  0  0
 18 19  2  0  0  0
 18 31  1  0  0  0
 19 20  1  0  0  0
M  CHG  1   3  -1
M  END
> <s_m_source_file>
../2ylp_ligand.sdf

> <i_m_source_file_index>
1

> <s_epik_input>
Tz1DKFtPSF0pYzFbY0hdYyhbY0hdW2NIXVtjSF0xKVtDSDJdU1tDSDJdYzJbY0hdW2NIXWMoQ2wpW2NIXWMyQ2w=

> <s_epik_cmdline>
J2VwaWtfYXBwJywgJy1pbWFlJywgJ2xpZ2FuZF9wcm8ubWFlJywgJy1vbWFlJywgJ2xpZ2FuZF9wcmVwLm1hZScsICctbXMnLCAnMScsICctcGgnLCAnNycsICctcGh0JywgJzAuNScsICctbnQn

> <r_lp_tautomer_probability>
1

> <r_epik_Ionization_Penalty>
  0.0009

> <r_epik_Ionization_Penalty_Charging>
  0.0009

> <r_epik_Ionization_Penalty_Neutral>
  0.0000

> <r_epik_State_Penalty>
 -0.0000

> <r_epik_Charging_Adjusted_Penalty>
0.000896085528030105

> <i_epik_Tot_Q>
-1

> <i_epik_Tot_abs_Q>
1

$$$$
