2ylq_ligand
                    3D
 Schrodinger Suite 2020-3.
 44 46  0  0  1  0            999 V2000
   11.5980  -13.1890  -33.5290 C   0  0  0  0  0  0
   12.6370  -14.2550  -33.5740 C   0  0  0  0  0  0
   12.4600  -15.4180  -32.8830 C   0  0  0  0  0  0
   13.4700  -16.4470  -32.9520 C   0  0  0  0  0  0
   14.6460  -16.2530  -33.7150 C   0  0  0  0  0  0
   15.6080  -17.2140  -33.7800 O   0  0  0  0  0  0
   16.1260  -17.8270  -32.6480 C   0  0  0  0  0  0
   17.4860  -17.3990  -32.2430 C   0  0  0  0  0  0
   17.7230  -16.6840  -30.9540 N   0  0  0  0  0  0
   18.6970  -15.7680  -30.7000 C   0  0  0  0  0  0
   19.8340  -15.1870  -31.8810 S   0  0  0  0  0  0
   19.6500  -13.3830  -31.7530 C   0  0  0  0  0  0
   20.1360  -12.4770  -32.8130 C   0  0  0  0  0  0
   21.5840  -12.1500  -32.9290 C   0  0  0  0  0  0
   22.4260  -12.7080  -32.2070 O   0  0  0  0  0  0
   21.9490  -11.2930  -33.8030 O   0  5  0  0  0  0
   18.6440  -15.3350  -29.4340 N   0  0  0  0  0  0
   17.6020  -15.9890  -28.8360 C   0  0  0  0  0  0
   17.1020  -15.9210  -27.5210 C   0  0  0  0  0  0
   16.0200  -16.7200  -27.2120 C   0  0  0  0  0  0
   15.4470  -17.5730  -28.1370 C   0  0  0  0  0  0
   15.9410  -17.6510  -29.4520 C   0  0  0  0  0  0
   17.0260  -16.8360  -29.7780 C   0  0  0  0  0  0
   14.8180  -15.0550  -34.4210 C   0  0  0  0  0  0
   13.8350  -14.0660  -34.3570 C   0  0  0  0  0  0
   10.7669  -13.5140  -32.8858 H   0  0  0  0  0  0
   11.2227  -12.9997  -34.5455 H   0  0  0  0  0  0
   12.0371  -12.2660  -33.1224 H   0  0  0  0  0  0
   11.5625  -15.5690  -32.2832 H   0  0  0  0  0  0
   13.3255  -17.3823  -32.4113 H   0  0  0  0  0  0
   15.4720  -17.6212  -31.7878 H   0  0  0  0  0  0
   16.1838  -18.9130  -32.8131 H   0  0  0  0  0  0
   18.1402  -18.2801  -32.1668 H   0  0  0  0  0  0
   17.8911  -16.7054  -32.9945 H   0  0  0  0  0  0
   18.5827  -13.1278  -31.6775 H   0  0  0  0  0  0
   20.1773  -13.0233  -30.8571 H   0  0  0  0  0  0
   19.8863  -12.8980  -33.7981 H   0  0  0  0  0  0
   19.6568  -11.4931  -32.7026 H   0  0  0  0  0  0
   17.5517  -15.2635  -26.7770 H   0  0  0  0  0  0
   15.6035  -16.6772  -26.2056 H   0  0  0  0  0  0
   14.6006  -18.1938  -27.8433 H   0  0  0  0  0  0
   15.4943  -18.3210  -30.1866 H   0  0  0  0  0  0
   15.7160  -14.8959  -35.0180 H   0  0  0  0  0  0
   13.9743  -13.1355  -34.9074 H   0  0  0  0  0  0
  1  2  1  0  0  0
  1 26  1  0  0  0
  1 27  1  0  0  0
  1 28  1  0  0  0
  2  3  2  0  0  0
  2 25  1  0  0  0
  3  4  1  0  0  0
  3 29  1  0  0  0
  4  5  2  0  0  0
  4 30  1  0  0  0
  5  6  1  0  0  0
  5 24  1  0  0  0
  6  7  1  0  0  0
  7  8  1  0  0  0
  7 31  1  0  0  0
  7 32  1  0  0  0
  8  9  1  0  0  0
  8 33  1  0  0  0
  8 34  1  0  0  0
  9 10  1  0  0  0
  9 23  1  0  0  0
 10 11  1  0  0  0
 10 17  2  0  0  0
 11 12  1  0  0  0
 12 13  1  0  0  0
 12 35  1  0  0  0
 12 36  1  0  0  0
 13 14  1  0  0  0
 13 37  1  0  0  0
 13 38  1  0  0  0
 14 15  2  0  0  0
 14 16  1  0  0  0
 17 18  1  0  0  0
 18 19  2  0  0  0
 18 23  1  0  0  0
 19 20  1  0  0  0
 19 39  1  0  0  0
 20 21  2  0  0  0
 20 40  1  0  0  0
 21 22  1  0  0  0
 21 41  1  0  0  0
 22 23  2  0  0  0
 22 42  1  0  0  0
 24 25  2  0  0  0
 24 43  1  0  0  0
 25 44  1  0  0  0
M  CHG  1  16  -1
M  END
> <s_m_source_file>
../2ylq_ligand.sdf

> <i_m_source_file_index>
1

> <s_epik_input>
W0NIM11jMVtjSF1bY0hdYyhbY0hdW2NIXTEpT1tDSDJdW0NIMl1uKGMoYzIzKVtjSF1bY0hdW2NIXVtjSF0zKWMobjIpU1tDSDJdW0NIMl1DKD1PKVtPSF0=

> <s_epik_cmdline>
J2VwaWtfYXBwJywgJy1pbWFlJywgJ2xpZ2FuZF9wcm8ubWFlJywgJy1vbWFlJywgJ2xpZ2FuZF9wcmVwLm1hZScsICctbXMnLCAnMScsICctcGgnLCAnNycsICctcGh0JywgJzAuNScsICctbnQn

> <r_lp_tautomer_probability>
1

> <r_epik_Ionization_Penalty>
  0.0243

> <r_epik_Ionization_Penalty_Charging>
  0.0010

> <r_epik_Ionization_Penalty_Neutral>
  0.0233

> <r_epik_State_Penalty>
  0.0188

> <r_epik_Charging_Adjusted_Penalty>
0.0198423198189737

> <i_epik_Tot_Q>
-1

> <i_epik_Tot_abs_Q>
1

$$$$
