2ym3_ligand
                    3D
 Schrodinger Suite 2020-3.
 41 43  0  0  1  0            999 V2000
   22.2250    0.5420    7.6120 C   0  0  0  0  0  0
   21.4860   -0.4410    8.4780 C   0  0  0  0  0  0
   19.2330   -0.8340    9.1380 C   0  0  0  0  0  0
   17.8490   -0.2430    9.3050 C   0  0  0  0  0  0
   17.5540    0.9580    8.6710 C   0  0  0  0  0  0
   16.3360    1.5180    8.7870 N   0  0  0  0  0  0
   15.3450    0.9100    9.5380 C   0  0  0  0  0  0
   14.0500    1.3100    9.7840 N   0  0  0  0  0  0
   13.4570    0.3710   10.5890 N   0  0  0  0  0  0
   14.3570   -0.6000   10.8510 C   0  0  0  0  0  0
   15.5780   -0.2830   10.1910 C   0  0  0  0  0  0
   16.8440   -0.8850   10.0840 C   0  0  0  0  0  0
   17.1060   -2.1610   10.7740 N   0  0  0  0  0  0
   17.7960   -2.2210   11.9980 C   0  0  0  0  0  0
   16.0950   -3.1360   10.6730 C   0  0  0  0  0  0
   16.5880   -4.5080   10.9810 C   0  0  0  0  0  0
   17.2620   -4.5720   12.2070 O   0  0  0  0  0  0
   18.2610   -3.5950   12.3590 C   0  0  1  0  0  0
   19.5010   -3.9670   11.5570 C   0  0  0  0  0  0
   20.1940   -5.1490   11.9390 N   0  3  0  0  0  0
   20.3480   -0.0030    9.1070 O   0  0  0  0  0  0
   19.3760   -2.0390    9.0040 O   0  0  0  0  0  0
   23.1095    0.0543    7.1763 H   0  0  0  0  0  0
   22.5428    1.4009    8.2213 H   0  0  0  0  0  0
   21.5632    0.8897    6.8051 H   0  0  0  0  0  0
   21.1682   -1.2999    7.8687 H   0  0  0  0  0  0
   22.1478   -0.7887    9.2849 H   0  0  0  0  0  0
   18.3189    1.4525    8.0723 H   0  0  0  0  0  0
   14.1785   -1.4817   11.4665 H   0  0  0  0  0  0
   18.6860   -1.5764   11.9491 H   0  0  0  0  0  0
   17.1368   -1.8751   12.8079 H   0  0  0  0  0  0
   15.2869   -2.9010   11.3814 H   0  0  0  0  0  0
   15.6940   -3.1437    9.6487 H   0  0  0  0  0  0
   15.7360   -5.2023   11.0259 H   0  0  0  0  0  0
   17.2845   -4.8327   10.1939 H   0  0  0  0  0  0
   18.4457   -3.6156   13.4432 H   0  0  0  0  0  0
   19.2245   -4.1173   10.5030 H   0  0  0  0  0  0
   20.2415   -3.1569   11.6299 H   0  0  0  0  0  0
   21.0622   -5.2944   11.2794 H   0  0  0  0  0  0
   19.5193   -6.0136   11.8530 H   0  0  0  0  0  0
   20.5363   -5.0531   12.9800 H   0  0  0  0  0  0
  1  2  1  0  0  0
  1 23  1  0  0  0
  1 24  1  0  0  0
  1 25  1  0  0  0
  2 21  1  0  0  0
  2 26  1  0  0  0
  2 27  1  0  0  0
  3  4  1  0  0  0
  3 21  1  0  0  0
  3 22  2  0  0  0
  4  5  2  0  0  0
  4 12  1  0  0  0
  5  6  1  0  0  0
  5 28  1  0  0  0
  6  7  2  0  0  0
  7  8  1  0  0  0
  7 11  1  0  0  0
  8  9  2  0  0  0
  9 10  1  0  0  0
 10 11  1  0  0  0
 10 29  1  0  0  0
 11 12  2  0  0  0
 12 13  1  0  0  0
 13 14  1  0  0  0
 13 15  1  0  0  0
 14 18  1  0  0  0
 14 30  1  0  0  0
 14 31  1  0  0  0
 15 16  1  0  0  0
 15 32  1  0  0  0
 15 33  1  0  0  0
 16 17  1  0  0  0
 16 34  1  0  0  0
 16 35  1  0  0  0
 17 18  1  0  0  0
 18 19  1  0  0  0
 18 36  1  0  0  0
 19 20  1  0  0  0
 19 37  1  0  0  0
 19 38  1  0  0  0
 20 39  1  0  0  0
 20 40  1  0  0  0
 20 41  1  0  0  0
M  CHG  1  20   1
M  END
> <s_m_source_file>
../2ym3_ligand.sdf

> <i_m_source_file_index>
1

> <s_epik_input>
W0NIM11bQ0gyXU9DKD1PKWMoW2NIXW4xKWMoYyhjMTIpW0NIMl1OPU4yKU4zW0NIMl1bQ0BIXShbQ0gyXVtOSDMrXSlPW0NIMl1bQ0gyXTM=

> <s_epik_cmdline>
J2VwaWtfYXBwJywgJy1pbWFlJywgJ2xpZ2FuZF9wcm8ubWFlJywgJy1vbWFlJywgJ2xpZ2FuZF9wcmVwLm1hZScsICctbXMnLCAnMScsICctcGgnLCAnNycsICctcGh0JywgJzAuNScsICctbnQn

> <r_lp_tautomer_probability>
1

> <r_epik_Ionization_Penalty>
  0.0030

> <r_epik_Ionization_Penalty_Charging>
  0.0030

> <r_epik_Ionization_Penalty_Neutral>
  0.0000

> <r_epik_State_Penalty>
 -0.0000

> <r_epik_Charging_Adjusted_Penalty>
0.00300752342104411

> <i_epik_Tot_Q>
1

> <i_epik_Tot_abs_Q>
1

> <s_epik_Chemistry_Notes>
This compound has an ester and may undergo hydrolysis at high or low pH.

$$$$
