2ym4_ligand
                    3D
 Schrodinger Suite 2020-3.
 52 55  0  0  1  0            999 V2000
   21.2950    0.4780    7.4970 C   0  0  0  0  0  0
   20.6870   -0.7620    8.0660 C   0  0  0  0  0  0
   19.9370   -0.6480    9.2140 O   0  0  0  0  0  0
   18.7820   -1.3940    9.3220 C   0  0  0  0  0  0
   18.8350   -2.6090    9.2660 O   0  0  0  0  0  0
   17.4850   -0.6730    9.4500 C   0  0  0  0  0  0
   17.3620    0.4930    8.6890 C   0  0  0  0  0  0
   16.2390    1.2250    8.7260 N   0  0  0  0  0  0
   15.1710    0.8480    9.5140 C   0  0  0  0  0  0
   13.9550    1.4870    9.6610 N   0  0  0  0  0  0
   13.2000    0.7680   10.5380 N   0  0  0  0  0  0
   13.9180   -0.2960   10.9430 C   0  0  3  0  0  0
   13.4460   -1.2410   11.8270 C   0  0  0  0  0  0
   14.3050   -2.1330   12.4450 C   0  0  0  0  0  0
   13.8160   -3.0860   13.3290 C   0  0  0  0  0  0
   12.4620   -3.1460   13.5990 C   0  0  0  0  0  0
   11.6010   -2.2570   12.9840 C   0  0  0  0  0  0
   10.1480   -2.3260   13.2780 C   0  0  0  0  0  0
    9.0410   -2.3810   13.5050 N   0  0  0  0  0  0
   12.0890   -1.3030   12.0960 C   0  0  0  0  0  0
   15.2080   -0.2880   10.2960 C   0  0  0  0  0  0
   16.4150   -1.0830   10.2750 C   0  0  0  0  0  0
   16.5280   -2.2990   11.0620 N   0  0  0  0  0  0
   16.3890   -3.4150   10.2160 C   0  0  0  0  0  0
   16.4190   -4.6710   11.0150 C   0  0  0  0  0  0
   17.5970   -4.7630   11.7670 O   0  0  0  0  0  0
   17.8520   -3.6440   12.5810 C   0  0  2  0  0  0
   16.9660   -3.6660   13.7940 C   0  0  0  0  0  0
   17.0230   -2.3840   14.4490 N   0  3  0  0  0  0
   17.6910   -2.3430   11.8520 C   0  0  0  0  0  0
   21.8597    0.2254    6.5874 H   0  0  0  0  0  0
   21.9738    0.9265    8.2373 H   0  0  0  0  0  0
   20.4992    1.1952    7.2473 H   0  0  0  0  0  0
   20.0082   -1.2105    7.3257 H   0  0  0  0  0  0
   21.4827   -1.4793    8.3157 H   0  0  0  0  0  0
   18.1906    0.8118    8.0566 H   0  0  0  0  0  0
   15.3738   -2.0872   12.2362 H   0  0  0  0  0  0
   14.4996   -3.7860   13.8094 H   0  0  0  0  0  0
   12.0749   -3.8912   14.2939 H   0  0  0  0  0  0
   11.4043   -0.6058   11.6131 H   0  0  0  0  0  0
   15.4306   -3.3515    9.6798 H   0  0  0  0  0  0
   17.2151   -3.4298    9.4898 H   0  0  0  0  0  0
   15.5607   -4.6886   11.7027 H   0  0  0  0  0  0
   16.3650   -5.5370   10.3389 H   0  0  0  0  0  0
   18.9108   -3.7741   12.8494 H   0  0  0  0  0  0
   15.9308   -3.8774   13.4881 H   0  0  0  0  0  0
   17.3109   -4.4485   14.4859 H   0  0  0  0  0  0
   16.3750   -2.3972   15.3378 H   0  0  0  0  0  0
   16.6787   -1.6024   13.7558 H   0  0  0  0  0  0
   18.0589   -2.1736   14.7535 H   0  0  0  0  0  0
   18.5747   -2.2061   11.2115 H   0  0  0  0  0  0
   17.6547   -1.5402   12.6031 H   0  0  0  0  0  0
  1  2  1  0  0  0
  1 31  1  0  0  0
  1 32  1  0  0  0
  1 33  1  0  0  0
  2  3  1  0  0  0
  2 34  1  0  0  0
  2 35  1  0  0  0
  3  4  1  0  0  0
  4  5  2  0  0  0
  4  6  1  0  0  0
  6  7  2  0  0  0
  6 22  1  0  0  0
  7  8  1  0  0  0
  7 36  1  0  0  0
  8  9  2  0  0  0
  9 10  1  0  0  0
  9 21  1  0  0  0
 10 11  2  0  0  0
 11 12  1  0  0  0
 12 13  1  0  0  0
 12 21  1  0  0  0
 13 14  2  0  0  0
 13 20  1  0  0  0
 14 15  1  0  0  0
 14 37  1  0  0  0
 15 16  2  0  0  0
 15 38  1  0  0  0
 16 17  1  0  0  0
 16 39  1  0  0  0
 17 18  1  0  0  0
 17 20  2  0  0  0
 18 19  3  0  0  0
 20 40  1  0  0  0
 21 22  2  0  0  0
 22 23  1  0  0  0
 23 24  1  0  0  0
 23 30  1  0  0  0
 24 25  1  0  0  0
 24 41  1  0  0  0
 24 42  1  0  0  0
 25 26  1  0  0  0
 25 43  1  0  0  0
 25 44  1  0  0  0
 26 27  1  0  0  0
 27 28  1  0  0  0
 27 30  1  0  0  0
 27 45  1  0  0  0
 28 29  1  0  0  0
 28 46  1  0  0  0
 28 47  1  0  0  0
 29 48  1  0  0  0
 29 49  1  0  0  0
 29 50  1  0  0  0
 30 51  1  0  0  0
 30 52  1  0  0  0
M  CHG  1  29   1
M  END
> <s_m_source_file>
../2ym4_ligand.sdf

> <i_m_source_file_index>
1

> <s_epik_input>
W05IMytdW0NIMl1bQ0BIXShbQ0gyXTEpT1tDSDJdW0NIMl1OMWMoYyhbY0hdbjIpQyg9TylPW0NIMl1bQ0gzXSljKGMyMylbQ0hdKE49TjMpYzRbY0hdW2NIXVtjSF1jKEMjTilbY0hdNA==

> <s_epik_cmdline>
J2VwaWtfYXBwJywgJy1pbWFlJywgJ2xpZ2FuZF9wcm8ubWFlJywgJy1vbWFlJywgJ2xpZ2FuZF9wcmVwLm1hZScsICctbXMnLCAnMScsICctcGgnLCAnNycsICctcGh0JywgJzAuNScsICctbnQn

> <r_lp_tautomer_probability>
1

> <r_epik_Ionization_Penalty>
  0.0030

> <r_epik_Ionization_Penalty_Charging>
  0.0030

> <r_epik_Ionization_Penalty_Neutral>
  0.0000

> <r_epik_State_Penalty>
 -0.0000

> <r_epik_Charging_Adjusted_Penalty>
0.00300752342104411

> <i_epik_Tot_Q>
1

> <i_epik_Tot_abs_Q>
1

> <s_epik_Chemistry_Notes>
This compound has an ester and may undergo hydrolysis at high or low pH.

$$$$
