2ym6_ligand
                    3D
 Schrodinger Suite 2020-3.
 37 40  0  0  1  0            999 V2000
   17.8290   -0.4760    9.6120 N   0  0  0  0  0  0
   17.7470    0.5970    8.8490 C   0  0  0  0  0  0
   16.6470    1.3280    8.8310 N   0  0  0  0  0  0
   15.5870    0.9930    9.5770 C   0  0  0  0  0  0
   15.6230   -0.1520   10.3620 C   0  0  0  0  0  0
   16.8280   -0.8470   10.4280 C   0  0  0  0  0  0
   18.4180   -3.2790   14.9140 N   0  3  0  0  0  0
   12.4990   -0.7880   12.3870 C   0  0  0  0  0  0
   13.7990   -1.0460   11.9520 C   0  0  0  0  0  0
   12.3600    1.0920   11.0600 C   0  0  0  0  0  0
   18.2920   -2.5410   13.6460 C   0  0  0  0  0  0
   16.1110   -3.7530   12.6210 C   0  0  0  0  0  0
   15.9270   -3.0090   11.3110 C   0  0  0  0  0  0
   18.3350   -2.6990   11.1220 C   0  0  0  0  0  0
   11.8250    0.2600   11.9410 N   0  0  0  0  0  0
   14.3950    1.5750    9.7210 N   0  0  0  0  0  0
   17.3590   -4.4590   12.6070 O   0  0  0  0  0  0
   13.6470    0.8870   10.5820 C   0  0  0  0  0  0
   14.3930   -0.1920   11.0320 C   0  0  0  0  0  0
   18.4300   -3.4880   12.4350 C   0  0  2  0  0  0
   17.0220   -2.0470   11.1080 N   0  0  0  0  0  0
   18.5953    0.8832    8.2273 H   0  0  0  0  0  0
   18.3157   -2.5797   15.7569 H   0  0  0  0  0  0
   19.4036   -3.7655   14.9587 H   0  0  0  0  0  0
   17.6289   -4.0430   14.9735 H   0  0  0  0  0  0
   12.0349   -1.4723   13.1125 H   0  0  0  0  0  0
   14.3532   -1.9171   12.3314 H   0  0  0  0  0  0
   11.7834    1.9468   10.7066 H   0  0  0  0  0  0
   17.3064   -2.0545   13.6013 H   0  0  0  0  0  0
   19.0811   -1.7769   13.5865 H   0  0  0  0  0  0
   16.1086   -3.0347   13.4541 H   0  0  0  0  0  0
   15.2883   -4.4710   12.7536 H   0  0  0  0  0  0
   15.9234   -3.7279   10.4784 H   0  0  0  0  0  0
   14.9713   -2.4646   11.3296 H   0  0  0  0  0  0
   19.1408   -1.9512   11.0845 H   0  0  0  0  0  0
   18.4354   -3.3892   10.2714 H   0  0  0  0  0  0
   19.3778   -4.0440   12.3841 H   0  0  0  0  0  0
  1  2  2  0  0  0
  1  6  1  0  0  0
  2  3  1  0  0  0
  2 22  1  0  0  0
  3  4  2  0  0  0
  4  5  1  0  0  0
  4 16  1  0  0  0
  5  6  2  0  0  0
  5 19  1  0  0  0
  6 21  1  0  0  0
  7 11  1  0  0  0
  7 23  1  0  0  0
  7 24  1  0  0  0
  7 25  1  0  0  0
  8  9  1  0  0  0
  8 15  2  0  0  0
  8 26  1  0  0  0
  9 19  2  0  0  0
  9 27  1  0  0  0
 10 15  1  0  0  0
 10 18  1  0  0  0
 10 28  1  0  0  0
 11 20  1  0  0  0
 11 29  1  0  0  0
 11 30  1  0  0  0
 12 13  1  0  0  0
 12 17  1  0  0  0
 12 31  1  0  0  0
 12 32  1  0  0  0
 13 21  1  0  0  0
 13 33  1  0  0  0
 13 34  1  0  0  0
 14 20  1  0  0  0
 14 21  1  0  0  0
 14 35  1  0  0  0
 14 36  1  0  0  0
 16 18  2  0  0  0
 17 20  1  0  0  0
 18 19  1  0  0  0
 20 37  1  0  0  0
M  CHG  1   7   1
M  END
> <s_m_source_file>
../2ym6_ligand.sdf

> <i_m_source_file_index>
1

> <s_epik_input>
W05IMytdW0NIMl1bQ0BASF0xW0NIMl1OKFtDSDJdW0NIMl1PMSljKG5bY0hdbjIpYyhjMjMpQzRDKD1OMylbQ0gyXU49W0NIXVtDSF09NA==

> <s_epik_cmdline>
J2VwaWtfYXBwJywgJy1pbWFlJywgJ2xpZ2FuZF9wcm8ubWFlJywgJy1vbWFlJywgJ2xpZ2FuZF9wcmVwLm1hZScsICctbXMnLCAnMScsICctcGgnLCAnNycsICctcGh0JywgJzAuNScsICctbnQn

> <r_lp_tautomer_probability>
1

> <r_epik_Ionization_Penalty>
  0.0036

> <r_epik_Ionization_Penalty_Charging>
  0.0035

> <r_epik_Ionization_Penalty_Neutral>
  0.0002

> <r_epik_State_Penalty>
 -0.0000

> <r_epik_Charging_Adjusted_Penalty>
0.00346914450438172

> <i_epik_Tot_Q>
1

> <i_epik_Tot_abs_Q>
1

> <s_epik_Chemistry_Notes>
This compound has an imine and may undergo hydrolysis.

$$$$
