2ym7_ligand
                    3D
 Schrodinger Suite 2020-3.
 42 44  0  0  1  0            999 V2000
   18.4680   -2.6320   12.8770 C   0  0  0  0  0  0
   18.1130   -2.5210   14.3330 C   0  0  0  0  0  0
   17.4430   -3.7140   14.8150 N   0  3  0  0  0  0
   16.2640   -4.0430   14.0080 C   0  0  0  0  0  0
   16.5820   -4.1300   12.5420 C   0  0  0  0  0  0
   17.2890   -2.9440   12.0570 C   0  0  0  0  0  0
   17.7380   -3.1580   10.5620 C   0  0  0  0  0  0
   18.5570   -2.1370    9.9390 N   0  0  0  0  0  0
   17.9950   -0.8370    9.4810 C   0  0  0  0  0  0
   16.5890   -0.4980    9.7230 C   0  0  0  0  0  0
   18.7800    0.0120    8.8110 N   0  0  0  0  0  0
   18.2820    1.1880    8.3480 C   0  0  0  0  0  0
   16.9250    1.5520    8.5670 N   0  0  0  0  0  0
   16.1070    0.7530    9.2300 C   0  0  0  0  0  0
   14.8090    1.1580    9.4230 N   0  0  0  0  0  0
   13.8640    0.5370   10.3700 C   0  0  0  0  0  0
   12.7430    1.2820   10.8050 C   0  0  0  0  0  0
   11.8460    0.7270   11.6580 N   0  0  0  0  0  0
   12.0330   -0.5250   12.0800 C   0  0  0  0  0  0
   11.0470   -1.1710   12.9890 C   0  0  0  0  0  0
   10.2720   -1.6600   13.6530 N   0  0  0  0  0  0
   13.1680   -1.2860   11.6330 C   0  0  0  0  0  0
   14.0500   -0.7370   10.7950 N   0  0  0  0  0  0
   18.8913   -1.6782   12.5291 H   0  0  0  0  0  0
   19.2089   -3.4335   12.7403 H   0  0  0  0  0  0
   19.0295   -2.3763   14.9239 H   0  0  0  0  0  0
   17.4413   -1.6628   14.4823 H   0  0  0  0  0  0
   18.1372   -4.5663   14.7739 H   0  0  0  0  0  0
   17.1164   -3.5569   15.8536 H   0  0  0  0  0  0
   15.8609   -5.0154   14.3272 H   0  0  0  0  0  0
   15.4977   -3.2658   14.1446 H   0  0  0  0  0  0
   17.2197   -5.0069   12.3566 H   0  0  0  0  0  0
   15.6480   -4.2283   11.9694 H   0  0  0  0  0  0
   16.5845   -2.1118   12.2023 H   0  0  0  0  0  0
   18.3301   -4.0819   10.4857 H   0  0  0  0  0  0
   16.8485   -3.2386    9.9199 H   0  0  0  0  0  0
   19.6332   -2.3099    9.7907 H   0  0  0  0  0  0
   15.9317   -1.1798   10.2626 H   0  0  0  0  0  0
   18.9351    1.8656    7.7981 H   0  0  0  0  0  0
   14.4058    2.0047    8.8481 H   0  0  0  0  0  0
   12.5997    2.3040   10.4541 H   0  0  0  0  0  0
   13.3081   -2.3104   11.9782 H   0  0  0  0  0  0
  1  2  1  0  0  0
  1  6  1  0  0  0
  1 24  1  0  0  0
  1 25  1  0  0  0
  2  3  1  0  0  0
  2 26  1  0  0  0
  2 27  1  0  0  0
  3  4  1  0  0  0
  3 28  1  0  0  0
  3 29  1  0  0  0
  4  5  1  0  0  0
  4 30  1  0  0  0
  4 31  1  0  0  0
  5  6  1  0  0  0
  5 32  1  0  0  0
  5 33  1  0  0  0
  6  7  1  0  0  0
  6 34  1  0  0  0
  7  8  1  0  0  0
  7 35  1  0  0  0
  7 36  1  0  0  0
  8  9  1  0  0  0
  8 37  1  0  0  0
  9 10  2  0  0  0
  9 11  1  0  0  0
 10 14  1  0  0  0
 10 38  1  0  0  0
 11 12  2  0  0  0
 12 13  1  0  0  0
 12 39  1  0  0  0
 13 14  2  0  0  0
 14 15  1  0  0  0
 15 16  1  0  0  0
 15 40  1  0  0  0
 16 17  2  0  0  0
 16 23  1  0  0  0
 17 18  1  0  0  0
 17 41  1  0  0  0
 18 19  2  0  0  0
 19 20  1  0  0  0
 19 22  1  0  0  0
 20 21  3  0  0  0
 22 23  2  0  0  0
 22 42  1  0  0  0
M  CHG  1   3   1
M  END
> <s_m_source_file>
../2ym7_ligand.sdf

> <i_m_source_file_index>
1

> <s_epik_input>
W0NIMl0xW0NIMl1bTkgyK11bQ0gyXVtDSDJdW0NIXTFbQ0gyXVtOSF1jMltjSF1jKG5bY0hdbjIpW05IXWMzW2NIXW5jKEMjTilbY0hdbjM=

> <s_epik_cmdline>
J2VwaWtfYXBwJywgJy1pbWFlJywgJ2xpZ2FuZF9wcm8ubWFlJywgJy1vbWFlJywgJ2xpZ2FuZF9wcmVwLm1hZScsICctbXMnLCAnMScsICctcGgnLCAnNycsICctcGh0JywgJzAuNScsICctbnQn

> <r_lp_tautomer_probability>
0.999999968245435

> <r_epik_Ionization_Penalty>
  0.1304

> <r_epik_Ionization_Penalty_Charging>
  0.0002

> <r_epik_Ionization_Penalty_Neutral>
  0.1302

> <r_epik_State_Penalty>
  0.2874

> <r_epik_Charging_Adjusted_Penalty>
0.287643001716699

> <i_epik_Tot_Q>
1

> <i_epik_Tot_abs_Q>
1

$$$$
