2ym8_ligand
                    3D
 Schrodinger Suite 2020-3.
 47 49  0  0  1  0            999 V2000
   15.1990   -3.3210   11.2440 C   0  0  0  0  0  0
   15.3130   -3.9110   16.0280 C   0  0  0  0  0  0
   15.6290   -1.7460   15.0200 C   0  0  0  0  0  0
   10.1130   -1.8040   13.6000 N   0  0  0  0  0  0
   20.6760    0.9060    7.4620 Cl  0  0  0  0  0  0
   10.8770   -1.3100   12.9130 C   0  0  0  0  0  0
   19.7620   -1.9840   10.0760 C   0  0  0  0  0  0
   20.4560   -1.1750    9.1820 C   0  0  0  0  0  0
   18.4260   -1.7230   10.3630 C   0  0  0  0  0  0
   12.4270    0.9940   10.5920 C   0  0  0  0  0  0
   17.8180    1.2220    8.2660 C   0  0  0  0  0  0
   16.4490   -0.3680   10.0220 C   0  0  0  0  0  0
   15.2830   -3.6260   13.6120 C   0  0  0  0  0  0
   11.5370    0.4300   11.3880 N   0  0  0  0  0  0
   16.5490    1.4730    8.5440 N   0  0  0  0  0  0
   14.0070   -0.6810   11.0940 N   0  0  0  0  0  0
   14.5570    1.0550    9.6150 N   0  0  0  0  0  0
   13.4210   -2.4050   12.5800 O   0  0  0  0  0  0
   19.8130   -0.1020    8.5750 C   0  0  0  0  0  0
   11.8490   -0.6910   12.0560 C   0  0  0  0  0  0
   13.6840    0.4250   10.4110 C   0  0  0  0  0  0
   15.8320    0.7050    9.3810 C   0  0  0  0  0  0
   13.0940   -1.2860   11.8690 C   0  0  0  0  0  0
   17.7850   -0.6490    9.7550 C   0  0  0  0  0  0
   18.4770    0.1570    8.8650 C   0  0  0  0  0  0
   14.8450   -2.6230   12.5590 C   0  0  2  0  0  0
   14.9300   -3.0350   14.9130 N   0  3  0  0  0  0
   16.2838   -3.4990   11.2038 H   0  0  0  0  0  0
   14.9004   -2.6837   10.3986 H   0  0  0  0  0  0
   14.6673   -4.2821   11.1843 H   0  0  0  0  0  0
   15.0336   -3.4361   16.9801 H   0  0  0  0  0  0
   16.4001   -4.0778   16.0065 H   0  0  0  0  0  0
   14.7921   -4.8751   15.9324 H   0  0  0  0  0  0
   15.3860   -1.2761   15.9844 H   0  0  0  0  0  0
   15.3093   -1.0864   14.1998 H   0  0  0  0  0  0
   16.7146   -1.9112   14.9558 H   0  0  0  0  0  0
   20.2663   -2.8245   10.5528 H   0  0  0  0  0  0
   21.5024   -1.3820    8.9577 H   0  0  0  0  0  0
   17.8831   -2.3586   11.0625 H   0  0  0  0  0  0
   12.1739    1.9169   10.0701 H   0  0  0  0  0  0
   18.3514    1.8579    7.5595 H   0  0  0  0  0  0
   15.8889   -0.9822   10.7271 H   0  0  0  0  0  0
   14.7554   -4.5781   13.4534 H   0  0  0  0  0  0
   16.3678   -3.7904   13.5331 H   0  0  0  0  0  0
   14.2508    1.9605    9.0707 H   0  0  0  0  0  0
   15.2715   -1.6222   12.7216 H   0  0  0  0  0  0
   13.8400   -2.8998   14.9730 H   0  0  0  0  0  0
  1 26  1  0  0  0
  1 28  1  0  0  0
  1 29  1  0  0  0
  1 30  1  0  0  0
  2 27  1  0  0  0
  2 31  1  0  0  0
  2 32  1  0  0  0
  2 33  1  0  0  0
  3 27  1  0  0  0
  3 34  1  0  0  0
  3 35  1  0  0  0
  3 36  1  0  0  0
  4  6  3  0  0  0
  5 19  1  0  0  0
  6 20  1  0  0  0
  7  8  2  0  0  0
  7  9  1  0  0  0
  7 37  1  0  0  0
  8 19  1  0  0  0
  8 38  1  0  0  0
  9 24  2  0  0  0
  9 39  1  0  0  0
 10 14  2  0  0  0
 10 21  1  0  0  0
 10 40  1  0  0  0
 11 15  2  0  0  0
 11 25  1  0  0  0
 11 41  1  0  0  0
 12 22  2  0  0  0
 12 24  1  0  0  0
 12 42  1  0  0  0
 13 26  1  0  0  0
 13 27  1  0  0  0
 13 43  1  0  0  0
 13 44  1  0  0  0
 14 20  1  0  0  0
 15 22  1  0  0  0
 16 21  2  0  0  0
 16 23  1  0  0  0
 17 21  1  0  0  0
 17 22  1  0  0  0
 17 45  1  0  0  0
 18 23  1  0  0  0
 18 26  1  0  0  0
 19 25  2  0  0  0
 20 23  2  0  0  0
 24 25  1  0  0  0
 26 46  1  0  0  0
 27 47  1  0  0  0
M  CHG  1  27   1
M  END
> <s_m_source_file>
../2ym8_ligand.sdf

> <i_m_source_file_index>
1

> <s_epik_input>
W0NIM11bTkgrXShbQ0gzXSlbQ0gyXVtDQEBIXShbQ0gzXSlPYzFuYyhbY0hdbmMxQyNOKVtOSF1jKFtjSF0yKW5bY0hdYyhjMjMpYyhDbClbY0hdW2NIXVtjSF0z

> <s_epik_cmdline>
J2VwaWtfYXBwJywgJy1pbWFlJywgJ2xpZ2FuZF9wcm8ubWFlJywgJy1vbWFlJywgJ2xpZ2FuZF9wcmVwLm1hZScsICctbXMnLCAnMScsICctcGgnLCAnNycsICctcGh0JywgJzAuNScsICctbnQn

> <r_epik_Ionization_Penalty>
  0.0307

> <r_epik_Ionization_Penalty_Charging>
  0.0190

> <r_epik_Ionization_Penalty_Neutral>
  0.0117

> <r_epik_State_Penalty>
  0.3728

> <r_epik_Charging_Adjusted_Penalty>
0.391747256074372

> <i_epik_Tot_Q>
1

> <i_epik_Tot_abs_Q>
1

$$$$
