2yme_ligand
                    3D
 Schrodinger Suite 2020-3.
 48 51  0  0  1  0            999 V2000
  -10.1950   70.8590    2.2680 O   0  0  0  0  0  0
  -11.4300   70.8440    2.4440 C   0  0  0  0  0  0
  -12.3710   70.9230    1.2130 C   0  0  0  0  0  0
  -11.9560   71.0490   -0.2170 C   0  0  0  0  0  0
  -10.7240   71.1210   -0.8900 C   0  0  0  0  0  0
  -10.7010   71.2420   -2.3000 C   0  0  0  0  0  0
  -11.9120   71.2900   -3.0290 C   0  0  0  0  0  0
  -13.1490   71.2190   -2.3530 C   0  0  0  0  0  0
  -13.1790   71.0990   -0.9550 C   0  0  0  0  0  0
  -14.2180   71.0080   -0.0400 N   0  0  0  0  0  0
  -15.6430   71.0240   -0.3810 C   0  0  0  0  0  0
  -13.7210   70.9080    1.2190 N   0  0  0  0  0  0
  -12.0110   70.5740    3.7640 N   0  0  0  0  0  0
  -11.2720   70.6890    5.0280 C   0  0  1  0  0  0
  -10.3070   69.6320    5.1360 C   0  0  0  0  0  0
   -8.8520   70.0060    5.2100 C   0  0  1  0  0  0
  -10.7980   72.1050    5.2030 C   0  0  0  0  0  0
   -9.3280   72.3590    5.2260 C   0  0  2  0  0  0
   -8.5250   71.3280    4.6390 N   0  3  1  0  0  0
   -7.1730   71.7180    4.4700 C   0  0  0  0  0  0
   -8.8360   72.5560    6.6680 C   0  0  0  0  0  0
   -8.8790   71.2260    7.4300 C   0  0  0  0  0  0
   -8.3810   70.0550    6.6120 C   0  0  0  0  0  0
   -9.7905   71.0838   -0.3285 H   0  0  0  0  0  0
   -9.7476   71.2983   -2.8253 H   0  0  0  0  0  0
  -11.8900   71.3820   -4.1149 H   0  0  0  0  0  0
  -14.0811   71.2574   -2.9168 H   0  0  0  0  0  0
  -15.7581   71.1133   -1.4713 H   0  0  0  0  0  0
  -16.1280   71.8804    0.1103 H   0  0  0  0  0  0
  -16.1126   70.0903   -0.0380 H   0  0  0  0  0  0
  -13.0678   70.2687    3.7706 H   0  0  0  0  0  0
  -11.8982   70.4707    5.9056 H   0  0  0  0  0  0
  -10.4989   69.0524    6.0510 H   0  0  0  0  0  0
  -10.3870   68.9715    4.2600 H   0  0  0  0  0  0
   -8.3408   69.2303    4.6210 H   0  0  0  0  0  0
  -11.1799   72.7241    4.3779 H   0  0  0  0  0  0
  -11.1691   72.5003    6.1601 H   0  0  0  0  0  0
   -9.1886   73.2257    4.5632 H   0  0  0  0  0  0
   -8.7648   71.2211    3.5708 H   0  0  0  0  0  0
   -6.6066   70.8907    4.0174 H   0  0  0  0  0  0
   -6.7383   71.9675    5.4491 H   0  0  0  0  0  0
   -7.1248   72.5984    3.8123 H   0  0  0  0  0  0
   -7.8014   72.9294    6.6546 H   0  0  0  0  0  0
   -9.4821   73.2845    7.1796 H   0  0  0  0  0  0
   -8.2472   71.2971    8.3276 H   0  0  0  0  0  0
   -9.9152   71.0071    7.7274 H   0  0  0  0  0  0
   -8.7086   69.1477    7.1407 H   0  0  0  0  0  0
   -7.2826   70.1123    6.6280 H   0  0  0  0  0  0
  1  2  2  0  0  0
  2  3  1  0  0  0
  2 13  1  0  0  0
  3  4  1  0  0  0
  3 12  2  0  0  0
  4  5  2  0  0  0
  4  9  1  0  0  0
  5  6  1  0  0  0
  5 24  1  0  0  0
  6  7  2  0  0  0
  6 25  1  0  0  0
  7  8  1  0  0  0
  7 26  1  0  0  0
  8  9  2  0  0  0
  8 27  1  0  0  0
  9 10  1  0  0  0
 10 11  1  0  0  0
 10 12  1  0  0  0
 11 28  1  0  0  0
 11 29  1  0  0  0
 11 30  1  0  0  0
 13 14  1  0  0  0
 13 31  1  0  0  0
 14 15  1  0  0  0
 14 17  1  0  0  0
 14 32  1  0  0  0
 15 16  1  0  0  0
 15 33  1  0  0  0
 15 34  1  0  0  0
 16 19  1  0  0  0
 16 23  1  0  0  0
 16 35  1  0  0  0
 17 18  1  0  0  0
 17 36  1  0  0  0
 17 37  1  0  0  0
 18 19  1  0  0  0
 18 21  1  0  0  0
 18 38  1  0  0  0
 19 20  1  0  0  0
 19 39  1  0  0  0
 20 40  1  0  0  0
 20 41  1  0  0  0
 20 42  1  0  0  0
 21 22  1  0  0  0
 21 43  1  0  0  0
 21 44  1  0  0  0
 22 23  1  0  0  0
 22 45  1  0  0  0
 22 46  1  0  0  0
 23 47  1  0  0  0
 23 48  1  0  0  0
M  CHG  1  19   1
M  END
> <s_m_source_file>
../2yme_ligand.sdf

> <i_m_source_file_index>
1

> <s_epik_input>
W0NIMl0xW0NIMl1bQ0gyXVtDQEBIXShbTkBIK10yW0NIM10pW0NIMl1bQ0BIXShbQ0gyXVtDQEhdMTIpW05IXUMoPU8pYzNubihbQ0gzXSljKGMzNClbY0hdW2NIXVtjSF1bY0hdNA==

> <s_epik_cmdline>
J2VwaWtfYXBwJywgJy1pbWFlJywgJ2xpZ2FuZF9wcm8ubWFlJywgJy1vbWFlJywgJ2xpZ2FuZF9wcmVwLm1hZScsICctbXMnLCAnMScsICctcGgnLCAnNycsICctcGh0JywgJzAuNScsICctbnQn

> <r_lp_tautomer_probability>
1

> <r_epik_Ionization_Penalty>
  0.0014

> <r_epik_Ionization_Penalty_Charging>
  0.0014

> <r_epik_Ionization_Penalty_Neutral>
  0.0000

> <r_epik_State_Penalty>
 -0.0000

> <r_epik_Charging_Adjusted_Penalty>
0.00141018615900245

> <i_epik_Tot_Q>
1

> <i_epik_Tot_abs_Q>
1

$$$$
