2ymt_ligand
                    3D
 Schrodinger Suite 2020-3.
105109  0  0  1  0            999 V2000
  -17.2370   11.0940   12.2380 N   0  3  0  0  0  0
  -17.2540   10.1310   13.3330 C   0  0  2  0  0  0
  -15.8970    9.4490   13.5210 C   0  0  0  0  0  0
  -15.4360    9.2810   14.6480 O   0  0  0  0  0  0
  -18.3670    9.0980   13.1280 C   0  0  0  0  0  0
  -19.4450    9.1310   14.2080 C   0  0  0  0  0  0
  -20.8430    8.8670   13.6650 C   0  0  0  0  0  0
  -20.9590    8.3710   12.5230 O   0  0  0  0  0  0
  -21.8250    9.1680   14.3790 O   0  5  0  0  0  0
  -15.2610    9.0560   12.4200 N   0  0  0  0  0  0
  -13.9190    8.4810   12.4940 C   0  0  2  0  0  0
  -12.8440    9.5620   12.4320 C   0  0  0  0  0  0
  -12.9870   10.5590   11.7290 O   0  0  0  0  0  0
  -13.6750    7.4870   11.3590 C   0  0  0  0  0  0
  -14.3520    6.1650   11.5070 C   0  0  0  0  0  0
  -15.5730    5.8140   11.0130 C   0  0  0  0  0  0
  -13.8350    4.9980   12.1640 C   0  0  0  0  0  0
  -15.8560    4.5060   11.3300 N   0  3  0  0  0  0
  -14.8050    3.9830   12.0350 C   0  0  0  0  0  0
  -12.6530    4.7150   12.8560 C   0  0  0  0  0  0
  -14.6280    2.7090   12.5690 C   0  0  0  0  0  0
  -12.4800    3.4520   13.3840 C   0  0  0  0  0  0
  -13.4640    2.4640   13.2390 C   0  0  0  0  0  0
  -11.7560    9.3460   13.1610 N   0  0  0  0  0  0
  -10.6110   10.2280   13.0870 C   0  0  0  0  0  0
   -9.8200    9.9720   11.8210 C   0  0  0  0  0  0
  -10.2030    9.1340   10.9990 O   0  0  0  0  0  0
   -8.7020   10.6890   11.6590 N   0  0  0  0  0  0
   -7.8300   10.5610   10.4890 C   0  0  2  0  0  0
   -7.0150    9.2740   10.5500 C   0  0  0  0  0  0
   -6.8070    8.7180   11.6330 O   0  0  0  0  0  0
   -6.9010   11.7660   10.6310 C   0  0  0  0  0  0
   -6.7970   11.9630   12.1010 C   0  0  0  0  0  0
   -8.1730   11.6590   12.6350 C   0  0  0  0  0  0
   -6.5600    8.8030    9.3970 N   0  0  0  0  0  0
   -5.6030    7.7110    9.3800 C   0  0  2  0  0  0
   -4.3230    8.1790   10.0520 C   0  0  0  0  0  0
   -3.8530    9.2900    9.8040 O   0  0  0  0  0  0
   -5.2930    7.2730    7.9540 C   0  0  0  0  0  0
   -6.3760    6.4950    7.2950 C   0  0  0  0  0  0
   -7.1610    6.9060    6.2620 C   0  0  0  0  0  0
   -6.7950    5.1620    7.6130 C   0  0  0  0  0  0
   -8.0400    5.9120    5.9110 N   0  3  0  0  0  0
   -7.8390    4.8310    6.7260 C   0  0  0  0  0  0
   -6.3850    4.2150    8.5540 C   0  0  0  0  0  0
   -8.4810    3.5960    6.7540 C   0  0  0  0  0  0
   -7.0280    2.9890    8.5870 C   0  0  0  0  0  0
   -8.0650    2.6900    7.6910 C   0  0  0  0  0  0
   -3.7770    7.3400   10.9240 N   0  0  0  0  0  0
   -2.4970    7.6260   11.5500 C   0  0  2  0  0  0
   -1.5270    6.5370   11.1330 C   0  0  0  0  0  0
   -1.8830    5.3610   11.1190 O   0  0  0  0  0  0
   -2.6190    7.6640   13.0920 C   0  0  0  0  0  0
   -1.2590    7.8880   13.7390 C   0  0  0  0  0  0
   -3.6030    8.7480   13.5170 C   0  0  0  0  0  0
   -0.3080    6.9270   10.7810 N   0  0  0  0  0  0
  -16.4321   11.8249   12.4050 H   0  0  0  0  0  0
  -18.2038   11.6168   12.1945 H   0  0  0  0  0  0
  -17.0623   10.5666   11.2886 H   0  0  0  0  0  0
  -17.4639   10.7359   14.2275 H   0  0  0  0  0  0
  -18.8647    9.2816   12.1644 H   0  0  0  0  0  0
  -17.9338    8.0869   13.1301 H   0  0  0  0  0  0
  -19.2304    8.3612   14.9639 H   0  0  0  0  0  0
  -19.4549   10.1216   14.6861 H   0  0  0  0  0  0
  -15.7582    9.1685   11.4452 H   0  0  0  0  0  0
  -13.9013    7.9729   13.4695 H   0  0  0  0  0  0
  -14.0350    7.9160   10.4122 H   0  0  0  0  0  0
  -12.5980    7.2773   11.2804 H   0  0  0  0  0  0
  -16.1711    6.5475   10.4525 H   0  0  0  0  0  0
  -11.8833    5.4774   12.9759 H   0  0  0  0  0  0
  -15.3895    1.9373   12.4564 H   0  0  0  0  0  0
  -11.5621    3.2183   13.9234 H   0  0  0  0  0  0
  -13.2958    1.4775   13.6711 H   0  0  0  0  0  0
  -11.7365    8.4745   13.8320 H   0  0  0  0  0  0
  -10.9529   11.2735   13.0876 H   0  0  0  0  0  0
   -9.9583   10.0552   13.9554 H   0  0  0  0  0  0
   -8.4195   10.5299    9.5608 H   0  0  0  0  0  0
   -5.9282   11.5350   10.1724 H   0  0  0  0  0  0
   -7.3476   12.6349   10.1254 H   0  0  0  0  0  0
   -6.0421   11.2757   12.5105 H   0  0  0  0  0  0
   -6.5004   13.0011   12.3118 H   0  0  0  0  0  0
   -8.8224   12.5465   12.6588 H   0  0  0  0  0  0
   -8.1463   11.1974   13.6331 H   0  0  0  0  0  0
   -6.9100    9.2424    8.4512 H   0  0  0  0  0  0
   -6.0722    6.8794    9.9262 H   0  0  0  0  0  0
   -5.1125    8.1600    7.3290 H   0  0  0  0  0  0
   -4.3968    6.6352    7.9529 H   0  0  0  0  0  0
   -7.0301    7.9127    5.8385 H   0  0  0  0  0  0
   -5.5749    4.4365    9.2488 H   0  0  0  0  0  0
   -9.2843    3.3599    6.0561 H   0  0  0  0  0  0
   -6.7231    2.2437    9.3217 H   0  0  0  0  0  0
   -8.5497    1.7151    7.7423 H   0  0  0  0  0  0
   -4.3143    6.4122   11.1697 H   0  0  0  0  0  0
   -2.1783    8.6124   11.1819 H   0  0  0  0  0  0
   -2.9987    6.6958   13.4503 H   0  0  0  0  0  0
   -0.5659    7.0959   13.4192 H   0  0  0  0  0  0
   -1.3650    7.8625   14.8336 H   0  0  0  0  0  0
   -0.8636    8.8674   13.4316 H   0  0  0  0  0  0
   -4.5770    8.5670   13.0389 H   0  0  0  0  0  0
   -3.2203    9.7320   13.2084 H   0  0  0  0  0  0
   -3.7217    8.7272   14.6104 H   0  0  0  0  0  0
   -0.0415    7.9938   10.8120 H   0  0  0  0  0  0
    0.4356    6.1834   10.4583 H   0  0  0  0  0  0
   -8.7503    6.0719    5.0865 H   0  0  0  0  0  0
  -16.8091    4.0572   11.0136 H   0  0  0  0  0  0
  1  2  1  0  0  0
  1 57  1  0  0  0
  1 58  1  0  0  0
  1 59  1  0  0  0
  2  3  1  0  0  0
  2  5  1  0  0  0
  2 60  1  0  0  0
  3  4  2  0  0  0
  3 10  1  0  0  0
  5  6  1  0  0  0
  5 61  1  0  0  0
  5 62  1  0  0  0
  6  7  1  0  0  0
  6 63  1  0  0  0
  6 64  1  0  0  0
  7  8  2  0  0  0
  7  9  1  0  0  0
 10 11  1  0  0  0
 10 65  1  0  0  0
 11 12  1  0  0  0
 11 14  1  0  0  0
 11 66  1  0  0  0
 12 13  2  0  0  0
 12 24  1  0  0  0
 14 15  1  0  0  0
 14 67  1  0  0  0
 14 68  1  0  0  0
 15 16  2  0  0  0
 15 17  1  0  0  0
 16 18  1  0  0  0
 16 69  1  0  0  0
 17 19  2  0  0  0
 17 20  1  0  0  0
 18 19  1  0  0  0
 18105  1  0  0  0
 19 21  1  0  0  0
 20 22  2  0  0  0
 20 70  1  0  0  0
 21 23  2  0  0  0
 21 71  1  0  0  0
 22 23  1  0  0  0
 22 72  1  0  0  0
 23 73  1  0  0  0
 24 25  1  0  0  0
 24 74  1  0  0  0
 25 26  1  0  0  0
 25 75  1  0  0  0
 25 76  1  0  0  0
 26 27  2  0  0  0
 26 28  1  0  0  0
 28 29  1  0  0  0
 28 34  1  0  0  0
 29 30  1  0  0  0
 29 32  1  0  0  0
 29 77  1  0  0  0
 30 31  2  0  0  0
 30 35  1  0  0  0
 32 33  1  0  0  0
 32 78  1  0  0  0
 32 79  1  0  0  0
 33 34  1  0  0  0
 33 80  1  0  0  0
 33 81  1  0  0  0
 34 82  1  0  0  0
 34 83  1  0  0  0
 35 36  1  0  0  0
 35 84  1  0  0  0
 36 37  1  0  0  0
 36 39  1  0  0  0
 36 85  1  0  0  0
 37 38  2  0  0  0
 37 49  1  0  0  0
 39 40  1  0  0  0
 39 86  1  0  0  0
 39 87  1  0  0  0
 40 41  2  0  0  0
 40 42  1  0  0  0
 41 43  1  0  0  0
 41 88  1  0  0  0
 42 44  2  0  0  0
 42 45  1  0  0  0
 43 44  1  0  0  0
 43104  1  0  0  0
 44 46  1  0  0  0
 45 47  2  0  0  0
 45 89  1  0  0  0
 46 48  2  0  0  0
 46 90  1  0  0  0
 47 48  1  0  0  0
 47 91  1  0  0  0
 48 92  1  0  0  0
 49 50  1  0  0  0
 49 93  1  0  0  0
 50 51  1  0  0  0
 50 53  1  0  0  0
 50 94  1  0  0  0
 51 52  2  0  0  0
 51 56  1  0  0  0
 53 54  1  0  0  0
 53 55  1  0  0  0
 53 95  1  0  0  0
 54 96  1  0  0  0
 54 97  1  0  0  0
 54 98  1  0  0  0
 55 99  1  0  0  0
 55100  1  0  0  0
 55101  1  0  0  0
 56102  1  0  0  0
 56103  1  0  0  0
M  CHG  4   1   1   9  -1  18   1  43   1
M  END
> <s_m_source_file>
../2ymt_ligand.sdf

> <i_m_source_file_index>
1

> <s_epik_input>
W2NIXTFbY0hdW2NIXVtjSF1jKGMxMilbbkhdW2NIXWMyW0NIMl1bQ0BIXShbTkhdQyg9TylbQ0BASF0oW05IMytdKVtDSDJdW0NIMl1DKD1PKVtPSF0pQyg9TylbTkhdW0NIMl1DKD1PKU4zW0NAQEhdKFtDSDJdW0NIMl1bQ0gyXTMpQyg9TylbTkhdW0NASF0oQyg9TylbTkhdW0NASF0oQyg9TylbTkgyXSlbQ0hdKFtDSDNdKVtDSDNdKVtDSDJdYzRbY0hdW25IXWMoYzQ1KVtjSF1bY0hdW2NIXVtjSF01

> <s_epik_cmdline>
J2VwaWtfYXBwJywgJy1pbWFlJywgJ2xpZ2FuZF9wcm8ubWFlJywgJy1vbWFlJywgJ2xpZ2FuZF9wcmVwLm1hZScsICctbXMnLCAnMScsICctcGgnLCAnNycsICctcGh0JywgJzAuNScsICctbnQn

> <r_epik_Ionization_Penalty>
  0.0812

> <r_epik_Ionization_Penalty_Charging>
  0.0812

> <r_epik_Ionization_Penalty_Neutral>
  0.0000

> <r_epik_State_Penalty>
  0.0710

> <r_epik_Charging_Adjusted_Penalty>
0.152227160876073

> <i_epik_Tot_Q>
2

> <i_epik_Tot_abs_Q>
4

$$$$
