2ynd_ligand
                    3D
 Schrodinger Suite 2020-3.
 57 60  0  0  1  0            999 V2000
  -20.9130   10.5990  -25.7300 C   0  0  0  0  0  0
  -25.9680   12.1440  -26.4570 C   0  0  0  0  0  0
  -25.6380   10.8960  -23.7680 C   0  0  0  0  0  0
  -21.0630   13.4850  -26.8280 O   0  0  0  0  0  0
  -21.4930   13.3780  -29.3120 O   0  0  0  0  0  0
  -24.7160   13.5590  -29.7220 Cl  0  0  0  0  0  0
  -21.6920   15.7720  -25.5930 Cl  0  0  0  0  0  0
  -28.8780   17.5230  -26.7580 C   0  0  0  0  0  0
  -27.6820   17.0370  -27.2870 C   0  0  0  0  0  0
  -25.4640   15.4590  -27.9570 C   0  0  0  0  0  0
  -24.1550   16.3910  -26.2110 C   0  0  0  0  0  0
  -26.6260   17.4980  -25.1670 C   0  0  0  0  0  0
  -29.4310   19.5100  -21.4520 C   0  0  0  0  0  0
  -27.1520   18.8770  -21.1340 C   0  0  0  0  0  0
  -29.3670   18.7590  -22.8080 C   0  0  0  0  0  0
  -26.7730   18.7330  -22.5900 C   0  0  0  0  0  0
  -28.9410   17.9640  -25.4900 N   0  0  0  0  0  0
  -23.1640   10.5840  -24.4350 N   0  0  0  0  0  0
  -28.1110   19.9910  -20.9920 N   0  3  0  0  0  0
  -22.7900   11.9910  -27.8460 N   0  0  0  0  0  0
  -22.3620   10.8420  -25.5370 C   0  0  0  0  0  0
  -24.6220   11.6330  -25.9890 C   0  0  0  0  0  0
  -24.4160   14.6140  -28.3090 C   0  0  0  0  0  0
  -23.1310   15.5210  -26.5750 C   0  0  0  0  0  0
  -26.5090   17.1250  -26.5320 C   0  0  0  0  0  0
  -25.3160   16.4180  -26.9590 C   0  0  0  0  0  0
  -27.8610   17.9720  -24.6640 C   0  0  0  0  0  0
  -23.2410   11.5050  -26.5390 C   0  0  0  0  0  0
  -23.1950   14.5950  -27.6410 C   0  0  0  0  0  0
  -28.0010   18.4740  -23.3410 N   0  0  0  0  0  0
  -24.5270   10.9080  -24.7380 N   0  0  0  0  0  0
  -22.0240   13.4290  -27.9420 S   0  0  0  0  0  0
  -20.5040   10.0959  -24.8414 H   0  0  0  0  0  0
  -20.3968   11.5590  -25.8780 H   0  0  0  0  0  0
  -20.7626    9.9617  -26.6139 H   0  0  0  0  0  0
  -25.8482   12.6657  -27.4180 H   0  0  0  0  0  0
  -26.3756   12.8408  -25.7098 H   0  0  0  0  0  0
  -26.6581   11.2968  -26.5832 H   0  0  0  0  0  0
  -25.3557   10.2896  -22.8947 H   0  0  0  0  0  0
  -26.5326   10.4643  -24.2405 H   0  0  0  0  0  0
  -25.8542   11.9252  -23.4454 H   0  0  0  0  0  0
  -29.7723   17.5453  -27.3807 H   0  0  0  0  0  0
  -27.6625   16.5919  -28.2818 H   0  0  0  0  0  0
  -26.4198   15.3682  -28.4730 H   0  0  0  0  0  0
  -24.0419   17.0437  -25.3454 H   0  0  0  0  0  0
  -25.7633   17.4191  -24.5055 H   0  0  0  0  0  0
  -30.0893   20.3859  -21.5487 H   0  0  0  0  0  0
  -29.8281   18.8365  -20.6782 H   0  0  0  0  0  0
  -27.6147   17.9434  -20.7815 H   0  0  0  0  0  0
  -26.2506   19.0868  -20.5395 H   0  0  0  0  0  0
  -29.8640   17.7826  -22.7102 H   0  0  0  0  0  0
  -29.8760   19.3536  -23.5809 H   0  0  0  0  0  0
  -26.2981   19.6618  -22.9388 H   0  0  0  0  0  0
  -26.0688   17.8957  -22.7045 H   0  0  0  0  0  0
  -27.7973   20.8464  -21.6084 H   0  0  0  0  0  0
  -28.1809   20.3034  -19.9396 H   0  0  0  0  0  0
  -22.9627   11.3980  -28.7562 H   0  0  0  0  0  0
  1 21  1  0  0  0
  1 33  1  0  0  0
  1 34  1  0  0  0
  1 35  1  0  0  0
  2 22  1  0  0  0
  2 36  1  0  0  0
  2 37  1  0  0  0
  2 38  1  0  0  0
  3 31  1  0  0  0
  3 39  1  0  0  0
  3 40  1  0  0  0
  3 41  1  0  0  0
  4 32  2  0  0  0
  5 32  2  0  0  0
  6 23  1  0  0  0
  7 24  1  0  0  0
  8  9  2  0  0  0
  8 17  1  0  0  0
  8 42  1  0  0  0
  9 25  1  0  0  0
  9 43  1  0  0  0
 10 23  2  0  0  0
 10 26  1  0  0  0
 10 44  1  0  0  0
 11 24  1  0  0  0
 11 26  2  0  0  0
 11 45  1  0  0  0
 12 25  2  0  0  0
 12 27  1  0  0  0
 12 46  1  0  0  0
 13 15  1  0  0  0
 13 19  1  0  0  0
 13 47  1  0  0  0
 13 48  1  0  0  0
 14 16  1  0  0  0
 14 19  1  0  0  0
 14 49  1  0  0  0
 14 50  1  0  0  0
 15 30  1  0  0  0
 15 51  1  0  0  0
 15 52  1  0  0  0
 16 30  1  0  0  0
 16 53  1  0  0  0
 16 54  1  0  0  0
 17 27  2  0  0  0
 18 21  2  0  0  0
 18 31  1  0  0  0
 19 55  1  0  0  0
 19 56  1  0  0  0
 20 28  1  0  0  0
 20 32  1  0  0  0
 20 57  1  0  0  0
 21 28  1  0  0  0
 22 28  2  0  0  0
 22 31  1  0  0  0
 23 29  1  0  0  0
 24 29  2  0  0  0
 25 26  1  0  0  0
 27 30  1  0  0  0
 29 32  1  0  0  0
M  CHG  1  19   1
M  END
> <s_m_source_file>
../2ynd_ligand.sdf

> <i_m_source_file_index>
1

> <s_epik_input>
W0NIM11jMW5uKFtDSDNdKWMoW0NIM10pYzFbTkhdUyg9TykoPU8pYzJjKENsKVtjSF1jKFtjSF1jMkNsKS1jM1tjSF1bY0hdbmMoW2NIXTMpTjRbQ0gyXVtDSDJdW05IMitdW0NIMl1bQ0gyXTQ=

> <s_epik_cmdline>
J2VwaWtfYXBwJywgJy1pbWFlJywgJ2xpZ2FuZF9wcm8ubWFlJywgJy1vbWFlJywgJ2xpZ2FuZF9wcmVwLm1hZScsICctbXMnLCAnMScsICctcGgnLCAnNycsICctcGh0JywgJzAuNScsICctbnQn

> <r_lp_tautomer_probability>
1

> <r_epik_Ionization_Penalty>
  0.1048

> <r_epik_Ionization_Penalty_Charging>
  0.0098

> <r_epik_Ionization_Penalty_Neutral>
  0.0950

> <r_epik_State_Penalty>
 -0.0000

> <r_epik_Charging_Adjusted_Penalty>
0.00980526447341532

> <i_epik_Tot_Q>
1

> <i_epik_Tot_abs_Q>
1

$$$$
