2yne_ligand
                    3D
 Schrodinger Suite 2020-3.
 56 60  0  0  1  0            999 V2000
   27.1580   47.9330   63.6190 C   0  0  0  0  0  0
   25.6610   47.8600   63.4670 C   0  0  0  0  0  0
   24.7650   48.6700   63.9760 N   0  0  0  0  0  0
   25.0110   49.7850   64.9320 C   0  0  0  0  0  0
   23.4750   48.3330   63.6180 N   0  0  0  0  0  0
   24.9080   46.8860   62.6570 C   0  0  0  0  0  0
   23.4940   47.2720   62.7890 C   0  0  0  0  0  0
   22.2260   46.6440   62.2240 C   0  0  0  0  0  0
   25.4780   45.8010   61.8130 C   0  0  0  0  0  0
   25.4560   44.5380   62.5990 C   0  0  0  0  0  0
   24.2790   43.8740   62.8610 O   0  0  0  0  0  0
   24.7410   42.8500   63.5100 C   0  0  0  0  0  0
   26.0350   42.7690   63.7410 N   0  0  0  0  0  0
   26.5450   43.9280   63.0700 N   0  0  0  0  0  0
   23.7150   41.9380   63.9690 C   0  0  0  0  0  0
   22.1280   41.9130   63.3580 S   0  0  0  0  0  0
   21.5340   40.6840   64.3190 C   0  0  0  0  0  0
   20.2250   40.1670   64.3750 C   0  0  0  0  0  0
   19.9520   39.0970   65.3060 C   0  0  0  0  0  0
   20.9950   38.5890   66.1200 C   0  0  0  0  0  0
   22.3420   39.0780   66.1200 C   0  0  0  0  0  0
   22.6030   40.1630   65.2130 C   0  0  0  0  0  0
   23.8660   40.8890   65.0170 C   0  0  0  0  0  0
   25.0110   40.6610   65.6870 O   0  0  0  0  0  0
   24.8100   40.6560   67.1520 C   0  0  0  0  0  0
   25.7510   39.6040   67.7810 C   0  0  0  0  0  0
   27.2530   39.8850   67.4480 C   0  0  0  0  0  0
   27.5420   41.2410   68.0050 N   0  3  0  0  0  0
   26.6410   42.3150   67.4930 C   0  0  0  0  0  0
   25.1190   42.0700   67.6590 C   0  0  0  0  0  0
   27.4184   48.7666   64.2879 H   0  0  0  0  0  0
   27.6191   48.0957   62.6336 H   0  0  0  0  0  0
   27.5295   46.9900   64.0465 H   0  0  0  0  0  0
   26.0934   49.8999   65.0906 H   0  0  0  0  0  0
   24.5217   49.5602   65.8912 H   0  0  0  0  0  0
   24.5996   50.7184   64.5203 H   0  0  0  0  0  0
   21.3519   47.2280   62.5479 H   0  0  0  0  0  0
   22.1334   45.6112   62.5910 H   0  0  0  0  0  0
   22.2773   46.6395   61.1252 H   0  0  0  0  0  0
   24.8723   45.6889   60.9016 H   0  0  0  0  0  0
   26.5119   46.0558   61.5371 H   0  0  0  0  0  0
   19.4388   40.5639   63.7327 H   0  0  0  0  0  0
   18.9471   38.6816   65.3823 H   0  0  0  0  0  0
   20.7553   37.7671   66.7947 H   0  0  0  0  0  0
   23.1150   38.6568   66.7628 H   0  0  0  0  0  0
   23.7684   40.3926   67.3882 H   0  0  0  0  0  0
   25.6345   39.6152   68.8748 H   0  0  0  0  0  0
   25.4953   38.6061   67.3953 H   0  0  0  0  0  0
   27.8830   39.1159   67.9188 H   0  0  0  0  0  0
   27.3977   39.8606   66.3578 H   0  0  0  0  0  0
   27.4304   41.2193   69.0991 H   0  0  0  0  0  0
   28.5711   41.5317   67.7471 H   0  0  0  0  0  0
   26.8557   43.2561   68.0205 H   0  0  0  0  0  0
   26.8100   42.4523   66.4148 H   0  0  0  0  0  0
   24.5492   42.8035   67.0697 H   0  0  0  0  0  0
   24.8342   42.1501   68.7185 H   0  0  0  0  0  0
  1  2  1  0  0  0
  1 31  1  0  0  0
  1 32  1  0  0  0
  1 33  1  0  0  0
  2  3  1  0  0  0
  2  6  2  0  0  0
  3  4  1  0  0  0
  3  5  1  0  0  0
  4 34  1  0  0  0
  4 35  1  0  0  0
  4 36  1  0  0  0
  5  7  2  0  0  0
  6  7  1  0  0  0
  6  9  1  0  0  0
  7  8  1  0  0  0
  8 37  1  0  0  0
  8 38  1  0  0  0
  8 39  1  0  0  0
  9 10  1  0  0  0
  9 40  1  0  0  0
  9 41  1  0  0  0
 10 11  1  0  0  0
 10 14  2  0  0  0
 11 12  1  0  0  0
 12 13  2  0  0  0
 12 15  1  0  0  0
 13 14  1  0  0  0
 15 16  1  0  0  0
 15 23  2  0  0  0
 16 17  1  0  0  0
 17 18  1  0  0  0
 17 22  2  0  0  0
 18 19  2  0  0  0
 18 42  1  0  0  0
 19 20  1  0  0  0
 19 43  1  0  0  0
 20 21  2  0  0  0
 20 44  1  0  0  0
 21 22  1  0  0  0
 21 45  1  0  0  0
 22 23  1  0  0  0
 23 24  1  0  0  0
 24 25  1  0  0  0
 25 26  1  0  0  0
 25 30  1  0  0  0
 25 46  1  0  0  0
 26 27  1  0  0  0
 26 47  1  0  0  0
 26 48  1  0  0  0
 27 28  1  0  0  0
 27 49  1  0  0  0
 27 50  1  0  0  0
 28 29  1  0  0  0
 28 51  1  0  0  0
 28 52  1  0  0  0
 29 30  1  0  0  0
 29 53  1  0  0  0
 29 54  1  0  0  0
 30 55  1  0  0  0
 30 56  1  0  0  0
M  CHG  1  28   1
M  END
> <s_m_source_file>
../2yne_ligand.sdf

> <i_m_source_file_index>
1

> <s_epik_input>
W0NIM11jMW4oW0NIM10pbmMoW0NIM10pYzFbQ0gyXWMyb2Mobm4yKS1jKHMzKWMoYyhjMzQpW2NIXVtjSF1bY0hdW2NIXTQpT1tDSF01W0NIMl1bQ0gyXVtOSDIrXVtDSDJdW0NIMl01

> <s_epik_cmdline>
J2VwaWtfYXBwJywgJy1pbWFlJywgJ2xpZ2FuZF9wcm8ubWFlJywgJy1vbWFlJywgJ2xpZ2FuZF9wcmVwLm1hZScsICctbXMnLCAnMScsICctcGgnLCAnNycsICctcGh0JywgJzAuNScsICctbnQn

> <r_lp_tautomer_probability>
1

> <r_epik_Ionization_Penalty>
  0.0111

> <r_epik_Ionization_Penalty_Charging>
  0.0016

> <r_epik_Ionization_Penalty_Neutral>
  0.0094

> <r_epik_State_Penalty>
 -0.0000

> <r_epik_Charging_Adjusted_Penalty>
0.00164637616491845

> <i_epik_Tot_Q>
1

> <i_epik_Tot_abs_Q>
1

$$$$
