2ynn_ligand
                    3D
 Schrodinger Suite 2020-3.
134134  0  0  1  0            999 V2000
  -73.6470   44.9290  -16.9950 N   0  3  0  0  0  0
  -73.7190   46.3240  -16.5660 C   0  0  2  0  0  0
  -73.0550   47.2650  -17.5610 C   0  0  0  0  0  0
  -72.0590   46.9140  -18.1990 O   0  0  0  0  0  0
  -73.0820   46.4960  -15.1830 C   0  0  0  0  0  0
  -73.9150   45.5280  -13.9160 S   0  0  0  0  0  0
  -73.6080   48.4680  -17.6760 N   0  0  0  0  0  0
  -73.0940   49.4680  -18.6110 C   0  0  2  0  0  0
  -71.6420   49.8380  -18.3130 C   0  0  0  0  0  0
  -70.8060   49.9050  -19.2180 O   0  0  0  0  0  0
  -73.9590   50.7380  -18.5930 C   0  0  2  0  0  0
  -75.3050   50.3960  -18.9480 O   0  0  0  0  0  0
  -73.4170   51.7700  -19.5660 C   0  0  0  0  0  0
  -71.3450   50.0790  -17.0410 N   0  0  0  0  0  0
  -69.9840   50.4130  -16.6360 C   0  0  2  0  0  0
  -69.4340   49.4030  -15.6430 C   0  0  0  0  0  0
  -70.1470   48.9340  -14.7610 O   0  0  0  0  0  0
  -69.9340   51.8060  -16.0080 C   0  0  0  0  0  0
  -70.4180   52.8930  -16.9130 C   0  0  0  0  0  0
  -69.6850   53.2540  -18.0330 C   0  0  0  0  0  0
  -71.6050   53.5620  -16.6450 C   0  0  0  0  0  0
  -70.1300   54.2610  -18.8760 C   0  0  0  0  0  0
  -72.0550   54.5710  -17.4820 C   0  0  0  0  0  0
  -71.3160   54.9210  -18.5990 C   0  0  0  0  0  0
  -68.1650   49.0510  -15.8080 N   0  0  0  0  0  0
  -67.4260   48.3890  -14.7430 C   0  0  2  0  0  0
  -66.1030   49.1200  -14.5720 C   0  0  0  0  0  0
  -65.1100   48.7750  -15.2120 O   0  0  0  0  0  0
  -67.1780   46.9120  -15.0420 C   0  0  0  0  0  0
  -66.4580   46.1980  -13.8980 C   0  0  0  0  0  0
  -65.8280   44.8900  -14.3340 C   0  0  0  0  0  0
  -66.7370   43.7120  -14.0550 C   0  0  0  0  0  0
  -66.1240   42.4390  -14.5380 N   0  3  0  0  0  0
  -66.0980   50.1470  -13.7290 N   0  0  0  0  0  0
  -64.8760   50.8940  -13.4670 C   0  0  2  0  0  0
  -63.8800   49.9850  -12.7360 C   0  0  0  0  0  0
  -64.2660   49.0840  -11.9930 O   0  0  0  0  0  0
  -65.1560   52.1970  -12.6830 C   0  0  2  0  0  0
  -66.1780   52.9440  -13.3570 O   0  0  0  0  0  0
  -63.9010   53.0590  -12.5850 C   0  0  0  0  0  0
  -62.6000   50.2100  -12.9890 N   0  0  0  0  0  0
  -61.5340   49.3510  -12.4990 C   0  0  2  0  0  0
  -61.1200   49.7640  -11.0900 C   0  0  0  0  0  0
  -60.1830   50.5460  -10.9200 O   0  0  0  0  0  0
  -60.3380   49.4930  -13.4310 C   0  0  0  0  0  0
  -60.5040   48.7900  -14.7670 C   0  0  0  0  0  0
  -59.3790   47.7980  -14.9470 C   0  0  0  0  0  0
  -59.5910   46.9320  -16.1770 C   0  0  0  0  0  0
  -59.0470   45.5640  -15.9440 N   0  3  0  0  0  0
  -61.8240   49.2590  -10.0820 N   0  0  0  0  0  0
  -61.5080   49.6270   -8.7050 C   0  0  2  0  0  0
  -60.9530   48.4510   -7.9010 C   0  0  0  0  0  0
  -60.3410   48.6490   -6.8510 O   0  0  0  0  0  0
  -62.7560   50.2070   -7.9910 C   0  0  2  0  0  0
  -63.8740   49.3680   -8.2820 O   0  0  0  0  0  0
  -63.0660   51.6040   -8.5100 C   0  0  0  0  0  0
  -61.1590   47.2290   -8.3870 N   0  0  0  0  0  0
  -60.6520   46.0560   -7.6720 C   0  0  2  0  0  0
  -59.1660   45.7680   -7.9110 C   0  0  0  0  0  0
  -58.6310   44.7940   -7.3560 O   0  0  0  0  0  0
  -61.5030   44.8110   -7.9490 C   0  0  0  0  0  0
  -61.6450   44.5130   -9.4180 C   0  0  0  0  0  0
  -61.1190   45.2370  -10.2660 O   0  0  0  0  0  0
  -62.3600   43.4330   -9.7370 N   0  0  0  0  0  0
  -58.4800   46.5100   -8.6430 O   0  5  0  0  0  0
  -74.1087   44.8265  -17.9882 H   0  0  0  0  0  0
  -74.1841   44.2954  -16.2738 H   0  0  0  0  0  0
  -72.5940   44.6150  -17.0459 H   0  0  0  0  0  0
  -74.7960   46.5452  -16.5338 H   0  0  0  0  0  0
  -72.0314   46.1724  -15.2204 H   0  0  0  0  0  0
  -73.1293   47.5542  -14.8865 H   0  0  0  0  0  0
  -73.5583   45.5602  -12.8760 H   0  0  0  0  0  0
  -74.4763   48.7022  -17.0426 H   0  0  0  0  0  0
  -73.1511   48.9677  -19.5890 H   0  0  0  0  0  0
  -74.0047   51.1729  -17.5837 H   0  0  0  0  0  0
  -75.8609   49.6585  -18.3505 H   0  0  0  0  0  0
  -72.3844   52.0285  -19.2888 H   0  0  0  0  0  0
  -74.0436   52.6733  -19.5291 H   0  0  0  0  0  0
  -73.4304   51.3558  -20.5849 H   0  0  0  0  0  0
  -72.1449   50.0235  -16.2880 H   0  0  0  0  0  0
  -69.4008   50.3754  -17.5679 H   0  0  0  0  0  0
  -70.5656   51.8251  -15.1076 H   0  0  0  0  0  0
  -68.8966   52.0474  -15.7333 H   0  0  0  0  0  0
  -68.7489   52.7408  -18.2532 H   0  0  0  0  0  0
  -72.1897   53.2904  -15.7661 H   0  0  0  0  0  0
  -69.5471   54.5330  -19.7559 H   0  0  0  0  0  0
  -72.9889   55.0879  -17.2611 H   0  0  0  0  0  0
  -71.6666   55.7143  -19.2592 H   0  0  0  0  0  0
  -67.6722   49.2668  -16.7675 H   0  0  0  0  0  0
  -68.0542   48.4524  -13.8422 H   0  0  0  0  0  0
  -68.1400   46.4047  -15.2066 H   0  0  0  0  0  0
  -66.5558   46.8200  -15.9445 H   0  0  0  0  0  0
  -65.6586   46.8449  -13.5074 H   0  0  0  0  0  0
  -67.1758   45.9765  -13.0945 H   0  0  0  0  0  0
  -65.6250   44.9230  -15.4146 H   0  0  0  0  0  0
  -64.8852   44.7373  -13.7884 H   0  0  0  0  0  0
  -66.9110   43.6317  -12.9718 H   0  0  0  0  0  0
  -67.6973   43.8597  -14.5707 H   0  0  0  0  0  0
  -66.8031   41.6006  -14.3236 H   0  0  0  0  0  0
  -65.1655   42.2753  -14.0236 H   0  0  0  0  0  0
  -65.9518   42.5033  -15.6225 H   0  0  0  0  0  0
  -67.0344   50.4304  -13.2261 H   0  0  0  0  0  0
  -64.4775   51.1720  -14.4539 H   0  0  0  0  0  0
  -65.5359   51.9704  -11.6759 H   0  0  0  0  0  0
  -67.1667   52.4931  -13.5278 H   0  0  0  0  0  0
  -63.1090   52.4962  -12.0693 H   0  0  0  0  0  0
  -64.1283   53.9745  -12.0191 H   0  0  0  0  0  0
  -63.5610   53.3278  -13.5960 H   0  0  0  0  0  0
  -62.3584   51.0927  -13.5994 H   0  0  0  0  0  0
  -61.9290   48.3244  -12.4896 H   0  0  0  0  0  0
  -60.1648   50.5579  -13.6456 H   0  0  0  0  0  0
  -59.4456   49.0661  -12.9500 H   0  0  0  0  0  0
  -61.4690   48.2624  -14.7863 H   0  0  0  0  0  0
  -60.4758   49.5325  -15.5781 H   0  0  0  0  0  0
  -58.4281   48.3389  -15.0621 H   0  0  0  0  0  0
  -59.3236   47.1425  -14.0654 H   0  0  0  0  0  0
  -60.6671   46.8593  -16.3932 H   0  0  0  0  0  0
  -59.0740   47.3832  -17.0367 H   0  0  0  0  0  0
  -59.2069   44.9481  -16.8413 H   0  0  0  0  0  0
  -59.5629   45.1052  -15.0876 H   0  0  0  0  0  0
  -57.9698   45.6292  -15.7311 H   0  0  0  0  0  0
  -62.6482   48.5606  -10.2893 H   0  0  0  0  0  0
  -60.7167   50.3830   -8.8156 H   0  0  0  0  0  0
  -62.6270   50.2228   -6.8987 H   0  0  0  0  0  0
  -63.8571   48.3079   -7.9890 H   0  0  0  0  0  0
  -62.2174   52.2708   -8.2972 H   0  0  0  0  0  0
  -63.9683   51.9883   -8.0119 H   0  0  0  0  0  0
  -63.2363   51.5623   -9.5959 H   0  0  0  0  0  0
  -61.7123   47.1021   -9.3292 H   0  0  0  0  0  0
  -60.7612   46.3632   -6.6214 H   0  0  0  0  0  0
  -61.0374   43.9353   -7.4731 H   0  0  0  0  0  0
  -62.5127   44.9581   -7.5380 H   0  0  0  0  0  0
  -62.8103   42.8176   -8.9442 H   0  0  0  0  0  0
  -62.4993   43.1578  -10.7929 H   0  0  0  0  0  0
  1  2  1  0  0  0
  1 66  1  0  0  0
  1 67  1  0  0  0
  1 68  1  0  0  0
  2  3  1  0  0  0
  2  5  1  0  0  0
  2 69  1  0  0  0
  3  4  2  0  0  0
  3  7  1  0  0  0
  5  6  1  0  0  0
  5 70  1  0  0  0
  5 71  1  0  0  0
  6 72  1  0  0  0
  7  8  1  0  0  0
  7 73  1  0  0  0
  8  9  1  0  0  0
  8 11  1  0  0  0
  8 74  1  0  0  0
  9 10  2  0  0  0
  9 14  1  0  0  0
 11 12  1  0  0  0
 11 13  1  0  0  0
 11 75  1  0  0  0
 12 76  1  0  0  0
 13 77  1  0  0  0
 13 78  1  0  0  0
 13 79  1  0  0  0
 14 15  1  0  0  0
 14 80  1  0  0  0
 15 16  1  0  0  0
 15 18  1  0  0  0
 15 81  1  0  0  0
 16 17  2  0  0  0
 16 25  1  0  0  0
 18 19  1  0  0  0
 18 82  1  0  0  0
 18 83  1  0  0  0
 19 20  2  0  0  0
 19 21  1  0  0  0
 20 22  1  0  0  0
 20 84  1  0  0  0
 21 23  2  0  0  0
 21 85  1  0  0  0
 22 24  2  0  0  0
 22 86  1  0  0  0
 23 24  1  0  0  0
 23 87  1  0  0  0
 24 88  1  0  0  0
 25 26  1  0  0  0
 25 89  1  0  0  0
 26 27  1  0  0  0
 26 29  1  0  0  0
 26 90  1  0  0  0
 27 28  2  0  0  0
 27 34  1  0  0  0
 29 30  1  0  0  0
 29 91  1  0  0  0
 29 92  1  0  0  0
 30 31  1  0  0  0
 30 93  1  0  0  0
 30 94  1  0  0  0
 31 32  1  0  0  0
 31 95  1  0  0  0
 31 96  1  0  0  0
 32 33  1  0  0  0
 32 97  1  0  0  0
 32 98  1  0  0  0
 33 99  1  0  0  0
 33100  1  0  0  0
 33101  1  0  0  0
 34 35  1  0  0  0
 34102  1  0  0  0
 35 36  1  0  0  0
 35 38  1  0  0  0
 35103  1  0  0  0
 36 37  2  0  0  0
 36 41  1  0  0  0
 38 39  1  0  0  0
 38 40  1  0  0  0
 38104  1  0  0  0
 39105  1  0  0  0
 40106  1  0  0  0
 40107  1  0  0  0
 40108  1  0  0  0
 41 42  1  0  0  0
 41109  1  0  0  0
 42 43  1  0  0  0
 42 45  1  0  0  0
 42110  1  0  0  0
 43 44  2  0  0  0
 43 50  1  0  0  0
 45 46  1  0  0  0
 45111  1  0  0  0
 45112  1  0  0  0
 46 47  1  0  0  0
 46113  1  0  0  0
 46114  1  0  0  0
 47 48  1  0  0  0
 47115  1  0  0  0
 47116  1  0  0  0
 48 49  1  0  0  0
 48117  1  0  0  0
 48118  1  0  0  0
 49119  1  0  0  0
 49120  1  0  0  0
 49121  1  0  0  0
 50 51  1  0  0  0
 50122  1  0  0  0
 51 52  1  0  0  0
 51 54  1  0  0  0
 51123  1  0  0  0
 52 53  2  0  0  0
 52 57  1  0  0  0
 54 55  1  0  0  0
 54 56  1  0  0  0
 54124  1  0  0  0
 55125  1  0  0  0
 56126  1  0  0  0
 56127  1  0  0  0
 56128  1  0  0  0
 57 58  1  0  0  0
 57129  1  0  0  0
 58 59  1  0  0  0
 58 61  1  0  0  0
 58130  1  0  0  0
 59 60  2  0  0  0
 59 65  1  0  0  0
 61 62  1  0  0  0
 61131  1  0  0  0
 61132  1  0  0  0
 62 63  2  0  0  0
 62 64  1  0  0  0
 64133  1  0  0  0
 64134  1  0  0  0
M  CHG  4   1   1  33   1  49   1  65  -1
M  END
> <s_m_source_file>
../2ynn_ligand.sdf

> <i_m_source_file_index>
1

> <s_epik_input>
W1NIXVtDSDJdW0NASF0oW05IMytdKUMoPU8pW05IXVtDQEBIXShbQ0BIXShbT0hdKVtDSDNdKUMoPU8pW05IXVtDQEBIXShbQ0gyXWMxW2NIXVtjSF1bY0hdW2NIXVtjSF0xKUMoPU8pW05IXVtDQEBIXShbQ0gyXVtDSDJdW0NIMl1bQ0gyXVtOSDMrXSlDKD1PKVtOSF1bQ0BASF0oW0NASF0oW09IXSlbQ0gzXSlDKD1PKVtOSF1bQ0BASF0oW0NIMl1bQ0gyXVtDSDJdW0NIMl1bTkgzK10pQyg9TylbTkhdW0NAQEhdKFtDQEhdKFtPSF0pW0NIM10pQyg9TylbTkhdW0NASF0oQyg9TylbT0hdKVtDSDJdQyg9TylbTkgyXQ==

> <s_epik_cmdline>
J2VwaWtfYXBwJywgJy1pbWFlJywgJ2xpZ2FuZF9wcm8ubWFlJywgJy1vbWFlJywgJ2xpZ2FuZF9wcmVwLm1hZScsICctbXMnLCAnMScsICctcGgnLCAnNycsICctcGh0JywgJzAuNScsICctbnQn

> <r_epik_Ionization_Penalty>
  0.3759

> <r_epik_Ionization_Penalty_Charging>
  0.3385

> <r_epik_Ionization_Penalty_Neutral>
  0.0373

> <r_epik_State_Penalty>
  0.3330

> <r_epik_Charging_Adjusted_Penalty>
0.671507045435911

> <i_epik_Tot_Q>
2

> <i_epik_Tot_abs_Q>
4

$$$$
