2ynr_ligand
                    3D
 Schrodinger Suite 2020-3.
137137  0  0  1  0            999 V2000
    2.3450   12.5670    5.0130 N   0  3  0  0  0  0
    1.6200   12.6770    3.7520 C   0  0  2  0  0  0
    0.8320   11.4140    3.4220 C   0  0  0  0  0  0
    1.3970   10.3720    3.0980 O   0  0  0  0  0  0
    2.5600   13.0500    2.6040 C   0  0  0  0  0  0
    2.6090   14.5510    2.3300 C   0  0  0  0  0  0
    3.4390   15.2600    3.3870 C   0  0  0  0  0  0
    3.1190   14.8520    0.9330 C   0  0  0  0  0  0
   -0.4860   11.5390    3.5030 N   0  0  0  0  0  0
   -1.3890   10.4370    3.2750 C   0  0  0  0  0  0
   -1.4960    9.6130    4.5350 C   0  0  0  0  0  0
   -1.8100   10.1240    5.6060 O   0  0  0  0  0  0
   -1.2130    8.3270    4.4040 N   0  0  0  0  0  0
   -1.2960    7.4220    5.5270 C   0  0  2  0  0  0
    0.0670    6.8240    5.8590 C   0  0  0  0  0  0
    0.9220    6.6820    4.9960 O   0  0  0  0  0  0
   -2.3180    6.3260    5.2370 C   0  0  0  0  0  0
   -3.7590    6.8010    5.2570 C   0  0  0  0  0  0
   -4.5770    6.1500    4.1610 C   0  0  0  0  0  0
   -6.0270    6.5970    4.2280 C   0  0  0  0  0  0
   -6.8760    5.9640    3.1850 N   0  3  0  0  0  0
    0.2460    6.4930    7.1280 N   0  0  0  0  0  0
    1.4860    5.9260    7.6550 C   0  0  2  0  0  0
    1.2240    4.6080    8.4170 C   0  0  0  0  0  0
    0.4900    4.6030    9.4040 O   0  0  0  0  0  0
    2.1710    6.9740    8.5680 C   0  0  0  0  0  0
    3.5290    6.5850    9.1240 C   0  0  0  0  0  0
    4.2870    7.8150    9.5840 C   0  0  0  0  0  0
    5.0930    7.5550   10.7800 N   0  0  0  0  0  0
    4.7740    7.9740   12.0010 C   0  0  0  0  0  0
    3.6690    8.6810   12.2020 N   0  0  0  0  0  0
    5.5640    7.6960   13.0300 N   0  3  0  0  0  0
    1.8440    3.5000    7.9550 N   0  0  0  0  0  0
    1.7550    2.1740    8.6050 C   0  0  2  0  0  0
    2.8700    1.9930    9.6490 C   0  0  0  0  0  0
    3.9780    2.5090    9.4500 O   0  0  0  0  0  0
    1.8020    1.0240    7.5740 C   0  0  0  0  0  0
    3.0270    1.0070    6.6460 C   0  0  0  0  0  0
    3.5670   -0.4170    6.4180 C   0  0  0  0  0  0
    2.8630   -1.1860    5.3150 C   0  0  0  0  0  0
    3.3650   -2.5830    5.1950 N   0  3  0  0  0  0
    2.5850    1.2680   10.7530 N   0  0  0  0  0  0
    3.6130    0.9940   11.7690 C   0  0  2  0  0  0
    4.3860   -0.3040   11.4430 C   0  0  0  0  0  0
    3.7760   -1.3760   11.3240 O   0  0  0  0  0  0
    3.0440    0.9330   13.2020 C   0  0  0  0  0  0
    4.1540    0.7080   14.2310 C   0  0  0  0  0  0
    3.7540    0.8870   15.6730 C   0  0  0  0  0  0
    4.9270    0.7550   16.5380 N   0  0  0  0  0  0
    4.9390    0.9710   17.8500 C   0  0  0  0  0  0
    3.8330    1.3470   18.4780 N   0  3  0  0  0  0
    6.0610    0.8210   18.5430 N   0  0  0  0  0  0
    5.7410   -0.1880   11.3450 N   0  0  0  0  0  0
    6.7140   -1.2730   11.1090 C   0  0  2  0  0  0
    6.4880   -1.9510    9.7530 C   0  0  0  0  0  0
    6.6149   -1.2963    8.6840 O   0  5  0  0  0  0
    6.6470   -2.3080   12.2490 C   0  0  0  0  0  0
    7.8600   -3.1660   12.3910 C   0  0  0  0  0  0
    7.8690   -4.4800   11.9540 N   0  0  0  0  0  0
    9.0530   -2.8870   12.9660 C   0  0  0  0  0  0
    9.0690   -4.9490   12.2550 C   0  0  0  0  0  0
    9.8160   -4.0260   12.8650 N   0  0  0  0  0  0
    6.1735   -3.1702    9.7071 O   0  0  0  0  0  0
    1.6438   12.2985    5.8169 H   0  0  0  0  0  0
    2.8204   13.5307    5.2479 H   0  0  0  0  0  0
    3.1175   11.7888    4.9251 H   0  0  0  0  0  0
    0.9042   13.4932    3.9291 H   0  0  0  0  0  0
    3.5820   12.7231    2.8460 H   0  0  0  0  0  0
    2.2256   12.5546    1.6805 H   0  0  0  0  0  0
    1.5820   14.9416    2.3825 H   0  0  0  0  0  0
    3.0434   15.0209    4.3851 H   0  0  0  0  0  0
    3.3898   16.3467    3.2238 H   0  0  0  0  0  0
    4.4846   14.9257    3.3173 H   0  0  0  0  0  0
    2.4976   14.3246    0.1943 H   0  0  0  0  0  0
    4.1620   14.5143    0.8428 H   0  0  0  0  0  0
    3.0672   15.9353    0.7493 H   0  0  0  0  0  0
   -0.8839   12.5329    3.7557 H   0  0  0  0  0  0
   -2.3813   10.8263    3.0035 H   0  0  0  0  0  0
   -1.0042    9.8110    2.4565 H   0  0  0  0  0  0
   -0.9097    7.9509    3.4158 H   0  0  0  0  0  0
   -1.6282    8.0402    6.3740 H   0  0  0  0  0  0
   -2.1302    5.9044    4.2385 H   0  0  0  0  0  0
   -2.2286    5.5319    5.9930 H   0  0  0  0  0  0
   -4.2147    6.5491    6.2260 H   0  0  0  0  0  0
   -3.7879    7.8908    5.1105 H   0  0  0  0  0  0
   -4.1655    6.4310    3.1803 H   0  0  0  0  0  0
   -4.5386    5.0566    4.2751 H   0  0  0  0  0  0
   -6.4476    6.3314    5.2091 H   0  0  0  0  0  0
   -6.0816    7.6868    4.0886 H   0  0  0  0  0  0
   -7.9100    6.3257    3.2847 H   0  0  0  0  0  0
   -6.8561    4.8713    3.3095 H   0  0  0  0  0  0
   -6.4901    6.2266    2.1890 H   0  0  0  0  0  0
   -0.6079    6.6675    7.7992 H   0  0  0  0  0  0
    2.1101    5.6991    6.7781 H   0  0  0  0  0  0
    2.3271    7.9054    8.0040 H   0  0  0  0  0  0
    1.5305    7.1758    9.4392 H   0  0  0  0  0  0
    3.3943    5.9075    9.9801 H   0  0  0  0  0  0
    4.1132    6.0768    8.3427 H   0  0  0  0  0  0
    4.9629    8.1499    8.7833 H   0  0  0  0  0  0
    3.5736    8.6179    9.8213 H   0  0  0  0  0  0
    6.0272    6.9800   10.6993 H   0  0  0  0  0  0
    3.0062    8.9178   11.3567 H   0  0  0  0  0  0
    3.4160    9.0302   13.2139 H   0  0  0  0  0  0
    6.4826    7.1108   12.8758 H   0  0  0  0  0  0
    2.4420    3.6251    7.0402 H   0  0  0  0  0  0
    0.7748    2.1779    9.1041 H   0  0  0  0  0  0
    1.8026    0.0586    8.1013 H   0  0  0  0  0  0
    0.9207    1.0831    6.9184 H   0  0  0  0  0  0
    2.7517    1.4278    5.6677 H   0  0  0  0  0  0
    3.8324    1.6098    7.0909 H   0  0  0  0  0  0
    4.6312   -0.3661    6.1444 H   0  0  0  0  0  0
    3.4535   -1.0044    7.3411 H   0  0  0  0  0  0
    1.7846   -1.2274    5.5277 H   0  0  0  0  0  0
    3.0277   -0.6798    4.3524 H   0  0  0  0  0  0
    2.8266   -3.0978    4.3856 H   0  0  0  0  0  0
    3.1980   -3.1153    6.1430 H   0  0  0  0  0  0
    4.4412   -2.5676    4.9677 H   0  0  0  0  0  0
    1.5640    0.8805   10.8852 H   0  0  0  0  0  0
    4.2768    1.8681   11.6957 H   0  0  0  0  0  0
    2.5367    1.8806   13.4357 H   0  0  0  0  0  0
    2.3247    0.1041   13.2759 H   0  0  0  0  0  0
    4.5338   -0.3205   14.1417 H   0  0  0  0  0  0
    4.9734    1.4186   14.0478 H   0  0  0  0  0  0
    3.3138    1.8857   15.8101 H   0  0  0  0  0  0
    3.0146    0.1198   15.9464 H   0  0  0  0  0  0
    5.8951    0.4556   16.1100 H   0  0  0  0  0  0
    2.8969    1.4747   17.9145 H   0  0  0  0  0  0
    6.9847    0.5096   18.0334 H   0  0  0  0  0  0
    6.0671    1.0081   19.6269 H   0  0  0  0  0  0
    6.0906    0.8483   11.4624 H   0  0  0  0  0  0
    7.6993   -0.7842   11.0934 H   0  0  0  0  0  0
    5.7949   -2.4429   12.9315 H   0  0  0  0  0  0
    9.4658   -1.9896   13.4499 H   0  0  0  0  0  0
    9.4054   -5.9617   12.0328 H   0  0  0  0  0  0
    5.3004    8.0507   14.0373 H   0  0  0  0  0  0
    3.8518    1.5312   19.5623 H   0  0  0  0  0  0
    6.9769   -4.9051   11.4709 H   0  0  0  0  0  0
  1  2  1  0  0  0
  1 64  1  0  0  0
  1 65  1  0  0  0
  1 66  1  0  0  0
  2  3  1  0  0  0
  2  5  1  0  0  0
  2 67  1  0  0  0
  3  4  2  0  0  0
  3  9  1  0  0  0
  5  6  1  0  0  0
  5 68  1  0  0  0
  5 69  1  0  0  0
  6  7  1  0  0  0
  6  8  1  0  0  0
  6 70  1  0  0  0
  7 71  1  0  0  0
  7 72  1  0  0  0
  7 73  1  0  0  0
  8 74  1  0  0  0
  8 75  1  0  0  0
  8 76  1  0  0  0
  9 10  1  0  0  0
  9 77  1  0  0  0
 10 11  1  0  0  0
 10 78  1  0  0  0
 10 79  1  0  0  0
 11 12  2  0  0  0
 11 13  1  0  0  0
 13 14  1  0  0  0
 13 80  1  0  0  0
 14 15  1  0  0  0
 14 17  1  0  0  0
 14 81  1  0  0  0
 15 16  2  0  0  0
 15 22  1  0  0  0
 17 18  1  0  0  0
 17 82  1  0  0  0
 17 83  1  0  0  0
 18 19  1  0  0  0
 18 84  1  0  0  0
 18 85  1  0  0  0
 19 20  1  0  0  0
 19 86  1  0  0  0
 19 87  1  0  0  0
 20 21  1  0  0  0
 20 88  1  0  0  0
 20 89  1  0  0  0
 21 90  1  0  0  0
 21 91  1  0  0  0
 21 92  1  0  0  0
 22 23  1  0  0  0
 22 93  1  0  0  0
 23 24  1  0  0  0
 23 26  1  0  0  0
 23 94  1  0  0  0
 24 25  2  0  0  0
 24 33  1  0  0  0
 26 27  1  0  0  0
 26 95  1  0  0  0
 26 96  1  0  0  0
 27 28  1  0  0  0
 27 97  1  0  0  0
 27 98  1  0  0  0
 28 29  1  0  0  0
 28 99  1  0  0  0
 28100  1  0  0  0
 29 30  1  0  0  0
 29101  1  0  0  0
 30 31  1  0  0  0
 30 32  2  0  0  0
 31102  1  0  0  0
 31103  1  0  0  0
 32104  1  0  0  0
 32135  1  0  0  0
 33 34  1  0  0  0
 33105  1  0  0  0
 34 35  1  0  0  0
 34 37  1  0  0  0
 34106  1  0  0  0
 35 36  2  0  0  0
 35 42  1  0  0  0
 37 38  1  0  0  0
 37107  1  0  0  0
 37108  1  0  0  0
 38 39  1  0  0  0
 38109  1  0  0  0
 38110  1  0  0  0
 39 40  1  0  0  0
 39111  1  0  0  0
 39112  1  0  0  0
 40 41  1  0  0  0
 40113  1  0  0  0
 40114  1  0  0  0
 41115  1  0  0  0
 41116  1  0  0  0
 41117  1  0  0  0
 42 43  1  0  0  0
 42118  1  0  0  0
 43 44  1  0  0  0
 43 46  1  0  0  0
 43119  1  0  0  0
 44 45  2  0  0  0
 44 53  1  0  0  0
 46 47  1  0  0  0
 46120  1  0  0  0
 46121  1  0  0  0
 47 48  1  0  0  0
 47122  1  0  0  0
 47123  1  0  0  0
 48 49  1  0  0  0
 48124  1  0  0  0
 48125  1  0  0  0
 49 50  1  0  0  0
 49126  1  0  0  0
 50 51  2  0  0  0
 50 52  1  0  0  0
 51127  1  0  0  0
 51136  1  0  0  0
 52128  1  0  0  0
 52129  1  0  0  0
 53 54  1  0  0  0
 53130  1  0  0  0
 54 55  1  0  0  0
 54 57  1  0  0  0
 54131  1  0  0  0
 55 56  1  0  0  0
 55 63  2  0  0  0
 57 58  2  0  0  0
 57132  1  0  0  0
 58 59  1  0  0  0
 58 60  1  0  0  0
 59 61  1  0  0  0
 59137  1  0  0  0
 60 62  2  0  0  0
 60133  1  0  0  0
 61 62  1  0  0  0
 61134  1  0  0  0
M  CHG  6   1   1  21   1  32   1  41   1  51   1  56  -1
M  END
> <s_m_source_file>
../2ynr_ligand.sdf

> <i_m_source_file_index>
1

> <s_epik_input>
W0NIM11bQ0hdKFtDSDNdKVtDSDJdW0NASF0oW05IMytdKUMoPU8pW05IXVtDSDJdQyg9TylbTkhdW0NAQEhdKFtDSDJdW0NIMl1bQ0gyXVtDSDJdW05IMytdKUMoPU8pW05IXVtDQEBIXShbQ0gyXVtDSDJdW0NIMl1bTkhdL0MoW05IMl0pPU5cW0hdKUMoPU8pW05IXVtDQEBIXShbQ0gyXVtDSDJdW0NIMl1bQ0gyXVtOSDMrXSlDKD1PKVtOSF1bQ0BASF0oW0NIMl1bQ0gyXVtDSDJdW05IXS9DKD1OXFtIXSlbTkgyXSlDKD1PKVtOSF1bQ0BIXShDKD1PKVtPSF0pW0NIMl1DMT1OW0NIMl1OPVtDSF0x

> <s_epik_cmdline>
J2VwaWtfYXBwJywgJy1pbWFlJywgJ2xpZ2FuZF9wcm8ubWFlJywgJy1vbWFlJywgJ2xpZ2FuZF9wcmVwLm1hZScsICctbXMnLCAnMScsICctcGgnLCAnNycsICctcGh0JywgJzAuNScsICctbnQn

> <r_epik_Ionization_Penalty>
  0.0902

> <r_epik_Ionization_Penalty_Charging>
  0.0902

> <r_epik_Ionization_Penalty_Neutral>
  0.0000

> <r_epik_State_Penalty>
  0.0796

> <r_epik_Charging_Adjusted_Penalty>
0.169798693610638

> <i_epik_Tot_Q>
4

> <i_epik_Tot_abs_Q>
6

> <s_epik_Chemistry_Notes>
This compound has an imine and may undergo hydrolysis.

$$$$
