2yns_ligand
                    3D
 Schrodinger Suite 2020-3.
163163  0  0  1  0            999 V2000
    6.3050  -18.1190   23.8860 N   0  3  0  0  0  0
    6.2140  -17.4330   22.5970 C   0  0  2  0  0  0
    6.7740  -16.0030   22.6950 C   0  0  0  0  0  0
    7.6370  -15.6490   21.9010 O   0  0  0  0  0  0
    4.7770  -17.4150   22.0890 C   0  0  0  0  0  0
    4.6490  -16.6550   20.8950 O   0  0  0  0  0  0
    6.3030  -15.1920   23.6590 N   0  0  0  0  0  0
    6.8300  -13.8320   23.8380 C   0  0  2  0  0  0
    7.7840  -13.7790   25.0590 C   0  0  0  0  0  0
    8.6090  -12.8670   25.1540 O   0  0  0  0  0  0
    5.7360  -12.7220   23.9180 C   0  0  0  0  0  0
    4.8810  -12.6840   22.6600 C   0  0  0  0  0  0
    4.8680  -12.8380   25.1670 C   0  0  0  0  0  0
    7.6720  -14.7630   25.9740 N   0  0  0  0  0  0
    8.4290  -14.8110   27.2270 C   0  0  2  0  0  0
    9.8320  -15.3470   27.0500 C   0  0  0  0  0  0
   10.1030  -16.0860   26.1010 O   0  0  0  0  0  0
    7.6930  -15.6470   28.2740 C   0  0  0  0  0  0
    6.3010  -15.1680   28.6650 C   0  0  0  0  0  0
    5.5830  -16.2120   29.4550 C   0  0  0  0  0  0
    6.3540  -13.8400   29.4020 C   0  0  0  0  0  0
   10.7080  -14.9660   27.9830 N   0  0  0  0  0  0
   12.0980  -15.3980   27.9890 C   0  0  0  0  0  0
   13.0770  -14.2880   28.2840 C   0  0  0  0  0  0
   12.6920  -13.2270   28.7800 O   0  0  0  0  0  0
   14.3580  -14.5360   27.9820 N   0  0  0  0  0  0
   15.4390  -13.5830   28.2160 C   0  0  2  0  0  0
   15.3150  -12.3530   27.3430 C   0  0  0  0  0  0
   15.0610  -12.4710   26.1380 O   0  0  0  0  0  0
   16.8050  -14.2350   27.9600 C   0  0  0  0  0  0
   17.1360  -15.4220   28.8660 C   0  0  0  0  0  0
   17.8350  -14.9950   30.1140 C   0  0  0  0  0  0
   18.1850  -16.1850   30.9610 C   0  0  0  0  0  0
   19.0240  -15.7580   32.1210 N   0  3  0  0  0  0
   15.5230  -11.1760   27.9520 N   0  0  0  0  0  0
   15.5080   -9.8870   27.2650 C   0  0  2  0  0  0
   16.8350   -9.2000   27.4540 C   0  0  0  0  0  0
   17.2510   -8.9800   28.5930 O   0  0  0  0  0  0
   14.3970   -8.9880   27.8090 C   0  0  0  0  0  0
   12.9830   -9.3560   27.3920 C   0  0  0  0  0  0
   12.0130   -8.4340   28.0730 C   0  0  0  0  0  0
   12.0910   -8.5690   29.5340 N   0  0  0  0  0  0
   11.7060   -7.6410   30.4010 C   0  0  0  0  0  0
   11.1960   -6.4920   29.9720 N   0  0  0  0  0  0
   11.8250   -7.8550   31.7050 N   0  0  0  0  0  0
   17.4970   -8.8350   26.3560 N   0  0  0  0  0  0
   18.7460   -8.0780   26.3890 C   0  0  2  0  0  0
   18.3910   -6.6230   26.6580 C   0  0  0  0  0  0
   17.2050   -6.2720   26.6010 O   0  0  0  0  0  0
   19.5270   -8.2340   25.0640 C   0  0  0  0  0  0
   20.1810   -9.6030   24.8470 C   0  0  0  0  0  0
   21.5620   -9.6960   25.5170 C   0  0  0  0  0  0
   22.0590  -11.1150   25.5200 C   0  0  0  0  0  0
   23.3100  -11.2250   26.2970 N   0  3  0  0  0  0
   19.3920   -5.7750   26.9770 N   0  0  0  0  0  0
   19.1550   -4.3480   27.2070 C   0  0  2  0  0  0
   18.7640   -3.6780   25.8720 C   0  0  0  0  0  0
   19.4750   -3.8600   24.8810 O   0  0  0  0  0  0
   20.3990   -3.6840   27.8250 C   0  0  0  0  0  0
   20.1040   -2.2970   28.3740 C   0  0  0  0  0  0
   21.2760   -1.6660   29.1050 C   0  0  0  0  0  0
   21.6000   -2.3330   30.3700 N   0  0  0  0  0  0
   20.9280   -2.1790   31.5100 C   0  0  0  0  0  0
   19.8520   -1.4040   31.5560 N   0  0  0  0  0  0
   21.3080   -2.8230   32.6010 N   0  0  0  0  0  0
   17.5810   -3.0070   25.8300 N   0  0  0  0  0  0
   17.0010   -2.3120   24.6600 C   0  0  2  0  0  0
   17.2320   -3.0380   23.3170 C   0  0  0  0  0  0
   17.0602   -4.2815   23.2086 O   0  0  0  0  0  0
   17.5390   -0.8770   24.5520 C   0  0  0  0  0  0
   17.1870   -0.0220   25.7290 C   0  0  0  0  0  0
   15.9130    0.4860   25.8960 N   0  0  0  0  0  0
   17.9560    0.3740   26.7700 C   0  0  0  0  0  0
   15.9470    1.1760   27.0240 C   0  0  0  0  0  0
   17.1550    1.1360   27.5860 N   0  0  0  0  0  0
   17.5991   -2.3746   22.3107 O   0  0  0  0  0  0
    7.3501  -18.1177   24.2291 H   0  0  0  0  0  0
    5.9569  -19.1565   23.7746 H   0  0  0  0  0  0
    5.6763  -17.5985   24.6235 H   0  0  0  0  0  0
    6.8298  -18.0300   21.9083 H   0  0  0  0  0  0
    4.4490  -18.4440   21.8803 H   0  0  0  0  0  0
    4.1233  -16.9698   22.8535 H   0  0  0  0  0  0
    3.6666  -16.5524   20.4110 H   0  0  0  0  0  0
    5.5074  -15.5651   24.3207 H   0  0  0  0  0  0
    7.3858  -13.6678   22.9030 H   0  0  0  0  0  0
    6.2496  -11.7520   23.9907 H   0  0  0  0  0  0
    5.5315  -12.6003   21.7769 H   0  0  0  0  0  0
    4.2059  -11.8166   22.7016 H   0  0  0  0  0  0
    4.2875  -13.6077   22.5920 H   0  0  0  0  0  0
    5.5109  -12.8633   26.0592 H   0  0  0  0  0  0
    4.2744  -13.7627   25.1164 H   0  0  0  0  0  0
    4.1928  -11.9716   25.2260 H   0  0  0  0  0  0
    6.9580  -15.5640   25.7317 H   0  0  0  0  0  0
    8.5007  -13.7566   27.5320 H   0  0  0  0  0  0
    7.5651  -16.6734   27.8998 H   0  0  0  0  0  0
    8.2782  -15.6665   29.2052 H   0  0  0  0  0  0
    5.7142  -15.0106   27.7480 H   0  0  0  0  0  0
    5.5671  -17.1545   28.8880 H   0  0  0  0  0  0
    4.5513  -15.8819   29.6466 H   0  0  0  0  0  0
    6.1017  -16.3687   30.4123 H   0  0  0  0  0  0
    6.8894  -13.1010   28.7879 H   0  0  0  0  0  0
    6.8806  -13.9723   30.3586 H   0  0  0  0  0  0
    5.3303  -13.4855   29.5929 H   0  0  0  0  0  0
   10.3372  -14.2950   28.7719 H   0  0  0  0  0  0
   12.2383  -16.1714   28.7585 H   0  0  0  0  0  0
   12.3581  -15.8105   27.0030 H   0  0  0  0  0  0
   14.5769  -15.5172   27.5355 H   0  0  0  0  0  0
   15.3145  -13.2931   29.2698 H   0  0  0  0  0  0
   16.8453  -14.6078   26.9259 H   0  0  0  0  0  0
   17.6008  -13.4911   28.1129 H   0  0  0  0  0  0
   16.2062  -15.9357   29.1517 H   0  0  0  0  0  0
   17.7914  -16.1225   28.3278 H   0  0  0  0  0  0
   18.7603  -14.4612   29.8517 H   0  0  0  0  0  0
   17.1784  -14.3282   30.6922 H   0  0  0  0  0  0
   17.2624  -16.6531   31.3347 H   0  0  0  0  0  0
   18.7466  -16.9127   30.3568 H   0  0  0  0  0  0
   19.2749  -16.6357   32.7348 H   0  0  0  0  0  0
   18.4653  -15.0322   32.7301 H   0  0  0  0  0  0
   19.9495  -15.2917   31.7522 H   0  0  0  0  0  0
   15.7134  -11.2201   29.0345 H   0  0  0  0  0  0
   15.3350  -10.1094   26.2017 H   0  0  0  0  0  0
   14.4093   -9.0146   28.9086 H   0  0  0  0  0  0
   14.5593   -7.9557   27.4654 H   0  0  0  0  0  0
   12.8846   -9.2556   26.3010 H   0  0  0  0  0  0
   12.7730  -10.3953   27.6850 H   0  0  0  0  0  0
   12.2452   -7.3932   27.8031 H   0  0  0  0  0  0
   10.9893   -8.6764   27.7516 H   0  0  0  0  0  0
   12.4916   -9.4910   29.9805 H   0  0  0  0  0  0
   11.0931   -6.3047   28.8930 H   0  0  0  0  0  0
   10.8766   -5.7277   30.6958 H   0  0  0  0  0  0
   12.2461   -8.8032   32.0706 H   0  0  0  0  0  0
   17.0589   -9.1315   25.3916 H   0  0  0  0  0  0
   19.3624   -8.4839   27.2046 H   0  0  0  0  0  0
   18.8450   -8.0757   24.2156 H   0  0  0  0  0  0
   20.3375   -7.4912   25.0264 H   0  0  0  0  0  0
   19.5392  -10.3877   25.2739 H   0  0  0  0  0  0
   20.3101   -9.7810   23.7692 H   0  0  0  0  0  0
   22.2796   -9.0700   24.9664 H   0  0  0  0  0  0
   21.4898   -9.3432   26.5564 H   0  0  0  0  0  0
   21.2991  -11.7687   25.9731 H   0  0  0  0  0  0
   22.2516  -11.4383   24.4864 H   0  0  0  0  0  0
   23.6570  -12.2688   26.2873 H   0  0  0  0  0  0
   23.1261  -10.9093   27.3346 H   0  0  0  0  0  0
   24.0786  -10.5788   25.8478 H   0  0  0  0  0  0
   20.4094   -6.1844   27.0626 H   0  0  0  0  0  0
   18.3263   -4.2773   27.9269 H   0  0  0  0  0  0
   20.7726   -4.3044   28.6530 H   0  0  0  0  0  0
   21.1815   -3.5861   27.0582 H   0  0  0  0  0  0
   19.8349   -1.6246   27.5461 H   0  0  0  0  0  0
   19.2676   -2.3547   29.0861 H   0  0  0  0  0  0
   22.1721   -1.7109   28.4687 H   0  0  0  0  0  0
   21.0422   -0.6161   29.3354 H   0  0  0  0  0  0
   22.4560   -3.0216   30.4252 H   0  0  0  0  0  0
   19.5251   -0.8628   30.6559 H   0  0  0  0  0  0
   19.2869   -1.3027   32.4943 H   0  0  0  0  0  0
   22.1982   -3.4687   32.5766 H   0  0  0  0  0  0
   17.0422   -3.0129   26.7890 H   0  0  0  0  0  0
   15.9242   -2.3232   24.8843 H   0  0  0  0  0  0
   17.2306   -4.7781   22.2420 H   0  0  0  0  0  0
   18.6362   -0.9015   24.4770 H   0  0  0  0  0  0
   17.1209   -0.3951   23.6559 H   0  0  0  0  0  0
   19.0087    0.2013   27.0384 H   0  0  0  0  0  0
   15.0938    1.7105   27.4417 H   0  0  0  0  0  0
  1  2  1  0  0  0
  1 77  1  0  0  0
  1 78  1  0  0  0
  1 79  1  0  0  0
  2  3  1  0  0  0
  2  5  1  0  0  0
  2 80  1  0  0  0
  3  4  2  0  0  0
  3  7  1  0  0  0
  5  6  1  0  0  0
  5 81  1  0  0  0
  5 82  1  0  0  0
  6 83  1  0  0  0
  7  8  1  0  0  0
  7 84  1  0  0  0
  8  9  1  0  0  0
  8 11  1  0  0  0
  8 85  1  0  0  0
  9 10  2  0  0  0
  9 14  1  0  0  0
 11 12  1  0  0  0
 11 13  1  0  0  0
 11 86  1  0  0  0
 12 87  1  0  0  0
 12 88  1  0  0  0
 12 89  1  0  0  0
 13 90  1  0  0  0
 13 91  1  0  0  0
 13 92  1  0  0  0
 14 15  1  0  0  0
 14 93  1  0  0  0
 15 16  1  0  0  0
 15 18  1  0  0  0
 15 94  1  0  0  0
 16 17  2  0  0  0
 16 22  1  0  0  0
 18 19  1  0  0  0
 18 95  1  0  0  0
 18 96  1  0  0  0
 19 20  1  0  0  0
 19 21  1  0  0  0
 19 97  1  0  0  0
 20 98  1  0  0  0
 20 99  1  0  0  0
 20100  1  0  0  0
 21101  1  0  0  0
 21102  1  0  0  0
 21103  1  0  0  0
 22 23  1  0  0  0
 22104  1  0  0  0
 23 24  1  0  0  0
 23105  1  0  0  0
 23106  1  0  0  0
 24 25  2  0  0  0
 24 26  1  0  0  0
 26 27  1  0  0  0
 26107  1  0  0  0
 27 28  1  0  0  0
 27 30  1  0  0  0
 27108  1  0  0  0
 28 29  2  0  0  0
 28 35  1  0  0  0
 30 31  1  0  0  0
 30109  1  0  0  0
 30110  1  0  0  0
 31 32  1  0  0  0
 31111  1  0  0  0
 31112  1  0  0  0
 32 33  1  0  0  0
 32113  1  0  0  0
 32114  1  0  0  0
 33 34  1  0  0  0
 33115  1  0  0  0
 33116  1  0  0  0
 34117  1  0  0  0
 34118  1  0  0  0
 34119  1  0  0  0
 35 36  1  0  0  0
 35120  1  0  0  0
 36 37  1  0  0  0
 36 39  1  0  0  0
 36121  1  0  0  0
 37 38  2  0  0  0
 37 46  1  0  0  0
 39 40  1  0  0  0
 39122  1  0  0  0
 39123  1  0  0  0
 40 41  1  0  0  0
 40124  1  0  0  0
 40125  1  0  0  0
 41 42  1  0  0  0
 41126  1  0  0  0
 41127  1  0  0  0
 42 43  1  0  0  0
 42128  1  0  0  0
 43 44  1  0  0  0
 43 45  2  0  0  0
 44129  1  0  0  0
 44130  1  0  0  0
 45131  1  0  0  0
 46 47  1  0  0  0
 46132  1  0  0  0
 47 48  1  0  0  0
 47 50  1  0  0  0
 47133  1  0  0  0
 48 49  2  0  0  0
 48 55  1  0  0  0
 50 51  1  0  0  0
 50134  1  0  0  0
 50135  1  0  0  0
 51 52  1  0  0  0
 51136  1  0  0  0
 51137  1  0  0  0
 52 53  1  0  0  0
 52138  1  0  0  0
 52139  1  0  0  0
 53 54  1  0  0  0
 53140  1  0  0  0
 53141  1  0  0  0
 54142  1  0  0  0
 54143  1  0  0  0
 54144  1  0  0  0
 55 56  1  0  0  0
 55145  1  0  0  0
 56 57  1  0  0  0
 56 59  1  0  0  0
 56146  1  0  0  0
 57 58  2  0  0  0
 57 66  1  0  0  0
 59 60  1  0  0  0
 59147  1  0  0  0
 59148  1  0  0  0
 60 61  1  0  0  0
 60149  1  0  0  0
 60150  1  0  0  0
 61 62  1  0  0  0
 61151  1  0  0  0
 61152  1  0  0  0
 62 63  1  0  0  0
 62153  1  0  0  0
 63 64  1  0  0  0
 63 65  2  0  0  0
 64154  1  0  0  0
 64155  1  0  0  0
 65156  1  0  0  0
 66 67  1  0  0  0
 66157  1  0  0  0
 67 68  1  0  0  0
 67 70  1  0  0  0
 67158  1  0  0  0
 68 69  1  0  0  0
 68 76  2  0  0  0
 69159  1  0  0  0
 70 71  1  0  0  0
 70160  1  0  0  0
 70161  1  0  0  0
 71 72  2  0  0  0
 71 73  1  0  0  0
 72 74  1  0  0  0
 73 75  2  0  0  0
 73162  1  0  0  0
 74 75  1  0  0  0
 74163  1  0  0  0
M  CHG  3   1   1  34   1  54   1
M  END
> <s_m_source_file>
../2yns_ligand.sdf

> <i_m_source_file_index>
1

> <s_epik_input>
W09IXVtDSDJdW0NASF0oW05IMytdKUMoPU8pW05IXVtDQEBIXShbQ0hdKFtDSDNdKVtDSDNdKUMoPU8pW05IXVtDQEBIXShbQ0gyXVtDSF0oW0NIM10pW0NIM10pQyg9TylbTkhdW0NIMl1DKD1PKVtOSF1bQ0BASF0oW0NIMl1bQ0gyXVtDSDJdW0NIMl1bTkgzK10pQyg9TylbTkhdW0NAQEhdKFtDSDJdW0NIMl1bQ0gyXVtOSF0vQyhbTkgyXSk9TlxbSF0pQyg9TylbTkhdW0NAQEhdKFtDSDJdW0NIMl1bQ0gyXVtDSDJdW05IMytdKUMoPU8pW05IXVtDQEBIXShbQ0gyXVtDSDJdW0NIMl1bTkhdL0MoW05IMl0pPU5cW0hdKUMoPU8pW05IXVtDQEhdKEMoPU8pW09IXSlbQ0gyXUMxPU5bQ0gyXU49W0NIXTE=

> <s_epik_cmdline>
J2VwaWtfYXBwJywgJy1pbWFlJywgJ2xpZ2FuZF9wcm8ubWFlJywgJy1vbWFlJywgJ2xpZ2FuZF9wcmVwLm1hZScsICctbXMnLCAnMScsICctcGgnLCAnNycsICctcGh0JywgJzAuNScsICctbnQn

> <s_epik_pKa_notes>
Molecule size exceeds maximum supported for generating protonation states

> <s_epik_Chemistry_Notes>
This compound has an imine and may undergo hydrolysis.

$$$$
