2yof_ligand
                    3D
 Schrodinger Suite 2020-3.
 49 51  0  0  1  0            999 V2000
   15.0750   -0.2270    2.1640 O   0  0  0  0  0  0
   14.6030   -0.0120    3.2810 C   0  0  0  0  0  0
   14.0210    1.2180    3.5640 N   0  0  0  0  0  0
   13.4810    1.4540    4.8270 C   0  0  0  0  0  0
   12.9620    2.5460    5.0710 O   0  0  0  0  0  0
   13.5230    0.4540    5.8010 C   0  0  0  0  0  0
   12.9320    0.7140    7.1870 C   0  0  0  0  0  0
   14.1040   -0.7800    5.5190 C   0  0  0  0  0  0
   14.6410   -1.0100    4.2540 N   0  0  0  0  0  0
   15.2660   -2.2980    3.9060 C   0  0  2  0  0  0
   14.6030   -3.4880    4.3920 O   0  0  0  0  0  0
   16.5840   -2.3920    4.6220 C   0  0  0  0  0  0
   16.9300   -3.8540    4.3950 C   0  0  2  0  0  0
   17.7790   -4.0030    3.2580 O   0  0  0  0  0  0
   15.5940   -4.4950    4.0540 C   0  0  1  0  0  0
   15.6870   -5.7240    4.9390 C   0  0  0  0  0  0
   14.6320   -5.7010    5.9240 N   0  0  0  0  0  0
   14.3630   -6.7330    6.7200 C   0  0  0  0  0  0
   13.0940   -6.4760    7.8210 S   0  0  0  0  0  0
   14.9930   -7.9390    6.7670 N   0  0  0  0  0  0
   16.0120   -8.5060    6.0580 C   0  0  0  0  0  0
   16.7970   -7.8750    5.0690 C   0  0  0  0  0  0
   16.2800   -9.8420    6.3650 C   0  0  0  0  0  0
   17.2890  -10.5460    5.7160 C   0  0  0  0  0  0
   18.0590   -9.9250    4.7370 C   0  0  0  0  0  0
   19.3220  -10.8070    3.9260 Cl  0  0  0  0  0  0
   17.8200   -8.5910    4.4030 C   0  0  0  0  0  0
   18.7100   -7.9440    3.2930 C   0  0  0  0  0  0
   18.5820   -6.6180    3.3130 F   0  0  0  0  0  0
   19.9960   -8.2850    3.4440 F   0  0  0  0  0  0
   18.3440   -8.3840    2.0880 F   0  0  0  0  0  0
   13.9877    2.0013    2.7924 H   0  0  0  0  0  0
   12.5209    1.7336    7.2249 H   0  0  0  0  0  0
   13.7198    0.6078    7.9473 H   0  0  0  0  0  0
   12.1302   -0.0123    7.3858 H   0  0  0  0  0  0
   14.1383   -1.5587    6.2809 H   0  0  0  0  0  0
   15.2447   -2.3008    2.8062 H   0  0  0  0  0  0
   17.3005   -1.6940    4.1643 H   0  0  0  0  0  0
   16.4449   -2.1321    5.6818 H   0  0  0  0  0  0
   17.4866   -4.3030    5.2308 H   0  0  0  0  0  0
   18.8054   -3.6081    3.2825 H   0  0  0  0  0  0
   15.3068   -4.7698    3.0283 H   0  0  0  0  0  0
   15.5872   -6.6289    4.3215 H   0  0  0  0  0  0
   16.6608   -5.7347    5.4505 H   0  0  0  0  0  0
   14.0086   -4.8023    6.0414 H   0  0  0  0  0  0
   14.6843   -8.6923    7.5067 H   0  0  0  0  0  0
   16.6142   -6.8304    4.8169 H   0  0  0  0  0  0
   15.6860  -10.3434    7.1291 H   0  0  0  0  0  0
   17.4773  -11.5879    5.9751 H   0  0  0  0  0  0
  1  2  2  0  0  0
  2  3  1  0  0  0
  2  9  1  0  0  0
  3  4  1  0  0  0
  3 32  1  0  0  0
  4  5  2  0  0  0
  4  6  1  0  0  0
  6  7  1  0  0  0
  6  8  2  0  0  0
  7 33  1  0  0  0
  7 34  1  0  0  0
  7 35  1  0  0  0
  8  9  1  0  0  0
  8 36  1  0  0  0
  9 10  1  0  0  0
 10 11  1  0  0  0
 10 12  1  0  0  0
 10 37  1  0  0  0
 11 15  1  0  0  0
 12 13  1  0  0  0
 12 38  1  0  0  0
 12 39  1  0  0  0
 13 14  1  0  0  0
 13 15  1  0  0  0
 13 40  1  0  0  0
 14 41  1  0  0  0
 15 16  1  0  0  0
 15 42  1  0  0  0
 16 17  1  0  0  0
 16 43  1  0  0  0
 16 44  1  0  0  0
 17 18  1  0  0  0
 17 45  1  0  0  0
 18 19  2  0  0  0
 18 20  1  0  0  0
 20 21  1  0  0  0
 20 46  1  0  0  0
 21 22  2  0  0  0
 21 23  1  0  0  0
 22 27  1  0  0  0
 22 47  1  0  0  0
 23 24  2  0  0  0
 23 48  1  0  0  0
 24 25  1  0  0  0
 24 49  1  0  0  0
 25 26  1  0  0  0
 25 27  2  0  0  0
 27 28  1  0  0  0
 28 29  1  0  0  0
 28 30  1  0  0  0
 28 31  1  0  0  0
M  END
> <s_m_source_file>
../2yof_ligand.sdf

> <i_m_source_file_index>
1

> <s_epik_input>
Tz1jMVtuSF1jKD1PKWMoW0NIM10pW2NIXW4xW0NAQEhdMk9bQ0BASF0oW0NASF0oW0NIMl0yKVtPSF0pW0NIMl1bTkhdQyg9UylbTkhdYzNbY0hdYyhDKEYpKEYpRiljKENsKVtjSF1bY0hdMw==

> <s_epik_cmdline>
J2VwaWtfYXBwJywgJy1pbWFlJywgJ2xpZ2FuZF9wcm8ubWFlJywgJy1vbWFlJywgJ2xpZ2FuZF9wcmVwLm1hZScsICctbXMnLCAnMScsICctcGgnLCAnNycsICctcGh0JywgJzAuNScsICctbnQn

> <r_lp_tautomer_probability>
1

> <r_epik_Ionization_Penalty>
  0.0012

> <r_epik_Ionization_Penalty_Charging>
  0.0012

> <r_epik_Ionization_Penalty_Neutral>
  0.0000

> <r_epik_State_Penalty>
 -0.0000

> <r_epik_Charging_Adjusted_Penalty>
0.00123115226554681

> <i_epik_Tot_Q>
0

> <i_epik_Tot_abs_Q>
0

> <s_epik_Chemistry_Notes>
This compound contains an acetal/aminal-like group ( X-CH(R)-Y where X, Y are N, S, or O) that may be acid/base labile, releasing an aldehyde.

$$$$
