2yoh_ligand
                    3D
 Schrodinger Suite 2020-3.
 48 50  0  0  1  0            999 V2000
   17.6660    4.0480    4.1400 O   0  0  0  0  0  0
   16.4620    3.9870    4.2040 C   0  0  0  0  0  0
   15.8860    3.3380    5.2800 N   0  0  0  0  0  0
   14.5110    3.2620    5.3910 C   0  0  0  0  0  0
   14.0560    2.6580    6.3510 O   0  0  0  0  0  0
   13.7010    3.7960    4.3740 C   0  0  0  0  0  0
   12.1680    3.7330    4.4520 C   0  0  0  0  0  0
   14.2740    4.4320    3.2920 C   0  0  0  0  0  0
   15.6790    4.5060    3.1850 N   0  0  0  0  0  0
   16.3740    5.1290    1.9970 C   0  0  1  0  0  0
   15.3940    5.1650    0.9390 O   0  0  0  0  0  0
   16.8980    6.5260    2.2110 C   0  0  0  0  0  0
   15.8160    7.3890    1.5940 C   0  0  2  0  0  0
   14.8040    7.6080    2.5460 O   0  0  0  0  0  0
   15.2730    6.5170    0.4710 C   0  0  1  0  0  0
   16.1370    6.5810   -0.8170 C   0  0  0  0  0  0
   15.9560    7.9020   -1.4400 N   0  0  0  0  0  0
   15.1320    8.0590   -2.5060 C   0  0  0  0  0  0
   14.4840    7.1190   -3.0150 O   0  0  0  0  0  0
   15.1460    9.2910   -3.0310 N   0  0  0  0  0  0
   14.4170    9.7210   -4.1090 C   0  0  0  0  0  0
   14.7520   10.9650   -4.6520 C   0  0  0  0  0  0
   14.0440   11.4550   -5.7620 C   0  0  0  0  0  0
   13.3750    8.9750   -4.6630 C   0  0  0  0  0  0
   12.6320    9.4690   -5.7520 C   0  0  0  0  0  0
   12.9830   10.7090   -6.2960 C   0  0  0  0  0  0
   12.3020   11.1810   -7.3570 N   0  3  0  0  0  0
   10.9650   10.8640   -7.5010 O   0  0  0  0  0  0
   12.9810   11.9210   -8.2970 O   0  5  0  0  0  0
   16.5228    2.8800    6.0512 H   0  0  0  0  0  0
   11.8690    3.1981    5.3655 H   0  0  0  0  0  0
   11.7776    3.2016    3.5716 H   0  0  0  0  0  0
   11.7598    4.7542    4.4747 H   0  0  0  0  0  0
   13.6431    4.8760    2.5220 H   0  0  0  0  0  0
   17.2479    4.5140    1.7358 H   0  0  0  0  0  0
   17.0241    6.7093    3.2883 H   0  0  0  0  0  0
   17.8683    6.6353    1.7044 H   0  0  0  0  0  0
   16.1314    8.4000    1.2966 H   0  0  0  0  0  0
   15.0098    8.2201    3.4365 H   0  0  0  0  0  0
   14.2305    6.8008    0.2643 H   0  0  0  0  0  0
   17.1953    6.4322   -0.5564 H   0  0  0  0  0  0
   15.8164    5.7920   -1.5132 H   0  0  0  0  0  0
   16.4920    8.7761   -1.0416 H   0  0  0  0  0  0
   15.7874   10.0690   -2.5913 H   0  0  0  0  0  0
   15.5597   11.5526   -4.2156 H   0  0  0  0  0  0
   14.3182   12.4116   -6.2067 H   0  0  0  0  0  0
   13.1335    7.9970   -4.2468 H   0  0  0  0  0  0
   11.8002    8.8969   -6.1629 H   0  0  0  0  0  0
  1  2  2  0  0  0
  2  3  1  0  0  0
  2  9  1  0  0  0
  3  4  1  0  0  0
  3 30  1  0  0  0
  4  5  2  0  0  0
  4  6  1  0  0  0
  6  7  1  0  0  0
  6  8  2  0  0  0
  7 31  1  0  0  0
  7 32  1  0  0  0
  7 33  1  0  0  0
  8  9  1  0  0  0
  8 34  1  0  0  0
  9 10  1  0  0  0
 10 11  1  0  0  0
 10 12  1  0  0  0
 10 35  1  0  0  0
 11 15  1  0  0  0
 12 13  1  0  0  0
 12 36  1  0  0  0
 12 37  1  0  0  0
 13 14  1  0  0  0
 13 15  1  0  0  0
 13 38  1  0  0  0
 14 39  1  0  0  0
 15 16  1  0  0  0
 15 40  1  0  0  0
 16 17  1  0  0  0
 16 41  1  0  0  0
 16 42  1  0  0  0
 17 18  1  0  0  0
 17 43  1  0  0  0
 18 19  2  0  0  0
 18 20  1  0  0  0
 20 21  1  0  0  0
 20 44  1  0  0  0
 21 22  2  0  0  0
 21 24  1  0  0  0
 22 23  1  0  0  0
 22 45  1  0  0  0
 23 26  2  0  0  0
 23 46  1  0  0  0
 24 25  2  0  0  0
 24 47  1  0  0  0
 25 26  1  0  0  0
 25 48  1  0  0  0
 26 27  1  0  0  0
 27 28  2  0  0  0
 27 29  1  0  0  0
M  CHG  2  27   1  29  -1
M  END
> <s_m_source_file>
../2yoh_ligand.sdf

> <i_m_source_file_index>
1

> <s_epik_input>
Tz1jMVtuSF1jKD1PKWMoW0NIM10pW2NIXW4xW0NASF0yT1tDQEBIXShbQ0BIXShbQ0gyXTIpW09IXSlbQ0gyXVtOSF1DKD1PKVtOSF1jM1tjSF1bY0hdYyhbTitdKD1PKVtPLV0pW2NIXVtjSF0z

> <s_epik_cmdline>
J2VwaWtfYXBwJywgJy1pbWFlJywgJ2xpZ2FuZF9wcm8ubWFlJywgJy1vbWFlJywgJ2xpZ2FuZF9wcmVwLm1hZScsICctbXMnLCAnMScsICctcGgnLCAnNycsICctcGh0JywgJzAuNScsICctbnQn

> <r_lp_tautomer_probability>
1

> <r_epik_Ionization_Penalty>
  0.0012

> <r_epik_Ionization_Penalty_Charging>
  0.0012

> <r_epik_Ionization_Penalty_Neutral>
  0.0000

> <r_epik_State_Penalty>
 -0.0000

> <r_epik_Charging_Adjusted_Penalty>
0.00119925385679328

> <i_epik_Tot_Q>
0

> <i_epik_Tot_abs_Q>
2

> <s_epik_Chemistry_Notes>
This compound contains an acetal/aminal-like group ( X-CH(R)-Y where X, Y are N, S, or O) that may be acid/base labile, releasing an aldehyde.

$$$$
