2yol_ligand
                    3D
 Schrodinger Suite 2020-3.
 90 91  0  0  1  0            999 V2000
   48.4550  -27.4740  -22.8560 C   0  0  0  0  0  0
   49.4530  -27.2750  -23.5530 O   0  0  0  0  0  0
   47.9490  -28.8910  -22.5440 C   0  0  0  0  0  0
   48.9590  -29.7240  -22.1240 C   0  0  0  0  0  0
   49.6000  -30.5250  -23.0560 C   0  0  0  0  0  0
   50.6110  -31.3620  -22.6450 C   0  0  0  0  0  0
   50.9490  -31.3800  -21.3010 C   0  0  0  0  0  0
   52.1810  -32.4110  -20.7790 Cl  0  0  0  0  0  0
   50.3020  -30.5800  -20.3640 C   0  0  0  0  0  0
   50.7780  -30.6360  -18.6420 Cl  0  0  0  0  0  0
   49.2880  -29.7410  -20.7790 C   0  0  0  0  0  0
   47.6890  -26.5150  -22.3170 N   0  0  0  0  0  0
   47.9550  -25.0900  -22.5340 C   0  0  2  0  0  0
   48.6700  -24.4530  -21.3020 C   0  0  0  0  0  0
   49.3260  -23.4070  -21.4350 O   0  0  0  0  0  0
   46.6440  -24.3810  -22.9750 C   0  0  0  0  0  0
   45.3440  -25.0310  -22.4370 C   0  0  0  0  0  0
   44.4680  -25.5930  -23.5870 C   0  0  0  0  0  0
   43.9060  -24.4880  -24.5140 C   0  0  0  0  0  0
   42.5750  -24.0260  -24.0850 N   0  3  0  0  0  0
   48.5350  -25.1480  -20.1400 N   0  0  0  0  0  0
   49.2050  -24.7630  -18.8790 C   0  0  2  0  0  0
   50.4260  -25.6920  -18.7360 C   0  0  0  0  0  0
   50.3080  -26.8530  -18.3420 O   0  0  0  0  0  0
   48.2430  -24.8060  -17.6990 C   0  0  0  0  0  0
   47.2490  -23.6700  -17.9330 C   0  0  0  0  0  0
   46.3880  -23.4620  -16.6990 C   0  0  0  0  0  0
   45.8020  -22.0600  -16.7310 C   0  0  0  0  0  0
   45.7600  -21.4860  -15.3730 N   0  3  0  0  0  0
   53.9240  -25.9020  -22.9520 C   0  0  0  0  0  0
   53.6540  -27.3640  -23.1960 C   0  0  2  0  0  0
   53.6510  -27.6870  -24.6470 N   0  0  0  0  0  0
   52.6610  -28.1490  -25.4670 C   0  0  0  0  0  0
   52.9600  -28.4530  -26.7390 N   0  3  0  0  0  0
   51.3920  -28.3180  -25.0540 N   0  0  0  0  0  0
   52.3910  -27.7720  -22.4550 C   0  0  0  0  0  0
   52.6140  -27.5530  -20.9650 C   0  0  0  0  0  0
   52.8480  -26.0930  -20.7450 C   0  0  2  0  0  0
   54.1110  -25.6920  -21.4370 C   0  0  0  0  0  0
   52.8760  -25.8000  -19.2640 C   0  0  0  0  0  0
   51.5840  -25.1280  -19.1480 N   0  0  0  0  0  0
   47.1928  -28.8430  -21.7466 H   0  0  0  0  0  0
   47.5007  -29.3278  -23.4486 H   0  0  0  0  0  0
   49.3056  -30.4919  -24.1050 H   0  0  0  0  0  0
   51.1345  -31.9967  -23.3600 H   0  0  0  0  0  0
   48.7595  -29.1079  -20.0663 H   0  0  0  0  0  0
   46.8375  -26.8270  -21.6944 H   0  0  0  0  0  0
   48.6686  -25.0246  -23.3685 H   0  0  0  0  0  0
   46.6513  -23.3410  -22.6169 H   0  0  0  0  0  0
   46.5735  -24.3903  -24.0727 H   0  0  0  0  0  0
   45.6011  -25.8591  -21.7601 H   0  0  0  0  0  0
   44.7572  -24.2786  -21.8896 H   0  0  0  0  0  0
   45.0692  -26.2749  -24.2062 H   0  0  0  0  0  0
   43.6132  -26.1403  -23.1630 H   0  0  0  0  0  0
   44.5861  -23.6235  -24.5080 H   0  0  0  0  0  0
   43.8183  -24.8785  -25.5386 H   0  0  0  0  0  0
   42.2192  -23.2441  -24.7721 H   0  0  0  0  0  0
   42.6398  -23.6169  -23.0660 H   0  0  0  0  0  0
   41.8720  -24.8719  -24.0965 H   0  0  0  0  0  0
   47.8883  -26.0373  -20.1699 H   0  0  0  0  0  0
   49.5236  -23.7112  -18.9271 H   0  0  0  0  0  0
   47.7360  -25.7819  -17.6746 H   0  0  0  0  0  0
   48.8033  -24.6604  -16.7636 H   0  0  0  0  0  0
   47.7977  -22.7415  -18.1493 H   0  0  0  0  0  0
   46.6007  -23.9199  -18.7858 H   0  0  0  0  0  0
   45.5747  -24.2026  -16.6903 H   0  0  0  0  0  0
   47.0049  -23.5844  -15.7965 H   0  0  0  0  0  0
   46.4239  -21.4172  -17.3713 H   0  0  0  0  0  0
   44.7792  -22.0992  -17.1339 H   0  0  0  0  0  0
   45.3337  -20.4729  -15.4162 H   0  0  0  0  0  0
   46.7799  -21.4375  -14.9637 H   0  0  0  0  0  0
   45.1351  -22.1195  -14.7263 H   0  0  0  0  0  0
   54.8355  -25.6027  -23.4901 H   0  0  0  0  0  0
   53.0727  -25.3066  -23.3135 H   0  0  0  0  0  0
   54.4837  -27.9730  -22.8078 H   0  0  0  0  0  0
   54.5682  -27.5595  -25.2407 H   0  0  0  0  0  0
   53.9886  -28.3259  -27.1077 H   0  0  0  0  0  0
   51.1145  -28.0779  -24.0170 H   0  0  0  0  0  0
   50.6318  -28.6963  -25.7533 H   0  0  0  0  0  0
   51.5473  -27.1579  -22.8029 H   0  0  0  0  0  0
   52.1775  -28.8331  -22.6510 H   0  0  0  0  0  0
   51.7247  -27.8841  -20.4086 H   0  0  0  0  0  0
   53.4891  -28.1326  -20.6361 H   0  0  0  0  0  0
   52.0315  -25.5013  -21.1845 H   0  0  0  0  0  0
   54.9476  -26.3114  -21.0815 H   0  0  0  0  0  0
   54.3289  -24.6323  -21.2378 H   0  0  0  0  0  0
   52.9523  -26.7442  -18.7048 H   0  0  0  0  0  0
   53.7441  -25.1654  -19.0321 H   0  0  0  0  0  0
   51.4925  -24.0632  -19.4084 H   0  0  0  0  0  0
   52.1766  -28.8293  -27.4133 H   0  0  0  0  0  0
  1  2  2  0  0  0
  1  3  1  0  0  0
  1 12  1  0  0  0
  3  4  1  0  0  0
  3 42  1  0  0  0
  3 43  1  0  0  0
  4  5  2  0  0  0
  4 11  1  0  0  0
  5  6  1  0  0  0
  5 44  1  0  0  0
  6  7  2  0  0  0
  6 45  1  0  0  0
  7  8  1  0  0  0
  7  9  1  0  0  0
  9 10  1  0  0  0
  9 11  2  0  0  0
 11 46  1  0  0  0
 12 13  1  0  0  0
 12 47  1  0  0  0
 13 14  1  0  0  0
 13 16  1  0  0  0
 13 48  1  0  0  0
 14 15  2  0  0  0
 14 21  1  0  0  0
 16 17  1  0  0  0
 16 49  1  0  0  0
 16 50  1  0  0  0
 17 18  1  0  0  0
 17 51  1  0  0  0
 17 52  1  0  0  0
 18 19  1  0  0  0
 18 53  1  0  0  0
 18 54  1  0  0  0
 19 20  1  0  0  0
 19 55  1  0  0  0
 19 56  1  0  0  0
 20 57  1  0  0  0
 20 58  1  0  0  0
 20 59  1  0  0  0
 21 22  1  0  0  0
 21 60  1  0  0  0
 22 23  1  0  0  0
 22 25  1  0  0  0
 22 61  1  0  0  0
 23 24  2  0  0  0
 23 41  1  0  0  0
 25 26  1  0  0  0
 25 62  1  0  0  0
 25 63  1  0  0  0
 26 27  1  0  0  0
 26 64  1  0  0  0
 26 65  1  0  0  0
 27 28  1  0  0  0
 27 66  1  0  0  0
 27 67  1  0  0  0
 28 29  1  0  0  0
 28 68  1  0  0  0
 28 69  1  0  0  0
 29 70  1  0  0  0
 29 71  1  0  0  0
 29 72  1  0  0  0
 30 31  1  0  0  0
 30 39  1  0  0  0
 30 73  1  0  0  0
 30 74  1  0  0  0
 31 32  1  0  0  0
 31 36  1  0  0  0
 31 75  1  0  0  0
 32 33  1  0  0  0
 32 76  1  0  0  0
 33 34  2  0  0  0
 33 35  1  0  0  0
 34 77  1  0  0  0
 34 90  1  0  0  0
 35 78  1  0  0  0
 35 79  1  0  0  0
 36 37  1  0  0  0
 36 80  1  0  0  0
 36 81  1  0  0  0
 37 38  1  0  0  0
 37 82  1  0  0  0
 37 83  1  0  0  0
 38 39  1  0  0  0
 38 40  1  0  0  0
 38 84  1  0  0  0
 39 85  1  0  0  0
 39 86  1  0  0  0
 40 41  1  0  0  0
 40 87  1  0  0  0
 40 88  1  0  0  0
 41 89  1  0  0  0
M  CHG  3  20   1  29   1  34   1
M  END
> <s_m_source_file>
../2yol_ligand.sdf

> <i_m_source_file_index>
1

> <s_epik_input>
Q2xjKFtjSF0xKWMoQ2wpW2NIXVtjSF1jMVtDSDJdQyg9TylbTkhdW0NAQEhdKFtDSDJdW0NIMl1bQ0gyXVtDSDJdW05IMytdKUMoPU8pW05IXVtDQEBIXShbQ0gyXVtDSDJdW0NIMl1bQ0gyXVtOSDMrXSlDKD1PKVtOSF1bQ0gyXVtDQEhdKFtDSDJdW0NIMl0yKVtDSDJdW0NIMl1bQ0BASF0yW05IXS9DKD1OXFtIXSlbTkgyXQ==

> <s_epik_cmdline>
J2VwaWtfYXBwJywgJy1pbWFlJywgJ2xpZ2FuZF9wcm8ubWFlJywgJy1vbWFlJywgJ2xpZ2FuZF9wcmVwLm1hZScsICctbXMnLCAnMScsICctcGgnLCAnNycsICctcGh0JywgJzAuNScsICctbnQn

> <r_lp_tautomer_probability>
1

> <r_epik_Ionization_Penalty>
  0.0009

> <r_epik_Ionization_Penalty_Charging>
  0.0009

> <r_epik_Ionization_Penalty_Neutral>
  0.0000

> <r_epik_State_Penalty>
 -0.0000

> <r_epik_Charging_Adjusted_Penalty>
0.000899989548132184

> <i_epik_Tot_Q>
3

> <i_epik_Tot_abs_Q>
3

> <s_epik_Chemistry_Notes>
This compound has an imine and may undergo hydrolysis.

$$$$
