2yq6_ligand
                    3D
 Schrodinger Suite 2020-3.
294297  0  0  1  0            999 V2000
   15.7140    6.9030   -0.0300 N   0  3  0  0  0  0
   16.6400    7.0540   -1.1450 C   0  0  2  0  0  0
   15.9060    6.9110   -2.4730 C   0  0  0  0  0  0
   14.7880    7.3930   -2.6250 O   0  0  0  0  0  0
   17.7620    6.0200   -1.0490 C   0  0  0  0  0  0
   16.5530    6.2480   -3.4280 N   0  0  0  0  0  0
   15.9800    6.0040   -4.7500 C   0  0  2  0  0  0
   14.5820    5.4060   -4.6550 C   0  0  0  0  0  0
   13.6520    5.8540   -5.3230 O   0  0  0  0  0  0
   16.8780    5.0420   -5.5700 C   0  0  2  0  0  0
   18.1590    5.7490   -5.9980 C   0  0  0  0  0  0
   16.1380    4.5260   -6.7970 C   0  0  0  0  0  0
   19.1460    4.8480   -6.7210 C   0  0  0  0  0  0
   14.4420    4.4060   -3.7940 N   0  0  0  0  0  0
   13.1940    3.6750   -3.6560 C   0  0  2  0  0  0
   12.0950    4.5500   -3.0710 C   0  0  0  0  0  0
   10.9440    4.4890   -3.5020 O   0  0  0  0  0  0
   13.4120    2.4460   -2.7910 C   0  0  0  0  0  0
   12.4550    5.3630   -2.0830 N   0  0  0  0  0  0
   11.4860    6.2470   -1.4440 C   0  0  2  0  0  0
   10.9580    7.2980   -2.4120 C   0  0  0  0  0  0
    9.7750    7.6380   -2.3790 O   0  0  0  0  0  0
   12.0970    6.9230   -0.2140 C   0  0  0  0  0  0
   12.3950    5.9650    0.9290 C   0  0  0  0  0  0
   11.1860    5.1330    1.3220 C   0  0  0  0  0  0
   11.2930    3.9220    1.5260 O   0  0  0  0  0  0
   10.0280    5.7790    1.4290 N   0  0  0  0  0  0
   11.8370    7.8170   -3.2680 N   0  0  0  0  0  0
   11.4460    8.8370   -4.2400 C   0  0  2  0  0  0
   10.5690    8.2290   -5.3320 C   0  0  0  0  0  0
    9.5790    8.8240   -5.7710 O   0  0  0  0  0  0
   12.6800    9.4820   -4.8680 C   0  0  0  0  0  0
   12.3520   10.6610   -5.7720 C   0  0  0  0  0  0
   12.0420   11.9230   -4.9910 C   0  0  0  0  0  0
   12.8530   12.2950   -4.1170 O   0  0  0  0  0  0
   10.9880   12.5420   -5.2500 O   0  0  0  0  0  0
   10.9470    7.0360   -5.7730 N   0  0  0  0  0  0
   10.1660    6.2890   -6.7480 C   0  0  2  0  0  0
    8.7560    6.0110   -6.2280 C   0  0  0  0  0  0
    7.7690    6.1730   -6.9410 O   0  0  0  0  0  0
   10.8800    4.9730   -7.0490 C   0  0  0  0  0  0
   10.4480    4.1780   -8.2710 C   0  0  0  0  0  0
   10.5180    5.0560   -9.5370 C   0  0  0  0  0  0
   11.3340    2.9540   -8.4090 C   0  0  0  0  0  0
    8.6850    5.5840   -4.9720 N   0  0  0  0  0  0
    7.4160    5.3350   -4.3010 C   0  0  2  0  0  0
    6.5340    6.5820   -4.2390 C   0  0  0  0  0  0
    5.3570    6.5360   -4.6110 O   0  0  0  0  0  0
    7.6840    4.8100   -2.8860 C   0  0  0  0  0  0
    6.4240    4.4380   -2.1370 C   0  0  0  0  0  0
    6.5760    4.6420   -0.6260 C   0  0  0  0  0  0
    7.6610    3.8650   -0.0360 N   0  0  0  0  0  0
    7.5860    2.5680    0.2430 C   0  0  0  0  0  0
    6.4840    1.8850   -0.0390 N   0  0  0  0  0  0
    8.6220    1.9440    0.7870 N   0  0  0  0  0  0
    5.7630    9.3360   -5.0360 C   0  0  0  0  0  0
    7.1110    7.6960   -3.7880 N   0  0  0  0  0  0
    4.5800    9.6530   -5.0970 O   0  0  0  0  0  0
    6.4060    8.9760   -3.7000 C   0  0  1  0  0  0
    7.3910   10.0860   -3.3400 C   0  0  0  0  0  0
    6.7320   12.3220   -4.4070 C   0  0  0  0  0  0
    5.9590   13.6030   -4.1830 C   0  0  0  0  0  0
    6.7040   11.4430   -3.1540 C   0  0  0  0  0  0
    5.3380    8.8860   -2.6080 C   0  0  0  0  0  0
    6.5380    9.3010   -6.1170 N   0  0  0  0  0  0
    5.9680    9.7160   -7.3910 C   0  0  2  0  0  0
    4.9840    8.6640   -7.9340 C   0  0  0  0  0  0
    4.0240    9.0030   -8.6020 O   0  0  0  0  0  0
    7.0380   10.1240   -8.4280 C   0  0  2  0  0  0
    8.0690    9.0220   -8.6680 C   0  0  0  0  0  0
    7.7590   11.3960   -7.9730 C   0  0  0  0  0  0
    9.0840    9.3860   -9.7820 C   0  0  0  0  0  0
    5.2190    7.3950   -7.6250 N   0  0  0  0  0  0
    4.2680    6.3570   -7.9930 C   0  0  0  0  0  0
    2.9210    6.6110   -7.3510 C   0  0  0  0  0  0
    1.8660    6.4450   -7.9740 O   0  0  0  0  0  0
    2.9450    7.0250   -6.0890 N   0  0  0  0  0  0
    1.7130    7.3060   -5.3650 C   0  0  2  0  0  0
    1.0190    8.5710   -5.8540 C   0  0  0  0  0  0
   -0.2020    8.5700   -6.0240 O   0  0  0  0  0  0
    1.9650    7.3540   -3.8590 C   0  0  0  0  0  0
    2.2520    5.9810   -3.2820 C   0  0  0  0  0  0
    2.0110    4.9830   -3.9920 O   0  0  0  0  0  0
    2.7070    5.8900   -2.1240 O   0  0  0  0  0  0
    0.5540   10.5430   -7.9720 C   0  0  0  0  0  0
    1.7970    9.6310   -6.0840 N   0  0  0  0  0  0
   -0.5690   10.9870   -8.2080 O   0  0  0  0  0  0
    1.2680   10.8700   -6.6600 C   0  0  1  0  0  0
    2.4170   11.8290   -6.9530 C   0  0  0  0  0  0
    4.2820   13.2470   -6.0580 C   0  0  0  0  0  0
    4.8720   13.9690   -4.8690 C   0  0  0  0  0  0
    3.0380   12.4350   -5.6950 C   0  0  0  0  0  0
    0.2800   11.5190   -5.6970 C   0  0  0  0  0  0
    1.2050    9.7320   -8.7990 N   0  0  0  0  0  0
    0.7010    9.3470  -10.1190 C   0  0  2  0  0  0
   -0.5690    8.5110   -9.9730 C   0  0  0  0  0  0
   -1.5700    8.7300  -10.6720 O   0  0  0  0  0  0
    1.7910    8.5290  -10.8240 C   0  0  0  0  0  0
    1.5310    8.2470  -12.2820 C   0  0  0  0  0  0
    1.4110    9.2800  -13.1950 C   0  0  0  0  0  0
    1.4810    6.9440  -12.7460 C   0  0  0  0  0  0
    1.2190    9.0070  -14.5510 C   0  0  0  0  0  0
    1.2870    6.6710  -14.1030 C   0  0  0  0  0  0
    1.1460    7.7050  -14.9940 C   0  0  0  0  0  0
   -0.5310    7.5550   -9.0510 N   0  0  0  0  0  0
   -1.6820    6.7080   -8.7940 C   0  0  2  0  0  0
   -2.9010    7.5160   -8.3600 C   0  0  0  0  0  0
   -4.0300    7.2450   -8.7850 O   0  0  0  0  0  0
   -1.3530    5.6610   -7.7230 C   0  0  0  0  0  0
   -2.4600    4.6560   -7.5410 C   0  0  0  0  0  0
   -2.7690    3.8930   -8.4590 O   0  0  0  0  0  0
   -3.0540    4.6200   -6.3400 N   0  0  0  0  0  0
   -2.6810    8.5030   -7.4980 N   0  0  0  0  0  0
   -3.8020    9.2860   -6.9740 C   0  0  2  0  0  0
   -4.4700   10.0760   -8.0940 C   0  0  0  0  0  0
   -5.6810   10.2580   -8.1010 O   0  0  0  0  0  0
   -3.3350   10.2230   -5.8730 C   0  0  0  0  0  0
   -3.6790   10.5210   -9.0570 N   0  0  0  0  0  0
   -4.2200   11.3570  -10.1290 C   0  0  2  0  0  0
   -5.1850   10.5830  -11.0320 C   0  0  0  0  0  0
   -6.2570   11.0800  -11.3750 O   0  0  0  0  0  0
   -3.0920   11.9660  -10.9560 C   0  0  0  0  0  0
   -3.5580   12.9710  -11.9830 C   0  0  0  0  0  0
   -3.6580   14.3200  -11.6660 C   0  0  0  0  0  0
   -3.8880   12.5720  -13.2700 C   0  0  0  0  0  0
   -4.0750   15.2430  -12.6020 C   0  0  0  0  0  0
   -4.3130   13.4880  -14.2100 C   0  0  0  0  0  0
   -4.3990   14.8170  -13.8720 C   0  0  0  0  0  0
   -4.8120   15.7280  -14.8150 O   0  0  0  0  0  0
   -4.8060    9.3630  -11.4040 N   0  0  0  0  0  0
   -5.6070    8.5560  -12.3290 C   0  0  2  0  0  0
   -6.5310    7.5330  -11.6900 C   0  0  0  0  0  0
   -7.6110    7.2570  -12.2160 O   0  0  0  0  0  0
   -4.6900    7.8440  -13.3220 C   0  0  0  0  0  0
   -4.1530    8.7890  -14.3590 C   0  0  0  0  0  0
   -4.9980    9.3500  -15.3080 C   0  0  0  0  0  0
   -2.8110    9.1430  -14.3830 C   0  0  0  0  0  0
   -4.5260   10.2310  -16.2600 C   0  0  0  0  0  0
   -2.3270   10.0330  -15.3470 C   0  0  0  0  0  0
   -3.1920   10.5610  -16.2810 C   0  0  0  0  0  0
   -2.7420   11.4420  -17.2380 O   0  0  0  0  0  0
   -6.1060    6.9570  -10.5690 N   0  0  0  0  0  0
   -6.8580    5.8680   -9.9470 C   0  0  2  0  0  0
   -7.5420    6.2750   -8.6460 C   0  0  0  0  0  0
   -7.1380    7.2340   -7.9910 O   0  0  0  0  0  0
   -5.9490    4.6640   -9.7160 C   0  0  0  0  0  0
   -8.5850    5.5380   -8.2770 N   0  0  0  0  0  0
   14.9139    7.6532   -0.1137 H   0  0  0  0  0  0
   16.2542    7.0472    0.9173 H   0  0  0  0  0  0
   15.2750    5.8946   -0.0520 H   0  0  0  0  0  0
   17.0517    8.0701   -1.0555 H   0  0  0  0  0  0
   18.2837    6.1333   -0.0872 H   0  0  0  0  0  0
   18.4743    6.1743   -1.8729 H   0  0  0  0  0  0
   17.3353    5.0085   -1.1178 H   0  0  0  0  0  0
   17.5607    5.8776   -3.1884 H   0  0  0  0  0  0
   15.9245    7.0045   -5.2039 H   0  0  0  0  0  0
   17.1456    4.1778   -4.9442 H   0  0  0  0  0  0
   17.9113    6.5752   -6.6807 H   0  0  0  0  0  0
   18.6717    6.1481   -5.1104 H   0  0  0  0  0  0
   15.2152    4.0172   -6.4816 H   0  0  0  0  0  0
   16.7798    3.8174   -7.3411 H   0  0  0  0  0  0
   15.8846    5.3707   -7.4545 H   0  0  0  0  0  0
   20.0391    5.4284   -6.9956 H   0  0  0  0  0  0
   18.6765    4.4452   -7.6306 H   0  0  0  0  0  0
   19.4369    4.0181   -6.0602 H   0  0  0  0  0  0
   15.3091    4.1360   -3.1734 H   0  0  0  0  0  0
   12.9084    3.3816   -4.6770 H   0  0  0  0  0  0
   14.2086    1.8263   -3.2285 H   0  0  0  0  0  0
   12.4803    1.8634   -2.7402 H   0  0  0  0  0  0
   13.7050    2.7581   -1.7777 H   0  0  0  0  0  0
   13.5029    5.3622   -1.7486 H   0  0  0  0  0  0
   10.6593    5.5846   -1.1477 H   0  0  0  0  0  0
   13.0465    7.4031   -0.4932 H   0  0  0  0  0  0
   11.4009    7.6831    0.1704 H   0  0  0  0  0  0
   13.1976    5.2750    0.6293 H   0  0  0  0  0  0
   12.7141    6.5367    1.8129 H   0  0  0  0  0  0
    9.9821    6.8611    1.2370 H   0  0  0  0  0  0
    9.1164    5.2310    1.7095 H   0  0  0  0  0  0
   12.8773    7.4614   -3.2323 H   0  0  0  0  0  0
   10.8762    9.5858   -3.6702 H   0  0  0  0  0  0
   13.3457    9.8503   -4.0735 H   0  0  0  0  0  0
   13.2132    8.7372   -5.4771 H   0  0  0  0  0  0
   13.2104   10.8706   -6.4272 H   0  0  0  0  0  0
   11.4724   10.4184   -6.3864 H   0  0  0  0  0  0
   10.7397   13.4604   -4.6978 H   0  0  0  0  0  0
   11.8829    6.6139   -5.3782 H   0  0  0  0  0  0
   10.1022    6.9244   -7.6437 H   0  0  0  0  0  0
   11.9523    5.1644   -7.2024 H   0  0  0  0  0  0
   10.7482    4.2824   -6.2030 H   0  0  0  0  0  0
    9.4094    3.8420   -8.1348 H   0  0  0  0  0  0
    9.8680    5.9343   -9.4104 H   0  0  0  0  0  0
   10.1812    4.4728  -10.4067 H   0  0  0  0  0  0
   11.5548    5.3871   -9.6967 H   0  0  0  0  0  0
   11.2654    2.3467   -7.4944 H   0  0  0  0  0  0
   12.3762    3.2711   -8.5613 H   0  0  0  0  0  0
   11.0026    2.3569   -9.2713 H   0  0  0  0  0  0
    9.6318    5.4187   -4.4370 H   0  0  0  0  0  0
    6.9092    4.5838   -4.9246 H   0  0  0  0  0  0
    8.3138    3.9099   -2.9421 H   0  0  0  0  0  0
    8.2015    5.5836   -2.2997 H   0  0  0  0  0  0
    5.5907    5.0650   -2.4870 H   0  0  0  0  0  0
    6.1880    3.3792   -2.3195 H   0  0  0  0  0  0
    6.7817    5.7024   -0.4181 H   0  0  0  0  0  0
    5.6461    4.3428   -0.1202 H   0  0  0  0  0  0
    8.6172    4.3516    0.2066 H   0  0  0  0  0  0
    5.6207    2.3959   -0.4903 H   0  0  0  0  0  0
    6.4337    0.8079    0.1785 H   0  0  0  0  0  0
    9.5389    2.5037    1.0235 H   0  0  0  0  0  0
    8.1629    7.6248   -3.4744 H   0  0  0  0  0  0
    7.9007    9.8328   -2.3987 H   0  0  0  0  0  0
    8.1352   10.1906   -4.1433 H   0  0  0  0  0  0
    6.2826   11.7637   -5.2415 H   0  0  0  0  0  0
    7.7781   12.5623   -4.6478 H   0  0  0  0  0  0
    6.3528   14.2537   -3.3883 H   0  0  0  0  0  0
    5.6485   11.2861   -2.8869 H   0  0  0  0  0  0
    7.2065   12.0013   -2.3504 H   0  0  0  0  0  0
    4.6233    8.0883   -2.8590 H   0  0  0  0  0  0
    4.8057    9.8459   -2.5358 H   0  0  0  0  0  0
    5.8173    8.6591   -1.6442 H   0  0  0  0  0  0
    7.5854    8.9691   -6.0651 H   0  0  0  0  0  0
    5.4055   10.6241   -7.1286 H   0  0  0  0  0  0
    6.5190   10.3051   -9.3808 H   0  0  0  0  0  0
    8.6348    8.8413   -7.7421 H   0  0  0  0  0  0
    7.5544    8.0977   -8.9695 H   0  0  0  0  0  0
    7.0213   12.1931   -7.7986 H   0  0  0  0  0  0
    8.4665   11.7152   -8.7525 H   0  0  0  0  0  0
    8.3071   11.1933   -7.0411 H   0  0  0  0  0  0
    9.7989    8.5599   -9.9109 H   0  0  0  0  0  0
    9.6268   10.2999   -9.4990 H   0  0  0  0  0  0
    8.5464    9.5564  -10.7264 H   0  0  0  0  0  0
    6.1410    7.1304   -7.0866 H   0  0  0  0  0  0
    4.1435    6.3446   -9.0859 H   0  0  0  0  0  0
    4.6432    5.3796   -7.6556 H   0  0  0  0  0  0
    3.9173    7.1547   -5.5912 H   0  0  0  0  0  0
    1.0607    6.4539   -5.6069 H   0  0  0  0  0  0
    2.8317    7.9992   -3.6527 H   0  0  0  0  0  0
    1.0772    7.7591   -3.3514 H   0  0  0  0  0  0
    2.2073    3.9723   -3.6049 H   0  0  0  0  0  0
    2.8641    9.5553   -5.8278 H   0  0  0  0  0  0
    3.2140   11.2933   -7.4894 H   0  0  0  0  0  0
    2.0516   12.6601   -7.5741 H   0  0  0  0  0  0
    3.9946   13.9799   -6.8263 H   0  0  0  0  0  0
    5.0283   12.5539   -6.4734 H   0  0  0  0  0  0
    4.3185   14.8747   -4.5803 H   0  0  0  0  0  0
    2.3066   13.0960   -5.2070 H   0  0  0  0  0  0
    3.3235   11.6295   -5.0025 H   0  0  0  0  0  0
   -0.5446   10.8205   -5.4917 H   0  0  0  0  0  0
   -0.1219   12.4382   -6.1482 H   0  0  0  0  0  0
    0.7937   11.7665   -4.7563 H   0  0  0  0  0  0
    2.1719    9.3450   -8.4451 H   0  0  0  0  0  0
    0.4657   10.2685  -10.6716 H   0  0  0  0  0  0
    2.7469    9.0709  -10.7729 H   0  0  0  0  0  0
    1.8959    7.5530  -10.3275 H   0  0  0  0  0  0
    1.4667   10.3136  -12.8534 H   0  0  0  0  0  0
    1.5946    6.1188  -12.0430 H   0  0  0  0  0  0
    1.1265    9.8280  -15.2620 H   0  0  0  0  0  0
    1.2478    5.6393  -14.4526 H   0  0  0  0  0  0
    0.9765    7.4963  -16.0503 H   0  0  0  0  0  0
    0.3964    7.4117   -8.4771 H   0  0  0  0  0  0
   -1.8853    6.2345   -9.7659 H   0  0  0  0  0  0
   -0.4431    5.1145   -8.0118 H   0  0  0  0  0  0
   -1.1886    6.1627   -6.7580 H   0  0  0  0  0  0
   -2.7438    5.3217   -5.5517 H   0  0  0  0  0  0
   -3.8517    3.8888   -6.1426 H   0  0  0  0  0  0
   -1.6536    8.7313   -7.1782 H   0  0  0  0  0  0
   -4.5119    8.5576   -6.5550 H   0  0  0  0  0  0
   -2.8559    9.6391   -5.0733 H   0  0  0  0  0  0
   -4.1991   10.7663   -5.4629 H   0  0  0  0  0  0
   -2.6120   10.9420   -6.2856 H   0  0  0  0  0  0
   -2.6105   10.2598   -9.0492 H   0  0  0  0  0  0
   -4.7773   12.1495   -9.6081 H   0  0  0  0  0  0
   -2.3878   12.4853  -10.2894 H   0  0  0  0  0  0
   -2.5632   11.1684  -11.4984 H   0  0  0  0  0  0
   -3.4026   14.6545  -10.6605 H   0  0  0  0  0  0
   -3.8104   11.5195  -13.5425 H   0  0  0  0  0  0
   -4.1476   16.2986  -12.3400 H   0  0  0  0  0  0
   -4.5789   13.1594  -15.2147 H   0  0  0  0  0  0
   -4.8844   16.7944  -14.5549 H   0  0  0  0  0  0
   -3.8649    8.9631  -10.9986 H   0  0  0  0  0  0
   -6.2548    9.3132  -12.7949 H   0  0  0  0  0  0
   -3.8391    7.4017  -12.7832 H   0  0  0  0  0  0
   -5.2518    7.0497  -13.8354 H   0  0  0  0  0  0
   -6.0563    9.0890  -15.3008 H   0  0  0  0  0  0
   -2.1284    8.7236  -13.6439 H   0  0  0  0  0  0
   -5.2083   10.6631  -16.9920 H   0  0  0  0  0  0
   -1.2722   10.3074  -15.3596 H   0  0  0  0  0  0
   -3.4431   11.8560  -17.9776 H   0  0  0  0  0  0
   -5.1720    7.3129  -10.1097 H   0  0  0  0  0  0
   -7.6443    5.6330  -10.6794 H   0  0  0  0  0  0
   -5.4641    4.3837  -10.6627 H   0  0  0  0  0  0
   -6.5474    3.8184   -9.3461 H   0  0  0  0  0  0
   -5.1804    4.9222   -8.9727 H   0  0  0  0  0  0
   -8.9066    4.6897   -8.8990 H   0  0  0  0  0  0
   -9.1264    5.7765   -7.3497 H   0  0  0  0  0  0
  1  2  1  0  0  0
  1148  1  0  0  0
  1149  1  0  0  0
  1150  1  0  0  0
  2  3  1  0  0  0
  2  5  1  0  0  0
  2151  1  0  0  0
  3  4  2  0  0  0
  3  6  1  0  0  0
  5152  1  0  0  0
  5153  1  0  0  0
  5154  1  0  0  0
  6  7  1  0  0  0
  6155  1  0  0  0
  7  8  1  0  0  0
  7 10  1  0  0  0
  7156  1  0  0  0
  8  9  2  0  0  0
  8 14  1  0  0  0
 10 11  1  0  0  0
 10 12  1  0  0  0
 10157  1  0  0  0
 11 13  1  0  0  0
 11158  1  0  0  0
 11159  1  0  0  0
 12160  1  0  0  0
 12161  1  0  0  0
 12162  1  0  0  0
 13163  1  0  0  0
 13164  1  0  0  0
 13165  1  0  0  0
 14 15  1  0  0  0
 14166  1  0  0  0
 15 16  1  0  0  0
 15 18  1  0  0  0
 15167  1  0  0  0
 16 17  2  0  0  0
 16 19  1  0  0  0
 18168  1  0  0  0
 18169  1  0  0  0
 18170  1  0  0  0
 19 20  1  0  0  0
 19171  1  0  0  0
 20 21  1  0  0  0
 20 23  1  0  0  0
 20172  1  0  0  0
 21 22  2  0  0  0
 21 28  1  0  0  0
 23 24  1  0  0  0
 23173  1  0  0  0
 23174  1  0  0  0
 24 25  1  0  0  0
 24175  1  0  0  0
 24176  1  0  0  0
 25 26  2  0  0  0
 25 27  1  0  0  0
 27177  1  0  0  0
 27178  1  0  0  0
 28 29  1  0  0  0
 28179  1  0  0  0
 29 30  1  0  0  0
 29 32  1  0  0  0
 29180  1  0  0  0
 30 31  2  0  0  0
 30 37  1  0  0  0
 32 33  1  0  0  0
 32181  1  0  0  0
 32182  1  0  0  0
 33 34  1  0  0  0
 33183  1  0  0  0
 33184  1  0  0  0
 34 35  2  0  0  0
 34 36  1  0  0  0
 36185  1  0  0  0
 37 38  1  0  0  0
 37186  1  0  0  0
 38 39  1  0  0  0
 38 41  1  0  0  0
 38187  1  0  0  0
 39 40  2  0  0  0
 39 45  1  0  0  0
 41 42  1  0  0  0
 41188  1  0  0  0
 41189  1  0  0  0
 42 43  1  0  0  0
 42 44  1  0  0  0
 42190  1  0  0  0
 43191  1  0  0  0
 43192  1  0  0  0
 43193  1  0  0  0
 44194  1  0  0  0
 44195  1  0  0  0
 44196  1  0  0  0
 45 46  1  0  0  0
 45197  1  0  0  0
 46 47  1  0  0  0
 46 49  1  0  0  0
 46198  1  0  0  0
 47 48  2  0  0  0
 47 57  1  0  0  0
 49 50  1  0  0  0
 49199  1  0  0  0
 49200  1  0  0  0
 50 51  1  0  0  0
 50201  1  0  0  0
 50202  1  0  0  0
 51 52  1  0  0  0
 51203  1  0  0  0
 51204  1  0  0  0
 52 53  1  0  0  0
 52205  1  0  0  0
 53 54  1  0  0  0
 53 55  2  0  0  0
 54206  1  0  0  0
 54207  1  0  0  0
 55208  1  0  0  0
 56 58  2  0  0  0
 56 59  1  0  0  0
 56 65  1  0  0  0
 57 59  1  0  0  0
 57209  1  0  0  0
 59 60  1  0  0  0
 59 64  1  0  0  0
 60 63  1  0  0  0
 60210  1  0  0  0
 60211  1  0  0  0
 61 62  1  0  0  0
 61 63  1  0  0  0
 61212  1  0  0  0
 61213  1  0  0  0
 62 91  2  0  0  0
 62214  1  0  0  0
 63215  1  0  0  0
 63216  1  0  0  0
 64217  1  0  0  0
 64218  1  0  0  0
 64219  1  0  0  0
 65 66  1  0  0  0
 65220  1  0  0  0
 66 67  1  0  0  0
 66 69  1  0  0  0
 66221  1  0  0  0
 67 68  2  0  0  0
 67 73  1  0  0  0
 69 70  1  0  0  0
 69 71  1  0  0  0
 69222  1  0  0  0
 70 72  1  0  0  0
 70223  1  0  0  0
 70224  1  0  0  0
 71225  1  0  0  0
 71226  1  0  0  0
 71227  1  0  0  0
 72228  1  0  0  0
 72229  1  0  0  0
 72230  1  0  0  0
 73 74  1  0  0  0
 73231  1  0  0  0
 74 75  1  0  0  0
 74232  1  0  0  0
 74233  1  0  0  0
 75 76  2  0  0  0
 75 77  1  0  0  0
 77 78  1  0  0  0
 77234  1  0  0  0
 78 79  1  0  0  0
 78 81  1  0  0  0
 78235  1  0  0  0
 79 80  2  0  0  0
 79 86  1  0  0  0
 81 82  1  0  0  0
 81236  1  0  0  0
 81237  1  0  0  0
 82 83  1  0  0  0
 82 84  2  0  0  0
 83238  1  0  0  0
 85 87  2  0  0  0
 85 88  1  0  0  0
 85 94  1  0  0  0
 86 88  1  0  0  0
 86239  1  0  0  0
 88 89  1  0  0  0
 88 93  1  0  0  0
 89 92  1  0  0  0
 89240  1  0  0  0
 89241  1  0  0  0
 90 91  1  0  0  0
 90 92  1  0  0  0
 90242  1  0  0  0
 90243  1  0  0  0
 91244  1  0  0  0
 92245  1  0  0  0
 92246  1  0  0  0
 93247  1  0  0  0
 93248  1  0  0  0
 93249  1  0  0  0
 94 95  1  0  0  0
 94250  1  0  0  0
 95 96  1  0  0  0
 95 98  1  0  0  0
 95251  1  0  0  0
 96 97  2  0  0  0
 96105  1  0  0  0
 98 99  1  0  0  0
 98252  1  0  0  0
 98253  1  0  0  0
 99100  2  0  0  0
 99101  1  0  0  0
100102  1  0  0  0
100254  1  0  0  0
101103  2  0  0  0
101255  1  0  0  0
102104  2  0  0  0
102256  1  0  0  0
103104  1  0  0  0
103257  1  0  0  0
104258  1  0  0  0
105106  1  0  0  0
105259  1  0  0  0
106107  1  0  0  0
106109  1  0  0  0
106260  1  0  0  0
107108  2  0  0  0
107113  1  0  0  0
109110  1  0  0  0
109261  1  0  0  0
109262  1  0  0  0
110111  2  0  0  0
110112  1  0  0  0
112263  1  0  0  0
112264  1  0  0  0
113114  1  0  0  0
113265  1  0  0  0
114115  1  0  0  0
114117  1  0  0  0
114266  1  0  0  0
115116  2  0  0  0
115118  1  0  0  0
117267  1  0  0  0
117268  1  0  0  0
117269  1  0  0  0
118119  1  0  0  0
118270  1  0  0  0
119120  1  0  0  0
119122  1  0  0  0
119271  1  0  0  0
120121  2  0  0  0
120130  1  0  0  0
122123  1  0  0  0
122272  1  0  0  0
122273  1  0  0  0
123124  2  0  0  0
123125  1  0  0  0
124126  1  0  0  0
124274  1  0  0  0
125127  2  0  0  0
125275  1  0  0  0
126128  2  0  0  0
126276  1  0  0  0
127128  1  0  0  0
127277  1  0  0  0
128129  1  0  0  0
129278  1  0  0  0
130131  1  0  0  0
130279  1  0  0  0
131132  1  0  0  0
131134  1  0  0  0
131280  1  0  0  0
132133  2  0  0  0
132142  1  0  0  0
134135  1  0  0  0
134281  1  0  0  0
134282  1  0  0  0
135136  2  0  0  0
135137  1  0  0  0
136138  1  0  0  0
136283  1  0  0  0
137139  2  0  0  0
137284  1  0  0  0
138140  2  0  0  0
138285  1  0  0  0
139140  1  0  0  0
139286  1  0  0  0
140141  1  0  0  0
141287  1  0  0  0
142143  1  0  0  0
142288  1  0  0  0
143144  1  0  0  0
143146  1  0  0  0
143289  1  0  0  0
144145  2  0  0  0
144147  1  0  0  0
146290  1  0  0  0
146291  1  0  0  0
146292  1  0  0  0
147293  1  0  0  0
147294  1  0  0  0
M  CHG  1   1   1
M  END
> <s_m_source_file>
../2yq6_ligand.sdf

> <i_m_source_file_index>
1

> <s_epik_input>
W05IMytdW0NAQEhdKFtDSDNdKUMoPU8pW05IXVtDQEBIXShbQ0BASF0oW0NIM10pW0NIMl1bQ0gzXSlDKD1PKVtOSF1bQ0BASF0oW0NIM10pQyg9TylbTkhdW0NAQEhdKFtDSDJdW0NIMl1DKD1PKVtOSDJdKUMoPU8pW05IXVtDQEBIXShbQ0gyXVtDSDJdQyg9TylbT0hdKUMoPU8pW05IXVtDQEBIXShbQ0gyXVtDSF0oW0NIM10pW0NIM10pQyg9TylbTkhdW0NAQEhdKFtDSDJdW0NIMl1bQ0gyXVtOSF0vQyhbTkgyXSk9TlxbSF0pQyg9TylbTkhdW0NAXTEoW0NIM10pQyg9TylbTkhdW0NAQEhdKFtDQEBIXShbQ0gzXSlbQ0gyXVtDSDNdKUMoPU8pW05IXVtDSDJdQyg9TylbTkhdW0NAQEhdKFtDSDJdQyg9TylbT0hdKUMoPU8pW05IXVtDQEBdKFtDSDNdKShbQ0gyXVtDSDJdW0NIMl0vW0NIXT1bQ0hdXFtDSDJdW0NIMl1bQ0gyXTEpQyg9TylbTkhdW0NAQEhdKFtDSDJdYzJbY0hdW2NIXVtjSF1bY0hdW2NIXTIpQyg9TylbTkhdW0NAQEhdKFtDSDJdQyg9TylbTkgyXSlDKD1PKVtOSF1bQ0BASF0oW0NIM10pQyg9TylbTkhdW0NAQEhdKFtDSDJdYzNbY0hdW2NIXWMoW09IXSlbY0hdW2NIXTMpQyg9TylbTkhdW0NASF0oQyg9TylbTkhdW0NAQEhdKFtDSDNdKUMoPU8pW05IMl0pW0NIMl1jNFtjSF1bY0hdYyhbT0hdKVtjSF1bY0hdNA==

> <s_epik_cmdline>
J2VwaWtfYXBwJywgJy1pbWFlJywgJ2xpZ2FuZF9wcm8ubWFlJywgJy1vbWFlJywgJ2xpZ2FuZF9wcmVwLm1hZScsICctbXMnLCAnMScsICctcGgnLCAnNycsICctcGh0JywgJzAuNScsICctbnQn

> <s_epik_pKa_notes>
Molecule size exceeds maximum supported for generating protonation states

> <s_epik_Chemistry_Notes>
This compound has an imine and may undergo hydrolysis.

$$$$
