2ywp_ligand
                    3D
 Schrodinger Suite 2020-3.
 35 36  0  0  1  0            999 V2000
   -8.2180    9.1210  -16.5840 C   0  0  0  0  0  0
   -8.4960   10.4450  -16.8740 N   0  0  0  0  0  0
   -7.5890   11.1700  -17.6270 C   0  0  0  0  0  0
   -6.3680   10.5790  -18.1140 C   0  0  0  0  0  0
   -6.0850    9.2320  -17.8190 N   0  0  0  0  0  0
   -7.0040    8.5030  -17.0580 C   0  0  0  0  0  0
   -9.1410    8.3950  -15.8240 C   0  0  0  0  0  0
   -9.9500    7.8050  -15.2330 N   0  0  0  0  0  0
   -5.4610   11.3170  -18.8640 N   0  0  0  0  0  0
   -4.2900   10.9980  -19.5030 C   0  0  0  0  0  0
   -3.8930   11.7460  -20.3940 O   0  0  0  0  0  0
   -3.6650    9.7930  -19.1740 N   0  0  0  0  0  0
   -2.3070    9.4070  -19.2470 C   0  0  0  0  0  0
   -1.3250   10.1140  -20.0850 C   0  0  0  0  0  0
    0.0460    9.7020  -20.1450 C   0  0  0  0  0  0
    0.5260    8.5640  -19.3860 C   0  0  0  0  0  0
   -0.4380    7.8670  -18.5580 C   0  0  0  0  0  0
   -1.8370    8.2590  -18.4750 C   0  0  0  0  0  0
   -2.5680    7.4170  -17.6020 O   0  0  0  0  0  0
   -3.5290    6.4780  -18.0800 C   0  0  0  0  0  0
    1.8950    8.1970  -19.4790 O   0  0  0  0  0  0
    2.2220    7.0150  -20.2130 C   0  0  0  0  0  0
    1.1210   10.6200  -21.1700 Cl  0  0  0  0  0  0
   -7.8033   12.2136  -17.8574 H   0  0  0  0  0  0
   -6.8012    7.4586  -16.8209 H   0  0  0  0  0  0
   -5.6334   12.3898  -19.0356 H   0  0  0  0  0  0
   -4.2597    8.9530  -18.7859 H   0  0  0  0  0  0
   -1.6486   10.9719  -20.6743 H   0  0  0  0  0  0
   -0.1005    7.0121  -17.9720 H   0  0  0  0  0  0
   -3.9687    5.9378  -17.2286 H   0  0  0  0  0  0
   -3.0375    5.7615  -18.7545 H   0  0  0  0  0  0
   -4.3220    7.0105  -18.6255 H   0  0  0  0  0  0
    3.3113    6.8626  -20.1962 H   0  0  0  0  0  0
    1.8830    7.1242  -21.2538 H   0  0  0  0  0  0
    1.7234    6.1486  -19.7539 H   0  0  0  0  0  0
  1  2  2  0  0  0
  1  6  1  0  0  0
  1  7  1  0  0  0
  2  3  1  0  0  0
  3  4  2  0  0  0
  3 24  1  0  0  0
  4  5  1  0  0  0
  4  9  1  0  0  0
  5  6  2  0  0  0
  6 25  1  0  0  0
  7  8  3  0  0  0
  9 10  1  0  0  0
  9 26  1  0  0  0
 10 11  2  0  0  0
 10 12  1  0  0  0
 12 13  1  0  0  0
 12 27  1  0  0  0
 13 14  2  0  0  0
 13 18  1  0  0  0
 14 15  1  0  0  0
 14 28  1  0  0  0
 15 16  2  0  0  0
 15 23  1  0  0  0
 16 17  1  0  0  0
 16 21  1  0  0  0
 17 18  2  0  0  0
 17 29  1  0  0  0
 18 19  1  0  0  0
 19 20  1  0  0  0
 20 30  1  0  0  0
 20 31  1  0  0  0
 20 32  1  0  0  0
 21 22  1  0  0  0
 22 33  1  0  0  0
 22 34  1  0  0  0
 22 35  1  0  0  0
M  END
> <s_m_source_file>
../2ywp_ligand.sdf

> <i_m_source_file_index>
1

> <s_epik_input>
TiNDYzFuW2NIXWMobltjSF0xKVtOSF1DKD1PKVtOSF1jMltjSF1jKENsKWMoT1tDSDNdKVtjSF1jMk9bQ0gzXQ==

> <s_epik_cmdline>
J2VwaWtfYXBwJywgJy1pbWFlJywgJ2xpZ2FuZF9wcm8ubWFlJywgJy1vbWFlJywgJ2xpZ2FuZF9wcmVwLm1hZScsICctbXMnLCAnMScsICctcGgnLCAnNycsICctcGh0JywgJzAuNScsICctbnQn

> <r_lp_tautomer_probability>
1

> <r_epik_Ionization_Penalty>
  0.0000

> <r_epik_Ionization_Penalty_Charging>
  0.0000

> <r_epik_Ionization_Penalty_Neutral>
  0.0000

> <r_epik_State_Penalty>
 -0.0000

> <r_epik_Charging_Adjusted_Penalty>
0

> <i_epik_Tot_Q>
0

> <i_epik_Tot_abs_Q>
0

$$$$
