2yz3_ligand
                    3D
 Schrodinger Suite 2020-3.
 30 30  0  0  1  0            999 V2000
   34.5260    5.8250  107.5980 C   0  0  0  0  0  0
   35.6080    5.2180  106.9670 C   0  0  0  0  0  0
   36.9080    5.5610  107.3290 C   0  0  0  0  0  0
   37.1230    6.5060  108.3300 C   0  0  0  0  0  0
   36.0420    7.1110  108.9610 C   0  0  0  0  0  0
   34.7400    6.7780  108.5890 C   0  0  0  0  0  0
   33.5480    7.5720  109.1320 C   0  0  0  0  0  0
   33.7360    9.0420  108.7510 C   0  0  0  0  0  0
   32.4350    9.7360  108.3440 C   0  0  0  0  0  0
   32.7740   11.0190  107.5820 C   0  0  1  0  0  0
   31.5750   11.5870  106.8220 C   0  0  0  0  0  0
   31.4660   11.3770  105.6130 O   0  5  0  0  0  0
   30.7330   12.2740  107.3930 O   0  0  0  0  0  0
   33.3840   12.0800  108.4950 C   0  0  0  0  0  0
   35.1490   12.3230  108.0790 S   0  0  0  0  0  0
   33.5090    5.5533  107.3153 H   0  0  0  0  0  0
   35.4376    4.4738  106.1891 H   0  0  0  0  0  0
   37.7557    5.0912  106.8303 H   0  0  0  0  0  0
   38.1400    6.7713  108.6187 H   0  0  0  0  0  0
   36.2124    7.8464  109.7473 H   0  0  0  0  0  0
   32.6178    7.1842  108.6913 H   0  0  0  0  0  0
   33.5063    7.4684  110.2263 H   0  0  0  0  0  0
   34.1497    9.5930  109.6085 H   0  0  0  0  0  0
   34.4290    9.1145  107.8998 H   0  0  0  0  0  0
   31.8477    9.0653  107.6996 H   0  0  0  0  0  0
   31.8531    9.9815  109.2446 H   0  0  0  0  0  0
   33.5311   10.7367  106.8355 H   0  0  0  0  0  0
   32.8466   13.0306  108.3625 H   0  0  0  0  0  0
   33.3004   11.7545  109.5424 H   0  0  0  0  0  0
   35.7504   13.0544  108.6388 H   0  0  0  0  0  0
  1  2  2  0  0  0
  1  6  1  0  0  0
  1 16  1  0  0  0
  2  3  1  0  0  0
  2 17  1  0  0  0
  3  4  2  0  0  0
  3 18  1  0  0  0
  4  5  1  0  0  0
  4 19  1  0  0  0
  5  6  2  0  0  0
  5 20  1  0  0  0
  6  7  1  0  0  0
  7  8  1  0  0  0
  7 21  1  0  0  0
  7 22  1  0  0  0
  8  9  1  0  0  0
  8 23  1  0  0  0
  8 24  1  0  0  0
  9 10  1  0  0  0
  9 25  1  0  0  0
  9 26  1  0  0  0
 10 11  1  0  0  0
 10 14  1  0  0  0
 10 27  1  0  0  0
 11 12  1  0  0  0
 11 13  2  0  0  0
 14 15  1  0  0  0
 14 28  1  0  0  0
 14 29  1  0  0  0
 15 30  1  0  0  0
M  CHG  1  12  -1
M  END
> <s_m_source_file>
../2yz3_ligand.sdf

> <i_m_source_file_index>
1

> <s_epik_input>
W2NIXTFbY0hdW2NIXVtjSF1bY0hdYzFbQ0gyXVtDSDJdW0NIMl1bQ0BASF0oQyg9TylbT0hdKVtDSDJdW1NIXQ==

> <s_epik_cmdline>
J2VwaWtfYXBwJywgJy1pbWFlJywgJ2xpZ2FuZF9wcm8ubWFlJywgJy1vbWFlJywgJ2xpZ2FuZF9wcmVwLm1hZScsICctbXMnLCAnMScsICctcGgnLCAnNycsICctcGh0JywgJzAuNScsICctbnQn

> <r_lp_tautomer_probability>
1

> <r_epik_Ionization_Penalty>
  0.0021

> <r_epik_Ionization_Penalty_Charging>
  0.0011

> <r_epik_Ionization_Penalty_Neutral>
  0.0010

> <r_epik_State_Penalty>
 -0.0000

> <r_epik_Charging_Adjusted_Penalty>
0.0010517013086213

> <i_epik_Tot_Q>
-1

> <i_epik_Tot_abs_Q>
1

$$$$
