2z1w_ligand
                    3D
 Schrodinger Suite 2020-3.
 26 27  0  0  1  0            999 V2000
   15.3260   16.8160   20.5860 N   0  3  0  0  0  0
   16.4920   17.0800   19.9530 C   0  0  0  0  0  0
   16.6780   17.0770   18.4640 C   0  0  0  0  0  0
   16.4440   18.4620   17.8730 C   0  0  0  0  0  0
   16.6170   18.3760   16.3400 C   0  0  0  0  0  0
   16.2990   19.7140   15.7300 C   0  0  0  0  0  0
   17.4820   17.3890   20.7740 N   0  0  0  0  0  0
   16.9880   17.3380   22.0080 C   0  0  0  0  0  0
   17.6070   17.5830   23.3510 C   0  0  0  0  0  0
   16.7740   17.4320   24.3990 N   0  0  0  0  0  0
   15.4090   17.0720   24.3030 N   0  0  0  0  0  0
   14.7680   16.8290   23.1140 C   0  0  0  0  0  0
   13.6020   16.5220   23.0620 O   0  0  0  0  0  0
   15.5740   16.9620   21.8890 C   0  0  0  0  0  0
   18.8010   17.8980   23.4150 O   0  5  0  0  0  0
   17.7044   16.7632   18.2234 H   0  0  0  0  0  0
   15.9637   16.3766   18.0066 H   0  0  0  0  0  0
   15.4255   18.7978   18.1178 H   0  0  0  0  0  0
   17.1742   19.1686   18.2943 H   0  0  0  0  0  0
   17.6551   18.0998   16.1031 H   0  0  0  0  0  0
   15.9337   17.6145   15.9360 H   0  0  0  0  0  0
   16.4209   19.6575   14.6382 H   0  0  0  0  0  0
   16.9825   20.4740   16.1364 H   0  0  0  0  0  0
   15.2611   19.9887   15.9694 H   0  0  0  0  0  0
   14.8008   16.9733   25.2143 H   0  0  0  0  0  0
   14.4326   16.5470   20.0034 H   0  0  0  0  0  0
  1  2  2  0  0  0
  1 14  1  0  0  0
  1 26  1  0  0  0
  2  3  1  0  0  0
  2  7  1  0  0  0
  3  4  1  0  0  0
  3 16  1  0  0  0
  3 17  1  0  0  0
  4  5  1  0  0  0
  4 18  1  0  0  0
  4 19  1  0  0  0
  5  6  1  0  0  0
  5 20  1  0  0  0
  5 21  1  0  0  0
  6 22  1  0  0  0
  6 23  1  0  0  0
  6 24  1  0  0  0
  7  8  1  0  0  0
  8  9  1  0  0  0
  8 14  2  0  0  0
  9 10  2  0  0  0
  9 15  1  0  0  0
 10 11  1  0  0  0
 11 12  1  0  0  0
 11 25  1  0  0  0
 12 13  2  0  0  0
 12 14  1  0  0  0
M  CHG  2   1   1  15  -1
M  END
> <s_m_source_file>
../2z1w_ligand.sdf

> <i_m_source_file_index>
1

> <s_epik_input>
W0NIM11bQ0gyXVtDSDJdW0NIMl1jKFtuSF0xKW5jKGMxMiljKD1PKVtuSF1bbkhdYzI9Tw==

> <s_epik_cmdline>
J2VwaWtfYXBwJywgJy1pbWFlJywgJ2xpZ2FuZF9wcm8ubWFlJywgJy1vbWFlJywgJ2xpZ2FuZF9wcmVwLm1hZScsICctbXMnLCAnMScsICctcGgnLCAnNycsICctcGh0JywgJzAuNScsICctbnQn

> <r_epik_Ionization_Penalty>
  0.0264

> <r_epik_Ionization_Penalty_Charging>
  0.0236

> <r_epik_Ionization_Penalty_Neutral>
  0.0028

> <r_epik_State_Penalty>
  0.4107

> <r_epik_Charging_Adjusted_Penalty>
0.434258992810141

> <i_epik_Tot_Q>
0

> <i_epik_Tot_abs_Q>
2

$$$$
