2z3h_ligand
                    3D
 Schrodinger Suite 2020-3.
 56 57  0  0  1  0            999 V2000
   22.3430   32.4620  106.1530 O   0  0  0  0  0  0
   22.1350   33.6630  106.0430 C   0  0  0  0  0  0
   20.8110   34.3200  106.3880 C   0  0  0  0  0  0
   19.6000   33.5110  105.9650 C   0  0  2  0  0  0
   18.3650   34.3800  106.1790 C   0  0  0  0  0  0
   17.6890   34.7410  104.8590 C   0  0  0  0  0  0
   16.7790   35.8840  105.0450 N   0  0  0  0  0  0
   15.5020   35.7360  105.6580 C   0  0  0  0  0  0
   15.0380   34.5380  106.0180 N   0  3  0  0  0  0
   14.7450   36.8130  105.8930 N   0  0  0  0  0  0
   17.2370   37.2180  104.6300 C   0  0  0  0  0  0
   19.5210   32.3470  106.8220 N   0  3  0  0  0  0
   23.0500   34.5180  105.6150 N   0  0  0  0  0  0
   24.4140   34.1440  105.2410 C   0  0  1  0  0  0
   24.7990   34.5580  103.8200 C   0  0  0  0  0  0
   25.8490   35.2520  103.5750 C   0  0  0  0  0  0
   25.3420   34.9440  106.1670 C   0  0  1  0  0  0
   25.3650   34.4530  107.5860 C   0  0  0  0  0  0
   24.6820   35.0880  108.4120 O   0  0  0  0  0  0
   26.0700   33.4720  107.8920 O   0  5  0  0  0  0
   26.6920   34.8280  105.7190 O   0  0  0  0  0  0
   26.8710   35.1500  104.3580 C   0  0  1  0  0  0
   28.1290   34.9710  103.8950 N   0  0  0  0  0  0
   28.2760   33.6580  103.6480 C   0  0  0  0  0  0
   29.4590   33.1670  103.1400 C   0  0  0  0  0  0
   30.4470   34.0990  102.8880 C   0  0  0  0  0  0
   31.5770   33.6910  102.3200 O   0  0  0  0  0  0
   30.3040   35.4090  103.1950 N   0  0  0  0  0  0
   29.1210   35.8680  103.6780 C   0  0  0  0  0  0
   29.0190   37.1010  103.8850 O   0  0  0  0  0  0
   20.7452   34.4627  107.4767 H   0  0  0  0  0  0
   20.7442   35.2963  105.8855 H   0  0  0  0  0  0
   19.6716   33.1539  104.9270 H   0  0  0  0  0  0
   17.6383   33.8375  106.8016 H   0  0  0  0  0  0
   18.6561   35.3129  106.6839 H   0  0  0  0  0  0
   18.4547   35.0095  104.1163 H   0  0  0  0  0  0
   17.1115   33.8785  104.4948 H   0  0  0  0  0  0
   15.6417   33.6368  105.8355 H   0  0  0  0  0  0
   15.1052   37.8118  105.6055 H   0  0  0  0  0  0
   13.7621   36.7001  106.3738 H   0  0  0  0  0  0
   18.2374   37.1385  104.1796 H   0  0  0  0  0  0
   17.2815   37.8798  105.5075 H   0  0  0  0  0  0
   16.5347   37.6337  103.8924 H   0  0  0  0  0  0
   20.4107   31.7184  106.6696 H   0  0  0  0  0  0
   18.6177   31.7701  106.5745 H   0  0  0  0  0  0
   19.4745   32.6680  107.8731 H   0  0  0  0  0  0
   22.7299   35.5683  105.5486 H   0  0  0  0  0  0
   24.4492   33.0477  105.3245 H   0  0  0  0  0  0
   24.1437   34.2421  102.9950 H   0  0  0  0  0  0
   25.8727   35.9253  102.7055 H   0  0  0  0  0  0
   25.0104   35.9923  106.1335 H   0  0  0  0  0  0
   26.7214   36.1972  104.0562 H   0  0  0  0  0  0
   27.4513   32.9749  103.8515 H   0  0  0  0  0  0
   29.6067   32.1043  102.9480 H   0  0  0  0  0  0
   31.1462   36.1022  103.0533 H   0  0  0  0  0  0
   14.0517   34.4515  106.4973 H   0  0  0  0  0  0
  1  2  2  0  0  0
  2  3  1  0  0  0
  2 13  1  0  0  0
  3  4  1  0  0  0
  3 31  1  0  0  0
  3 32  1  0  0  0
  4  5  1  0  0  0
  4 12  1  0  0  0
  4 33  1  0  0  0
  5  6  1  0  0  0
  5 34  1  0  0  0
  5 35  1  0  0  0
  6  7  1  0  0  0
  6 36  1  0  0  0
  6 37  1  0  0  0
  7  8  1  0  0  0
  7 11  1  0  0  0
  8  9  2  0  0  0
  8 10  1  0  0  0
  9 38  1  0  0  0
  9 56  1  0  0  0
 10 39  1  0  0  0
 10 40  1  0  0  0
 11 41  1  0  0  0
 11 42  1  0  0  0
 11 43  1  0  0  0
 12 44  1  0  0  0
 12 45  1  0  0  0
 12 46  1  0  0  0
 13 14  1  0  0  0
 13 47  1  0  0  0
 14 15  1  0  0  0
 14 17  1  0  0  0
 14 48  1  0  0  0
 15 16  2  0  0  0
 15 49  1  0  0  0
 16 22  1  0  0  0
 16 50  1  0  0  0
 17 18  1  0  0  0
 17 21  1  0  0  0
 17 51  1  0  0  0
 18 19  2  0  0  0
 18 20  1  0  0  0
 21 22  1  0  0  0
 22 23  1  0  0  0
 22 52  1  0  0  0
 23 24  1  0  0  0
 23 29  1  0  0  0
 24 25  2  0  0  0
 24 53  1  0  0  0
 25 26  1  0  0  0
 25 54  1  0  0  0
 26 27  2  0  0  0
 26 28  1  0  0  0
 28 29  1  0  0  0
 28 55  1  0  0  0
 29 30  2  0  0  0
M  CHG  3   9   1  12   1  20  -1
M  END
> <s_m_source_file>
../2z3h_ligand.sdf

> <i_m_source_file_index>
1

> <s_epik_input>
W0hdXE49QyhbTkgyXSlcTihbQ0gzXSlbQ0gyXVtDSDJdW0NASF0oW05IMytdKVtDSDJdQyg9TylbTkhdW0NASF0xW0NIXT1bQ0hdW0NAQEhdKE9bQ0BASF0xQyg9TylbT0hdKW4yW2NIXVtjSF1jKD1PKVtuSF1jMj1P

> <s_epik_cmdline>
J2VwaWtfYXBwJywgJy1pbWFlJywgJ2xpZ2FuZF9wcm8ubWFlJywgJy1vbWFlJywgJ2xpZ2FuZF9wcmVwLm1hZScsICctbXMnLCAnMScsICctcGgnLCAnNycsICctcGh0JywgJzAuNScsICctbnQn

> <r_lp_tautomer_probability>
1

> <r_epik_Ionization_Penalty>
  0.0079

> <r_epik_Ionization_Penalty_Charging>
  0.0079

> <r_epik_Ionization_Penalty_Neutral>
  0.0000

> <r_epik_State_Penalty>
 -0.0000

> <r_epik_Charging_Adjusted_Penalty>
0.0079394825338796

> <i_epik_Tot_Q>
1

> <i_epik_Tot_abs_Q>
3

> <s_epik_Chemistry_Notes>
This compound has an imine and may undergo hydrolysis. This compound contains an acetal/aminal-like group ( X-CH(R)-Y where X, Y are N, S, or O) that may be acid/base labile, releasing an aldehyde.

$$$$
