2z3z_ligand
                    3D
 Schrodinger Suite 2020-3.
 51 51  0  0  1  0            999 V2000
   -7.1940   43.7210   67.3900 O   0  0  0  0  0  0
   -7.3780   43.5720   66.1810 C   0  0  0  0  0  0
   -6.8320   44.6160   65.2310 C   0  0  0  0  0  0
   -5.2900   44.6080   65.2470 C   0  0  0  0  0  0
   -4.6740   45.6040   64.2590 C   0  0  0  0  0  0
   -5.0120   45.3300   62.8090 C   0  0  0  0  0  0
   -4.6790   43.2350   64.9730 C   0  0  0  0  0  0
   -7.2590   45.9490   65.6600 N   0  0  0  0  0  0
   -8.5100   46.3600   65.4750 C   0  0  0  0  0  0
   -9.3840   45.6240   65.0470 O   0  0  0  0  0  0
   -8.8420   47.7850   65.8840 C   0  0  0  0  0  0
   -9.1670   47.7540   67.3790 C   0  0  0  0  0  0
  -10.0040   48.2740   65.1590 N   0  3  0  0  0  0
   -8.0230   42.5160   65.7130 N   0  0  0  0  0  0
   -8.3530   42.1710   64.3180 C   0  0  0  0  0  0
   -9.0640   40.8390   64.3950 C   0  0  0  0  0  0
   -9.5360   40.6930   65.8400 C   0  0  0  0  0  0
   -8.5310   41.5230   66.6580 C   0  0  0  0  0  0
   -7.2510   40.6780   67.1640 B   0  0  0  0  0  0
   -6.4090   41.2480   68.3070 O   0  0  0  0  0  0
   -6.4560   39.8670   66.1280 O   0  0  0  0  0  0
   -7.2404   44.4143   64.2297 H   0  0  0  0  0  0
   -5.0365   44.9049   66.2754 H   0  0  0  0  0  0
   -5.0340   46.6179   64.4880 H   0  0  0  0  0  0
   -3.5778   45.5759   64.3455 H   0  0  0  0  0  0
   -4.5325   46.0873   62.1713 H   0  0  0  0  0  0
   -6.1026   45.3728   62.6723 H   0  0  0  0  0  0
   -4.6464   44.3308   62.5298 H   0  0  0  0  0  0
   -5.1048   42.4984   65.6703 H   0  0  0  0  0  0
   -3.5890   43.2844   65.1123 H   0  0  0  0  0  0
   -4.9033   42.9336   63.9392 H   0  0  0  0  0  0
   -6.5408   46.6275   66.1435 H   0  0  0  0  0  0
   -8.0218   48.4717   65.6276 H   0  0  0  0  0  0
   -8.2934   47.3851   67.9365 H   0  0  0  0  0  0
  -10.0229   47.0856   67.5544 H   0  0  0  0  0  0
   -9.4183   48.7689   67.7207 H   0  0  0  0  0  0
   -9.7802   48.3000   64.0823 H   0  0  0  0  0  0
  -10.2530   49.2876   65.5063 H   0  0  0  0  0  0
  -10.8576   47.6043   65.3400 H   0  0  0  0  0  0
   -9.0011   42.9505   63.8910 H   0  0  0  0  0  0
   -7.4268   42.1008   63.7287 H   0  0  0  0  0  0
   -9.9150   40.8368   63.6980 H   0  0  0  0  0  0
   -8.3653   40.0341   64.1231 H   0  0  0  0  0  0
  -10.5608   41.0819   65.9320 H   0  0  0  0  0  0
   -9.5199   39.6308   66.1255 H   0  0  0  0  0  0
   -9.0309   42.0133   67.5063 H   0  0  0  0  0  0
   -7.7143   40.8875   67.0311 H   0  0  0  0  0  0
   -5.9900   40.5359   68.7758 H   0  0  0  0  0  0
   -5.9900   40.5359   68.7758 H   0  0  0  0  0  0
   -5.7938   40.4222   65.7333 H   0  0  0  0  0  0
   -5.7938   40.4222   65.7333 H   0  0  0  0  0  0
  1  2  2  0  0  0
  2  3  1  0  0  0
  2 14  1  0  0  0
  3  4  1  0  0  0
  3  8  1  0  0  0
  3 22  1  0  0  0
  4  5  1  0  0  0
  4  7  1  0  0  0
  4 23  1  0  0  0
  5  6  1  0  0  0
  5 24  1  0  0  0
  5 25  1  0  0  0
  6 26  1  0  0  0
  6 27  1  0  0  0
  6 28  1  0  0  0
  7 29  1  0  0  0
  7 30  1  0  0  0
  7 31  1  0  0  0
  8  9  1  0  0  0
  8 32  1  0  0  0
  9 10  2  0  0  0
  9 11  1  0  0  0
 11 12  1  0  0  0
 11 13  1  0  0  0
 11 33  1  0  0  0
 12 34  1  0  0  0
 12 35  1  0  0  0
 12 36  1  0  0  0
 13 37  1  0  0  0
 13 38  1  0  0  0
 13 39  1  0  0  0
 14 15  1  0  0  0
 14 18  1  0  0  0
 15 16  1  0  0  0
 15 40  1  0  0  0
 15 41  1  0  0  0
 16 17  1  0  0  0
 16 42  1  0  0  0
 16 43  1  0  0  0
 17 18  1  0  0  0
 17 44  1  0  0  0
 17 45  1  0  0  0
 18 19  1  0  0  0
 18 46  1  0  0  0
 18 47  1  0  0  0
 19 20  1  0  0  0
 19 21  1  0  0  0
 20 48  1  0  0  0
 20 49  1  0  0  0
 21 50  1  0  0  0
 21 51  1  0  0  0
M  CHG  1  13   1
M  END
> <MOLECULAR_FORMULA>
C13H30N3O4B

> <MOLECULAR_WEIGHT>
303

> <NUM_HB_ATOMS>
6

> <NUM_ROTOR>
6

> <XLOGP2>
-0.59

> <s_m_source_file>
../2z3z_ligand.sdf

> <i_m_source_file_index>
1

> <s_epik_input>
W0NIM11bQ0hdKFtOSDMrXSlDKD1PKVtOSF1bQ0hdKFtDSF0oW0NIM10pW0NIMl1bQ0gzXSlDKD1PKU4xW0NIMl1bQ0gyXVtDSDJdW0NIMl0xQihbT0gyXSlbT0gyXQ==

> <s_epik_cmdline>
J2VwaWtfYXBwJywgJy1pbWFlJywgJ2xpZ2FuZF9wcm8ubWFlJywgJy1vbWFlJywgJ2xpZ2FuZF9wcmVwLm1hZScsICctbXMnLCAnMScsICctcGgnLCAnNycsICctcGh0JywgJzAuNScsICctbnQn

> <r_epik_Ionization_Penalty>
  0.1177

> <r_epik_Ionization_Penalty_Charging>
  0.1177

> <r_epik_Ionization_Penalty_Neutral>
  0.0000

> <r_epik_State_Penalty>
  0.1073

> <r_epik_Charging_Adjusted_Penalty>
0.224980407846012

> <i_epik_Tot_Q>
1

> <i_epik_Tot_abs_Q>
1

$$$$
