2z4b_ligand
                    3D
 Schrodinger Suite 2020-3.
 39 42  0  0  1  0            999 V2000
   78.2600   40.8340   69.8430 C   0  0  0  0  0  0
   77.1140   38.7230   70.0700 C   0  0  1  0  0  0
   76.6010   38.8260   68.6060 C   0  0  1  0  0  0
   75.2700   39.6550   68.4640 C   0  0  0  0  0  0
   77.5710   39.6040   67.6790 C   0  0  2  0  0  0
   78.3850   40.6910   68.4310 C   0  0  0  0  0  0
   75.3940   36.7880   70.6010 C   0  0  0  0  0  0
   74.5450   36.0760   71.4990 C   0  0  0  0  0  0
   74.4340   36.4900   72.8470 C   0  0  0  0  0  0
   75.1660   37.6160   73.3030 C   0  0  0  0  0  0
   80.0240   42.5650   68.3980 C   0  0  0  0  0  0
   79.8840   42.7000   69.7970 C   0  0  0  0  0  0
   79.0180   41.8470   70.5110 C   0  0  0  0  0  0
   77.4200   40.0300   70.6300 O   0  0  0  0  0  0
   75.3500   40.4150   67.1180 C   0  0  0  0  0  0
   74.2950   40.0060   66.2830 F   0  0  0  0  0  0
   75.2520   41.8020   67.3130 F   0  0  0  0  0  0
   76.7040   40.1040   66.4950 C   0  0  0  0  0  0
   79.2840   41.5630   67.7070 C   0  0  0  0  0  0
   76.1450   37.9260   71.0440 C   0  0  0  0  0  0
   73.6130   35.8070   73.7130 O   0  0  0  0  0  0
   76.0110   38.3250   72.4150 C   0  0  0  0  0  0
   80.8680   43.4340   67.7210 O   0  0  0  0  0  0
   78.0881   38.2153   70.0120 H   0  0  0  0  0  0
   76.4940   37.7671   68.3279 H   0  0  0  0  0  0
   74.4090   38.9705   68.4727 H   0  0  0  0  0  0
   75.1860   40.3605   69.3038 H   0  0  0  0  0  0
   78.3777   38.9661   67.2887 H   0  0  0  0  0  0
   75.4729   36.4625   69.5637 H   0  0  0  0  0  0
   73.9813   35.2123   71.1463 H   0  0  0  0  0  0
   75.0778   37.9368   74.3410 H   0  0  0  0  0  0
   80.4482   43.4673   70.3271 H   0  0  0  0  0  0
   78.9243   41.9612   71.5909 H   0  0  0  0  0  0
   77.1674   40.9986   66.0534 H   0  0  0  0  0  0
   76.6330   39.3138   65.7331 H   0  0  0  0  0  0
   79.3956   41.4528   66.6283 H   0  0  0  0  0  0
   73.0453   34.9337   73.3593 H   0  0  0  0  0  0
   76.5685   39.1879   72.7793 H   0  0  0  0  0  0
   81.4293   44.1998   68.2764 H   0  0  0  0  0  0
  1  6  2  0  0  0
  1 13  1  0  0  0
  1 14  1  0  0  0
  2  3  1  0  0  0
  2 14  1  0  0  0
  2 20  1  0  0  0
  2 24  1  0  0  0
  3  4  1  0  0  0
  3  5  1  0  0  0
  3 25  1  0  0  0
  4 15  1  0  0  0
  4 26  1  0  0  0
  4 27  1  0  0  0
  5  6  1  0  0  0
  5 18  1  0  0  0
  5 28  1  0  0  0
  6 19  1  0  0  0
  7  8  2  0  0  0
  7 20  1  0  0  0
  7 29  1  0  0  0
  8  9  1  0  0  0
  8 30  1  0  0  0
  9 10  2  0  0  0
  9 21  1  0  0  0
 10 22  1  0  0  0
 10 31  1  0  0  0
 11 12  1  0  0  0
 11 19  2  0  0  0
 11 23  1  0  0  0
 12 13  2  0  0  0
 12 32  1  0  0  0
 13 33  1  0  0  0
 15 16  1  0  0  0
 15 17  1  0  0  0
 15 18  1  0  0  0
 18 34  1  0  0  0
 18 35  1  0  0  0
 19 36  1  0  0  0
 20 22  2  0  0  0
 21 37  1  0  0  0
 22 38  1  0  0  0
 23 39  1  0  0  0
M  END
> <s_m_source_file>
../2z4b_ligand.sdf

> <i_m_source_file_index>
1

> <s_epik_input>
W2NIXTFbY0hdYyhbT0hdKVtjSF1jKGMxMilbQ0BIXTNbQ0BIXShbQ0gyXUMoRikoRilbQ0gyXTMpW0NAQEhdKE8yKWMoW2NIXVtjSF00KVtjSF1bY0hdYzRbT0hd

> <s_epik_cmdline>
J2VwaWtfYXBwJywgJy1pbWFlJywgJ2xpZ2FuZF9wcm8ubWFlJywgJy1vbWFlJywgJ2xpZ2FuZF9wcmVwLm1hZScsICctbXMnLCAnMScsICctcGgnLCAnNycsICctcGh0JywgJzAuNScsICctbnQn

> <r_lp_tautomer_probability>
1

> <r_epik_Ionization_Penalty>
  0.0014

> <r_epik_Ionization_Penalty_Charging>
  0.0000

> <r_epik_Ionization_Penalty_Neutral>
  0.0014

> <r_epik_State_Penalty>
 -0.0000

> <r_epik_Charging_Adjusted_Penalty>
0

> <i_epik_Tot_Q>
0

> <i_epik_Tot_abs_Q>
0

$$$$
