2z4r_ligand
                    3D
 Schrodinger Suite 2020-3.
 39 41  0  0  1  0            999 V2000
   40.0800    4.0400   23.3400 P   0  0  0  0  0  0
   41.5550    3.8800   23.4130 O   0  0  0  0  0  0
   39.4050    3.4830   24.6670 O   0  5  0  0  0  0
   39.4860    3.2590   22.0380 O   0  5  0  0  0  0
   40.2260    6.3700   21.9900 P   0  0  1  0  0  0
   41.6920    6.3120   21.8600 O   0  0  0  0  0  0
   39.5890    5.7240   20.6620 O   0  5  0  0  0  0
   39.6630    5.5750   23.2960 O   0  0  0  0  0  0
   39.6510    7.8560   22.2100 O   0  0  0  0  0  0
   40.1180    8.6140   21.1420 C   0  0  0  0  0  0
   39.5830   10.0240   21.2120 C   0  0  1  0  0  0
   39.8820   10.6790   22.4620 O   0  0  0  0  0  0
   40.1980   10.7690   20.0420 C   0  0  1  0  0  0
   39.1880   11.2530   19.1430 O   0  0  0  0  0  0
   41.0370   11.8830   20.6580 C   0  0  1  0  0  0
   40.6130   13.1860   20.1540 O   0  0  0  0  0  0
   40.8340   11.7420   22.2020 C   0  0  2  0  0  0
   42.1040   11.4810   22.9180 N   0  0  0  0  0  0
   42.4980   10.3090   23.4940 C   0  0  0  0  0  0
   43.6660   10.4410   24.0490 N   0  0  0  0  0  0
   44.0990   11.6990   23.8680 C   0  0  0  0  0  0
   45.2670   12.4300   24.2410 C   0  0  0  0  0  0
   46.2760   11.8220   24.9670 N   0  0  0  0  0  0
   45.3660   13.7300   23.8720 N   0  0  0  0  0  0
   44.3940   14.3290   23.1740 C   0  0  0  0  0  0
   43.2860   13.6750   22.8130 N   0  0  0  0  0  0
   43.1000   12.3860   23.1340 C   0  0  0  0  0  0
   41.2171    8.6496   21.1705 H   0  0  0  0  0  0
   39.7904    8.1566   20.1968 H   0  0  0  0  0  0
   38.4831   10.0316   21.2044 H   0  0  0  0  0  0
   40.7901   10.1264   19.3738 H   0  0  0  0  0  0
   38.5178   10.5436   18.6354 H   0  0  0  0  0  0
   42.0932   11.8484   20.3525 H   0  0  0  0  0  0
   40.7021   13.4167   19.0822 H   0  0  0  0  0  0
   40.4281   12.6636   22.6445 H   0  0  0  0  0  0
   41.9140    9.3887   23.4895 H   0  0  0  0  0  0
   46.1830   10.7659   25.2602 H   0  0  0  0  0  0
   47.1711   12.3948   25.2510 H   0  0  0  0  0  0
   44.5089   15.3759   22.8931 H   0  0  0  0  0  0
  1  2  2  0  0  0
  1  3  1  0  0  0
  1  4  1  0  0  0
  1  8  1  0  0  0
  5  6  2  0  0  0
  5  7  1  0  0  0
  5  8  1  0  0  0
  5  9  1  0  0  0
  9 10  1  0  0  0
 10 11  1  0  0  0
 10 28  1  0  0  0
 10 29  1  0  0  0
 11 12  1  0  0  0
 11 13  1  0  0  0
 11 30  1  0  0  0
 12 17  1  0  0  0
 13 14  1  0  0  0
 13 15  1  0  0  0
 13 31  1  0  0  0
 14 32  1  0  0  0
 15 16  1  0  0  0
 15 17  1  0  0  0
 15 33  1  0  0  0
 16 34  1  0  0  0
 17 18  1  0  0  0
 17 35  1  0  0  0
 18 19  1  0  0  0
 18 27  1  0  0  0
 19 20  2  0  0  0
 19 36  1  0  0  0
 20 21  1  0  0  0
 21 22  2  0  0  0
 21 27  1  0  0  0
 22 23  1  0  0  0
 22 24  1  0  0  0
 23 37  1  0  0  0
 23 38  1  0  0  0
 24 25  2  0  0  0
 25 26  1  0  0  0
 25 39  1  0  0  0
 26 27  2  0  0  0
M  CHG  3   3  -1   4  -1   7  -1
M  END
> <s_m_source_file>
../2z4r_ligand.sdf

> <i_m_source_file_index>
1

> <s_epik_input>
Tz1QKFtPSF0pKFtPSF0pT1tQQEBdKD1PKShbT0hdKU9bQ0gyXVtDQEhdMU9bQ0BIXShbQ0BIXShbT0hdKVtDQEBIXTFbT0hdKW4oW2NIXW4yKWMoYzIzKW5bY0hdbmMzW05IMl0=

> <s_epik_cmdline>
J2VwaWtfYXBwJywgJy1pbWFlJywgJ2xpZ2FuZF9wcm8ubWFlJywgJy1vbWFlJywgJ2xpZ2FuZF9wcmVwLm1hZScsICctbXMnLCAnMScsICctcGgnLCAnNycsICctcGh0JywgJzAuNScsICctbnQn

> <r_lp_tautomer_probability>
0.999997216410988

> <r_epik_Ionization_Penalty>
  0.1037

> <r_epik_Ionization_Penalty_Charging>
  0.1033

> <r_epik_Ionization_Penalty_Neutral>
  0.0004

> <r_epik_State_Penalty>
  0.0922

> <r_epik_Charging_Adjusted_Penalty>
0.19546844050481

> <i_epik_Tot_Q>
-3

> <i_epik_Tot_abs_Q>
3

> <s_epik_Chemistry_Notes>
This compound contains an acetal/aminal-like group ( X-CH(R)-Y where X, Y are N, S, or O) that may be acid/base labile, releasing an aldehyde.

$$$$
