2z4w_ligand
                    3D
 Schrodinger Suite 2020-3.
 65 64  0  0  1  0            999 V2000
   28.1610   43.3360   14.3430 C   0  0  0  0  0  0
   26.7440   45.1400   15.6610 C   0  0  0  0  0  0
   36.5800   51.4700    8.6480 C   0  0  0  0  0  0
   34.4610   51.9500   10.1700 C   0  0  0  0  0  0
   30.6900   46.5570   10.1500 C   0  0  0  0  0  0
   30.1640   49.3820    8.4030 C   0  0  0  0  0  0
   26.5990   44.5690    6.6150 O   0  0  0  0  0  0
   31.3670   45.0940    5.3020 O   0  0  0  0  0  0
   26.4260   47.1580    6.5230 O   0  5  0  0  0  0
   27.0110   45.8300    4.4230 O   0  0  0  0  0  0
   29.3610   43.5150    5.2160 O   0  5  0  0  0  0
   29.4680   45.5580    3.6240 O   0  0  0  0  0  0
   27.7710   45.6650   13.4130 C   0  0  0  0  0  0
   34.3200   50.4530    8.1370 C   0  0  0  0  0  0
   28.6640   45.8140    8.8200 C   0  0  0  0  0  0
   30.5960   47.8280    6.4430 C   0  0  0  0  0  0
   28.4980   45.4630   12.2450 C   0  0  0  0  0  0
   32.9650   50.1690    8.2750 C   0  0  0  0  0  0
   29.4260   45.4930    7.7030 C   0  0  0  0  0  0
   29.2580   47.5220    6.2200 C   0  0  0  0  0  0
   28.2890   46.5800   11.2190 C   0  0  0  0  0  0
   32.6150   48.8840    7.5200 C   0  0  0  0  0  0
   27.5650   44.7420   14.4320 C   0  0  0  0  0  0
   35.0940   51.2670    8.9560 C   0  0  0  0  0  0
   29.1890   46.2910   10.0170 C   0  0  0  0  0  0
   31.1030   48.6690    7.4280 C   0  0  0  0  0  0
   28.9740   46.0220    6.3390 C   0  0  0  0  0  0
   27.1480   45.8100    6.0260 P   0  0  0  0  0  0
   29.9080   45.0190    5.0760 P   0  0  0  0  0  0
   27.8857   42.7636   15.2411 H   0  0  0  0  0  0
   29.2566   43.4059   14.2742 H   0  0  0  0  0  0
   27.7692   42.8276   13.4497 H   0  0  0  0  0  0
   26.6877   44.2889   16.3556 H   0  0  0  0  0  0
   25.7290   45.4251   15.3473 H   0  0  0  0  0  0
   27.2254   45.9920   16.1633 H   0  0  0  0  0  0
   37.0220   52.1403    9.3998 H   0  0  0  0  0  0
   36.6896   51.9167    7.6488 H   0  0  0  0  0  0
   37.0959   50.4988    8.6741 H   0  0  0  0  0  0
   35.2222   52.5480   10.6925 H   0  0  0  0  0  0
   34.0618   51.1863   10.8536 H   0  0  0  0  0  0
   33.6440   52.6068    9.8366 H   0  0  0  0  0  0
   31.1929   46.3002    9.2060 H   0  0  0  0  0  0
   31.1008   45.9412   10.9637 H   0  0  0  0  0  0
   30.8552   47.6208   10.3759 H   0  0  0  0  0  0
   29.1235   49.1032    8.1801 H   0  0  0  0  0  0
   30.2828   50.4704    8.2968 H   0  0  0  0  0  0
   30.4106   49.0850    9.4330 H   0  0  0  0  0  0
   26.0218   45.7220    3.9541 H   0  0  0  0  0  0
   29.8973   45.1076    2.7169 H   0  0  0  0  0  0
   27.2890   46.6360   13.5999 H   0  0  0  0  0  0
   34.8925   50.0129    7.3072 H   0  0  0  0  0  0
   27.5787   45.6689    8.7145 H   0  0  0  0  0  0
   31.2798   47.3278    5.7415 H   0  0  0  0  0  0
   29.1346   44.5720   12.1405 H   0  0  0  0  0  0
   32.3203   50.8372    8.8648 H   0  0  0  0  0  0
   30.4473   45.8806    7.8321 H   0  0  0  0  0  0
   29.4609   44.3999    7.5847 H   0  0  0  0  0  0
   28.6340   48.0453    6.9595 H   0  0  0  0  0  0
   28.9725   47.8422    5.2071 H   0  0  0  0  0  0
   27.2341   46.5995   10.9080 H   0  0  0  0  0  0
   28.5562   47.5470   11.6701 H   0  0  0  0  0  0
   33.0177   48.9381    6.4978 H   0  0  0  0  0  0
   33.0541   48.0209    8.0418 H   0  0  0  0  0  0
   26.6500   44.3855   13.9362 H   0  0  0  0  0  0
   35.3420   50.3934    9.5768 H   0  0  0  0  0  0
  1 23  1  0  0  0
  1 30  1  0  0  0
  1 31  1  0  0  0
  1 32  1  0  0  0
  2 23  1  0  0  0
  2 33  1  0  0  0
  2 34  1  0  0  0
  2 35  1  0  0  0
  3 24  1  0  0  0
  3 36  1  0  0  0
  3 37  1  0  0  0
  3 38  1  0  0  0
  4 24  1  0  0  0
  4 39  1  0  0  0
  4 40  1  0  0  0
  4 41  1  0  0  0
  5 25  1  0  0  0
  5 42  1  0  0  0
  5 43  1  0  0  0
  5 44  1  0  0  0
  6 26  1  0  0  0
  6 45  1  0  0  0
  6 46  1  0  0  0
  6 47  1  0  0  0
  7 28  2  0  0  0
  8 29  2  0  0  0
  9 28  1  0  0  0
 10 28  1  0  0  0
 10 48  1  0  0  0
 11 29  1  0  0  0
 12 29  1  0  0  0
 12 49  1  0  0  0
 13 17  2  0  0  0
 13 23  1  0  0  0
 13 50  1  0  0  0
 14 18  2  0  0  0
 14 24  1  0  0  0
 14 51  1  0  0  0
 15 19  1  0  0  0
 15 25  2  0  0  0
 15 52  1  0  0  0
 16 20  1  0  0  0
 16 26  2  0  0  0
 16 53  1  0  0  0
 17 21  1  0  0  0
 17 54  1  0  0  0
 18 22  1  0  0  0
 18 55  1  0  0  0
 19 27  1  0  0  0
 19 56  1  0  0  0
 19 57  1  0  0  0
 20 27  1  0  0  0
 20 58  1  0  0  0
 20 59  1  0  0  0
 21 25  1  0  0  0
 21 60  1  0  0  0
 21 61  1  0  0  0
 22 26  1  0  0  0
 22 62  1  0  0  0
 22 63  1  0  0  0
 23 64  1  0  0  0
 24 65  1  0  0  0
 27 28  1  0  0  0
 27 29  1  0  0  0
M  CHG  2   9  -1  11  -1
M  END
> <s_m_source_file>
../2z4w_ligand.sdf

> <i_m_source_file_index>
1

> <s_epik_input>
W0NIM11bQ0hdKFtDSDNdKS9bQ0hdPVtDSF0vW0NIMl1DKFxbQ0gzXSk9W0NIXVxbQ0gyXUMoUCg9TykoW09IXSlbT0hdKShQKD1PKShbT0hdKVtPSF0pW0NIMl0vW0NIXT1DKFxbQ0gzXSlbQ0gyXVxbQ0hdPVtDSF1cW0NIXShbQ0gzXSlbQ0gzXQ==

> <s_epik_cmdline>
J2VwaWtfYXBwJywgJy1pbWFlJywgJ2xpZ2FuZF9wcm8ubWFlJywgJy1vbWFlJywgJ2xpZ2FuZF9wcmVwLm1hZScsICctbXMnLCAnMScsICctcGgnLCAnNycsICctcGh0JywgJzAuNScsICctbnQn

> <r_epik_Ionization_Penalty>
  0.4090

> <r_epik_Ionization_Penalty_Charging>
  0.0000

> <r_epik_Ionization_Penalty_Neutral>
  0.4090

> <r_epik_State_Penalty>
  0.4089

> <r_epik_Charging_Adjusted_Penalty>
0.408920938327472

> <i_epik_Tot_Q>
-2

> <i_epik_Tot_abs_Q>
2

$$$$
