2z4y_ligand
                    3D
 Schrodinger Suite 2020-3.
 37 36  0  0  1  0            999 V2000
   26.0890   44.9480   15.5900 C   0  0  0  0  0  0
   26.8190   44.4810   14.3290 C   0  0  0  0  0  0
   26.7320   45.5600   13.2470 C   0  0  0  0  0  0
   27.5110   45.1530   11.9970 C   0  0  0  0  0  0
   27.4020   46.2360   10.9250 C   0  0  0  0  0  0
   28.2610   45.8480    9.7230 C   0  0  0  0  0  0
   28.0000   46.7440    8.5080 C   0  0  0  0  0  0
   28.6690   46.0820    7.3080 C   0  0  0  0  0  0
   28.3200   46.6540    5.9290 C   0  0  1  0  0  0
   28.7030   45.2520    4.7680 P   0  0  0  0  0  0
   30.2090   44.8190    5.1400 O   0  5  0  0  0  0
   27.7060   44.0880    5.2620 O   0  5  0  0  0  0
   28.5090   45.6350    3.3510 O   0  0  0  0  0  0
   26.5280   47.1190    5.7010 P   0  0  0  0  0  0
   26.2410   48.4200    6.6070 O   0  5  0  0  0  0
   26.4430   47.6270    4.1740 O   0  0  0  0  0  0
   25.5640   46.0320    5.9860 O   0  0  0  0  0  0
   29.1270   47.7980    5.6290 O   0  0  0  0  0  0
   26.1559   44.1678   16.3625 H   0  0  0  0  0  0
   25.0321   45.1391   15.3523 H   0  0  0  0  0  0
   26.5542   45.8729   15.9617 H   0  0  0  0  0  0
   27.8759   44.2899   14.5667 H   0  0  0  0  0  0
   26.3538   43.5561   13.9573 H   0  0  0  0  0  0
   25.6793   45.7164   12.9690 H   0  0  0  0  0  0
   27.1531   46.5004   13.6322 H   0  0  0  0  0  0
   28.5706   45.0105   12.2556 H   0  0  0  0  0  0
   27.1010   44.2129   11.5993 H   0  0  0  0  0  0
   26.3528   46.3357   10.6099 H   0  0  0  0  0  0
   27.7545   47.1941   11.3345 H   0  0  0  0  0  0
   29.3248   45.9361    9.9888 H   0  0  0  0  0  0
   28.0400   44.8098    9.4342 H   0  0  0  0  0  0
   26.9159   46.8347    8.3455 H   0  0  0  0  0  0
   28.4283   47.7409    8.6888 H   0  0  0  0  0  0
   29.7614   46.1702    7.4024 H   0  0  0  0  0  0
   28.3887   45.0189    7.2722 H   0  0  0  0  0  0
   27.1050   48.4331    3.8249 H   0  0  0  0  0  0
   30.2226   47.7330    5.7032 H   0  0  0  0  0  0
  1  2  1  0  0  0
  1 19  1  0  0  0
  1 20  1  0  0  0
  1 21  1  0  0  0
  2  3  1  0  0  0
  2 22  1  0  0  0
  2 23  1  0  0  0
  3  4  1  0  0  0
  3 24  1  0  0  0
  3 25  1  0  0  0
  4  5  1  0  0  0
  4 26  1  0  0  0
  4 27  1  0  0  0
  5  6  1  0  0  0
  5 28  1  0  0  0
  5 29  1  0  0  0
  6  7  1  0  0  0
  6 30  1  0  0  0
  6 31  1  0  0  0
  7  8  1  0  0  0
  7 32  1  0  0  0
  7 33  1  0  0  0
  8  9  1  0  0  0
  8 34  1  0  0  0
  8 35  1  0  0  0
  9 10  1  0  0  0
  9 14  1  0  0  0
  9 18  1  0  0  0
 10 11  1  0  0  0
 10 12  1  0  0  0
 10 13  2  0  0  0
 14 15  1  0  0  0
 14 16  1  0  0  0
 14 17  2  0  0  0
 16 36  1  0  0  0
 18 37  1  0  0  0
M  CHG  3  11  -1  12  -1  15  -1
M  END
> <s_m_source_file>
../2z4y_ligand.sdf

> <i_m_source_file_index>
1

> <s_epik_input>
W0NIM11bQ0gyXVtDSDJdW0NIMl1bQ0gyXVtDSDJdW0NIMl1bQ0gyXUMoW09IXSkoUCg9TykoW09IXSlbT0hdKVAoPU8pKFtPSF0pW09IXQ==

> <s_epik_cmdline>
J2VwaWtfYXBwJywgJy1pbWFlJywgJ2xpZ2FuZF9wcm8ubWFlJywgJy1vbWFlJywgJ2xpZ2FuZF9wcmVwLm1hZScsICctbXMnLCAnMScsICctcGgnLCAnNycsICctcGh0JywgJzAuNScsICctbnQn

> <r_epik_Ionization_Penalty>
  0.2655

> <r_epik_Ionization_Penalty_Charging>
  0.2655

> <r_epik_Ionization_Penalty_Neutral>
  0.0000

> <r_epik_State_Penalty>
  0.2573

> <r_epik_Charging_Adjusted_Penalty>
0.522771079037901

> <i_epik_Tot_Q>
-3

> <i_epik_Tot_abs_Q>
3

$$$$
