2z4z_ligand
                    3D
 Schrodinger Suite 2020-3.
 56 55  0  0  1  0            999 V2000
   35.9680   51.0690    8.5200 C   0  0  0  0  0  0
   34.4970   51.4970    8.5530 C   0  0  0  0  0  0
   33.5630   50.2870    8.6430 C   0  0  0  0  0  0
   32.1030   50.7270    8.7900 C   0  0  0  0  0  0
   31.1410   49.5490    8.9690 C   0  0  0  0  0  0
   31.0420   48.7550    7.8290 C   0  0  0  0  0  0
   29.8070   48.2660    7.4240 C   0  0  0  0  0  0
   29.7230   47.4710    6.2840 C   0  0  0  0  0  0
   28.9290   46.1770    6.4910 C   0  0  0  0  0  0
   29.4610   44.9060    5.2370 P   0  0  0  0  0  0
   30.9570   44.4510    5.6090 O   0  5  0  0  0  0
   28.5270   43.6160    5.4830 O   0  5  0  0  0  0
   29.3500   45.4280    3.8560 O   0  0  0  0  0  0
   27.1150   46.4610    6.1730 P   0  0  0  0  0  0
   26.3360   45.1620    6.7120 O   0  5  0  0  0  0
   26.6880   47.7230    7.0740 O   0  0  0  0  0  0
   26.8660   46.7260    4.7390 O   0  0  0  0  0  0
   29.2440   45.5190    7.8390 C   0  0  0  0  0  0
   28.4900   45.9460    8.9230 C   0  0  0  0  0  0
   29.1240   46.0020   10.1610 C   0  0  0  0  0  0
   28.4540   46.3800   11.3170 C   0  0  0  0  0  0
   28.2730   45.1250   12.1770 C   0  0  0  0  0  0
   27.7290   45.4010   13.5810 C   0  0  0  0  0  0
   27.6410   44.0950   14.3730 C   0  0  0  0  0  0
   27.0790   44.3320   15.7770 C   0  0  0  0  0  0
   36.6081   51.9612    8.4554 H   0  0  0  0  0  0
   36.1436   50.4275    7.6439 H   0  0  0  0  0  0
   36.2082   50.5110    9.4371 H   0  0  0  0  0  0
   34.3214   52.1385    9.4291 H   0  0  0  0  0  0
   34.2568   52.0550    7.6360 H   0  0  0  0  0  0
   33.6578   49.6819    7.7293 H   0  0  0  0  0  0
   33.8363   49.6770    9.5167 H   0  0  0  0  0  0
   32.0032   51.3780    9.6710 H   0  0  0  0  0  0
   31.7938   51.2784    7.8898 H   0  0  0  0  0  0
   31.4921   48.9109    9.7934 H   0  0  0  0  0  0
   30.1354   49.9290    9.2021 H   0  0  0  0  0  0
   31.9455   48.5155    7.2490 H   0  0  0  0  0  0
   28.9032   48.5074    8.0027 H   0  0  0  0  0  0
   29.2265   48.0341    5.4801 H   0  0  0  0  0  0
   30.7349   47.1855    5.9607 H   0  0  0  0  0  0
   26.8106   47.6854    8.1665 H   0  0  0  0  0  0
   29.0792   44.4339    7.7647 H   0  0  0  0  0  0
   30.2934   45.7131    8.1055 H   0  0  0  0  0  0
   27.4322   46.2341    8.8333 H   0  0  0  0  0  0
   30.1895   45.7420   10.2455 H   0  0  0  0  0  0
   29.0485   47.1324   11.8560 H   0  0  0  0  0  0
   27.4760   46.8074   11.0509 H   0  0  0  0  0  0
   27.5651   44.4421   11.6846 H   0  0  0  0  0  0
   29.2432   44.6214   12.2996 H   0  0  0  0  0  0
   28.4008   46.0974   14.1042 H   0  0  0  0  0  0
   26.7262   45.8466   13.5047 H   0  0  0  0  0  0
   26.9804   43.3906   13.8463 H   0  0  0  0  0  0
   28.6448   43.6553   14.4678 H   0  0  0  0  0  0
   27.0290   43.3756   16.3182 H   0  0  0  0  0  0
   26.0699   44.7629   15.7001 H   0  0  0  0  0  0
   27.7343   45.0277   16.3216 H   0  0  0  0  0  0
  1  2  1  0  0  0
  1 26  1  0  0  0
  1 27  1  0  0  0
  1 28  1  0  0  0
  2  3  1  0  0  0
  2 29  1  0  0  0
  2 30  1  0  0  0
  3  4  1  0  0  0
  3 31  1  0  0  0
  3 32  1  0  0  0
  4  5  1  0  0  0
  4 33  1  0  0  0
  4 34  1  0  0  0
  5  6  1  0  0  0
  5 35  1  0  0  0
  5 36  1  0  0  0
  6  7  2  0  0  0
  6 37  1  0  0  0
  7  8  1  0  0  0
  7 38  1  0  0  0
  8  9  1  0  0  0
  8 39  1  0  0  0
  8 40  1  0  0  0
  9 10  1  0  0  0
  9 14  1  0  0  0
  9 18  1  0  0  0
 10 11  1  0  0  0
 10 12  1  0  0  0
 10 13  2  0  0  0
 14 15  1  0  0  0
 14 16  1  0  0  0
 14 17  2  0  0  0
 16 41  1  0  0  0
 18 19  1  0  0  0
 18 42  1  0  0  0
 18 43  1  0  0  0
 19 20  2  0  0  0
 19 44  1  0  0  0
 20 21  1  0  0  0
 20 45  1  0  0  0
 21 22  1  0  0  0
 21 46  1  0  0  0
 21 47  1  0  0  0
 22 23  1  0  0  0
 22 48  1  0  0  0
 22 49  1  0  0  0
 23 24  1  0  0  0
 23 50  1  0  0  0
 23 51  1  0  0  0
 24 25  1  0  0  0
 24 52  1  0  0  0
 24 53  1  0  0  0
 25 54  1  0  0  0
 25 55  1  0  0  0
 25 56  1  0  0  0
M  CHG  3  11  -1  12  -1  15  -1
M  END
> <s_m_source_file>
../2z4z_ligand.sdf

> <i_m_source_file_index>
1

> <s_epik_input>
W0NIM11bQ0gyXVtDSDJdW0NIMl1bQ0gyXS9bQ0hdPVtDSF0vW0NIMl1DKFAoPU8pKFtPSF0pW09IXSkoUCg9TykoW09IXSlbT0hdKVtDSDJdL1tDSF09W0NIXS9bQ0gyXVtDSDJdW0NIMl1bQ0gyXVtDSDNd

> <s_epik_cmdline>
J2VwaWtfYXBwJywgJy1pbWFlJywgJ2xpZ2FuZF9wcm8ubWFlJywgJy1vbWFlJywgJ2xpZ2FuZF9wcmVwLm1hZScsICctbXMnLCAnMScsICctcGgnLCAnNycsICctcGh0JywgJzAuNScsICctbnQn

> <r_epik_Ionization_Penalty>
  0.4017

> <r_epik_Ionization_Penalty_Charging>
  0.4017

> <r_epik_Ionization_Penalty_Neutral>
  0.0000

> <r_epik_State_Penalty>
  0.4010

> <r_epik_Charging_Adjusted_Penalty>
0.80267803091887

> <i_epik_Tot_Q>
-3

> <i_epik_Tot_abs_Q>
3

$$$$
