2z50_ligand
                    3D
 Schrodinger Suite 2020-3.
 31 30  0  0  1  0            999 V2000
   27.3790   46.2490   12.9980 C   0  0  0  0  0  0
   28.0750   46.2160   11.6360 C   0  0  0  0  0  0
   28.9700   47.4440   11.4680 C   0  0  0  0  0  0
   29.7290   47.3890   10.1420 C   0  0  0  0  0  0
   28.7400   47.2400    8.9880 C   0  0  0  0  0  0
   29.4360   47.2600    7.6250 C   0  0  0  0  0  0
   28.4240   46.7520    6.5980 C   0  0  1  0  0  0
   27.2760   48.0840    5.9670 P   0  0  0  0  0  0
   27.6360   48.4230    4.4360 O   0  5  0  0  0  0
   25.8550   47.3310    5.9390 O   0  5  0  0  0  0
   27.2500   49.3010    6.8100 O   0  0  0  0  0  0
   29.2710   45.8560    5.2070 P   0  0  0  0  0  0
   30.7140   45.3590    5.7230 O   0  5  0  0  0  0
   28.3230   44.5590    5.1110 O   0  0  0  0  0  0
   29.3510   46.6300    3.9510 O   0  0  0  0  0  0
   27.6480   45.7200    7.2150 O   0  0  0  0  0  0
   26.7393   45.3605   13.1045 H   0  0  0  0  0  0
   26.7616   47.1563   13.0723 H   0  0  0  0  0  0
   28.1357   46.2539   13.7964 H   0  0  0  0  0  0
   28.6924   45.3087   11.5617 H   0  0  0  0  0  0
   27.3184   46.2110   10.8376 H   0  0  0  0  0  0
   28.3514   48.3535   11.4837 H   0  0  0  0  0  0
   29.6988   47.4820   12.2911 H   0  0  0  0  0  0
   30.3052   48.3167   10.0106 H   0  0  0  0  0  0
   30.4149   46.5290   10.1475 H   0  0  0  0  0  0
   28.2050   46.2837    9.0848 H   0  0  0  0  0  0
   28.0173   48.0688    9.0151 H   0  0  0  0  0  0
   29.7478   48.2878    7.3876 H   0  0  0  0  0  0
   30.3202   46.6064    7.6552 H   0  0  0  0  0  0
   28.1900   43.9088    5.9882 H   0  0  0  0  0  0
   27.0222   45.9508    8.0897 H   0  0  0  0  0  0
  1  2  1  0  0  0
  1 17  1  0  0  0
  1 18  1  0  0  0
  1 19  1  0  0  0
  2  3  1  0  0  0
  2 20  1  0  0  0
  2 21  1  0  0  0
  3  4  1  0  0  0
  3 22  1  0  0  0
  3 23  1  0  0  0
  4  5  1  0  0  0
  4 24  1  0  0  0
  4 25  1  0  0  0
  5  6  1  0  0  0
  5 26  1  0  0  0
  5 27  1  0  0  0
  6  7  1  0  0  0
  6 28  1  0  0  0
  6 29  1  0  0  0
  7  8  1  0  0  0
  7 12  1  0  0  0
  7 16  1  0  0  0
  8  9  1  0  0  0
  8 10  1  0  0  0
  8 11  2  0  0  0
 12 13  1  0  0  0
 12 14  1  0  0  0
 12 15  2  0  0  0
 14 30  1  0  0  0
 16 31  1  0  0  0
M  CHG  3   9  -1  10  -1  13  -1
M  END
> <s_m_source_file>
../2z50_ligand.sdf

> <i_m_source_file_index>
1

> <s_epik_input>
W0NIM11bQ0gyXVtDSDJdW0NIMl1bQ0gyXVtDSDJdQyhbT0hdKShQKD1PKShbT0hdKVtPSF0pUCg9TykoW09IXSlbT0hd

> <s_epik_cmdline>
J2VwaWtfYXBwJywgJy1pbWFlJywgJ2xpZ2FuZF9wcm8ubWFlJywgJy1vbWFlJywgJ2xpZ2FuZF9wcmVwLm1hZScsICctbXMnLCAnMScsICctcGgnLCAnNycsICctcGh0JywgJzAuNScsICctbnQn

> <r_epik_Ionization_Penalty>
  0.2654

> <r_epik_Ionization_Penalty_Charging>
  0.2653

> <r_epik_Ionization_Penalty_Neutral>
  0.0000

> <r_epik_State_Penalty>
  0.2572

> <r_epik_Charging_Adjusted_Penalty>
0.522531146925856

> <i_epik_Tot_Q>
-3

> <i_epik_Tot_abs_Q>
3

$$$$
