2z52_ligand
                    3D
 Schrodinger Suite 2020-3.
 46 45  0  0  1  0            999 V2000
   30.5070   45.1590   18.8040 C   0  0  0  0  0  0
   30.1740   45.6580   17.3980 C   0  0  0  0  0  0
   28.7710   45.2040   16.9890 C   0  0  0  0  0  0
   28.3940   45.8500   15.6580 C   0  0  0  0  0  0
   27.0100   45.4380   15.1480 C   0  0  0  0  0  0
   26.7480   46.1520   13.8190 C   0  0  0  0  0  0
   27.7310   45.6930   12.7370 C   0  0  0  0  0  0
   27.4890   46.3650   11.3820 C   0  0  0  0  0  0
   28.3660   45.7450   10.2880 C   0  0  0  0  0  0
   27.9240   46.1580    8.8790 C   0  0  0  0  0  0
   28.7590   45.4530    7.8040 C   0  0  0  0  0  0
   28.4110   45.8610    6.3660 C   0  0  1  0  0  0
   29.3800   44.7850    5.1900 P   0  0  0  0  0  0
   28.6950   43.3370    5.1960 O   0  5  0  0  0  0
   29.1670   45.4160    3.7270 O   0  5  0  0  0  0
   30.8140   44.7260    5.5570 O   0  0  0  0  0  0
   26.5820   45.7000    6.0290 P   0  0  0  0  0  0
   26.4440   45.9390    4.4430 O   0  5  0  0  0  0
   26.2250   44.1530    6.2900 O   0  0  0  0  0  0
   25.7640   46.6660    6.7880 O   0  0  0  0  0  0
   28.7420   47.2240    6.0940 O   0  0  0  0  0  0
   31.5173   45.4936   19.0821 H   0  0  0  0  0  0
   30.4667   44.0599   18.8221 H   0  0  0  0  0  0
   29.7765   45.5645   19.5195 H   0  0  0  0  0  0
   30.2143   46.7571   17.3799 H   0  0  0  0  0  0
   30.9045   45.2525   16.6824 H   0  0  0  0  0  0
   28.7565   44.1093   16.8821 H   0  0  0  0  0  0
   28.0481   45.5066   17.7609 H   0  0  0  0  0  0
   28.3910   46.9443   15.7694 H   0  0  0  0  0  0
   29.1267   45.5617   14.8899 H   0  0  0  0  0  0
   26.9833   44.3484   14.9998 H   0  0  0  0  0  0
   26.2466   45.7266   15.8855 H   0  0  0  0  0  0
   25.7254   45.9307   13.4793 H   0  0  0  0  0  0
   26.8616   47.2373   13.9572 H   0  0  0  0  0  0
   28.7581   45.9327   13.0493 H   0  0  0  0  0  0
   27.6359   44.6067   12.5921 H   0  0  0  0  0  0
   26.4340   46.2431   11.0955 H   0  0  0  0  0  0
   27.7274   47.4363   11.4562 H   0  0  0  0  0  0
   29.4080   46.0697   10.4255 H   0  0  0  0  0  0
   28.3122   44.6482   10.3526 H   0  0  0  0  0  0
   26.8673   45.8898    8.7329 H   0  0  0  0  0  0
   28.0463   47.2447    8.7601 H   0  0  0  0  0  0
   29.8235   45.6851    7.9558 H   0  0  0  0  0  0
   28.6069   44.3659    7.8759 H   0  0  0  0  0  0
   26.7842   43.3636    5.7665 H   0  0  0  0  0  0
   29.7771   47.5743    6.2200 H   0  0  0  0  0  0
  1  2  1  0  0  0
  1 22  1  0  0  0
  1 23  1  0  0  0
  1 24  1  0  0  0
  2  3  1  0  0  0
  2 25  1  0  0  0
  2 26  1  0  0  0
  3  4  1  0  0  0
  3 27  1  0  0  0
  3 28  1  0  0  0
  4  5  1  0  0  0
  4 29  1  0  0  0
  4 30  1  0  0  0
  5  6  1  0  0  0
  5 31  1  0  0  0
  5 32  1  0  0  0
  6  7  1  0  0  0
  6 33  1  0  0  0
  6 34  1  0  0  0
  7  8  1  0  0  0
  7 35  1  0  0  0
  7 36  1  0  0  0
  8  9  1  0  0  0
  8 37  1  0  0  0
  8 38  1  0  0  0
  9 10  1  0  0  0
  9 39  1  0  0  0
  9 40  1  0  0  0
 10 11  1  0  0  0
 10 41  1  0  0  0
 10 42  1  0  0  0
 11 12  1  0  0  0
 11 43  1  0  0  0
 11 44  1  0  0  0
 12 13  1  0  0  0
 12 17  1  0  0  0
 12 21  1  0  0  0
 13 14  1  0  0  0
 13 15  1  0  0  0
 13 16  2  0  0  0
 17 18  1  0  0  0
 17 19  1  0  0  0
 17 20  2  0  0  0
 19 45  1  0  0  0
 21 46  1  0  0  0
M  CHG  3  14  -1  15  -1  18  -1
M  END
> <s_m_source_file>
../2z52_ligand.sdf

> <i_m_source_file_index>
1

> <s_epik_input>
W0NIM11bQ0gyXVtDSDJdW0NIMl1bQ0gyXVtDSDJdW0NIMl1bQ0gyXVtDSDJdW0NIMl1bQ0gyXUMoW09IXSkoUCg9TykoW09IXSlbT0hdKVAoPU8pKFtPSF0pW09IXQ==

> <s_epik_cmdline>
J2VwaWtfYXBwJywgJy1pbWFlJywgJ2xpZ2FuZF9wcm8ubWFlJywgJy1vbWFlJywgJ2xpZ2FuZF9wcmVwLm1hZScsICctbXMnLCAnMScsICctcGgnLCAnNycsICctcGh0JywgJzAuNScsICctbnQn

> <r_epik_Ionization_Penalty>
  0.2655

> <r_epik_Ionization_Penalty_Charging>
  0.2655

> <r_epik_Ionization_Penalty_Neutral>
  0.0000

> <r_epik_State_Penalty>
  0.2573

> <r_epik_Charging_Adjusted_Penalty>
0.522771079037901

> <i_epik_Tot_Q>
-3

> <i_epik_Tot_abs_Q>
3

$$$$
