2z5o_ligand
                    3D
 Schrodinger Suite 2020-3.
103102  0  0  1  0            999 V2000
   35.9310  -34.4600  -37.5320 N   0  3  0  0  0  0
   34.4870  -34.7120  -37.2310 C   0  0  2  0  0  0
   33.8050  -35.6090  -38.2750 C   0  0  0  0  0  0
   32.5790  -35.7400  -38.2710 O   0  0  0  0  0  0
   33.7310  -33.3830  -37.0730 C   0  0  0  0  0  0
   34.6100  -36.2300  -39.1440 N   0  0  0  0  0  0
   34.1350  -37.0960  -40.2380 C   0  0  2  0  0  0
   33.0770  -36.4190  -41.1230 C   0  0  0  0  0  0
   33.3170  -35.3300  -41.6460 O   0  0  0  0  0  0
   33.6490  -38.4590  -39.7040 C   0  0  0  0  0  0
   31.9180  -37.0610  -41.2790 N   0  0  0  0  0  0
   30.8170  -36.5260  -42.0840 C   0  0  2  0  0  0
   30.0910  -35.3950  -41.3490 C   0  0  0  0  0  0
   30.3530  -35.1690  -40.1750 O   0  0  0  0  0  0
   29.8500  -37.6420  -42.4530 C   0  0  0  0  0  0
   29.1920  -34.6850  -42.0340 N   0  0  0  0  0  0
   28.4540  -33.5630  -41.4270 C   0  0  2  0  0  0
   27.2700  -34.0390  -40.6020 C   0  0  0  0  0  0
   26.4380  -34.7920  -41.0900 O   0  0  0  0  0  0
   27.9790  -32.5770  -42.4880 C   0  0  0  0  0  0
   27.2020  -33.6100  -39.3470 N   0  0  0  0  0  0
   26.0370  -33.8830  -38.5100 C   0  0  2  0  0  0
   25.4550  -32.5530  -38.0320 C   0  0  0  0  0  0
   26.1860  -31.6840  -37.5550 O   0  0  0  0  0  0
   26.3970  -34.8030  -37.3360 C   0  0  0  0  0  0
   24.1400  -32.4010  -38.1840 N   0  0  0  0  0  0
   23.4470  -31.1310  -37.9540 C   0  0  2  0  0  0
   23.6770  -30.5230  -36.5390 C   0  0  0  0  0  0
   23.8150  -29.3060  -36.3750 O   0  0  0  0  0  0
   21.9650  -31.3080  -38.2630 C   0  0  0  0  0  0
   23.7300  -31.3930  -35.5350 N   0  0  0  0  0  0
   24.0230  -31.0400  -34.1480 C   0  0  2  0  0  0
   24.9040  -32.1780  -33.5780 C   0  0  0  0  0  0
   25.4440  -32.9700  -34.3540 O   0  0  0  0  0  0
   22.7240  -30.8910  -33.3720 C   0  0  0  0  0  0
   25.0710  -32.2630  -32.2570 N   0  0  0  0  0  0
   25.9210  -33.3130  -31.6590 C   0  0  2  0  0  0
   25.5130  -33.6470  -30.2260 C   0  0  0  0  0  0
   25.1730  -32.7480  -29.4510 O   0  0  0  0  0  0
   27.3980  -32.9170  -31.7040 C   0  0  0  0  0  0
   25.5500  -34.9340  -29.8670 N   0  0  0  0  0  0
   25.2330  -35.3350  -28.4930 C   0  0  2  0  0  0
   26.1720  -34.6220  -27.4820 C   0  0  0  0  0  0
   26.6530  -35.3010  -26.4090 O   0  0  0  0  0  0
   25.3410  -36.8680  -28.3460 C   0  0  0  0  0  0
   26.4280  -33.2500  -27.8520 N   0  0  0  0  0  0
   27.2890  -32.3510  -27.0560 C   0  0  2  0  0  0
   28.7640  -33.1660  -26.6160 C   0  0  0  0  0  0
   29.5780  -32.5150  -25.7860 O   0  5  0  0  0  0
   26.4270  -31.9710  -25.6060 C   0  0  0  0  0  0
   29.2090  -34.2610  -27.1850 O   0  0  0  0  0  0
   36.4557  -35.4205  -37.6417 H   0  0  0  0  0  0
   36.3827  -33.8874  -36.7085 H   0  0  0  0  0  0
   36.0160  -33.8869  -38.4670 H   0  0  0  0  0  0
   34.4822  -35.2612  -36.2779 H   0  0  0  0  0  0
   34.2380  -32.7598  -36.3216 H   0  0  0  0  0  0
   32.6998  -33.5843  -36.7471 H   0  0  0  0  0  0
   33.7142  -32.8539  -38.0372 H   0  0  0  0  0  0
   35.6880  -36.0618  -39.0042 H   0  0  0  0  0  0
   35.0297  -37.2467  -40.8599 H   0  0  0  0  0  0
   34.4336  -38.9082  -39.0774 H   0  0  0  0  0  0
   33.4283  -39.1266  -40.5499 H   0  0  0  0  0  0
   32.7386  -38.3142  -39.1039 H   0  0  0  0  0  0
   31.8080  -38.0311  -40.7722 H   0  0  0  0  0  0
   31.2784  -36.1207  -42.9966 H   0  0  0  0  0  0
   30.3946  -38.4402  -42.9786 H   0  0  0  0  0  0
   29.0621  -37.2426  -43.1086 H   0  0  0  0  0  0
   29.3944  -38.0497  -41.5385 H   0  0  0  0  0  0
   29.0091  -34.9601  -43.0832 H   0  0  0  0  0  0
   29.1826  -33.0789  -40.7601 H   0  0  0  0  0  0
   28.8392  -32.2354  -43.0824 H   0  0  0  0  0  0
   27.5046  -31.7131  -41.9995 H   0  0  0  0  0  0
   27.2505  -33.0710  -43.1477 H   0  0  0  0  0  0
   28.0489  -33.0373  -38.9410 H   0  0  0  0  0  0
   25.3072  -34.4116  -39.1408 H   0  0  0  0  0  0
   26.8110  -35.7459  -37.7227 H   0  0  0  0  0  0
   25.4935  -35.0142  -36.7452 H   0  0  0  0  0  0
   27.1446  -34.3084  -36.6985 H   0  0  0  0  0  0
   23.5715  -33.2887  -38.4982 H   0  0  0  0  0  0
   23.9074  -30.4400  -38.6755 H   0  0  0  0  0  0
   21.8490  -31.7386  -39.2685 H   0  0  0  0  0  0
   21.4627  -30.3302  -38.2226 H   0  0  0  0  0  0
   21.5138  -31.9829  -37.5208 H   0  0  0  0  0  0
   23.5343  -32.4409  -35.8063 H   0  0  0  0  0  0
   24.5378  -30.0683  -34.1183 H   0  0  0  0  0  0
   22.1286  -30.0748  -33.8070 H   0  0  0  0  0  0
   22.9495  -30.6602  -32.3204 H   0  0  0  0  0  0
   22.1542  -31.8303  -33.4272 H   0  0  0  0  0  0
   24.5620  -31.5330  -31.6105 H   0  0  0  0  0  0
   25.7466  -34.1984  -32.2880 H   0  0  0  0  0  0
   27.6822  -32.6784  -32.7395 H   0  0  0  0  0  0
   28.0129  -33.7525  -31.3382 H   0  0  0  0  0  0
   27.5608  -32.0354  -31.0667 H   0  0  0  0  0  0
   25.8214  -35.6951  -30.6133 H   0  0  0  0  0  0
   24.1933  -35.0156  -28.3284 H   0  0  0  0  0  0
   24.6696  -37.3539  -29.0693 H   0  0  0  0  0  0
   25.0531  -37.1596  -27.3252 H   0  0  0  0  0  0
   26.3772  -37.1827  -28.5388 H   0  0  0  0  0  0
   25.9494  -32.8815  -28.7713 H   0  0  0  0  0  0
   27.4455  -31.5091  -27.7464 H   0  0  0  0  0  0
   25.4899  -31.4546  -25.8612 H   0  0  0  0  0  0
   27.0450  -31.3176  -24.9726 H   0  0  0  0  0  0
   26.1978  -32.8991  -25.0618 H   0  0  0  0  0  0
  1  2  1  0  0  0
  1 52  1  0  0  0
  1 53  1  0  0  0
  1 54  1  0  0  0
  2  3  1  0  0  0
  2  5  1  0  0  0
  2 55  1  0  0  0
  3  4  2  0  0  0
  3  6  1  0  0  0
  5 56  1  0  0  0
  5 57  1  0  0  0
  5 58  1  0  0  0
  6  7  1  0  0  0
  6 59  1  0  0  0
  7  8  1  0  0  0
  7 10  1  0  0  0
  7 60  1  0  0  0
  8  9  2  0  0  0
  8 11  1  0  0  0
 10 61  1  0  0  0
 10 62  1  0  0  0
 10 63  1  0  0  0
 11 12  1  0  0  0
 11 64  1  0  0  0
 12 13  1  0  0  0
 12 15  1  0  0  0
 12 65  1  0  0  0
 13 14  2  0  0  0
 13 16  1  0  0  0
 15 66  1  0  0  0
 15 67  1  0  0  0
 15 68  1  0  0  0
 16 17  1  0  0  0
 16 69  1  0  0  0
 17 18  1  0  0  0
 17 20  1  0  0  0
 17 70  1  0  0  0
 18 19  2  0  0  0
 18 21  1  0  0  0
 20 71  1  0  0  0
 20 72  1  0  0  0
 20 73  1  0  0  0
 21 22  1  0  0  0
 21 74  1  0  0  0
 22 23  1  0  0  0
 22 25  1  0  0  0
 22 75  1  0  0  0
 23 24  2  0  0  0
 23 26  1  0  0  0
 25 76  1  0  0  0
 25 77  1  0  0  0
 25 78  1  0  0  0
 26 27  1  0  0  0
 26 79  1  0  0  0
 27 28  1  0  0  0
 27 30  1  0  0  0
 27 80  1  0  0  0
 28 29  2  0  0  0
 28 31  1  0  0  0
 30 81  1  0  0  0
 30 82  1  0  0  0
 30 83  1  0  0  0
 31 32  1  0  0  0
 31 84  1  0  0  0
 32 33  1  0  0  0
 32 35  1  0  0  0
 32 85  1  0  0  0
 33 34  2  0  0  0
 33 36  1  0  0  0
 35 86  1  0  0  0
 35 87  1  0  0  0
 35 88  1  0  0  0
 36 37  1  0  0  0
 36 89  1  0  0  0
 37 38  1  0  0  0
 37 40  1  0  0  0
 37 90  1  0  0  0
 38 39  2  0  0  0
 38 41  1  0  0  0
 40 91  1  0  0  0
 40 92  1  0  0  0
 40 93  1  0  0  0
 41 42  1  0  0  0
 41 94  1  0  0  0
 42 43  1  0  0  0
 42 45  1  0  0  0
 42 95  1  0  0  0
 43 44  2  0  0  0
 43 46  1  0  0  0
 45 96  1  0  0  0
 45 97  1  0  0  0
 45 98  1  0  0  0
 46 47  1  0  0  0
 46 99  1  0  0  0
 47 48  1  0  0  0
 47 50  1  0  0  0
 47100  1  0  0  0
 48 49  1  0  0  0
 48 51  2  0  0  0
 50101  1  0  0  0
 50102  1  0  0  0
 50103  1  0  0  0
M  CHG  2   1   1  49  -1
M  END
> <s_m_source_file>
../2z5o_ligand.sdf

> <i_m_source_file_index>
1

> <s_epik_input>
W05IMytdW0NAQEhdKFtDSDNdKUMoPU8pW05IXVtDQEBIXShbQ0gzXSlDKD1PKVtOSF1bQ0BASF0oW0NIM10pQyg9TylbTkhdW0NAQEhdKFtDSDNdKUMoPU8pW05IXVtDQEBIXShbQ0gzXSlDKD1PKVtOSF1bQ0BASF0oW0NIM10pQyg9TylbTkhdW0NAQEhdKFtDSDNdKUMoPU8pW05IXVtDQEBIXShbQ0gzXSlDKD1PKVtOSF1bQ0BASF0oW0NIM10pQyg9TylbTkhdW0NAQEhdKFtDSDNdKUMoPU8pW09IXQ==

> <s_epik_cmdline>
J2VwaWtfYXBwJywgJy1pbWFlJywgJ2xpZ2FuZF9wcm8ubWFlJywgJy1vbWFlJywgJ2xpZ2FuZF9wcmVwLm1hZScsICctbXMnLCAnMScsICctcGgnLCAnNycsICctcGh0JywgJzAuNScsICctbnQn

> <r_epik_Ionization_Penalty>
  0.1241

> <r_epik_Ionization_Penalty_Charging>
  0.1241

> <r_epik_Ionization_Penalty_Neutral>
  0.0000

> <r_epik_State_Penalty>
  0.1134

> <r_epik_Charging_Adjusted_Penalty>
0.237502898569041

> <i_epik_Tot_Q>
0

> <i_epik_Tot_abs_Q>
2

$$$$
