2z5s_ligand
                    3D
 Schrodinger Suite 2020-3.
191194  0  0  1  0            999 V2000
   13.2360   13.5870   51.4910 N   0  3  0  0  0  0
   13.2330   13.1880   50.0470 C   0  0  2  0  0  0
   13.1110   11.6750   49.8750 C   0  0  0  0  0  0
   13.5590   10.8970   50.7270 O   0  0  0  0  0  0
   14.4810   13.7120   49.3310 C   0  0  0  0  0  0
   14.2980   15.0900   48.6770 C   0  0  0  0  0  0
   12.4890   11.2700   48.7730 N   0  0  0  0  0  0
   12.2280    9.8610   48.5140 C   0  0  2  0  0  0
   13.3710    9.3380   47.6740 C   0  0  0  0  0  0
   14.0360   10.1240   46.9770 O   0  0  0  0  0  0
   10.8890    9.6300   47.7730 C   0  0  2  0  0  0
   10.9450   10.2260   46.4730 O   0  0  0  0  0  0
    9.7260   10.2170   48.5540 C   0  0  0  0  0  0
   13.5980    8.0230   47.7380 N   0  0  0  0  0  0
   14.6730    7.4110   46.9730 C   0  0  2  0  0  0
   14.5820    7.7550   45.4790 C   0  0  0  0  0  0
   15.5990    8.0220   44.8560 O   0  0  0  0  0  0
   14.7310    5.8880   47.1470 C   0  0  0  0  0  0
   15.5440    5.2140   46.0840 C   0  0  0  0  0  0
   16.9180    5.0930   46.2250 C   0  0  0  0  0  0
   14.9450    4.7760   44.9050 C   0  0  0  0  0  0
   17.6770    4.5200   45.2260 C   0  0  0  0  0  0
   15.6880    4.2060   43.8950 C   0  0  0  0  0  0
   17.0520    4.0650   44.0500 C   0  0  0  0  0  0
   13.3810    7.7290   44.8990 N   0  0  0  0  0  0
   13.2690    7.9570   43.4610 C   0  0  2  0  0  0
   13.5190    9.4190   43.0450 C   0  0  0  0  0  0
   13.9500    9.6760   41.9150 O   0  0  0  0  0  0
   11.9530    7.4160   42.9040 C   0  0  0  0  0  0
   10.8360    7.9660   43.5540 O   0  0  0  0  0  0
   13.2610   10.3620   43.9630 N   0  0  0  0  0  0
   13.6000   11.7770   43.7520 C   0  0  2  0  0  0
   15.1200   11.9190   43.7010 C   0  0  0  0  0  0
   15.6600   12.4880   42.7640 O   0  0  0  0  0  0
   13.0450   12.6660   44.8810 C   0  0  0  0  0  0
   11.5390   12.8910   44.7890 C   0  0  0  0  0  0
   10.9120   13.0900   45.8690 O   0  0  0  0  0  0
   10.9900   12.8790   43.6510 O   0  0  0  0  0  0
   15.7890   11.3940   44.7260 N   0  0  0  0  0  0
   17.2500   11.3070   44.7810 C   0  0  2  0  0  0
   17.8940   10.5470   43.6010 C   0  0  0  0  0  0
   18.8810   11.0070   43.0360 O   0  0  0  0  0  0
   17.6840   10.6870   46.1150 C   0  0  0  0  0  0
   17.2130   11.3910   47.3830 C   0  0  0  0  0  0
   17.1660   10.4470   48.5530 C   0  0  0  0  0  0
   18.1000   12.5970   47.6860 C   0  0  0  0  0  0
   17.3430    9.4010   43.2230 N   0  0  0  0  0  0
   17.9080    8.6380   42.1060 C   0  0  2  0  0  0
   17.9790    9.4100   40.7810 C   0  0  0  0  0  0
   19.0250    9.4650   40.1590 O   0  0  0  0  0  0
   17.1810    7.3090   41.8850 C   0  0  0  0  0  0
   17.9190    6.4280   40.9360 C   0  0  0  0  0  0
   17.6590    6.2360   39.6000 C   0  0  0  0  0  0
   19.0740    5.6460   41.2330 C   0  0  0  0  0  0
   18.5710    5.3540   39.0550 N   0  0  0  0  0  0
   19.4550    4.9840   40.0360 C   0  0  0  0  0  0
   19.8210    5.4280   42.3970 C   0  0  0  0  0  0
   20.5420    4.1280   39.9800 C   0  0  0  0  0  0
   20.8920    4.5840   42.3350 C   0  0  0  0  0  0
   21.2460    3.9370   41.1320 C   0  0  0  0  0  0
   16.8670    9.9970   40.3490 N   0  0  0  0  0  0
   16.8200   10.7060   39.0570 C   0  0  2  0  0  0
   17.6870   11.9740   39.0280 C   0  0  0  0  0  0
   17.8620   12.5980   37.9820 O   0  0  0  0  0  0
   15.3680   10.9990   38.6440 C   0  0  0  0  0  0
   14.6120   11.9590   39.5380 C   0  0  0  0  0  0
   13.2000   12.1720   38.9970 C   0  0  0  0  0  0
   12.4200   13.2060   39.8080 C   0  0  0  0  0  0
   11.0120   13.3370   39.3160 N   0  3  0  0  0  0
   18.2330   12.3200   40.1910 N   0  0  0  0  0  0
   19.0800   13.4800   40.3840 C   0  0  2  0  0  0
   20.5460   13.0290   40.2380 C   0  0  0  0  0  0
   21.3950   13.3570   41.0730 O   0  0  0  0  0  0
   18.8060   14.0280   41.7900 C   0  0  0  0  0  0
   18.7690   15.5080   42.1770 C   0  0  0  0  0  0
   17.7970   16.3150   41.3170 C   0  0  0  0  0  0
   18.4010   15.6260   43.6560 C   0  0  0  0  0  0
   20.8240   12.2670   39.1760 N   0  0  0  0  0  0
   22.1180   11.6110   38.9710 C   0  0  2  0  0  0
   22.6780   11.7900   37.5470 C   0  0  0  0  0  0
   21.9250   11.7050   36.5720 O   0  0  0  0  0  0
   22.0190   10.1040   39.2710 C   0  0  0  0  0  0
   22.4170    9.5070   40.6230 C   0  0  0  0  0  0
   22.3840    7.9940   40.5300 C   0  0  0  0  0  0
   23.7950    9.9710   41.0580 C   0  0  0  0  0  0
   24.0060   12.0390   37.4350 N   0  0  0  0  0  0
   24.7440   12.1230   36.1640 C   0  0  2  0  0  0
   24.9560   10.7810   35.4410 C   0  0  0  0  0  0
   24.5930    9.7110   35.9570 O   0  0  0  0  0  0
   26.1030   12.6890   36.5930 C   0  0  0  0  0  0
   26.2640   12.2300   38.0150 C   0  0  0  0  0  0
   24.8850   12.3110   38.5930 C   0  0  0  0  0  0
   25.5371   10.7667   34.2447 O   0  0  0  0  0  0
   13.3251   14.6806   51.5690 H   0  0  0  0  0  0
   14.0874   13.1124   52.0008 H   0  0  0  0  0  0
   12.2976   13.2610   51.9634 H   0  0  0  0  0  0
   12.3395   13.6549   49.6070 H   0  0  0  0  0  0
   15.3063   13.8036   50.0524 H   0  0  0  0  0  0
   14.7675   13.0110   48.5332 H   0  0  0  0  0  0
   15.2359   15.3909   48.1874 H   0  0  0  0  0  0
   14.0329   15.8292   49.4473 H   0  0  0  0  0  0
   13.4941   15.0366   47.9281 H   0  0  0  0  0  0
   12.1688   12.0313   48.0464 H   0  0  0  0  0  0
   12.1796    9.3731   49.4987 H   0  0  0  0  0  0
   10.7130    8.5573   47.6046 H   0  0  0  0  0  0
   11.7277    9.9226   45.7621 H   0  0  0  0  0  0
    9.6855    9.7571   49.5524 H   0  0  0  0  0  0
    8.7862   10.0154   48.0191 H   0  0  0  0  0  0
    9.8641   11.3035   48.6560 H   0  0  0  0  0  0
   12.9577    7.4014   48.3812 H   0  0  0  0  0  0
   15.5673    7.8687   47.4210 H   0  0  0  0  0  0
   15.1836    5.6471   48.1202 H   0  0  0  0  0  0
   13.7124    5.4750   47.1041 H   0  0  0  0  0  0
   17.4022    5.4536   47.1325 H   0  0  0  0  0  0
   13.8679    4.8865   44.7794 H   0  0  0  0  0  0
   18.7557    4.4201   45.3468 H   0  0  0  0  0  0
   15.2020    3.8686   42.9796 H   0  0  0  0  0  0
   17.6452    3.6013   43.2618 H   0  0  0  0  0  0
   12.4782    7.5372   45.4974 H   0  0  0  0  0  0
   14.0969    7.3556   43.0575 H   0  0  0  0  0  0
   11.8800    7.6598   41.8339 H   0  0  0  0  0  0
   11.9209    6.3242   43.0343 H   0  0  0  0  0  0
    9.8215    7.6650   43.2537 H   0  0  0  0  0  0
   12.7786   10.0458   44.8996 H   0  0  0  0  0  0
   13.1358   12.0617   42.7962 H   0  0  0  0  0  0
   13.2500   12.1944   45.8534 H   0  0  0  0  0  0
   13.5297   13.6527   44.8426 H   0  0  0  0  0  0
    9.8249   13.2570   45.8511 H   0  0  0  0  0  0
   15.1835   11.0134   45.5618 H   0  0  0  0  0  0
   17.5616   12.3589   44.7005 H   0  0  0  0  0  0
   17.2992    9.6588   46.1839 H   0  0  0  0  0  0
   18.7824   10.6720   46.1723 H   0  0  0  0  0  0
   16.1819   11.7386   47.2218 H   0  0  0  0  0  0
   16.5216    9.5901   48.3071 H   0  0  0  0  0  0
   16.7600   10.9710   49.4308 H   0  0  0  0  0  0
   18.1820   10.0895   48.7767 H   0  0  0  0  0  0
   18.1157   13.2686   46.8150 H   0  0  0  0  0  0
   19.1225   12.2547   47.9036 H   0  0  0  0  0  0
   17.7006   13.1362   48.5576 H   0  0  0  0  0  0
   16.4563    9.0241   43.7538 H   0  0  0  0  0  0
   18.9329    8.4651   42.4661 H   0  0  0  0  0  0
   17.0843    6.7800   42.8446 H   0  0  0  0  0  0
   16.1806    7.5028   41.4707 H   0  0  0  0  0  0
   16.8481    6.7123   39.0490 H   0  0  0  0  0  0
   19.5534    5.9211   43.3315 H   0  0  0  0  0  0
   20.8232    3.6276   39.0534 H   0  0  0  0  0  0
   21.4852    4.4064   43.2320 H   0  0  0  0  0  0
   22.1053    3.2665   41.1234 H   0  0  0  0  0  0
   15.9680    9.9447   40.9807 H   0  0  0  0  0  0
   17.2689    9.9951   38.3477 H   0  0  0  0  0  0
   15.3554   11.4409   37.6368 H   0  0  0  0  0  0
   14.7916   10.0621   38.6406 H   0  0  0  0  0  0
   14.5518   11.5431   40.5546 H   0  0  0  0  0  0
   15.1384   12.9244   39.5674 H   0  0  0  0  0  0
   13.2553   12.5253   37.9567 H   0  0  0  0  0  0
   12.6465   11.2221   39.0327 H   0  0  0  0  0  0
   12.3936   12.8996   40.8641 H   0  0  0  0  0  0
   12.9122   14.1861   39.7227 H   0  0  0  0  0  0
   10.4808   14.0872   39.9202 H   0  0  0  0  0  0
   10.5011   12.3668   39.4039 H   0  0  0  0  0  0
   11.0197   13.6532   38.2625 H   0  0  0  0  0  0
   18.0045   11.6585   41.0397 H   0  0  0  0  0  0
   18.8344   14.2368   39.6244 H   0  0  0  0  0  0
   17.8103   13.7003   42.1236 H   0  0  0  0  0  0
   19.5689   13.6495   42.4862 H   0  0  0  0  0  0
   19.7677   15.9334   41.9992 H   0  0  0  0  0  0
   18.0773   16.2181   40.2577 H   0  0  0  0  0  0
   17.8387   17.3739   41.6120 H   0  0  0  0  0  0
   16.7754   15.9338   41.4623 H   0  0  0  0  0  0
   19.1105   15.0396   44.2583 H   0  0  0  0  0  0
   17.3822   15.2416   43.8121 H   0  0  0  0  0  0
   18.4455   16.6817   43.9618 H   0  0  0  0  0  0
   20.0212   12.1438   38.4341 H   0  0  0  0  0  0
   22.7675   12.1350   39.6876 H   0  0  0  0  0  0
   20.9747    9.7762   39.1614 H   0  0  0  0  0  0
   22.6539    9.5473   38.5661 H   0  0  0  0  0  0
   21.7018    9.8484   41.3858 H   0  0  0  0  0  0
   21.3820    7.6678   40.2143 H   0  0  0  0  0  0
   22.6175    7.5610   41.5139 H   0  0  0  0  0  0
   23.1285    7.6556   39.7944 H   0  0  0  0  0  0
   23.8087   11.0690   41.1225 H   0  0  0  0  0  0
   24.5430    9.6374   40.3237 H   0  0  0  0  0  0
   24.0320    9.5429   42.0432 H   0  0  0  0  0  0
   24.1510   12.7352   35.4685 H   0  0  0  0  0  0
   26.8906   12.2871   35.9387 H   0  0  0  0  0  0
   26.0849   13.7860   36.5137 H   0  0  0  0  0  0
   26.6540   11.2015   38.0264 H   0  0  0  0  0  0
   26.9677   12.8947   38.5374 H   0  0  0  0  0  0
   24.6597   13.3086   38.9980 H   0  0  0  0  0  0
   24.7126   11.5522   39.3705 H   0  0  0  0  0  0
   25.6929    9.8124   33.7203 H   0  0  0  0  0  0
  1  2  1  0  0  0
  1 94  1  0  0  0
  1 95  1  0  0  0
  1 96  1  0  0  0
  2  5  1  0  0  0
  2  3  1  0  0  0
  2 97  1  0  0  0
  3  4  2  0  0  0
  3  7  1  0  0  0
  5  6  1  0  0  0
  5 98  1  0  0  0
  5 99  1  0  0  0
  6100  1  0  0  0
  6101  1  0  0  0
  6102  1  0  0  0
  7  8  1  0  0  0
  7103  1  0  0  0
  8 11  1  0  0  0
  8  9  1  0  0  0
  8104  1  0  0  0
  9 10  2  0  0  0
  9 14  1  0  0  0
 11 13  1  0  0  0
 11 12  1  0  0  0
 11105  1  0  0  0
 12106  1  0  0  0
 13107  1  0  0  0
 13108  1  0  0  0
 13109  1  0  0  0
 14 15  1  0  0  0
 14110  1  0  0  0
 15 18  1  0  0  0
 15 16  1  0  0  0
 15111  1  0  0  0
 16 17  2  0  0  0
 16 25  1  0  0  0
 18 19  1  0  0  0
 18112  1  0  0  0
 18113  1  0  0  0
 19 20  2  0  0  0
 19 21  1  0  0  0
 20 22  1  0  0  0
 20114  1  0  0  0
 21 23  2  0  0  0
 21115  1  0  0  0
 22 24  2  0  0  0
 22116  1  0  0  0
 23 24  1  0  0  0
 23117  1  0  0  0
 24118  1  0  0  0
 25 26  1  0  0  0
 25119  1  0  0  0
 26 29  1  0  0  0
 26 27  1  0  0  0
 26120  1  0  0  0
 27 28  2  0  0  0
 27 31  1  0  0  0
 29 30  1  0  0  0
 29121  1  0  0  0
 29122  1  0  0  0
 30123  1  0  0  0
 31 32  1  0  0  0
 31124  1  0  0  0
 32 35  1  0  0  0
 32 33  1  0  0  0
 32125  1  0  0  0
 33 34  2  0  0  0
 33 39  1  0  0  0
 35 36  1  0  0  0
 35126  1  0  0  0
 35127  1  0  0  0
 36 37  1  0  0  0
 36 38  2  0  0  0
 37128  1  0  0  0
 39 40  1  0  0  0
 39129  1  0  0  0
 40 43  1  0  0  0
 40 41  1  0  0  0
 40130  1  0  0  0
 41 42  2  0  0  0
 41 47  1  0  0  0
 43 44  1  0  0  0
 43131  1  0  0  0
 43132  1  0  0  0
 44 45  1  0  0  0
 44 46  1  0  0  0
 44133  1  0  0  0
 45134  1  0  0  0
 45135  1  0  0  0
 45136  1  0  0  0
 46137  1  0  0  0
 46138  1  0  0  0
 46139  1  0  0  0
 47 48  1  0  0  0
 47140  1  0  0  0
 48 51  1  0  0  0
 48 49  1  0  0  0
 48141  1  0  0  0
 49 50  2  0  0  0
 49 61  1  0  0  0
 51 52  1  0  0  0
 51142  1  0  0  0
 51143  1  0  0  0
 52 53  2  0  0  0
 52 54  1  0  0  0
 53 55  1  0  0  0
 53144  1  0  0  0
 54 57  2  0  0  0
 54 56  1  0  0  0
 55 56  1  0  0  0
 56 58  2  0  0  0
 57 59  1  0  0  0
 57145  1  0  0  0
 58 60  1  0  0  0
 58146  1  0  0  0
 59 60  2  0  0  0
 59147  1  0  0  0
 60148  1  0  0  0
 61 62  1  0  0  0
 61149  1  0  0  0
 62 65  1  0  0  0
 62 63  1  0  0  0
 62150  1  0  0  0
 63 64  2  0  0  0
 63 70  1  0  0  0
 65 66  1  0  0  0
 65151  1  0  0  0
 65152  1  0  0  0
 66 67  1  0  0  0
 66153  1  0  0  0
 66154  1  0  0  0
 67 68  1  0  0  0
 67155  1  0  0  0
 67156  1  0  0  0
 68 69  1  0  0  0
 68157  1  0  0  0
 68158  1  0  0  0
 69159  1  0  0  0
 69160  1  0  0  0
 69161  1  0  0  0
 70 71  1  0  0  0
 70162  1  0  0  0
 71 74  1  0  0  0
 71 72  1  0  0  0
 71163  1  0  0  0
 72 73  2  0  0  0
 72 78  1  0  0  0
 74 75  1  0  0  0
 74164  1  0  0  0
 74165  1  0  0  0
 75 76  1  0  0  0
 75 77  1  0  0  0
 75166  1  0  0  0
 76167  1  0  0  0
 76168  1  0  0  0
 76169  1  0  0  0
 77170  1  0  0  0
 77171  1  0  0  0
 77172  1  0  0  0
 78 79  1  0  0  0
 78173  1  0  0  0
 79 82  1  0  0  0
 79 80  1  0  0  0
 79174  1  0  0  0
 80 81  2  0  0  0
 80 86  1  0  0  0
 82 83  1  0  0  0
 82175  1  0  0  0
 82176  1  0  0  0
 83 84  1  0  0  0
 83 85  1  0  0  0
 83177  1  0  0  0
 84178  1  0  0  0
 84179  1  0  0  0
 84180  1  0  0  0
 85181  1  0  0  0
 85182  1  0  0  0
 85183  1  0  0  0
 86 87  1  0  0  0
 86 92  1  0  0  0
 87 88  1  0  0  0
 87 90  1  0  0  0
 87184  1  0  0  0
 88 89  2  0  0  0
 88 93  1  0  0  0
 90 91  1  0  0  0
 90185  1  0  0  0
 90186  1  0  0  0
 91 92  1  0  0  0
 91187  1  0  0  0
 91188  1  0  0  0
 92189  1  0  0  0
 92190  1  0  0  0
 93191  1  0  0  0
M  CHG  2   1   1  69   1
M  END
> <s_m_source_file>
../2z5s_ligand.sdf

> <i_m_source_file_index>
1

> <s_epik_input>
W0NIM11bQ0gyXVtDQEhdKFtOSDMrXSlDKD1PKVtOSF1bQ0BASF0oW0NASF0oW09IXSlbQ0gzXSlDKD1PKVtOSF1bQ0BASF0oW0NIMl1jMVtjSF1bY0hdW2NIXVtjSF1bY0hdMSlDKD1PKVtOSF1bQ0BASF0oW0NIMl1bT0hdKUMoPU8pW05IXVtDQEBIXShbQ0gyXUMoPU8pW09IXSlDKD1PKVtOSF1bQ0BASF0oW0NIMl1bQ0hdKFtDSDNdKVtDSDNdKUMoPU8pW05IXVtDQEBIXShbQ0gyXWMyW2NIXVtuSF1jKGMyMylbY0hdW2NIXVtjSF1bY0hdMylDKD1PKVtOSF1bQ0BASF0oW0NIMl1bQ0gyXVtDSDJdW0NIMl1bTkgzK10pQyg9TylbTkhdW0NAQEhdKFtDSDJdW0NIXShbQ0gzXSlbQ0gzXSlDKD1PKVtOSF1bQ0BASF0oW0NIMl1bQ0hdKFtDSDNdKVtDSDNdKUMoPU8pTjRbQ0BIXShDKD1PKVtPSF0pW0NIMl1bQ0gyXVtDSDJdNA==

> <s_epik_cmdline>
J2VwaWtfYXBwJywgJy1pbWFlJywgJ2xpZ2FuZF9wcm8ubWFlJywgJy1vbWFlJywgJ2xpZ2FuZF9wcmVwLm1hZScsICctbXMnLCAnMScsICctcGgnLCAnNycsICctcGh0JywgJzAuNScsICctbnQn

> <s_epik_pKa_notes>
Molecule size exceeds maximum supported for generating protonation states

$$$$
