2z5t_ligand
                    3D
 Schrodinger Suite 2020-3.
194197  0  0  1  0            999 V2000
    3.6410   -8.4250   49.5450 N   0  3  0  0  0  0
    4.3840   -7.7990   50.6780 C   0  0  2  0  0  0
    4.8190   -6.3670   50.3580 C   0  0  0  0  0  0
    4.5360   -5.4450   51.1190 O   0  0  0  0  0  0
    5.5840   -8.6680   51.0720 C   0  0  0  0  0  0
    6.4380   -8.1220   52.2200 C   0  0  0  0  0  0
    7.1230   -9.2270   53.0190 C   0  0  0  0  0  0
    6.5240  -10.3200   53.1620 O   0  0  0  0  0  0
    8.2530   -9.0000   53.5120 O   0  0  0  0  0  0
    5.5040   -6.1950   49.2360 N   0  0  0  0  0  0
    5.9360   -4.8800   48.7450 C   0  0  2  0  0  0
    4.8260   -4.2710   47.8610 C   0  0  0  0  0  0
    4.1300   -5.0110   47.1640 O   0  0  0  0  0  0
    7.2820   -5.0430   47.9850 C   0  0  2  0  0  0
    8.3700   -4.5670   48.7980 O   0  0  0  0  0  0
    7.2870   -4.3240   46.6690 C   0  0  0  0  0  0
    4.6430   -2.9460   47.9010 N   0  0  0  0  0  0
    3.5780   -2.3100   47.1100 C   0  0  2  0  0  0
    3.6960   -2.6430   45.6170 C   0  0  0  0  0  0
    2.6900   -2.8620   44.9310 O   0  0  0  0  0  0
    3.5340   -0.7830   47.2820 C   0  0  0  0  0  0
    2.7370   -0.0880   46.1980 C   0  0  0  0  0  0
    1.3480    0.0390   46.3060 C   0  0  0  0  0  0
    3.3660    0.3840   45.0430 C   0  0  0  0  0  0
    0.6030    0.6490   45.2880 C   0  0  0  0  0  0
    2.6390    0.9910   44.0280 C   0  0  0  0  0  0
    1.2480    1.1250   44.1540 C   0  0  0  0  0  0
    4.9330   -2.6370   45.1320 N   0  0  0  0  0  0
    5.2540   -2.9150   43.7430 C   0  0  2  0  0  0
    4.9150   -4.3650   43.3490 C   0  0  0  0  0  0
    4.4550   -4.6050   42.2380 O   0  0  0  0  0  0
    6.7330   -2.5850   43.5000 C   0  0  0  0  0  0
    7.1950   -3.0830   42.2750 O   0  0  0  0  0  0
    5.1390   -5.3170   44.2570 N   0  0  0  0  0  0
    4.7180   -6.7080   44.0530 C   0  0  2  0  0  0
    3.1970   -6.7560   43.9070 C   0  0  0  0  0  0
    2.6790   -7.2810   42.9230 O   0  0  0  0  0  0
    5.1320   -7.6070   45.2290 C   0  0  0  0  0  0
    6.6450   -7.8050   45.3420 C   0  0  0  0  0  0
    7.3810   -7.6150   44.3470 O   0  0  0  0  0  0
    7.0970   -8.1620   46.4560 O   0  0  0  0  0  0
    2.5070   -6.1850   44.8940 N   0  0  0  0  0  0
    1.0430   -6.1130   44.9370 C   0  0  2  0  0  0
    0.4020   -5.4250   43.7260 C   0  0  0  0  0  0
   -0.5420   -5.9600   43.1390 O   0  0  0  0  0  0
    0.5900   -5.4420   46.2420 C   0  0  0  0  0  0
    0.9740   -6.2370   47.4990 C   0  0  0  0  0  0
    1.0580   -5.3540   48.7220 C   0  0  0  0  0  0
    0.0080   -7.3970   47.7350 C   0  0  0  0  0  0
    0.9220   -4.2550   43.3550 N   0  0  0  0  0  0
    0.4150   -3.4980   42.2110 C   0  0  2  0  0  0
    0.4480   -4.3060   40.9090 C   0  0  0  0  0  0
   -0.5000   -4.2520   40.1180 O   0  0  0  0  0  0
    1.1920   -2.1820   42.0410 C   0  0  0  0  0  0
    0.6200   -1.2890   40.9840 C   0  0  0  0  0  0
    1.0650   -1.1420   39.6980 C   0  0  0  0  0  0
   -0.5210   -0.4330   41.1150 C   0  0  0  0  0  0
    0.2780   -0.2360   39.0260 N   0  0  0  0  0  0
   -0.7050    0.2120   39.8700 C   0  0  0  0  0  0
   -1.4030   -0.1410   42.1650 C   0  0  0  0  0  0
   -1.7390    1.1370   39.6470 C   0  0  0  0  0  0
   -2.4360    0.7840   41.9380 C   0  0  0  0  0  0
   -2.5900    1.4040   40.6900 C   0  0  0  0  0  0
    1.5410   -5.0420   40.6940 N   0  0  0  0  0  0
    1.7170   -5.8840   39.5060 C   0  0  2  0  0  0
    0.5900   -6.8990   39.3590 C   0  0  0  0  0  0
    0.2020   -7.2450   38.2410 O   0  0  0  0  0  0
    3.0470   -6.6410   39.5680 C   0  0  0  0  0  0
    4.2740   -5.8030   39.3040 C   0  0  0  0  0  0
    5.5260   -6.6220   39.5730 C   0  0  0  0  0  0
    6.7960   -5.8320   39.2710 C   0  0  0  0  0  0
    8.0070   -6.6530   39.5740 N   0  3  0  0  0  0
    0.0810   -7.3710   40.4970 N   0  0  0  0  0  0
   -0.9870   -8.3670   40.5370 C   0  0  2  0  0  0
   -2.3750   -7.7170   40.5510 C   0  0  0  0  0  0
   -3.2750   -8.1900   41.2500 O   0  0  0  0  0  0
   -0.8260   -9.2870   41.7600 C   0  0  0  0  0  0
    0.4180  -10.1710   41.9230 C   0  0  0  0  0  0
    0.4750  -10.7380   43.3400 C   0  0  0  0  0  0
    0.4450  -11.3010   40.8990 C   0  0  0  0  0  0
   -2.5400   -6.6300   39.7940 N   0  0  0  0  0  0
   -3.8560   -6.0150   39.6060 C   0  0  2  0  0  0
   -4.5380   -6.6000   38.3700 C   0  0  0  0  0  0
   -3.9590   -6.5860   37.2800 O   0  0  0  0  0  0
   -3.7680   -4.4870   39.4930 C   0  0  0  0  0  0
   -4.0150   -3.6410   40.7470 C   0  0  0  0  0  0
   -3.8010   -2.1900   40.4250 C   0  0  0  0  0  0
   -5.4080   -3.8290   41.3010 C   0  0  0  0  0  0
   -5.7730   -7.1130   38.5390 N   0  0  0  0  0  0
   -6.5160   -7.7840   37.4730 C   0  0  2  0  0  0
   -6.6630   -6.9330   36.2160 C   0  0  0  0  0  0
   -6.8280   -5.7170   36.3140 O   0  0  0  0  0  0
   -7.8920   -8.0470   38.1040 C   0  0  0  0  0  0
   -7.9480   -7.1960   39.3380 C   0  0  0  0  0  0
   -6.5370   -7.0810   39.7990 C   0  0  0  0  0  0
   -6.6130   -7.5037   35.0157 O   0  0  0  0  0  0
    3.3495   -9.4496   49.8193 H   0  0  0  0  0  0
    4.2862   -8.4533   48.6545 H   0  0  0  0  0  0
    2.7398   -7.8335   49.3262 H   0  0  0  0  0  0
    3.6761   -7.7490   51.5185 H   0  0  0  0  0  0
    5.2298   -9.6595   51.3904 H   0  0  0  0  0  0
    6.2559   -8.7787   50.2082 H   0  0  0  0  0  0
    7.2206   -7.4641   51.8141 H   0  0  0  0  0  0
    5.8010   -7.5507   52.9113 H   0  0  0  0  0  0
    6.9940  -11.1342   53.7331 H   0  0  0  0  0  0
    5.7470   -7.1027   48.6641 H   0  0  0  0  0  0
    6.0840   -4.2239   49.6155 H   0  0  0  0  0  0
    7.4801   -6.1062   47.7838 H   0  0  0  0  0  0
    8.5267   -4.9817   49.8047 H   0  0  0  0  0  0
    6.4550   -4.6888   46.0487 H   0  0  0  0  0  0
    8.2396   -4.5120   46.1521 H   0  0  0  0  0  0
    7.1701   -3.2438   46.8409 H   0  0  0  0  0  0
    5.2995   -2.3313   48.5343 H   0  0  0  0  0  0
    2.6665   -2.7565   47.5341 H   0  0  0  0  0  0
    3.0698   -0.5361   48.2482 H   0  0  0  0  0  0
    4.5576   -0.3812   47.2537 H   0  0  0  0  0  0
    0.8395   -0.3409   47.1921 H   0  0  0  0  0  0
    4.4452    0.2738   44.9372 H   0  0  0  0  0  0
   -0.4780    0.7495   45.3857 H   0  0  0  0  0  0
    3.1464    1.3617   43.1374 H   0  0  0  0  0  0
    0.6731    1.6032   43.3610 H   0  0  0  0  0  0
    5.7366   -2.4052   45.8465 H   0  0  0  0  0  0
    4.6081   -2.2509   43.1499 H   0  0  0  0  0  0
    6.8694   -1.4935   43.4970 H   0  0  0  0  0  0
    7.3439   -3.0286   44.3000 H   0  0  0  0  0  0
    8.2398   -2.9180   41.9731 H   0  0  0  0  0  0
    5.6582   -5.0297   45.1832 H   0  0  0  0  0  0
    5.2279   -7.0380   43.1359 H   0  0  0  0  0  0
    4.7870   -7.1587   46.1724 H   0  0  0  0  0  0
    4.6777   -8.6015   45.1080 H   0  0  0  0  0  0
    8.1781   -8.3173   46.5868 H   0  0  0  0  0  0
    3.1032   -5.7511   45.7103 H   0  0  0  0  0  0
    0.7393   -7.1694   44.8951 H   0  0  0  0  0  0
    1.0546   -4.4483   46.3238 H   0  0  0  0  0  0
   -0.5049   -5.3358   46.2388 H   0  0  0  0  0  0
    1.9812   -6.6491   47.3383 H   0  0  0  0  0  0
    1.7576   -4.5272   48.5299 H   0  0  0  0  0  0
    1.4156   -5.9457   49.5776 H   0  0  0  0  0  0
    0.0619   -4.9462   48.9489 H   0  0  0  0  0  0
   -0.0374   -8.0256   46.8334 H   0  0  0  0  0  0
   -0.9939   -7.0005   47.9564 H   0  0  0  0  0  0
    0.3599   -8.0000   48.5851 H   0  0  0  0  0  0
    1.7632   -3.8624   43.9451 H   0  0  0  0  0  0
   -0.6349   -3.2995   42.4725 H   0  0  0  0  0  0
    1.1794   -1.6238   42.9887 H   0  0  0  0  0  0
    2.2321   -2.4039   41.7600 H   0  0  0  0  0  0
    1.9187   -1.6665   39.2689 H   0  0  0  0  0  0
   -1.2897   -0.6214   43.1368 H   0  0  0  0  0  0
   -1.8608    1.6251   38.6800 H   0  0  0  0  0  0
   -3.1286    1.0233   42.7449 H   0  0  0  0  0  0
   -3.4041    2.1142   40.5449 H   0  0  0  0  0  0
    2.3309   -4.9971   41.4582 H   0  0  0  0  0  0
    1.6964   -5.1751   38.6652 H   0  0  0  0  0  0
    3.1743   -7.0771   40.5698 H   0  0  0  0  0  0
    3.0474   -7.4438   38.8160 H   0  0  0  0  0  0
    4.2740   -5.4734   38.2545 H   0  0  0  0  0  0
    4.2664   -4.9234   39.9645 H   0  0  0  0  0  0
    5.5486   -6.9203   40.6315 H   0  0  0  0  0  0
    5.5195   -7.5208   38.9388 H   0  0  0  0  0  0
    6.8101   -5.5533   38.2070 H   0  0  0  0  0  0
    6.8174   -4.9220   39.8886 H   0  0  0  0  0  0
    8.9116   -6.0684   39.3507 H   0  0  0  0  0  0
    7.9968   -7.5632   38.9564 H   0  0  0  0  0  0
    8.0041   -6.9319   40.6381 H   0  0  0  0  0  0
    0.5010   -6.9770   41.4342 H   0  0  0  0  0  0
   -0.8629   -8.9338   39.6025 H   0  0  0  0  0  0
   -0.8323   -8.6810   42.6780 H   0  0  0  0  0  0
   -1.6577  -10.0063   41.7898 H   0  0  0  0  0  0
    1.3071   -9.5478   41.7467 H   0  0  0  0  0  0
    0.4548   -9.9122   44.0664 H   0  0  0  0  0  0
    1.4027  -11.3153   43.4669 H   0  0  0  0  0  0
   -0.3914  -11.3948   43.5072 H   0  0  0  0  0  0
    0.4034  -10.8776   39.8846 H   0  0  0  0  0  0
   -0.4215  -11.9599   41.0571 H   0  0  0  0  0  0
    1.3726  -11.8804   41.0168 H   0  0  0  0  0  0
   -1.6553   -6.1962   39.3051 H   0  0  0  0  0  0
   -4.4209   -6.2716   40.5143 H   0  0  0  0  0  0
   -2.7598   -4.2016   39.1582 H   0  0  0  0  0  0
   -4.5110   -4.1298   38.7648 H   0  0  0  0  0  0
   -3.3053   -3.9585   41.5252 H   0  0  0  0  0  0
   -2.7874   -2.0496   40.0213 H   0  0  0  0  0  0
   -3.9177   -1.5904   41.3398 H   0  0  0  0  0  0
   -4.5412   -1.8672   39.6781 H   0  0  0  0  0  0
   -5.5681   -4.8912   41.5380 H   0  0  0  0  0  0
   -6.1468   -3.5047   40.5533 H   0  0  0  0  0  0
   -5.5233   -3.2279   42.2150 H   0  0  0  0  0  0
   -5.9607   -8.6804   37.1597 H   0  0  0  0  0  0
   -8.6817   -7.7672   37.3912 H   0  0  0  0  0  0
   -7.9836   -9.1147   38.3522 H   0  0  0  0  0  0
   -8.3720   -6.2127   39.0863 H   0  0  0  0  0  0
   -8.5808   -7.6858   40.0928 H   0  0  0  0  0  0
   -6.2301   -7.9241   40.4354 H   0  0  0  0  0  0
   -6.3394   -6.1346   40.3237 H   0  0  0  0  0  0
   -6.7191   -6.8891   34.1096 H   0  0  0  0  0  0
  1  2  1  0  0  0
  1 97  1  0  0  0
  1 98  1  0  0  0
  1 99  1  0  0  0
  2  5  1  0  0  0
  2  3  1  0  0  0
  2100  1  0  0  0
  3  4  2  0  0  0
  3 10  1  0  0  0
  5  6  1  0  0  0
  5101  1  0  0  0
  5102  1  0  0  0
  6  7  1  0  0  0
  6103  1  0  0  0
  6104  1  0  0  0
  7  9  2  0  0  0
  7  8  1  0  0  0
  8105  1  0  0  0
 10 11  1  0  0  0
 10106  1  0  0  0
 11 14  1  0  0  0
 11 12  1  0  0  0
 11107  1  0  0  0
 12 13  2  0  0  0
 12 17  1  0  0  0
 14 16  1  0  0  0
 14 15  1  0  0  0
 14108  1  0  0  0
 15109  1  0  0  0
 16110  1  0  0  0
 16111  1  0  0  0
 16112  1  0  0  0
 17 18  1  0  0  0
 17113  1  0  0  0
 18 21  1  0  0  0
 18 19  1  0  0  0
 18114  1  0  0  0
 19 20  2  0  0  0
 19 28  1  0  0  0
 21 22  1  0  0  0
 21115  1  0  0  0
 21116  1  0  0  0
 22 23  2  0  0  0
 22 24  1  0  0  0
 23 25  1  0  0  0
 23117  1  0  0  0
 24 26  2  0  0  0
 24118  1  0  0  0
 25 27  2  0  0  0
 25119  1  0  0  0
 26 27  1  0  0  0
 26120  1  0  0  0
 27121  1  0  0  0
 28 29  1  0  0  0
 28122  1  0  0  0
 29 32  1  0  0  0
 29 30  1  0  0  0
 29123  1  0  0  0
 30 31  2  0  0  0
 30 34  1  0  0  0
 32 33  1  0  0  0
 32124  1  0  0  0
 32125  1  0  0  0
 33126  1  0  0  0
 34 35  1  0  0  0
 34127  1  0  0  0
 35 38  1  0  0  0
 35 36  1  0  0  0
 35128  1  0  0  0
 36 37  2  0  0  0
 36 42  1  0  0  0
 38 39  1  0  0  0
 38129  1  0  0  0
 38130  1  0  0  0
 39 40  2  0  0  0
 39 41  1  0  0  0
 41131  1  0  0  0
 42 43  1  0  0  0
 42132  1  0  0  0
 43 46  1  0  0  0
 43 44  1  0  0  0
 43133  1  0  0  0
 44 45  2  0  0  0
 44 50  1  0  0  0
 46 47  1  0  0  0
 46134  1  0  0  0
 46135  1  0  0  0
 47 48  1  0  0  0
 47 49  1  0  0  0
 47136  1  0  0  0
 48137  1  0  0  0
 48138  1  0  0  0
 48139  1  0  0  0
 49140  1  0  0  0
 49141  1  0  0  0
 49142  1  0  0  0
 50 51  1  0  0  0
 50143  1  0  0  0
 51 54  1  0  0  0
 51 52  1  0  0  0
 51144  1  0  0  0
 52 53  2  0  0  0
 52 64  1  0  0  0
 54 55  1  0  0  0
 54145  1  0  0  0
 54146  1  0  0  0
 55 56  2  0  0  0
 55 57  1  0  0  0
 56 58  1  0  0  0
 56147  1  0  0  0
 57 60  2  0  0  0
 57 59  1  0  0  0
 58 59  1  0  0  0
 59 61  2  0  0  0
 60 62  1  0  0  0
 60148  1  0  0  0
 61 63  1  0  0  0
 61149  1  0  0  0
 62 63  2  0  0  0
 62150  1  0  0  0
 63151  1  0  0  0
 64 65  1  0  0  0
 64152  1  0  0  0
 65 68  1  0  0  0
 65 66  1  0  0  0
 65153  1  0  0  0
 66 67  2  0  0  0
 66 73  1  0  0  0
 68 69  1  0  0  0
 68154  1  0  0  0
 68155  1  0  0  0
 69 70  1  0  0  0
 69156  1  0  0  0
 69157  1  0  0  0
 70 71  1  0  0  0
 70158  1  0  0  0
 70159  1  0  0  0
 71 72  1  0  0  0
 71160  1  0  0  0
 71161  1  0  0  0
 72162  1  0  0  0
 72163  1  0  0  0
 72164  1  0  0  0
 73 74  1  0  0  0
 73165  1  0  0  0
 74 77  1  0  0  0
 74 75  1  0  0  0
 74166  1  0  0  0
 75 76  2  0  0  0
 75 81  1  0  0  0
 77 78  1  0  0  0
 77167  1  0  0  0
 77168  1  0  0  0
 78 79  1  0  0  0
 78 80  1  0  0  0
 78169  1  0  0  0
 79170  1  0  0  0
 79171  1  0  0  0
 79172  1  0  0  0
 80173  1  0  0  0
 80174  1  0  0  0
 80175  1  0  0  0
 81 82  1  0  0  0
 81176  1  0  0  0
 82 85  1  0  0  0
 82 83  1  0  0  0
 82177  1  0  0  0
 83 84  2  0  0  0
 83 89  1  0  0  0
 85 86  1  0  0  0
 85178  1  0  0  0
 85179  1  0  0  0
 86 87  1  0  0  0
 86 88  1  0  0  0
 86180  1  0  0  0
 87181  1  0  0  0
 87182  1  0  0  0
 87183  1  0  0  0
 88184  1  0  0  0
 88185  1  0  0  0
 88186  1  0  0  0
 89 90  1  0  0  0
 89 95  1  0  0  0
 90 91  1  0  0  0
 90 93  1  0  0  0
 90187  1  0  0  0
 91 92  2  0  0  0
 91 96  1  0  0  0
 93 94  1  0  0  0
 93188  1  0  0  0
 93189  1  0  0  0
 94 95  1  0  0  0
 94190  1  0  0  0
 94191  1  0  0  0
 95192  1  0  0  0
 95193  1  0  0  0
 96194  1  0  0  0
M  CHG  2   1   1  72   1
M  END
> <s_m_source_file>
../2z5t_ligand.sdf

> <i_m_source_file_index>
1

> <s_epik_input>
W09IXUMoPU8pW0NIMl1bQ0gyXVtDQEhdKFtOSDMrXSlDKD1PKVtOSF1bQ0BASF0oW0NASF0oW09IXSlbQ0gzXSlDKD1PKVtOSF1bQ0BASF0oW0NIMl1jMVtjSF1bY0hdW2NIXVtjSF1bY0hdMSlDKD1PKVtOSF1bQ0BASF0oW0NIMl1bT0hdKUMoPU8pW05IXVtDQEBIXShbQ0gyXUMoPU8pW09IXSlDKD1PKVtOSF1bQ0BASF0oW0NIMl1bQ0hdKFtDSDNdKVtDSDNdKUMoPU8pW05IXVtDQEBIXShbQ0gyXWMyW2NIXVtuSF1jKGMyMylbY0hdW2NIXVtjSF1bY0hdMylDKD1PKVtOSF1bQ0BASF0oW0NIMl1bQ0gyXVtDSDJdW0NIMl1bTkgzK10pQyg9TylbTkhdW0NAQEhdKFtDSDJdW0NIXShbQ0gzXSlbQ0gzXSlDKD1PKVtOSF1bQ0BASF0oW0NIMl1bQ0hdKFtDSDNdKVtDSDNdKUMoPU8pTjRbQ0BIXShDKD1PKVtPSF0pW0NIMl1bQ0gyXVtDSDJdNA==

> <s_epik_cmdline>
J2VwaWtfYXBwJywgJy1pbWFlJywgJ2xpZ2FuZF9wcm8ubWFlJywgJy1vbWFlJywgJ2xpZ2FuZF9wcmVwLm1hZScsICctbXMnLCAnMScsICctcGgnLCAnNycsICctcGh0JywgJzAuNScsICctbnQn

> <s_epik_pKa_notes>
Molecule size exceeds maximum supported for generating protonation states

$$$$
