2z60_ligand
                    3D
 Schrodinger Suite 2020-3.
 48 51  0  0  1  0            999 V2000
   16.5060   -9.2590    8.3320 N   0  0  0  0  0  0
   17.2470   -8.4830    7.4880 C   0  0  0  0  0  0
   18.1980   -7.5600    7.9830 C   0  0  0  0  0  0
   18.3460   -7.4790    9.3900 C   0  0  0  0  0  0
   17.5490   -8.3090   10.2520 C   0  0  0  0  0  0
   16.6440   -9.1800    9.6830 C   0  0  0  0  0  0
   17.4640   -8.4560   11.6670 C   0  0  0  0  0  0
   16.4730   -9.4440   11.7990 C   0  0  0  0  0  0
   15.9650   -9.8960   10.6090 N   0  3  0  0  0  0
   18.2100   -7.7730   12.7840 C   0  0  0  0  0  0
   18.3520   -6.3410   12.8870 C   0  0  0  0  0  0
   19.0910   -5.7890   14.0020 C   0  0  0  0  0  0
   19.6640   -6.6250   14.9760 C   0  0  0  0  0  0
   19.5160   -8.0170   14.8690 C   0  0  0  0  0  0
   18.8000   -8.5850   13.7850 C   0  0  0  0  0  0
   17.7490   -5.5430   11.8760 O   0  0  0  0  0  0
   19.0080   -6.7250    7.0540 C   0  0  0  0  0  0
   19.2180   -5.3330    7.2550 C   0  0  0  0  0  0
   19.9670   -4.5750    6.3890 N   0  0  0  0  0  0
   20.5360   -5.1640    5.2910 C   0  0  0  0  0  0
   20.3730   -6.5440    5.0260 C   0  0  0  0  0  0
   19.6030   -7.3100    5.9250 C   0  0  0  0  0  0
   21.0130   -7.1580    3.8420 C   0  0  0  0  0  0
   22.2250   -7.4060    3.8850 O   0  0  0  0  0  0
   20.2490   -7.4680    2.6990 N   0  0  0  0  0  0
   18.7740   -7.4760    2.6120 C   0  0  0  0  0  0
   21.0070   -7.9270    1.5160 C   0  0  0  0  0  0
   17.6720   -4.1120   12.0080 C   0  0  0  0  0  0
   17.1031   -8.5764    6.4116 H   0  0  0  0  0  0
   19.0672   -6.7844    9.8206 H   0  0  0  0  0  0
   16.1693   -9.7883   12.7986 H   0  0  0  0  0  0
   19.2051   -4.7084   14.0879 H   0  0  0  0  0  0
   20.2198   -6.1951   15.8093 H   0  0  0  0  0  0
   19.9554   -8.6668   15.6259 H   0  0  0  0  0  0
   18.7012   -9.6686   13.7200 H   0  0  0  0  0  0
   18.7699   -4.8522    8.1246 H   0  0  0  0  0  0
   21.1274   -4.5560    4.6064 H   0  0  0  0  0  0
   19.4672   -8.3756    5.7401 H   0  0  0  0  0  0
   18.3489   -7.1117    3.5589 H   0  0  0  0  0  0
   18.4234   -8.5014    2.4231 H   0  0  0  0  0  0
   18.4517   -6.8209    1.7892 H   0  0  0  0  0  0
   22.0852   -7.8662    1.7252 H   0  0  0  0  0  0
   20.7641   -7.2879    0.6543 H   0  0  0  0  0  0
   20.7358   -8.9684    1.2882 H   0  0  0  0  0  0
   17.1726   -3.6886   11.1241 H   0  0  0  0  0  0
   18.6871   -3.6962   12.0900 H   0  0  0  0  0  0
   17.0975   -3.8575   12.9108 H   0  0  0  0  0  0
   15.2110  -10.6313   10.2914 H   0  0  0  0  0  0
  1  2  2  0  0  0
  1  6  1  0  0  0
  2  3  1  0  0  0
  2 29  1  0  0  0
  3  4  2  0  0  0
  3 17  1  0  0  0
  4  5  1  0  0  0
  4 30  1  0  0  0
  5  6  2  0  0  0
  5  7  1  0  0  0
  6  9  1  0  0  0
  7  8  2  0  0  0
  7 10  1  0  0  0
  8  9  1  0  0  0
  8 31  1  0  0  0
  9 48  1  0  0  0
 10 11  2  0  0  0
 10 15  1  0  0  0
 11 12  1  0  0  0
 11 16  1  0  0  0
 12 13  2  0  0  0
 12 32  1  0  0  0
 13 14  1  0  0  0
 13 33  1  0  0  0
 14 15  2  0  0  0
 14 34  1  0  0  0
 15 35  1  0  0  0
 16 28  1  0  0  0
 17 18  2  0  0  0
 17 22  1  0  0  0
 18 19  1  0  0  0
 18 36  1  0  0  0
 19 20  2  0  0  0
 20 21  1  0  0  0
 20 37  1  0  0  0
 21 22  2  0  0  0
 21 23  1  0  0  0
 22 38  1  0  0  0
 23 24  2  0  0  0
 23 25  1  0  0  0
 25 26  1  0  0  0
 25 27  1  0  0  0
 26 39  1  0  0  0
 26 40  1  0  0  0
 26 41  1  0  0  0
 27 42  1  0  0  0
 27 43  1  0  0  0
 27 44  1  0  0  0
 28 45  1  0  0  0
 28 46  1  0  0  0
 28 47  1  0  0  0
M  CHG  1   9   1
M  END
> <s_m_source_file>
../2z60_ligand.sdf

> <i_m_source_file_index>
1

> <s_epik_input>
W0NIM11OKFtDSDNdKUMoPU8pYyhbY0hdMSlbY0hdbltjSF1jMS1jKFtjSF0yKVtjSF1uYyhjMjMpW25IXVtjSF1jMy1jNGMoT1tDSDNdKVtjSF1bY0hdW2NIXVtjSF00

> <s_epik_cmdline>
J2VwaWtfYXBwJywgJy1pbWFlJywgJ2xpZ2FuZF9wcm8ubWFlJywgJy1vbWFlJywgJ2xpZ2FuZF9wcmVwLm1hZScsICctbXMnLCAnMScsICctcGgnLCAnNycsICctcGh0JywgJzAuNScsICctbnQn

> <r_epik_Ionization_Penalty>
  0.0114

> <r_epik_Ionization_Penalty_Charging>
  0.0000

> <r_epik_Ionization_Penalty_Neutral>
  0.0114

> <r_epik_State_Penalty>
  0.0087

> <r_epik_Charging_Adjusted_Penalty>
0.00865614732768184

> <i_epik_Tot_Q>
1

> <i_epik_Tot_abs_Q>
1

$$$$
