2z6w_ligand
                    3D
 Schrodinger Suite 2020-3.
196196  0  0  1  0            999 V2000
   -2.7700    4.7820    8.9110 N   0  0  0  0  0  0
   -1.3000    4.5760    9.0020 C   0  0  0  0  0  0
   -3.3290    6.0730    9.2740 C   0  0  2  0  0  0
   -2.8880    7.1720    8.2880 C   0  0  0  0  0  0
   -2.0990    6.9530    7.3650 O   0  0  0  0  0  0
   -3.0510    6.4890   10.7450 C   0  0  2  0  0  0
   -1.6840    6.8800   10.8160 O   0  0  0  0  0  0
   -3.4180    5.3960   11.7720 C   0  0  2  0  0  0
   -4.8870    4.9750   11.6330 C   0  0  0  0  0  0
   -3.1310    5.8660   13.2200 C   0  0  0  0  0  0
   -4.0050    6.9910   13.6970 C   0  0  0  0  0  0
   -3.4370    8.2200   14.0980 C   0  0  0  0  0  0
   -4.2750    9.3760   14.5900 C   0  0  0  0  0  0
   -3.4940    8.3650    8.5110 N   0  0  0  0  0  0
   -3.4620    9.4900    7.5710 C   0  0  2  0  0  0
   -2.9360   10.7270    8.3010 C   0  0  0  0  0  0
   -3.7040   11.6280    8.6100 O   0  0  0  0  0  0
   -4.8640    9.7250    6.9870 C   0  0  0  0  0  0
   -5.3680    8.5370    6.2270 C   0  0  0  0  0  0
   -1.6210   10.7910    8.5970 N   0  0  0  0  0  0
   -1.0840   11.9980    9.2380 C   0  0  0  0  0  0
   -0.0830   11.6480   10.3120 C   0  0  0  0  0  0
    1.1190   11.9600   10.1530 O   0  0  0  0  0  0
   -0.6580    9.7780    8.2000 C   0  0  0  0  0  0
   -0.4800   10.9330   11.3740 N   0  0  0  0  0  0
   -1.8880   10.5130   11.5420 C   0  0  0  0  0  0
    0.5620   10.4750   12.3310 C   0  0  1  0  0  0
    0.4420   10.7880   13.8390 C   0  0  0  0  0  0
    0.4850   12.2270   14.2920 C   0  0  0  0  0  0
    0.4620   12.2600   15.8190 C   0  0  0  0  0  0
    1.7410   12.9230   13.8290 C   0  0  0  0  0  0
    0.6160    8.9800   12.2320 C   0  0  0  0  0  0
   -0.2430    8.2650   12.7700 O   0  0  0  0  0  0
    1.5930    8.4820   11.4910 N   0  0  0  0  0  0
    1.7540    7.0590   11.2950 C   0  0  2  0  0  0
    2.2380    6.4500   12.6110 C   0  0  0  0  0  0
    3.2100    6.9730   13.1730 O   0  0  0  0  0  0
    2.7560    6.7810   10.1370 C   0  0  0  0  0  0
    3.0320    5.2700    9.9800 C   0  0  0  0  0  0
    2.2280    7.3690    8.8250 C   0  0  0  0  0  0
    1.6000    5.4030   13.1330 N   0  0  0  0  0  0
    0.5250    4.6940   12.4490 C   0  0  0  0  0  0
    2.0040    4.9160   14.4810 C   0  0  1  0  0  0
    0.7980    4.8390   15.4100 C   0  0  0  0  0  0
   -0.0320    6.1000   15.4950 C   0  0  0  0  0  0
   -1.2590    5.8920   16.3610 C   0  0  0  0  0  0
    0.7360    7.3300   15.9410 C   0  0  0  0  0  0
    2.7300    3.5790   14.3490 C   0  0  0  0  0  0
    2.7860    2.9480   13.2700 O   0  0  0  0  0  0
    3.3170    3.1340   15.4610 N   0  0  0  0  0  0
    4.0520    1.8780   15.4860 C   0  0  2  0  0  0
    3.1390    0.6770   15.1700 C   0  0  0  0  0  0
    1.9540    0.6570   15.5010 O   0  0  0  0  0  0
    4.6820    1.7110   16.8280 C   0  0  0  0  0  0
    3.7360   -0.3590   14.6110 N   0  0  0  0  0  0
    3.0570   -1.6490   14.3710 C   0  0  2  0  0  0
    3.9780   -2.8100   14.6810 C   0  0  0  0  0  0
    2.6400   -1.7390   12.9110 C   0  0  0  0  0  0
    3.4230   -1.3710   12.0430 O   0  0  0  0  0  0
    1.4400   -2.2830   12.6210 N   0  0  0  0  0  0
    0.5510   -2.8110   13.6690 C   0  0  0  0  0  0
    0.9910   -2.4360   11.1980 C   0  0  1  0  0  0
    0.8350   -3.8950   10.7760 C   0  0  0  0  0  0
    2.1860   -4.6700   10.7350 C   0  0  0  0  0  0
    1.9230   -6.1140   10.3770 C   0  0  0  0  0  0
    3.1710   -4.1040    9.7460 C   0  0  0  0  0  0
   -0.3300   -1.6690   11.0500 C   0  0  0  0  0  0
   -1.4070   -2.2990   11.0060 O   0  0  0  0  0  0
   -0.3080   -0.3300   11.0140 N   0  0  0  0  0  0
    0.9510    0.4330   11.1910 C   0  0  0  0  0  0
   -1.5540    0.4290   10.9530 C   0  0  1  0  0  0
   -1.7140    1.3570   12.1740 C   0  0  0  0  0  0
   -1.6570    0.6100   13.5040 C   0  0  0  0  0  0
   -1.5010    1.5980   14.6460 C   0  0  0  0  0  0
   -2.8930   -0.2440   13.6960 C   0  0  0  0  0  0
   -1.6750    1.1590    9.6080 C   0  0  0  0  0  0
   -0.6990    1.2520    8.8580 O   0  0  0  0  0  0
   -2.8690    1.6970    9.2990 N   0  0  0  0  0  0
   -4.1280    1.4540   10.0360 C   0  0  0  0  0  0
   -3.0220    2.4730    8.0540 C   0  0  1  0  0  0
   -3.8600    1.7620    6.9730 C   0  0  0  0  0  0
   -3.5990    2.4960    5.6480 C   0  0  0  0  0  0
   -3.4770    0.3020    6.8310 C   0  0  0  0  0  0
   -3.6180    3.8440    8.3800 C   0  0  0  0  0  0
   -4.8340    4.0770    8.2150 O   0  0  0  0  0  0
   -0.8336    5.4603    9.4608 H   0  0  0  0  0  0
   -0.8877    4.4258    7.9933 H   0  0  0  0  0  0
   -1.0915    3.6896    9.6191 H   0  0  0  0  0  0
   -4.4077    5.8839    9.1710 H   0  0  0  0  0  0
   -3.6256    7.3788   11.0419 H   0  0  0  0  0  0
   -1.2969    7.6526   10.1354 H   0  0  0  0  0  0
   -2.7915    4.5182   11.5552 H   0  0  0  0  0  0
   -5.0775    4.6438   10.6015 H   0  0  0  0  0  0
   -5.5374    5.8300   11.8696 H   0  0  0  0  0  0
   -5.0992    4.1494   12.3283 H   0  0  0  0  0  0
   -3.2835    5.0270   13.9148 H   0  0  0  0  0  0
   -2.0911    6.2174   13.2922 H   0  0  0  0  0  0
   -5.0955    6.8515   13.7324 H   0  0  0  0  0  0
   -2.3468    8.3610   14.0583 H   0  0  0  0  0  0
   -3.6195   10.2221   14.8439 H   0  0  0  0  0  0
   -4.8375    9.0670   15.4833 H   0  0  0  0  0  0
   -4.9783    9.6809   13.8011 H   0  0  0  0  0  0
   -4.0335    8.4604    9.4648 H   0  0  0  0  0  0
   -2.7767    9.2281    6.7514 H   0  0  0  0  0  0
   -5.5712    9.9328    7.8035 H   0  0  0  0  0  0
   -4.8357   10.5830    6.2993 H   0  0  0  0  0  0
   -6.3708    8.7539    5.8304 H   0  0  0  0  0  0
   -5.4195    7.6671    6.8983 H   0  0  0  0  0  0
   -4.6839    8.3174    5.3941 H   0  0  0  0  0  0
   -0.5839   12.6225    8.4831 H   0  0  0  0  0  0
   -1.9064   12.5661    9.6973 H   0  0  0  0  0  0
   -1.1861    8.9321    7.7356 H   0  0  0  0  0  0
   -0.1097    9.4260    9.0863 H   0  0  0  0  0  0
    0.0507   10.2090    7.4776 H   0  0  0  0  0  0
   -2.4998   10.9524   10.7404 H   0  0  0  0  0  0
   -2.2596   10.8583   12.5180 H   0  0  0  0  0  0
   -1.9518    9.4160   11.4926 H   0  0  0  0  0  0
    1.4334   11.0444   11.9755 H   0  0  0  0  0  0
   -0.5185   10.4079   14.2171 H   0  0  0  0  0  0
    1.2672   10.3029   14.3810 H   0  0  0  0  0  0
   -0.3793   12.7427   13.8482 H   0  0  0  0  0  0
   -0.4463   11.7575   16.1829 H   0  0  0  0  0  0
    0.4661   13.3047   16.1633 H   0  0  0  0  0  0
    1.3497   11.7415   16.2103 H   0  0  0  0  0  0
    1.7818   12.9129   12.7298 H   0  0  0  0  0  0
    2.6202   12.4001   14.2334 H   0  0  0  0  0  0
    1.7366   13.9634   14.1863 H   0  0  0  0  0  0
    2.2941    9.1852   11.0177 H   0  0  0  0  0  0
    0.7642    6.6586   11.0306 H   0  0  0  0  0  0
    3.7112    7.2723   10.3739 H   0  0  0  0  0  0
    3.4099    4.8656   10.9306 H   0  0  0  0  0  0
    3.7826    5.1144    9.1911 H   0  0  0  0  0  0
    2.1001    4.7535    9.7065 H   0  0  0  0  0  0
    2.0374    8.4444    8.9557 H   0  0  0  0  0  0
    1.2925    6.8620    8.5462 H   0  0  0  0  0  0
    2.9750    7.2229    8.0309 H   0  0  0  0  0  0
    0.3391    5.1643   11.4721 H   0  0  0  0  0  0
   -0.3899    4.7396   13.0580 H   0  0  0  0  0  0
    0.8149    3.6433   12.3009 H   0  0  0  0  0  0
    2.7014    5.6473   14.9157 H   0  0  0  0  0  0
    0.1216    4.0420   15.0675 H   0  0  0  0  0  0
    1.1367    4.6180   16.4330 H   0  0  0  0  0  0
   -0.3450    6.3016   14.4599 H   0  0  0  0  0  0
   -1.8002    4.9967   16.0211 H   0  0  0  0  0  0
   -1.9167    6.7701   16.2819 H   0  0  0  0  0  0
   -0.9502    5.7583   17.4083 H   0  0  0  0  0  0
    1.6206    7.4621   15.3006 H   0  0  0  0  0  0
    1.0554    7.2039   16.9860 H   0  0  0  0  0  0
    0.0889    8.2158   15.8597 H   0  0  0  0  0  0
    3.2353    3.7417   16.3742 H   0  0  0  0  0  0
    4.8339    1.9640   14.7171 H   0  0  0  0  0  0
    5.3297    2.5747   17.0390 H   0  0  0  0  0  0
    5.2837    0.7902   16.8386 H   0  0  0  0  0  0
    3.8971    1.6450   17.5958 H   0  0  0  0  0  0
    4.7887   -0.2290   14.3196 H   0  0  0  0  0  0
    2.1854   -1.6777   15.0415 H   0  0  0  0  0  0
    4.2894   -2.7597   15.7348 H   0  0  0  0  0  0
    4.8656   -2.7569   14.0335 H   0  0  0  0  0  0
    3.4481   -3.7568   14.4999 H   0  0  0  0  0  0
    1.0015   -2.6319   14.6564 H   0  0  0  0  0  0
    0.4108   -3.8919   13.5206 H   0  0  0  0  0  0
   -0.4234   -2.3037   13.6130 H   0  0  0  0  0  0
    1.7760   -2.0244   10.5466 H   0  0  0  0  0  0
    0.1758   -4.4140   11.4875 H   0  0  0  0  0  0
    0.3954   -3.9404    9.7687 H   0  0  0  0  0  0
    2.6621   -4.5920   11.7236 H   0  0  0  0  0  0
    1.2044   -6.5436   11.0905 H   0  0  0  0  0  0
    2.8653   -6.6799   10.4200 H   0  0  0  0  0  0
    1.5078   -6.1698    9.3599 H   0  0  0  0  0  0
    3.3741   -3.0514    9.9923 H   0  0  0  0  0  0
    2.7503   -4.1686    8.7317 H   0  0  0  0  0  0
    4.1078   -4.6787    9.7918 H   0  0  0  0  0  0
    1.8014   -0.2642   11.2191 H   0  0  0  0  0  0
    0.9082    0.9974   12.1342 H   0  0  0  0  0  0
    1.0774    1.1318   10.3510 H   0  0  0  0  0  0
   -2.3579   -0.3200   11.0055 H   0  0  0  0  0  0
   -0.9059    2.1033   12.1757 H   0  0  0  0  0  0
   -2.6860    1.8692   12.1204 H   0  0  0  0  0  0
   -0.7875   -0.0637   13.5009 H   0  0  0  0  0  0
   -0.5984    2.2056   14.4845 H   0  0  0  0  0  0
   -1.4089    1.0497   15.5952 H   0  0  0  0  0  0
   -2.3827    2.2546   14.6858 H   0  0  0  0  0  0
   -2.9844   -0.9505   12.8578 H   0  0  0  0  0  0
   -3.7830    0.4015   13.7301 H   0  0  0  0  0  0
   -2.8093   -0.8033   14.6395 H   0  0  0  0  0  0
   -3.9145    0.8715   10.9444 H   0  0  0  0  0  0
   -4.8250    0.8931    9.3961 H   0  0  0  0  0  0
   -4.5808    2.4167   10.3157 H   0  0  0  0  0  0
   -1.9983    2.5657    7.6624 H   0  0  0  0  0  0
   -4.9244    1.7728    7.2502 H   0  0  0  0  0  0
   -3.8778    3.5548    5.7543 H   0  0  0  0  0  0
   -4.2006    2.0367    4.8498 H   0  0  0  0  0  0
   -2.5318    2.4218    5.3918 H   0  0  0  0  0  0
   -3.6649   -0.2204    7.7806 H   0  0  0  0  0  0
   -2.4097    0.2261    6.5757 H   0  0  0  0  0  0
   -4.0785   -0.1590    6.0337 H   0  0  0  0  0  0
  1  2  1  0  0  0
  1  3  1  0  0  0
  1 84  1  0  0  0
  2 86  1  0  0  0
  2 87  1  0  0  0
  2 88  1  0  0  0
  3  4  1  0  0  0
  3  6  1  0  0  0
  3 89  1  0  0  0
  4  5  2  0  0  0
  4 14  1  0  0  0
  6  7  1  0  0  0
  6  8  1  0  0  0
  6 90  1  0  0  0
  7 91  1  0  0  0
  8  9  1  0  0  0
  8 10  1  0  0  0
  8 92  1  0  0  0
  9 93  1  0  0  0
  9 94  1  0  0  0
  9 95  1  0  0  0
 10 11  1  0  0  0
 10 96  1  0  0  0
 10 97  1  0  0  0
 11 12  2  0  0  0
 11 98  1  0  0  0
 12 13  1  0  0  0
 12 99  1  0  0  0
 13100  1  0  0  0
 13101  1  0  0  0
 13102  1  0  0  0
 14 15  1  0  0  0
 14103  1  0  0  0
 15 16  1  0  0  0
 15 18  1  0  0  0
 15104  1  0  0  0
 16 17  2  0  0  0
 16 20  1  0  0  0
 18 19  1  0  0  0
 18105  1  0  0  0
 18106  1  0  0  0
 19107  1  0  0  0
 19108  1  0  0  0
 19109  1  0  0  0
 20 21  1  0  0  0
 20 24  1  0  0  0
 21 22  1  0  0  0
 21110  1  0  0  0
 21111  1  0  0  0
 22 23  2  0  0  0
 22 25  1  0  0  0
 24112  1  0  0  0
 24113  1  0  0  0
 24114  1  0  0  0
 25 26  1  0  0  0
 25 27  1  0  0  0
 26115  1  0  0  0
 26116  1  0  0  0
 26117  1  0  0  0
 27 28  1  0  0  0
 27 32  1  0  0  0
 27118  1  0  0  0
 28 29  1  0  0  0
 28119  1  0  0  0
 28120  1  0  0  0
 29 30  1  0  0  0
 29 31  1  0  0  0
 29121  1  0  0  0
 30122  1  0  0  0
 30123  1  0  0  0
 30124  1  0  0  0
 31125  1  0  0  0
 31126  1  0  0  0
 31127  1  0  0  0
 32 33  2  0  0  0
 32 34  1  0  0  0
 34 35  1  0  0  0
 34128  1  0  0  0
 35 36  1  0  0  0
 35 38  1  0  0  0
 35129  1  0  0  0
 36 37  2  0  0  0
 36 41  1  0  0  0
 38 39  1  0  0  0
 38 40  1  0  0  0
 38130  1  0  0  0
 39131  1  0  0  0
 39132  1  0  0  0
 39133  1  0  0  0
 40134  1  0  0  0
 40135  1  0  0  0
 40136  1  0  0  0
 41 42  1  0  0  0
 41 43  1  0  0  0
 42137  1  0  0  0
 42138  1  0  0  0
 42139  1  0  0  0
 43 44  1  0  0  0
 43 48  1  0  0  0
 43140  1  0  0  0
 44 45  1  0  0  0
 44141  1  0  0  0
 44142  1  0  0  0
 45 46  1  0  0  0
 45 47  1  0  0  0
 45143  1  0  0  0
 46144  1  0  0  0
 46145  1  0  0  0
 46146  1  0  0  0
 47147  1  0  0  0
 47148  1  0  0  0
 47149  1  0  0  0
 48 49  2  0  0  0
 48 50  1  0  0  0
 50 51  1  0  0  0
 50150  1  0  0  0
 51 52  1  0  0  0
 51 54  1  0  0  0
 51151  1  0  0  0
 52 53  2  0  0  0
 52 55  1  0  0  0
 54152  1  0  0  0
 54153  1  0  0  0
 54154  1  0  0  0
 55 56  1  0  0  0
 55155  1  0  0  0
 56 57  1  0  0  0
 56 58  1  0  0  0
 56156  1  0  0  0
 57157  1  0  0  0
 57158  1  0  0  0
 57159  1  0  0  0
 58 59  2  0  0  0
 58 60  1  0  0  0
 60 61  1  0  0  0
 60 62  1  0  0  0
 61160  1  0  0  0
 61161  1  0  0  0
 61162  1  0  0  0
 62 63  1  0  0  0
 62 67  1  0  0  0
 62163  1  0  0  0
 63 64  1  0  0  0
 63164  1  0  0  0
 63165  1  0  0  0
 64 65  1  0  0  0
 64 66  1  0  0  0
 64166  1  0  0  0
 65167  1  0  0  0
 65168  1  0  0  0
 65169  1  0  0  0
 66170  1  0  0  0
 66171  1  0  0  0
 66172  1  0  0  0
 67 68  2  0  0  0
 67 69  1  0  0  0
 69 70  1  0  0  0
 69 71  1  0  0  0
 70173  1  0  0  0
 70174  1  0  0  0
 70175  1  0  0  0
 71 72  1  0  0  0
 71 76  1  0  0  0
 71176  1  0  0  0
 72 73  1  0  0  0
 72177  1  0  0  0
 72178  1  0  0  0
 73 74  1  0  0  0
 73 75  1  0  0  0
 73179  1  0  0  0
 74180  1  0  0  0
 74181  1  0  0  0
 74182  1  0  0  0
 75183  1  0  0  0
 75184  1  0  0  0
 75185  1  0  0  0
 76 77  2  0  0  0
 76 78  1  0  0  0
 78 79  1  0  0  0
 78 80  1  0  0  0
 79186  1  0  0  0
 79187  1  0  0  0
 79188  1  0  0  0
 80 81  1  0  0  0
 80 84  1  0  0  0
 80189  1  0  0  0
 81 82  1  0  0  0
 81 83  1  0  0  0
 81190  1  0  0  0
 82191  1  0  0  0
 82192  1  0  0  0
 82193  1  0  0  0
 83194  1  0  0  0
 83195  1  0  0  0
 83196  1  0  0  0
 84 85  2  0  0  0
M  END
> <s_m_source_file>
../2z6w_ligand.sdf

> <i_m_source_file_index>
1

> <s_epik_input>
W0NIM11cW0NIXT1bQ0hdXFtDSDJdW0NAQEhdKFtDSDNdKVtDQEBIXShbT0hdKVtDQEhdKE4xW0NIM10pQyg9TylbTkhdW0NAQEhdKFtDSDJdW0NIM10pQyg9TylOKFtDSDNdKVtDSDJdQyg9TylOKFtDSDNdKVtDQEBIXShbQ0gyXVtDSF0oW0NIM10pW0NIM10pQyg9TylbTkhdW0NAQEhdKFtDSF0oW0NIM10pW0NIM10pQyg9TylOKFtDSDNdKVtDQEBIXShbQ0gyXVtDSF0oW0NIM10pW0NIM10pQyg9TylbTkhdW0NAQEhdKFtDSDNdKUMoPU8pW05IXVtDQEhdKFtDSDNdKUMoPU8pTihbQ0gzXSlbQ0BASF0oW0NIMl1bQ0hdKFtDSDNdKVtDSDNdKUMoPU8pTihbQ0gzXSlbQ0BASF0oW0NIMl1bQ0hdKFtDSDNdKVtDSDNdKUMoPU8pTihbQ0gzXSlbQ0BIXShDMT1PKVtDSF0oW0NIM10pW0NIM10=

> <s_epik_cmdline>
J2VwaWtfYXBwJywgJy1pbWFlJywgJ2xpZ2FuZF9wcm8ubWFlJywgJy1vbWFlJywgJ2xpZ2FuZF9wcmVwLm1hZScsICctbXMnLCAnMScsICctcGgnLCAnNycsICctcGh0JywgJzAuNScsICctbnQn

> <s_epik_pKa_notes>
Molecule size exceeds maximum supported for generating protonation states

$$$$
