2z78_ligand
                    3D
 Schrodinger Suite 2020-3.
 67 68  0  0  1  0            999 V2000
   39.2900   53.7080   12.4160 C   0  0  0  0  0  0
   38.0870   54.6400   12.2560 C   0  0  0  0  0  0
   36.7800   53.8490   12.2090 C   0  0  0  0  0  0
   36.6960   53.0080   10.9350 C   0  0  0  0  0  0
   35.4070   52.1850   10.9000 C   0  0  0  0  0  0
   35.2350   51.5180    9.5340 C   0  0  0  0  0  0
   33.9600   50.6750    9.4930 C   0  0  0  0  0  0
   32.7940   51.4730   10.0800 C   0  0  0  0  0  0
   31.5570   51.3660    9.1880 C   0  0  0  0  0  0
   31.1460   49.9100    8.9690 C   0  0  0  0  0  0
   30.9080   49.3290   10.2570 O   0  0  0  0  0  0
   30.2540   48.1430   10.1330 C   0  0  0  0  0  0
   29.5500   47.6580   11.2270 C   0  0  0  0  0  0
   30.3330   47.3940    8.9630 C   0  0  0  0  0  0
   29.6930   46.1500    8.8920 N   0  0  0  0  0  0
   29.8130   45.3090    7.6790 C   0  0  0  0  0  0
   29.2230   45.9790    6.4350 C   0  0  1  0  0  0
   29.7630   45.1030    4.9110 P   0  0  0  0  0  0
   28.8970   45.7200    3.6980 O   0  5  0  0  0  0
   31.2850   45.5290    4.6180 O   0  5  0  0  0  0
   29.5760   43.6430    5.0640 O   0  0  0  0  0  0
   27.3870   46.0550    6.4820 P   0  0  0  0  0  0
   26.7940   44.5670    6.3060 O   0  5  0  0  0  0
   26.9470   46.4730    7.9720 O   0  0  0  0  0  0
   26.8860   47.0010    5.4600 O   0  0  0  0  0  0
   28.9860   45.6630    9.9980 C   0  0  0  0  0  0
   28.9270   46.4170   11.1640 C   0  0  0  0  0  0
   28.3320   45.8850   12.3000 C   0  0  0  0  0  0
   28.3660   44.5090   12.4920 C   0  0  0  0  0  0
   27.8900   43.9650   13.6780 C   0  0  0  0  0  0
   27.9690   42.6360   13.8840 F   0  0  0  0  0  0
   27.3710   44.7930   14.6650 C   0  0  0  0  0  0
   27.3340   46.1680   14.4650 C   0  0  0  0  0  0
   26.8570   46.9660   15.4400 F   0  0  0  0  0  0
   27.8130   46.7210   13.2830 C   0  0  0  0  0  0
   40.2140   54.3040   12.4466 H   0  0  0  0  0  0
   39.3305   53.0122   11.5650 H   0  0  0  0  0  0
   39.1902   53.1378   13.3514 H   0  0  0  0  0  0
   38.0465   55.3358   13.1070 H   0  0  0  0  0  0
   38.1867   55.2102   11.3206 H   0  0  0  0  0  0
   36.7258   53.1784   13.0793 H   0  0  0  0  0  0
   35.9289   54.5456   12.2293 H   0  0  0  0  0  0
   36.7137   53.6701   10.0568 H   0  0  0  0  0  0
   37.5531   52.3199   10.8927 H   0  0  0  0  0  0
   35.4481   51.4061   11.6756 H   0  0  0  0  0  0
   34.5462   52.8437   11.0872 H   0  0  0  0  0  0
   35.1722   52.2909    8.7539 H   0  0  0  0  0  0
   36.0968   50.8643    9.3340 H   0  0  0  0  0  0
   33.7305   50.4077    8.4509 H   0  0  0  0  0  0
   34.1075   49.7582   10.0827 H   0  0  0  0  0  0
   32.5462   51.0804   11.0772 H   0  0  0  0  0  0
   33.0796   52.5320   10.1634 H   0  0  0  0  0  0
   30.7173   51.8967    9.6605 H   0  0  0  0  0  0
   31.7713   51.8176    8.2081 H   0  0  0  0  0  0
   30.2322   49.8750    8.3576 H   0  0  0  0  0  0
   31.9549   49.3747    8.4503 H   0  0  0  0  0  0
   29.4838   48.2563   12.1477 H   0  0  0  0  0  0
   29.8996   47.9677    8.1305 H   0  0  0  0  0  0
   31.3867   47.1676    8.7430 H   0  0  0  0  0  0
   30.8749   45.1031    7.4792 H   0  0  0  0  0  0
   29.2788   44.3604    7.8362 H   0  0  0  0  0  0
   29.6944   46.9606    6.5906 H   0  0  0  0  0  0
   27.2527   45.8554    8.8294 H   0  0  0  0  0  0
   28.4786   44.6883    9.9470 H   0  0  0  0  0  0
   28.7652   43.8584   11.7139 H   0  0  0  0  0  0
   26.9937   44.3656   15.5940 H   0  0  0  0  0  0
   27.7822   47.7995   13.1280 H   0  0  0  0  0  0
  1  2  1  0  0  0
  1 36  1  0  0  0
  1 37  1  0  0  0
  1 38  1  0  0  0
  2  3  1  0  0  0
  2 39  1  0  0  0
  2 40  1  0  0  0
  3  4  1  0  0  0
  3 41  1  0  0  0
  3 42  1  0  0  0
  4  5  1  0  0  0
  4 43  1  0  0  0
  4 44  1  0  0  0
  5  6  1  0  0  0
  5 45  1  0  0  0
  5 46  1  0  0  0
  6  7  1  0  0  0
  6 47  1  0  0  0
  6 48  1  0  0  0
  7  8  1  0  0  0
  7 49  1  0  0  0
  7 50  1  0  0  0
  8  9  1  0  0  0
  8 51  1  0  0  0
  8 52  1  0  0  0
  9 10  1  0  0  0
  9 53  1  0  0  0
  9 54  1  0  0  0
 10 11  1  0  0  0
 10 55  1  0  0  0
 10 56  1  0  0  0
 11 12  1  0  0  0
 12 13  2  0  0  0
 12 14  1  0  0  0
 13 27  1  0  0  0
 13 57  1  0  0  0
 14 15  1  0  0  0
 14 58  1  0  0  0
 14 59  1  0  0  0
 15 16  1  0  0  0
 15 26  1  0  0  0
 16 17  1  0  0  0
 16 60  1  0  0  0
 16 61  1  0  0  0
 17 18  1  0  0  0
 17 22  1  0  0  0
 17 62  1  0  0  0
 18 19  1  0  0  0
 18 20  1  0  0  0
 18 21  2  0  0  0
 22 23  1  0  0  0
 22 24  1  0  0  0
 22 25  2  0  0  0
 24 63  1  0  0  0
 26 27  2  0  0  0
 26 64  1  0  0  0
 27 28  1  0  0  0
 28 29  2  0  0  0
 28 35  1  0  0  0
 29 30  1  0  0  0
 29 65  1  0  0  0
 30 31  1  0  0  0
 30 32  2  0  0  0
 32 33  1  0  0  0
 32 66  1  0  0  0
 33 34  1  0  0  0
 33 35  2  0  0  0
 35 67  1  0  0  0
M  CHG  3  19  -1  20  -1  23  -1
M  END
> <s_m_source_file>
../2z78_ligand.sdf

> <i_m_source_file_index>
1

> <s_epik_input>
W0NIM11bQ0gyXVtDSDJdW0NIMl1bQ0gyXVtDSDJdW0NIMl1bQ0gyXVtDSDJdW0NIMl1PQzE9W0NIXUMoPVtDSF1OKFtDSDJdMSlbQ0gyXVtDSF0oUCg9TykoW09IXSlbT0hdKVAoPU8pKFtPSF0pW09IXSljMltjSF1jKEYpW2NIXWMoRilbY0hdMg==

> <s_epik_cmdline>
J2VwaWtfYXBwJywgJy1pbWFlJywgJ2xpZ2FuZF9wcm8ubWFlJywgJy1vbWFlJywgJ2xpZ2FuZF9wcmVwLm1hZScsICctbXMnLCAnMScsICctcGgnLCAnNycsICctcGh0JywgJzAuNScsICctbnQn

> <r_lp_tautomer_probability>
0.140576275414744

> <r_epik_Ionization_Penalty>
  0.2151

> <r_epik_Ionization_Penalty_Charging>
  0.2151

> <r_epik_Ionization_Penalty_Neutral>
  0.0000

> <r_epik_State_Penalty>
  0.2052

> <r_epik_Charging_Adjusted_Penalty>
0.420269762700573

> <i_epik_Tot_Q>
-3

> <i_epik_Tot_abs_Q>
3

$$$$
