2z7g_ligand
                    3D
 Schrodinger Suite 2020-3.
 43 44  0  0  1  0            999 V2000
   11.1280   12.4930   20.8060 C   0  0  0  0  0  0
   11.2890   13.5410   21.6690 C   0  0  0  0  0  0
   11.3170   14.8440   21.1580 C   0  0  0  0  0  0
   11.0300   14.0770   19.0180 C   0  0  0  0  0  0
   11.5140   14.8780   23.3390 C   0  0  0  0  0  0
   11.1890   15.1420   19.8320 N   0  0  0  0  0  0
   10.9990   12.8050   19.4730 N   0  0  0  0  0  0
   11.4920   15.6660   22.2350 N   0  0  0  0  0  0
   11.4290   13.5780   22.9820 N   0  0  0  0  0  0
   11.6060   17.1340   22.4080 C   0  0  2  0  0  0
   10.3050   17.9310   22.1900 C   0  0  0  0  0  0
   11.0920   11.1990   21.2030 N   0  0  0  0  0  0
    9.6850   17.7460   20.8140 C   0  0  0  0  0  0
    8.3600   18.4180   20.4980 C   0  0  0  0  0  0
    7.8760   17.8430   19.1520 C   0  0  0  0  0  0
    8.0060   16.2970   19.0820 C   0  0  0  0  0  0
    6.7940   15.5750   18.4960 C   0  0  0  0  0  0
   12.9100   17.7480   21.9080 C   0  0  1  0  0  0
   13.9610   17.3190   22.7340 O   0  0  0  0  0  0
   13.1900   17.8300   20.4080 C   0  0  0  0  0  0
   10.9219   14.2506   17.9473 H   0  0  0  0  0  0
   11.5893   15.2408   24.3641 H   0  0  0  0  0  0
   11.7417   17.2037   23.4974 H   0  0  0  0  0  0
    9.5533   17.6148   22.9282 H   0  0  0  0  0  0
   10.5084   19.0052   22.3109 H   0  0  0  0  0  0
   11.1950   10.9477   22.2689 H   0  0  0  0  0  0
   10.9597   10.3991   20.4596 H   0  0  0  0  0  0
   10.3742   18.1287   20.0468 H   0  0  0  0  0  0
    9.4969   16.6767   20.6373 H   0  0  0  0  0  0
    7.6376   18.1984   21.2979 H   0  0  0  0  0  0
    8.5083   19.5056   20.4264 H   0  0  0  0  0  0
    6.8169   18.1000   19.0031 H   0  0  0  0  0  0
    8.4753   18.2697   18.3342 H   0  0  0  0  0  0
    8.8676   16.0296   18.4526 H   0  0  0  0  0  0
    8.1534   15.8952   20.0953 H   0  0  0  0  0  0
    6.9811   14.4911   18.4887 H   0  0  0  0  0  0
    6.6212   15.9243   17.4673 H   0  0  0  0  0  0
    5.9070   15.7898   19.1101 H   0  0  0  0  0  0
   12.8796   18.8300   22.1039 H   0  0  0  0  0  0
   13.8103   17.2429   23.8210 H   0  0  0  0  0  0
   12.2868   18.1773   19.8849 H   0  0  0  0  0  0
   13.4714   16.8351   20.0326 H   0  0  0  0  0  0
   14.0133   18.5366   20.2268 H   0  0  0  0  0  0
  1  2  2  0  0  0
  1  7  1  0  0  0
  1 12  1  0  0  0
  2  3  1  0  0  0
  2  9  1  0  0  0
  3  6  2  0  0  0
  3  8  1  0  0  0
  4  6  1  0  0  0
  4  7  2  0  0  0
  4 21  1  0  0  0
  5  8  1  0  0  0
  5  9  2  0  0  0
  5 22  1  0  0  0
  8 10  1  0  0  0
 10 11  1  0  0  0
 10 18  1  0  0  0
 10 23  1  0  0  0
 11 13  1  0  0  0
 11 24  1  0  0  0
 11 25  1  0  0  0
 12 26  1  0  0  0
 12 27  1  0  0  0
 13 14  1  0  0  0
 13 28  1  0  0  0
 13 29  1  0  0  0
 14 15  1  0  0  0
 14 30  1  0  0  0
 14 31  1  0  0  0
 15 16  1  0  0  0
 15 32  1  0  0  0
 15 33  1  0  0  0
 16 17  1  0  0  0
 16 34  1  0  0  0
 16 35  1  0  0  0
 17 36  1  0  0  0
 17 37  1  0  0  0
 17 38  1  0  0  0
 18 19  1  0  0  0
 18 20  1  0  0  0
 18 39  1  0  0  0
 19 40  1  0  0  0
 20 41  1  0  0  0
 20 42  1  0  0  0
 20 43  1  0  0  0
M  END
> <s_m_source_file>
../2z7g_ligand.sdf

> <i_m_source_file_index>
1

> <s_epik_input>
W05IMl1jMW5bY0hdbmMoYzEyKW4oW2NIXW4yKVtDQEBIXShbQ0BASF0oW09IXSlbQ0gzXSlbQ0gyXVtDSDJdW0NIMl1bQ0gyXVtDSDJdW0NIM10=

> <s_epik_cmdline>
J2VwaWtfYXBwJywgJy1pbWFlJywgJ2xpZ2FuZF9wcm8ubWFlJywgJy1vbWFlJywgJ2xpZ2FuZF9wcmVwLm1hZScsICctbXMnLCAnMScsICctcGgnLCAnNycsICctcGh0JywgJzAuNScsICctbnQn

> <r_lp_tautomer_probability>
1

> <r_epik_Ionization_Penalty>
  0.0011

> <r_epik_Ionization_Penalty_Charging>
  0.0000

> <r_epik_Ionization_Penalty_Neutral>
  0.0011

> <r_epik_State_Penalty>
 -0.0000

> <r_epik_Charging_Adjusted_Penalty>
0

> <i_epik_Tot_Q>
0

> <i_epik_Tot_abs_Q>
0

$$$$
