2z7h_ligand
                    3D
 Schrodinger Suite 2020-3.
 47 47  0  0  1  0            999 V2000
   29.2020   47.4270    8.0120 C   0  0  0  0  0  0
   30.9280   48.4100    9.3830 C   0  0  0  0  0  0
   29.5880   46.1220    7.3130 C   0  0  0  0  0  0
   29.0040   46.1970    5.9010 C   0  0  1  0  0  0
   29.3100   43.5190    5.0770 O   0  5  0  0  0  0
   29.8630   44.9970    4.7620 P   0  0  0  0  0  0
   29.3340   45.4200    3.2990 O   0  5  0  0  0  0
   31.3390   45.0760    4.8520 O   0  0  0  0  0  0
   27.1620   45.8940    5.9230 P   0  0  0  0  0  0
   26.9240   44.3870    6.4390 O   0  5  0  0  0  0
   26.7150   45.9160    4.3750 O   0  0  0  0  0  0
   26.4210   46.9070    6.7080 O   0  0  0  0  0  0
   29.2630   47.5120    5.4030 O   0  0  0  0  0  0
   29.7840   47.4880    9.3600 N   0  3  1  0  0  0
   28.7470   47.9660   10.2870 C   0  0  0  0  0  0
   31.9130   48.0770    8.2590 C   0  0  0  0  0  0
   33.2440   48.8010    8.4730 C   0  0  0  0  0  0
   33.0650   50.3180    8.5670 C   0  0  0  0  0  0
   34.4010   50.9860    8.9020 C   0  0  0  0  0  0
   34.5750   51.6120   10.1300 C   0  0  0  0  0  0
   35.8100   52.1600   10.4630 C   0  0  0  0  0  0
   36.8690   52.0840    9.5660 C   0  0  0  0  0  0
   36.6930   51.4630    8.3340 C   0  0  0  0  0  0
   35.4590   50.9150    8.0020 C   0  0  0  0  0  0
   29.5736   48.2806    7.4261 H   0  0  0  0  0  0
   28.1069   47.4884    8.0952 H   0  0  0  0  0  0
   30.5703   49.4415    9.2487 H   0  0  0  0  0  0
   31.4480   48.3251   10.3486 H   0  0  0  0  0  0
   30.6840   46.0334    7.2811 H   0  0  0  0  0  0
   29.1673   45.2705    7.8679 H   0  0  0  0  0  0
   27.1762   45.2194    3.6594 H   0  0  0  0  0  0
   30.2984   47.8733    5.3164 H   0  0  0  0  0  0
   30.1381   46.4897    9.6567 H   0  0  0  0  0  0
   27.8916   47.2746   10.2684 H   0  0  0  0  0  0
   28.4148   48.9687    9.9800 H   0  0  0  0  0  0
   29.1591   48.0122   11.3059 H   0  0  0  0  0  0
   32.0972   46.9927    8.2422 H   0  0  0  0  0  0
   31.4885   48.3918    7.2942 H   0  0  0  0  0  0
   33.7051   48.4517    9.4086 H   0  0  0  0  0  0
   33.9175   48.5870    7.6301 H   0  0  0  0  0  0
   32.6998   50.7045    7.6041 H   0  0  0  0  0  0
   32.3361   50.5530    9.3566 H   0  0  0  0  0  0
   33.7440   51.6739   10.8327 H   0  0  0  0  0  0
   35.9469   52.6490   11.4275 H   0  0  0  0  0  0
   37.8371   52.5109    9.8280 H   0  0  0  0  0  0
   37.5223   51.4059    7.6289 H   0  0  0  0  0  0
   35.3207   50.4295    7.0359 H   0  0  0  0  0  0
  1  3  1  0  0  0
  1 14  1  0  0  0
  1 25  1  0  0  0
  1 26  1  0  0  0
  2 14  1  0  0  0
  2 16  1  0  0  0
  2 27  1  0  0  0
  2 28  1  0  0  0
  3  4  1  0  0  0
  3 29  1  0  0  0
  3 30  1  0  0  0
  4  6  1  0  0  0
  4  9  1  0  0  0
  4 13  1  0  0  0
  5  6  1  0  0  0
  6  7  1  0  0  0
  6  8  2  0  0  0
  9 10  1  0  0  0
  9 11  1  0  0  0
  9 12  2  0  0  0
 11 31  1  0  0  0
 13 32  1  0  0  0
 14 15  1  0  0  0
 14 33  1  0  0  0
 15 34  1  0  0  0
 15 35  1  0  0  0
 15 36  1  0  0  0
 16 17  1  0  0  0
 16 37  1  0  0  0
 16 38  1  0  0  0
 17 18  1  0  0  0
 17 39  1  0  0  0
 17 40  1  0  0  0
 18 19  1  0  0  0
 18 41  1  0  0  0
 18 42  1  0  0  0
 19 20  2  0  0  0
 19 24  1  0  0  0
 20 21  1  0  0  0
 20 43  1  0  0  0
 21 22  2  0  0  0
 21 44  1  0  0  0
 22 23  1  0  0  0
 22 45  1  0  0  0
 23 24  2  0  0  0
 23 46  1  0  0  0
 24 47  1  0  0  0
M  CHG  4   5  -1   7  -1  10  -1  14   1
M  END
> <s_m_source_file>
../2z7h_ligand.sdf

> <i_m_source_file_index>
1

> <s_epik_input>
W09IXVAoPU8pKFtPSF0pQyhbT0hdKShQKD1PKShbT0hdKVtPSF0pW0NIMl1bQ0gyXVtOQEgrXShbQ0gzXSlbQ0gyXVtDSDJdW0NIMl1bQ0gyXWMxW2NIXVtjSF1bY0hdW2NIXVtjSF0x

> <s_epik_cmdline>
J2VwaWtfYXBwJywgJy1pbWFlJywgJ2xpZ2FuZF9wcm8ubWFlJywgJy1vbWFlJywgJ2xpZ2FuZF9wcmVwLm1hZScsICctbXMnLCAnMScsICctcGgnLCAnNycsICctcGh0JywgJzAuNScsICctbnQn

> <r_lp_tautomer_probability>
1

> <r_epik_Ionization_Penalty>
  0.1197

> <r_epik_Ionization_Penalty_Charging>
  0.1197

> <r_epik_Ionization_Penalty_Neutral>
  0.0001

> <r_epik_State_Penalty>
 -0.0000

> <r_epik_Charging_Adjusted_Penalty>
0.119654106930602

> <i_epik_Tot_Q>
-2

> <i_epik_Tot_abs_Q>
4

$$$$
