2z7i_ligand
                    3D
 Schrodinger Suite 2020-3.
 60 59  0  0  1  0            999 V2000
   37.7590   58.1190   12.9960 C   0  0  0  0  0  0
   38.3310   56.7020   12.9330 C   0  0  0  0  0  0
   37.4110   55.8220   12.0860 C   0  0  0  0  0  0
   37.8180   54.3500   12.1110 C   0  0  0  0  0  0
   36.9070   53.5980   11.1420 C   0  0  0  0  0  0
   37.0270   52.0840   11.3160 C   0  0  0  0  0  0
   36.2810   51.3430   10.2050 C   0  0  0  0  0  0
   34.7670   51.5610   10.2230 C   0  0  0  0  0  0
   34.1230   50.4690    9.3650 C   0  0  0  0  0  0
   32.5970   50.5650    9.2850 C   0  0  0  0  0  0
   32.0120   49.2380    8.7910 C   0  0  0  0  0  0
   30.5040   49.3580    8.5720 C   0  0  0  0  0  0
   29.6710   47.7510    8.5250 P   0  0  0  0  0  0
   28.1540   47.9900    9.4470 C   0  0  0  0  0  0
   30.6630   46.5060    9.3430 C   0  0  0  0  0  0
   29.3130   47.2960    6.8070 C   0  0  0  0  0  0
   28.9170   45.8200    6.6970 C   0  0  1  0  0  0
   27.0890   45.5990    6.7640 P   0  0  0  0  0  0
   26.6670   45.8250    8.3000 O   0  5  0  0  0  0
   26.4370   46.8240    5.9620 O   0  5  0  0  0  0
   26.7050   44.2620    6.2580 O   0  0  0  0  0  0
   29.5660   45.0860    5.1390 P   0  0  0  0  0  0
   29.1070   43.5490    5.0560 O   0  5  0  0  0  0
   28.7800   45.8250    3.9400 O   0  0  0  0  0  0
   31.0360   45.2320    5.0230 O   0  0  0  0  0  0
   38.4192   58.7541   13.6049 H   0  0  0  0  0  0
   36.7573   58.0902   13.4496 H   0  0  0  0  0  0
   37.6891   58.5317   11.9788 H   0  0  0  0  0  0
   39.3327   56.7308   12.4794 H   0  0  0  0  0  0
   38.4009   56.2892   13.9502 H   0  0  0  0  0  0
   36.3817   55.8939   12.4674 H   0  0  0  0  0  0
   37.4391   56.1620   11.0402 H   0  0  0  0  0  0
   38.8686   54.2548   11.7994 H   0  0  0  0  0  0
   37.7006   53.9544   13.1307 H   0  0  0  0  0  0
   35.8611   53.8863   11.3235 H   0  0  0  0  0  0
   37.1830   53.8513   10.1078 H   0  0  0  0  0  0
   38.0876   51.7940   11.2826 H   0  0  0  0  0  0
   36.5972   51.7911   12.2853 H   0  0  0  0  0  0
   36.6476   51.6851    9.2259 H   0  0  0  0  0  0
   36.4554   50.2615   10.3044 H   0  0  0  0  0  0
   34.3997   51.4976   11.2579 H   0  0  0  0  0  0
   34.5347   52.5544    9.8117 H   0  0  0  0  0  0
   34.5085   50.5355    8.3369 H   0  0  0  0  0  0
   34.3663   49.4817    9.7847 H   0  0  0  0  0  0
   32.1910   50.7898   10.2823 H   0  0  0  0  0  0
   32.3162   51.3663    8.5856 H   0  0  0  0  0  0
   32.4876   48.9594    7.8390 H   0  0  0  0  0  0
   32.2005   48.4533    9.5385 H   0  0  0  0  0  0
   30.0599   49.9425    9.3912 H   0  0  0  0  0  0
   30.3116   49.8640    7.6144 H   0  0  0  0  0  0
   28.3949   48.2648   10.4845 H   0  0  0  0  0  0
   27.5704   47.0576    9.4408 H   0  0  0  0  0  0
   27.5651   48.7943    8.9819 H   0  0  0  0  0  0
   30.8590   46.8164   10.3799 H   0  0  0  0  0  0
   31.6174   46.3884    8.8088 H   0  0  0  0  0  0
   30.1223   45.5481    9.3429 H   0  0  0  0  0  0
   28.4829   47.9115    6.4301 H   0  0  0  0  0  0
   30.2065   47.4671    6.1886 H   0  0  0  0  0  0
   29.4325   45.4770    7.6062 H   0  0  0  0  0  0
   27.6810   45.7962    3.9028 H   0  0  0  0  0  0
  1  2  1  0  0  0
  1 26  1  0  0  0
  1 27  1  0  0  0
  1 28  1  0  0  0
  2  3  1  0  0  0
  2 29  1  0  0  0
  2 30  1  0  0  0
  3  4  1  0  0  0
  3 31  1  0  0  0
  3 32  1  0  0  0
  4  5  1  0  0  0
  4 33  1  0  0  0
  4 34  1  0  0  0
  5  6  1  0  0  0
  5 35  1  0  0  0
  5 36  1  0  0  0
  6  7  1  0  0  0
  6 37  1  0  0  0
  6 38  1  0  0  0
  7  8  1  0  0  0
  7 39  1  0  0  0
  7 40  1  0  0  0
  8  9  1  0  0  0
  8 41  1  0  0  0
  8 42  1  0  0  0
  9 10  1  0  0  0
  9 43  1  0  0  0
  9 44  1  0  0  0
 10 11  1  0  0  0
 10 45  1  0  0  0
 10 46  1  0  0  0
 11 12  1  0  0  0
 11 47  1  0  0  0
 11 48  1  0  0  0
 12 13  1  0  0  0
 12 49  1  0  0  0
 12 50  1  0  0  0
 13 14  1  0  0  0
 13 15  1  0  0  0
 13 16  1  0  0  0
 14 51  1  0  0  0
 14 52  1  0  0  0
 14 53  1  0  0  0
 15 54  1  0  0  0
 15 55  1  0  0  0
 15 56  1  0  0  0
 16 17  1  0  0  0
 16 57  1  0  0  0
 16 58  1  0  0  0
 17 18  1  0  0  0
 17 22  1  0  0  0
 17 59  1  0  0  0
 18 19  1  0  0  0
 18 20  1  0  0  0
 18 21  2  0  0  0
 22 23  1  0  0  0
 22 24  1  0  0  0
 22 25  2  0  0  0
 24 60  1  0  0  0
M  CHG  3  19  -1  20  -1  23  -1
M  END
> <s_m_source_file>
../2z7i_ligand.sdf

> <i_m_source_file_index>
1

> <s_epik_input>
W0NIM11bQ0gyXVtDSDJdW0NIMl1bQ0gyXVtDSDJdW0NIMl1bQ0gyXVtDSDJdW0NIMl1bQ0gyXVtDSDJdW1BIXShbQ0gzXSkoW0NIM10pW0NIMl1bQ0hdKFAoPU8pKFtPSF0pW09IXSlQKD1PKShbT0hdKVtPSF0=

> <s_epik_cmdline>
J2VwaWtfYXBwJywgJy1pbWFlJywgJ2xpZ2FuZF9wcm8ubWFlJywgJy1vbWFlJywgJ2xpZ2FuZF9wcmVwLm1hZScsICctbXMnLCAnMScsICctcGgnLCAnNycsICctcGh0JywgJzAuNScsICctbnQn

> <r_epik_Ionization_Penalty>
  0.3869

> <r_epik_Ionization_Penalty_Charging>
  0.3869

> <r_epik_Ionization_Penalty_Neutral>
  0.0000

> <r_epik_State_Penalty>
  0.3853

> <r_epik_Charging_Adjusted_Penalty>
0.772152735214834

> <i_epik_Tot_Q>
-3

> <i_epik_Tot_abs_Q>
3

$$$$
