2z92_ligand
                    3D
 Schrodinger Suite 2020-3.
 58 62  0  0  1  0            999 V2000
  -17.9460    7.3040  -39.1180 O   0  0  0  0  0  0
  -17.3270    7.7870  -37.9190 C   0  0  1  0  0  0
  -18.3570    8.5560  -37.1400 C   0  0  0  0  0  0
  -17.9860    9.4420  -36.0900 C   0  0  0  0  0  0
  -16.6740    9.6250  -35.7420 C   0  0  0  0  0  0
  -16.3370    8.8150  -34.4810 C   0  0  1  0  0  0
  -17.4650    8.9890  -33.6090 O   0  0  0  0  0  0
  -17.0170    8.6860  -32.2820 C   0  0  1  0  0  0
  -17.5770    9.6660  -31.2470 C   0  0  0  0  0  0
  -16.9630    9.3530  -29.8800 C   0  0  1  0  0  0
  -17.5850   10.1810  -28.8870 O   0  0  0  0  0  0
  -17.0770    9.9820  -27.5580 C   0  0  1  0  0  0
  -17.8680   11.0270  -26.7660 C   0  0  0  0  0  0
  -17.7750   11.0030  -25.3860 C   0  0  0  0  0  0
  -17.2360   10.0750  -24.4980 C   0  0  0  0  0  0
  -16.6270    8.8440  -24.7290 C   0  0  0  0  0  0
  -16.3660    8.2830  -26.0180 O   0  0  0  0  0  0
  -17.2910    8.5420  -27.0920 C   0  0  2  0  0  0
  -16.7830    7.5700  -28.1370 C   0  0  1  0  0  0
  -17.2260    6.2380  -27.8100 O   0  0  0  0  0  0
  -17.2530    7.8970  -29.5600 C   0  0  2  0  0  0
  -16.5620    7.0610  -30.4960 O   0  0  0  0  0  0
  -17.1650    7.2620  -31.7820 C   0  0  2  0  0  0
  -16.7820    6.2550  -32.6900 C   0  0  0  0  0  0
  -16.4110    6.2910  -33.9940 C   0  0  0  0  0  0
  -16.3950    7.3760  -34.9160 C   0  0  2  0  0  0
  -15.8310    7.0200  -36.1810 O   0  0  0  0  0  0
  -16.8240    6.5700  -37.1090 C   0  0  2  0  0  0
  -16.1210    5.6090  -38.0610 C   0  0  0  0  0  0
  -14.9730    6.2590  -38.6200 O   0  0  0  0  0  0
  -18.3741    8.0144  -39.8406 H   0  0  0  0  0  0
  -16.5015    8.4576  -38.1999 H   0  0  0  0  0  0
  -19.4180    8.4219  -37.3973 H   0  0  0  0  0  0
  -18.7599    9.9968  -35.5393 H   0  0  0  0  0  0
  -16.0262    9.2914  -36.5660 H   0  0  0  0  0  0
  -16.4930   10.6914  -35.5420 H   0  0  0  0  0  0
  -15.4013    9.0945  -33.9747 H   0  0  0  0  0  0
  -15.9421    8.8171  -32.4754 H   0  0  0  0  0  0
  -17.3223   10.6949  -31.5410 H   0  0  0  0  0  0
  -18.6706    9.5595  -31.1953 H   0  0  0  0  0  0
  -15.8864    9.5752  -29.8419 H   0  0  0  0  0  0
  -15.9873   10.1232  -27.5069 H   0  0  0  0  0  0
  -18.4963   11.7816  -27.2619 H   0  0  0  0  0  0
  -18.1784   11.8370  -24.7930 H   0  0  0  0  0  0
  -17.3487   10.4485  -23.4695 H   0  0  0  0  0  0
  -16.3056    8.2216  -23.8809 H   0  0  0  0  0  0
  -18.3463    8.4081  -26.8120 H   0  0  0  0  0  0
  -15.6840    7.5955  -28.0976 H   0  0  0  0  0  0
  -16.9911    5.8063  -26.8259 H   0  0  0  0  0  0
  -18.3244    7.6806  -29.6833 H   0  0  0  0  0  0
  -18.2396    7.0573  -31.6664 H   0  0  0  0  0  0
  -16.8199    5.2945  -32.1553 H   0  0  0  0  0  0
  -16.0541    5.3762  -34.4897 H   0  0  0  0  0  0
  -17.4825    7.3796  -35.0811 H   0  0  0  0  0  0
  -17.6352    6.0900  -36.5419 H   0  0  0  0  0  0
  -15.8058    4.7112  -37.5091 H   0  0  0  0  0  0
  -16.8118    5.3203  -38.8669 H   0  0  0  0  0  0
  -14.3317    5.7234  -39.3354 H   0  0  0  0  0  0
  1  2  1  0  0  0
  1 31  1  0  0  0
  2  3  1  0  0  0
  2 28  1  0  0  0
  2 32  1  0  0  0
  3  4  2  0  0  0
  3 33  1  0  0  0
  4  5  1  0  0  0
  4 34  1  0  0  0
  5  6  1  0  0  0
  5 35  1  0  0  0
  5 36  1  0  0  0
  6  7  1  0  0  0
  6 26  1  0  0  0
  6 37  1  0  0  0
  7  8  1  0  0  0
  8  9  1  0  0  0
  8 23  1  0  0  0
  8 38  1  0  0  0
  9 10  1  0  0  0
  9 39  1  0  0  0
  9 40  1  0  0  0
 10 11  1  0  0  0
 10 21  1  0  0  0
 10 41  1  0  0  0
 11 12  1  0  0  0
 12 13  1  0  0  0
 12 18  1  0  0  0
 12 42  1  0  0  0
 13 14  2  0  0  0
 13 43  1  0  0  0
 14 15  1  0  0  0
 14 44  1  0  0  0
 15 16  2  0  0  0
 15 45  1  0  0  0
 16 17  1  0  0  0
 16 46  1  0  0  0
 17 18  1  0  0  0
 18 19  1  0  0  0
 18 47  1  0  0  0
 19 20  1  0  0  0
 19 21  1  0  0  0
 19 48  1  0  0  0
 20 49  1  0  0  0
 21 22  1  0  0  0
 21 50  1  0  0  0
 22 23  1  0  0  0
 23 24  1  0  0  0
 23 51  1  0  0  0
 24 25  2  0  0  0
 24 52  1  0  0  0
 25 26  1  0  0  0
 25 53  1  0  0  0
 26 27  1  0  0  0
 26 54  1  0  0  0
 27 28  1  0  0  0
 28 29  1  0  0  0
 28 55  1  0  0  0
 29 30  1  0  0  0
 29 56  1  0  0  0
 29 57  1  0  0  0
 30 58  1  0  0  0
M  END
> <s_m_source_file>
../2z92_ligand.sdf

> <i_m_source_file_index>
1

> <s_epik_input>
W0NIMl0xL1tDSF09W0NIXVxbQ0BIXShbT0hdKVtDQEBIXShbQ0gyXVtPSF0pT1tDQEhdKFtDQEBIXTEyKVtDSF09W0NIXVtDQEBIXTNbQ0BASF0oTzIpW0NIMl1bQ0BASF00W0NAQEhdKE8zKVtDQEhdKFtPSF0pW0NAQEhdNVtDQEBIXShPNClbQ0hdPVtDSF1bQ0hdPVtDSF1PNQ==

> <s_epik_cmdline>
J2VwaWtfYXBwJywgJy1pbWFlJywgJ2xpZ2FuZF9wcm8ubWFlJywgJy1vbWFlJywgJ2xpZ2FuZF9wcmVwLm1hZScsICctbXMnLCAnMScsICctcGgnLCAnNycsICctcGh0JywgJzAuNScsICctbnQn

> <r_lp_tautomer_probability>
1

> <r_epik_Ionization_Penalty>
  0.0000

> <r_epik_Ionization_Penalty_Charging>
  0.0000

> <r_epik_Ionization_Penalty_Neutral>
  0.0000

> <r_epik_State_Penalty>
 -0.0000

> <r_epik_Charging_Adjusted_Penalty>
0

> <i_epik_Tot_Q>
0

> <i_epik_Tot_abs_Q>
0

$$$$
