2z97_ligand
                    3D
 Schrodinger Suite 2020-3.
 72 79  0  0  1  0            999 V2000
  -20.2890  -11.0540    6.3150 C   0  0  0  0  0  0
  -19.7030   -9.7610   11.0080 C   0  0  0  0  0  0
  -18.4870  -14.5500   12.0170 C   0  0  0  0  0  0
  -18.5900  -15.5630    7.2040 C   0  0  0  0  0  0
  -19.8950  -10.7870    8.7410 N   0  0  0  0  0  0
  -20.2180  -10.2600    7.5390 C   0  0  0  0  0  0
  -20.4850   -8.9000    7.5400 C   0  0  0  0  0  0
  -20.3220   -8.5150    8.9470 C   0  0  0  0  0  0
  -19.9610   -9.7040    9.5660 C   0  0  0  0  0  0
  -20.4660   -7.1390    9.5570 C   0  0  0  0  0  0
  -20.8740   -8.0250    6.3690 C   0  0  0  0  0  0
  -18.9990  -12.2330   11.0580 N   0  0  0  0  0  0
  -19.3970  -10.9940   11.7420 C   0  0  0  0  0  0
  -19.3000  -11.0300   13.1360 C   0  0  0  0  0  0
  -18.9560  -12.4220   13.4650 C   0  0  0  0  0  0
  -18.8800  -13.1580   12.1650 C   0  0  0  0  0  0
  -19.5650   -9.9140   14.1300 C   0  0  0  0  0  0
  -18.7620  -13.0620   14.8060 C   0  0  0  0  0  0
  -18.9520  -12.4920   15.9920 C   0  0  0  0  0  0
  -18.6610  -14.6780    9.5420 N   0  0  0  0  0  0
  -18.3640  -15.2420   10.7420 C   0  0  0  0  0  0
  -17.8930  -16.5360   10.7010 C   0  0  0  0  0  0
  -17.8860  -16.8120    9.2680 C   0  0  0  0  0  0
  -18.3470  -15.6640    8.6590 C   0  0  0  0  0  0
  -17.4740  -17.3990   11.8580 C   0  0  0  0  0  0
  -17.4790  -18.0950    8.6310 C   0  0  0  0  0  0
  -16.2970  -18.6500    8.8350 C   0  0  0  0  0  0
  -19.4520  -13.2340    7.1390 N   0  0  0  0  0  0
  -19.1250  -14.3820    6.5080 C   0  0  0  0  0  0
  -19.3170  -14.3930    5.1230 C   0  0  0  0  0  0
  -19.8330  -13.0590    4.8050 C   0  0  0  0  0  0
  -19.8650  -12.4270    6.1360 C   0  0  0  0  0  0
  -19.0460  -15.5440    4.1810 C   0  0  0  0  0  0
  -20.1750  -12.4680    3.4590 C   0  0  0  0  0  0
  -21.6710  -12.2410    3.2810 C   0  0  0  0  0  0
  -21.8330  -11.3930    2.0450 C   0  0  0  0  0  0
  -22.7820  -11.6710    1.2740 O   0  0  0  0  0  0
  -21.0190  -10.4580    1.8170 O   0  5  0  0  0  0
  -19.4150  -12.7580    9.1760 Fe  0  0  0  0  0  0
  -21.3368  -11.1335    5.9898 H   0  0  0  0  0  0
  -19.6964  -10.5665    5.5268 H   0  0  0  0  0  0
  -18.8312   -9.1352   11.2495 H   0  0  0  0  0  0
  -20.5833   -9.3894   11.5530 H   0  0  0  0  0  0
  -17.4831  -14.6948   12.4428 H   0  0  0  0  0  0
  -19.2060  -15.1923   12.5466 H   0  0  0  0  0  0
  -17.6444  -15.7149    6.6629 H   0  0  0  0  0  0
  -19.3146  -16.3324    6.8990 H   0  0  0  0  0  0
  -20.7672   -6.4225    8.7786 H   0  0  0  0  0  0
  -19.5040   -6.8273    9.9898 H   0  0  0  0  0  0
  -21.2316   -7.1662   10.3464 H   0  0  0  0  0  0
  -20.9048   -8.6319    5.4521 H   0  0  0  0  0  0
  -20.1338   -7.2198    6.2511 H   0  0  0  0  0  0
  -21.8662   -7.5870    6.5523 H   0  0  0  0  0  0
  -19.7970   -8.9863   13.5864 H   0  0  0  0  0  0
  -18.6727   -9.7597   14.7545 H   0  0  0  0  0  0
  -20.4173  -10.1873   14.7695 H   0  0  0  0  0  0
  -18.4285  -14.1085   14.7458 H   0  0  0  0  0  0
  -19.2855  -11.4455   16.0522 H   0  0  0  0  0  0
  -18.7757  -13.0669   16.9131 H   0  0  0  0  0  0
  -17.6230  -16.8487   12.7987 H   0  0  0  0  0  0
  -16.4115  -17.6635   11.7522 H   0  0  0  0  0  0
  -18.0809  -18.3164   11.8698 H   0  0  0  0  0  0
  -18.2084  -18.5826    7.9675 H   0  0  0  0  0  0
  -15.5676  -18.1624    9.4985 H   0  0  0  0  0  0
  -16.0426  -19.5995    8.3413 H   0  0  0  0  0  0
  -18.6616  -16.4022    4.7517 H   0  0  0  0  0  0
  -18.3002  -15.2376    3.4327 H   0  0  0  0  0  0
  -19.9790  -15.8296    3.6732 H   0  0  0  0  0  0
  -19.6706  -11.4970    3.3461 H   0  0  0  0  0  0
  -19.8402  -13.1498    2.6634 H   0  0  0  0  0  0
  -22.1772  -13.2102    3.1612 H   0  0  0  0  0  0
  -22.0715  -11.7252    4.1662 H   0  0  0  0  0  0
  1  6  1  0  0  0
  1 32  1  0  0  0
  1 40  1  0  0  0
  1 41  1  0  0  0
  2  9  1  0  0  0
  2 13  1  0  0  0
  2 42  1  0  0  0
  2 43  1  0  0  0
  3 16  1  0  0  0
  3 21  1  0  0  0
  3 44  1  0  0  0
  3 45  1  0  0  0
  4 24  1  0  0  0
  4 29  1  0  0  0
  4 46  1  0  0  0
  4 47  1  0  0  0
  5  6  1  0  0  0
  5  9  1  0  0  0
  5 39  1  0  0  0
  6  7  2  0  0  0
  7  8  1  0  0  0
  7 11  1  0  0  0
  8  9  2  0  0  0
  8 10  1  0  0  0
 10 48  1  0  0  0
 10 49  1  0  0  0
 10 50  1  0  0  0
 11 51  1  0  0  0
 11 52  1  0  0  0
 11 53  1  0  0  0
 12 13  1  0  0  0
 12 16  1  0  0  0
 12 39  1  0  0  0
 13 14  2  0  0  0
 14 15  1  0  0  0
 14 17  1  0  0  0
 15 16  2  0  0  0
 15 18  1  0  0  0
 17 54  1  0  0  0
 17 55  1  0  0  0
 17 56  1  0  0  0
 18 19  2  0  0  0
 18 57  1  0  0  0
 19 58  1  0  0  0
 19 59  1  0  0  0
 20 21  1  0  0  0
 20 24  1  0  0  0
 20 39  1  0  0  0
 21 22  2  0  0  0
 22 23  1  0  0  0
 22 25  1  0  0  0
 23 24  2  0  0  0
 23 26  1  0  0  0
 25 60  1  0  0  0
 25 61  1  0  0  0
 25 62  1  0  0  0
 26 27  2  0  0  0
 26 63  1  0  0  0
 27 64  1  0  0  0
 27 65  1  0  0  0
 28 29  1  0  0  0
 28 32  1  0  0  0
 28 39  1  0  0  0
 29 30  2  0  0  0
 30 31  1  0  0  0
 30 33  1  0  0  0
 31 32  2  0  0  0
 31 34  1  0  0  0
 33 66  1  0  0  0
 33 67  1  0  0  0
 33 68  1  0  0  0
 34 35  1  0  0  0
 34 69  1  0  0  0
 34 70  1  0  0  0
 35 36  1  0  0  0
 35 71  1  0  0  0
 35 72  1  0  0  0
 36 37  2  0  0  0
 36 38  1  0  0  0
M  CHG  1  38  -1
M  END
> <s_m_source_file>
../2z97_ligand.sdf

> <i_m_source_file_index>
1

> <s_epik_input>
Tz1DKFtPSF0pW0NIMl1bQ0gyXWMoYzFbQ0gzXSljKFtDSDJdMiluM2MxW0NIMl1jKGMoYzRbQ0gzXSlbQ0hdPVtDSDJdKW41YzRbQ0gyXWMoYyhjNltDSDNdKVtDSF09W0NIMl0pbjdjNltDSDJdYzhjKFtDSDNdKWMoW0NIM10pYzJuOFtGZV0zNTc=

> <s_epik_cmdline>
J2VwaWtfYXBwJywgJy1pbWFlJywgJ2xpZ2FuZF9wcm8ubWFlJywgJy1vbWFlJywgJ2xpZ2FuZF9wcmVwLm1hZScsICctbXMnLCAnMScsICctcGgnLCAnNycsICctcGh0JywgJzAuNScsICctbnQn

> <r_lp_tautomer_probability>
1

> <r_epik_Ionization_Penalty>
  0.0023

> <r_epik_Ionization_Penalty_Charging>
  0.0023

> <r_epik_Ionization_Penalty_Neutral>
  0.0000

> <r_epik_State_Penalty>
 -0.0000

> <r_epik_Charging_Adjusted_Penalty>
0.00232491808696228

> <i_epik_Tot_Q>
-1

> <i_epik_Tot_abs_Q>
1

$$$$
