2z9g_ligand
                    3D
 Schrodinger Suite 2020-3.
 12 12  0  0  1  0            999 V2000
   21.3200   -1.7070   18.7490 C   0  0  0  0  0  0
   20.7960   -2.9760   18.1710 C   0  0  0  0  0  0
   19.5290   -3.0470   17.7080 C   0  0  0  0  0  0
   18.6490   -1.8460   17.7750 C   0  0  0  0  0  0
   19.1220   -0.6880   18.3010 C   0  0  0  0  0  0
   20.5180   -0.6130   18.8110 C   0  0  0  0  0  0
   22.3434   -1.6568   19.1208 H   0  0  0  0  0  0
   21.4399   -3.8541   18.1213 H   0  0  0  0  0  0
   19.1517   -3.9790   17.2871 H   0  0  0  0  0  0
   17.6262   -1.8978   17.4018 H   0  0  0  0  0  0
   18.4776    0.1897   18.3501 H   0  0  0  0  0  0
   20.8959    0.3181   19.2334 H   0  0  0  0  0  0
  1  2  2  0  0  0
  1  6  1  0  0  0
  1  7  1  0  0  0
  2  3  1  0  0  0
  2  8  1  0  0  0
  3  4  2  0  0  0
  3  9  1  0  0  0
  4  5  1  0  0  0
  4 10  1  0  0  0
  5  6  2  0  0  0
  5 11  1  0  0  0
  6 12  1  0  0  0
M  END
> <s_m_source_file>
../2z9g_ligand.sdf

> <i_m_source_file_index>
1

> <s_epik_input>
W2NIXTFbY0hdW2NIXVtjSF1bY0hdW2NIXTE=

> <s_epik_cmdline>
J2VwaWtfYXBwJywgJy1pbWFlJywgJ2xpZ2FuZF9wcm8ubWFlJywgJy1vbWFlJywgJ2xpZ2FuZF9wcmVwLm1hZScsICctbXMnLCAnMScsICctcGgnLCAnNycsICctcGh0JywgJzAuNScsICctbnQn

> <r_lp_tautomer_probability>
1

> <r_epik_Ionization_Penalty>
  0.0000

> <r_epik_Ionization_Penalty_Charging>
  0.0000

> <r_epik_Ionization_Penalty_Neutral>
  0.0000

> <r_epik_State_Penalty>
 -0.0000

> <r_epik_Charging_Adjusted_Penalty>
0

> <i_epik_Tot_Q>
0

> <i_epik_Tot_abs_Q>
0

$$$$
