2za3_ligand
                    3D
 Schrodinger Suite 2020-3.
 32 33  0  0  1  0            999 V2000
  -38.9590  -21.8900   -6.6310 N   0  0  0  0  0  0
  -39.7930  -22.0870   -5.5310 C   0  0  0  0  0  0
  -41.1460  -22.0200   -5.6900 N   0  0  0  0  0  0
  -41.7050  -21.7590   -6.9150 C   0  0  0  0  0  0
  -40.8640  -21.5540   -8.0530 C   0  0  0  0  0  0
  -39.5100  -21.6240   -7.8860 C   0  0  0  0  0  0
  -39.3460  -22.3240   -4.4220 O   0  0  0  0  0  0
  -42.9100  -21.7010   -7.0370 O   0  0  0  0  0  0
  -37.4880  -21.9510   -6.5360 C   0  0  1  0  0  0
  -36.8830  -20.5800   -6.1990 C   0  0  2  0  0  0
  -36.5120  -19.9260   -7.3940 O   0  0  0  0  0  0
  -35.6930  -20.9050   -5.3120 C   0  0  1  0  0  0
  -35.6920  -22.4210   -5.1210 C   0  0  2  0  0  0
  -34.4660  -20.4970   -5.9430 O   0  0  0  0  0  0
  -37.0160  -22.8630   -5.5140 O   0  0  0  0  0  0
  -35.4500  -22.7040   -3.6430 C   0  0  0  0  0  0
  -35.4160  -24.1020   -3.3720 O   0  0  0  0  0  0
  -35.1420  -24.2650   -1.7830 P   0  0  0  0  0  0
  -36.2410  -23.6430   -1.0140 O   0  0  0  0  0  0
  -35.0780  -25.8230   -1.4330 O   0  5  0  0  0  0
  -33.7440  -23.5750   -1.4000 O   0  5  0  0  0  0
  -41.8096  -22.1766   -4.8268 H   0  0  0  0  0  0
  -41.2940  -21.3463   -9.0328 H   0  0  0  0  0  0
  -38.8526  -21.4705   -8.7418 H   0  0  0  0  0  0
  -37.1833  -22.3531   -7.5135 H   0  0  0  0  0  0
  -37.5596  -19.8425   -5.7425 H   0  0  0  0  0  0
  -37.2820  -19.6356   -8.1239 H   0  0  0  0  0  0
  -35.7201  -20.3462   -4.3649 H   0  0  0  0  0  0
  -34.9529  -22.9608   -5.7311 H   0  0  0  0  0  0
  -34.2871  -19.4339   -6.1618 H   0  0  0  0  0  0
  -34.4862  -22.2694   -3.3395 H   0  0  0  0  0  0
  -36.2584  -22.2557   -3.0467 H   0  0  0  0  0  0
  1  2  1  0  0  0
  1  6  1  0  0  0
  1  9  1  0  0  0
  2  3  1  0  0  0
  2  7  2  0  0  0
  3  4  1  0  0  0
  3 22  1  0  0  0
  4  5  1  0  0  0
  4  8  2  0  0  0
  5  6  2  0  0  0
  5 23  1  0  0  0
  6 24  1  0  0  0
  9 10  1  0  0  0
  9 15  1  0  0  0
  9 25  1  0  0  0
 10 11  1  0  0  0
 10 12  1  0  0  0
 10 26  1  0  0  0
 11 27  1  0  0  0
 12 13  1  0  0  0
 12 14  1  0  0  0
 12 28  1  0  0  0
 13 15  1  0  0  0
 13 16  1  0  0  0
 13 29  1  0  0  0
 14 30  1  0  0  0
 16 17  1  0  0  0
 16 31  1  0  0  0
 16 32  1  0  0  0
 17 18  1  0  0  0
 18 19  2  0  0  0
 18 20  1  0  0  0
 18 21  1  0  0  0
M  CHG  2  20  -1  21  -1
M  END
> <s_m_source_file>
../2za3_ligand.sdf

> <i_m_source_file_index>
1

> <s_epik_input>
W2NIXTFbY0hdYyg9TylbbkhdYyg9TyluMVtDQEhdMltDQEhdKFtPSF0pW0NASF0oW09IXSlbQ0BIXShPMilbQ0gyXU9QKD1PKShbT0hdKVtPSF0=

> <s_epik_cmdline>
J2VwaWtfYXBwJywgJy1pbWFlJywgJ2xpZ2FuZF9wcm8ubWFlJywgJy1vbWFlJywgJ2xpZ2FuZF9wcmVwLm1hZScsICctbXMnLCAnMScsICctcGgnLCAnNycsICctcGh0JywgJzAuNScsICctbnQn

> <r_lp_tautomer_probability>
0.999537046341301

> <r_epik_Ionization_Penalty>
  0.1082

> <r_epik_Ionization_Penalty_Charging>
  0.1082

> <r_epik_Ionization_Penalty_Neutral>
  0.0000

> <r_epik_State_Penalty>
  0.0955

> <r_epik_Charging_Adjusted_Penalty>
0.203721441546161

> <i_epik_Tot_Q>
-2

> <i_epik_Tot_abs_Q>
2

> <s_epik_Chemistry_Notes>
This compound contains an acetal/aminal-like group ( X-CH(R)-Y where X, Y are N, S, or O) that may be acid/base labile, releasing an aldehyde.

$$$$
