2zas_ligand
                    3D
 Schrodinger Suite 2020-3.
 32 33  0  0  1  0            999 V2000
   16.5670   23.4480   42.3290 O   0  0  0  0  0  0
   16.2750   24.7520   42.0490 C   0  0  0  0  0  0
   15.1420   25.3580   42.5920 C   0  0  0  0  0  0
   14.8560   26.6920   42.2850 C   0  0  0  0  0  0
   17.1220   25.4780   41.2100 C   0  0  0  0  0  0
   16.8410   26.8040   40.9150 C   0  0  0  0  0  0
   15.7020   27.4270   41.4470 C   0  0  0  0  0  0
   15.4160   28.8740   41.1150 C   0  0  0  0  0  0
   16.4640   29.7570   41.7830 C   0  0  0  0  0  0
   14.0620   29.3260   41.6500 C   0  0  0  0  0  0
   15.4480   29.0210   39.6100 C   0  0  0  0  0  0
   16.6270   29.3760   38.9420 C   0  0  0  0  0  0
   16.6470   29.4930   37.5520 C   0  0  0  0  0  0
   15.4890   29.2540   36.8190 C   0  0  0  0  0  0
   14.3140   28.8950   37.4770 C   0  0  0  0  0  0
   14.2960   28.7700   38.8640 C   0  0  0  0  0  0
   15.9068   22.8660   42.9889 H   0  0  0  0  0  0
   14.4828   24.7945   43.2524 H   0  0  0  0  0  0
   13.9662   27.1635   42.7022 H   0  0  0  0  0  0
   18.0060   25.0020   40.7858 H   0  0  0  0  0  0
   17.5106   27.3666   40.2645 H   0  0  0  0  0  0
   16.4128   29.6255   42.8739 H   0  0  0  0  0  0
   16.2705   30.8102   41.5312 H   0  0  0  0  0  0
   17.4647   29.4724   41.4259 H   0  0  0  0  0  0
   14.0452   29.2167   42.7444 H   0  0  0  0  0  0
   13.2677   28.7070   41.2074 H   0  0  0  0  0  0
   13.8962   30.3804   41.3842 H   0  0  0  0  0  0
   17.5365   29.5624   39.5131 H   0  0  0  0  0  0
   17.5687   29.7713   37.0410 H   0  0  0  0  0  0
   15.5006   29.3473   35.7331 H   0  0  0  0  0  0
   13.4053   28.7113   36.9037 H   0  0  0  0  0  0
   13.3767   28.4744   39.3696 H   0  0  0  0  0  0
  1  2  1  0  0  0
  1 17  1  0  0  0
  2  3  2  0  0  0
  2  5  1  0  0  0
  3  4  1  0  0  0
  3 18  1  0  0  0
  4  7  2  0  0  0
  4 19  1  0  0  0
  5  6  2  0  0  0
  5 20  1  0  0  0
  6  7  1  0  0  0
  6 21  1  0  0  0
  7  8  1  0  0  0
  8  9  1  0  0  0
  8 10  1  0  0  0
  8 11  1  0  0  0
  9 22  1  0  0  0
  9 23  1  0  0  0
  9 24  1  0  0  0
 10 25  1  0  0  0
 10 26  1  0  0  0
 10 27  1  0  0  0
 11 12  2  0  0  0
 11 16  1  0  0  0
 12 13  1  0  0  0
 12 28  1  0  0  0
 13 14  2  0  0  0
 13 29  1  0  0  0
 14 15  1  0  0  0
 14 30  1  0  0  0
 15 16  2  0  0  0
 15 31  1  0  0  0
 16 32  1  0  0  0
M  END
> <s_m_source_file>
../2zas_ligand.sdf

> <i_m_source_file_index>
1

> <s_epik_input>
W09IXWMxW2NIXVtjSF1jKFtjSF1bY0hdMSlDKFtDSDNdKShbQ0gzXSljMltjSF1bY0hdW2NIXVtjSF1bY0hdMg==

> <s_epik_cmdline>
J2VwaWtfYXBwJywgJy1pbWFlJywgJ2xpZ2FuZF9wcm8ubWFlJywgJy1vbWFlJywgJ2xpZ2FuZF9wcmVwLm1hZScsICctbXMnLCAnMScsICctcGgnLCAnNycsICctcGh0JywgJzAuNScsICctbnQn

> <r_lp_tautomer_probability>
1

> <r_epik_Ionization_Penalty>
  0.0008

> <r_epik_Ionization_Penalty_Charging>
  0.0000

> <r_epik_Ionization_Penalty_Neutral>
  0.0008

> <r_epik_State_Penalty>
 -0.0000

> <r_epik_Charging_Adjusted_Penalty>
0

> <i_epik_Tot_Q>
0

> <i_epik_Tot_abs_Q>
0

$$$$
