2zb0_ligand
                    3D
 Schrodinger Suite 2020-3.
 48 51  0  0  1  0            999 V2000
   48.8280   37.7680   26.1990 N   0  0  0  0  0  0
   48.8270   36.5420   26.7180 C   0  0  0  0  0  0
   48.8050   35.1770   27.3020 C   0  0  0  0  0  0
   49.9450   34.3550   27.2360 C   0  0  0  0  0  0
   49.9010   33.0740   27.7910 C   0  0  0  0  0  0
   48.7190   32.6180   28.4020 C   0  0  0  0  0  0
   47.6260   34.7170   27.9190 C   0  0  0  0  0  0
   47.5690   33.4340   28.4860 C   0  0  0  0  0  0
   46.4430   32.9380   29.0880 N   0  0  0  0  0  0
   45.5340   33.6050   29.8330 C   0  0  0  0  0  0
   45.5840   34.9200   30.0670 O   0  0  0  0  0  0
   44.3250   32.8600   30.3680 C   0  0  0  0  0  0
   44.0670   31.5650   29.9120 C   0  0  0  0  0  0
   43.4430   33.4670   31.2770 C   0  0  0  0  0  0
   42.3180   32.7820   31.7420 C   0  0  0  0  0  0
   42.0780   31.4700   31.2990 C   0  0  0  0  0  0
   42.9480   30.8750   30.3710 C   0  0  0  0  0  0
   40.9290   30.7640   31.6750 C   0  0  0  0  0  0
   40.9170   29.8050   32.6880 C   0  0  0  0  0  0
   39.7100   29.1600   32.9570 C   0  0  0  0  0  0
   39.5280   28.1850   34.0660 C   0  0  0  0  0  0
   38.7310   27.2210   34.1440 O   0  0  0  0  0  0
   38.9620   26.7500   35.2680 C   0  0  0  0  0  0
   38.2060   25.5580   35.7720 C   0  0  0  0  0  0
   39.9080   27.3760   35.9760 N   0  0  0  0  0  0
   40.2930   28.3390   35.1660 N   0  0  0  0  0  0
   38.5450   29.4450   32.2370 C   0  0  0  0  0  0
   38.5510   30.3790   31.2280 C   0  0  0  0  0  0
   39.7410   31.0350   30.9400 C   0  0  0  0  0  0
   39.6660   32.0470   29.8220 C   0  0  0  0  0  0
   50.8549   34.7149   26.7558 H   0  0  0  0  0  0
   50.7795   32.4300   27.7508 H   0  0  0  0  0  0
   48.6897   31.6119   28.8203 H   0  0  0  0  0  0
   46.7491   35.3633   27.9568 H   0  0  0  0  0  0
   46.1916   31.8716   28.9905 H   0  0  0  0  0  0
   44.7417   31.0946   29.1968 H   0  0  0  0  0  0
   43.6382   34.4821   31.6228 H   0  0  0  0  0  0
   41.6328   33.2604   32.4418 H   0  0  0  0  0  0
   42.7462   29.8673   30.0079 H   0  0  0  0  0  0
   41.8202   29.5678   33.2502 H   0  0  0  0  0  0
   37.4873   25.2293   35.0069 H   0  0  0  0  0  0
   37.6653   25.8285   36.6909 H   0  0  0  0  0  0
   38.9106   24.7414   35.9881 H   0  0  0  0  0  0
   37.6209   28.9200   32.4789 H   0  0  0  0  0  0
   37.6428   30.5996   30.6670 H   0  0  0  0  0  0
   40.6550   32.5058   29.6758 H   0  0  0  0  0  0
   38.9348   32.8267   30.0817 H   0  0  0  0  0  0
   39.3535   31.5457   28.8941 H   0  0  0  0  0  0
  1  2  3  0  0  0
  2  3  1  0  0  0
  3  4  2  0  0  0
  3  7  1  0  0  0
  4  5  1  0  0  0
  4 31  1  0  0  0
  5  6  2  0  0  0
  5 32  1  0  0  0
  6  8  1  0  0  0
  6 33  1  0  0  0
  7  8  2  0  0  0
  7 34  1  0  0  0
  8  9  1  0  0  0
  9 10  1  0  0  0
  9 35  1  0  0  0
 10 11  2  0  0  0
 10 12  1  0  0  0
 12 13  2  0  0  0
 12 14  1  0  0  0
 13 17  1  0  0  0
 13 36  1  0  0  0
 14 15  2  0  0  0
 14 37  1  0  0  0
 15 16  1  0  0  0
 15 38  1  0  0  0
 16 17  2  0  0  0
 16 18  1  0  0  0
 17 39  1  0  0  0
 18 19  2  0  0  0
 18 29  1  0  0  0
 19 20  1  0  0  0
 19 40  1  0  0  0
 20 21  1  0  0  0
 20 27  2  0  0  0
 21 22  1  0  0  0
 21 26  2  0  0  0
 22 23  1  0  0  0
 23 24  1  0  0  0
 23 25  2  0  0  0
 24 41  1  0  0  0
 24 42  1  0  0  0
 24 43  1  0  0  0
 25 26  1  0  0  0
 27 28  1  0  0  0
 27 44  1  0  0  0
 28 29  2  0  0  0
 28 45  1  0  0  0
 29 30  1  0  0  0
 30 46  1  0  0  0
 30 47  1  0  0  0
 30 48  1  0  0  0
M  END
> <s_m_source_file>
../2zb0_ligand.sdf

> <i_m_source_file_index>
1

> <s_epik_input>
TiNDYzFbY0hdW2NIXVtjSF1jKFtjSF0xKVtOSF1DKD1PKWMyW2NIXVtjSF1jKFtjSF1bY0hdMiktYzNbY0hdYygtYzRvYyhbQ0gzXSlubjQpW2NIXVtjSF1jM1tDSDNd

> <s_epik_cmdline>
J2VwaWtfYXBwJywgJy1pbWFlJywgJ2xpZ2FuZF9wcm8ubWFlJywgJy1vbWFlJywgJ2xpZ2FuZF9wcmVwLm1hZScsICctbXMnLCAnMScsICctcGgnLCAnNycsICctcGh0JywgJzAuNScsICctbnQn

> <r_lp_tautomer_probability>
1

> <r_epik_Ionization_Penalty>
  0.0000

> <r_epik_Ionization_Penalty_Charging>
  0.0000

> <r_epik_Ionization_Penalty_Neutral>
  0.0000

> <r_epik_State_Penalty>
 -0.0000

> <r_epik_Charging_Adjusted_Penalty>
0

> <i_epik_Tot_Q>
0

> <i_epik_Tot_abs_Q>
0

$$$$
