2zbk_ligand
                    3D
 Schrodinger Suite 2020-3.
 41 43  0  0  1  0            999 V2000
  -61.9170   83.8600  -11.6370 C   0  0  0  0  0  0
  -61.3450   82.5000  -11.8850 C   0  0  0  0  0  0
  -61.8130   81.3490  -11.0760 C   0  0  0  0  0  0
  -61.3060   80.0740  -11.2810 C   0  0  0  0  0  0
  -60.3400   79.8190  -12.2390 C   0  0  0  0  0  0
  -59.8030   80.9020  -13.1020 C   0  0  0  0  0  0
  -60.3100   82.2880  -12.9200 C   0  0  0  0  0  0
  -59.8450   83.4590  -13.7550 C   0  0  0  0  0  0
  -58.3580   83.4740  -13.9770 C   0  0  0  0  0  0
  -57.4850   84.2580  -13.0900 C   0  0  0  0  0  0
  -57.8260   84.6240  -11.8520 C   0  0  0  0  0  0
  -56.8440   85.4060  -11.0920 C   0  0  0  0  0  0
  -57.1310   86.1380  -10.0120 C   0  0  0  0  0  0
  -58.5220   86.2300   -9.4320 C   0  0  2  0  0  0
  -59.4510   87.0280  -10.3380 C   0  0  1  0  0  0
  -60.9090   86.7220  -10.0080 C   0  0  0  0  0  0
  -61.7000   86.1940  -11.1990 C   0  0  1  0  0  0
  -61.8330   87.2710  -12.2670 C   0  0  0  0  0  0
  -61.0700   85.0360  -11.7510 O   0  0  0  0  0  0
  -63.0940   83.9980  -11.3290 O   0  0  0  0  0  0
  -62.7560   81.5510  -10.1190 O   0  0  0  0  0  0
  -59.8880   78.5440  -12.3830 O   0  5  0  0  0  0
  -58.7560   80.5650  -14.1280 Cl  0  0  0  0  0  0
  -57.8600   82.8610  -14.9040 O   0  0  0  0  0  0
  -58.8320   87.5970   -9.1870 O   0  0  0  0  0  0
  -61.6784   79.2509  -10.6712 H   0  0  0  0  0  0
  -60.3281   83.4200  -14.7424 H   0  0  0  0  0  0
  -60.1154   84.3988  -13.2514 H   0  0  0  0  0  0
  -56.5038   84.5434  -13.4973 H   0  0  0  0  0  0
  -58.8069   84.3381  -11.4445 H   0  0  0  0  0  0
  -55.8111   85.3616  -11.4678 H   0  0  0  0  0  0
  -56.3369   86.7069   -9.5062 H   0  0  0  0  0  0
  -58.5911   85.2881   -8.8681 H   0  0  0  0  0  0
  -59.4914   87.2684  -11.4106 H   0  0  0  0  0  0
  -60.9535   85.9590   -9.2169 H   0  0  0  0  0  0
  -61.4068   87.6395   -9.6609 H   0  0  0  0  0  0
  -62.6913   85.8500  -10.8688 H   0  0  0  0  0  0
  -62.3185   88.1583  -11.8345 H   0  0  0  0  0  0
  -62.4423   86.8888  -13.0993 H   0  0  0  0  0  0
  -60.8344   87.5440  -12.6388 H   0  0  0  0  0  0
  -63.1622   82.5594   -9.9513 H   0  0  0  0  0  0
  1  2  1  0  0  0
  1 19  1  0  0  0
  1 20  2  0  0  0
  2  3  2  0  0  0
  2  7  1  0  0  0
  3  4  1  0  0  0
  3 21  1  0  0  0
  4  5  2  0  0  0
  4 26  1  0  0  0
  5  6  1  0  0  0
  5 22  1  0  0  0
  6  7  2  0  0  0
  6 23  1  0  0  0
  7  8  1  0  0  0
  8  9  1  0  0  0
  8 27  1  0  0  0
  8 28  1  0  0  0
  9 10  1  0  0  0
  9 24  2  0  0  0
 10 11  2  0  0  0
 10 29  1  0  0  0
 11 12  1  0  0  0
 11 30  1  0  0  0
 12 13  2  0  0  0
 12 31  1  0  0  0
 13 14  1  0  0  0
 13 32  1  0  0  0
 14 15  1  0  0  0
 14 25  1  0  0  0
 14 33  1  0  0  0
 15 16  1  0  0  0
 15 25  1  0  0  0
 15 34  1  0  0  0
 16 17  1  0  0  0
 16 35  1  0  0  0
 16 36  1  0  0  0
 17 18  1  0  0  0
 17 19  1  0  0  0
 17 37  1  0  0  0
 18 38  1  0  0  0
 18 39  1  0  0  0
 18 40  1  0  0  0
 21 41  1  0  0  0
M  CHG  1  22  -1
M  END
> <s_m_source_file>
../2zbk_ligand.sdf

> <i_m_source_file_index>
1

> <s_epik_input>
Tz1DMU9bQ0BIXShbQ0gzXSlbQ0gyXVtDQEBIXShPMilbQ0BIXTIvW0NIXT1bQ0hdXFtDSF09W0NIXVxDKD1PKVtDSDJdYyhjMTMpYyhDbCljKFtPSF0pW2NIXWMzW09IXQ==

> <s_epik_cmdline>
J2VwaWtfYXBwJywgJy1pbWFlJywgJ2xpZ2FuZF9wcm8ubWFlJywgJy1vbWFlJywgJ2xpZ2FuZF9wcmVwLm1hZScsICctbXMnLCAnMScsICctcGgnLCAnNycsICctcGh0JywgJzAuNScsICctbnQn

> <r_lp_tautomer_probability>
1

> <r_epik_Ionization_Penalty>
  0.1546

> <r_epik_Ionization_Penalty_Charging>
  0.1543

> <r_epik_Ionization_Penalty_Neutral>
  0.0003

> <r_epik_State_Penalty>
 -0.0000

> <r_epik_Charging_Adjusted_Penalty>
0.154313068608035

> <i_epik_Tot_Q>
-1

> <i_epik_Tot_abs_Q>
1

> <s_epik_Chemistry_Notes>
This compound has an ester and may undergo hydrolysis at high or low pH.

$$$$
