2zc9_ligand
                    3D
 Schrodinger Suite 2020-3.
 52 54  0  0  1  0            999 V2000
   18.1650  -14.9640   24.7310 C   0  0  0  0  0  0
   16.3050  -15.7140   23.2320 N   0  3  0  0  0  0
   17.6270  -15.0160   23.2870 C   0  0  1  0  0  0
   17.4490  -13.6090   22.7270 C   0  0  0  0  0  0
   16.4680  -12.9820   23.1440 O   0  0  0  0  0  0
   18.1330  -13.1630   21.6570 N   0  0  0  0  0  0
   19.2070  -13.9150   20.9810 C   0  0  0  0  0  0
   19.9730  -12.7300   20.3520 C   0  0  0  0  0  0
   18.8240  -11.7770   19.9170 C   0  0  0  0  0  0
   17.8360  -11.8460   21.1120 C   0  0  1  0  0  0
   16.4020  -11.7500   20.6340 C   0  0  0  0  0  0
   15.7260  -10.6080   20.9320 N   0  0  0  0  0  0
   14.3690  -10.4430   20.3670 C   0  0  0  0  0  0
   13.3410  -10.3610   21.5130 C   0  0  0  0  0  0
   13.2880   -9.2590   22.3860 C   0  0  0  0  0  0
   12.3350   -9.2340   23.4100 C   0  0  0  0  0  0
   11.4380  -10.2950   23.5610 C   0  0  0  0  0  0
   11.5120  -11.3900   22.7010 C   0  0  0  0  0  0
   12.4440  -11.4030   21.6720 C   0  0  0  0  0  0
   15.8850  -12.6720   20.0140 O   0  0  0  0  0  0
   19.5640  -14.3300   24.8080 C   0  0  0  0  0  0
   20.6640  -14.8530   24.1100 C   0  0  0  0  0  0
   21.9170  -14.2340   24.2320 C   0  0  0  0  0  0
   22.0730  -13.0830   24.9910 C   0  0  0  0  0  0
   20.9960  -12.5890   25.7570 C   0  0  0  0  0  0
   19.7440  -13.1800   25.5860 C   0  0  0  0  0  0
   12.2410   -7.8830   24.5260 Cl  0  0  0  0  0  0
   17.4843  -14.3658   25.3545 H   0  0  0  0  0  0
   18.2302  -15.9850   25.1350 H   0  0  0  0  0  0
   16.4115  -16.7330   23.6323 H   0  0  0  0  0  0
   15.9599  -15.7641   22.1887 H   0  0  0  0  0  0
   15.5715  -15.1581   23.8345 H   0  0  0  0  0  0
   18.3418  -15.5814   22.6710 H   0  0  0  0  0  0
   19.7819  -14.4836   21.7268 H   0  0  0  0  0  0
   18.7651  -14.6095   20.2514 H   0  0  0  0  0  0
   20.6369  -12.2812   21.1055 H   0  0  0  0  0  0
   20.5726  -13.0902   19.5030 H   0  0  0  0  0  0
   19.2262  -10.7652   19.7606 H   0  0  0  0  0  0
   18.3786  -12.1433   18.9803 H   0  0  0  0  0  0
   17.9372  -11.0634   21.8783 H   0  0  0  0  0  0
   16.1557   -9.8213   21.5696 H   0  0  0  0  0  0
   14.3294   -9.5185   19.7723 H   0  0  0  0  0  0
   14.1326  -11.3033   19.7235 H   0  0  0  0  0  0
   13.9851   -8.4298   22.2653 H   0  0  0  0  0  0
   10.6839  -10.2666   24.3476 H   0  0  0  0  0  0
   10.8381  -12.2359   22.8366 H   0  0  0  0  0  0
   12.4696  -12.2450   20.9802 H   0  0  0  0  0  0
   20.5455  -15.7332   23.4781 H   0  0  0  0  0  0
   22.7802  -14.6633   23.7234 H   0  0  0  0  0  0
   23.0291  -12.5596   24.9955 H   0  0  0  0  0  0
   21.1381  -11.7696   26.4617 H   0  0  0  0  0  0
   18.8782  -12.7321   26.0737 H   0  0  0  0  0  0
  1  3  1  0  0  0
  1 21  1  0  0  0
  1 28  1  0  0  0
  1 29  1  0  0  0
  2  3  1  0  0  0
  2 30  1  0  0  0
  2 31  1  0  0  0
  2 32  1  0  0  0
  3  4  1  0  0  0
  3 33  1  0  0  0
  4  5  2  0  0  0
  4  6  1  0  0  0
  6  7  1  0  0  0
  6 10  1  0  0  0
  7  8  1  0  0  0
  7 34  1  0  0  0
  7 35  1  0  0  0
  8  9  1  0  0  0
  8 36  1  0  0  0
  8 37  1  0  0  0
  9 10  1  0  0  0
  9 38  1  0  0  0
  9 39  1  0  0  0
 10 11  1  0  0  0
 10 40  1  0  0  0
 11 12  1  0  0  0
 11 20  2  0  0  0
 12 13  1  0  0  0
 12 41  1  0  0  0
 13 14  1  0  0  0
 13 42  1  0  0  0
 13 43  1  0  0  0
 14 15  2  0  0  0
 14 19  1  0  0  0
 15 16  1  0  0  0
 15 44  1  0  0  0
 16 17  2  0  0  0
 16 27  1  0  0  0
 17 18  1  0  0  0
 17 45  1  0  0  0
 18 19  2  0  0  0
 18 46  1  0  0  0
 19 47  1  0  0  0
 21 22  2  0  0  0
 21 26  1  0  0  0
 22 23  1  0  0  0
 22 48  1  0  0  0
 23 24  2  0  0  0
 23 49  1  0  0  0
 24 25  1  0  0  0
 24 50  1  0  0  0
 25 26  2  0  0  0
 25 51  1  0  0  0
 26 52  1  0  0  0
M  CHG  1   2   1
M  END
> <s_m_source_file>
../2zc9_ligand.sdf

> <i_m_source_file_index>
1

> <s_epik_input>
W2NIXTFbY0hdW2NIXVtjSF1bY0hdYzFbQ0gyXVtDQEBIXShbTkgzK10pQyg9TylOMltDSDJdW0NIMl1bQ0gyXVtDQEhdMkMoPU8pW05IXVtDSDJdYzNbY0hdYyhDbClbY0hdW2NIXVtjSF0z

> <s_epik_cmdline>
J2VwaWtfYXBwJywgJy1pbWFlJywgJ2xpZ2FuZF9wcm8ubWFlJywgJy1vbWFlJywgJ2xpZ2FuZF9wcmVwLm1hZScsICctbXMnLCAnMScsICctcGgnLCAnNycsICctcGh0JywgJzAuNScsICctbnQn

> <r_epik_Ionization_Penalty>
  0.1825

> <r_epik_Ionization_Penalty_Charging>
  0.1825

> <r_epik_Ionization_Penalty_Neutral>
  0.0000

> <r_epik_State_Penalty>
  0.1720

> <r_epik_Charging_Adjusted_Penalty>
0.354512576374698

> <i_epik_Tot_Q>
1

> <i_epik_Tot_abs_Q>
1

$$$$
