2zdk_ligand
                    3D
 Schrodinger Suite 2020-3.
 61 63  0  0  1  0            999 V2000
  -28.2180    1.1660   15.6290 N   0  0  0  0  0  0
  -27.3600    0.6920   14.5660 C   0  0  2  0  0  0
  -26.2580    1.6720   14.2550 C   0  0  0  0  0  0
  -26.4490    2.8830   14.2990 O   0  0  0  0  0  0
  -25.1720    1.0840   13.9540 N   0  0  0  0  0  0
  -24.0160    1.8370   13.5330 C   0  0  0  0  0  0
  -22.8910    1.6630   14.5790 C   0  0  0  0  0  0
  -23.1280    2.0080   15.9130 C   0  0  0  0  0  0
  -22.1060    1.8500   16.8660 C   0  0  0  0  0  0
  -20.8550    1.3520   16.4840 C   0  0  0  0  0  0
  -19.7110    1.1550   17.4450 C   0  0  0  0  0  0
  -19.5400    1.9560   18.4330 N   0  0  0  0  0  0
  -18.9210    0.1650   17.2410 N   0  3  0  0  0  0
  -20.6190    1.0040   15.1340 C   0  0  0  0  0  0
  -21.6500    1.1670   14.1960 C   0  0  0  0  0  0
  -28.4040    0.6790   13.4290 C   0  0  0  0  0  0
  -29.8010    0.6590   14.0610 C   0  0  0  0  0  0
  -29.6640    1.2570   15.4840 C   0  0  0  0  0  0
  -27.7110    1.4180   16.7930 C   0  0  0  0  0  0
  -28.5150    2.0160   17.9480 C   0  0  0  0  0  0
  -28.5040    1.0490   19.1550 C   0  0  0  0  0  0
  -29.0880   -0.3620   18.8720 C   0  0  0  0  0  0
  -28.7730   -1.3790   19.9770 C   0  0  0  0  0  0
  -29.1740   -2.8440   19.6310 C   0  0  0  0  0  0
  -30.6150   -2.9330   19.1270 C   0  0  0  0  0  0
  -31.0910   -1.7790   18.2420 C   0  0  0  0  0  0
  -30.5990   -0.3640   18.5680 C   0  0  0  0  0  0
  -26.5330    1.2180   17.0320 O   0  0  0  0  0  0
  -26.8401   -0.2445   14.8162 H   0  0  0  0  0  0
  -25.1205   -0.0129   14.0177 H   0  0  0  0  0  0
  -23.6732    1.4666   12.5556 H   0  0  0  0  0  0
  -24.2821    2.9010   13.4491 H   0  0  0  0  0  0
  -24.1007    2.3977   16.2131 H   0  0  0  0  0  0
  -22.2890    2.1166   17.9069 H   0  0  0  0  0  0
  -20.2322    2.7973   18.5852 H   0  0  0  0  0  0
  -18.7013    1.8013   19.1277 H   0  0  0  0  0  0
  -19.0902   -0.5066   16.3864 H   0  0  0  0  0  0
  -19.6488    0.6142   14.8259 H   0  0  0  0  0  0
  -21.4755    0.9012   13.1534 H   0  0  0  0  0  0
  -28.2824    1.5797   12.8093 H   0  0  0  0  0  0
  -28.2577   -0.2164   12.8071 H   0  0  0  0  0  0
  -30.4883    1.2629   13.4504 H   0  0  0  0  0  0
  -30.1671   -0.3772   14.1087 H   0  0  0  0  0  0
  -30.1497    0.6665   16.2748 H   0  0  0  0  0  0
  -29.9755    2.3086   15.5680 H   0  0  0  0  0  0
  -28.0678    2.9751   18.2481 H   0  0  0  0  0  0
  -29.5536    2.1807   17.6252 H   0  0  0  0  0  0
  -27.4687    0.8987   19.4950 H   0  0  0  0  0  0
  -29.1002    1.4779   19.9739 H   0  0  0  0  0  0
  -28.5722   -0.6924   17.9583 H   0  0  0  0  0  0
  -27.6914   -1.3796   20.1772 H   0  0  0  0  0  0
  -29.3154   -1.1043   20.8937 H   0  0  0  0  0  0
  -28.5083   -3.2305   18.8452 H   0  0  0  0  0  0
  -29.0827   -3.4712   20.5300 H   0  0  0  0  0  0
  -30.7380   -3.8471   18.5276 H   0  0  0  0  0  0
  -31.3025   -2.9621   19.9852 H   0  0  0  0  0  0
  -30.7729   -1.9575   17.2042 H   0  0  0  0  0  0
  -32.1883   -1.7139   18.2831 H   0  0  0  0  0  0
  -31.1498    0.0082   19.4444 H   0  0  0  0  0  0
  -30.8002    0.2874   17.7048 H   0  0  0  0  0  0
  -18.0745   -0.0123   17.9207 H   0  0  0  0  0  0
  1  2  1  0  0  0
  1 18  1  0  0  0
  1 19  1  0  0  0
  2  3  1  0  0  0
  2 16  1  0  0  0
  2 29  1  0  0  0
  3  4  2  0  0  0
  3  5  1  0  0  0
  5  6  1  0  0  0
  5 30  1  0  0  0
  6  7  1  0  0  0
  6 31  1  0  0  0
  6 32  1  0  0  0
  7  8  2  0  0  0
  7 15  1  0  0  0
  8  9  1  0  0  0
  8 33  1  0  0  0
  9 10  2  0  0  0
  9 34  1  0  0  0
 10 11  1  0  0  0
 10 14  1  0  0  0
 11 12  1  0  0  0
 11 13  2  0  0  0
 12 35  1  0  0  0
 12 36  1  0  0  0
 13 37  1  0  0  0
 13 61  1  0  0  0
 14 15  2  0  0  0
 14 38  1  0  0  0
 15 39  1  0  0  0
 16 17  1  0  0  0
 16 40  1  0  0  0
 16 41  1  0  0  0
 17 18  1  0  0  0
 17 42  1  0  0  0
 17 43  1  0  0  0
 18 44  1  0  0  0
 18 45  1  0  0  0
 19 20  1  0  0  0
 19 28  2  0  0  0
 20 21  1  0  0  0
 20 46  1  0  0  0
 20 47  1  0  0  0
 21 22  1  0  0  0
 21 48  1  0  0  0
 21 49  1  0  0  0
 22 23  1  0  0  0
 22 27  1  0  0  0
 22 50  1  0  0  0
 23 24  1  0  0  0
 23 51  1  0  0  0
 23 52  1  0  0  0
 24 25  1  0  0  0
 24 53  1  0  0  0
 24 54  1  0  0  0
 25 26  1  0  0  0
 25 55  1  0  0  0
 25 56  1  0  0  0
 26 27  1  0  0  0
 26 57  1  0  0  0
 26 58  1  0  0  0
 27 59  1  0  0  0
 27 60  1  0  0  0
M  CHG  1  13   1
M  END
> <s_m_source_file>
../2zdk_ligand.sdf

> <i_m_source_file_index>
1

> <s_epik_input>
W0NIMl0xW0NIMl1bQ0gyXVtDSDJdW0NIMl1bQ0hdMVtDSDJdW0NIMl1DKD1PKU4yW0NAQEhdKFtDSDJdW0NIMl1bQ0gyXTIpQyg9TylbTkhdW0NIMl1jM1tjSF1bY0hdYygvQyhbTkgyXSk9TlxbSF0pW2NIXVtjSF0z

> <s_epik_cmdline>
J2VwaWtfYXBwJywgJy1pbWFlJywgJ2xpZ2FuZF9wcm8ubWFlJywgJy1vbWFlJywgJ2xpZ2FuZF9wcmVwLm1hZScsICctbXMnLCAnMScsICctcGgnLCAnNycsICctcGh0JywgJzAuNScsICctbnQn

> <r_lp_tautomer_probability>
1

> <r_epik_Ionization_Penalty>
  0.0002

> <r_epik_Ionization_Penalty_Charging>
  0.0002

> <r_epik_Ionization_Penalty_Neutral>
  0.0000

> <r_epik_State_Penalty>
 -0.0000

> <r_epik_Charging_Adjusted_Penalty>
0.000162947685306239

> <i_epik_Tot_Q>
1

> <i_epik_Tot_abs_Q>
1

> <s_epik_Chemistry_Notes>
This compound has an imine and may undergo hydrolysis.

$$$$
