2zdm_ligand
                    3D
 Schrodinger Suite 2020-3.
 59 61  0  0  1  0            999 V2000
  -26.6630    1.1520   17.1460 O   0  0  0  0  0  0
  -27.8210    1.2100   16.7650 C   0  0  0  0  0  0
  -28.7790    1.6750   17.8730 C   0  0  0  0  0  0
  -29.5470    0.7560   18.6000 O   0  0  0  0  0  0
  -29.3230   -0.6090   18.7210 C   0  0  0  0  0  0
  -30.5900   -1.4470   18.7640 C   0  0  0  0  0  0
  -30.4370   -2.9300   18.9920 C   0  0  0  0  0  0
  -29.7920   -2.9940   20.3180 C   0  0  0  0  0  0
  -28.4840   -2.2660   20.3640 C   0  0  0  0  0  0
  -28.6890   -0.8300   20.0270 C   0  0  0  0  0  0
  -28.2210    0.9450   15.5780 N   0  0  0  0  0  0
  -27.1950    0.5070   14.6360 C   0  0  1  0  0  0
  -27.8160    0.2810   13.2540 C   0  0  0  0  0  0
  -29.2250    0.8260   13.4310 C   0  0  0  0  0  0
  -29.5640    0.8420   14.9210 C   0  0  0  0  0  0
  -26.0800    1.5080   14.3320 C   0  0  0  0  0  0
  -26.2290    2.7270   14.4250 O   0  0  0  0  0  0
  -24.8470    1.0860   13.9490 N   0  0  0  0  0  0
  -23.6840    1.9440   13.6630 C   0  0  0  0  0  0
  -22.5750    1.7540   14.6850 C   0  0  0  0  0  0
  -21.3520    1.2480   14.2390 C   0  0  0  0  0  0
  -20.3190    1.0630   15.1510 C   0  0  0  0  0  0
  -20.4690    1.3680   16.4970 C   0  0  0  0  0  0
  -19.3280    1.1530   17.4440 C   0  0  0  0  0  0
  -18.5040    0.1500   17.2140 N   0  3  0  0  0  0
  -19.1320    1.9360   18.4910 N   0  0  0  0  0  0
  -21.6540    1.8630   16.9540 C   0  0  0  0  0  0
  -22.7000    2.0540   16.0500 C   0  0  0  0  0  0
  -28.2097    2.2030   18.6522 H   0  0  0  0  0  0
  -29.5320    2.3536   17.4458 H   0  0  0  0  0  0
  -28.7062   -0.8292   17.8372 H   0  0  0  0  0  0
  -31.2364   -1.0927   19.5805 H   0  0  0  0  0  0
  -31.1240   -1.3538   17.8068 H   0  0  0  0  0  0
  -31.4281   -3.4071   18.9793 H   0  0  0  0  0  0
  -29.8124   -3.3609   18.1956 H   0  0  0  0  0  0
  -30.4546   -2.5413   21.0703 H   0  0  0  0  0  0
  -29.6008   -4.0445   20.5825 H   0  0  0  0  0  0
  -28.0567   -2.3434   21.3746 H   0  0  0  0  0  0
  -27.7898   -2.7130   19.6372 H   0  0  0  0  0  0
  -27.7001   -0.3484   20.0407 H   0  0  0  0  0  0
  -29.3187   -0.3970   20.8182 H   0  0  0  0  0  0
  -26.8098   -0.3713   15.1747 H   0  0  0  0  0  0
  -27.2377    0.8319   12.4976 H   0  0  0  0  0  0
  -27.8010   -0.7929   13.0164 H   0  0  0  0  0  0
  -29.2765    1.8475   13.0263 H   0  0  0  0  0  0
  -29.9373    0.1825   12.8938 H   0  0  0  0  0  0
  -30.0627   -0.0820   15.2489 H   0  0  0  0  0  0
  -30.1779    1.7100   15.2034 H   0  0  0  0  0  0
  -24.7599   -0.0068   13.8582 H   0  0  0  0  0  0
  -23.2824    1.6979   12.6690 H   0  0  0  0  0  0
  -23.9934    2.9994   13.6824 H   0  0  0  0  0  0
  -21.2089    1.0008   13.1871 H   0  0  0  0  0  0
  -19.3658    0.6679   14.7997 H   0  0  0  0  0  0
  -18.6631   -0.5041   16.3441 H   0  0  0  0  0  0
  -19.8170    2.7741   18.6869 H   0  0  0  0  0  0
  -18.2840    1.7494   19.1663 H   0  0  0  0  0  0
  -21.7826    2.1058   18.0088 H   0  0  0  0  0  0
  -23.6469    2.4500   16.4171 H   0  0  0  0  0  0
  -17.6573   -0.0328   17.8920 H   0  0  0  0  0  0
  1  2  2  0  0  0
  2  3  1  0  0  0
  2 11  1  0  0  0
  3  4  1  0  0  0
  3 29  1  0  0  0
  3 30  1  0  0  0
  4  5  1  0  0  0
  5  6  1  0  0  0
  5 10  1  0  0  0
  5 31  1  0  0  0
  6  7  1  0  0  0
  6 32  1  0  0  0
  6 33  1  0  0  0
  7  8  1  0  0  0
  7 34  1  0  0  0
  7 35  1  0  0  0
  8  9  1  0  0  0
  8 36  1  0  0  0
  8 37  1  0  0  0
  9 10  1  0  0  0
  9 38  1  0  0  0
  9 39  1  0  0  0
 10 40  1  0  0  0
 10 41  1  0  0  0
 11 12  1  0  0  0
 11 15  1  0  0  0
 12 13  1  0  0  0
 12 16  1  0  0  0
 12 42  1  0  0  0
 13 14  1  0  0  0
 13 43  1  0  0  0
 13 44  1  0  0  0
 14 15  1  0  0  0
 14 45  1  0  0  0
 14 46  1  0  0  0
 15 47  1  0  0  0
 15 48  1  0  0  0
 16 17  2  0  0  0
 16 18  1  0  0  0
 18 19  1  0  0  0
 18 49  1  0  0  0
 19 20  1  0  0  0
 19 50  1  0  0  0
 19 51  1  0  0  0
 20 21  2  0  0  0
 20 28  1  0  0  0
 21 22  1  0  0  0
 21 52  1  0  0  0
 22 23  2  0  0  0
 22 53  1  0  0  0
 23 24  1  0  0  0
 23 27  1  0  0  0
 24 25  2  0  0  0
 24 26  1  0  0  0
 25 54  1  0  0  0
 25 59  1  0  0  0
 26 55  1  0  0  0
 26 56  1  0  0  0
 27 28  2  0  0  0
 27 57  1  0  0  0
 28 58  1  0  0  0
M  CHG  1  25   1
M  END
> <s_m_source_file>
../2zdm_ligand.sdf

> <i_m_source_file_index>
1

> <s_epik_input>
W0NIMl0xW0NIMl1bQ0gyXVtDSDJdW0NIMl1bQ0hdMU9bQ0gyXUMoPU8pTjJbQ0BASF0oW0NIMl1bQ0gyXVtDSDJdMilDKD1PKVtOSF1bQ0gyXWMzW2NIXVtjSF1jKC9DKD1OXFtIXSlbTkgyXSlbY0hdW2NIXTM=

> <s_epik_cmdline>
J2VwaWtfYXBwJywgJy1pbWFlJywgJ2xpZ2FuZF9wcm8ubWFlJywgJy1vbWFlJywgJ2xpZ2FuZF9wcmVwLm1hZScsICctbXMnLCAnMScsICctcGgnLCAnNycsICctcGh0JywgJzAuNScsICctbnQn

> <r_lp_tautomer_probability>
1

> <r_epik_Ionization_Penalty>
  0.0002

> <r_epik_Ionization_Penalty_Charging>
  0.0002

> <r_epik_Ionization_Penalty_Neutral>
  0.0000

> <r_epik_State_Penalty>
 -0.0000

> <r_epik_Charging_Adjusted_Penalty>
0.000162947685306239

> <i_epik_Tot_Q>
1

> <i_epik_Tot_abs_Q>
1

> <s_epik_Chemistry_Notes>
This compound has an imine and may undergo hydrolysis.

$$$$
