2zdz_ligand
                    3D
 Schrodinger Suite 2020-3.
 58 61  0  0  1  0            999 V2000
   16.8280  -10.7960   19.2680 C   0  0  0  0  0  0
   15.8920  -11.0840   18.2520 C   0  0  0  0  0  0
   16.7370   -5.6460   16.2110 C   0  0  0  0  0  0
   15.5540   -7.7230   17.0410 C   0  0  0  0  0  0
   18.1300  -11.3060   19.1990 C   0  0  0  0  0  0
   17.6040  -12.4040   17.1030 C   0  0  0  0  0  0
   16.2970  -11.8940   17.1690 C   0  0  0  0  0  0
   14.5410  -10.5230   18.3710 C   0  0  0  0  0  0
    9.5910   -7.6380   16.5140 C   0  0  0  0  0  0
   10.2010   -4.2120   14.0010 C   0  0  0  0  0  0
    8.4350   -3.2380   15.3500 C   0  0  0  0  0  0
    9.2480   -4.3320   15.0240 C   0  0  0  0  0  0
    8.5670    0.3980   13.0210 C   0  0  0  0  0  0
    9.6850   -0.5900   12.9200 C   0  0  0  0  0  0
    9.5460   -1.8940   13.6380 C   0  0  0  0  0  0
    8.5840   -2.0220   14.6650 C   0  0  0  0  0  0
   10.4820   -8.5730   17.0590 C   0  0  0  0  0  0
   11.8030   -8.2100   17.3690 C   0  0  0  0  0  0
   12.2070   -6.8770   17.1260 C   0  0  0  0  0  0
   11.3160   -5.9390   16.5770 C   0  0  0  0  0  0
   12.7120   -9.2130   17.9550 C   0  0  0  0  0  0
   12.4290  -10.0550   19.0210 C   0  0  0  0  0  0
   13.5580  -10.8670   19.2770 C   0  0  0  0  0  0
   10.4860   -0.4680   11.9910 O   0  0  0  0  0  0
   10.3480   -2.9990   13.3120 C   0  0  0  0  0  0
    9.0160   -5.4940   15.7400 O   0  0  0  0  0  0
   10.0000   -6.3210   16.2660 C   0  0  0  0  0  0
   14.0180   -9.5130   17.5700 N   0  0  0  0  0  0
   14.7530   -8.8700   16.4900 C   0  0  0  0  0  0
   15.8030   -7.5820   18.2340 O   0  0  0  0  0  0
   15.9900   -6.8080   16.0230 N   0  3  0  0  0  0
   16.8940   -4.8080   15.1160 N   0  0  0  0  0  0
   16.9930   -5.1500   17.4870 N   0  0  0  0  0  0
   18.5170  -12.1060   18.1200 C   0  0  0  0  0  0
   15.2190  -12.3030   15.8810 Cl  0  0  0  0  0  0
   16.5352  -10.1721   20.1125 H   0  0  0  0  0  0
   18.8448  -11.0783   19.9898 H   0  0  0  0  0  0
   17.9056  -13.0294   16.2628 H   0  0  0  0  0  0
    8.5696   -7.9386   16.2808 H   0  0  0  0  0  0
   10.8290   -5.0641   13.7409 H   0  0  0  0  0  0
    7.6861   -3.3316   16.1364 H   0  0  0  0  0  0
    7.9431    0.1577   13.8945 H   0  0  0  0  0  0
    7.9539    0.3524   12.1088 H   0  0  0  0  0  0
    8.9816    1.4106   13.1339 H   0  0  0  0  0  0
    7.9542   -1.1718   14.9267 H   0  0  0  0  0  0
   10.1459   -9.5932   17.2443 H   0  0  0  0  0  0
   13.2251   -6.5722   17.3682 H   0  0  0  0  0  0
   11.6454   -4.9164   16.3927 H   0  0  0  0  0  0
   11.4889  -10.0855   19.5717 H   0  0  0  0  0  0
   13.6379  -11.6292   20.0521 H   0  0  0  0  0  0
   11.0900   -2.9139   12.5181 H   0  0  0  0  0  0
   14.0442   -8.4941   15.7375 H   0  0  0  0  0  0
   15.4308   -9.5997   16.0230 H   0  0  0  0  0  0
   16.6956   -5.1851   14.1019 H   0  0  0  0  0  0
   16.8730   -5.8020   18.3648 H   0  0  0  0  0  0
   17.3151   -4.1063   17.6170 H   0  0  0  0  0  0
   19.5327  -12.4986   18.0710 H   0  0  0  0  0  0
   15.6752   -7.1017   15.0108 H   0  0  0  0  0  0
  1  2  2  0  0  0
  1  5  1  0  0  0
  1 36  1  0  0  0
  2  7  1  0  0  0
  2  8  1  0  0  0
  3 31  1  0  0  0
  3 32  2  0  0  0
  3 33  1  0  0  0
  4 29  1  0  0  0
  4 30  2  0  0  0
  4 31  1  0  0  0
  5 34  2  0  0  0
  5 37  1  0  0  0
  6  7  2  0  0  0
  6 34  1  0  0  0
  6 38  1  0  0  0
  7 35  1  0  0  0
  8 23  2  0  0  0
  8 28  1  0  0  0
  9 17  2  0  0  0
  9 27  1  0  0  0
  9 39  1  0  0  0
 10 12  2  0  0  0
 10 25  1  0  0  0
 10 40  1  0  0  0
 11 12  1  0  0  0
 11 16  2  0  0  0
 11 41  1  0  0  0
 12 26  1  0  0  0
 13 14  1  0  0  0
 13 42  1  0  0  0
 13 43  1  0  0  0
 13 44  1  0  0  0
 14 15  1  0  0  0
 14 24  2  0  0  0
 15 16  1  0  0  0
 15 25  2  0  0  0
 16 45  1  0  0  0
 17 18  1  0  0  0
 17 46  1  0  0  0
 18 19  2  0  0  0
 18 21  1  0  0  0
 19 20  1  0  0  0
 19 47  1  0  0  0
 20 27  2  0  0  0
 20 48  1  0  0  0
 21 22  2  0  0  0
 21 28  1  0  0  0
 22 23  1  0  0  0
 22 49  1  0  0  0
 23 50  1  0  0  0
 25 51  1  0  0  0
 26 27  1  0  0  0
 28 29  1  0  0  0
 29 52  1  0  0  0
 29 53  1  0  0  0
 31 58  1  0  0  0
 32 54  1  0  0  0
 33 55  1  0  0  0
 33 56  1  0  0  0
 34 57  1  0  0  0
M  CHG  1  31   1
M  END
> <s_m_source_file>
../2zdz_ligand.sdf

> <i_m_source_file_index>
1

> <s_epik_input>
Q2xjMVtjSF1bY0hdW2NIXVtjSF1jMS1jMltjSF1bY0hdYyhuMltDSDJdQyg9TylbTkhdL0MoPU5cW0hdKVtOSDJdKS1jM1tjSF1bY0hdYyhbY0hdW2NIXTMpT2M0W2NIXVtjSF1jKEMoPU8pW0NIM10pW2NIXVtjSF00

> <s_epik_cmdline>
J2VwaWtfYXBwJywgJy1pbWFlJywgJ2xpZ2FuZF9wcm8ubWFlJywgJy1vbWFlJywgJ2xpZ2FuZF9wcmVwLm1hZScsICctbXMnLCAnMScsICctcGgnLCAnNycsICctcGh0JywgJzAuNScsICctbnQn

> <r_lp_tautomer_probability>
1

> <r_epik_Ionization_Penalty>
  0.0000

> <r_epik_Ionization_Penalty_Charging>
  0.0000

> <r_epik_Ionization_Penalty_Neutral>
  0.0000

> <r_epik_State_Penalty>
 -0.0000

> <r_epik_Charging_Adjusted_Penalty>
2.82864732139664e-06

> <i_epik_Tot_Q>
1

> <i_epik_Tot_abs_Q>
1

> <s_epik_Chemistry_Notes>
This compound has an imine and may undergo hydrolysis.

$$$$
