2zg1_ligand
                    3D
 Schrodinger Suite 2020-3.
 39 39  0  0  1  0            999 V2000
   47.7910   11.0910   48.2000 C   0  0  0  0  0  0
   48.3010   10.1130   49.2530 C   0  0  2  0  0  0
   48.2790   10.7830   50.6320 C   0  0  0  0  0  0
   46.8440   11.0900   51.0650 C   0  0  1  0  0  0
   45.9880    9.8260   50.9870 C   0  0  2  0  0  0
   46.0640    9.2530   49.5690 C   0  0  2  0  0  0
   45.1970    7.9930   49.4390 C   0  0  1  0  0  0
   45.7030    7.0850   48.3190 C   0  0  1  0  0  0
   44.7290    5.9390   48.0770 C   0  0  0  0  0  0
   44.1160    9.8210   52.5320 C   0  0  0  0  0  0
   45.0770    9.6670   53.7070 C   0  0  0  0  0  0
   44.6140   10.1400   51.3370 N   0  0  0  0  0  0
   47.6170   12.2880   48.5210 O   0  5  0  0  0  0
   47.5710   10.6630   47.0470 O   0  0  0  0  0  0
   49.5880    9.7090   48.9390 O   0  0  0  0  0  0
   46.8390   11.5890   52.3940 O   0  0  0  0  0  0
   47.4450    8.9540   49.2380 O   0  0  0  0  0  0
   45.1960    7.2740   50.6640 O   0  0  0  0  0  0
   45.8560    7.8360   47.1280 O   0  0  0  0  0  0
   45.1860    5.1500   46.9880 O   0  0  0  0  0  0
   42.9090    9.6650   52.7200 O   0  0  0  0  0  0
   48.7367   10.1114   51.3733 H   0  0  0  0  0  0
   48.8459   11.7248   50.5912 H   0  0  0  0  0  0
   46.4132   11.8946   50.4510 H   0  0  0  0  0  0
   46.3169    9.0782   51.7236 H   0  0  0  0  0  0
   45.7299   10.0051   48.8391 H   0  0  0  0  0  0
   44.1486    8.2734   49.2594 H   0  0  0  0  0  0
   46.7050    6.6976   48.5554 H   0  0  0  0  0  0
   44.6656    5.3147   48.9805 H   0  0  0  0  0  0
   43.7345    6.3464   47.8423 H   0  0  0  0  0  0
   46.1075    9.8388   53.3628 H   0  0  0  0  0  0
   44.9926    8.6505   54.1189 H   0  0  0  0  0  0
   44.8237   10.4007   54.4864 H   0  0  0  0  0  0
   43.9642   10.6499   50.6106 H   0  0  0  0  0  0
   50.4015   10.4482   48.8964 H   0  0  0  0  0  0
   47.4048   12.4992   52.6419 H   0  0  0  0  0  0
   44.8615    7.7651   51.5897 H   0  0  0  0  0  0
   46.5252    8.7088   47.1103 H   0  0  0  0  0  0
   44.6082    4.2717   46.6645 H   0  0  0  0  0  0
  1  2  1  0  0  0
  1 13  1  0  0  0
  1 14  2  0  0  0
  2  3  1  0  0  0
  2 15  1  0  0  0
  2 17  1  0  0  0
  3  4  1  0  0  0
  3 22  1  0  0  0
  3 23  1  0  0  0
  4  5  1  0  0  0
  4 16  1  0  0  0
  4 24  1  0  0  0
  5  6  1  0  0  0
  5 12  1  0  0  0
  5 25  1  0  0  0
  6  7  1  0  0  0
  6 17  1  0  0  0
  6 26  1  0  0  0
  7  8  1  0  0  0
  7 18  1  0  0  0
  7 27  1  0  0  0
  8  9  1  0  0  0
  8 19  1  0  0  0
  8 28  1  0  0  0
  9 20  1  0  0  0
  9 29  1  0  0  0
  9 30  1  0  0  0
 10 11  1  0  0  0
 10 12  1  0  0  0
 10 21  2  0  0  0
 11 31  1  0  0  0
 11 32  1  0  0  0
 11 33  1  0  0  0
 12 34  1  0  0  0
 15 35  1  0  0  0
 16 36  1  0  0  0
 18 37  1  0  0  0
 19 38  1  0  0  0
 20 39  1  0  0  0
M  CHG  1  13  -1
M  END
> <s_m_source_file>
../2zg1_ligand.sdf

> <i_m_source_file_index>
1

> <s_epik_input>
W09IXUMoPU8pW0NAQF0xKFtPSF0pW0NIMl1bQ0BIXShbT0hdKVtDQEBIXShbTkhdQyg9TylbQ0gzXSlbQ0BASF0oTzEpW0NASF0oW09IXSlbQ0BIXShbT0hdKVtDSDJdW09IXQ==

> <s_epik_cmdline>
J2VwaWtfYXBwJywgJy1pbWFlJywgJ2xpZ2FuZF9wcm8ubWFlJywgJy1vbWFlJywgJ2xpZ2FuZF9wcmVwLm1hZScsICctbXMnLCAnMScsICctcGgnLCAnNycsICctcGh0JywgJzAuNScsICctbnQn

> <r_lp_tautomer_probability>
1

> <r_epik_Ionization_Penalty>
  0.0000

> <r_epik_Ionization_Penalty_Charging>
  0.0000

> <r_epik_Ionization_Penalty_Neutral>
  0.0000

> <r_epik_State_Penalty>
 -0.0000

> <r_epik_Charging_Adjusted_Penalty>
2.59170082529691e-05

> <i_epik_Tot_Q>
-1

> <i_epik_Tot_abs_Q>
1

$$$$
