2zg3_ligand
                    3D
 Schrodinger Suite 2020-3.
 38 38  0  0  1  0            999 V2000
   46.9620   11.3490   49.1030 C   0  0  0  0  0  0
   47.5930   10.6120   50.2960 C   0  0  1  0  0  0
   47.3120   11.3550   51.6130 C   0  0  0  0  0  0
   45.8400   11.2950   52.0230 C   0  0  1  0  0  0
   45.2660    9.8880   51.9010 C   0  0  2  0  0  0
   45.5860    9.3300   50.5240 C   0  0  2  0  0  0
   44.9490    7.9590   50.2680 C   0  0  1  0  0  0
   45.3000    7.4800   48.8670 C   0  0  1  0  0  0
   44.5430    6.2020   48.5130 C   0  0  0  0  0  0
   43.2060    9.3310   53.0400 C   0  0  0  0  0  0
   43.4450    7.8340   53.1730 C   0  0  0  0  0  0
   43.8290    9.9630   52.0520 N   0  0  0  0  0  0
   46.5900   12.5360   49.2450 O   0  0  0  0  0  0
   46.8540   10.7400   48.0100 O   0  5  0  0  0  0
   45.7070   11.7300   53.3630 O   0  0  0  0  0  0
   47.0210    9.2880   50.3420 O   0  0  0  0  0  0
   45.3900    7.0130   51.2260 O   0  0  0  0  0  0
   44.9700    8.4980   47.9390 O   0  0  0  0  0  0
   44.9530    5.7390   47.2330 O   0  0  0  0  0  0
   42.4290    9.9030   53.8080 O   0  0  0  0  0  0
   48.6799   10.4977   50.1715 H   0  0  0  0  0  0
   47.9054   10.9042   52.4221 H   0  0  0  0  0  0
   47.5877   12.4141   51.5025 H   0  0  0  0  0  0
   45.2551   11.9923   51.4052 H   0  0  0  0  0  0
   45.6542    9.2274   52.6903 H   0  0  0  0  0  0
   45.1985   10.0231   49.7628 H   0  0  0  0  0  0
   43.8591    8.0002   50.4106 H   0  0  0  0  0  0
   46.3838    7.3149   48.7773 H   0  0  0  0  0  0
   44.7571    5.4287   49.2654 H   0  0  0  0  0  0
   43.4627    6.4084   48.4965 H   0  0  0  0  0  0
   44.1633    7.5079   52.4064 H   0  0  0  0  0  0
   42.4945    7.2974   53.0368 H   0  0  0  0  0  0
   43.8500    7.6147   54.1719 H   0  0  0  0  0  0
   43.2312   10.5518   51.3407 H   0  0  0  0  0  0
   46.0651   12.7281   53.6554 H   0  0  0  0  0  0
   45.2201    7.1951   52.2974 H   0  0  0  0  0  0
   45.4216    9.4965   48.0342 H   0  0  0  0  0  0
   44.5110    4.8242   46.8115 H   0  0  0  0  0  0
  1  2  1  0  0  0
  1 13  2  0  0  0
  1 14  1  0  0  0
  2  3  1  0  0  0
  2 16  1  0  0  0
  2 21  1  0  0  0
  3  4  1  0  0  0
  3 22  1  0  0  0
  3 23  1  0  0  0
  4  5  1  0  0  0
  4 15  1  0  0  0
  4 24  1  0  0  0
  5  6  1  0  0  0
  5 12  1  0  0  0
  5 25  1  0  0  0
  6  7  1  0  0  0
  6 16  1  0  0  0
  6 26  1  0  0  0
  7  8  1  0  0  0
  7 17  1  0  0  0
  7 27  1  0  0  0
  8  9  1  0  0  0
  8 18  1  0  0  0
  8 28  1  0  0  0
  9 19  1  0  0  0
  9 29  1  0  0  0
  9 30  1  0  0  0
 10 11  1  0  0  0
 10 12  1  0  0  0
 10 20  2  0  0  0
 11 31  1  0  0  0
 11 32  1  0  0  0
 11 33  1  0  0  0
 12 34  1  0  0  0
 15 35  1  0  0  0
 17 36  1  0  0  0
 18 37  1  0  0  0
 19 38  1  0  0  0
M  CHG  1  14  -1
M  END
> <s_m_source_file>
../2zg3_ligand.sdf

> <i_m_source_file_index>
1

> <s_epik_input>
Tz1DKFtPSF0pW0NASF0xW0NIMl1bQ0BIXShbT0hdKVtDQEBIXShbTkhdQyg9TylbQ0gzXSlbQ0BASF0oTzEpW0NASF0oW09IXSlbQ0BIXShbT0hdKVtDSDJdW09IXQ==

> <s_epik_cmdline>
J2VwaWtfYXBwJywgJy1pbWFlJywgJ2xpZ2FuZF9wcm8ubWFlJywgJy1vbWFlJywgJ2xpZ2FuZF9wcmVwLm1hZScsICctbXMnLCAnMScsICctcGgnLCAnNycsICctcGh0JywgJzAuNScsICctbnQn

> <r_lp_tautomer_probability>
1

> <r_epik_Ionization_Penalty>
  0.0001

> <r_epik_Ionization_Penalty_Charging>
  0.0001

> <r_epik_Ionization_Penalty_Neutral>
  0.0000

> <r_epik_State_Penalty>
 -0.0000

> <r_epik_Charging_Adjusted_Penalty>
0.000104746784792729

> <i_epik_Tot_Q>
-1

> <i_epik_Tot_abs_Q>
1

$$$$
