2zga_ligand
                    3D
 Schrodinger Suite 2020-3.
 43 43  0  0  1  0            999 V2000
   -2.4640  -20.2510   18.0140 N   0  0  0  0  0  0
   -3.9760  -17.9940   16.8360 C   0  0  0  0  0  0
   -4.2010  -19.3270   16.4680 C   0  0  0  0  0  0
   -3.4000  -20.4770   17.0580 C   0  0  0  0  0  0
   -8.3970  -17.2140   19.8470 C   0  0  0  0  0  0
   -4.6870  -16.9370   16.2550 C   0  0  0  0  0  0
   -9.0190  -17.0490   14.0200 C   0  0  0  0  0  0
   -5.6660  -17.2230   15.3030 C   0  0  0  0  0  0
   -5.9080  -18.5510   14.9480 C   0  0  0  0  0  0
   -5.1900  -19.6070   15.5240 C   0  0  0  0  0  0
   -6.6070  -15.9200   14.5440 S   0  0  0  0  0  0
   -6.1790  -14.6880   15.1710 O   0  0  0  0  0  0
   -8.2400  -16.2580   14.9900 N   0  0  3  0  0  0
   -8.7360  -15.7230   16.2580 C   0  0  0  0  0  0
   -8.5770  -16.6020   17.4710 C   0  0  0  0  0  0
   -8.5110  -16.1790   18.7480 C   0  0  0  0  0  0
   -8.5590  -14.7380   19.1930 C   0  0  0  0  0  0
   -9.5900  -18.3910   14.5340 C   0  0  0  0  0  0
  -10.7830  -18.6770   13.7170 N   0  3  0  0  0  0
   -6.5190  -16.1520   13.1150 O   0  0  0  0  0  0
   -3.6900  -21.6180   16.7430 O   0  0  0  0  0  0
   -2.2041  -19.2201   18.2965 H   0  0  0  0  0  0
   -1.9651  -21.0986   18.5066 H   0  0  0  0  0  0
   -3.2264  -17.7736   17.5960 H   0  0  0  0  0  0
   -8.3710  -18.2197   19.4022 H   0  0  0  0  0  0
   -9.2642  -17.1325   20.5188 H   0  0  0  0  0  0
   -7.4730  -17.0418   20.4184 H   0  0  0  0  0  0
   -4.4788  -15.9063   16.5421 H   0  0  0  0  0  0
   -9.8846  -16.4620   13.6793 H   0  0  0  0  0  0
   -8.3840  -17.3003   13.1576 H   0  0  0  0  0  0
   -6.6741  -18.7717   14.2047 H   0  0  0  0  0  0
   -5.4017  -20.6372   15.2377 H   0  0  0  0  0  0
   -8.2056  -14.7888   16.4943 H   0  0  0  0  0  0
   -9.8141  -15.5214   16.1743 H   0  0  0  0  0  0
   -8.5136  -17.6764   17.2435 H   0  0  0  0  0  0
   -8.4850  -14.6902   20.2895 H   0  0  0  0  0  0
   -9.5081  -14.2858   18.8695 H   0  0  0  0  0  0
   -7.7189  -14.1876   18.7445 H   0  0  0  0  0  0
   -8.8334  -19.1807   14.4157 H   0  0  0  0  0  0
   -9.8551  -18.2935   15.5971 H   0  0  0  0  0  0
  -11.2313  -19.6272   14.0428 H   0  0  0  0  0  0
  -10.4931  -18.7522   12.6586 H   0  0  0  0  0  0
  -11.5148  -17.8650   13.8399 H   0  0  0  0  0  0
  1  4  1  0  0  0
  1 22  1  0  0  0
  1 23  1  0  0  0
  2  3  2  0  0  0
  2  6  1  0  0  0
  2 24  1  0  0  0
  3  4  1  0  0  0
  3 10  1  0  0  0
  4 21  2  0  0  0
  5 16  1  0  0  0
  5 25  1  0  0  0
  5 26  1  0  0  0
  5 27  1  0  0  0
  6  8  2  0  0  0
  6 28  1  0  0  0
  7 13  1  0  0  0
  7 18  1  0  0  0
  7 29  1  0  0  0
  7 30  1  0  0  0
  8  9  1  0  0  0
  8 11  1  0  0  0
  9 10  2  0  0  0
  9 31  1  0  0  0
 10 32  1  0  0  0
 11 12  2  0  0  0
 11 13  1  0  0  0
 11 20  2  0  0  0
 13 14  1  0  0  0
 14 15  1  0  0  0
 14 33  1  0  0  0
 14 34  1  0  0  0
 15 16  2  0  0  0
 15 35  1  0  0  0
 16 17  1  0  0  0
 17 36  1  0  0  0
 17 37  1  0  0  0
 17 38  1  0  0  0
 18 19  1  0  0  0
 18 39  1  0  0  0
 18 40  1  0  0  0
 19 41  1  0  0  0
 19 42  1  0  0  0
 19 43  1  0  0  0
M  CHG  1  19   1
M  END
> <s_m_source_file>
../2zga_ligand.sdf

> <i_m_source_file_index>
1

> <s_epik_input>
W05IMl1DKD1PKWMxW2NIXVtjSF1jKFtjSF1bY0hdMSlTKD1PKSg9TylOKFtDSDJdW0NIMl1bTkgzK10pW0NIMl1bQ0hdPUMoW0NIM10pW0NIM10=

> <s_epik_cmdline>
J2VwaWtfYXBwJywgJy1pbWFlJywgJ2xpZ2FuZF9wcm8ubWFlJywgJy1vbWFlJywgJ2xpZ2FuZF9wcmVwLm1hZScsICctbXMnLCAnMScsICctcGgnLCAnNycsICctcGh0JywgJzAuNScsICctbnQn

> <r_lp_tautomer_probability>
1

> <r_epik_Ionization_Penalty>
  0.0059

> <r_epik_Ionization_Penalty_Charging>
  0.0059

> <r_epik_Ionization_Penalty_Neutral>
  0.0000

> <r_epik_State_Penalty>
 -0.0000

> <r_epik_Charging_Adjusted_Penalty>
0.00593884349225952

> <i_epik_Tot_Q>
1

> <i_epik_Tot_abs_Q>
1

$$$$
