2zgm_ligand
                    3D
 Schrodinger Suite 2020-3.
 45 46  0  0  1  0            999 V2000
    9.5060   -8.0180   40.8820 C   0  0  2  0  0  0
   10.7320   -7.9960   39.9460 C   0  0  1  0  0  0
   10.4040   -7.1080   38.7420 C   0  0  2  0  0  0
    9.1630   -7.6750   38.0200 C   0  0  2  0  0  0
    7.9920   -7.7170   39.0530 C   0  0  1  0  0  0
    6.7630   -8.2950   38.3670 C   0  0  0  0  0  0
    9.8470   -8.8610   42.0000 O   0  0  0  0  0  0
   11.8810   -7.4560   40.6390 O   0  0  0  0  0  0
   11.5270   -7.0720   37.8460 O   0  0  0  0  0  0
    9.4520   -9.0030   37.5230 O   0  0  0  0  0  0
    8.3540   -8.5640   40.1890 O   0  0  0  0  0  0
    5.6630   -8.3480   39.2860 O   0  0  0  0  0  0
    7.9870   -9.6400   45.6890 C   0  0  2  0  0  0
    7.5830  -10.5300   44.4890 C   0  0  1  0  0  0
    8.6700  -10.4210   43.4340 C   0  0  2  0  0  0
    8.7900   -8.9450   42.9960 C   0  0  1  0  0  0
    9.1300   -8.1060   44.2720 C   0  0  1  0  0  0
    9.2110   -6.6170   43.9020 C   0  0  0  0  0  0
    6.9690   -9.7430   46.6960 O   0  0  0  0  0  0
    7.4800  -11.9000   44.8940 O   0  0  0  0  0  0
    8.3320  -11.2280   42.3090 O   0  0  0  0  0  0
    8.0900   -8.2560   45.2810 O   0  0  0  0  0  0
    9.5130   -5.8360   45.0640 O   0  0  0  0  0  0
    9.2051   -7.0269   41.2525 H   0  0  0  0  0  0
   11.0244   -9.0111   39.6392 H   0  0  0  0  0  0
   10.2493   -6.0625   39.0470 H   0  0  0  0  0  0
    8.9057   -7.0996   37.1185 H   0  0  0  0  0  0
    7.7736   -6.7236   39.4718 H   0  0  0  0  0  0
    6.4879   -7.6602   37.5118 H   0  0  0  0  0  0
    6.9855   -9.3121   38.0121 H   0  0  0  0  0  0
   12.2692   -7.9603   41.5362 H   0  0  0  0  0  0
   12.4986   -6.6941   38.1968 H   0  0  0  0  0  0
   10.2533   -9.1514   36.7841 H   0  0  0  0  0  0
    4.6897   -8.7409   38.9568 H   0  0  0  0  0  0
    8.9534   -9.9265   46.1294 H   0  0  0  0  0  0
    6.5905  -10.2647   44.0957 H   0  0  0  0  0  0
    9.6218  -10.8294   43.8045 H   0  0  0  0  0  0
    7.8929   -8.5565   42.4916 H   0  0  0  0  0  0
   10.0635   -8.4653   44.7298 H   0  0  0  0  0  0
   10.0017   -6.4681   43.1519 H   0  0  0  0  0  0
    8.2462   -6.2891   43.4878 H   0  0  0  0  0  0
    6.7332  -10.7206   47.1418 H   0  0  0  0  0  0
    6.7445  -12.1941   45.6573 H   0  0  0  0  0  0
    8.2035  -12.3138   42.4297 H   0  0  0  0  0  0
    9.6088   -4.7432   44.9825 H   0  0  0  0  0  0
  1  2  1  0  0  0
  1  7  1  0  0  0
  1 11  1  0  0  0
  1 24  1  0  0  0
  2  3  1  0  0  0
  2  8  1  0  0  0
  2 25  1  0  0  0
  3  4  1  0  0  0
  3  9  1  0  0  0
  3 26  1  0  0  0
  4  5  1  0  0  0
  4 10  1  0  0  0
  4 27  1  0  0  0
  5  6  1  0  0  0
  5 11  1  0  0  0
  5 28  1  0  0  0
  6 12  1  0  0  0
  6 29  1  0  0  0
  6 30  1  0  0  0
  7 16  1  0  0  0
  8 31  1  0  0  0
  9 32  1  0  0  0
 10 33  1  0  0  0
 12 34  1  0  0  0
 13 14  1  0  0  0
 13 19  1  0  0  0
 13 22  1  0  0  0
 13 35  1  0  0  0
 14 15  1  0  0  0
 14 20  1  0  0  0
 14 36  1  0  0  0
 15 16  1  0  0  0
 15 21  1  0  0  0
 15 37  1  0  0  0
 16 17  1  0  0  0
 16 38  1  0  0  0
 17 18  1  0  0  0
 17 22  1  0  0  0
 17 39  1  0  0  0
 18 23  1  0  0  0
 18 40  1  0  0  0
 18 41  1  0  0  0
 19 42  1  0  0  0
 20 43  1  0  0  0
 21 44  1  0  0  0
 23 45  1  0  0  0
M  END
> <s_m_source_file>
../2zgm_ligand.sdf

> <i_m_source_file_index>
1

> <s_epik_input>
W09IXVtDQEhdMVtDQEhdKFtPSF0pW0NAQEhdKFtPSF0pW0NAQEhdKFtDQEhdKE8xKVtDSDJdW09IXSlPW0NASF0yW0NASF0oW09IXSlbQ0BASF0oW09IXSlbQ0BASF0oW09IXSlbQ0BIXShPMilbQ0gyXVtPSF0=

> <s_epik_cmdline>
J2VwaWtfYXBwJywgJy1pbWFlJywgJ2xpZ2FuZF9wcm8ubWFlJywgJy1vbWFlJywgJ2xpZ2FuZF9wcmVwLm1hZScsICctbXMnLCAnMScsICctcGgnLCAnNycsICctcGh0JywgJzAuNScsICctbnQn

> <r_lp_tautomer_probability>
1

> <r_epik_Ionization_Penalty>
  0.0000

> <r_epik_Ionization_Penalty_Charging>
  0.0000

> <r_epik_Ionization_Penalty_Neutral>
  0.0000

> <r_epik_State_Penalty>
 -0.0000

> <r_epik_Charging_Adjusted_Penalty>
0

> <i_epik_Tot_Q>
0

> <i_epik_Tot_abs_Q>
0

> <s_epik_Chemistry_Notes>
This compound contains an acetal/aminal-like group ( X-CH(R)-Y where X, Y are N, S, or O) that may be acid/base labile, releasing an aldehyde.

$$$$
