2zgx_ligand
                    3D
 Schrodinger Suite 2020-3.
 51 52  0  0  1  0            999 V2000
   18.4130  -13.3300   21.6440 N   0  0  0  0  0  0
   18.3270  -12.0220   21.0170 C   0  0  2  0  0  0
   17.0180  -11.9110   20.2720 C   0  0  0  0  0  0
   16.6340  -12.8750   19.6440 O   0  0  0  0  0  0
   16.3710  -10.7240   20.3370 N   0  0  0  0  0  0
   15.0790  -10.6370   19.6650 C   0  0  0  0  0  0
   13.9920  -10.6390   20.7580 C   0  0  0  0  0  0
   13.4040   -9.4430   21.1600 C   0  0  0  0  0  0
   12.4210   -9.4500   22.1480 C   0  0  0  0  0  0
   12.0120  -10.6500   22.7480 C   0  0  0  0  0  0
   10.8810  -10.6450   23.8790 C   0  0  0  0  0  0
   10.2060  -11.7630   24.0990 N   0  0  0  0  0  0
   10.6480   -9.5500   24.5560 N   0  3  0  0  0  0
   12.6060  -11.8450   22.3400 C   0  0  0  0  0  0
   13.5860  -11.8300   21.3540 C   0  0  0  0  0  0
   19.4930  -12.0770   19.9820 C   0  0  0  0  0  0
   20.4710  -13.0420   20.6980 C   0  0  0  0  0  0
   19.5280  -14.1680   21.1920 C   0  0  0  0  0  0
   17.4360  -13.7490   22.4880 C   0  0  0  0  0  0
   17.4220  -15.1030   23.1790 C   0  0  2  0  0  0
   16.0930  -15.7440   23.0790 N   0  3  0  0  0  0
   17.6350  -14.8790   24.7110 C   0  0  0  0  0  0
   18.9730  -14.4490   25.3430 C   0  0  0  0  0  0
   16.4680  -13.0330   22.7690 O   0  0  0  0  0  0
   18.3638  -11.2133   21.7618 H   0  0  0  0  0  0
   16.7764   -9.8483   20.8650 H   0  0  0  0  0  0
   15.0333   -9.7084   19.0771 H   0  0  0  0  0  0
   14.9548  -11.5011   18.9958 H   0  0  0  0  0  0
   13.7118   -8.5026   20.7029 H   0  0  0  0  0  0
   11.9640   -8.5104   22.4585 H   0  0  0  0  0  0
   10.4290  -12.6650   23.5103 H   0  0  0  0  0  0
    9.4223  -11.7896   24.8705 H   0  0  0  0  0  0
   11.2285   -8.6395   24.3461 H   0  0  0  0  0  0
   12.3022  -12.7885   22.7935 H   0  0  0  0  0  0
   14.0450  -12.7680   21.0418 H   0  0  0  0  0  0
   19.1149  -12.4633   19.0240 H   0  0  0  0  0  0
   19.9004  -11.0659   19.8345 H   0  0  0  0  0  0
   21.2242  -13.3996   19.9805 H   0  0  0  0  0  0
   20.9718  -12.5121   21.5217 H   0  0  0  0  0  0
   19.9147  -14.7523   22.0400 H   0  0  0  0  0  0
   19.1772  -14.8519   20.4051 H   0  0  0  0  0  0
   18.1679  -15.7372   22.6775 H   0  0  0  0  0  0
   15.8590  -15.9400   22.0222 H   0  0  0  0  0  0
   15.3305  -15.0756   23.5055 H   0  0  0  0  0  0
   16.1010  -16.6932   23.6349 H   0  0  0  0  0  0
   16.9563  -14.0885   25.0638 H   0  0  0  0  0  0
   17.4220  -15.8132   25.2513 H   0  0  0  0  0  0
   18.8528  -14.3630   26.4330 H   0  0  0  0  0  0
   19.2778  -13.4762   24.9298 H   0  0  0  0  0  0
   19.7435  -15.2009   25.1173 H   0  0  0  0  0  0
    9.8716   -9.5398   25.3351 H   0  0  0  0  0  0
  1  2  1  0  0  0
  1 18  1  0  0  0
  1 19  1  0  0  0
  2  3  1  0  0  0
  2 16  1  0  0  0
  2 25  1  0  0  0
  3  4  2  0  0  0
  3  5  1  0  0  0
  5  6  1  0  0  0
  5 26  1  0  0  0
  6  7  1  0  0  0
  6 27  1  0  0  0
  6 28  1  0  0  0
  7  8  2  0  0  0
  7 15  1  0  0  0
  8  9  1  0  0  0
  8 29  1  0  0  0
  9 10  2  0  0  0
  9 30  1  0  0  0
 10 11  1  0  0  0
 10 14  1  0  0  0
 11 12  1  0  0  0
 11 13  2  0  0  0
 12 31  1  0  0  0
 12 32  1  0  0  0
 13 33  1  0  0  0
 13 51  1  0  0  0
 14 15  2  0  0  0
 14 34  1  0  0  0
 15 35  1  0  0  0
 16 17  1  0  0  0
 16 36  1  0  0  0
 16 37  1  0  0  0
 17 18  1  0  0  0
 17 38  1  0  0  0
 17 39  1  0  0  0
 18 40  1  0  0  0
 18 41  1  0  0  0
 19 20  1  0  0  0
 19 24  2  0  0  0
 20 21  1  0  0  0
 20 22  1  0  0  0
 20 42  1  0  0  0
 21 43  1  0  0  0
 21 44  1  0  0  0
 21 45  1  0  0  0
 22 23  1  0  0  0
 22 46  1  0  0  0
 22 47  1  0  0  0
 23 48  1  0  0  0
 23 49  1  0  0  0
 23 50  1  0  0  0
M  CHG  2  13   1  21   1
M  END
> <s_m_source_file>
../2zgx_ligand.sdf

> <i_m_source_file_index>
1

> <s_epik_input>
W0NIM11bQ0gyXVtDQEBIXShbTkgzK10pQyg9TylOMVtDQEBIXShbQ0gyXVtDSDJdW0NIMl0xKUMoPU8pW05IXVtDSDJdYzJbY0hdW2NIXWMoL0MoW05IMl0pPU5cW0hdKVtjSF1bY0hdMg==

> <s_epik_cmdline>
J2VwaWtfYXBwJywgJy1pbWFlJywgJ2xpZ2FuZF9wcm8ubWFlJywgJy1vbWFlJywgJ2xpZ2FuZF9wcmVwLm1hZScsICctbXMnLCAnMScsICctcGgnLCAnNycsICctcGh0JywgJzAuNScsICctbnQn

> <r_epik_Ionization_Penalty>
  0.0979

> <r_epik_Ionization_Penalty_Charging>
  0.0979

> <r_epik_Ionization_Penalty_Neutral>
  0.0000

> <r_epik_State_Penalty>
  0.0879

> <r_epik_Charging_Adjusted_Penalty>
0.185776294605122

> <i_epik_Tot_Q>
2

> <i_epik_Tot_abs_Q>
2

> <s_epik_Chemistry_Notes>
This compound has an imine and may undergo hydrolysis.

$$$$
