2zhd_ligand
                    3D
 Schrodinger Suite 2020-3.
 64 66  0  0  1  0            999 V2000
   17.4230   -9.7030   11.7420 C   0  0  0  0  0  0
   17.8010   -8.8700   10.9340 O   0  0  0  0  0  0
   17.7890  -11.1410   11.5990 C   0  0  0  0  0  0
   17.2390  -11.8500   10.4290 N   0  3  0  0  0  0
   16.9590  -13.2740   10.5860 C   0  0  0  0  0  0
   15.9750  -13.7450   10.3360 C   0  0  0  0  0  0
   15.9890  -13.9030    8.8040 C   0  0  0  0  0  0
   16.3890  -15.2750    8.1630 C   0  0  0  0  0  0
   17.8860  -15.7070    8.2040 C   0  0  0  0  0  0
   18.6580  -14.5710    9.0040 C   0  0  0  0  0  0
   18.1340  -14.3400   10.5230 C   0  0  0  0  0  0
   16.6870   -9.2090   12.7120 N   0  0  0  0  0  0
   15.8240   -8.3090   12.5460 C   0  0  2  0  0  0
   16.3210   -6.9350   12.4730 C   0  0  0  0  0  0
   17.3250   -6.6080   13.0840 O   0  0  0  0  0  0
   14.8310   -8.3620   13.7160 C   0  0  0  0  0  0
   15.2750   -9.4780   14.6200 C   0  0  0  0  0  0
   16.6480   -9.8150   14.0550 C   0  0  0  0  0  0
   15.7680   -5.9600   11.8220 N   0  0  0  0  0  0
   16.2460   -4.6070   11.8240 C   0  0  0  0  0  0
   17.0600   -4.3850   10.5740 C   0  0  0  0  0  0
   18.2340   -4.9360   10.1920 C   0  0  0  0  0  0
   18.8100   -4.5670    8.9630 C   0  0  0  0  0  0
   18.3060   -3.6580    8.0300 C   0  0  0  0  0  0
   19.0880   -3.3960    6.7500 C   0  0  0  0  0  0
   18.4950   -2.7710    5.7490 N   0  3  0  0  0  0
   20.3510   -3.8110    6.6800 N   0  0  0  0  0  0
   17.1150   -3.0970    8.4150 C   0  0  0  0  0  0
   16.5270   -3.4600    9.6500 C   0  0  0  0  0  0
   18.8821  -11.2349   11.5190 H   0  0  0  0  0  0
   17.4365  -11.6984   12.4794 H   0  0  0  0  0  0
   16.2820  -11.3916   10.1390 H   0  0  0  0  0  0
   17.9480  -11.7797    9.5910 H   0  0  0  0  0  0
   16.1913  -13.0898   11.3520 H   0  0  0  0  0  0
   15.8941  -14.7171   10.8444 H   0  0  0  0  0  0
   15.1585  -13.0877   10.6696 H   0  0  0  0  0  0
   14.9826  -13.7065    8.4059 H   0  0  0  0  0  0
   16.7018  -13.1876    8.3681 H   0  0  0  0  0  0
   15.8483  -16.0879    8.6697 H   0  0  0  0  0  0
   16.1273  -15.2708    7.0946 H   0  0  0  0  0  0
   17.9737  -16.6776    8.7142 H   0  0  0  0  0  0
   18.2701  -15.7966    7.1771 H   0  0  0  0  0  0
   19.7250  -14.8299    9.0704 H   0  0  0  0  0  0
   18.5456  -13.6113    8.4783 H   0  0  0  0  0  0
   18.9809  -13.9885   11.1306 H   0  0  0  0  0  0
   17.7764  -15.3035   10.9151 H   0  0  0  0  0  0
   15.5317   -8.6443   11.5400 H   0  0  0  0  0  0
   14.8429   -7.4008   14.2508 H   0  0  0  0  0  0
   13.8191   -8.5542   13.3297 H   0  0  0  0  0  0
   15.3129   -9.1160   15.6580 H   0  0  0  0  0  0
   14.5626  -10.3131   14.5487 H   0  0  0  0  0  0
   16.7897  -10.9026   13.9708 H   0  0  0  0  0  0
   17.4508   -9.3875   14.6736 H   0  0  0  0  0  0
   14.8736   -6.2265   11.2398 H   0  0  0  0  0  0
   15.3904   -3.9159   11.8424 H   0  0  0  0  0  0
   16.8712   -4.4403   12.7136 H   0  0  0  0  0  0
   18.7320   -5.6630   10.8336 H   0  0  0  0  0  0
   19.7567   -5.0444    8.7101 H   0  0  0  0  0  0
   17.4493   -2.4440    5.8470 H   0  0  0  0  0  0
   20.8083   -4.3281    7.5364 H   0  0  0  0  0  0
   20.9373   -3.6368    5.7657 H   0  0  0  0  0  0
   16.6210   -2.3710    7.7692 H   0  0  0  0  0  0
   15.5813   -2.9846    9.9103 H   0  0  0  0  0  0
   19.0468   -2.5774    4.8173 H   0  0  0  0  0  0
  1  2  2  0  0  0
  1  3  1  0  0  0
  1 12  1  0  0  0
  3  4  1  0  0  0
  3 30  1  0  0  0
  3 31  1  0  0  0
  4  5  1  0  0  0
  4 32  1  0  0  0
  4 33  1  0  0  0
  5  6  1  0  0  0
  5 11  1  0  0  0
  5 34  1  0  0  0
  6  7  1  0  0  0
  6 35  1  0  0  0
  6 36  1  0  0  0
  7  8  1  0  0  0
  7 37  1  0  0  0
  7 38  1  0  0  0
  8  9  1  0  0  0
  8 39  1  0  0  0
  8 40  1  0  0  0
  9 10  1  0  0  0
  9 41  1  0  0  0
  9 42  1  0  0  0
 10 11  1  0  0  0
 10 43  1  0  0  0
 10 44  1  0  0  0
 11 45  1  0  0  0
 11 46  1  0  0  0
 12 13  1  0  0  0
 12 18  1  0  0  0
 13 14  1  0  0  0
 13 16  1  0  0  0
 13 47  1  0  0  0
 14 15  2  0  0  0
 14 19  1  0  0  0
 16 17  1  0  0  0
 16 48  1  0  0  0
 16 49  1  0  0  0
 17 18  1  0  0  0
 17 50  1  0  0  0
 17 51  1  0  0  0
 18 52  1  0  0  0
 18 53  1  0  0  0
 19 20  1  0  0  0
 19 54  1  0  0  0
 20 21  1  0  0  0
 20 55  1  0  0  0
 20 56  1  0  0  0
 21 22  2  0  0  0
 21 29  1  0  0  0
 22 23  1  0  0  0
 22 57  1  0  0  0
 23 24  2  0  0  0
 23 58  1  0  0  0
 24 25  1  0  0  0
 24 28  1  0  0  0
 25 26  2  0  0  0
 25 27  1  0  0  0
 26 59  1  0  0  0
 26 64  1  0  0  0
 27 60  1  0  0  0
 27 61  1  0  0  0
 28 29  2  0  0  0
 28 62  1  0  0  0
 29 63  1  0  0  0
M  CHG  2   4   1  26   1
M  END
> <s_m_source_file>
../2zhd_ligand.sdf

> <i_m_source_file_index>
1

> <s_epik_input>
W0NIMl0xW0NIMl1bQ0gyXVtDSDJdW0NIMl1bQ0gyXVtDSF0xW05IMitdW0NIMl1DKD1PKU4yW0NAQEhdKFtDSDJdW0NIMl1bQ0gyXTIpQyg9TylbTkhdW0NIMl1jM1tjSF1bY0hdYygvQyg9TlxbSF0pW05IMl0pW2NIXVtjSF0z

> <s_epik_cmdline>
J2VwaWtfYXBwJywgJy1pbWFlJywgJ2xpZ2FuZF9wcm8ubWFlJywgJy1vbWFlJywgJ2xpZ2FuZF9wcmVwLm1hZScsICctbXMnLCAnMScsICctcGgnLCAnNycsICctcGh0JywgJzAuNScsICctbnQn

> <r_epik_Ionization_Penalty>
  0.0307

> <r_epik_Ionization_Penalty_Charging>
  0.0307

> <r_epik_Ionization_Penalty_Neutral>
  0.0000

> <r_epik_State_Penalty>
  0.0252

> <r_epik_Charging_Adjusted_Penalty>
0.0558098341883968

> <i_epik_Tot_Q>
2

> <i_epik_Tot_abs_Q>
2

> <s_epik_Chemistry_Notes>
This compound has an imine and may undergo hydrolysis.

$$$$
