2zif_ligand
                    3D
 Schrodinger Suite 2020-3.
 50 52  0  0  1  0            999 V2000
   20.8660   24.8210   74.5340 N   0  3  0  0  0  0
   19.5740   25.3540   74.9840 C   0  0  2  0  0  0
   18.9710   24.5510   76.1480 C   0  0  0  0  0  0
   17.8670   24.8870   76.5870 O   0  0  0  0  0  0
   19.6340   23.6070   76.5930 O   0  5  0  0  0  0
   18.5250   25.3690   73.8410 C   0  0  0  0  0  0
   17.4130   26.3820   73.1220 C   0  0  0  0  0  0
   16.5250   25.9000   71.5850 S   0  0  2  0  0  0
   17.8460   25.7190   70.3450 C   0  0  0  0  0  0
   15.5520   27.3490   71.1220 C   0  0  0  0  0  0
   14.3400   27.6230   72.0270 C   0  0  1  0  0  0
   13.6610   28.7960   71.6280 O   0  0  0  0  0  0
   13.2810   26.5040   72.0860 C   0  0  1  0  0  0
   13.2050   25.8890   73.3660 O   0  0  0  0  0  0
   12.0230   27.1670   71.5290 C   0  0  1  0  0  0
   10.8520   26.8110   72.2670 O   0  0  0  0  0  0
   12.2790   28.6460   71.8320 C   0  0  2  0  0  0
   11.6400   29.6250   70.9350 N   0  0  0  0  0  0
   11.2300   29.6480   69.6440 C   0  0  0  0  0  0
   10.7800   30.8450   69.2470 N   0  0  0  0  0  0
   10.8990   31.6840   70.3580 C   0  0  0  0  0  0
   10.6470   33.0130   70.6820 C   0  0  0  0  0  0
   10.1360   33.8840   69.7740 N   0  0  0  0  0  0
   10.9100   33.4980   71.9460 N   0  0  0  0  0  0
   11.4190   32.6720   72.8860 C   0  0  0  0  0  0
   11.6930   31.3730   72.6540 N   0  0  0  0  0  0
   11.4330   30.9070   71.4040 C   0  0  0  0  0  0
   21.5778   24.8283   75.3726 H   0  0  0  0  0  0
   21.2558   25.4457   73.7168 H   0  0  0  0  0  0
   20.7323   23.7897   74.1754 H   0  0  0  0  0  0
   19.8500   26.3667   75.3129 H   0  0  0  0  0  0
   19.0243   25.1643   72.8824 H   0  0  0  0  0  0
   17.7649   24.5969   74.0308 H   0  0  0  0  0  0
   16.5957   26.5897   73.8284 H   0  0  0  0  0  0
   17.9040   27.3256   72.8417 H   0  0  0  0  0  0
   18.4638   24.8432   70.5926 H   0  0  0  0  0  0
   18.4739   26.6222   70.3437 H   0  0  0  0  0  0
   17.3983   25.5822   69.3496 H   0  0  0  0  0  0
   16.1880   28.2456   71.1614 H   0  0  0  0  0  0
   15.1641   27.2192   70.1009 H   0  0  0  0  0  0
   14.7625   27.7997   73.0271 H   0  0  0  0  0  0
   13.5017   25.5674   71.5531 H   0  0  0  0  0  0
   14.0929   25.4026   73.7961 H   0  0  0  0  0  0
   11.8008   26.8690   70.4937 H   0  0  0  0  0  0
   10.4593   25.7849   72.2140 H   0  0  0  0  0  0
   11.9281   28.8982   72.8436 H   0  0  0  0  0  0
   11.2632   28.7758   68.9911 H   0  0  0  0  0  0
    9.9098   33.5440   68.7526 H   0  0  0  0  0  0
    9.9483   34.9295   70.0599 H   0  0  0  0  0  0
   11.6175   33.0752   73.8790 H   0  0  0  0  0  0
  1  2  1  0  0  0
  1 28  1  0  0  0
  1 29  1  0  0  0
  1 30  1  0  0  0
  2  3  1  0  0  0
  2  6  1  0  0  0
  2 31  1  0  0  0
  3  4  2  0  0  0
  3  5  1  0  0  0
  6  7  1  0  0  0
  6 32  1  0  0  0
  6 33  1  0  0  0
  7  8  1  0  0  0
  7 34  1  0  0  0
  7 35  1  0  0  0
  8  9  1  0  0  0
  8 10  1  0  0  0
  9 36  1  0  0  0
  9 37  1  0  0  0
  9 38  1  0  0  0
 10 11  1  0  0  0
 10 39  1  0  0  0
 10 40  1  0  0  0
 11 12  1  0  0  0
 11 13  1  0  0  0
 11 41  1  0  0  0
 12 17  1  0  0  0
 13 14  1  0  0  0
 13 15  1  0  0  0
 13 42  1  0  0  0
 14 43  1  0  0  0
 15 16  1  0  0  0
 15 17  1  0  0  0
 15 44  1  0  0  0
 16 45  1  0  0  0
 17 18  1  0  0  0
 17 46  1  0  0  0
 18 19  1  0  0  0
 18 27  1  0  0  0
 19 20  2  0  0  0
 19 47  1  0  0  0
 20 21  1  0  0  0
 21 22  2  0  0  0
 21 27  1  0  0  0
 22 23  1  0  0  0
 22 24  1  0  0  0
 23 48  1  0  0  0
 23 49  1  0  0  0
 24 25  2  0  0  0
 25 26  1  0  0  0
 25 50  1  0  0  0
 26 27  2  0  0  0
M  CHG  2   1   1   5  -1
M  END
> <s_m_source_file>
../2zif_ligand.sdf

> <i_m_source_file_index>
1

> <s_epik_input>
Tz1DKFtPSF0pW0NAQEhdKFtOSDMrXSlbQ0gyXVtDSDJdW1NASF0oW0NIM10pW0NIMl1bQ0BIXTFPW0NASF0oW0NASF0oW09IXSlbQ0BASF0xW09IXSluKFtjSF1uMiljKGMyMyluW2NIXW5jM1tOSDJd

> <s_epik_cmdline>
J2VwaWtfYXBwJywgJy1pbWFlJywgJ2xpZ2FuZF9wcm8ubWFlJywgJy1vbWFlJywgJ2xpZ2FuZF9wcmVwLm1hZScsICctbXMnLCAnMScsICctcGgnLCAnNycsICctcGh0JywgJzAuNScsICctbnQn

> <r_lp_tautomer_probability>
1

> <r_epik_Ionization_Penalty>
  0.0015

> <r_epik_Ionization_Penalty_Charging>
  0.0011

> <r_epik_Ionization_Penalty_Neutral>
  0.0004

> <r_epik_State_Penalty>
 -0.0000

> <r_epik_Charging_Adjusted_Penalty>
0.00106610994672706

> <i_epik_Tot_Q>
0

> <i_epik_Tot_abs_Q>
2

> <s_epik_Chemistry_Notes>
This compound contains an acetal/aminal-like group ( X-CH(R)-Y where X, Y are N, S, or O) that may be acid/base labile, releasing an aldehyde.

$$$$
