2zir_ligand
                    3D
 Schrodinger Suite 2020-3.
 67 72  0  0  1  0            999 V2000
   20.1290  126.2860    3.1920 C   0  0  0  0  0  0
   18.5840  128.2370    0.4490 C   0  0  2  0  0  0
   17.5550  129.3660    0.6880 C   0  0  0  0  0  0
   17.6780  130.5520    1.3350 C   0  0  0  0  0  0
   16.3950  131.1460    1.3930 C   0  0  0  0  0  0
   15.8700  132.2980    2.0000 C   0  0  0  0  0  0
   14.5020  132.5540    1.8360 C   0  0  0  0  0  0
   13.6560  131.6980    1.0540 C   0  0  0  0  0  0
   14.1680  130.5620    0.4200 C   0  0  0  0  0  0
   17.8860  127.2620   -0.4810 C   0  0  0  0  0  0
   16.8980  126.4260    0.0410 C   0  0  0  0  0  0
   16.4890  125.5450   -2.1780 C   0  0  0  0  0  0
   13.3760  129.6620   -0.4390 C   0  0  0  0  0  0
   12.5300  130.1480   -1.4570 C   0  0  0  0  0  0
   11.7890  129.2910   -2.2730 C   0  0  0  0  0  0
   11.8830  127.9140   -2.0620 C   0  0  0  0  0  0
   12.7220  127.4060   -1.0530 C   0  0  0  0  0  0
   19.9700  126.5650    1.8640 N   0  0  0  0  0  0
   19.3670  127.0880    3.9130 N   0  3  0  0  0  0
   18.7080  127.8960    3.0540 C   0  0  0  0  0  0
   19.0440  127.6100    1.7660 C   0  0  0  0  0  0
   20.6580  125.8530    0.7810 C   0  0  0  0  0  0
   19.7140  128.8350   -0.2050 O   0  0  0  0  0  0
   16.2560  129.2510    0.2010 O   0  0  0  0  0  0
   15.5480  130.3190    0.6520 C   0  0  0  0  0  0
   16.1950  125.5630   -0.8050 C   0  0  0  0  0  0
   17.4840  126.3740   -2.7280 C   0  0  0  0  0  0
   18.1740  127.2290   -1.8640 C   0  0  0  0  0  0
   15.5510  124.4920   -3.1680 Cl  0  0  0  0  0  0
   13.4610  128.2670   -0.2390 C   0  0  0  0  0  0
   13.9430  133.7330    2.4940 C   0  0  0  0  0  0
   12.7590  133.7790    2.8510 O   0  0  0  0  0  0
   14.7920  134.7940    2.7190 N   0  0  0  0  0  0
   14.3260  136.0240    3.3410 N   0  0  0  0  0  0
   13.6870  136.8730    2.3150 C   0  0  0  0  0  0
   13.2640  138.2010    2.9230 C   0  0  0  0  0  0
   14.3360  138.8000    3.6250 O   0  0  0  0  0  0
   14.8290  138.0010    4.6930 C   0  0  0  0  0  0
   15.4020  136.7130    4.1040 C   0  0  0  0  0  0
   20.7866  125.5163    3.5960 H   0  0  0  0  0  0
   18.5997  130.9720    1.7378 H   0  0  0  0  0  0
   16.5042  132.9697    2.5785 H   0  0  0  0  0  0
   12.5974  131.9374    0.9528 H   0  0  0  0  0  0
   16.6745  126.4458    1.1077 H   0  0  0  0  0  0
   12.4522  131.2242   -1.6114 H   0  0  0  0  0  0
   11.1490  129.6895   -3.0602 H   0  0  0  0  0  0
   11.3038  127.2294   -2.6817 H   0  0  0  0  0  0
   12.7959  126.3286   -0.9052 H   0  0  0  0  0  0
   18.0027  128.6719    3.3518 H   0  0  0  0  0  0
   21.3200  125.0859    1.2091 H   0  0  0  0  0  0
   21.2550  126.5667    0.1943 H   0  0  0  0  0  0
   19.9146  125.3727    0.1278 H   0  0  0  0  0  0
   19.5850  129.3403   -1.1735 H   0  0  0  0  0  0
   15.4231  124.9079   -0.4011 H   0  0  0  0  0  0
   17.7096  126.3502   -3.7941 H   0  0  0  0  0  0
   18.9489  127.8826   -2.2646 H   0  0  0  0  0  0
   14.1001  127.8641    0.5467 H   0  0  0  0  0  0
   15.8449  134.6954    2.4162 H   0  0  0  0  0  0
   14.4000  137.0611    1.4987 H   0  0  0  0  0  0
   12.7994  136.3604    1.9157 H   0  0  0  0  0  0
   12.9400  138.8836    2.1236 H   0  0  0  0  0  0
   12.4320  138.0353    3.6232 H   0  0  0  0  0  0
   15.6147  138.5520    5.2307 H   0  0  0  0  0  0
   14.0068  137.7661    5.3850 H   0  0  0  0  0  0
   15.7571  136.0560    4.9116 H   0  0  0  0  0  0
   16.2377  136.9481    3.4284 H   0  0  0  0  0  0
   19.3650  127.0056    5.0099 H   0  0  0  0  0  0
  1 18  1  0  0  0
  1 19  2  0  0  0
  1 40  1  0  0  0
  2  3  1  0  0  0
  2 10  1  0  0  0
  2 21  1  0  0  0
  2 23  1  0  0  0
  3  4  2  0  0  0
  3 24  1  0  0  0
  4  5  1  0  0  0
  4 41  1  0  0  0
  5  6  2  0  0  0
  5 25  1  0  0  0
  6  7  1  0  0  0
  6 42  1  0  0  0
  7  8  2  0  0  0
  7 31  1  0  0  0
  8  9  1  0  0  0
  8 43  1  0  0  0
  9 13  1  0  0  0
  9 25  2  0  0  0
 10 11  2  0  0  0
 10 28  1  0  0  0
 11 26  1  0  0  0
 11 44  1  0  0  0
 12 26  2  0  0  0
 12 27  1  0  0  0
 12 29  1  0  0  0
 13 14  2  0  0  0
 13 30  1  0  0  0
 14 15  1  0  0  0
 14 45  1  0  0  0
 15 16  2  0  0  0
 15 46  1  0  0  0
 16 17  1  0  0  0
 16 47  1  0  0  0
 17 30  2  0  0  0
 17 48  1  0  0  0
 18 21  1  0  0  0
 18 22  1  0  0  0
 19 20  1  0  0  0
 19 67  1  0  0  0
 20 21  2  0  0  0
 20 49  1  0  0  0
 22 50  1  0  0  0
 22 51  1  0  0  0
 22 52  1  0  0  0
 23 53  1  0  0  0
 24 25  1  0  0  0
 26 54  1  0  0  0
 27 28  2  0  0  0
 27 55  1  0  0  0
 28 56  1  0  0  0
 30 57  1  0  0  0
 31 32  2  0  0  0
 31 33  1  0  0  0
 33 34  1  0  0  0
 33 58  1  0  0  0
 34 35  1  0  0  0
 34 39  1  0  0  0
 35 36  1  0  0  0
 35 59  1  0  0  0
 35 60  1  0  0  0
 36 37  1  0  0  0
 36 61  1  0  0  0
 36 62  1  0  0  0
 37 38  1  0  0  0
 38 39  1  0  0  0
 38 63  1  0  0  0
 38 64  1  0  0  0
 39 65  1  0  0  0
 39 66  1  0  0  0
M  CHG  1  19   1
M  END
> <s_m_source_file>
../2zir_ligand.sdf

> <i_m_source_file_index>
1

> <s_epik_input>
W0NIM11uMVtjSF1uW2NIXWMxW0NAQF0oW09IXSkoYzJbY0hdW2NIXWMoQ2wpW2NIXVtjSF0yKWMoW2NIXTMpb2MoYzM0KWMoLWM1W2NIXVtjSF1bY0hdW2NIXVtjSF01KVtjSF1jKFtjSF00KUMoPU8pW05IXVtOSCtdNltDSDJdW0NIMl1PW0NIMl1bQ0gyXTY=

> <s_epik_cmdline>
J2VwaWtfYXBwJywgJy1pbWFlJywgJ2xpZ2FuZF9wcm8ubWFlJywgJy1vbWFlJywgJ2xpZ2FuZF9wcmVwLm1hZScsICctbXMnLCAnMScsICctcGgnLCAnNycsICctcGh0JywgJzAuNScsICctbnQn

> <r_lp_tautomer_probability>
1

> <r_epik_Ionization_Penalty>
  0.3251

> <r_epik_Ionization_Penalty_Charging>
  0.0000

> <r_epik_Ionization_Penalty_Neutral>
  0.3251

> <r_epik_State_Penalty>
  0.3197

> <r_epik_Charging_Adjusted_Penalty>
0.319688738916457

> <i_epik_Tot_Q>
1

> <i_epik_Tot_abs_Q>
1

$$$$
