2zit_ligand
                    3D
 Schrodinger Suite 2020-3.
 70 74  0  0  1  0            999 V2000
    3.3390   -5.0010   93.9860 P   0  0  2  0  0  0
    1.9380   -4.6130   94.3580 O   0  5  0  0  0  0
    4.2470   -5.5340   95.0530 O   0  0  0  0  0  0
    3.9980   -3.7030   93.3140 O   0  0  0  0  0  0
    3.1540   -2.9760   92.4230 C   0  0  0  0  0  0
    3.7610   -2.7090   91.0480 C   0  0  1  0  0  0
    4.1390   -1.3410   90.8760 O   0  0  0  0  0  0
    4.9760   -3.5590   90.6910 C   0  0  1  0  0  0
    4.5960   -4.7090   89.9230 O   0  0  0  0  0  0
    5.8660   -2.6080   89.9020 C   0  0  1  0  0  0
    6.1400   -3.1260   88.5980 O   0  0  0  0  0  0
    5.0550   -1.3240   89.7830 C   0  0  2  0  0  0
    5.9060   -0.1040   89.7250 N   0  0  0  0  0  0
    5.8230    0.8570   88.7920 C   0  0  0  0  0  0
    6.7350    1.8140   89.0650 N   0  0  0  0  0  0
    7.3900    1.4500   90.1830 C   0  0  0  0  0  0
    8.4160    2.0380   90.9140 C   0  0  0  0  0  0
    8.9540    3.2250   90.5300 N   0  0  0  0  0  0
    8.8690    1.4120   92.0220 N   0  0  0  0  0  0
    8.3430    0.2430   92.4120 C   0  0  0  0  0  0
    7.3520   -0.3440   91.7230 N   0  0  0  0  0  0
    6.8520    0.2440   90.6050 C   0  0  0  0  0  0
    3.2910   -6.0510   92.7660 O   0  0  0  0  0  0
    4.5090   -7.0560   92.4440 P   0  0  2  0  0  0
    5.7100   -6.7050   93.2750 O   0  0  0  0  0  0
    4.6540   -7.1560   90.9500 O   0  5  0  0  0  0
    3.8900   -8.4280   92.9930 O   0  0  0  0  0  0
    3.8390   -8.6330   94.4010 C   0  0  0  0  0  0
    3.6650  -10.1050   94.7530 C   0  0  1  0  0  0
    4.2290  -10.9170   93.7250 O   0  0  0  0  0  0
    4.4250  -10.4010   96.0340 C   0  0  1  0  0  0
    3.5310  -10.5980   97.1320 O   0  0  0  0  0  0
    5.2300  -11.6530   95.7540 C   0  0  1  0  0  0
    4.7180  -12.7580   96.5120 O   0  0  0  0  0  0
    5.0820  -11.9250   94.2670 C   0  0  2  0  0  0
    6.3890  -11.8340   93.6060 N   0  0  0  0  0  0
    6.5620  -10.9640   92.6030 C   0  0  0  0  0  0
    7.7820  -10.8610   91.9430 C   0  0  0  0  0  0
    7.9350   -9.8710   90.8240 C   0  0  0  0  0  0
    8.8960   -9.9470   90.0760 O   0  0  0  0  0  0
    6.9960   -8.9430   90.6640 N   0  0  0  0  0  0
    8.8340  -11.6850   92.3220 C   0  0  0  0  0  0
    8.6330  -12.5850   93.3570 C   0  0  0  0  0  0
    7.3890  -12.6440   93.9780 C   0  0  0  0  0  0
    2.2241   -3.5397   92.2569 H   0  0  0  0  0  0
    2.9152   -1.9960   92.8618 H   0  0  0  0  0  0
    2.9413   -2.9177   90.3447 H   0  0  0  0  0  0
    5.4807   -4.0251   91.5501 H   0  0  0  0  0  0
    3.9520   -5.4806   90.3700 H   0  0  0  0  0  0
    6.8643   -2.4786   90.3455 H   0  0  0  0  0  0
    6.7187   -4.0547   88.4855 H   0  0  0  0  0  0
    4.4589   -1.2593   88.8608 H   0  0  0  0  0  0
    5.1310    0.8637   87.9499 H   0  0  0  0  0  0
    8.5819    3.7311   89.6270 H   0  0  0  0  0  0
    9.7617    3.6800   91.1221 H   0  0  0  0  0  0
    8.7285   -0.2420   93.3088 H   0  0  0  0  0  0
    4.7745   -8.2773   94.8574 H   0  0  0  0  0  0
    2.9900   -8.0747   94.8223 H   0  0  0  0  0  0
    2.5983  -10.3642   94.8235 H   0  0  0  0  0  0
    5.0456   -9.5582   96.3724 H   0  0  0  0  0  0
    2.8745   -9.7788   97.4605 H   0  0  0  0  0  0
    6.2782  -11.5636   96.0753 H   0  0  0  0  0  0
    4.7454  -12.7306   97.6113 H   0  0  0  0  0  0
    4.6475  -12.9145   94.0620 H   0  0  0  0  0  0
    5.7188  -10.3243   92.3033 H   0  0  0  0  0  0
    6.1414   -8.9004   91.3553 H   0  0  0  0  0  0
    7.0739   -8.2180   89.8404 H   0  0  0  0  0  0
    9.7976  -11.6252   91.8161 H   0  0  0  0  0  0
    9.4452  -13.2486   93.6885 H   0  0  0  0  0  0
    7.2132  -13.3651   94.7899 H   0  0  0  0  0  0
  1  2  1  0  0  0
  1  3  2  0  0  0
  1  4  1  0  0  0
  1 23  1  0  0  0
  4  5  1  0  0  0
  5  6  1  0  0  0
  5 45  1  0  0  0
  5 46  1  0  0  0
  6  7  1  0  0  0
  6  8  1  0  0  0
  6 47  1  0  0  0
  7 12  1  0  0  0
  8  9  1  0  0  0
  8 10  1  0  0  0
  8 48  1  0  0  0
  9 49  1  0  0  0
 10 11  1  0  0  0
 10 12  1  0  0  0
 10 50  1  0  0  0
 11 51  1  0  0  0
 12 13  1  0  0  0
 12 52  1  0  0  0
 13 14  1  0  0  0
 13 22  1  0  0  0
 14 15  2  0  0  0
 14 53  1  0  0  0
 15 16  1  0  0  0
 16 17  1  0  0  0
 16 22  2  0  0  0
 17 18  1  0  0  0
 17 19  2  0  0  0
 18 54  1  0  0  0
 18 55  1  0  0  0
 19 20  1  0  0  0
 20 21  2  0  0  0
 20 56  1  0  0  0
 21 22  1  0  0  0
 23 24  1  0  0  0
 24 25  2  0  0  0
 24 26  1  0  0  0
 24 27  1  0  0  0
 27 28  1  0  0  0
 28 29  1  0  0  0
 28 57  1  0  0  0
 28 58  1  0  0  0
 29 30  1  0  0  0
 29 31  1  0  0  0
 29 59  1  0  0  0
 30 35  1  0  0  0
 31 32  1  0  0  0
 31 33  1  0  0  0
 31 60  1  0  0  0
 32 61  1  0  0  0
 33 34  1  0  0  0
 33 35  1  0  0  0
 33 62  1  0  0  0
 34 63  1  0  0  0
 35 36  1  0  0  0
 35 64  1  0  0  0
 36 37  1  0  0  0
 36 44  1  0  0  0
 37 38  2  0  0  0
 37 65  1  0  0  0
 38 39  1  0  0  0
 38 42  1  0  0  0
 39 40  2  0  0  0
 39 41  1  0  0  0
 41 66  1  0  0  0
 41 67  1  0  0  0
 42 43  1  0  0  0
 42 68  1  0  0  0
 43 44  2  0  0  0
 43 69  1  0  0  0
 44 70  1  0  0  0
M  CHG  2   2  -1  26  -1
M  END
> <s_m_source_file>
../2zit_ligand.sdf

> <i_m_source_file_index>
1

> <s_epik_input>
W05IMl1jMW5bY0hdbmMoYzEyKW4oW2NIXW4yKVtDQEBIXShbQ0BIXShbT0hdKVtDQEBIXTNbT0hdKU9bQ0BASF0zW0NIMl1PW1BAQF0oPU8pKFtPSF0pT1tQQF0oPU8pKFtPSF0pT1tDSDJdW0NASF00T1tDQEhdKFtDQEhdKFtPSF0pW0NAQEhdNFtPSF0pTjVbQ0hdPUMoQyg9TylbTkgyXSlbQ0gyXVtDSF09W0NIXTU=

> <s_epik_cmdline>
J2VwaWtfYXBwJywgJy1pbWFlJywgJ2xpZ2FuZF9wcm8ubWFlJywgJy1vbWFlJywgJ2xpZ2FuZF9wcmVwLm1hZScsICctbXMnLCAnMScsICctcGgnLCAnNycsICctcGh0JywgJzAuNScsICctbnQn

> <r_lp_tautomer_probability>
1

> <r_epik_Ionization_Penalty>
  0.0010

> <r_epik_Ionization_Penalty_Charging>
  0.0005

> <r_epik_Ionization_Penalty_Neutral>
  0.0005

> <r_epik_State_Penalty>
 -0.0000

> <r_epik_Charging_Adjusted_Penalty>
0.000545842572463949

> <i_epik_Tot_Q>
-2

> <i_epik_Tot_abs_Q>
2

> <s_epik_Chemistry_Notes>
This compound has an imine and may undergo hydrolysis. This compound contains an acetal/aminal-like group ( X-CH(R)-Y where X, Y are N, S, or O) that may be acid/base labile, releasing an aldehyde.

$$$$
