2zju_ligand
                    3D
 Schrodinger Suite 2020-3.
 31 32  0  0  1  0            999 V2000
   29.9310  -27.6730  -31.5650 C   0  0  0  0  0  0
   29.4720  -26.8520  -32.6270 C   0  0  0  0  0  0
   29.4520  -25.4450  -32.4270 C   0  0  0  0  0  0
   28.9030  -24.4050  -33.7080 Cl  0  0  0  0  0  0
   29.8530  -24.9010  -31.2700 N   0  0  0  0  0  0
   30.2930  -25.6520  -30.2440 C   0  0  0  0  0  0
   30.3560  -27.0840  -30.3420 C   0  0  0  0  0  0
   30.8620  -27.9590  -29.1820 C   0  0  0  0  0  0
   30.4740  -27.5720  -27.8100 N   0  3  1  0  0  0
   31.2770  -26.6650  -26.9730 C   0  0  0  0  0  0
   30.5190  -26.5320  -25.6360 C   0  0  0  0  0  0
   29.3270  -27.3680  -25.7820 N   0  3  2  0  0  0
   29.3130  -27.9570  -27.0660 C   0  0  3  0  0  0
   28.4160  -28.7680  -27.5020 N   0  0  3  0  0  0
   27.2430  -29.2760  -26.9930 N   0  3  0  0  0  0
   26.8050  -29.0090  -25.7960 O   0  0  0  0  0  0
   26.5520  -30.0730  -27.7290 O   0  5  0  0  0  0
   29.9580  -28.7559  -31.6863 H   0  0  0  0  0  0
   29.1437  -27.2882  -33.5704 H   0  0  0  0  0  0
   30.6076  -25.1648  -29.3211 H   0  0  0  0  0  0
   30.4898  -28.9864  -29.3083 H   0  0  0  0  0  0
   31.9620  -27.9651  -29.1801 H   0  0  0  0  0  0
   32.2773  -27.0964  -26.8202 H   0  0  0  0  0  0
   31.3707  -25.6903  -27.4741 H   0  0  0  0  0  0
   31.1601  -26.8841  -24.8144 H   0  0  0  0  0  0
   30.2538  -25.4777  -25.4681 H   0  0  0  0  0  0
   29.3383  -28.1592  -25.0179 H   0  0  0  0  0  0
   28.4099  -28.4865  -27.4038 H   0  0  0  0  0  0
   28.6206  -29.1140  -28.4395 H   0  0  0  0  0  0
   28.4269  -26.7486  -25.6551 H   0  0  0  0  0  0
   31.0296  -28.4330  -27.4100 H   0  0  0  0  0  0
  1  2  2  0  0  0
  1  7  1  0  0  0
  1 18  1  0  0  0
  2  3  1  0  0  0
  2 19  1  0  0  0
  3  4  1  0  0  0
  3  5  2  0  0  0
  5  6  1  0  0  0
  6  7  2  0  0  0
  6 20  1  0  0  0
  7  8  1  0  0  0
  8  9  1  0  0  0
  8 21  1  0  0  0
  8 22  1  0  0  0
  9 10  1  0  0  0
  9 13  1  0  0  0
  9 31  1  0  0  0
 10 11  1  0  0  0
 10 23  1  0  0  0
 10 24  1  0  0  0
 11 12  1  0  0  0
 11 25  1  0  0  0
 11 26  1  0  0  0
 12 13  1  0  0  0
 12 27  1  0  0  0
 12 30  1  0  0  0
 13 14  1  0  0  0
 13 28  1  0  0  0
 14 15  1  0  0  0
 14 29  1  0  0  0
 15 16  2  0  0  0
 15 17  1  0  0  0
M  CHG  4   9   1  12   1  15   1  17  -1
M  END
> <s_m_source_file>
../2zju_ligand.sdf

> <i_m_source_file_index>
1

> <s_epik_input>
Q2xjMVtjSF1bY0hdYyhbY0hdbjEpW0NIMl1OMltDSDJdW0NIMl1bTkhdW0NIXTJbTkhdW04rXSg9TylbTy1d

> <s_epik_cmdline>
J2VwaWtfYXBwJywgJy1pbWFlJywgJ2xpZ2FuZF9wcm8ubWFlJywgJy1vbWFlJywgJ2xpZ2FuZF9wcmVwLm1hZScsICctbXMnLCAnMScsICctcGgnLCAnNycsICctcGh0JywgJzAuNScsICctbnQn

> <r_lp_tautomer_probability>
1

> <r_epik_Ionization_Penalty>
  1.6801

> <r_epik_Ionization_Penalty_Charging>
  1.6801

> <r_epik_Ionization_Penalty_Neutral>
  0.0000

> <r_epik_State_Penalty>
 -0.0000

> <r_epik_Charging_Adjusted_Penalty>
1.68014697061275

> <i_epik_Tot_Q>
2

> <i_epik_Tot_abs_Q>
4

> <s_epik_Chemistry_Notes>
This compound contains an acetal/aminal-like group ( X-CH(R)-Y where X, Y are N, S, or O) that may be acid/base labile, releasing an aldehyde.

$$$$
