2zkj_ligand
                    3D
 Schrodinger Suite 2020-3.
 39 41  0  0  1  0            999 V2000
  -21.6730    5.2810   26.5140 P   0  0  0  0  0  0
  -21.0930    5.2840   27.9140 O   0  5  0  0  0  0
  -23.1380    4.7920   26.4160 O   0  5  0  0  0  0
  -21.5700    6.5460   25.8290 O   0  0  0  0  0  0
  -19.5600    4.5260   24.6230 P   0  0  2  0  0  0
  -19.7820    5.6630   23.7150 O   0  0  0  0  0  0
  -18.9730    3.1650   24.1710 O   0  5  0  0  0  0
  -20.7960    4.1770   25.6370 O   0  0  0  0  0  0
  -18.4730    5.1310   25.5790 O   0  0  0  0  0  0
  -18.0640    4.2960   26.6710 C   0  0  0  0  0  0
  -17.3060    5.0840   27.7650 C   0  0  1  0  0  0
  -16.0770    5.6490   27.2800 O   0  0  0  0  0  0
  -18.0910    6.2850   28.3200 C   0  0  1  0  0  0
  -19.0840    5.8490   29.3000 O   0  0  0  0  0  0
  -16.9520    7.1270   28.9200 C   0  0  1  0  0  0
  -16.6770    6.5460   30.1850 O   0  0  0  0  0  0
  -15.7060    6.7920   28.0780 C   0  0  2  0  0  0
  -15.5070    7.8820   27.1380 N   0  0  0  0  0  0
  -15.8960    7.8510   25.8440 C   0  0  0  0  0  0
  -15.5480    8.9990   25.2730 N   0  0  0  0  0  0
  -15.0020    9.7810   26.2320 C   0  0  0  0  0  0
  -14.4560   11.1190   26.2870 C   0  0  0  0  0  0
  -14.4640   11.9250   25.1590 N   0  0  0  0  0  0
  -13.9550   11.5320   27.4670 N   0  0  0  0  0  0
  -13.9620   10.7930   28.5770 C   0  0  0  0  0  0
  -14.4340    9.5580   28.6160 N   0  0  0  0  0  0
  -14.9620    9.0320   27.4620 C   0  0  0  0  0  0
  -18.9504    3.8386   27.1348 H   0  0  0  0  0  0
  -17.3963    3.5054   26.2980 H   0  0  0  0  0  0
  -17.0679    4.3423   28.5416 H   0  0  0  0  0  0
  -18.7324    6.8327   27.6139 H   0  0  0  0  0  0
  -19.9425    5.2405   28.9797 H   0  0  0  0  0  0
  -17.1844    8.1968   29.0277 H   0  0  0  0  0  0
  -17.4103    6.6313   31.0005 H   0  0  0  0  0  0
  -14.7890    6.6096   28.6575 H   0  0  0  0  0  0
  -16.4084    7.0242   25.3522 H   0  0  0  0  0  0
  -14.8837   11.5463   24.2154 H   0  0  0  0  0  0
  -14.0507   12.9432   25.2077 H   0  0  0  0  0  0
  -13.5608   11.2261   29.4933 H   0  0  0  0  0  0
  1  2  1  0  0  0
  1  3  1  0  0  0
  1  4  2  0  0  0
  1  8  1  0  0  0
  5  6  2  0  0  0
  5  7  1  0  0  0
  5  8  1  0  0  0
  5  9  1  0  0  0
  9 10  1  0  0  0
 10 11  1  0  0  0
 10 28  1  0  0  0
 10 29  1  0  0  0
 11 12  1  0  0  0
 11 13  1  0  0  0
 11 30  1  0  0  0
 12 17  1  0  0  0
 13 14  1  0  0  0
 13 15  1  0  0  0
 13 31  1  0  0  0
 14 32  1  0  0  0
 15 16  1  0  0  0
 15 17  1  0  0  0
 15 33  1  0  0  0
 16 34  1  0  0  0
 17 18  1  0  0  0
 17 35  1  0  0  0
 18 19  1  0  0  0
 18 27  1  0  0  0
 19 20  2  0  0  0
 19 36  1  0  0  0
 20 21  1  0  0  0
 21 22  2  0  0  0
 21 27  1  0  0  0
 22 23  1  0  0  0
 22 24  1  0  0  0
 23 37  1  0  0  0
 23 38  1  0  0  0
 24 25  2  0  0  0
 25 26  1  0  0  0
 25 39  1  0  0  0
 26 27  2  0  0  0
M  CHG  3   2  -1   3  -1   7  -1
M  END
> <s_m_source_file>
../2zkj_ligand.sdf

> <i_m_source_file_index>
1

> <s_epik_input>
W09IXVAoPU8pKFtPSF0pT1tQQF0oPU8pKFtPSF0pT1tDSDJdW0NASF0xT1tDQEhdKFtDQEhdKFtPSF0pW0NAQEhdMVtPSF0pbihbY0hdbjIpYyhjMjMpbltjSF1uYzNbTkgyXQ==

> <s_epik_cmdline>
J2VwaWtfYXBwJywgJy1pbWFlJywgJ2xpZ2FuZF9wcm8ubWFlJywgJy1vbWFlJywgJ2xpZ2FuZF9wcmVwLm1hZScsICctbXMnLCAnMScsICctcGgnLCAnNycsICctcGh0JywgJzAuNScsICctbnQn

> <r_lp_tautomer_probability>
0.999997216410988

> <r_epik_Ionization_Penalty>
  0.1037

> <r_epik_Ionization_Penalty_Charging>
  0.1033

> <r_epik_Ionization_Penalty_Neutral>
  0.0004

> <r_epik_State_Penalty>
  0.0922

> <r_epik_Charging_Adjusted_Penalty>
0.19546844050481

> <i_epik_Tot_Q>
-3

> <i_epik_Tot_abs_Q>
3

> <s_epik_Chemistry_Notes>
This compound contains an acetal/aminal-like group ( X-CH(R)-Y where X, Y are N, S, or O) that may be acid/base labile, releasing an aldehyde.

$$$$
