2zlf_ligand
                    3D
 Schrodinger Suite 2020-3.
110111  0  0  1  0            999 V2000
   10.6210   22.3470   -1.5420 N   0  3  0  0  0  0
   11.2600   22.6180   -0.2560 C   0  0  2  0  0  0
   12.5170   21.7630   -0.0510 C   0  0  0  0  0  0
   12.4480   20.5310   -0.0250 O   0  0  0  0  0  0
   10.2640   22.3960    0.8850 C   0  0  0  0  0  0
   10.8620   22.5380    2.2570 C   0  0  0  0  0  0
   10.7070   23.7130    2.9710 C   0  0  0  0  0  0
   11.5660   21.4920    2.8370 C   0  0  0  0  0  0
   11.2460   23.8420    4.2370 C   0  0  0  0  0  0
   12.1090   21.6160    4.0960 C   0  0  0  0  0  0
   11.9520   22.7920    4.7980 C   0  0  0  0  0  0
   13.6600   22.4290    0.1040 N   0  0  0  0  0  0
   14.9440   21.7350    0.2420 C   0  0  2  0  0  0
   15.8510   22.3100    1.3400 C   0  0  0  0  0  0
   15.9870   23.5270    1.4740 O   0  0  0  0  0  0
   15.7290   21.6940   -1.1000 C   0  0  2  0  0  0
   17.0780   21.2730   -0.8510 O   0  0  0  0  0  0
   15.7460   23.0670   -1.7730 C   0  0  0  0  0  0
   16.4620   21.4180    2.1180 N   0  0  0  0  0  0
   17.4230   21.8050    3.1460 C   0  0  2  0  0  0
   18.8440   21.4940    2.6770 C   0  0  0  0  0  0
   19.8270   21.8610    3.3350 O   0  0  0  0  0  0
   17.1420   21.0920    4.4800 C   0  0  0  0  0  0
   15.7670   21.2170    5.1560 C   0  0  0  0  0  0
   15.8330   20.7480    6.6030 C   0  0  0  0  0  0
   15.2350   22.6310    5.0930 C   0  0  0  0  0  0
   18.9530   20.8220    1.5320 N   0  0  0  0  0  0
   20.2650   20.4820    0.9690 C   0  0  2  0  0  0
   20.5490   21.2540   -0.3200 C   0  0  0  0  0  0
   20.2650   20.7720   -1.4210 O   0  0  0  0  0  0
   20.3730   18.9740    0.7170 C   0  0  0  0  0  0
   19.5540   18.1630    1.7030 C   0  0  0  0  0  0
   18.3470   17.9520    1.4390 O   0  5  0  0  0  0
   20.1170   17.7360    2.7370 O   0  0  0  0  0  0
   21.1070   22.4510   -0.1740 N   0  0  0  0  0  0
   21.4520   23.2830   -1.3210 C   0  0  2  0  0  0
   22.8020   23.9870   -1.1060 C   0  0  0  0  0  0
   23.2310   24.1780    0.0330 O   0  0  0  0  0  0
   20.3400   24.2910   -1.5940 C   0  0  0  0  0  0
   23.4720   24.3480   -2.2020 N   0  0  0  0  0  0
   24.7840   25.0020   -2.1370 C   0  0  2  0  0  0
   24.6470   26.4580   -1.7070 C   0  0  0  0  0  0
   24.1530   27.2980   -2.4670 O   0  0  0  0  0  0
   25.5100   24.9380   -3.4910 C   0  0  0  0  0  0
   26.2400   23.6100   -3.7130 C   0  0  0  0  0  0
   26.4790   23.2510   -4.8920 O   0  5  0  0  0  0
   26.5780   22.9270   -2.7160 O   0  0  0  0  0  0
   25.0710   26.7670   -0.4870 N   0  0  0  0  0  0
   24.9760   28.1480   -0.0180 C   0  0  2  0  0  0
   26.2370   28.5990    0.7260 C   0  0  0  0  0  0
   26.4180   29.8010    0.9490 O   0  0  0  0  0  0
   23.6960   28.3780    0.8140 C   0  0  0  0  0  0
   23.7330   27.7600    2.1880 C   0  0  0  0  0  0
   24.2710   28.4550    3.2620 C   0  0  0  0  0  0
   23.2210   26.4950    2.4070 C   0  0  0  0  0  0
   24.3030   27.8950    4.5210 C   0  0  0  0  0  0
   23.2540   25.9290    3.6650 C   0  0  0  0  0  0
   23.7970   26.6320    4.7250 C   0  0  0  0  0  0
   27.0910   27.7830    1.1020 O   0  5  0  0  0  0
   11.3459   22.5098   -2.3532 H   0  0  0  0  0  0
    9.7637   23.0232   -1.6752 H   0  0  0  0  0  0
   10.2724   21.3040   -1.5656 H   0  0  0  0  0  0
   11.5567   23.6762   -0.3031 H   0  0  0  0  0  0
    9.4494   23.1313    0.8089 H   0  0  0  0  0  0
    9.8483   21.3799    0.8164 H   0  0  0  0  0  0
   10.1552   24.5438    2.5313 H   0  0  0  0  0  0
   11.6908   20.5588    2.2878 H   0  0  0  0  0  0
   11.1152   24.7701    4.7934 H   0  0  0  0  0  0
   12.6617   20.7863    4.5367 H   0  0  0  0  0  0
   12.3834   22.8948    5.7937 H   0  0  0  0  0  0
   13.6236   23.5282    0.1271 H   0  0  0  0  0  0
   14.6114   20.7338    0.5534 H   0  0  0  0  0  0
   15.2948   20.9519   -1.7861 H   0  0  0  0  0  0
   17.2715   20.3032   -0.3692 H   0  0  0  0  0  0
   14.7135   23.3937   -1.9658 H   0  0  0  0  0  0
   16.2938   23.0021   -2.7247 H   0  0  0  0  0  0
   16.2430   23.7929   -1.1126 H   0  0  0  0  0  0
   16.2193   20.3563    1.9637 H   0  0  0  0  0  0
   17.2855   22.8892    3.2712 H   0  0  0  0  0  0
   17.2716   20.0074    4.3504 H   0  0  0  0  0  0
   17.8432   21.4562    5.2453 H   0  0  0  0  0  0
   15.0600   20.5792    4.6053 H   0  0  0  0  0  0
   16.2209   19.7193    6.6377 H   0  0  0  0  0  0
   14.8254   20.7750    7.0435 H   0  0  0  0  0  0
   16.5004   21.4109    7.1732 H   0  0  0  0  0  0
   15.1913   22.9599    4.0442 H   0  0  0  0  0  0
   15.9008   23.2988    5.6593 H   0  0  0  0  0  0
   14.2259   22.6629    5.5296 H   0  0  0  0  0  0
   18.0345   20.5212    1.0069 H   0  0  0  0  0  0
   20.9879   20.7932    1.7375 H   0  0  0  0  0  0
   20.0100   18.7446   -0.2957 H   0  0  0  0  0  0
   21.4235   18.6611    0.8096 H   0  0  0  0  0  0
   21.3079   22.8100    0.8462 H   0  0  0  0  0  0
   21.5358   22.5936   -2.1741 H   0  0  0  0  0  0
   19.3898   23.7573   -1.7430 H   0  0  0  0  0  0
   20.5822   24.8681   -2.4986 H   0  0  0  0  0  0
   20.2462   24.9745   -0.7372 H   0  0  0  0  0  0
   23.0089   24.1400   -3.1778 H   0  0  0  0  0  0
   25.3401   24.4344   -1.3763 H   0  0  0  0  0  0
   24.7798   25.0592   -4.3047 H   0  0  0  0  0  0
   26.2565   25.7441   -3.5452 H   0  0  0  0  0  0
   25.4917   25.9910    0.1693 H   0  0  0  0  0  0
   24.9123   28.7349   -0.9462 H   0  0  0  0  0  0
   23.5362   29.4578    0.9500 H   0  0  0  0  0  0
   22.8335   27.9432    0.2877 H   0  0  0  0  0  0
   24.6733   29.4563    3.1080 H   0  0  0  0  0  0
   22.7863   25.9383    1.5768 H   0  0  0  0  0  0
   24.7291   28.4527    5.3549 H   0  0  0  0  0  0
   22.8522   24.9282    3.8232 H   0  0  0  0  0  0
   23.8240   26.1866    5.7195 H   0  0  0  0  0  0
  1  2  1  0  0  0
  1 60  1  0  0  0
  1 61  1  0  0  0
  1 62  1  0  0  0
  2  3  1  0  0  0
  2  5  1  0  0  0
  2 63  1  0  0  0
  3  4  2  0  0  0
  3 12  1  0  0  0
  5  6  1  0  0  0
  5 64  1  0  0  0
  5 65  1  0  0  0
  6  7  2  0  0  0
  6  8  1  0  0  0
  7  9  1  0  0  0
  7 66  1  0  0  0
  8 10  2  0  0  0
  8 67  1  0  0  0
  9 11  2  0  0  0
  9 68  1  0  0  0
 10 11  1  0  0  0
 10 69  1  0  0  0
 11 70  1  0  0  0
 12 13  1  0  0  0
 12 71  1  0  0  0
 13 14  1  0  0  0
 13 16  1  0  0  0
 13 72  1  0  0  0
 14 15  2  0  0  0
 14 19  1  0  0  0
 16 17  1  0  0  0
 16 18  1  0  0  0
 16 73  1  0  0  0
 17 74  1  0  0  0
 18 75  1  0  0  0
 18 76  1  0  0  0
 18 77  1  0  0  0
 19 20  1  0  0  0
 19 78  1  0  0  0
 20 21  1  0  0  0
 20 23  1  0  0  0
 20 79  1  0  0  0
 21 22  2  0  0  0
 21 27  1  0  0  0
 23 24  1  0  0  0
 23 80  1  0  0  0
 23 81  1  0  0  0
 24 25  1  0  0  0
 24 26  1  0  0  0
 24 82  1  0  0  0
 25 83  1  0  0  0
 25 84  1  0  0  0
 25 85  1  0  0  0
 26 86  1  0  0  0
 26 87  1  0  0  0
 26 88  1  0  0  0
 27 28  1  0  0  0
 27 89  1  0  0  0
 28 29  1  0  0  0
 28 31  1  0  0  0
 28 90  1  0  0  0
 29 30  2  0  0  0
 29 35  1  0  0  0
 31 32  1  0  0  0
 31 91  1  0  0  0
 31 92  1  0  0  0
 32 33  1  0  0  0
 32 34  2  0  0  0
 35 36  1  0  0  0
 35 93  1  0  0  0
 36 37  1  0  0  0
 36 39  1  0  0  0
 36 94  1  0  0  0
 37 38  2  0  0  0
 37 40  1  0  0  0
 39 95  1  0  0  0
 39 96  1  0  0  0
 39 97  1  0  0  0
 40 41  1  0  0  0
 40 98  1  0  0  0
 41 42  1  0  0  0
 41 44  1  0  0  0
 41 99  1  0  0  0
 42 43  2  0  0  0
 42 48  1  0  0  0
 44 45  1  0  0  0
 44100  1  0  0  0
 44101  1  0  0  0
 45 46  1  0  0  0
 45 47  2  0  0  0
 48 49  1  0  0  0
 48102  1  0  0  0
 49 50  1  0  0  0
 49 52  1  0  0  0
 49103  1  0  0  0
 50 51  2  0  0  0
 50 59  1  0  0  0
 52 53  1  0  0  0
 52104  1  0  0  0
 52105  1  0  0  0
 53 54  2  0  0  0
 53 55  1  0  0  0
 54 56  1  0  0  0
 54106  1  0  0  0
 55 57  2  0  0  0
 55107  1  0  0  0
 56 58  2  0  0  0
 56108  1  0  0  0
 57 58  1  0  0  0
 57109  1  0  0  0
 58110  1  0  0  0
M  CHG  4   1   1  33  -1  46  -1  59  -1
M  END
> <s_m_source_file>
../2zlf_ligand.sdf

> <i_m_source_file_index>
1

> <s_epik_input>
W2NIXTFbY0hdW2NIXVtjSF1bY0hdYzFbQ0gyXVtDQEhdKFtOSDMrXSlDKD1PKVtOSF1bQ0BASF0oW0NASF0oW09IXSlbQ0gzXSlDKD1PKVtOSF1bQ0BASF0oW0NIMl1bQ0hdKFtDSDNdKVtDSDNdKUMoPU8pW05IXVtDQEBIXShbQ0gyXUMoPU8pW09IXSlDKD1PKVtOSF1bQ0BASF0oW0NIM10pQyg9TylbTkhdW0NAQEhdKFtDSDJdQyg9TylbT0hdKUMoPU8pW05IXVtDQEhdKEMoPU8pW09IXSlbQ0gyXWMyW2NIXVtjSF1bY0hdW2NIXVtjSF0y

> <s_epik_cmdline>
J2VwaWtfYXBwJywgJy1pbWFlJywgJ2xpZ2FuZF9wcm8ubWFlJywgJy1vbWFlJywgJ2xpZ2FuZF9wcmVwLm1hZScsICctbXMnLCAnMScsICctcGgnLCAnNycsICctcGh0JywgJzAuNScsICctbnQn

> <r_epik_Ionization_Penalty>
  0.2009

> <r_epik_Ionization_Penalty_Charging>
  0.2009

> <r_epik_Ionization_Penalty_Neutral>
  0.0000

> <r_epik_State_Penalty>
  0.1876

> <r_epik_Charging_Adjusted_Penalty>
0.388528660918719

> <i_epik_Tot_Q>
-2

> <i_epik_Tot_abs_Q>
4

$$$$
