2zlg_ligand
                    3D
 Schrodinger Suite 2020-3.
138143  0  0  1  0            999 V2000
   11.8780   19.0230   -1.9680 O   0  0  0  0  0  0
   10.9920   20.4400   -3.5320 O   0  0  0  0  0  0
   10.5730   21.7970   -3.4270 C   0  0  0  0  0  0
   11.7660   22.6290   -3.8750 C   0  0  0  0  0  0
   11.5700   24.0540   -3.6170 C   0  0  0  0  0  0
   11.4090   24.6640   -2.3830 C   0  0  0  0  0  0
   11.2370   26.0450   -2.3730 C   0  0  0  0  0  0
   11.2290   26.7740   -3.5660 C   0  0  0  0  0  0
   11.8690   22.6430   -5.3340 C   0  0  0  0  0  0
   12.0620   21.5530   -6.1670 C   0  0  0  0  0  0
   12.1300   21.7950   -7.5360 C   0  0  0  0  0  0
   12.0070   23.0900   -8.0440 C   0  0  0  0  0  0
   11.8120   24.1800   -7.1970 C   0  0  0  0  0  0
   11.7490   23.9140   -5.8410 C   0  0  0  0  0  0
   11.5670   24.7820   -4.7860 C   0  0  0  0  0  0
   11.3980   26.1530   -4.8010 C   0  0  0  0  0  0
   12.1030   19.9570   -2.7190 C   0  0  0  0  0  0
   16.4120   21.5540   -2.8190 C   0  0  0  0  0  0
   15.8480   20.2900   -3.4610 C   0  0  0  0  0  0
   16.4690   19.7920   -4.3950 O   0  0  0  0  0  0
   14.5660   19.6170   -2.9890 C   0  0  1  0  0  0
   14.8980   18.7490   -1.8130 C   0  0  0  0  0  0
   16.0760   18.0050   -1.8650 C   0  0  0  0  0  0
   16.4340   17.1720   -0.8080 C   0  0  0  0  0  0
   15.6200   17.0680    0.3160 C   0  0  0  0  0  0
   14.4430   17.8040    0.3780 C   0  0  0  0  0  0
   14.0910   18.6370   -0.6800 C   0  0  0  0  0  0
   13.4150   20.5650   -2.8440 N   0  0  0  0  0  0
   13.6710   21.5540   -1.7730 C   0  0  0  0  0  0
   19.3260   21.1210   -2.2710 O   0  0  0  0  0  0
   19.1710   21.7260   -1.2180 C   0  0  0  0  0  0
   17.7910   21.9410   -0.6390 C   0  0  2  0  0  0
   17.8000   21.2650    0.7340 C   0  0  0  0  0  0
   16.4360   21.2760    1.4110 C   0  0  0  0  0  0
   16.2940   22.4640    2.3520 C   0  0  0  0  0  0
   16.2020   19.9830    2.1790 C   0  0  0  0  0  0
   16.6780   21.3710   -1.3960 N   0  0  1  0  0  0
   20.1980   22.2090   -0.5040 N   0  0  0  0  0  0
   21.5890   22.0570   -0.9330 C   0  0  1  0  0  0
   21.8110   22.9490   -2.1570 C   0  0  0  0  0  0
   21.7980   24.4240   -1.8180 C   0  0  0  0  0  0
   22.6490   24.8810   -1.0210 O   0  5  0  0  0  0
   20.9340   25.1430   -2.3680 O   0  0  0  0  0  0
   22.5780   22.4150    0.1480 C   0  0  0  0  0  0
   22.1860   22.8410    1.2220 O   0  0  0  0  0  0
   23.8730   22.2380   -0.1390 N   0  0  0  0  0  0
   24.9440   22.5310    0.8130 C   0  0  1  0  0  0
   25.5310   21.1800    1.2180 C   0  0  0  0  0  0
   26.4410   21.3160    2.4370 C   0  0  0  0  0  0
   25.6530   21.7120    3.6810 C   0  0  0  0  0  0
   24.5480   20.7000    3.9650 C   0  0  0  0  0  0
   23.6360   20.5460    2.7540 C   0  0  0  0  0  0
   24.4380   20.1580    1.5150 C   0  0  0  0  0  0
   26.0310   23.4080    0.2370 C   0  0  0  0  0  0
   26.8890   23.8810    0.9730 O   0  0  0  0  0  0
   26.0040   23.6410   -1.0840 N   0  0  0  0  0  0
   26.9840   24.5000   -1.7500 C   0  0  1  0  0  0
   26.8690   24.2280   -3.2480 C   0  0  0  0  0  0
   25.7000   24.9820   -3.8400 C   0  0  0  0  0  0
   25.9140   26.0840   -4.3980 O   0  5  0  0  0  0
   24.5590   24.4700   -3.7640 O   0  0  0  0  0  0
   26.6290   25.9170   -1.4000 C   0  0  0  0  0  0
   27.1840   26.8860   -1.8920 O   0  0  0  0  0  0
   25.6430   25.9460   -0.5090 N   0  0  0  0  0  0
   24.9800   27.0340    0.1710 C   0  0  2  0  0  0
   26.0620   27.8790    0.7660 C   0  0  0  0  0  0
   25.9330   29.1320    0.7810 O   0  0  0  0  0  0
   27.0740   27.2700    1.2120 O   0  5  0  0  0  0
   24.2430   26.2120    1.2000 C   0  0  0  0  0  0
   24.0820   26.3970    2.6610 C   0  0  0  0  0  0
   24.5880   27.4880    3.3520 C   0  0  0  0  0  0
   24.3890   27.5910    4.7210 C   0  0  0  0  0  0
   23.6820   26.6080    5.3970 C   0  0  0  0  0  0
   23.1710   25.5140    4.7110 C   0  0  0  0  0  0
   23.3740   25.4130    3.3420 C   0  0  0  0  0  0
    9.7015   21.9630   -4.0773 H   0  0  0  0  0  0
   10.2997   22.0168   -2.3844 H   0  0  0  0  0  0
   12.6451   22.2141   -3.3602 H   0  0  0  0  0  0
   11.4168   24.0862   -1.4588 H   0  0  0  0  0  0
   11.1070   26.5645   -1.4236 H   0  0  0  0  0  0
   11.0871   27.8541   -3.5286 H   0  0  0  0  0  0
   12.1570   20.5441   -5.7655 H   0  0  0  0  0  0
   12.2815   20.9614   -8.2217 H   0  0  0  0  0  0
   12.0644   23.2512   -9.1205 H   0  0  0  0  0  0
   11.7138   25.1939   -7.5849 H   0  0  0  0  0  0
   11.3970   26.7198   -5.7320 H   0  0  0  0  0  0
   17.3563   21.8262   -3.3131 H   0  0  0  0  0  0
   15.6895   22.3758   -2.9309 H   0  0  0  0  0  0
   14.1505   18.9412   -3.7510 H   0  0  0  0  0  0
   16.7220   18.0759   -2.7401 H   0  0  0  0  0  0
   17.3586   16.5972   -0.8614 H   0  0  0  0  0  0
   15.9034   16.4145    1.1410 H   0  0  0  0  0  0
   13.7971   17.7292    1.2529 H   0  0  0  0  0  0
   13.1673   19.2129   -0.6225 H   0  0  0  0  0  0
   12.8112   22.2350   -1.6897 H   0  0  0  0  0  0
   14.5746   22.1323   -2.0163 H   0  0  0  0  0  0
   13.8175   21.0297   -0.8172 H   0  0  0  0  0  0
   17.5869   23.0215   -0.6664 H   0  0  0  0  0  0
   18.1101   20.2154    0.6239 H   0  0  0  0  0  0
   18.5059   21.7883    1.3958 H   0  0  0  0  0  0
   15.6778   21.3650    0.6190 H   0  0  0  0  0  0
   16.4637   23.3964    1.7936 H   0  0  0  0  0  0
   17.0344   22.3813    3.1613 H   0  0  0  0  0  0
   15.2812   22.4728    2.7811 H   0  0  0  0  0  0
   16.3054   19.1270    1.4959 H   0  0  0  0  0  0
   15.1891   19.9895    2.6080 H   0  0  0  0  0  0
   16.9424   19.8980    2.9881 H   0  0  0  0  0  0
   15.8261   21.7496   -0.8121 H   0  0  0  0  0  0
   19.9660   22.7347    0.4340 H   0  0  0  0  0  0
   21.7263   20.9876   -1.1511 H   0  0  0  0  0  0
   22.7870   22.7165   -2.6079 H   0  0  0  0  0  0
   21.0142   22.7665   -2.8931 H   0  0  0  0  0  0
   24.1172   21.8546   -1.1407 H   0  0  0  0  0  0
   24.4981   23.0981    1.6434 H   0  0  0  0  0  0
   26.1235   20.8222    0.3631 H   0  0  0  0  0  0
   26.9391   20.3548    2.6317 H   0  0  0  0  0  0
   27.1991   22.0894    2.2442 H   0  0  0  0  0  0
   26.3302   21.7509    4.5470 H   0  0  0  0  0  0
   25.1975   22.7014    3.5270 H   0  0  0  0  0  0
   24.9966   19.7233    4.1992 H   0  0  0  0  0  0
   23.9481   21.0426    4.8210 H   0  0  0  0  0  0
   22.8912   19.7615    2.9534 H   0  0  0  0  0  0
   23.1218   21.4986    2.5587 H   0  0  0  0  0  0
   23.7503   20.0973    0.6586 H   0  0  0  0  0  0
   24.8949   19.1726    1.6890 H   0  0  0  0  0  0
   25.2074   23.1587   -1.6696 H   0  0  0  0  0  0
   28.0100   24.2976   -1.4089 H   0  0  0  0  0  0
   27.7921   24.5514   -3.7513 H   0  0  0  0  0  0
   26.7185   23.1512   -3.4147 H   0  0  0  0  0  0
   25.3381   24.9075   -0.3128 H   0  0  0  0  0  0
   24.3442   27.7057   -0.4244 H   0  0  0  0  0  0
   23.1760   26.1657    0.9365 H   0  0  0  0  0  0
   24.6595   25.1942    1.2230 H   0  0  0  0  0  0
   25.1408   28.2627    2.8206 H   0  0  0  0  0  0
   24.7890   28.4459    5.2662 H   0  0  0  0  0  0
   23.5266   26.6945    6.4724 H   0  0  0  0  0  0
   22.6155   24.7417    5.2431 H   0  0  0  0  0  0
   22.9760   24.5570    2.7971 H   0  0  0  0  0  0
  1 17  2  0  0  0
  2  3  1  0  0  0
  2 17  1  0  0  0
  3  4  1  0  0  0
  3 76  1  0  0  0
  3 77  1  0  0  0
  4  5  1  0  0  0
  4  9  1  0  0  0
  4 78  1  0  0  0
  5  6  2  0  0  0
  5 15  1  0  0  0
  6  7  1  0  0  0
  6 79  1  0  0  0
  7  8  2  0  0  0
  7 80  1  0  0  0
  8 16  1  0  0  0
  8 81  1  0  0  0
  9 10  2  0  0  0
  9 14  1  0  0  0
 10 11  1  0  0  0
 10 82  1  0  0  0
 11 12  2  0  0  0
 11 83  1  0  0  0
 12 13  1  0  0  0
 12 84  1  0  0  0
 13 14  2  0  0  0
 13 85  1  0  0  0
 14 15  1  0  0  0
 15 16  2  0  0  0
 16 86  1  0  0  0
 17 28  1  0  0  0
 18 19  1  0  0  0
 18 37  1  0  0  0
 18 87  1  0  0  0
 18 88  1  0  0  0
 19 20  2  0  0  0
 19 21  1  0  0  0
 21 22  1  0  0  0
 21 28  1  0  0  0
 21 89  1  0  0  0
 22 23  2  0  0  0
 22 27  1  0  0  0
 23 24  1  0  0  0
 23 90  1  0  0  0
 24 25  2  0  0  0
 24 91  1  0  0  0
 25 26  1  0  0  0
 25 92  1  0  0  0
 26 27  2  0  0  0
 26 93  1  0  0  0
 27 94  1  0  0  0
 28 29  1  0  0  0
 29 95  1  0  0  0
 29 96  1  0  0  0
 29 97  1  0  0  0
 30 31  2  0  0  0
 31 32  1  0  0  0
 31 38  1  0  0  0
 32 33  1  0  0  0
 32 37  1  0  0  0
 32 98  1  0  0  0
 33 34  1  0  0  0
 33 99  1  0  0  0
 33100  1  0  0  0
 34 35  1  0  0  0
 34 36  1  0  0  0
 34101  1  0  0  0
 35102  1  0  0  0
 35103  1  0  0  0
 35104  1  0  0  0
 36105  1  0  0  0
 36106  1  0  0  0
 36107  1  0  0  0
 37108  1  0  0  0
 38 39  1  0  0  0
 38109  1  0  0  0
 39 40  1  0  0  0
 39 44  1  0  0  0
 39110  1  0  0  0
 40 41  1  0  0  0
 40111  1  0  0  0
 40112  1  0  0  0
 41 42  1  0  0  0
 41 43  2  0  0  0
 44 45  2  0  0  0
 44 46  1  0  0  0
 46 47  1  0  0  0
 46113  1  0  0  0
 47 48  1  0  0  0
 47 54  1  0  0  0
 47114  1  0  0  0
 48 49  1  0  0  0
 48 53  1  0  0  0
 48115  1  0  0  0
 49 50  1  0  0  0
 49116  1  0  0  0
 49117  1  0  0  0
 50 51  1  0  0  0
 50118  1  0  0  0
 50119  1  0  0  0
 51 52  1  0  0  0
 51120  1  0  0  0
 51121  1  0  0  0
 52 53  1  0  0  0
 52122  1  0  0  0
 52123  1  0  0  0
 53124  1  0  0  0
 53125  1  0  0  0
 54 55  2  0  0  0
 54 56  1  0  0  0
 56 57  1  0  0  0
 56126  1  0  0  0
 57 58  1  0  0  0
 57 62  1  0  0  0
 57127  1  0  0  0
 58 59  1  0  0  0
 58128  1  0  0  0
 58129  1  0  0  0
 59 60  1  0  0  0
 59 61  2  0  0  0
 62 63  2  0  0  0
 62 64  1  0  0  0
 64 65  1  0  0  0
 64130  1  0  0  0
 65 66  1  0  0  0
 65 69  1  0  0  0
 65131  1  0  0  0
 66 67  2  0  0  0
 66 68  1  0  0  0
 69 70  1  0  0  0
 69132  1  0  0  0
 69133  1  0  0  0
 70 71  2  0  0  0
 70 75  1  0  0  0
 71 72  1  0  0  0
 71134  1  0  0  0
 72 73  2  0  0  0
 72135  1  0  0  0
 73 74  1  0  0  0
 73136  1  0  0  0
 74 75  2  0  0  0
 74137  1  0  0  0
 75138  1  0  0  0
M  CHG  3  42  -1  60  -1  68  -1
M  END
> <s_m_source_file>
../2zlg_ligand.sdf

> <i_m_source_file_index>
1

> <s_epik_input>
W2NIXTFbY0hdW2NIXVtjSF1jKGMxMiljM2MoW2NIXVtjSF1bY0hdW2NIXTMpW0NIXTJbQ0gyXU9DKD1PKU4oW0NIM10pW0NASF0oYzRbY0hdW2NIXVtjSF1bY0hdW2NIXTQpQyg9TylbQ0gyXVtOSDIrXVtDQEBIXShbQ0gyXVtDSF0oW0NIM10pW0NIM10pQyg9TylbTkhdW0NAQEhdKFtDSDJdQyg9TylbT0hdKUMoPU8pW05IXVtDQEBIXShbQ0hdNVtDSDJdW0NIMl1bQ0gyXVtDSDJdW0NIMl01KUMoPU8pW05IXVtDQEBIXShbQ0gyXUMoPU8pW09IXSlDKD1PKVtOSF1bQ0BIXShDKD1PKVtPSF0pW0NIMl1jNltjSF1bY0hdW2NIXVtjSF1bY0hdNg==

> <s_epik_cmdline>
J2VwaWtfYXBwJywgJy1pbWFlJywgJ2xpZ2FuZF9wcm8ubWFlJywgJy1vbWFlJywgJ2xpZ2FuZF9wcmVwLm1hZScsICctbXMnLCAnMScsICctcGgnLCAnNycsICctcGh0JywgJzAuNScsICctbnQn

> <r_lp_tautomer_probability>
0.999999960000001

> <r_epik_Ionization_Penalty>
  0.0525

> <r_epik_Ionization_Penalty_Charging>
  0.0062

> <r_epik_Ionization_Penalty_Neutral>
  0.0463

> <r_epik_State_Penalty>
  0.0393

> <r_epik_Charging_Adjusted_Penalty>
0.0455498490779055

> <i_epik_Tot_Q>
-3

> <i_epik_Tot_abs_Q>
3

> <s_epik_Chemistry_Notes>
This compound has an ester and may undergo hydrolysis at high or low pH.

$$$$
