2zmj_ligand
                    3D
 Schrodinger Suite 2020-3.
 93 98  0  0  1  0            999 V2000
   15.9100    6.6840   25.7460 C   0  0  0  0  0  0
   14.5850    4.5710   27.3720 C   0  0  0  0  0  0
    8.1980    3.2080   28.9670 C   0  0  0  0  0  0
   16.2300    7.9030   24.8920 C   0  0  0  0  0  0
   14.1760    8.3690   26.1370 C   0  0  1  0  0  0
   14.0450   12.1420   17.3200 C   0  0  0  0  0  0
    9.6320    4.0020   26.9970 C   0  0  0  0  0  0
   15.4780    9.0070   25.6000 C   0  0  2  0  0  0
    7.9110    1.8670   28.2090 C   0  0  1  0  0  0
    9.3430    2.6720   26.2420 C   0  0  2  0  0  0
    7.1530    4.5420   27.0680 C   0  0  0  0  0  0
   15.1170   10.2730   24.8220 C   0  0  0  0  0  0
   13.5710    9.4080   27.1530 C   0  0  0  0  0  0
   13.1350    8.0280   25.0220 C   0  0  0  0  0  0
    6.8430    3.2120   26.3010 C   0  0  2  0  0  0
   13.4150   10.8460   26.5480 C   0  0  0  0  0  0
   15.1880   10.3900   23.4590 C   0  0  0  0  0  0
    6.6320    2.0500   27.3380 C   0  0  0  0  0  0
   11.7390    6.4760   28.2690 C   0  0  0  0  0  0
   13.0450    6.1830   28.3430 C   0  0  0  0  0  0
   10.8720    6.7730   29.4530 C   0  0  0  0  0  0
    9.8780    5.6510   29.6910 C   0  0  2  0  0  0
   13.8490    5.8930   27.1080 C   0  0  1  0  0  0
    8.7540    5.7180   28.6480 C   0  0  0  0  0  0
   14.8080    7.0790   26.7590 C   0  0  1  0  0  0
    8.4360    4.3830   27.9440 C   0  0  0  0  0  0
   15.1310   13.1380   19.2870 C   0  0  2  0  0  0
   14.6340   11.3530   25.7580 C   0  0  0  0  0  0
   14.8460   11.6080   22.6940 C   0  0  0  0  0  0
    8.0540    2.8600   25.3780 C   0  0  0  0  0  0
    9.1170    1.5270   27.2810 C   0  0  0  0  0  0
   14.8630   11.6660   21.3420 C   0  0  0  0  0  0
   15.2060   10.4210   20.4710 C   0  0  0  0  0  0
   15.1970   10.5980   18.9360 C   0  0  2  0  0  0
   14.5010   12.9990   20.6700 C   0  0  0  0  0  0
   14.7500   11.9620   18.4500 C   0  0  0  0  0  0
    9.3200    5.7990   30.9800 O   0  0  0  0  0  0
   14.3680    9.5790   18.4080 O   0  0  0  0  0  0
   16.5400   13.2010   19.4280 O   0  0  0  0  0  0
   15.5550    5.8671   25.1005 H   0  0  0  0  0  0
   16.8163    6.3621   26.2797 H   0  0  0  0  0  0
   13.8531    3.7851   27.6100 H   0  0  0  0  0  0
   15.2749    4.6983   28.2193 H   0  0  0  0  0  0
   15.1541    4.2829   26.4758 H   0  0  0  0  0  0
    7.3381    3.4597   29.6052 H   0  0  0  0  0  0
    9.0962    3.0914   29.5912 H   0  0  0  0  0  0
   17.3176    8.0673   24.8805 H   0  0  0  0  0  0
   15.8737    7.7350   23.8650 H   0  0  0  0  0  0
   13.7461   13.1553   17.0137 H   0  0  0  0  0  0
   13.7669   11.2760   16.7014 H   0  0  0  0  0  0
   10.5414    3.8881   27.6053 H   0  0  0  0  0  0
    9.7775    4.8131   26.2684 H   0  0  0  0  0  0
   16.1943    9.3813   26.3462 H   0  0  0  0  0  0
    7.7630    1.0484   28.9287 H   0  0  0  0  0  0
   10.1947    2.4129   25.5959 H   0  0  0  0  0  0
    7.3137    5.3541   26.3436 H   0  0  0  0  0  0
    6.3044    4.7953   27.7205 H   0  0  0  0  0  0
   12.5731    9.0716   27.4708 H   0  0  0  0  0  0
   14.2282    9.4871   28.0315 H   0  0  0  0  0  0
   12.7169    8.9598   24.6134 H   0  0  0  0  0  0
   12.3249    7.4195   25.4504 H   0  0  0  0  0  0
   13.6306    7.4647   24.2176 H   0  0  0  0  0  0
    5.9364    3.3393   25.6913 H   0  0  0  0  0  0
   12.5610   10.8615   25.8549 H   0  0  0  0  0  0
   13.2419   11.5684   27.3593 H   0  0  0  0  0  0
   15.5200    9.5361   22.8502 H   0  0  0  0  0  0
    6.4216    1.1168   26.7950 H   0  0  0  0  0  0
    5.7788    2.2971   27.9868 H   0  0  0  0  0  0
   11.2374    6.5096   27.2906 H   0  0  0  0  0  0
   13.5471    6.1517   29.3212 H   0  0  0  0  0  0
   11.5005    6.8847   30.3488 H   0  0  0  0  0  0
   10.3167    7.7059   29.2760 H   0  0  0  0  0  0
   10.3813    4.6729   29.6851 H   0  0  0  0  0  0
   13.1790    5.7772   26.2433 H   0  0  0  0  0  0
    7.8232    6.0475   29.1327 H   0  0  0  0  0  0
    9.0289    6.4325   27.8581 H   0  0  0  0  0  0
   15.1905    7.3066   27.7649 H   0  0  0  0  0  0
   14.8357   14.0670   18.7773 H   0  0  0  0  0  0
   15.4392   11.6175   26.4593 H   0  0  0  0  0  0
   14.3480   12.2416   25.1761 H   0  0  0  0  0  0
   14.5675   12.4968   23.2792 H   0  0  0  0  0  0
    8.2112    3.6765   24.6579 H   0  0  0  0  0  0
    7.8377    1.9284   24.8346 H   0  0  0  0  0  0
   10.0261    1.4100   27.8892 H   0  0  0  0  0  0
    8.9128    0.5896   26.7429 H   0  0  0  0  0  0
   16.2190   10.0696   20.7166 H   0  0  0  0  0  0
   14.4805    9.6197   20.6749 H   0  0  0  0  0  0
   16.2068   10.4641   18.5208 H   0  0  0  0  0  0
   14.8545   13.8148   21.3176 H   0  0  0  0  0  0
   13.4058   13.0500   20.5809 H   0  0  0  0  0  0
    9.9706    5.7782   31.8667 H   0  0  0  0  0  0
   14.5588    8.5266   18.6649 H   0  0  0  0  0  0
   16.9982   14.0093   20.0169 H   0  0  0  0  0  0
  1  4  1  0  0  0
  1 25  1  0  0  0
  1 40  1  0  0  0
  1 41  1  0  0  0
  2 23  1  0  0  0
  2 42  1  0  0  0
  2 43  1  0  0  0
  2 44  1  0  0  0
  3  9  1  0  0  0
  3 26  1  0  0  0
  3 45  1  0  0  0
  3 46  1  0  0  0
  4  8  1  0  0  0
  4 47  1  0  0  0
  4 48  1  0  0  0
  5  8  1  0  0  0
  5 13  1  0  0  0
  5 14  1  0  0  0
  5 25  1  0  0  0
  6 36  2  0  0  0
  6 49  1  0  0  0
  6 50  1  0  0  0
  7 10  1  0  0  0
  7 26  1  0  0  0
  7 51  1  0  0  0
  7 52  1  0  0  0
  8 12  1  0  0  0
  8 53  1  0  0  0
  9 18  1  0  0  0
  9 31  1  0  0  0
  9 54  1  0  0  0
 10 30  1  0  0  0
 10 31  1  0  0  0
 10 55  1  0  0  0
 11 15  1  0  0  0
 11 26  1  0  0  0
 11 56  1  0  0  0
 11 57  1  0  0  0
 12 17  2  0  0  0
 12 28  1  0  0  0
 13 16  1  0  0  0
 13 58  1  0  0  0
 13 59  1  0  0  0
 14 60  1  0  0  0
 14 61  1  0  0  0
 14 62  1  0  0  0
 15 18  1  0  0  0
 15 30  1  0  0  0
 15 63  1  0  0  0
 16 28  1  0  0  0
 16 64  1  0  0  0
 16 65  1  0  0  0
 17 29  1  0  0  0
 17 66  1  0  0  0
 18 67  1  0  0  0
 18 68  1  0  0  0
 19 20  2  0  0  0
 19 21  1  0  0  0
 19 69  1  0  0  0
 20 23  1  0  0  0
 20 70  1  0  0  0
 21 22  1  0  0  0
 21 71  1  0  0  0
 21 72  1  0  0  0
 22 24  1  0  0  0
 22 37  1  0  0  0
 22 73  1  0  0  0
 23 25  1  0  0  0
 23 74  1  0  0  0
 24 26  1  0  0  0
 24 75  1  0  0  0
 24 76  1  0  0  0
 25 77  1  0  0  0
 27 35  1  0  0  0
 27 36  1  0  0  0
 27 39  1  0  0  0
 27 78  1  0  0  0
 28 79  1  0  0  0
 28 80  1  0  0  0
 29 32  2  0  0  0
 29 81  1  0  0  0
 30 82  1  0  0  0
 30 83  1  0  0  0
 31 84  1  0  0  0
 31 85  1  0  0  0
 32 33  1  0  0  0
 32 35  1  0  0  0
 33 34  1  0  0  0
 33 86  1  0  0  0
 33 87  1  0  0  0
 34 36  1  0  0  0
 34 38  1  0  0  0
 34 88  1  0  0  0
 35 89  1  0  0  0
 35 90  1  0  0  0
 37 91  1  0  0  0
 38 92  1  0  0  0
 39 93  1  0  0  0
M  END
> <s_m_source_file>
../2zmj_ligand.sdf

> <i_m_source_file_index>
1

> <s_epik_input>
W0NIMl09QzFbQ0BIXShbT0hdKVtDSDJdQyhbQ0gyXVtDQEhdMVtPSF0pPVtDSF1cW0NIXT1DKFtDSDJdW0NIMl1bQ0gyXTIpXFtDQEBIXShbQ0BdMjNbQ0gzXSlbQ0gyXVtDSDJdW0NAQEhdM1tDQEBIXShbQ0gzXSlcW0NIXT1bQ0hdXFtDSDJdW0NAQEhdKFtPSF0pW0NIMl1DNDVbQ0gyXVtDQEhdNltDSDJdW0NAQEhdKFtDSDJdNSlbQ0gyXVtDQEBIXShbQ0gyXTQpW0NIMl02

> <s_epik_cmdline>
J2VwaWtfYXBwJywgJy1pbWFlJywgJ2xpZ2FuZF9wcm8ubWFlJywgJy1vbWFlJywgJ2xpZ2FuZF9wcmVwLm1hZScsICctbXMnLCAnMScsICctcGgnLCAnNycsICctcGh0JywgJzAuNScsICctbnQn

> <r_lp_tautomer_probability>
1

> <r_epik_Ionization_Penalty>
  0.0000

> <r_epik_Ionization_Penalty_Charging>
  0.0000

> <r_epik_Ionization_Penalty_Neutral>
  0.0000

> <r_epik_State_Penalty>
 -0.0000

> <r_epik_Charging_Adjusted_Penalty>
0

> <i_epik_Tot_Q>
0

> <i_epik_Tot_abs_Q>
0

$$$$
