2zmm_ligand
                    3D
 Schrodinger Suite 2020-3.
 52 54  0  0  1  0            999 V2000
   50.0570   10.7540   -2.5090 C   0  0  0  0  0  0
   49.6410    9.2770   -0.5530 C   0  0  0  0  0  0
   47.3210    9.4030    0.3500 C   0  0  0  0  0  0
   46.2340    8.6670   -0.1410 C   0  0  0  0  0  0
   44.9570    9.2310   -0.1530 C   0  0  0  0  0  0
   44.7460   10.5240    0.3240 C   0  0  0  0  0  0
   49.1950   10.2140   -1.4830 N   0  0  0  0  0  0
   45.8180   11.2740    0.8150 C   0  0  0  0  0  0
   50.8010    8.8580   -0.5660 O   0  0  0  0  0  0
   47.0970   10.7070    0.8260 C   0  0  0  0  0  0
   45.6110   12.6340    1.3100 C   0  0  0  0  0  0
   46.1750   13.3160    2.3680 C   0  0  0  0  0  0
   45.6830   14.6450    2.5200 C   0  0  0  0  0  0
   44.7930   14.9560    1.5080 C   0  0  0  0  0  0
   44.0370   16.3110    1.2730 C   0  0  0  0  0  0
   47.3220   16.1890    3.2570 C   0  0  0  0  0  0
   47.6360   17.0070    4.5180 C   0  0  0  0  0  0
   48.9960    7.8730    1.4450 C   0  0  0  0  0  0
   48.8670    6.4000    1.0090 C   0  0  0  0  0  0
   48.0750    5.5730    2.0210 C   0  0  0  0  0  0
   48.6020    5.7170    3.4480 C   0  0  0  0  0  0
   48.7840    7.1760    3.8620 C   0  0  0  0  0  0
   48.2940    8.1430    2.7840 C   0  0  0  0  0  0
   48.6560    8.8640    0.3800 N   0  0  0  0  0  0
   44.5220   13.6420    0.4520 S   0  0  0  0  0  0
   43.8980   17.1050    2.2490 O   0  0  0  0  0  0
   43.6330   16.4930    0.0830 O   0  5  0  0  0  0
   46.0740   15.5200    3.4910 O   0  0  0  0  0  0
   46.7510   17.0080    5.4220 O   0  5  0  0  0  0
   48.7580   17.5880    4.5160 O   0  0  0  0  0  0
   47.4230   12.5860    3.5860 Br  0  0  0  0  0  0
   49.4919   11.4710   -3.1227 H   0  0  0  0  0  0
   50.4253    9.9364   -3.1461 H   0  0  0  0  0  0
   50.9100   11.2657   -2.0393 H   0  0  0  0  0  0
   46.3857    7.6540   -0.5136 H   0  0  0  0  0  0
   44.1163    8.6546   -0.5392 H   0  0  0  0  0  0
   43.7430   10.9506    0.3139 H   0  0  0  0  0  0
   48.1469   10.5412   -1.4169 H   0  0  0  0  0  0
   47.9357   11.2871    1.2109 H   0  0  0  0  0  0
   47.2450   16.8640    2.3918 H   0  0  0  0  0  0
   48.1272   15.4601    3.0828 H   0  0  0  0  0  0
   50.0685    8.0672    1.5934 H   0  0  0  0  0  0
   48.3478    6.3484    0.0406 H   0  0  0  0  0  0
   49.8693    5.9573    0.9117 H   0  0  0  0  0  0
   47.0240    5.8976    2.0174 H   0  0  0  0  0  0
   48.1309    4.5087    1.7488 H   0  0  0  0  0  0
   47.8930    5.2527    4.1493 H   0  0  0  0  0  0
   49.5789    5.2181    3.5302 H   0  0  0  0  0  0
   48.2134    7.3699    4.7822 H   0  0  0  0  0  0
   49.8505    7.3755    4.0430 H   0  0  0  0  0  0
   48.5073    9.1721    3.1089 H   0  0  0  0  0  0
   47.2084    8.0149    2.6613 H   0  0  0  0  0  0
  1  7  1  0  0  0
  1 32  1  0  0  0
  1 33  1  0  0  0
  1 34  1  0  0  0
  2  7  1  0  0  0
  2  9  2  0  0  0
  2 24  1  0  0  0
  3  4  2  0  0  0
  3 10  1  0  0  0
  3 24  1  0  0  0
  4  5  1  0  0  0
  4 35  1  0  0  0
  5  6  2  0  0  0
  5 36  1  0  0  0
  6  8  1  0  0  0
  6 37  1  0  0  0
  7 38  1  0  0  0
  8 10  2  0  0  0
  8 11  1  0  0  0
 10 39  1  0  0  0
 11 12  2  0  0  0
 11 25  1  0  0  0
 12 13  1  0  0  0
 12 31  1  0  0  0
 13 14  2  0  0  0
 13 28  1  0  0  0
 14 15  1  0  0  0
 14 25  1  0  0  0
 15 26  2  0  0  0
 15 27  1  0  0  0
 16 17  1  0  0  0
 16 28  1  0  0  0
 16 40  1  0  0  0
 16 41  1  0  0  0
 17 29  1  0  0  0
 17 30  2  0  0  0
 18 19  1  0  0  0
 18 23  1  0  0  0
 18 24  1  0  0  0
 18 42  1  0  0  0
 19 20  1  0  0  0
 19 43  1  0  0  0
 19 44  1  0  0  0
 20 21  1  0  0  0
 20 45  1  0  0  0
 20 46  1  0  0  0
 21 22  1  0  0  0
 21 47  1  0  0  0
 21 48  1  0  0  0
 22 23  1  0  0  0
 22 49  1  0  0  0
 22 50  1  0  0  0
 23 51  1  0  0  0
 23 52  1  0  0  0
M  CHG  2  27  -1  29  -1
M  END
> <s_m_source_file>
../2zmm_ligand.sdf

> <i_m_source_file_index>
1

> <s_epik_input>
W0NIMl0xW0NIMl1bQ0gyXVtDSDJdW0NIMl1bQ0hdMU4oQyg9TylbTkhdW0NIM10pYzJbY0hdW2NIXVtjSF1jKFtjSF0yKS1jM2MoQnIpYyhjKHMzKUMoPU8pW09IXSlPW0NIMl1DKD1PKVtPSF0=

> <s_epik_cmdline>
J2VwaWtfYXBwJywgJy1pbWFlJywgJ2xpZ2FuZF9wcm8ubWFlJywgJy1vbWFlJywgJ2xpZ2FuZF9wcmVwLm1hZScsICctbXMnLCAnMScsICctcGgnLCAnNycsICctcGh0JywgJzAuNScsICctbnQn

> <r_lp_tautomer_probability>
1

> <r_epik_Ionization_Penalty>
  0.0003

> <r_epik_Ionization_Penalty_Charging>
  0.0002

> <r_epik_Ionization_Penalty_Neutral>
  0.0000

> <r_epik_State_Penalty>
 -0.0000

> <r_epik_Charging_Adjusted_Penalty>
0.000231474459529516

> <i_epik_Tot_Q>
-2

> <i_epik_Tot_abs_Q>
2

$$$$
