2zn7_ligand
                    3D
 Schrodinger Suite 2020-3.
 57 60  0  0  1  0            999 V2000
   48.5590   12.4160   -3.3400 C   0  0  0  0  0  0
   47.9770   11.1460   -3.3450 C   0  0  0  0  0  0
   48.3050   10.2140   -2.3520 C   0  0  0  0  0  0
   49.2250   10.5420   -1.3410 C   0  0  0  0  0  0
   49.8070   11.8160   -1.3410 C   0  0  0  0  0  0
   49.4750   12.7430   -2.3360 C   0  0  0  0  0  0
   49.5540    9.5190   -0.2990 C   0  0  0  0  0  0
   50.6980    9.0630   -0.2960 O   0  0  0  0  0  0
   48.5540    9.1150    0.6020 N   0  0  0  0  0  0
   47.2420    9.6990    0.5700 C   0  0  0  0  0  0
   46.1240    9.0360    0.0560 C   0  0  0  0  0  0
   44.8780    9.6670    0.0570 C   0  0  0  0  0  0
   44.7280   10.9630    0.5670 C   0  0  0  0  0  0
   45.8380   11.6510    1.0870 C   0  0  0  0  0  0
   47.0870   11.0050    1.0800 C   0  0  0  0  0  0
   45.7120   13.0190    1.6060 C   0  0  0  0  0  0
   46.2970   13.6400    2.6970 C   0  0  0  0  0  0
   45.9190   15.0020    2.8620 C   0  0  0  0  0  0
   45.0220   15.3700    1.8740 C   0  0  0  0  0  0
   44.6830   14.1060    0.7680 S   0  0  0  0  0  0
   44.3410   16.7580    1.6490 C   0  0  0  0  0  0
   43.8310   16.8970    0.4990 O   0  5  0  0  0  0
   44.3330   17.5910    2.5970 O   0  0  0  0  0  0
   46.3510   15.8080    3.8840 O   0  0  0  0  0  0
   47.5490   16.5590    3.6400 C   0  0  0  0  0  0
   47.8720   17.2790    4.9650 C   0  0  0  0  0  0
   48.9770   17.8700    5.0200 O   0  0  0  0  0  0
   47.0020   17.1990    5.8780 O   0  5  0  0  0  0
   47.5090   12.8180    3.9060 Br  0  0  0  0  0  0
   48.8730    8.0870    1.6430 C   0  0  0  0  0  0
   48.1310    6.7610    1.4280 C   0  0  0  0  0  0
   48.6100    5.7150    2.4250 C   0  0  0  0  0  0
   48.3070    6.1910    3.8420 C   0  0  0  0  0  0
   49.0250    7.5090    4.1340 C   0  0  0  0  0  0
   48.7350    8.5940    3.0870 C   0  0  0  0  0  0
   48.3018   13.1434   -4.1100 H   0  0  0  0  0  0
   47.2643   10.8790   -4.1253 H   0  0  0  0  0  0
   47.8432    9.2267   -2.3633 H   0  0  0  0  0  0
   50.5211   12.0867   -0.5633 H   0  0  0  0  0  0
   49.9359   13.7307   -2.3278 H   0  0  0  0  0  0
   46.2245    8.0275   -0.3452 H   0  0  0  0  0  0
   44.0103    9.1437   -0.3446 H   0  0  0  0  0  0
   43.7476   11.4394    0.5606 H   0  0  0  0  0  0
   47.9572   11.5265    1.4787 H   0  0  0  0  0  0
   48.3591   15.8733    3.3511 H   0  0  0  0  0  0
   47.3712   17.2793    2.8279 H   0  0  0  0  0  0
   49.9440    7.9003    1.4751 H   0  0  0  0  0  0
   47.0511    6.9185    1.5662 H   0  0  0  0  0  0
   48.3207    6.3959    0.4079 H   0  0  0  0  0  0
   48.0896    4.7642    2.2373 H   0  0  0  0  0  0
   49.6941    5.5684    2.3103 H   0  0  0  0  0  0
   47.2234    6.3440    3.9535 H   0  0  0  0  0  0
   48.6466    5.4335    4.5638 H   0  0  0  0  0  0
   48.7017    7.8937    5.1125 H   0  0  0  0  0  0
   50.1118    7.3394    4.1476 H   0  0  0  0  0  0
   49.4433    9.4186    3.2553 H   0  0  0  0  0  0
   47.7085    8.9528    3.2531 H   0  0  0  0  0  0
  1  2  2  0  0  0
  1  6  1  0  0  0
  1 36  1  0  0  0
  2  3  1  0  0  0
  2 37  1  0  0  0
  3  4  2  0  0  0
  3 38  1  0  0  0
  4  5  1  0  0  0
  4  7  1  0  0  0
  5  6  2  0  0  0
  5 39  1  0  0  0
  6 40  1  0  0  0
  7  8  2  0  0  0
  7  9  1  0  0  0
  9 10  1  0  0  0
  9 30  1  0  0  0
 10 11  2  0  0  0
 10 15  1  0  0  0
 11 12  1  0  0  0
 11 41  1  0  0  0
 12 13  2  0  0  0
 12 42  1  0  0  0
 13 14  1  0  0  0
 13 43  1  0  0  0
 14 15  2  0  0  0
 14 16  1  0  0  0
 15 44  1  0  0  0
 16 17  2  0  0  0
 16 20  1  0  0  0
 17 18  1  0  0  0
 17 29  1  0  0  0
 18 19  2  0  0  0
 18 24  1  0  0  0
 19 20  1  0  0  0
 19 21  1  0  0  0
 21 22  1  0  0  0
 21 23  2  0  0  0
 24 25  1  0  0  0
 25 26  1  0  0  0
 25 45  1  0  0  0
 25 46  1  0  0  0
 26 27  2  0  0  0
 26 28  1  0  0  0
 30 31  1  0  0  0
 30 35  1  0  0  0
 30 47  1  0  0  0
 31 32  1  0  0  0
 31 48  1  0  0  0
 31 49  1  0  0  0
 32 33  1  0  0  0
 32 50  1  0  0  0
 32 51  1  0  0  0
 33 34  1  0  0  0
 33 52  1  0  0  0
 33 53  1  0  0  0
 34 35  1  0  0  0
 34 54  1  0  0  0
 34 55  1  0  0  0
 35 56  1  0  0  0
 35 57  1  0  0  0
M  CHG  2  22  -1  28  -1
M  END
> <s_m_source_file>
../2zn7_ligand.sdf

> <i_m_source_file_index>
1

> <s_epik_input>
W2NIXTFbY0hdW2NIXVtjSF1bY0hdYzFDKD1PKU4oW0NIXTJbQ0gyXVtDSDJdW0NIMl1bQ0gyXVtDSDJdMiljM1tjSF1bY0hdW2NIXWMoW2NIXTMpLWM0YyhCciljKGMoczQpQyg9TylbT0hdKU9bQ0gyXUMoPU8pW09IXQ==

> <s_epik_cmdline>
J2VwaWtfYXBwJywgJy1pbWFlJywgJ2xpZ2FuZF9wcm8ubWFlJywgJy1vbWFlJywgJ2xpZ2FuZF9wcmVwLm1hZScsICctbXMnLCAnMScsICctcGgnLCAnNycsICctcGh0JywgJzAuNScsICctbnQn

> <r_lp_tautomer_probability>
1

> <r_epik_Ionization_Penalty>
  0.0002

> <r_epik_Ionization_Penalty_Charging>
  0.0002

> <r_epik_Ionization_Penalty_Neutral>
  0.0000

> <r_epik_State_Penalty>
 -0.0000

> <r_epik_Charging_Adjusted_Penalty>
0.000231474459529516

> <i_epik_Tot_Q>
-2

> <i_epik_Tot_abs_Q>
2

$$$$
