2znt_ligand
                    3D
 Schrodinger Suite 2020-3.
 41 42  0  0  1  0            999 V2000
   20.1240    0.8320   14.2990 C   0  0  0  0  0  0
   21.4030    1.4660   13.9610 N   0  3  0  0  0  0
   22.5790    1.0120   14.7710 C   0  0  2  0  0  0
   23.8100    1.8490   14.3520 C   0  0  2  0  0  0
   23.9270    1.8970   12.9140 O   0  0  0  0  0  0
   25.1210    1.2810   14.9450 C   0  0  0  0  0  0
   25.2840   -0.0710   14.4180 O   0  0  0  0  0  0
   24.2680   -1.0020   14.8910 C   0  0  2  0  0  0
   24.3330   -2.2850   14.0340 C   0  0  0  0  0  0
   22.8470   -0.5090   14.5970 C   0  0  2  0  0  0
   22.6080   -0.8350   13.1880 O   0  0  0  0  0  0
   23.5340   -1.8870   12.7800 C   0  0  1  0  0  0
   24.5020   -1.4140   11.6760 C   0  0  0  0  0  0
   24.5490   -0.1820   11.4240 O   0  5  0  0  0  0
   25.1600   -2.3010   11.0940 O   0  0  0  0  0  0
   22.6620   -3.0660   12.3170 C   0  0  0  0  0  0
   21.9450   -2.8420   10.9850 C   0  0  1  0  0  0
   21.5120   -4.2310   10.4480 C   0  0  0  0  0  0
   20.3060   -4.4090   10.1780 O   0  0  0  0  0  0
   22.4090   -5.0950   10.2560 O   0  5  0  0  0  0
   20.7470   -2.0030   11.1830 N   0  3  0  0  0  0
   19.3325    1.2341   13.6495 H   0  0  0  0  0  0
   19.8774    1.0416   15.3503 H   0  0  0  0  0  0
   20.2031   -0.2551   14.1506 H   0  0  0  0  0  0
   21.6496    1.2564   12.9097 H   0  0  0  0  0  0
   21.3239    2.5531   14.1093 H   0  0  0  0  0  0
   22.3353    1.1855   15.8295 H   0  0  0  0  0  0
   23.6591    2.8886   14.6784 H   0  0  0  0  0  0
   23.0912    2.2743   12.3065 H   0  0  0  0  0  0
   25.9658    1.9179   14.6438 H   0  0  0  0  0  0
   25.0491    1.2622   16.0425 H   0  0  0  0  0  0
   24.4926   -1.0951   15.9638 H   0  0  0  0  0  0
   25.3834   -2.5255   13.8130 H   0  0  0  0  0  0
   23.8744   -3.1185   14.5863 H   0  0  0  0  0  0
   22.1713   -1.0280   15.2927 H   0  0  0  0  0  0
   23.2901   -3.9608   12.1948 H   0  0  0  0  0  0
   21.8839   -3.2641   13.0689 H   0  0  0  0  0  0
   22.5912   -2.2948   10.2829 H   0  0  0  0  0  0
   21.0493   -1.0163   11.5640 H   0  0  0  0  0  0
   20.0765   -2.4866   11.9087 H   0  0  0  0  0  0
   20.2224   -1.8808   10.2239 H   0  0  0  0  0  0
  1  2  1  0  0  0
  1 22  1  0  0  0
  1 23  1  0  0  0
  1 24  1  0  0  0
  2  3  1  0  0  0
  2 25  1  0  0  0
  2 26  1  0  0  0
  3  4  1  0  0  0
  3 10  1  0  0  0
  3 27  1  0  0  0
  4  5  1  0  0  0
  4  6  1  0  0  0
  4 28  1  0  0  0
  5 29  1  0  0  0
  6  7  1  0  0  0
  6 30  1  0  0  0
  6 31  1  0  0  0
  7  8  1  0  0  0
  8  9  1  0  0  0
  8 10  1  0  0  0
  8 32  1  0  0  0
  9 12  1  0  0  0
  9 33  1  0  0  0
  9 34  1  0  0  0
 10 11  1  0  0  0
 10 35  1  0  0  0
 11 12  1  0  0  0
 12 13  1  0  0  0
 12 16  1  0  0  0
 13 14  1  0  0  0
 13 15  2  0  0  0
 16 17  1  0  0  0
 16 36  1  0  0  0
 16 37  1  0  0  0
 17 18  1  0  0  0
 17 21  1  0  0  0
 17 38  1  0  0  0
 18 19  2  0  0  0
 18 20  1  0  0  0
 21 39  1  0  0  0
 21 40  1  0  0  0
 21 41  1  0  0  0
M  CHG  4   2   1  14  -1  20  -1  21   1
M  END
> <s_m_source_file>
../2znt_ligand.sdf

> <i_m_source_file_index>
1

> <s_epik_input>
TzFbQ0gyXVtDQEBIXShbT0hdKVtDQEBIXShbTkgyK11bQ0gzXSlbQ0BIXShbQ0BIXTEyKU9bQ0BdKFtDSDJdMikoQyg9TylbT0hdKVtDSDJdW0NASF0oW05IMytdKUMoPU8pW09IXQ==

> <s_epik_cmdline>
J2VwaWtfYXBwJywgJy1pbWFlJywgJ2xpZ2FuZF9wcm8ubWFlJywgJy1vbWFlJywgJ2xpZ2FuZF9wcmVwLm1hZScsICctbXMnLCAnMScsICctcGgnLCAnNycsICctcGh0JywgJzAuNScsICctbnQn

> <r_epik_Ionization_Penalty>
  0.0417

> <r_epik_Ionization_Penalty_Charging>
  0.0417

> <r_epik_Ionization_Penalty_Neutral>
  0.0000

> <r_epik_State_Penalty>
  0.0334

> <r_epik_Charging_Adjusted_Penalty>
0.0751102856091588

> <i_epik_Tot_Q>
0

> <i_epik_Tot_abs_Q>
4

$$$$
