2znu_ligand
                    3D
 Schrodinger Suite 2020-3.
 36 37  0  0  1  0            999 V2000
   20.3130   -4.2050   10.3510 O   0  0  0  0  0  0
   21.5280   -4.0600   10.5950 C   0  0  0  0  0  0
   22.4160   -4.9430   10.4850 O   0  5  0  0  0  0
   21.9670   -2.6970   11.0970 C   0  0  1  0  0  0
   20.7760   -1.8810   11.3530 N   0  3  0  0  0  0
   22.7350   -2.9500   12.4040 C   0  0  0  0  0  0
   23.5720   -1.7280   12.8120 C   0  0  2  0  0  0
   24.5790   -1.3020   11.6850 C   0  0  0  0  0  0
   24.6650   -0.0890   11.3990 O   0  0  0  0  0  0
   25.2510   -2.2150   11.1440 O   0  5  0  0  0  0
   24.3220   -2.0680   14.1260 C   0  0  0  0  0  0
   22.6660   -0.6190   13.1200 O   0  0  0  0  0  0
   22.7930   -0.3040   14.5350 C   0  0  1  0  0  0
   24.2020   -0.7930   14.9570 C   0  0  2  0  0  0
   25.2510    0.0910   14.5080 O   0  0  0  0  0  0
   25.0600    1.4670   14.9480 C   0  0  0  0  0  0
   23.7740    2.0710   14.3580 C   0  0  1  0  0  0
   23.8800    2.1570   12.9200 O   0  0  0  0  0  0
   22.5440    1.2120   14.7480 C   0  0  1  0  0  0
   21.3490    1.6210   14.0130 O   0  0  0  0  0  0
   22.5656   -2.1414   10.3602 H   0  0  0  0  0  0
   20.2389   -1.7097   10.4084 H   0  0  0  0  0  0
   21.0790   -0.9149   11.7829 H   0  0  0  0  0  0
   20.1167   -2.4062   12.0597 H   0  0  0  0  0  0
   22.0214   -3.1682   13.2122 H   0  0  0  0  0  0
   23.4121   -3.8067   12.2715 H   0  0  0  0  0  0
   23.8382   -2.9278   14.6124 H   0  0  0  0  0  0
   25.3685   -2.3175   13.8969 H   0  0  0  0  0  0
   22.0238   -0.8342   15.1158 H   0  0  0  0  0  0
   24.3553   -0.8556   16.0445 H   0  0  0  0  0  0
   24.9872    1.4943   16.0452 H   0  0  0  0  0  0
   25.9145    2.0782   14.6219 H   0  0  0  0  0  0
   23.6520    3.1083   14.7030 H   0  0  0  0  0  0
   24.6992    2.7308   12.4622 H   0  0  0  0  0  0
   22.3193    1.4082   15.8068 H   0  0  0  0  0  0
   20.3941    1.1021   14.1832 H   0  0  0  0  0  0
  1  2  2  0  0  0
  2  3  1  0  0  0
  2  4  1  0  0  0
  4  5  1  0  0  0
  4  6  1  0  0  0
  4 21  1  0  0  0
  5 22  1  0  0  0
  5 23  1  0  0  0
  5 24  1  0  0  0
  6  7  1  0  0  0
  6 25  1  0  0  0
  6 26  1  0  0  0
  7  8  1  0  0  0
  7 11  1  0  0  0
  7 12  1  0  0  0
  8  9  2  0  0  0
  8 10  1  0  0  0
 11 14  1  0  0  0
 11 27  1  0  0  0
 11 28  1  0  0  0
 12 13  1  0  0  0
 13 14  1  0  0  0
 13 19  1  0  0  0
 13 29  1  0  0  0
 14 15  1  0  0  0
 14 30  1  0  0  0
 15 16  1  0  0  0
 16 17  1  0  0  0
 16 31  1  0  0  0
 16 32  1  0  0  0
 17 18  1  0  0  0
 17 19  1  0  0  0
 17 33  1  0  0  0
 18 34  1  0  0  0
 19 20  1  0  0  0
 19 35  1  0  0  0
 20 36  1  0  0  0
M  CHG  3   3  -1   5   1  10  -1
M  END
> <s_m_source_file>
../2znu_ligand.sdf

> <i_m_source_file_index>
1

> <s_epik_input>
Tz1DKFtPSF0pW0NAQEhdKFtOSDMrXSlbQ0gyXVtDQF0oTzEpKEMoPU8pW09IXSlbQ0gyXVtDQEhdKFtDQEhdMTIpT1tDSDJdW0NAQEhdKFtPSF0pW0NASF0yW09IXQ==

> <s_epik_cmdline>
J2VwaWtfYXBwJywgJy1pbWFlJywgJ2xpZ2FuZF9wcm8ubWFlJywgJy1vbWFlJywgJ2xpZ2FuZF9wcmVwLm1hZScsICctbXMnLCAnMScsICctcGgnLCAnNycsICctcGh0JywgJzAuNScsICctbnQn

> <r_lp_tautomer_probability>
1

> <r_epik_Ionization_Penalty>
  0.0019

> <r_epik_Ionization_Penalty_Charging>
  0.0019

> <r_epik_Ionization_Penalty_Neutral>
  0.0000

> <r_epik_State_Penalty>
 -0.0000

> <r_epik_Charging_Adjusted_Penalty>
0.00185618653145421

> <i_epik_Tot_Q>
-1

> <i_epik_Tot_abs_Q>
3

$$$$
