2zo3_ligand
                    3D
 Schrodinger Suite 2020-3.
 68 71  0  0  1  0            999 V2000
   18.5960  -17.5430   24.9920 C   0  0  0  0  0  0
   18.6290  -18.7390   25.7250 C   0  0  0  0  0  0
   18.3040  -18.7250   27.0810 C   0  0  0  0  0  0
   17.9470  -17.5430   27.7200 C   0  0  0  0  0  0
   17.9150  -16.3500   26.9880 C   0  0  0  0  0  0
   18.2380  -16.3490   25.6270 C   0  0  0  0  0  0
   18.2260  -15.0720   24.7510 C   0  0  0  0  0  0
   17.7610  -15.2520   23.2790 C   0  0  2  0  0  0
   17.7230  -13.8800   22.6210 C   0  0  0  0  0  0
   18.6110  -13.4510   21.6830 N   0  0  0  0  0  0
   18.4760  -12.1080   21.1290 C   0  0  2  0  0  0
   17.1200  -12.0380   20.4430 C   0  0  0  0  0  0
   16.7520  -13.0260   19.8230 O   0  0  0  0  0  0
   16.4550  -10.8700   20.5460 N   0  0  0  0  0  0
   15.1690  -10.8060   19.7930 C   0  0  0  0  0  0
   14.0590  -10.6760   20.8370 C   0  0  0  0  0  0
   13.6160  -11.8180   21.4860 C   0  0  0  0  0  0
   12.6140  -11.7930   22.4460 C   0  0  0  0  0  0
   12.0150  -10.5710   22.7850 C   0  0  0  0  0  0
   10.9220  -10.5600   23.8390 C   0  0  0  0  0  0
   10.2390  -11.6890   24.1310 N   0  0  0  0  0  0
   10.6440   -9.4830   24.4530 N   0  3  0  0  0  0
   12.4490   -9.4150   22.1440 C   0  0  0  0  0  0
   13.4640   -9.4540   21.1730 C   0  0  0  0  0  0
   19.5610  -12.1080   20.0100 C   0  0  0  0  0  0
   20.5050  -13.2450   20.4680 C   0  0  0  0  0  0
   19.5020  -14.3450   20.9290 C   0  0  0  0  0  0
   16.8080  -13.1400   22.9930 O   0  0  0  0  0  0
   16.4490  -15.9680   23.1650 N   0  3  0  0  0  0
   19.6290  -14.4240   24.8070 C   0  0  0  0  0  0
   20.7220  -14.9670   24.1220 C   0  0  0  0  0  0
   21.9730  -14.3330   24.2100 C   0  0  0  0  0  0
   22.1540  -13.1820   24.9610 C   0  0  0  0  0  0
   21.0620  -12.6360   25.6470 C   0  0  0  0  0  0
   19.8190  -13.2660   25.5580 C   0  0  0  0  0  0
   18.8484  -17.5442   23.9316 H   0  0  0  0  0  0
   18.9070  -19.6734   25.2374 H   0  0  0  0  0  0
   18.3303  -19.6551   27.6487 H   0  0  0  0  0  0
   17.6945  -17.5451   28.7804 H   0  0  0  0  0  0
   17.6373  -15.4182   27.4806 H   0  0  0  0  0  0
   17.4574  -14.4175   25.1879 H   0  0  0  0  0  0
   18.4542  -15.9068   22.7307 H   0  0  0  0  0  0
   18.5596  -11.3257   21.8978 H   0  0  0  0  0  0
   16.7947  -10.0014   21.1291 H   0  0  0  0  0  0
   15.1803   -9.9349   19.1214 H   0  0  0  0  0  0
   15.0450  -11.7243   19.2003 H   0  0  0  0  0  0
   14.0731  -12.7744   21.2321 H   0  0  0  0  0  0
   12.2954  -12.7150   22.9322 H   0  0  0  0  0  0
   10.4736  -12.6256   23.6039 H   0  0  0  0  0  0
    9.4485  -11.6714   24.8957 H   0  0  0  0  0  0
   11.1952   -8.5597   24.2212 H   0  0  0  0  0  0
   11.9922   -8.4591   22.4003 H   0  0  0  0  0  0
   13.7871   -8.5356   20.6828 H   0  0  0  0  0  0
   19.0859  -12.3100   19.0387 H   0  0  0  0  0  0
   20.0558  -11.1260   19.9790 H   0  0  0  0  0  0
   21.1318  -13.5642   19.6223 H   0  0  0  0  0  0
   21.1473  -12.8820   21.2839 H   0  0  0  0  0  0
   19.9137  -15.1083   21.6056 H   0  0  0  0  0  0
   18.9341  -14.8358   20.1248 H   0  0  0  0  0  0
   16.5242  -16.9510   23.6529 H   0  0  0  0  0  0
   16.1966  -16.1041   22.1030 H   0  0  0  0  0  0
   15.6635  -15.3743   23.6554 H   0  0  0  0  0  0
   20.6041  -15.8723   23.5264 H   0  0  0  0  0  0
   22.8224  -14.7569   23.6743 H   0  0  0  0  0  0
   23.1339  -12.7079   25.0169 H   0  0  0  0  0  0
   21.1808  -11.7310   26.2427 H   0  0  0  0  0  0
   18.9709  -12.8384   26.0928 H   0  0  0  0  0  0
    9.8521   -9.4738   25.2164 H   0  0  0  0  0  0
  1  2  2  0  0  0
  1  6  1  0  0  0
  1 36  1  0  0  0
  2  3  1  0  0  0
  2 37  1  0  0  0
  3  4  2  0  0  0
  3 38  1  0  0  0
  4  5  1  0  0  0
  4 39  1  0  0  0
  5  6  2  0  0  0
  5 40  1  0  0  0
  6  7  1  0  0  0
  7  8  1  0  0  0
  7 30  1  0  0  0
  7 41  1  0  0  0
  8  9  1  0  0  0
  8 29  1  0  0  0
  8 42  1  0  0  0
  9 10  1  0  0  0
  9 28  2  0  0  0
 10 11  1  0  0  0
 10 27  1  0  0  0
 11 12  1  0  0  0
 11 25  1  0  0  0
 11 43  1  0  0  0
 12 13  2  0  0  0
 12 14  1  0  0  0
 14 15  1  0  0  0
 14 44  1  0  0  0
 15 16  1  0  0  0
 15 45  1  0  0  0
 15 46  1  0  0  0
 16 17  2  0  0  0
 16 24  1  0  0  0
 17 18  1  0  0  0
 17 47  1  0  0  0
 18 19  2  0  0  0
 18 48  1  0  0  0
 19 20  1  0  0  0
 19 23  1  0  0  0
 20 21  1  0  0  0
 20 22  2  0  0  0
 21 49  1  0  0  0
 21 50  1  0  0  0
 22 51  1  0  0  0
 22 68  1  0  0  0
 23 24  2  0  0  0
 23 52  1  0  0  0
 24 53  1  0  0  0
 25 26  1  0  0  0
 25 54  1  0  0  0
 25 55  1  0  0  0
 26 27  1  0  0  0
 26 56  1  0  0  0
 26 57  1  0  0  0
 27 58  1  0  0  0
 27 59  1  0  0  0
 29 60  1  0  0  0
 29 61  1  0  0  0
 29 62  1  0  0  0
 30 31  2  0  0  0
 30 35  1  0  0  0
 31 32  1  0  0  0
 31 63  1  0  0  0
 32 33  2  0  0  0
 32 64  1  0  0  0
 33 34  1  0  0  0
 33 65  1  0  0  0
 34 35  2  0  0  0
 34 66  1  0  0  0
 35 67  1  0  0  0
M  CHG  2  22   1  29   1
M  END
> <s_m_source_file>
../2zo3_ligand.sdf

> <i_m_source_file_index>
1

> <s_epik_input>
W2NIXTFbY0hdW2NIXVtjSF1bY0hdYzFbQ0hdKGMyW2NIXVtjSF1bY0hdW2NIXVtjSF0yKVtDQEBIXShbTkgzK10pQyg9TylOM1tDQEBIXShbQ0gyXVtDSDJdW0NIMl0zKUMoPU8pW05IXVtDSDJdYzRbY0hdW2NIXWMoL0MoW05IMl0pPU5cW0hdKVtjSF1bY0hdNA==

> <s_epik_cmdline>
J2VwaWtfYXBwJywgJy1pbWFlJywgJ2xpZ2FuZF9wcm8ubWFlJywgJy1vbWFlJywgJ2xpZ2FuZF9wcmVwLm1hZScsICctbXMnLCAnMScsICctcGgnLCAnNycsICctcGh0JywgJzAuNScsICctbnQn

> <r_epik_Ionization_Penalty>
  0.2284

> <r_epik_Ionization_Penalty_Charging>
  0.2284

> <r_epik_Ionization_Penalty_Neutral>
  0.0000

> <r_epik_State_Penalty>
  0.2188

> <r_epik_Charging_Adjusted_Penalty>
0.447145725232071

> <i_epik_Tot_Q>
2

> <i_epik_Tot_abs_Q>
2

> <s_epik_Chemistry_Notes>
This compound has an imine and may undergo hydrolysis.

$$$$
