2zp0_ligand
                    3D
 Schrodinger Suite 2020-3.
 75 76  0  0  1  0            999 V2000
   37.7220    6.7230   10.9840 C   0  0  2  0  0  0
   35.6110    9.7150    5.1610 C   0  0  0  0  0  0
   36.2540    3.2850    9.7740 O   0  0  0  0  0  0
   38.9330    5.8060   10.8910 C   0  0  0  0  0  0
   39.9880    6.2720   11.8600 C   0  0  0  0  0  0
   32.9390    2.1720    8.8700 C   0  0  0  0  0  0
   33.7780    3.8520   10.5420 C   0  0  0  0  0  0
   31.2830    0.5070    9.4880 C   0  0  0  0  0  0
   35.3300    6.8100   10.1440 C   0  0  0  0  0  0
   31.1550    6.5340   11.4590 C   0  0  0  0  0  0
   30.9500    6.2600   12.8200 C   0  0  0  0  0  0
   34.2450    8.1130    8.3960 C   0  0  1  0  0  0
   34.3920    8.5050    6.9350 C   0  0  0  0  0  0
   35.7250    9.1630    6.5900 C   0  0  0  0  0  0
   29.1460    7.8880   12.8930 C   0  0  0  0  0  0
   29.3660    8.1770   11.5270 C   0  0  0  0  0  0
   29.7640    6.6310   14.9810 C   0  0  0  0  0  0
   32.9160    7.4030    8.6270 C   0  0  0  0  0  0
   30.6210    7.7730    9.3620 C   0  0  0  0  0  0
   34.5190    7.0780   11.0280 O   0  0  0  0  0  0
   35.2990    7.2150    8.8510 N   0  0  0  0  0  0
   32.7780    6.1940    8.4160 O   0  0  0  0  0  0
   31.9660    8.2470    9.0810 N   0  0  0  0  0  0
   29.9470    6.9280   13.5500 C   0  0  0  0  0  0
   30.3690    7.4900   10.8030 C   0  0  0  0  0  0
   30.5820    5.8060   15.6200 N   0  3  0  0  0  0
   35.3800    8.9570    4.2200 O   0  0  0  0  0  0
   35.6690   11.0720    5.0450 N   0  0  0  0  0  0
   36.1380    4.9730   11.4810 N   0  0  3  0  0  0
   36.5210    5.9300   10.4510 C   0  0  2  0  0  0
   37.9500    8.0800   10.2670 C   0  0  0  0  0  0
   35.4490    3.5280   10.9180 S   0  0  0  0  0  0
   35.5270    2.6520   12.0380 O   0  0  0  0  0  0
   32.9410    2.6750   10.1920 C   0  0  0  0  0  0
   32.1010    1.1020    8.5150 C   0  0  0  0  0  0
   31.2970    0.9940   10.8130 C   0  0  0  0  0  0
   32.1230    2.0830   11.1650 C   0  0  0  0  0  0
   28.8150    7.2110   15.7040 N   0  0  0  0  0  0
   37.5362    6.9986   12.0326 H   0  0  0  0  0  0
   38.6338    4.7772   11.1400 H   0  0  0  0  0  0
   39.3359    5.8332    9.8678 H   0  0  0  0  0  0
   40.8642    5.6103   11.7942 H   0  0  0  0  0  0
   39.5840    6.2449   12.8828 H   0  0  0  0  0  0
   40.2861    7.3011   11.6106 H   0  0  0  0  0  0
   33.5929    2.6182    8.1208 H   0  0  0  0  0  0
   33.2914    4.3216   11.4096 H   0  0  0  0  0  0
   33.7214    4.5306    9.6781 H   0  0  0  0  0  0
   30.6378   -0.3300    9.2210 H   0  0  0  0  0  0
   31.9301    6.0000   10.9094 H   0  0  0  0  0  0
   31.5755    5.5200   13.3193 H   0  0  0  0  0  0
   34.3423    9.0370    8.9849 H   0  0  0  0  0  0
   34.3041    7.6082    6.3041 H   0  0  0  0  0  0
   33.6016    9.2212    6.6662 H   0  0  0  0  0  0
   36.5404    8.4260    6.6344 H   0  0  0  0  0  0
   35.9380    9.9879    7.2858 H   0  0  0  0  0  0
   28.3580    8.4061   13.4395 H   0  0  0  0  0  0
   28.7596    8.9333   11.0285 H   0  0  0  0  0  0
   29.8911    8.5333    9.0472 H   0  0  0  0  0  0
   30.4386    6.8390    8.8102 H   0  0  0  0  0  0
   36.0677    6.8670    8.1453 H   0  0  0  0  0  0
   32.2201    9.3057    9.2380 H   0  0  0  0  0  0
   31.3880    5.2965   15.0716 H   0  0  0  0  0  0
   35.8805   11.6911    5.9293 H   0  0  0  0  0  0
   35.5043   11.5480    4.0671 H   0  0  0  0  0  0
   36.4481    5.1340   12.5240 H   0  0  0  0  0  0
   36.7958    5.4025    9.5257 H   0  0  0  0  0  0
   38.8243    8.5837   10.7049 H   0  0  0  0  0  0
   37.0604    8.7148   10.3920 H   0  0  0  0  0  0
   38.1269    7.9035    9.1958 H   0  0  0  0  0  0
   32.0861    0.7355    7.4886 H   0  0  0  0  0  0
   30.6661    0.5262   11.5688 H   0  0  0  0  0  0
   32.1250    2.4616   12.1871 H   0  0  0  0  0  0
   28.1073    7.9052   15.2273 H   0  0  0  0  0  0
   28.7358    6.9978   16.7802 H   0  0  0  0  0  0
   30.4546    5.6311   16.6985 H   0  0  0  0  0  0
  1  4  1  0  0  0
  1 30  1  0  0  0
  1 31  1  0  0  0
  1 39  1  0  0  0
  2 14  1  0  0  0
  2 27  2  0  0  0
  2 28  1  0  0  0
  3 32  2  0  0  0
  4  5  1  0  0  0
  4 40  1  0  0  0
  4 41  1  0  0  0
  5 42  1  0  0  0
  5 43  1  0  0  0
  5 44  1  0  0  0
  6 34  2  0  0  0
  6 35  1  0  0  0
  6 45  1  0  0  0
  7 32  1  0  0  0
  7 34  1  0  0  0
  7 46  1  0  0  0
  7 47  1  0  0  0
  8 35  2  0  0  0
  8 36  1  0  0  0
  8 48  1  0  0  0
  9 20  2  0  0  0
  9 21  1  0  0  0
  9 30  1  0  0  0
 10 11  2  0  0  0
 10 25  1  0  0  0
 10 49  1  0  0  0
 11 24  1  0  0  0
 11 50  1  0  0  0
 12 13  1  0  0  0
 12 18  1  0  0  0
 12 21  1  0  0  0
 12 51  1  0  0  0
 13 14  1  0  0  0
 13 52  1  0  0  0
 13 53  1  0  0  0
 14 54  1  0  0  0
 14 55  1  0  0  0
 15 16  1  0  0  0
 15 24  2  0  0  0
 15 56  1  0  0  0
 16 25  2  0  0  0
 16 57  1  0  0  0
 17 24  1  0  0  0
 17 26  2  0  0  0
 17 38  1  0  0  0
 18 22  2  0  0  0
 18 23  1  0  0  0
 19 23  1  0  0  0
 19 25  1  0  0  0
 19 58  1  0  0  0
 19 59  1  0  0  0
 21 60  1  0  0  0
 23 61  1  0  0  0
 26 62  1  0  0  0
 26 75  1  0  0  0
 28 63  1  0  0  0
 28 64  1  0  0  0
 29 30  1  0  0  0
 29 32  1  0  0  0
 29 65  1  0  0  0
 30 66  1  0  0  0
 31 67  1  0  0  0
 31 68  1  0  0  0
 31 69  1  0  0  0
 32 33  2  0  0  0
 34 37  1  0  0  0
 35 70  1  0  0  0
 36 37  2  0  0  0
 36 71  1  0  0  0
 37 72  1  0  0  0
 38 73  1  0  0  0
 38 74  1  0  0  0
M  CHG  1  26   1
M  END
> <s_m_source_file>
../2zp0_ligand.sdf

> <i_m_source_file_index>
1

> <s_epik_input>
W2NIXTFbY0hdW2NIXVtjSF1bY0hdYzFbQ0gyXVMoPU8pKD1PKVtOSF1bQ0BIXShbQ0BIXShbQ0gzXSlbQ0gyXVtDSDNdKUMoPU8pW05IXVtDQEBIXShbQ0gyXVtDSDJdQyg9TylbTkgyXSlDKD1PKVtOSF1bQ0gyXWMoW2NIXVtjSF0yKVtjSF1bY0hdYzIvQyg9TlxbSF0pW05IMl0=

> <s_epik_cmdline>
J2VwaWtfYXBwJywgJy1pbWFlJywgJ2xpZ2FuZF9wcm8ubWFlJywgJy1vbWFlJywgJ2xpZ2FuZF9wcmVwLm1hZScsICctbXMnLCAnMScsICctcGgnLCAnNycsICctcGh0JywgJzAuNScsICctbnQn

> <r_lp_tautomer_probability>
1

> <r_epik_Ionization_Penalty>
  0.0002

> <r_epik_Ionization_Penalty_Charging>
  0.0002

> <r_epik_Ionization_Penalty_Neutral>
  0.0001

> <r_epik_State_Penalty>
 -0.0000

> <r_epik_Charging_Adjusted_Penalty>
0.000162947685306239

> <i_epik_Tot_Q>
1

> <i_epik_Tot_abs_Q>
1

> <s_epik_Chemistry_Notes>
This compound has an imine and may undergo hydrolysis.

$$$$
