2zpk_ligand
                    3D
 Schrodinger Suite 2020-3.
109111  0  0  1  0            999 V2000
    8.0430  -20.4160   56.5600 N   0  3  0  0  0  0
    7.3040  -19.1660   56.4330 C   0  0  2  0  0  0
    6.0200  -19.3130   55.6130 C   0  0  0  0  0  0
    5.8560  -20.3000   54.8860 O   0  0  0  0  0  0
    8.2900  -18.2650   55.6780 C   0  0  0  0  0  0
    9.1000  -19.2040   54.8370 C   0  0  0  0  0  0
    9.1700  -20.5020   55.6100 C   0  0  0  0  0  0
    5.1270  -18.3300   55.7300 N   0  0  0  0  0  0
    3.9620  -18.2190   54.8540 C   0  0  2  0  0  0
    4.4460  -17.9090   53.4380 C   0  0  0  0  0  0
    5.3050  -17.0390   53.2540 O   0  0  0  0  0  0
    3.0210  -17.1180   55.3500 C   0  0  0  0  0  0
    3.8940  -18.6140   52.4510 N   0  0  0  0  0  0
    4.4100  -18.5940   51.0840 C   0  0  0  0  0  0
    4.4260  -17.2360   50.4030 C   0  0  0  0  0  0
    3.6280  -16.3620   50.7230 O   0  0  0  0  0  0
    5.3490  -17.0630   49.4600 N   0  0  0  0  0  0
    5.4510  -15.8360   48.6620 C   0  0  2  0  0  0
    4.6830  -16.0590   47.3760 C   0  0  0  0  0  0
    4.9710  -17.0310   46.6700 O   0  0  0  0  0  0
    6.9070  -15.5780   48.2950 C   0  0  0  0  0  0
    7.1190  -14.3830   47.3870 C   0  0  0  0  0  0
    6.8310  -13.0870   47.8250 C   0  0  0  0  0  0
    7.6320  -14.5540   46.0920 C   0  0  0  0  0  0
    7.0350  -11.9890   46.9970 C   0  0  0  0  0  0
    7.8640  -13.4610   45.2600 C   0  0  0  0  0  0
    7.5580  -12.1870   45.7130 C   0  0  0  0  0  0
    7.7810  -11.1000   44.8860 O   0  0  0  0  0  0
    3.7020  -15.1880   47.0720 N   0  0  0  0  0  0
    2.8250  -15.4710   45.9290 C   0  0  2  0  0  0
    3.3670  -15.0530   44.5550 C   0  0  0  0  0  0
    2.6560  -15.1950   43.5560 O   0  0  0  0  0  0
    1.5370  -14.7090   46.2730 C   0  0  0  0  0  0
    1.9870  -13.5690   47.1300 C   0  0  0  0  0  0
    3.3070  -13.9530   47.7790 C   0  0  0  0  0  0
    4.6020  -14.5570   44.5110 N   0  0  0  0  0  0
    5.2420  -14.1340   43.2690 C   0  0  0  0  0  0
    5.7950  -15.3120   42.4940 C   0  0  0  0  0  0
    5.8000  -16.4360   43.0050 O   0  0  0  0  0  0
    6.2370  -15.0670   41.2580 N   0  0  0  0  0  0
    6.7170  -16.1430   40.3820 C   0  0  2  0  0  0
    8.2140  -16.3830   40.5980 C   0  0  0  0  0  0
    9.0680  -15.6570   40.0640 O   0  0  0  0  0  0
    6.4270  -15.8390   38.9050 C   0  0  0  0  0  0
    6.9040  -16.9190   37.9230 C   0  0  0  0  0  0
    7.0470  -16.3910   36.4980 C   0  0  0  0  0  0
    6.8890  -15.1920   36.2510 O   0  0  0  0  0  0
    7.3910  -17.2650   35.5790 N   0  0  0  0  0  0
    8.5010  -17.4000   41.4140 N   0  0  0  0  0  0
    9.8660  -17.7830   41.7760 C   0  0  2  0  0  0
   10.0560  -19.2620   41.4370 C   0  0  0  0  0  0
    9.0850  -20.0250   41.3520 O   0  5  0  0  0  0
   10.1430  -17.5180   43.2960 C   0  0  0  0  0  0
   11.5200  -18.0130   43.7210 C   0  0  0  0  0  0
   10.0320  -16.0460   43.6100 C   0  0  0  0  0  0
   11.1760  -19.7310   41.2330 O   0  0  0  0  0  0
    8.4500  -20.4995   57.5785 H   0  0  0  0  0  0
    7.3682  -21.2624   56.3643 H   0  0  0  0  0  0
    6.9995  -18.8235   57.4330 H   0  0  0  0  0  0
    7.7311  -17.5451   55.0621 H   0  0  0  0  0  0
    8.9165  -17.7210   56.4002 H   0  0  0  0  0  0
    8.6043  -19.3465   53.8654 H   0  0  0  0  0  0
   10.1032  -18.7816   54.6783 H   0  0  0  0  0  0
   10.1129  -20.6009   56.1677 H   0  0  0  0  0  0
    9.0351  -21.3787   54.9594 H   0  0  0  0  0  0
    5.2924  -17.5851   56.5223 H   0  0  0  0  0  0
    3.4361  -19.1846   54.8867 H   0  0  0  0  0  0
    2.6825  -17.3566   56.3691 H   0  0  0  0  0  0
    2.1505  -17.0507   54.6808 H   0  0  0  0  0  0
    3.5538  -16.1557   55.3564 H   0  0  0  0  0  0
    3.0157  -19.2284   52.6984 H   0  0  0  0  0  0
    5.4500  -18.9523   51.0794 H   0  0  0  0  0  0
    3.7939  -19.2485   50.4499 H   0  0  0  0  0  0
    6.0544  -17.8898   49.2902 H   0  0  0  0  0  0
    5.0429  -15.0059   49.2574 H   0  0  0  0  0  0
    7.4887  -15.3939   49.2103 H   0  0  0  0  0  0
    7.3144  -16.4558   47.7720 H   0  0  0  0  0  0
    6.4405  -12.9350   48.8312 H   0  0  0  0  0  0
    7.8526  -15.5586   45.7312 H   0  0  0  0  0  0
    6.7905  -10.9848   47.3434 H   0  0  0  0  0  0
    8.2816  -13.6059   44.2636 H   0  0  0  0  0  0
    7.5418  -10.0848   45.2355 H   0  0  0  0  0  0
    2.7272  -16.5634   45.8446 H   0  0  0  0  0  0
    1.0593  -14.3591   45.3460 H   0  0  0  0  0  0
    0.8482  -15.3771   46.8109 H   0  0  0  0  0  0
    2.1194  -12.6720   46.5072 H   0  0  0  0  0  0
    1.2300  -13.3702   47.9029 H   0  0  0  0  0  0
    3.1964  -14.1646   48.8528 H   0  0  0  0  0  0
    4.0805  -13.1844   47.6345 H   0  0  0  0  0  0
    5.1429  -14.4723   45.4651 H   0  0  0  0  0  0
    4.5065  -13.6172   42.6350 H   0  0  0  0  0  0
    6.0725  -13.4503   43.4988 H   0  0  0  0  0  0
    6.2353  -14.0266   40.9009 H   0  0  0  0  0  0
    6.1482  -17.0350   40.6832 H   0  0  0  0  0  0
    5.3420  -15.7326   38.7587 H   0  0  0  0  0  0
    6.9291  -14.9034   38.6177 H   0  0  0  0  0  0
    7.8854  -17.2985   38.2437 H   0  0  0  0  0  0
    6.1787  -17.7459   37.9066 H   0  0  0  0  0  0
    7.5200  -18.3238   35.8478 H   0  0  0  0  0  0
    7.5500  -16.9378   34.5409 H   0  0  0  0  0  0
    7.6463  -17.9610   41.8200 H   0  0  0  0  0  0
   10.5369  -17.1621   41.1641 H   0  0  0  0  0  0
    9.3914  -18.0591   43.8895 H   0  0  0  0  0  0
   11.6096  -19.0859   43.4956 H   0  0  0  0  0  0
   11.6496  -17.8533   44.8016 H   0  0  0  0  0  0
   12.2948  -17.4571   43.1726 H   0  0  0  0  0  0
    9.0401  -15.6801   43.3062 H   0  0  0  0  0  0
   10.8101  -15.4945   43.0619 H   0  0  0  0  0  0
   10.1649  -15.8906   44.6908 H   0  0  0  0  0  0
  1  2  1  0  0  0
  1  7  1  0  0  0
  1 57  1  0  0  0
  1 58  1  0  0  0
  2  3  1  0  0  0
  2  5  1  0  0  0
  2 59  1  0  0  0
  3  4  2  0  0  0
  3  8  1  0  0  0
  5  6  1  0  0  0
  5 60  1  0  0  0
  5 61  1  0  0  0
  6  7  1  0  0  0
  6 62  1  0  0  0
  6 63  1  0  0  0
  7 64  1  0  0  0
  7 65  1  0  0  0
  8  9  1  0  0  0
  8 66  1  0  0  0
  9 10  1  0  0  0
  9 12  1  0  0  0
  9 67  1  0  0  0
 10 11  2  0  0  0
 10 13  1  0  0  0
 12 68  1  0  0  0
 12 69  1  0  0  0
 12 70  1  0  0  0
 13 14  1  0  0  0
 13 71  1  0  0  0
 14 15  1  0  0  0
 14 72  1  0  0  0
 14 73  1  0  0  0
 15 16  2  0  0  0
 15 17  1  0  0  0
 17 18  1  0  0  0
 17 74  1  0  0  0
 18 19  1  0  0  0
 18 21  1  0  0  0
 18 75  1  0  0  0
 19 20  2  0  0  0
 19 29  1  0  0  0
 21 22  1  0  0  0
 21 76  1  0  0  0
 21 77  1  0  0  0
 22 23  2  0  0  0
 22 24  1  0  0  0
 23 25  1  0  0  0
 23 78  1  0  0  0
 24 26  2  0  0  0
 24 79  1  0  0  0
 25 27  2  0  0  0
 25 80  1  0  0  0
 26 27  1  0  0  0
 26 81  1  0  0  0
 27 28  1  0  0  0
 28 82  1  0  0  0
 29 30  1  0  0  0
 29 35  1  0  0  0
 30 31  1  0  0  0
 30 33  1  0  0  0
 30 83  1  0  0  0
 31 32  2  0  0  0
 31 36  1  0  0  0
 33 34  1  0  0  0
 33 84  1  0  0  0
 33 85  1  0  0  0
 34 35  1  0  0  0
 34 86  1  0  0  0
 34 87  1  0  0  0
 35 88  1  0  0  0
 35 89  1  0  0  0
 36 37  1  0  0  0
 36 90  1  0  0  0
 37 38  1  0  0  0
 37 91  1  0  0  0
 37 92  1  0  0  0
 38 39  2  0  0  0
 38 40  1  0  0  0
 40 41  1  0  0  0
 40 93  1  0  0  0
 41 42  1  0  0  0
 41 44  1  0  0  0
 41 94  1  0  0  0
 42 43  2  0  0  0
 42 49  1  0  0  0
 44 45  1  0  0  0
 44 95  1  0  0  0
 44 96  1  0  0  0
 45 46  1  0  0  0
 45 97  1  0  0  0
 45 98  1  0  0  0
 46 47  2  0  0  0
 46 48  1  0  0  0
 48 99  1  0  0  0
 48100  1  0  0  0
 49 50  1  0  0  0
 49101  1  0  0  0
 50 51  1  0  0  0
 50 53  1  0  0  0
 50102  1  0  0  0
 51 52  1  0  0  0
 51 56  2  0  0  0
 53 54  1  0  0  0
 53 55  1  0  0  0
 53103  1  0  0  0
 54104  1  0  0  0
 54105  1  0  0  0
 54106  1  0  0  0
 55107  1  0  0  0
 55108  1  0  0  0
 55109  1  0  0  0
M  CHG  2   1   1  52  -1
M  END
> <s_m_source_file>
../2zpk_ligand.sdf

> <i_m_source_file_index>
1

> <s_epik_input>
W0NIMl0xW0NIMl1bQ0gyXVtOSDIrXVtDQEBIXTFDKD1PKVtOSF1bQ0BASF0oW0NIM10pQyg9TylbTkhdW0NIMl1DKD1PKVtOSF1bQ0BASF0oW0NIMl1jMltjSF1bY0hdYyhbT0hdKVtjSF1bY0hdMilDKD1PKU4zW0NAQEhdKFtDSDJdW0NIMl1bQ0gyXTMpQyg9TylbTkhdW0NIMl1DKD1PKVtOSF1bQ0BASF0oW0NIMl1bQ0gyXUMoPU8pW05IMl0pQyg9TylbTkhdW0NASF0oQyg9TylbT0hdKVtDSF0oW0NIM10pW0NIM10=

> <s_epik_cmdline>
J2VwaWtfYXBwJywgJy1pbWFlJywgJ2xpZ2FuZF9wcm8ubWFlJywgJy1vbWFlJywgJ2xpZ2FuZF9wcmVwLm1hZScsICctbXMnLCAnMScsICctcGgnLCAnNycsICctcGh0JywgJzAuNScsICctbnQn

> <r_lp_tautomer_probability>
0.999999999997365

> <r_epik_Ionization_Penalty>
  0.0420

> <r_epik_Ionization_Penalty_Charging>
  0.0409

> <r_epik_Ionization_Penalty_Neutral>
  0.0010

> <r_epik_State_Penalty>
  0.0343

> <r_epik_Charging_Adjusted_Penalty>
0.0752256312484173

> <i_epik_Tot_Q>
0

> <i_epik_Tot_abs_Q>
2

$$$$
