2zq1_ligand
                    3D
 Schrodinger Suite 2020-3.
 61 63  0  0  1  0            999 V2000
  -28.8100    0.5730   15.7780 N   0  0  0  0  0  0
  -28.5500    0.6150   17.0920 C   0  0  0  0  0  0
  -27.4060    0.4690   17.5260 O   0  0  0  0  0  0
  -29.7300    0.8660   17.9930 C   0  0  0  0  0  0
  -30.1340    0.9520   15.1860 C   0  0  0  0  0  0
  -29.9140    1.1260   13.6900 C   0  0  0  0  0  0
  -28.6960    0.2510   13.4830 C   0  0  0  0  0  0
  -27.8060    0.2630   14.7160 C   0  0  1  0  0  0
  -26.6900    1.2320   14.5650 C   0  0  0  0  0  0
  -25.5260    0.9130   14.1420 N   0  0  0  0  0  0
  -24.4520    1.7750   13.8220 C   0  0  0  0  0  0
  -23.3300    1.6090   14.7910 C   0  0  0  0  0  0
  -23.3880    2.0090   16.1110 C   0  0  0  0  0  0
  -22.2710    1.8000   16.9210 C   0  0  0  0  0  0
  -21.0980    1.2150   16.4960 C   0  0  0  0  0  0
  -19.9230    1.0150   17.4160 C   0  0  0  0  0  0
  -19.7540    1.8620   18.4450 N   0  0  0  0  0  0
  -19.0720    0.0060   17.2020 N   0  3  0  0  0  0
  -21.0730    0.8250   15.1600 C   0  0  0  0  0  0
  -22.1650    1.0140   14.3150 C   0  0  0  0  0  0
  -26.9130    2.3890   14.8910 O   0  0  0  0  0  0
  -29.5380    0.3620   19.3210 N   0  3  0  0  0  0
  -29.4990   -1.0840   19.4450 C   0  0  0  0  0  0
  -30.7430   -1.6390   18.7950 C   0  0  0  0  0  0
  -30.8470   -3.1540   18.8960 C   0  0  0  0  0  0
  -30.7720   -3.6020   20.3400 C   0  0  0  0  0  0
  -29.4640   -3.1180   20.9490 C   0  0  0  0  0  0
  -29.3690   -1.5990   20.8510 C   0  0  0  0  0  0
  -29.9093    1.9486   18.0693 H   0  0  0  0  0  0
  -30.6214    0.3753   17.5751 H   0  0  0  0  0  0
  -30.8654    0.1543   15.3827 H   0  0  0  0  0  0
  -30.4839    1.8905   15.6408 H   0  0  0  0  0  0
  -30.8048    0.7794   13.1457 H   0  0  0  0  0  0
  -29.7380    2.1886   13.4664 H   0  0  0  0  0  0
  -29.0163   -0.7830   13.2872 H   0  0  0  0  0  0
  -28.1178    0.6244   12.6250 H   0  0  0  0  0  0
  -27.2434   -0.6531   14.9488 H   0  0  0  0  0  0
  -25.4083   -0.1754   14.0350 H   0  0  0  0  0  0
  -24.0841    1.5429   12.8116 H   0  0  0  0  0  0
  -24.7971    2.8189   13.8558 H   0  0  0  0  0  0
  -24.2867    2.4779   16.5118 H   0  0  0  0  0  0
  -22.3305    2.1214   17.9608 H   0  0  0  0  0  0
  -20.4663    2.6853   18.6024 H   0  0  0  0  0  0
  -18.9033    1.7322   19.1302 H   0  0  0  0  0  0
  -19.2295   -0.6757   16.3532 H   0  0  0  0  0  0
  -20.1720    0.3576   14.7627 H   0  0  0  0  0  0
  -22.1065    0.6939   13.2747 H   0  0  0  0  0  0
  -28.5815    0.7319   19.7188 H   0  0  0  0  0  0
  -30.3605    0.7051   19.9659 H   0  0  0  0  0  0
  -28.5716   -1.3864   18.9366 H   0  0  0  0  0  0
  -31.6325   -1.2117   19.2811 H   0  0  0  0  0  0
  -30.7471   -1.3761   17.7269 H   0  0  0  0  0  0
  -31.8062   -3.4848   18.4712 H   0  0  0  0  0  0
  -30.0197   -3.6164   18.3376 H   0  0  0  0  0  0
  -31.6184   -3.1776   20.9000 H   0  0  0  0  0  0
  -30.8157   -4.7002   20.3860 H   0  0  0  0  0  0
  -29.4206   -3.4143   22.0074 H   0  0  0  0  0  0
  -28.6188   -3.5677   20.4074 H   0  0  0  0  0  0
  -28.3930   -1.3012   21.2618 H   0  0  0  0  0  0
  -30.1725   -1.1764   21.4721 H   0  0  0  0  0  0
  -18.2145   -0.1423   17.8748 H   0  0  0  0  0  0
  1  2  1  0  0  0
  1  5  1  0  0  0
  1  8  1  0  0  0
  2  3  2  0  0  0
  2  4  1  0  0  0
  4 22  1  0  0  0
  4 29  1  0  0  0
  4 30  1  0  0  0
  5  6  1  0  0  0
  5 31  1  0  0  0
  5 32  1  0  0  0
  6  7  1  0  0  0
  6 33  1  0  0  0
  6 34  1  0  0  0
  7  8  1  0  0  0
  7 35  1  0  0  0
  7 36  1  0  0  0
  8  9  1  0  0  0
  8 37  1  0  0  0
  9 10  1  0  0  0
  9 21  2  0  0  0
 10 11  1  0  0  0
 10 38  1  0  0  0
 11 12  1  0  0  0
 11 39  1  0  0  0
 11 40  1  0  0  0
 12 13  2  0  0  0
 12 20  1  0  0  0
 13 14  1  0  0  0
 13 41  1  0  0  0
 14 15  2  0  0  0
 14 42  1  0  0  0
 15 16  1  0  0  0
 15 19  1  0  0  0
 16 17  1  0  0  0
 16 18  2  0  0  0
 17 43  1  0  0  0
 17 44  1  0  0  0
 18 45  1  0  0  0
 18 61  1  0  0  0
 19 20  2  0  0  0
 19 46  1  0  0  0
 20 47  1  0  0  0
 22 23  1  0  0  0
 22 48  1  0  0  0
 22 49  1  0  0  0
 23 24  1  0  0  0
 23 28  1  0  0  0
 23 50  1  0  0  0
 24 25  1  0  0  0
 24 51  1  0  0  0
 24 52  1  0  0  0
 25 26  1  0  0  0
 25 53  1  0  0  0
 25 54  1  0  0  0
 26 27  1  0  0  0
 26 55  1  0  0  0
 26 56  1  0  0  0
 27 28  1  0  0  0
 27 57  1  0  0  0
 27 58  1  0  0  0
 28 59  1  0  0  0
 28 60  1  0  0  0
M  CHG  2  18   1  22   1
M  END
> <s_m_source_file>
../2zq1_ligand.sdf

> <i_m_source_file_index>
1

> <s_epik_input>
W0NIMl0xW0NIMl1bQ0gyXVtDSDJdW0NIMl1bQ0hdMVtOSDIrXVtDSDJdQyg9TylOMltDSDJdW0NIMl1bQ0gyXVtDQEhdMkMoPU8pW05IXVtDSDJdYzNbY0hdW2NIXWMoL0MoW05IMl0pPU5cW0hdKVtjSF1bY0hdMw==

> <s_epik_cmdline>
J2VwaWtfYXBwJywgJy1pbWFlJywgJ2xpZ2FuZF9wcm8ubWFlJywgJy1vbWFlJywgJ2xpZ2FuZF9wcmVwLm1hZScsICctbXMnLCAnMScsICctcGgnLCAnNycsICctcGh0JywgJzAuNScsICctbnQn

> <r_epik_Ionization_Penalty>
  0.0364

> <r_epik_Ionization_Penalty_Charging>
  0.0364

> <r_epik_Ionization_Penalty_Neutral>
  0.0000

> <r_epik_State_Penalty>
  0.0302

> <r_epik_Charging_Adjusted_Penalty>
0.0666370724910797

> <i_epik_Tot_Q>
2

> <i_epik_Tot_abs_Q>
2

> <s_epik_Chemistry_Notes>
This compound has an imine and may undergo hydrolysis.

$$$$
