2zq2_ligand
                    3D
 Schrodinger Suite 2020-3.
 67 69  0  0  1  0            999 V2000
   18.1440   -9.2160   12.0880 C   0  0  0  0  0  0
   18.2090   -8.3550   11.1860 O   0  0  0  0  0  0
   19.1360  -10.3680   12.3490 C   0  0  0  0  0  0
   19.6170  -11.1920   11.2710 N   0  3  0  0  0  0
   18.9480  -12.3840   10.7680 C   0  0  0  0  0  0
   17.4640  -12.2730   11.0760 C   0  0  0  0  0  0
   16.4050  -12.6450   10.0700 C   0  0  0  0  0  0
   15.8690  -13.9960    9.6210 C   0  0  0  0  0  0
   16.7480  -14.8180    8.6800 C   0  0  0  0  0  0
   18.1820  -14.8970    9.1880 C   0  0  0  0  0  0
   19.2410  -13.9450    8.6070 C   0  0  0  0  0  0
   19.5170  -12.6340    9.3730 C   0  0  0  0  0  0
   17.0770   -9.1690   12.9290 N   0  0  0  0  0  0
   16.1240   -8.1230   12.8880 C   0  0  2  0  0  0
   16.6770   -6.7160   12.8730 C   0  0  0  0  0  0
   17.6510   -6.4370   13.5740 O   0  0  0  0  0  0
   15.2700   -8.3010   14.1440 C   0  0  0  0  0  0
   15.6350   -9.6200   14.8050 C   0  0  0  0  0  0
   16.9800   -9.9810   14.1930 C   0  0  0  0  0  0
   16.0940   -5.8290   12.1060 N   0  0  0  0  0  0
   16.4830   -4.4560   12.0400 C   0  0  0  0  0  0
   17.1400   -4.2180   10.7210 C   0  0  0  0  0  0
   18.2830   -4.9340   10.3640 C   0  0  0  0  0  0
   18.8740   -4.7050    9.1490 C   0  0  0  0  0  0
   18.3670   -3.7720    8.2440 C   0  0  0  0  0  0
   19.0080   -3.5050    6.8910 C   0  0  0  0  0  0
   18.1940   -3.1330    5.9020 N   0  0  0  0  0  0
   20.3180   -3.6390    6.7170 N   0  3  0  0  0  0
   17.2220   -3.0650    8.6120 C   0  0  0  0  0  0
   16.6200   -3.2920    9.8430 C   0  0  0  0  0  0
   20.0581   -9.9644   12.7928 H   0  0  0  0  0  0
   18.6826  -11.0926   13.0414 H   0  0  0  0  0  0
   19.6964  -10.5880   10.3551 H   0  0  0  0  0  0
   20.6068  -11.5953   11.5312 H   0  0  0  0  0  0
   19.1682  -13.3265   11.2907 H   0  0  0  0  0  0
   17.2190  -12.9140   11.9357 H   0  0  0  0  0  0
   17.2163  -11.2283   11.3152 H   0  0  0  0  0  0
   15.4441  -12.2000   10.3676 H   0  0  0  0  0  0
   16.6926  -12.2667    9.0779 H   0  0  0  0  0  0
   15.7025  -14.6351   10.5007 H   0  0  0  0  0  0
   14.9185  -13.8539    9.0859 H   0  0  0  0  0  0
   16.3477  -15.8397    8.6033 H   0  0  0  0  0  0
   16.7553  -14.3513    7.6839 H   0  0  0  0  0  0
   18.1995  -14.6964   10.2694 H   0  0  0  0  0  0
   18.5845  -15.9024    8.9951 H   0  0  0  0  0  0
   20.2106  -14.4620    8.5566 H   0  0  0  0  0  0
   18.9388  -13.6332    7.5963 H   0  0  0  0  0  0
   19.1485  -11.8608    8.6828 H   0  0  0  0  0  0
   20.6156  -12.5964    9.4129 H   0  0  0  0  0  0
   15.6293   -8.2618   11.9154 H   0  0  0  0  0  0
   15.4631   -7.4708   14.8393 H   0  0  0  0  0  0
   14.2057   -8.3065   13.8660 H   0  0  0  0  0  0
   15.7005   -9.4787   15.8939 H   0  0  0  0  0  0
   14.8627  -10.3698   14.5784 H   0  0  0  0  0  0
   17.0349  -11.0515   13.9462 H   0  0  0  0  0  0
   17.8108   -9.7162   14.8636 H   0  0  0  0  0  0
   15.2598   -6.1946   11.4892 H   0  0  0  0  0  0
   15.5927   -3.8175   12.1387 H   0  0  0  0  0  0
   17.1855   -4.2343   12.8569 H   0  0  0  0  0  0
   18.7036   -5.6714   11.0477 H   0  0  0  0  0  0
   19.7675   -5.2690    8.8814 H   0  0  0  0  0  0
   17.1142   -3.0333    6.0865 H   0  0  0  0  0  0
   18.6025   -2.9259    4.9019 H   0  0  0  0  0  0
   20.9558   -3.9479    7.5583 H   0  0  0  0  0  0
   16.7970   -2.3296    7.9289 H   0  0  0  0  0  0
   15.7264   -2.7315   10.1175 H   0  0  0  0  0  0
   20.7650   -3.4410    5.7316 H   0  0  0  0  0  0
  1  2  2  0  0  0
  1  3  1  0  0  0
  1 13  1  0  0  0
  3  4  1  0  0  0
  3 31  1  0  0  0
  3 32  1  0  0  0
  4  5  1  0  0  0
  4 33  1  0  0  0
  4 34  1  0  0  0
  5  6  1  0  0  0
  5 12  1  0  0  0
  5 35  1  0  0  0
  6  7  1  0  0  0
  6 36  1  0  0  0
  6 37  1  0  0  0
  7  8  1  0  0  0
  7 38  1  0  0  0
  7 39  1  0  0  0
  8  9  1  0  0  0
  8 40  1  0  0  0
  8 41  1  0  0  0
  9 10  1  0  0  0
  9 42  1  0  0  0
  9 43  1  0  0  0
 10 11  1  0  0  0
 10 44  1  0  0  0
 10 45  1  0  0  0
 11 12  1  0  0  0
 11 46  1  0  0  0
 11 47  1  0  0  0
 12 48  1  0  0  0
 12 49  1  0  0  0
 13 14  1  0  0  0
 13 19  1  0  0  0
 14 15  1  0  0  0
 14 17  1  0  0  0
 14 50  1  0  0  0
 15 16  2  0  0  0
 15 20  1  0  0  0
 17 18  1  0  0  0
 17 51  1  0  0  0
 17 52  1  0  0  0
 18 19  1  0  0  0
 18 53  1  0  0  0
 18 54  1  0  0  0
 19 55  1  0  0  0
 19 56  1  0  0  0
 20 21  1  0  0  0
 20 57  1  0  0  0
 21 22  1  0  0  0
 21 58  1  0  0  0
 21 59  1  0  0  0
 22 23  2  0  0  0
 22 30  1  0  0  0
 23 24  1  0  0  0
 23 60  1  0  0  0
 24 25  2  0  0  0
 24 61  1  0  0  0
 25 26  1  0  0  0
 25 29  1  0  0  0
 26 27  1  0  0  0
 26 28  2  0  0  0
 27 62  1  0  0  0
 27 63  1  0  0  0
 28 64  1  0  0  0
 28 67  1  0  0  0
 29 30  2  0  0  0
 29 65  1  0  0  0
 30 66  1  0  0  0
M  CHG  2   4   1  28   1
M  END
> <s_m_source_file>
../2zq2_ligand.sdf

> <i_m_source_file_index>
1

> <s_epik_input>
W0NIMl0xW0NIMl1bQ0gyXVtDSDJdW0NIMl1bQ0gyXVtDSDJdW0NIXTFbTkgyK11bQ0gyXUMoPU8pTjJbQ0BASF0oW0NIMl1bQ0gyXVtDSDJdMilDKD1PKVtOSF1bQ0gyXWMzW2NIXVtjSF1jKC9DKFtOSDJdKT1OXFtIXSlbY0hdW2NIXTM=

> <s_epik_cmdline>
J2VwaWtfYXBwJywgJy1pbWFlJywgJ2xpZ2FuZF9wcm8ubWFlJywgJy1vbWFlJywgJ2xpZ2FuZF9wcmVwLm1hZScsICctbXMnLCAnMScsICctcGgnLCAnNycsICctcGh0JywgJzAuNScsICctbnQn

> <r_epik_Ionization_Penalty>
  0.0307

> <r_epik_Ionization_Penalty_Charging>
  0.0307

> <r_epik_Ionization_Penalty_Neutral>
  0.0000

> <r_epik_State_Penalty>
  0.0252

> <r_epik_Charging_Adjusted_Penalty>
0.0558098341883968

> <i_epik_Tot_Q>
2

> <i_epik_Tot_abs_Q>
2

> <s_epik_Chemistry_Notes>
This compound has an imine and may undergo hydrolysis.

$$$$
