2zsc_ligand
                    3D
 Schrodinger Suite 2020-3.
 31 32  0  0  1  0            999 V2000
   14.1560   22.4050    2.9620 C   0  0  0  0  0  0
   13.9850   22.2160    1.7370 O   0  0  0  0  0  0
   14.7600   21.5300    3.6280 O   0  5  0  0  0  0
   13.6220   23.6740    3.6020 C   0  0  0  0  0  0
   13.1230   23.4580    5.0360 C   0  0  0  0  0  0
   11.8900   22.5630    5.0560 C   0  0  0  0  0  0
   11.4040   22.3260    6.4820 C   0  0  0  0  0  0
   10.1210   21.4730    6.4680 C   0  0  2  0  0  0
    8.7130   22.2680    5.9470 S   0  0  0  0  0  0
    7.7570   20.8330    6.4920 C   0  0  0  0  0  0
    8.3220   20.4520    7.8460 C   0  0  2  0  0  0
    7.7620   21.2580    8.9080 N   0  0  0  0  0  0
    8.6760   22.0520    9.4420 C   0  0  0  0  0  0
    8.4160   22.8810   10.5260 O   0  0  0  0  0  0
    9.8640   21.8480    8.9240 N   0  0  0  0  0  0
    9.7830   20.8770    7.8430 C   0  0  2  0  0  0
   14.4194   24.4309    3.6363 H   0  0  0  0  0  0
   12.7784   24.0568    3.0089 H   0  0  0  0  0  0
   13.9150   22.9808    5.6318 H   0  0  0  0  0  0
   12.8618   24.4284    5.4834 H   0  0  0  0  0  0
   11.0808   23.0408    4.4843 H   0  0  0  0  0  0
   12.1349   21.5912    4.6026 H   0  0  0  0  0  0
   12.1828   21.7980    7.0518 H   0  0  0  0  0  0
   11.1902   23.2924    6.9619 H   0  0  0  0  0  0
   10.4746   20.6696    5.8051 H   0  0  0  0  0  0
    6.6942   21.1069    6.5654 H   0  0  0  0  0  0
    7.8757   20.0158    5.7653 H   0  0  0  0  0  0
    8.1011   19.3920    8.0400 H   0  0  0  0  0  0
    6.6989   21.1581    9.1721 H   0  0  0  0  0  0
   10.8338   22.2919    9.1930 H   0  0  0  0  0  0
   10.5116   20.0784    8.0465 H   0  0  0  0  0  0
  1  2  2  0  0  0
  1  3  1  0  0  0
  1  4  1  0  0  0
  4  5  1  0  0  0
  4 17  1  0  0  0
  4 18  1  0  0  0
  5  6  1  0  0  0
  5 19  1  0  0  0
  5 20  1  0  0  0
  6  7  1  0  0  0
  6 21  1  0  0  0
  6 22  1  0  0  0
  7  8  1  0  0  0
  7 23  1  0  0  0
  7 24  1  0  0  0
  8  9  1  0  0  0
  8 16  1  0  0  0
  8 25  1  0  0  0
  9 10  1  0  0  0
 10 11  1  0  0  0
 10 26  1  0  0  0
 10 27  1  0  0  0
 11 12  1  0  0  0
 11 16  1  0  0  0
 11 28  1  0  0  0
 12 13  1  0  0  0
 12 29  1  0  0  0
 13 14  2  0  0  0
 13 15  1  0  0  0
 15 16  1  0  0  0
 15 30  1  0  0  0
 16 31  1  0  0  0
M  CHG  1   3  -1
M  END
> <s_m_source_file>
../2zsc_ligand.sdf

> <i_m_source_file_index>
1

> <s_epik_input>
Tz1DKFtPSF0pW0NIMl1bQ0gyXVtDSDJdW0NIMl1bQ0BIXShTW0NIMl0xKVtDQEhdKFtDQEhdMTIpW05IXUMoPU8pW05IXTI=

> <s_epik_cmdline>
J2VwaWtfYXBwJywgJy1pbWFlJywgJ2xpZ2FuZF9wcm8ubWFlJywgJy1vbWFlJywgJ2xpZ2FuZF9wcmVwLm1hZScsICctbXMnLCAnMScsICctcGgnLCAnNycsICctcGh0JywgJzAuNScsICctbnQn

> <r_lp_tautomer_probability>
1

> <r_epik_Ionization_Penalty>
  0.0045

> <r_epik_Ionization_Penalty_Charging>
  0.0044

> <r_epik_Ionization_Penalty_Neutral>
  0.0000

> <r_epik_State_Penalty>
 -0.0000

> <r_epik_Charging_Adjusted_Penalty>
0.00443833021372702

> <i_epik_Tot_Q>
-1

> <i_epik_Tot_abs_Q>
1

$$$$
