2zu3_ligand
                    3D
 Schrodinger Suite 2020-3.
 93 94  0  0  1  0            999 V2000
   15.3670   15.9910   29.1240 C   0  0  0  0  0  0
   16.4970   15.1660   29.6360 C   0  0  0  0  0  0
   16.2720   14.1920   30.5900 C   0  0  0  0  0  0
   14.9040   13.9680   31.1110 C   0  0  0  0  0  0
   13.8770   14.7230   30.6450 C   0  0  0  0  0  0
   14.1090   15.7790   29.6070 C   0  0  0  0  0  0
   17.4060   13.3320   31.1210 C   0  0  0  0  0  0
   18.2500   12.8500   30.0280 O   0  0  0  0  0  0
   17.5530   11.9850   29.1580 C   0  0  0  0  0  0
   17.4470   12.3090   27.9600 O   0  0  0  0  0  0
   16.9140   10.8240   29.7430 N   0  0  0  0  0  0
   16.0280    9.8390   29.1250 C   0  0  1  0  0  0
   14.6310    9.9620   29.7650 C   0  0  0  0  0  0
   14.6700    9.9730   31.2690 N   0  0  0  0  0  0
   15.3200    8.9230   32.0440 C   0  0  0  0  0  0
   16.0790    9.9330   27.5880 C   0  0  0  0  0  0
   15.3270   10.9270   26.7940 N   0  0  0  0  0  0
   16.8520    9.1690   27.0510 O   0  0  0  0  0  0
   15.4400   10.3880   25.3150 C   0  0  2  0  0  0
   16.7670   10.7830   24.6610 C   0  0  0  0  0  0
   14.3130   11.0970   24.6830 C   0  0  0  0  0  0
   15.8690    7.9850   31.4520 O   0  0  0  0  0  0
   15.3310    8.9450   33.5810 C   0  0  0  0  0  0
   17.6720   11.5990   24.8180 O   0  0  0  0  0  0
   17.0400    9.6220   23.8300 N   0  0  0  0  0  0
   12.7270   11.0060   24.8770 C   0  0  0  0  0  0
   12.0160   11.7870   23.7790 C   0  0  0  0  0  0
   11.8730    9.7860   25.2290 C   0  0  0  0  0  0
   18.3690    9.4680   23.1710 C   0  0  1  0  0  0
   19.1890    8.3520   23.8930 C   0  0  0  0  0  0
   19.6840    8.6650   25.3270 C   0  0  1  0  0  0
   18.1580    9.1470   21.6680 C   0  0  0  0  0  0
   20.6410    7.6710   25.8190 C   0  0  0  0  0  0
   20.7120    6.4940   25.4160 O   0  0  0  0  0  0
   21.4790    8.2360   26.8230 N   0  0  0  0  0  0
   21.0790    9.6570   27.0130 C   0  0  0  0  0  0
   20.4960    9.9640   25.6050 C   0  0  0  0  0  0
   13.9440    8.5900   34.1660 C   0  0  0  0  0  0
   15.7860   10.3540   34.0710 C   0  0  0  0  0  0
   16.3840    7.9450   34.1270 C   0  0  0  0  0  0
   17.3770   10.2940   20.9780 C   0  0  0  0  0  0
   18.3070   11.3840   20.4470 C   0  0  0  0  0  0
   17.7730   12.7770   20.1780 C   0  0  0  0  0  0
   19.5060   11.1380   20.2270 O   0  0  0  0  0  0
   15.5440   16.7577   28.3697 H   0  0  0  0  0  0
   17.5053   15.3314   29.2565 H   0  0  0  0  0  0
   14.7230   13.2013   31.8643 H   0  0  0  0  0  0
   12.8707   14.5593   31.0305 H   0  0  0  0  0  0
   13.2746   16.3761   29.2390 H   0  0  0  0  0  0
   18.0244   13.9255   31.8105 H   0  0  0  0  0  0
   16.9897   12.4653   31.6554 H   0  0  0  0  0  0
   17.1791   10.7344   30.8068 H   0  0  0  0  0  0
   16.4122    8.8350   29.3580 H   0  0  0  0  0  0
   14.1587   10.8998   29.4370 H   0  0  0  0  0  0
   14.0089    9.1098   29.4540 H   0  0  0  0  0  0
   14.1963   10.7952   31.8255 H   0  0  0  0  0  0
   14.7719   11.8539   27.0007 H   0  0  0  0  0  0
   15.3822    9.2970   25.1868 H   0  0  0  0  0  0
   14.4074   12.1767   24.8708 H   0  0  0  0  0  0
   14.3244   10.9111   23.5989 H   0  0  0  0  0  0
   16.2635    8.8560   23.6878 H   0  0  0  0  0  0
   12.7040   11.3878   25.9083 H   0  0  0  0  0  0
   12.6146   12.6700   23.5107 H   0  0  0  0  0  0
   11.0280   12.1095   24.1394 H   0  0  0  0  0  0
   11.8920   11.1454   22.8942 H   0  0  0  0  0  0
   12.3696    9.2072   26.0217 H   0  0  0  0  0  0
   11.7498    9.1549   24.3365 H   0  0  0  0  0  0
   10.8858   10.1190   25.5818 H   0  0  0  0  0  0
   18.9055   10.4240   23.2619 H   0  0  0  0  0  0
   18.5737    7.4446   23.9824 H   0  0  0  0  0  0
   20.0934    8.1256   23.3092 H   0  0  0  0  0  0
   18.7086    8.6711   25.8354 H   0  0  0  0  0  0
   19.1355    9.0318   21.1769 H   0  0  0  0  0  0
   17.5858    8.2127   21.5694 H   0  0  0  0  0  0
   22.3000    7.8113   27.4194 H   0  0  0  0  0  0
   20.3417    9.7247   27.8265 H   0  0  0  0  0  0
   21.9650   10.2561   27.2703 H   0  0  0  0  0  0
   21.2660   10.0881   24.8294 H   0  0  0  0  0  0
   19.8182   10.8303   25.5907 H   0  0  0  0  0  0
   13.1927    9.2959   33.7823 H   0  0  0  0  0  0
   13.9814    8.6549   35.2634 H   0  0  0  0  0  0
   13.6715    7.5667   33.8683 H   0  0  0  0  0  0
   15.0750   11.1136   33.7140 H   0  0  0  0  0  0
   16.7880   10.5743   33.6741 H   0  0  0  0  0  0
   15.8159   10.3678   35.1705 H   0  0  0  0  0  0
   16.1179    6.9248   33.8134 H   0  0  0  0  0  0
   16.4043    7.9974   35.2256 H   0  0  0  0  0  0
   17.3763    8.2039   33.7292 H   0  0  0  0  0  0
   16.8042    9.8895   20.1305 H   0  0  0  0  0  0
   16.6870   10.7543   21.7005 H   0  0  0  0  0  0
   16.7021   12.8135   20.4269 H   0  0  0  0  0  0
   17.9110   13.0236   19.1149 H   0  0  0  0  0  0
   18.3184   13.5046   20.7970 H   0  0  0  0  0  0
  1  2  2  0  0  0
  1  6  1  0  0  0
  1 45  1  0  0  0
  2  3  1  0  0  0
  2 46  1  0  0  0
  3  4  2  0  0  0
  3  7  1  0  0  0
  4  5  1  0  0  0
  4 47  1  0  0  0
  5  6  2  0  0  0
  5 48  1  0  0  0
  6 49  1  0  0  0
  7  8  1  0  0  0
  7 50  1  0  0  0
  7 51  1  0  0  0
  8  9  1  0  0  0
  9 10  2  0  0  0
  9 11  1  0  0  0
 11 12  1  0  0  0
 11 52  1  0  0  0
 12 13  1  0  0  0
 12 16  1  0  0  0
 12 53  1  0  0  0
 13 14  1  0  0  0
 13 54  1  0  0  0
 13 55  1  0  0  0
 14 15  1  0  0  0
 14 56  1  0  0  0
 15 22  2  0  0  0
 15 23  1  0  0  0
 16 17  1  0  0  0
 16 18  2  0  0  0
 17 19  1  0  0  0
 17 57  1  0  0  0
 19 20  1  0  0  0
 19 21  1  0  0  0
 19 58  1  0  0  0
 20 24  2  0  0  0
 20 25  1  0  0  0
 21 26  1  0  0  0
 21 59  1  0  0  0
 21 60  1  0  0  0
 23 38  1  0  0  0
 23 39  1  0  0  0
 23 40  1  0  0  0
 25 29  1  0  0  0
 25 61  1  0  0  0
 26 27  1  0  0  0
 26 28  1  0  0  0
 26 62  1  0  0  0
 27 63  1  0  0  0
 27 64  1  0  0  0
 27 65  1  0  0  0
 28 66  1  0  0  0
 28 67  1  0  0  0
 28 68  1  0  0  0
 29 30  1  0  0  0
 29 32  1  0  0  0
 29 69  1  0  0  0
 30 31  1  0  0  0
 30 70  1  0  0  0
 30 71  1  0  0  0
 31 33  1  0  0  0
 31 37  1  0  0  0
 31 72  1  0  0  0
 32 41  1  0  0  0
 32 73  1  0  0  0
 32 74  1  0  0  0
 33 34  2  0  0  0
 33 35  1  0  0  0
 35 36  1  0  0  0
 35 75  1  0  0  0
 36 37  1  0  0  0
 36 76  1  0  0  0
 36 77  1  0  0  0
 37 78  1  0  0  0
 37 79  1  0  0  0
 38 80  1  0  0  0
 38 81  1  0  0  0
 38 82  1  0  0  0
 39 83  1  0  0  0
 39 84  1  0  0  0
 39 85  1  0  0  0
 40 86  1  0  0  0
 40 87  1  0  0  0
 40 88  1  0  0  0
 41 42  1  0  0  0
 41 89  1  0  0  0
 41 90  1  0  0  0
 42 43  1  0  0  0
 42 44  2  0  0  0
 43 91  1  0  0  0
 43 92  1  0  0  0
 43 93  1  0  0  0
M  END
> <s_m_source_file>
../2zu3_ligand.sdf

> <i_m_source_file_index>
1

> <s_epik_input>
W2NIXTFbY0hdW2NIXVtjSF1bY0hdYzFbQ0gyXU9DKD1PKVtOSF1bQ0BASF0oW0NIMl1bTkhdQyg9TylDKFtDSDNdKShbQ0gzXSlbQ0gzXSlDKD1PKVtOSF1bQ0BASF0oW0NIMl1bQ0hdKFtDSDNdKVtDSDNdKUMoPU8pW05IXVtDQEhdKFtDSDJdW0NIMl1DKD1PKVtDSDNdKVtDSDJdW0NASF0yQyg9TylbTkhdW0NIMl1bQ0gyXTI=

> <s_epik_cmdline>
J2VwaWtfYXBwJywgJy1pbWFlJywgJ2xpZ2FuZF9wcm8ubWFlJywgJy1vbWFlJywgJ2xpZ2FuZF9wcmVwLm1hZScsICctbXMnLCAnMScsICctcGgnLCAnNycsICctcGh0JywgJzAuNScsICctbnQn

> <r_lp_tautomer_probability>
1

> <r_epik_Ionization_Penalty>
  0.0000

> <r_epik_Ionization_Penalty_Charging>
  0.0000

> <r_epik_Ionization_Penalty_Neutral>
  0.0000

> <r_epik_State_Penalty>
 -0.0000

> <r_epik_Charging_Adjusted_Penalty>
0

> <i_epik_Tot_Q>
0

> <i_epik_Tot_abs_Q>
0

> <s_epik_Chemistry_Notes>
This compound has an ester and may undergo hydrolysis at high or low pH.

$$$$
