2zu4_ligand
                    3D
 Schrodinger Suite 2020-3.
 93 94  0  0  1  0            999 V2000
   21.8400    7.1220   20.0550 C   0  0  0  0  0  0
   21.1940    5.9250   19.4490 C   0  0  0  0  0  0
   19.9970    6.0550   18.7750 C   0  0  0  0  0  0
   19.3500    7.3900   18.6490 C   0  0  0  0  0  0
   19.9390    8.4700   19.1960 C   0  0  0  0  0  0
   21.2410    8.3390   19.9340 C   0  0  0  0  0  0
   19.3390    4.8390   18.1670 C   0  0  0  0  0  0
   18.2660    4.3990   19.0560 O   0  0  0  0  0  0
   18.6600    3.4790   20.0370 C   0  0  0  0  0  0
   19.7990    2.9160   20.0120 O   0  0  0  0  0  0
   17.7240    3.1830   21.0410 N   0  0  0  0  0  0
   18.0030    2.2150   22.0920 C   0  0  1  0  0  0
   17.6460    2.8140   23.4540 C   0  0  0  0  0  0
   18.2720    4.1420   23.6240 N   0  0  0  0  0  0
   19.6470    4.2130   24.0990 C   0  0  0  0  0  0
   17.2620    0.9280   21.7820 C   0  0  0  0  0  0
   18.0140   -0.2830   21.5650 N   0  0  0  0  0  0
   15.9720    0.9030   21.7850 O   0  0  0  0  0  0
   17.3210   -1.5500   21.3580 C   0  0  2  0  0  0
   16.5150   -1.8760   22.5960 C   0  0  0  0  0  0
   18.3680   -2.6430   20.9160 C   0  0  0  0  0  0
   20.2660    3.1440   24.3540 O   0  0  0  0  0  0
   20.3550    5.5430   24.3040 C   0  0  0  0  0  0
   16.9790   -1.5390   23.7230 O   0  0  0  0  0  0
   15.2530   -2.5410   22.5430 N   0  0  0  0  0  0
   19.1760   -2.4540   19.5860 C   0  0  0  0  0  0
   20.0980   -3.6290   19.1910 C   0  0  0  0  0  0
   18.2010   -2.2060   18.4160 C   0  0  0  0  0  0
   14.5130   -2.8160   23.7590 C   0  0  1  0  0  0
   13.2400   -1.8030   23.8120 C   0  0  0  0  0  0
   13.5660   -0.3700   24.2540 C   0  0  1  0  0  0
   14.1310   -4.2750   23.6840 C   0  0  0  0  0  0
   12.3400    0.4760   24.3300 C   0  0  0  0  0  0
   11.4050    0.4110   23.5110 O   0  0  0  0  0  0
   12.3810    1.3650   25.4460 N   0  0  0  0  0  0
   13.6310    1.2240   26.2090 C   0  0  0  0  0  0
   14.1780   -0.1600   25.7240 C   0  0  0  0  0  0
   20.8240    5.6600   25.7600 C   0  0  0  0  0  0
   19.4070    6.7330   23.9340 C   0  0  0  0  0  0
   21.5430    5.6270   23.3500 C   0  0  0  0  0  0
   15.4240   -5.1710   23.7600 C   0  0  0  0  0  0
   15.2030   -6.3770   24.6720 C   0  0  0  0  0  0
   16.3600   -7.3390   24.9940 C   0  0  0  0  0  0
   14.1000   -6.6180   25.1140 O   0  0  0  0  0  0
   22.7842    7.0249   20.5908 H   0  0  0  0  0  0
   21.6664    4.9467   19.5378 H   0  0  0  0  0  0
   18.4044    7.4924   18.1167 H   0  0  0  0  0  0
   19.4671    9.4481   19.1026 H   0  0  0  0  0  0
   21.7075    9.2205   20.3738 H   0  0  0  0  0  0
   18.9265    5.0997   17.1812 H   0  0  0  0  0  0
   20.0839    4.0377   18.0525 H   0  0  0  0  0  0
   16.7569    3.7066   21.0181 H   0  0  0  0  0  0
   19.0809    1.9958   22.0912 H   0  0  0  0  0  0
   16.5543    2.9243   23.5312 H   0  0  0  0  0  0
   18.0047    2.1482   24.2528 H   0  0  0  0  0  0
   17.7005    5.0531   23.3930 H   0  0  0  0  0  0
   19.1135   -0.2496   21.5558 H   0  0  0  0  0  0
   16.5759   -1.4287   20.5579 H   0  0  0  0  0  0
   19.1440   -2.7414   21.6894 H   0  0  0  0  0  0
   17.8571   -3.6082   20.7844 H   0  0  0  0  0  0
   14.8428   -2.8454   21.5688 H   0  0  0  0  0  0
   19.8388   -1.5949   19.7669 H   0  0  0  0  0  0
   20.8065   -3.8299   20.0082 H   0  0  0  0  0  0
   20.6547   -3.3676   18.2790 H   0  0  0  0  0  0
   19.4893   -4.5261   19.0046 H   0  0  0  0  0  0
   17.5295   -1.3722   18.6687 H   0  0  0  0  0  0
   17.6065   -3.1137   18.2354 H   0  0  0  0  0  0
   18.7719   -1.9553   17.5098 H   0  0  0  0  0  0
   15.1628   -2.6946   24.6382 H   0  0  0  0  0  0
   12.7892   -1.7280   22.8114 H   0  0  0  0  0  0
   12.4939   -2.1886   24.5224 H   0  0  0  0  0  0
   14.2562   -0.0932   23.4434 H   0  0  0  0  0  0
   13.4668   -4.5238   24.5248 H   0  0  0  0  0  0
   13.6097   -4.4693   22.7350 H   0  0  0  0  0  0
   11.6206    2.0928   25.7657 H   0  0  0  0  0  0
   14.3062    2.0571   25.9638 H   0  0  0  0  0  0
   13.4069    1.2384   27.2858 H   0  0  0  0  0  0
   13.8439   -0.9770   26.3804 H   0  0  0  0  0  0
   15.2765   -0.1610   25.6674 H   0  0  0  0  0  0
   19.9549    5.5973   26.4313 H   0  0  0  0  0  0
   21.3308    6.6254   25.9055 H   0  0  0  0  0  0
   21.5225    4.8412   25.9871 H   0  0  0  0  0  0
   18.5279    6.7207   24.5951 H   0  0  0  0  0  0
   19.0810    6.6306   22.8884 H   0  0  0  0  0  0
   19.9462    7.6837   24.0586 H   0  0  0  0  0  0
   22.2457    4.8089   23.5666 H   0  0  0  0  0  0
   22.0524    6.5928   23.4829 H   0  0  0  0  0  0
   21.1872    5.5398   22.3128 H   0  0  0  0  0  0
   15.6790   -5.5328   22.7530 H   0  0  0  0  0  0
   16.2593   -4.5764   24.1584 H   0  0  0  0  0  0
   17.2828   -6.9746   24.5190 H   0  0  0  0  0  0
   16.1210   -8.3416   24.6097 H   0  0  0  0  0  0
   16.5033   -7.3884   26.0835 H   0  0  0  0  0  0
  1  2  2  0  0  0
  1  6  1  0  0  0
  1 45  1  0  0  0
  2  3  1  0  0  0
  2 46  1  0  0  0
  3  4  2  0  0  0
  3  7  1  0  0  0
  4  5  1  0  0  0
  4 47  1  0  0  0
  5  6  2  0  0  0
  5 48  1  0  0  0
  6 49  1  0  0  0
  7  8  1  0  0  0
  7 50  1  0  0  0
  7 51  1  0  0  0
  8  9  1  0  0  0
  9 10  2  0  0  0
  9 11  1  0  0  0
 11 12  1  0  0  0
 11 52  1  0  0  0
 12 13  1  0  0  0
 12 16  1  0  0  0
 12 53  1  0  0  0
 13 14  1  0  0  0
 13 54  1  0  0  0
 13 55  1  0  0  0
 14 15  1  0  0  0
 14 56  1  0  0  0
 15 22  2  0  0  0
 15 23  1  0  0  0
 16 17  1  0  0  0
 16 18  2  0  0  0
 17 19  1  0  0  0
 17 57  1  0  0  0
 19 20  1  0  0  0
 19 21  1  0  0  0
 19 58  1  0  0  0
 20 24  2  0  0  0
 20 25  1  0  0  0
 21 26  1  0  0  0
 21 59  1  0  0  0
 21 60  1  0  0  0
 23 38  1  0  0  0
 23 39  1  0  0  0
 23 40  1  0  0  0
 25 29  1  0  0  0
 25 61  1  0  0  0
 26 27  1  0  0  0
 26 28  1  0  0  0
 26 62  1  0  0  0
 27 63  1  0  0  0
 27 64  1  0  0  0
 27 65  1  0  0  0
 28 66  1  0  0  0
 28 67  1  0  0  0
 28 68  1  0  0  0
 29 30  1  0  0  0
 29 32  1  0  0  0
 29 69  1  0  0  0
 30 31  1  0  0  0
 30 70  1  0  0  0
 30 71  1  0  0  0
 31 33  1  0  0  0
 31 37  1  0  0  0
 31 72  1  0  0  0
 32 41  1  0  0  0
 32 73  1  0  0  0
 32 74  1  0  0  0
 33 34  2  0  0  0
 33 35  1  0  0  0
 35 36  1  0  0  0
 35 75  1  0  0  0
 36 37  1  0  0  0
 36 76  1  0  0  0
 36 77  1  0  0  0
 37 78  1  0  0  0
 37 79  1  0  0  0
 38 80  1  0  0  0
 38 81  1  0  0  0
 38 82  1  0  0  0
 39 83  1  0  0  0
 39 84  1  0  0  0
 39 85  1  0  0  0
 40 86  1  0  0  0
 40 87  1  0  0  0
 40 88  1  0  0  0
 41 42  1  0  0  0
 41 89  1  0  0  0
 41 90  1  0  0  0
 42 43  1  0  0  0
 42 44  2  0  0  0
 43 91  1  0  0  0
 43 92  1  0  0  0
 43 93  1  0  0  0
M  END
> <s_m_source_file>
../2zu4_ligand.sdf

> <i_m_source_file_index>
1

> <s_epik_input>
W2NIXTFbY0hdW2NIXVtjSF1bY0hdYzFbQ0gyXU9DKD1PKVtOSF1bQ0BASF0oW0NIMl1bTkhdQyg9TylDKFtDSDNdKShbQ0gzXSlbQ0gzXSlDKD1PKVtOSF1bQ0BASF0oW0NIMl1bQ0hdKFtDSDNdKVtDSDNdKUMoPU8pW05IXVtDQEhdKFtDSDJdW0NIMl1DKD1PKVtDSDNdKVtDSDJdW0NASF0yQyg9TylbTkhdW0NIMl1bQ0gyXTI=

> <s_epik_cmdline>
J2VwaWtfYXBwJywgJy1pbWFlJywgJ2xpZ2FuZF9wcm8ubWFlJywgJy1vbWFlJywgJ2xpZ2FuZF9wcmVwLm1hZScsICctbXMnLCAnMScsICctcGgnLCAnNycsICctcGh0JywgJzAuNScsICctbnQn

> <r_lp_tautomer_probability>
1

> <r_epik_Ionization_Penalty>
  0.0000

> <r_epik_Ionization_Penalty_Charging>
  0.0000

> <r_epik_Ionization_Penalty_Neutral>
  0.0000

> <r_epik_State_Penalty>
 -0.0000

> <r_epik_Charging_Adjusted_Penalty>
0

> <i_epik_Tot_Q>
0

> <i_epik_Tot_abs_Q>
0

> <s_epik_Chemistry_Notes>
This compound has an ester and may undergo hydrolysis at high or low pH.

$$$$
