2zu5_ligand
                    3D
 Schrodinger Suite 2020-3.
 97 99  0  0  1  0            999 V2000
   16.1530   -7.3010   24.9600 C   0  0  0  0  0  0
   17.2660   -7.7130   23.9620 C   0  0  0  0  0  0
   17.5650   -6.6500   25.0110 C   0  0  0  0  0  0
   15.0940   -6.2300   24.6040 C   0  0  0  0  0  0
   15.3920   -5.0530   23.6930 C   0  0  0  0  0  0
   14.3790   -4.2190   23.4890 C   0  0  0  0  0  0
   14.5370   -2.8040   23.6380 C   0  0  2  0  0  0
   13.4960   -1.7050   23.8700 C   0  0  0  0  0  0
   13.5530   -0.2100   24.3000 C   0  0  2  0  0  0
   14.0390   -0.1500   25.7540 C   0  0  0  0  0  0
   13.4760    1.1700   26.2870 C   0  0  0  0  0  0
   12.2510    1.2910   25.5530 N   0  0  0  0  0  0
   12.2850    0.5020   24.4090 C   0  0  0  0  0  0
   11.3530    0.4180   23.5800 O   0  0  0  0  0  0
   13.9680   -6.3740   25.0970 O   0  0  0  0  0  0
   15.3750   -2.5530   22.5980 N   0  0  0  0  0  0
   16.6500   -1.8650   22.6360 C   0  0  0  0  0  0
   17.2120   -1.7270   23.7130 O   0  0  0  0  0  0
   17.3130   -1.2660   21.4000 C   0  0  2  0  0  0
   18.4390   -2.1000   20.7340 C   0  0  0  0  0  0
   19.0910   -2.1200   19.3660 C   0  0  0  0  0  0
   18.0560   -2.2770   18.2430 C   0  0  0  0  0  0
   20.1420   -3.2480   19.3100 C   0  0  0  0  0  0
   17.8210    0.0890   21.6290 N   0  0  0  0  0  0
   16.9660    1.1040   21.7780 C   0  0  0  0  0  0
   15.7790    0.9270   21.7220 O   0  0  0  0  0  0
   17.8840    2.1690   21.9970 C   0  0  2  0  0  0
   17.5360    2.9700   23.2490 C   0  0  1  0  0  0
   17.7730    2.1210   24.5500 C   0  0  0  0  0  0
   18.2700    4.1480   23.7710 O   0  0  0  0  0  0
   17.8120    5.5420   24.0750 C   0  0  0  0  0  0
   16.4110    5.4460   24.6760 C   0  0  0  0  0  0
   17.7080    6.3340   22.6740 C   0  0  0  0  0  0
   19.0080    6.3320   24.5710 C   0  0  0  0  0  0
   17.6680    3.0370   20.8770 N   0  0  0  0  0  0
   18.6370    3.6200   20.0610 C   0  0  0  0  0  0
   19.8400    3.3830   20.3030 O   0  0  0  0  0  0
   18.5340    4.4600   18.9720 O   0  0  0  0  0  0
   19.5010    5.0810   18.1090 C   0  0  0  0  0  0
   20.2380    6.1950   18.8100 C   0  0  0  0  0  0
   21.4910    6.0220   19.3150 C   0  0  0  0  0  0
   22.2610    7.0770   20.0130 C   0  0  0  0  0  0
   21.6250    8.4120   20.1730 C   0  0  0  0  0  0
   20.2720    8.5950   19.6270 C   0  0  0  0  0  0
   19.5820    7.4820   18.9470 C   0  0  0  0  0  0
   15.4693   -7.9120   25.5677 H   0  0  0  0  0  0
   17.4784   -8.7866   24.0725 H   0  0  0  0  0  0
   16.9307   -7.5094   22.9343 H   0  0  0  0  0  0
   17.4743   -5.5649   24.8548 H   0  0  0  0  0  0
   18.0221   -6.8421   25.9929 H   0  0  0  0  0  0
   16.2068   -4.4528   24.1241 H   0  0  0  0  0  0
   15.6940   -5.4234   22.7023 H   0  0  0  0  0  0
   14.0196   -4.3248   22.4548 H   0  0  0  0  0  0
   13.5625   -4.4561   24.1870 H   0  0  0  0  0  0
   14.9245   -2.7342   24.6651 H   0  0  0  0  0  0
   12.9353   -1.5289   22.9402 H   0  0  0  0  0  0
   12.8015   -2.0193   24.6630 H   0  0  0  0  0  0
   14.1355    0.2920   23.5134 H   0  0  0  0  0  0
   13.6490   -1.0172   26.3070 H   0  0  0  0  0  0
   15.1387   -0.1667   25.7740 H   0  0  0  0  0  0
   13.3211    1.0906   27.3731 H   0  0  0  0  0  0
   14.1862    1.9832   26.0765 H   0  0  0  0  0  0
   11.4491    1.9456   25.9252 H   0  0  0  0  0  0
   15.1087   -2.8867   21.5842 H   0  0  0  0  0  0
   16.4652   -1.1979   20.7024 H   0  0  0  0  0  0
   19.3746   -1.9687   21.2973 H   0  0  0  0  0  0
   18.1570   -3.1632   20.7344 H   0  0  0  0  0  0
   19.5808   -1.1459   19.2205 H   0  0  0  0  0  0
   17.3202   -1.4618   18.3059 H   0  0  0  0  0  0
   17.5423   -3.2437   18.3504 H   0  0  0  0  0  0
   18.5640   -2.2380   17.2681 H   0  0  0  0  0  0
   20.8697   -3.1118   20.1236 H   0  0  0  0  0  0
   20.6637   -3.2153   18.3421 H   0  0  0  0  0  0
   19.6419   -4.2211   19.4244 H   0  0  0  0  0  0
   18.9051    0.2690   21.6780 H   0  0  0  0  0  0
   18.9011    1.7545   22.0567 H   0  0  0  0  0  0
   16.5769    3.3132   22.8338 H   0  0  0  0  0  0
   17.3040    1.1328   24.4334 H   0  0  0  0  0  0
   17.3274    2.6390   25.4121 H   0  0  0  0  0  0
   18.8534    1.9970   24.7151 H   0  0  0  0  0  0
   15.7908    4.7818   24.0561 H   0  0  0  0  0  0
   15.9566    6.4472   24.7085 H   0  0  0  0  0  0
   16.4767    5.0398   25.6961 H   0  0  0  0  0  0
   16.8693    5.9317   22.0868 H   0  0  0  0  0  0
   18.6442    6.2070   22.1107 H   0  0  0  0  0  0
   17.5395    7.4034   22.8690 H   0  0  0  0  0  0
   19.2993    5.9692   25.5678 H   0  0  0  0  0  0
   18.7437    7.3980   24.6316 H   0  0  0  0  0  0
   19.8484    6.2017   23.8733 H   0  0  0  0  0  0
   16.6440    3.3087   20.5812 H   0  0  0  0  0  0
   20.2361    4.3307   17.7822 H   0  0  0  0  0  0
   18.9911    5.5019   17.2299 H   0  0  0  0  0  0
   21.9572    5.0437   19.1978 H   0  0  0  0  0  0
   23.2621    6.8814   20.3973 H   0  0  0  0  0  0
   22.1441    9.2268   20.6777 H   0  0  0  0  0  0
   19.7750    9.5601   19.7253 H   0  0  0  0  0  0
   18.5784    7.6268   18.5471 H   0  0  0  0  0  0
  1  2  1  0  0  0
  1  3  1  0  0  0
  1  4  1  0  0  0
  1 46  1  0  0  0
  2  3  1  0  0  0
  2 47  1  0  0  0
  2 48  1  0  0  0
  3 49  1  0  0  0
  3 50  1  0  0  0
  4  5  1  0  0  0
  4 15  2  0  0  0
  5  6  1  0  0  0
  5 51  1  0  0  0
  5 52  1  0  0  0
  6  7  1  0  0  0
  6 53  1  0  0  0
  6 54  1  0  0  0
  7  8  1  0  0  0
  7 16  1  0  0  0
  7 55  1  0  0  0
  8  9  1  0  0  0
  8 56  1  0  0  0
  8 57  1  0  0  0
  9 10  1  0  0  0
  9 13  1  0  0  0
  9 58  1  0  0  0
 10 11  1  0  0  0
 10 59  1  0  0  0
 10 60  1  0  0  0
 11 12  1  0  0  0
 11 61  1  0  0  0
 11 62  1  0  0  0
 12 13  1  0  0  0
 12 63  1  0  0  0
 13 14  2  0  0  0
 16 17  1  0  0  0
 16 64  1  0  0  0
 17 18  2  0  0  0
 17 19  1  0  0  0
 19 20  1  0  0  0
 19 24  1  0  0  0
 19 65  1  0  0  0
 20 21  1  0  0  0
 20 66  1  0  0  0
 20 67  1  0  0  0
 21 22  1  0  0  0
 21 23  1  0  0  0
 21 68  1  0  0  0
 22 69  1  0  0  0
 22 70  1  0  0  0
 22 71  1  0  0  0
 23 72  1  0  0  0
 23 73  1  0  0  0
 23 74  1  0  0  0
 24 25  1  0  0  0
 24 75  1  0  0  0
 25 26  2  0  0  0
 25 27  1  0  0  0
 27 28  1  0  0  0
 27 35  1  0  0  0
 27 76  1  0  0  0
 28 29  1  0  0  0
 28 30  1  0  0  0
 28 77  1  0  0  0
 29 78  1  0  0  0
 29 79  1  0  0  0
 29 80  1  0  0  0
 30 31  1  0  0  0
 31 32  1  0  0  0
 31 33  1  0  0  0
 31 34  1  0  0  0
 32 81  1  0  0  0
 32 82  1  0  0  0
 32 83  1  0  0  0
 33 84  1  0  0  0
 33 85  1  0  0  0
 33 86  1  0  0  0
 34 87  1  0  0  0
 34 88  1  0  0  0
 34 89  1  0  0  0
 35 36  1  0  0  0
 35 90  1  0  0  0
 36 37  2  0  0  0
 36 38  1  0  0  0
 38 39  1  0  0  0
 39 40  1  0  0  0
 39 91  1  0  0  0
 39 92  1  0  0  0
 40 41  2  0  0  0
 40 45  1  0  0  0
 41 42  1  0  0  0
 41 93  1  0  0  0
 42 43  2  0  0  0
 42 94  1  0  0  0
 43 44  1  0  0  0
 43 95  1  0  0  0
 44 45  2  0  0  0
 44 96  1  0  0  0
 45 97  1  0  0  0
M  END
> <s_m_source_file>
../2zu5_ligand.sdf

> <i_m_source_file_index>
1

> <s_epik_input>
Tz1DMVtOSF1bQ0gyXVtDSDJdW0NASF0xW0NIMl1bQ0BASF0oW0NIMl1bQ0gyXUMoPU8pW0NIXTJbQ0gyXVtDSDJdMilbTkhdQyg9TylbQ0BIXShbQ0gyXVtDSF0oW0NIM10pW0NIM10pW05IXUMoPU8pW0NASF0oW0NAQEhdKFtDSDNdKU9DKFtDSDNdKShbQ0gzXSlbQ0gzXSlbTkhdQyg9TylPW0NIMl1jM1tjSF1bY0hdW2NIXVtjSF1bY0hdMw==

> <s_epik_cmdline>
J2VwaWtfYXBwJywgJy1pbWFlJywgJ2xpZ2FuZF9wcm8ubWFlJywgJy1vbWFlJywgJ2xpZ2FuZF9wcmVwLm1hZScsICctbXMnLCAnMScsICctcGgnLCAnNycsICctcGh0JywgJzAuNScsICctbnQn

> <r_lp_tautomer_probability>
1

> <r_epik_Ionization_Penalty>
  0.0000

> <r_epik_Ionization_Penalty_Charging>
  0.0000

> <r_epik_Ionization_Penalty_Neutral>
  0.0000

> <r_epik_State_Penalty>
 -0.0000

> <r_epik_Charging_Adjusted_Penalty>
0

> <i_epik_Tot_Q>
0

> <i_epik_Tot_abs_Q>
0

> <s_epik_Chemistry_Notes>
This compound has an ester and may undergo hydrolysis at high or low pH.

$$$$
