2zv2_ligand
                    3D
 Schrodinger Suite 2020-3.
 33 37  0  0  1  0            999 V2000
    1.1000   -8.2610  -26.3270 C   0  0  0  0  0  0
    1.0630   -9.6440  -26.4790 C   0  0  0  0  0  0
   -0.0810  -10.2480  -26.9900 C   0  0  0  0  0  0
   -1.1830   -9.4780  -27.3430 C   0  0  0  0  0  0
   -1.1470   -8.0970  -27.1910 C   0  0  0  0  0  0
   -0.0030   -7.4900  -26.6830 C   0  0  0  0  0  0
    0.0240   -6.1090  -26.5180 C   0  0  0  0  0  0
   -0.9380   -5.4210  -26.8560 O   0  0  0  0  0  0
    1.1650   -5.5030  -25.9810 N   0  0  0  0  0  0
    1.4630   -4.1890  -25.6090 C   0  0  0  0  0  0
    0.7390   -3.0040  -25.6640 C   0  0  0  0  0  0
    1.2930   -1.8360  -25.1530 C   0  0  0  0  0  0
    2.5660   -1.8600  -24.5930 C   0  0  0  0  0  0
    3.2880   -3.0470  -24.5430 C   0  0  0  0  0  0
    2.7360   -4.2180  -25.0510 C   0  0  0  0  0  0
    3.1890   -5.4700  -25.0840 N   0  0  0  0  0  0
    2.2760   -6.2750  -25.6250 C   0  0  0  0  0  0
    2.2370   -7.6530  -25.8030 C   0  0  0  0  0  0
    3.3340   -8.4250  -25.4370 C   0  0  0  0  0  0
    3.2940   -9.8060  -25.5940 C   0  0  0  0  0  0
    2.1590  -10.4190  -26.1130 C   0  0  0  0  0  0
    2.1340  -11.9460  -26.2390 C   0  0  0  0  0  0
    1.0460  -12.5440  -26.0990 O   0  0  0  0  0  0
    3.2220  -12.5280  -26.4370 O   0  5  0  0  0  0
   -0.1135  -11.3304  -27.1142 H   0  0  0  0  0  0
   -2.0774   -9.9583  -27.7399 H   0  0  0  0  0  0
   -2.0107   -7.4926  -27.4684 H   0  0  0  0  0  0
   -0.2576   -2.9905  -26.1053 H   0  0  0  0  0  0
    0.7308   -0.9029  -25.1911 H   0  0  0  0  0  0
    2.9995   -0.9440  -24.1915 H   0  0  0  0  0  0
    4.2864   -3.0598  -24.1058 H   0  0  0  0  0  0
    4.2244   -7.9481  -25.0274 H   0  0  0  0  0  0
    4.1554  -10.4101  -25.3092 H   0  0  0  0  0  0
  1  2  1  0  0  0
  1  6  2  0  0  0
  1 18  1  0  0  0
  2  3  2  0  0  0
  2 21  1  0  0  0
  3  4  1  0  0  0
  3 25  1  0  0  0
  4  5  2  0  0  0
  4 26  1  0  0  0
  5  6  1  0  0  0
  5 27  1  0  0  0
  6  7  1  0  0  0
  7  8  2  0  0  0
  7  9  1  0  0  0
  9 10  1  0  0  0
  9 17  1  0  0  0
 10 11  1  0  0  0
 10 15  2  0  0  0
 11 12  2  0  0  0
 11 28  1  0  0  0
 12 13  1  0  0  0
 12 29  1  0  0  0
 13 14  2  0  0  0
 13 30  1  0  0  0
 14 15  1  0  0  0
 14 31  1  0  0  0
 15 16  1  0  0  0
 16 17  2  0  0  0
 17 18  1  0  0  0
 18 19  2  0  0  0
 19 20  1  0  0  0
 19 32  1  0  0  0
 20 21  2  0  0  0
 20 33  1  0  0  0
 21 22  1  0  0  0
 22 23  2  0  0  0
 22 24  1  0  0  0
M  CHG  1  24  -1
M  END
> <s_m_source_file>
../2zv2_ligand.sdf

> <i_m_source_file_index>
1

> <s_epik_input>
YzEyYzNbY0hdW2NIXVtjSF1jMWMoPU8pbjRjNWMoW2NIXVtjSF1bY0hdW2NIXTUpbmM0YzJbY0hdW2NIXWMzQyg9TylbT0hd

> <s_epik_cmdline>
J2VwaWtfYXBwJywgJy1pbWFlJywgJ2xpZ2FuZF9wcm8ubWFlJywgJy1vbWFlJywgJ2xpZ2FuZF9wcmVwLm1hZScsICctbXMnLCAnMScsICctcGgnLCAnNycsICctcGh0JywgJzAuNScsICctbnQn

> <r_epik_Ionization_Penalty>
  0.0172

> <r_epik_Ionization_Penalty_Charging>
  0.0001

> <r_epik_Ionization_Penalty_Neutral>
  0.0172

> <r_epik_State_Penalty>
  0.0136

> <r_epik_Charging_Adjusted_Penalty>
0.0136523959000197

> <i_epik_Tot_Q>
-1

> <i_epik_Tot_abs_Q>
1

$$$$
