2zv9_ligand
                    3D
 Schrodinger Suite 2020-3.
 37 39  0  0  1  0            999 V2000
   19.1000    9.4940   -6.8470 C   0  0  0  0  0  0
   18.0750    9.8760   -6.0380 N   0  0  0  0  0  0
   16.8040    9.6510   -6.4110 C   0  0  0  0  0  0
   16.5110    9.0540   -7.5790 N   0  0  0  0  0  0
   17.4890    8.6550   -8.4210 C   0  0  0  0  0  0
   18.8290    8.8710   -8.0690 C   0  0  0  0  0  0
   20.0570    8.5820   -8.6840 C   0  0  0  0  0  0
   21.0610    9.0170   -7.8900 N   0  0  0  0  0  0
   20.4340    9.5670   -6.7760 N   0  0  0  0  0  0
   20.2710    7.9440  -10.0080 C   0  0  0  0  0  0
   19.8770    8.6460  -11.1440 C   0  0  0  0  0  0
   20.0650    8.0930  -12.4030 C   0  0  0  0  0  0
   20.6590    6.8400  -12.5250 C   0  0  0  0  0  0
   21.0600    6.1370  -11.3870 C   0  0  0  0  0  0
   20.8710    6.6950  -10.1210 C   0  0  0  0  0  0
   21.2140   10.1440   -5.6320 C   0  0  0  0  0  0
   20.9030    9.3420   -4.3740 C   0  0  0  0  0  0
   20.8880   11.6170   -5.4190 C   0  0  0  0  0  0
   22.7070   10.0320   -5.9120 C   0  0  0  0  0  0
   17.1300    8.0560   -9.5840 N   0  0  0  0  0  0
   20.9010    6.1400  -14.1610 Cl  0  0  0  0  0  0
   15.9926    9.9594   -5.7518 H   0  0  0  0  0  0
   19.4205    9.6308  -11.0445 H   0  0  0  0  0  0
   19.7488    8.6376  -13.2927 H   0  0  0  0  0  0
   21.5200    5.1539  -11.4868 H   0  0  0  0  0  0
   21.1911    6.1561   -9.2292 H   0  0  0  0  0  0
   19.8276    9.4093   -4.1528 H   0  0  0  0  0  0
   21.4774    9.7487   -3.5286 H   0  0  0  0  0  0
   21.1796    8.2892   -4.5326 H   0  0  0  0  0  0
   19.8130   11.7287   -5.2141 H   0  0  0  0  0  0
   21.1498   12.1850   -6.3239 H   0  0  0  0  0  0
   21.4658   12.0007   -4.5652 H   0  0  0  0  0  0
   22.9722    8.9762   -6.0703 H   0  0  0  0  0  0
   23.2715   10.4273   -5.0546 H   0  0  0  0  0  0
   22.9555   10.6116   -6.8133 H   0  0  0  0  0  0
   16.0661    7.9065   -9.8201 H   0  0  0  0  0  0
   17.9028    7.7198  -10.2909 H   0  0  0  0  0  0
  1  2  1  0  0  0
  1  6  2  0  0  0
  1  9  1  0  0  0
  2  3  2  0  0  0
  3  4  1  0  0  0
  3 22  1  0  0  0
  4  5  2  0  0  0
  5  6  1  0  0  0
  5 20  1  0  0  0
  6  7  1  0  0  0
  7  8  2  0  0  0
  7 10  1  0  0  0
  8  9  1  0  0  0
  9 16  1  0  0  0
 10 11  2  0  0  0
 10 15  1  0  0  0
 11 12  1  0  0  0
 11 23  1  0  0  0
 12 13  2  0  0  0
 12 24  1  0  0  0
 13 14  1  0  0  0
 13 21  1  0  0  0
 14 15  2  0  0  0
 14 25  1  0  0  0
 15 26  1  0  0  0
 16 17  1  0  0  0
 16 18  1  0  0  0
 16 19  1  0  0  0
 17 27  1  0  0  0
 17 28  1  0  0  0
 17 29  1  0  0  0
 18 30  1  0  0  0
 18 31  1  0  0  0
 18 32  1  0  0  0
 19 33  1  0  0  0
 19 34  1  0  0  0
 19 35  1  0  0  0
 20 36  1  0  0  0
 20 37  1  0  0  0
M  END
> <s_m_source_file>
../2zv9_ligand.sdf

> <i_m_source_file_index>
1

> <s_epik_input>
bjFbY0hdbmMoW05IMl0pYyhjMTIpYyhubjJDKFtDSDNdKShbQ0gzXSlbQ0gzXSktYzNbY0hdW2NIXWMoQ2wpW2NIXVtjSF0z

> <s_epik_cmdline>
J2VwaWtfYXBwJywgJy1pbWFlJywgJ2xpZ2FuZF9wcm8ubWFlJywgJy1vbWFlJywgJ2xpZ2FuZF9wcmVwLm1hZScsICctbXMnLCAnMScsICctcGgnLCAnNycsICctcGh0JywgJzAuNScsICctbnQn

> <r_lp_tautomer_probability>
1

> <r_epik_Ionization_Penalty>
  0.0008

> <r_epik_Ionization_Penalty_Charging>
  0.0000

> <r_epik_Ionization_Penalty_Neutral>
  0.0008

> <r_epik_State_Penalty>
 -0.0000

> <r_epik_Charging_Adjusted_Penalty>
0

> <i_epik_Tot_Q>
0

> <i_epik_Tot_abs_Q>
0

$$$$
