2zva_ligand
                    3D
 Schrodinger Suite 2020-3.
 59 62  0  0  1  0            999 V2000
   16.7010   -8.0160   27.4590 C   0  0  0  0  0  0
   18.0480   -8.3480   27.6590 C   0  0  0  0  0  0
   19.0890   -7.9330   28.6560 C   0  0  0  0  0  0
   17.0400  -13.4530   17.9910 N   0  0  0  0  0  0
   21.2830   -6.3340   32.8480 C   0  0  0  0  0  0
   20.6620   -7.5800   32.7920 C   0  0  0  0  0  0
   19.7920   -7.8990   31.7470 C   0  0  0  0  0  0
   19.1410   -9.2630   31.7420 C   0  0  0  0  0  0
   17.4680  -10.8930   23.8000 C   0  0  0  0  0  0
   16.9700  -11.6170   22.7140 C   0  0  0  0  0  0
   17.8550  -12.3110   21.8780 C   0  0  0  0  0  0
   19.6600  -11.5620   23.2190 C   0  0  0  0  0  0
   21.1380  -11.5180   23.5120 C   0  0  0  0  0  0
   18.3180  -13.9660   20.0690 C   0  0  0  0  0  0
   16.0210  -13.0030   20.2880 C   0  0  0  0  0  0
   16.8720  -13.7150   16.5640 C   0  0  0  0  0  0
   16.8720  -15.2150   16.2760 C   0  0  0  0  0  0
   16.6120  -10.2060   24.6190 N   0  0  0  0  0  0
   16.9810   -9.4630   25.7230 C   0  0  0  0  0  0
   16.1170   -8.6460   26.3810 N   0  0  0  0  0  0
   18.5500   -9.4750   26.4460 S   0  0  0  0  0  0
   18.7040   -7.2170   29.7130 N   0  0  0  0  0  0
   19.5470   -6.9540   30.7470 C   0  0  0  0  0  0
   20.1690   -5.7100   30.8040 C   0  0  0  0  0  0
   21.0370   -5.3950   31.8470 C   0  0  0  0  0  0
   19.8590   -4.4920   29.5210 Cl  0  0  0  0  0  0
   20.2620   -8.2480   28.4890 O   0  0  0  0  0  0
   19.1860  -12.2640   22.1610 N   0  0  0  0  0  0
   18.8050  -10.8900   24.0200 N   0  0  0  0  0  0
   17.4010  -13.0680   20.7650 N   0  0  0  0  0  0
   18.3680  -13.6260   18.5840 C   0  0  0  0  0  0
   15.8780  -12.9990   18.7620 C   0  0  0  0  0  0
   15.7140  -15.8100   16.8760 O   0  0  0  0  0  0
   16.1616   -7.3194   28.1008 H   0  0  0  0  0  0
   21.9576   -6.0945   33.6700 H   0  0  0  0  0  0
   20.8575   -8.3146   33.5731 H   0  0  0  0  0  0
   19.4788   -9.8337   32.6196 H   0  0  0  0  0  0
   19.4228   -9.8004   30.8245 H   0  0  0  0  0  0
   18.0477   -9.1476   31.7783 H   0  0  0  0  0  0
   15.8981  -11.6420   22.5178 H   0  0  0  0  0  0
   21.6781  -12.1166   22.7637 H   0  0  0  0  0  0
   21.3253  -11.9289   24.5150 H   0  0  0  0  0  0
   21.4890  -10.4763   23.4711 H   0  0  0  0  0  0
   19.3269  -13.8620   20.4949 H   0  0  0  0  0  0
   17.9751  -15.0044   20.1878 H   0  0  0  0  0  0
   15.4630  -13.8748   20.6602 H   0  0  0  0  0  0
   15.5486  -12.0806   20.6568 H   0  0  0  0  0  0
   15.9155  -13.2917   16.2236 H   0  0  0  0  0  0
   17.6980  -13.2499   16.0060 H   0  0  0  0  0  0
   16.8502  -15.3796   15.1886 H   0  0  0  0  0  0
   17.7809  -15.6693   16.6974 H   0  0  0  0  0  0
   15.5304  -10.2187   24.4189 H   0  0  0  0  0  0
   17.6791   -6.8209   29.7652 H   0  0  0  0  0  0
   21.5215   -4.4192   31.8805 H   0  0  0  0  0  0
   18.8945  -14.4447   18.0716 H   0  0  0  0  0  0
   18.9429  -12.6947   18.4739 H   0  0  0  0  0  0
   15.6382  -11.9613   18.4870 H   0  0  0  0  0  0
   15.0159  -13.6455   18.5409 H   0  0  0  0  0  0
   15.5375  -16.8913   16.7772 H   0  0  0  0  0  0
  1  2  2  0  0  0
  1 20  1  0  0  0
  1 34  1  0  0  0
  2  3  1  0  0  0
  2 21  1  0  0  0
  3 22  1  0  0  0
  3 27  2  0  0  0
  4 16  1  0  0  0
  4 31  1  0  0  0
  4 32  1  0  0  0
  5  6  2  0  0  0
  5 25  1  0  0  0
  5 35  1  0  0  0
  6  7  1  0  0  0
  6 36  1  0  0  0
  7  8  1  0  0  0
  7 23  2  0  0  0
  8 37  1  0  0  0
  8 38  1  0  0  0
  8 39  1  0  0  0
  9 10  2  0  0  0
  9 18  1  0  0  0
  9 29  1  0  0  0
 10 11  1  0  0  0
 10 40  1  0  0  0
 11 28  2  0  0  0
 11 30  1  0  0  0
 12 13  1  0  0  0
 12 28  1  0  0  0
 12 29  2  0  0  0
 13 41  1  0  0  0
 13 42  1  0  0  0
 13 43  1  0  0  0
 14 30  1  0  0  0
 14 31  1  0  0  0
 14 44  1  0  0  0
 14 45  1  0  0  0
 15 30  1  0  0  0
 15 32  1  0  0  0
 15 46  1  0  0  0
 15 47  1  0  0  0
 16 17  1  0  0  0
 16 48  1  0  0  0
 16 49  1  0  0  0
 17 33  1  0  0  0
 17 50  1  0  0  0
 17 51  1  0  0  0
 18 19  1  0  0  0
 18 52  1  0  0  0
 19 20  2  0  0  0
 19 21  1  0  0  0
 22 23  1  0  0  0
 22 53  1  0  0  0
 23 24  1  0  0  0
 24 25  2  0  0  0
 24 26  1  0  0  0
 25 54  1  0  0  0
 31 55  1  0  0  0
 31 56  1  0  0  0
 32 57  1  0  0  0
 32 58  1  0  0  0
 33 59  1  0  0  0
M  END
> <s_m_source_file>
../2zva_ligand.sdf

> <i_m_source_file_index>
1

> <s_epik_input>
W0NIM11jMVtjSF1bY0hdW2NIXWMoQ2wpYzFbTkhdQyg9TyljMltjSF1uYyhzMilbTkhdYzNbY0hdYyhuYyhuMylbQ0gzXSlOKFtDSDJdW0NIMl00KVtDSDJdW0NIMl1bTkgrXTRbQ0gyXVtDSDJdW09IXQ==

> <s_epik_cmdline>
J2VwaWtfYXBwJywgJy1pbWFlJywgJ2xpZ2FuZF9wcm8ubWFlJywgJy1vbWFlJywgJ2xpZ2FuZF9wcmVwLm1hZScsICctbXMnLCAnMScsICctcGgnLCAnNycsICctcGh0JywgJzAuNScsICctbnQn

> <r_lp_tautomer_probability>
0.999999999985434

> <r_epik_Ionization_Penalty>
  0.5787

> <r_epik_Ionization_Penalty_Charging>
  0.0000

> <r_epik_Ionization_Penalty_Neutral>
  0.5787

> <r_epik_State_Penalty>
  0.4045

> <r_epik_Charging_Adjusted_Penalty>
0.404525148573214

> <i_epik_Tot_Q>
0

> <i_epik_Tot_abs_Q>
0

$$$$
