2zx5_ligand
                    3D
 Schrodinger Suite 2020-3.
 51 53  0  0  1  0            999 V2000
   -4.8310   27.3170   29.2230 C   0  0  0  0  0  0
   -4.6060   27.8180   27.9450 C   0  0  0  0  0  0
   -5.5490   27.6040   26.9460 C   0  0  0  0  0  0
   -6.7130   26.8940   27.2200 C   0  0  0  0  0  0
   -6.9370   26.3970   28.4990 C   0  0  0  0  0  0
   -5.9940   26.6100   29.4990 C   0  0  0  0  0  0
   -5.9350   26.2430   30.7770 N   0  3  0  0  0  0
   -4.7990   26.6780   31.3190 C   0  0  0  0  0  0
   -4.0940   27.3350   30.4020 C   0  0  0  0  0  0
   -2.7100   27.9510   30.6040 C   0  0  0  0  0  0
   -1.6340   26.8640   30.5820 C   0  0  0  0  0  0
   -1.6930   26.0310   29.2980 C   0  0  0  0  0  0
   -1.8070   24.8080   29.3570 O   0  0  0  0  0  0
   -1.6040   26.7010   28.1520 N   0  0  0  0  0  0
   -1.6410   26.0200   26.8490 C   0  0  0  0  0  0
   -1.4040   27.0300   25.7230 C   0  0  1  0  0  0
    0.0300   27.3410   25.6130 N   0  3  0  0  0  0
    0.2420   28.4320   24.6470 C   0  0  1  0  0  0
    1.7310   28.7740   24.6030 C   0  0  0  0  0  0
   -0.2690   28.0510   23.2530 C   0  0  1  0  0  0
    0.5370   27.0070   22.6980 O   0  0  0  0  0  0
   -1.7240   27.5840   23.3100 C   0  0  1  0  0  0
   -2.0950   27.0690   22.0290 O   0  0  0  0  0  0
   -1.8760   26.4890   24.3710 C   0  0  2  0  0  0
   -3.2430   26.0790   24.4590 O   0  0  0  0  0  0
   -3.6949   28.3756   27.7278 H   0  0  0  0  0  0
   -5.3752   27.9945   25.9433 H   0  0  0  0  0  0
   -7.4487   26.7274   26.4331 H   0  0  0  0  0  0
   -7.8492   25.8419   28.7175 H   0  0  0  0  0  0
   -4.4069   26.5703   32.3411 H   0  0  0  0  0  0
   -2.5080   28.6713   29.7975 H   0  0  0  0  0  0
   -2.6769   28.4682   31.5743 H   0  0  0  0  0  0
   -0.6400   27.3308   30.6454 H   0  0  0  0  0  0
   -1.7773   26.1888   31.4385 H   0  0  0  0  0  0
   -1.5002   27.7951   28.1980 H   0  0  0  0  0  0
   -0.8562   25.2499   26.8153 H   0  0  0  0  0  0
   -2.6246   25.5475   26.7100 H   0  0  0  0  0  0
   -1.9446   27.9546   25.9735 H   0  0  0  0  0  0
    0.4144   27.6511   26.5959 H   0  0  0  0  0  0
    0.5738   26.4478   25.2718 H   0  0  0  0  0  0
   -0.3413   29.2925   25.0064 H   0  0  0  0  0  0
    2.0752   29.0438   25.6123 H   0  0  0  0  0  0
    1.8924   29.6223   23.9216 H   0  0  0  0  0  0
    2.2970   27.9020   24.2434 H   0  0  0  0  0  0
   -0.1642   28.9090   22.5727 H   0  0  0  0  0  0
    1.6201   27.1546   22.5752 H   0  0  0  0  0  0
   -2.4072   28.4219   23.5131 H   0  0  0  0  0  0
   -2.0488   27.7170   21.1413 H   0  0  0  0  0  0
   -1.3248   25.5795   24.0898 H   0  0  0  0  0  0
   -3.5375   25.2963   25.1735 H   0  0  0  0  0  0
   -6.7590   25.6661   31.2222 H   0  0  0  0  0  0
  1  2  2  0  0  0
  1  6  1  0  0  0
  1  9  1  0  0  0
  2  3  1  0  0  0
  2 26  1  0  0  0
  3  4  2  0  0  0
  3 27  1  0  0  0
  4  5  1  0  0  0
  4 28  1  0  0  0
  5  6  2  0  0  0
  5 29  1  0  0  0
  6  7  1  0  0  0
  7  8  1  0  0  0
  7 51  1  0  0  0
  8  9  2  0  0  0
  8 30  1  0  0  0
  9 10  1  0  0  0
 10 11  1  0  0  0
 10 31  1  0  0  0
 10 32  1  0  0  0
 11 12  1  0  0  0
 11 33  1  0  0  0
 11 34  1  0  0  0
 12 13  2  0  0  0
 12 14  1  0  0  0
 14 15  1  0  0  0
 14 35  1  0  0  0
 15 16  1  0  0  0
 15 36  1  0  0  0
 15 37  1  0  0  0
 16 17  1  0  0  0
 16 24  1  0  0  0
 16 38  1  0  0  0
 17 18  1  0  0  0
 17 39  1  0  0  0
 17 40  1  0  0  0
 18 19  1  0  0  0
 18 20  1  0  0  0
 18 41  1  0  0  0
 19 42  1  0  0  0
 19 43  1  0  0  0
 19 44  1  0  0  0
 20 21  1  0  0  0
 20 22  1  0  0  0
 20 45  1  0  0  0
 21 46  1  0  0  0
 22 23  1  0  0  0
 22 24  1  0  0  0
 22 47  1  0  0  0
 23 48  1  0  0  0
 24 25  1  0  0  0
 24 49  1  0  0  0
 25 50  1  0  0  0
M  CHG  2   7   1  17   1
M  END
> <s_m_source_file>
../2zx5_ligand.sdf

> <i_m_source_file_index>
1

> <s_epik_input>
W2NIXTFbY0hdW2NIXVtjSF1jKGMxMilbbkhdW2NIXWMyW0NIMl1bQ0gyXUMoPU8pW05IXVtDSDJdW0NASF0zW05IMitdW0NAQEhdKFtDSDNdKVtDQEBIXShbT0hdKVtDQEBIXShbT0hdKVtDQEBIXTNbT0hd

> <s_epik_cmdline>
J2VwaWtfYXBwJywgJy1pbWFlJywgJ2xpZ2FuZF9wcm8ubWFlJywgJy1vbWFlJywgJ2xpZ2FuZF9wcmVwLm1hZScsICctbXMnLCAnMScsICctcGgnLCAnNycsICctcGh0JywgJzAuNScsICctbnQn

> <r_epik_Ionization_Penalty>
  0.0096

> <r_epik_Ionization_Penalty_Charging>
  0.0096

> <r_epik_Ionization_Penalty_Neutral>
  0.0000

> <r_epik_State_Penalty>
  0.0073

> <r_epik_Charging_Adjusted_Penalty>
0.0168161415280374

> <i_epik_Tot_Q>
2

> <i_epik_Tot_abs_Q>
2

$$$$
