2zx7_ligand
                    3D
 Schrodinger Suite 2020-3.
 44 46  0  0  1  0            999 V2000
   -3.2430   25.8470   24.3060 O   0  0  0  0  0  0
   -1.9120   26.3630   24.3570 C   0  0  1  0  0  0
   -1.7970   27.5880   23.4480 C   0  0  2  0  0  0
   -2.2300   27.2390   22.1340 O   0  0  0  0  0  0
   -0.3380   28.0440   23.4370 C   0  0  2  0  0  0
    0.4580   27.0320   22.8150 O   0  0  0  0  0  0
    0.1500   28.3030   24.8680 C   0  0  2  0  0  0
    1.6530   28.5840   24.8770 C   0  0  0  0  0  0
   -0.1070   27.1590   25.7590 N   0  3  0  0  0  0
   -1.5280   26.7730   25.7820 C   0  0  2  0  0  0
   -1.7330   25.5940   26.7360 C   0  0  0  0  0  0
   -1.6190   25.9790   28.1510 N   0  0  0  0  0  0
   -1.4190   25.0280   29.0620 C   0  0  0  0  0  0
   -1.2690   23.8370   28.7850 O   0  0  0  0  0  0
   -1.3280   25.4520   30.5310 C   0  0  0  0  0  0
   -1.7870   24.6740   31.5050 C   0  0  0  0  0  0
   -1.5800   25.3220   32.6470 C   0  0  0  0  0  0
   -1.9100   25.0050   33.9600 C   0  0  0  0  0  0
   -1.6150   25.9060   34.9770 C   0  0  0  0  0  0
   -0.9870   27.1070   34.6600 C   0  0  0  0  0  0
   -0.6540   27.4250   33.3460 C   0  0  0  0  0  0
   -0.9600   26.5270   32.3300 C   0  0  0  0  0  0
   -0.8230   26.5860   31.0080 N   0  0  0  0  0  0
   -3.6655   25.5089   23.3483 H   0  0  0  0  0  0
   -1.2894   25.5256   24.0090 H   0  0  0  0  0  0
   -2.4646   28.4073   23.7529 H   0  0  0  0  0  0
   -3.2597   26.8891   21.9690 H   0  0  0  0  0  0
   -0.2072   28.9479   22.8239 H   0  0  0  0  0  0
    0.2439   26.7216   21.7817 H   0  0  0  0  0  0
   -0.4233   29.1516   25.2696 H   0  0  0  0  0  0
    1.8705   29.4367   24.2170 H   0  0  0  0  0  0
    2.1942   27.6958   24.5190 H   0  0  0  0  0  0
    1.9754   28.8217   25.9015 H   0  0  0  0  0  0
    0.4752   26.2904   25.4177 H   0  0  0  0  0  0
    0.1907   27.4195   26.7854 H   0  0  0  0  0  0
   -2.1208   27.6301   26.1340 H   0  0  0  0  0  0
   -2.7360   25.1689   26.5833 H   0  0  0  0  0  0
   -0.9739   24.8236   26.5353 H   0  0  0  0  0  0
   -1.6990   27.0370   28.4413 H   0  0  0  0  0  0
   -2.2321   23.6971   31.2651 H   0  0  0  0  0  0
   -2.4008   24.0473   34.1879 H   0  0  0  0  0  0
   -1.8721   25.6789   36.0221 H   0  0  0  0  0  0
   -0.7440   27.8272   35.4551 H   0  0  0  0  0  0
   -0.1585   28.3683   33.1164 H   0  0  0  0  0  0
  1  2  1  0  0  0
  1 24  1  0  0  0
  2  3  1  0  0  0
  2 10  1  0  0  0
  2 25  1  0  0  0
  3  4  1  0  0  0
  3  5  1  0  0  0
  3 26  1  0  0  0
  4 27  1  0  0  0
  5  6  1  0  0  0
  5  7  1  0  0  0
  5 28  1  0  0  0
  6 29  1  0  0  0
  7  8  1  0  0  0
  7  9  1  0  0  0
  7 30  1  0  0  0
  8 31  1  0  0  0
  8 32  1  0  0  0
  8 33  1  0  0  0
  9 10  1  0  0  0
  9 34  1  0  0  0
  9 35  1  0  0  0
 10 11  1  0  0  0
 10 36  1  0  0  0
 11 12  1  0  0  0
 11 37  1  0  0  0
 11 38  1  0  0  0
 12 13  1  0  0  0
 12 39  1  0  0  0
 13 14  2  0  0  0
 13 15  1  0  0  0
 15 16  2  0  0  0
 15 23  1  0  0  0
 16 17  1  0  0  0
 16 40  1  0  0  0
 17 18  2  0  0  0
 17 22  1  0  0  0
 18 19  1  0  0  0
 18 41  1  0  0  0
 19 20  2  0  0  0
 19 42  1  0  0  0
 20 21  1  0  0  0
 20 43  1  0  0  0
 21 22  1  0  0  0
 21 44  1  0  0  0
 22 23  2  0  0  0
M  CHG  1   9   1
M  END
> <s_m_source_file>
../2zx7_ligand.sdf

> <i_m_source_file_index>
1

> <s_epik_input>
W09IXVtDQEhdMVtDQEhdKFtPSF0pW0NASF0oW09IXSlbQ0BIXShbQ0gzXSlbTkgyK11bQ0BASF0xW0NIMl1bTkhdQyg9TylDKD1bQ0hdMilOPUMoQzI9MylbQ0gyXVtDSF09W0NIXVtDSF0z

> <s_epik_cmdline>
J2VwaWtfYXBwJywgJy1pbWFlJywgJ2xpZ2FuZF9wcm8ubWFlJywgJy1vbWFlJywgJ2xpZ2FuZF9wcmVwLm1hZScsICctbXMnLCAnMScsICctcGgnLCAnNycsICctcGh0JywgJzAuNScsICctbnQn

> <r_epik_Ionization_Penalty>
  0.0387

> <r_epik_Ionization_Penalty_Charging>
  0.0339

> <r_epik_Ionization_Penalty_Neutral>
  0.0048

> <r_epik_State_Penalty>
  0.0282

> <r_epik_Charging_Adjusted_Penalty>
0.062036056175435

> <i_epik_Tot_Q>
1

> <i_epik_Tot_abs_Q>
1

> <s_epik_Chemistry_Notes>
This compound has an imine and may undergo hydrolysis.

$$$$
