2zx8_ligand
                    3D
 Schrodinger Suite 2020-3.
 44 46  0  0  1  0            999 V2000
   -1.0110   27.0880   30.9920 C   0  0  0  0  0  0
   -0.2210   27.3300   32.0420 C   0  0  0  0  0  0
    0.1010   28.4980   32.7090 C   0  0  0  0  0  0
    1.0770   28.4830   33.7060 C   0  0  0  0  0  0
    1.7270   27.3020   34.0400 C   0  0  0  0  0  0
    1.4020   26.1220   33.3780 C   0  0  0  0  0  0
    0.4330   26.1440   32.3830 C   0  0  0  0  0  0
    0.0060   25.1920   31.5070 O   0  0  0  0  0  0
   -0.8630   25.8110   30.6530 C   0  0  0  0  0  0
   -1.1930   25.1980   29.2910 C   0  0  0  0  0  0
   -1.2210   23.9800   29.1710 O   0  0  0  0  0  0
   -1.3620   26.0660   28.2850 N   0  0  0  0  0  0
   -1.6510   25.6320   26.9130 C   0  0  0  0  0  0
   -1.4120   26.7710   25.9140 C   0  0  1  0  0  0
    0.0100   27.1510   25.8760 N   0  3  0  0  0  0
    0.2220   28.2920   24.9680 C   0  0  1  0  0  0
    1.7020   28.6690   24.9890 C   0  0  0  0  0  0
   -0.2500   28.0050   23.5350 C   0  0  1  0  0  0
    0.5010   26.9290   22.9610 O   0  0  0  0  0  0
   -1.7200   27.5870   23.5810 C   0  0  1  0  0  0
   -2.2080   27.2450   22.2820 O   0  0  0  0  0  0
   -1.8300   26.3670   24.4970 C   0  0  2  0  0  0
   -3.1770   25.8940   24.4780 O   0  0  0  0  0  0
   -1.6622   27.8104   30.4999 H   0  0  0  0  0  0
   -0.4069   29.4287   32.4562 H   0  0  0  0  0  0
    1.3314   29.4059   34.2271 H   0  0  0  0  0  0
    2.4897   27.2994   34.8187 H   0  0  0  0  0  0
    1.9030   25.1894   33.6377 H   0  0  0  0  0  0
   -1.2771   27.1380   28.5164 H   0  0  0  0  0  0
   -0.9958   24.7886   26.6495 H   0  0  0  0  0  0
   -2.7022   25.3157   26.8422 H   0  0  0  0  0  0
   -1.9865   27.6443   26.2564 H   0  0  0  0  0  0
    0.3407   27.4351   26.8859 H   0  0  0  0  0  0
    0.6079   26.2989   25.5205 H   0  0  0  0  0  0
   -0.3983   29.1111   25.3608 H   0  0  0  0  0  0
    2.0147   28.8692   26.0244 H   0  0  0  0  0  0
    1.8596   29.5698   24.3777 H   0  0  0  0  0  0
    2.2975   27.8395   24.5800 H   0  0  0  0  0  0
   -0.0723   28.8735   22.8838 H   0  0  0  0  0  0
    1.5897   27.0238   22.8353 H   0  0  0  0  0  0
   -2.3590   28.4253   23.8954 H   0  0  0  0  0  0
   -2.2100   27.9974   21.4795 H   0  0  0  0  0  0
   -1.2264   25.5188   24.1418 H   0  0  0  0  0  0
   -3.4604   25.0167   25.0781 H   0  0  0  0  0  0
  1  2  1  0  0  0
  1  9  2  0  0  0
  1 24  1  0  0  0
  2  3  2  0  0  0
  2  7  1  0  0  0
  3  4  1  0  0  0
  3 25  1  0  0  0
  4  5  2  0  0  0
  4 26  1  0  0  0
  5  6  1  0  0  0
  5 27  1  0  0  0
  6  7  2  0  0  0
  6 28  1  0  0  0
  7  8  1  0  0  0
  8  9  1  0  0  0
  9 10  1  0  0  0
 10 11  2  0  0  0
 10 12  1  0  0  0
 12 13  1  0  0  0
 12 29  1  0  0  0
 13 14  1  0  0  0
 13 30  1  0  0  0
 13 31  1  0  0  0
 14 15  1  0  0  0
 14 22  1  0  0  0
 14 32  1  0  0  0
 15 16  1  0  0  0
 15 33  1  0  0  0
 15 34  1  0  0  0
 16 17  1  0  0  0
 16 18  1  0  0  0
 16 35  1  0  0  0
 17 36  1  0  0  0
 17 37  1  0  0  0
 17 38  1  0  0  0
 18 19  1  0  0  0
 18 20  1  0  0  0
 18 39  1  0  0  0
 19 40  1  0  0  0
 20 21  1  0  0  0
 20 22  1  0  0  0
 20 41  1  0  0  0
 21 42  1  0  0  0
 22 23  1  0  0  0
 22 43  1  0  0  0
 23 44  1  0  0  0
M  CHG  1  15   1
M  END
> <s_m_source_file>
../2zx8_ligand.sdf

> <i_m_source_file_index>
1

> <s_epik_input>
W2NIXTFbY0hdW2NIXVtjSF1jKGMxMilvYyhbY0hdMilDKD1PKVtOSF1bQ0gyXVtDQEhdM1tOSDIrXVtDQEBIXShbQ0gzXSlbQ0BASF0oW09IXSlbQ0BASF0oW09IXSlbQ0BASF0zW09IXQ==

> <s_epik_cmdline>
J2VwaWtfYXBwJywgJy1pbWFlJywgJ2xpZ2FuZF9wcm8ubWFlJywgJy1vbWFlJywgJ2xpZ2FuZF9wcmVwLm1hZScsICctbXMnLCAnMScsICctcGgnLCAnNycsICctcGh0JywgJzAuNScsICctbnQn

> <r_epik_Ionization_Penalty>
  0.0099

> <r_epik_Ionization_Penalty_Charging>
  0.0099

> <r_epik_Ionization_Penalty_Neutral>
  0.0000

> <r_epik_State_Penalty>
  0.0075

> <r_epik_Charging_Adjusted_Penalty>
0.0174114292059713

> <i_epik_Tot_Q>
1

> <i_epik_Tot_abs_Q>
1

$$$$
