2zx9_ligand
                    3D
 Schrodinger Suite 2020-3.
 57 59  0  0  1  0            999 V2000
   -0.7880   26.9120   31.4170 C   0  0  0  0  0  0
   -0.0850   26.6860   32.5930 C   0  0  0  0  0  0
   -0.7970   26.2960   33.7240 C   0  0  0  0  0  0
   -2.1790   26.1370   33.6820 C   0  0  0  0  0  0
   -2.8770   26.3640   32.5010 C   0  0  0  0  0  0
   -2.1680   26.7500   31.3690 C   0  0  0  0  0  0
   -2.8270   26.9350   30.0040 C   0  0  2  0  0  0
   -4.3360   26.7210   29.8560 C   0  0  0  0  0  0
   -5.2810   27.9160   29.9550 C   0  0  0  0  0  0
   -6.5460   27.1640   29.5330 C   0  0  0  0  0  0
   -6.5070   25.9090   30.4130 C   0  0  0  0  0  0
   -5.0230   25.6560   30.7130 C   0  0  0  0  0  0
   -2.1160   26.0010   29.0270 C   0  0  0  0  0  0
   -1.8340   24.8440   29.3400 O   0  0  0  0  0  0
   -1.8200   26.5850   27.8730 N   0  0  0  0  0  0
   -1.1450   25.8900   26.7740 C   0  0  0  0  0  0
   -1.0710   26.9010   25.6320 C   0  0  1  0  0  0
    0.3310   27.3050   25.4450 N   0  3  0  0  0  0
    0.3860   28.3770   24.4390 C   0  0  1  0  0  0
    1.8290   28.8570   24.2830 C   0  0  0  0  0  0
   -0.1850   27.8990   23.0990 C   0  0  1  0  0  0
    0.6130   26.8290   22.5830 O   0  0  0  0  0  0
   -1.6210   27.4020   23.2690 C   0  0  1  0  0  0
   -2.1020   26.8640   22.0360 O   0  0  0  0  0  0
   -1.6280   26.3060   24.3340 C   0  0  2  0  0  0
   -2.9670   25.8350   24.5180 O   0  0  0  0  0  0
   -0.2510   27.2204   30.5200 H   0  0  0  0  0  0
    0.9972   26.8108   32.6297 H   0  0  0  0  0  0
   -0.2639   26.1123   34.6568 H   0  0  0  0  0  0
   -2.7171   25.8329   34.5798 H   0  0  0  0  0  0
   -3.9595   26.2417   32.4634 H   0  0  0  0  0  0
   -2.7147   28.0119   29.8101 H   0  0  0  0  0  0
   -4.2197   26.3956   28.8117 H   0  0  0  0  0  0
   -5.2783   28.3012   30.9853 H   0  0  0  0  0  0
   -4.9460   28.7064   29.2672 H   0  0  0  0  0  0
   -7.4280   27.7915   29.7286 H   0  0  0  0  0  0
   -6.4929   26.9306   28.4594 H   0  0  0  0  0  0
   -7.0759   26.0911   31.3367 H   0  0  0  0  0  0
   -6.9539   25.0647   29.8676 H   0  0  0  0  0  0
   -4.6847   24.6578   30.3982 H   0  0  0  0  0  0
   -4.7651   25.8139   31.7706 H   0  0  0  0  0  0
   -2.1060   27.6414   27.7625 H   0  0  0  0  0  0
   -0.1414   25.5783   27.0988 H   0  0  0  0  0  0
   -1.7294   25.0034   26.4870 H   0  0  0  0  0  0
   -1.6485   27.8013   25.8889 H   0  0  0  0  0  0
    0.7382   27.6690   26.3998 H   0  0  0  0  0  0
    0.9188   26.4411   25.1013 H   0  0  0  0  0  0
   -0.2413   29.1986   24.8152 H   0  0  0  0  0  0
    2.2111   29.1930   25.2582 H   0  0  0  0  0  0
    1.8622   29.6927   23.5685 H   0  0  0  0  0  0
    2.4520   28.0307   23.9100 H   0  0  0  0  0  0
   -0.1351   28.7106   22.3582 H   0  0  0  0  0  0
    1.6844   26.9859   22.3892 H   0  0  0  0  0  0
   -2.3077   28.2257   23.5139 H   0  0  0  0  0  0
   -2.1705   27.5059   21.1454 H   0  0  0  0  0  0
   -1.0613   25.4139   24.0291 H   0  0  0  0  0  0
   -3.1747   25.0398   25.2491 H   0  0  0  0  0  0
  1  2  2  0  0  0
  1  6  1  0  0  0
  1 27  1  0  0  0
  2  3  1  0  0  0
  2 28  1  0  0  0
  3  4  2  0  0  0
  3 29  1  0  0  0
  4  5  1  0  0  0
  4 30  1  0  0  0
  5  6  2  0  0  0
  5 31  1  0  0  0
  6  7  1  0  0  0
  7  8  1  0  0  0
  7 13  1  0  0  0
  7 32  1  0  0  0
  8  9  1  0  0  0
  8 12  1  0  0  0
  8 33  1  0  0  0
  9 10  1  0  0  0
  9 34  1  0  0  0
  9 35  1  0  0  0
 10 11  1  0  0  0
 10 36  1  0  0  0
 10 37  1  0  0  0
 11 12  1  0  0  0
 11 38  1  0  0  0
 11 39  1  0  0  0
 12 40  1  0  0  0
 12 41  1  0  0  0
 13 14  2  0  0  0
 13 15  1  0  0  0
 15 16  1  0  0  0
 15 42  1  0  0  0
 16 17  1  0  0  0
 16 43  1  0  0  0
 16 44  1  0  0  0
 17 18  1  0  0  0
 17 25  1  0  0  0
 17 45  1  0  0  0
 18 19  1  0  0  0
 18 46  1  0  0  0
 18 47  1  0  0  0
 19 20  1  0  0  0
 19 21  1  0  0  0
 19 48  1  0  0  0
 20 49  1  0  0  0
 20 50  1  0  0  0
 20 51  1  0  0  0
 21 22  1  0  0  0
 21 23  1  0  0  0
 21 52  1  0  0  0
 22 53  1  0  0  0
 23 24  1  0  0  0
 23 25  1  0  0  0
 23 54  1  0  0  0
 24 55  1  0  0  0
 25 26  1  0  0  0
 25 56  1  0  0  0
 26 57  1  0  0  0
M  CHG  1  18   1
M  END
> <s_m_source_file>
../2zx9_ligand.sdf

> <i_m_source_file_index>
1

> <s_epik_input>
W2NIXTFbY0hdW2NIXVtjSF1bY0hdYzFbQ0BIXShbQ0hdMltDSDJdW0NIMl1bQ0gyXVtDSDJdMilDKD1PKVtOSF1bQ0gyXVtDQEhdM1tOSDIrXVtDQEBIXShbQ0gzXSlbQ0BASF0oW09IXSlbQ0BASF0oW09IXSlbQ0BASF0zW09IXQ==

> <s_epik_cmdline>
J2VwaWtfYXBwJywgJy1pbWFlJywgJ2xpZ2FuZF9wcm8ubWFlJywgJy1vbWFlJywgJ2xpZ2FuZF9wcmVwLm1hZScsICctbXMnLCAnMScsICctcGgnLCAnNycsICctcGh0JywgJzAuNScsICctbnQn

> <r_epik_Ionization_Penalty>
  0.0097

> <r_epik_Ionization_Penalty_Charging>
  0.0097

> <r_epik_Ionization_Penalty_Neutral>
  0.0000

> <r_epik_State_Penalty>
  0.0074

> <r_epik_Charging_Adjusted_Penalty>
0.017120396272069

> <i_epik_Tot_Q>
1

> <i_epik_Tot_abs_Q>
1

$$$$
