2zxa_ligand
                    3D
 Schrodinger Suite 2020-3.
 34 34  0  0  1  0            999 V2000
   -1.7240   27.5490   30.6290 C   0  0  0  0  0  0
   -1.8180   26.5340   29.4880 C   0  0  0  0  0  0
   -2.0170   25.3470   29.7370 O   0  0  0  0  0  0
   -1.6370   27.0190   28.2630 N   0  0  0  0  0  0
   -1.6920   26.1940   27.0460 C   0  0  0  0  0  0
   -1.3680   27.0890   25.8470 C   0  0  1  0  0  0
    0.0770   27.3700   25.7690 N   0  3  0  0  0  0
    0.3170   28.4330   24.7770 C   0  0  1  0  0  0
    1.8100   28.7510   24.6800 C   0  0  0  0  0  0
   -0.2240   28.0720   23.3880 C   0  0  1  0  0  0
    0.5760   27.0630   22.7670 O   0  0  0  0  0  0
   -1.6710   27.5860   23.4720 C   0  0  1  0  0  0
   -2.0780   27.0950   22.1970 O   0  0  0  0  0  0
   -1.7510   26.4610   24.5050 C   0  0  2  0  0  0
   -3.0880   25.9600   24.5090 O   0  0  0  0  0  0
   -1.8893   27.0379   31.5889 H   0  0  0  0  0  0
   -2.4891   28.3272   30.4914 H   0  0  0  0  0  0
   -0.7260   28.0116   30.6269 H   0  0  0  0  0  0
   -1.4373   28.0981   28.1874 H   0  0  0  0  0  0
   -0.9552   25.3806   27.1208 H   0  0  0  0  0  0
   -2.6999   25.7669   26.9378 H   0  0  0  0  0  0
   -1.9234   28.0238   26.0133 H   0  0  0  0  0  0
    0.4403   27.6984   26.7540 H   0  0  0  0  0  0
    0.6121   26.4579   25.4662 H   0  0  0  0  0  0
   -0.2404   29.2989   25.1637 H   0  0  0  0  0  0
    2.1954   29.0095   25.6773 H   0  0  0  0  0  0
    1.9604   29.6003   23.9973 H   0  0  0  0  0  0
    2.3479   27.8719   24.2956 H   0  0  0  0  0  0
   -0.1420   28.9490   22.7291 H   0  0  0  0  0  0
    1.6529   27.2299   22.6169 H   0  0  0  0  0  0
   -2.3666   28.4048   23.7082 H   0  0  0  0  0  0
   -2.0852   27.7665   21.3257 H   0  0  0  0  0  0
   -1.1342   25.5774   24.2841 H   0  0  0  0  0  0
   -3.3656   25.1388   25.1862 H   0  0  0  0  0  0
  1  2  1  0  0  0
  1 16  1  0  0  0
  1 17  1  0  0  0
  1 18  1  0  0  0
  2  3  2  0  0  0
  2  4  1  0  0  0
  4  5  1  0  0  0
  4 19  1  0  0  0
  5  6  1  0  0  0
  5 20  1  0  0  0
  5 21  1  0  0  0
  6  7  1  0  0  0
  6 14  1  0  0  0
  6 22  1  0  0  0
  7  8  1  0  0  0
  7 23  1  0  0  0
  7 24  1  0  0  0
  8  9  1  0  0  0
  8 10  1  0  0  0
  8 25  1  0  0  0
  9 26  1  0  0  0
  9 27  1  0  0  0
  9 28  1  0  0  0
 10 11  1  0  0  0
 10 12  1  0  0  0
 10 29  1  0  0  0
 11 30  1  0  0  0
 12 13  1  0  0  0
 12 14  1  0  0  0
 12 31  1  0  0  0
 13 32  1  0  0  0
 14 15  1  0  0  0
 14 33  1  0  0  0
 15 34  1  0  0  0
M  CHG  1   7   1
M  END
> <s_m_source_file>
../2zxa_ligand.sdf

> <i_m_source_file_index>
1

> <s_epik_input>
W0NIM11DKD1PKVtOSF1bQ0gyXVtDQEhdMVtOSDIrXVtDQEBIXShbQ0gzXSlbQ0BASF0oW09IXSlbQ0BASF0oW09IXSlbQ0BASF0xW09IXQ==

> <s_epik_cmdline>
J2VwaWtfYXBwJywgJy1pbWFlJywgJ2xpZ2FuZF9wcm8ubWFlJywgJy1vbWFlJywgJ2xpZ2FuZF9wcmVwLm1hZScsICctbXMnLCAnMScsICctcGgnLCAnNycsICctcGh0JywgJzAuNScsICctbnQn

> <r_lp_tautomer_probability>
1

> <r_epik_Ionization_Penalty>
  0.0093

> <r_epik_Ionization_Penalty_Charging>
  0.0093

> <r_epik_Ionization_Penalty_Neutral>
  0.0000

> <r_epik_State_Penalty>
 -0.0000

> <r_epik_Charging_Adjusted_Penalty>
0.00932409948460243

> <i_epik_Tot_Q>
1

> <i_epik_Tot_abs_Q>
1

$$$$
