2zxb_ligand
                    3D
 Schrodinger Suite 2020-3.
 34 35  0  0  1  0            999 V2000
   -4.2660   27.4860   28.8870 C   0  0  0  0  0  0
   -5.6410   27.2930   29.0070 C   0  0  0  0  0  0
   -6.4280   27.1420   27.8660 C   0  0  0  0  0  0
   -5.8410   27.1860   26.5990 C   0  0  0  0  0  0
   -4.4650   27.3870   26.4770 C   0  0  0  0  0  0
   -3.6810   27.5410   27.6220 C   0  0  0  0  0  0
   -2.1820   27.8590   27.5220 C   0  0  0  0  0  0
   -1.4720   27.3490   26.2580 C   0  0  2  0  0  0
   -0.1710   28.0480   26.2380 N   0  3  0  0  0  0
    0.6340   27.5940   25.0940 C   0  0  0  0  0  0
   -0.0490   28.0930   23.8220 C   0  0  1  0  0  0
    0.6490   27.5630   22.6920 O   0  0  0  0  0  0
   -1.4640   27.5300   23.7200 C   0  0  2  0  0  0
   -2.0590   28.3240   22.6870 O   0  0  0  0  0  0
   -2.2320   27.8180   25.0140 C   0  0  2  0  0  0
   -2.3250   29.2470   25.1400 O   0  0  0  0  0  0
   -3.6494   27.5937   29.7793 H   0  0  0  0  0  0
   -6.1018   27.2601   29.9942 H   0  0  0  0  0  0
   -7.5029   26.9894   27.9627 H   0  0  0  0  0  0
   -6.4562   27.0636   25.7076 H   0  0  0  0  0  0
   -4.0037   27.4236   25.4901 H   0  0  0  0  0  0
   -2.0367   28.9493   27.5369 H   0  0  0  0  0  0
   -1.6536   27.4070   28.3743 H   0  0  0  0  0  0
   -1.3618   26.2545   26.2580 H   0  0  0  0  0  0
   -0.3384   29.1318   26.1521 H   0  0  0  0  0  0
    0.3746   27.8339   27.1688 H   0  0  0  0  0  0
    1.6495   28.0095   25.1723 H   0  0  0  0  0  0
    0.6863   26.4952   25.0955 H   0  0  0  0  0  0
   -0.0255   29.1924   23.7944 H   0  0  0  0  0  0
    1.7061   27.8196   22.5286 H   0  0  0  0  0  0
   -1.4979   26.4564   23.4831 H   0  0  0  0  0  0
   -1.6645   28.2773   21.6612 H   0  0  0  0  0  0
   -3.2270   27.3520   24.9613 H   0  0  0  0  0  0
   -2.8412   29.6905   26.0042 H   0  0  0  0  0  0
  1  2  2  0  0  0
  1  6  1  0  0  0
  1 17  1  0  0  0
  2  3  1  0  0  0
  2 18  1  0  0  0
  3  4  2  0  0  0
  3 19  1  0  0  0
  4  5  1  0  0  0
  4 20  1  0  0  0
  5  6  2  0  0  0
  5 21  1  0  0  0
  6  7  1  0  0  0
  7  8  1  0  0  0
  7 22  1  0  0  0
  7 23  1  0  0  0
  8  9  1  0  0  0
  8 15  1  0  0  0
  8 24  1  0  0  0
  9 10  1  0  0  0
  9 25  1  0  0  0
  9 26  1  0  0  0
 10 11  1  0  0  0
 10 27  1  0  0  0
 10 28  1  0  0  0
 11 12  1  0  0  0
 11 13  1  0  0  0
 11 29  1  0  0  0
 12 30  1  0  0  0
 13 14  1  0  0  0
 13 15  1  0  0  0
 13 31  1  0  0  0
 14 32  1  0  0  0
 15 16  1  0  0  0
 15 33  1  0  0  0
 16 34  1  0  0  0
M  CHG  1   9   1
M  END
> <s_m_source_file>
../2zxb_ligand.sdf

> <i_m_source_file_index>
1

> <s_epik_input>
W2NIXTFbY0hdW2NIXVtjSF1bY0hdYzFbQ0gyXVtDQEBIXTJbTkgyK11bQ0gyXVtDQEBIXShbT0hdKVtDQEhdKFtPSF0pW0NAQEhdMltPSF0=

> <s_epik_cmdline>
J2VwaWtfYXBwJywgJy1pbWFlJywgJ2xpZ2FuZF9wcm8ubWFlJywgJy1vbWFlJywgJ2xpZ2FuZF9wcmVwLm1hZScsICctbXMnLCAnMScsICctcGgnLCAnNycsICctcGh0JywgJzAuNScsICctbnQn

> <r_epik_Ionization_Penalty>
  0.0095

> <r_epik_Ionization_Penalty_Charging>
  0.0095

> <r_epik_Ionization_Penalty_Neutral>
  0.0000

> <r_epik_State_Penalty>
  0.0072

> <r_epik_Charging_Adjusted_Penalty>
0.0167892240241414

> <i_epik_Tot_Q>
1

> <i_epik_Tot_abs_Q>
1

$$$$
