2zyb_ligand
                    3D
 Schrodinger Suite 2020-3.
 42 45  0  0  1  0            999 V2000
   19.1860   35.3390    8.7970 C   0  0  0  0  0  0
   19.0140   36.2140    7.5540 C   0  0  0  0  0  0
   17.9860   35.9450    6.6540 C   0  0  0  0  0  0
   17.8040   36.7030    5.4940 C   0  0  0  0  0  0
   18.7660   37.6420    5.1120 C   0  0  0  0  0  0
   20.0060   37.2610    7.2400 C   0  0  0  0  0  0
   19.8370   37.9920    5.9710 C   0  0  0  0  0  0
   20.8120   39.0920    5.6440 C   0  0  0  0  0  0
   21.0820   37.5430    8.0460 N   0  0  0  0  0  0
   22.3750   37.0680    7.8750 C   0  0  0  0  0  0
   23.5120   37.6410    8.6450 C   0  0  0  0  0  0
   23.6050   38.6800    9.6410 C   0  0  0  0  0  0
   24.8940   38.7240   10.0370 N   0  0  0  0  0  0
   25.5680   37.7770    9.3500 C   0  0  0  0  0  0
   24.7240   37.0990    8.5400 N   0  0  0  0  0  0
   24.9360   36.0710    7.6760 C   0  0  0  0  0  0
   23.8800   35.5540    6.9260 C   0  0  0  0  0  0
   22.6360   36.0180    7.0820 N   0  0  0  0  0  0
   26.2850   35.4400    7.5310 C   0  0  0  0  0  0
   27.2140   35.5330    8.5440 C   0  0  0  0  0  0
   28.4350   34.8690    8.4430 C   0  0  0  0  0  0
   28.7650   34.2090    7.2500 C   0  0  0  0  0  0
   27.8450   34.1120    6.2430 C   0  0  0  0  0  0
   26.5860   34.7010    6.3960 C   0  0  0  0  0  0
   18.3530   34.6234    8.8598 H   0  0  0  0  0  0
   19.1919   35.9745    9.6948 H   0  0  0  0  0  0
   20.1368   34.7899    8.7302 H   0  0  0  0  0  0
   17.3041   35.1200    6.8600 H   0  0  0  0  0  0
   16.9103   36.5616    4.8862 H   0  0  0  0  0  0
   18.6908   38.1150    4.1328 H   0  0  0  0  0  0
   20.5519   39.5353    4.6715 H   0  0  0  0  0  0
   21.8300   38.6778    5.5977 H   0  0  0  0  0  0
   20.7663   39.8663    6.4240 H   0  0  0  0  0  0
   20.9578   38.2005    8.9191 H   0  0  0  0  0  0
   22.7913   39.3081   10.0036 H   0  0  0  0  0  0
   26.6378   37.5866    9.4360 H   0  0  0  0  0  0
   24.0715   34.7611    6.2030 H   0  0  0  0  0  0
   26.9928   36.1292    9.4293 H   0  0  0  0  0  0
   29.1281   34.8625    9.2843 H   0  0  0  0  0  0
   29.7562   33.7729    7.1255 H   0  0  0  0  0  0
   28.0919   33.5781    5.3254 H   0  0  0  0  0  0
   25.8342   34.5784    5.6164 H   0  0  0  0  0  0
  1  2  1  0  0  0
  1 25  1  0  0  0
  1 26  1  0  0  0
  1 27  1  0  0  0
  2  3  2  0  0  0
  2  6  1  0  0  0
  3  4  1  0  0  0
  3 28  1  0  0  0
  4  5  2  0  0  0
  4 29  1  0  0  0
  5  7  1  0  0  0
  5 30  1  0  0  0
  6  7  2  0  0  0
  6  9  1  0  0  0
  7  8  1  0  0  0
  8 31  1  0  0  0
  8 32  1  0  0  0
  8 33  1  0  0  0
  9 10  1  0  0  0
  9 34  1  0  0  0
 10 11  1  0  0  0
 10 18  2  0  0  0
 11 12  2  0  0  0
 11 15  1  0  0  0
 12 13  1  0  0  0
 12 35  1  0  0  0
 13 14  2  0  0  0
 14 15  1  0  0  0
 14 36  1  0  0  0
 15 16  1  0  0  0
 16 17  2  0  0  0
 16 19  1  0  0  0
 17 18  1  0  0  0
 17 37  1  0  0  0
 19 20  2  0  0  0
 19 24  1  0  0  0
 20 21  1  0  0  0
 20 38  1  0  0  0
 21 22  2  0  0  0
 21 39  1  0  0  0
 22 23  1  0  0  0
 22 40  1  0  0  0
 23 24  2  0  0  0
 23 41  1  0  0  0
 24 42  1  0  0  0
M  END
> <s_m_source_file>
../2zyb_ligand.sdf

> <i_m_source_file_index>
1

> <s_epik_input>
W0NIM11jMVtjSF1bY0hdW2NIXWMoW0NIM10pYzFbTkhdYzJuW2NIXWMobihjMjMpW2NIXW5bY0hdMyktYzRbY0hdW2NIXVtjSF1bY0hdW2NIXTQ=

> <s_epik_cmdline>
J2VwaWtfYXBwJywgJy1pbWFlJywgJ2xpZ2FuZF9wcm8ubWFlJywgJy1vbWFlJywgJ2xpZ2FuZF9wcmVwLm1hZScsICctbXMnLCAnMScsICctcGgnLCAnNycsICctcGh0JywgJzAuNScsICctbnQn

> <r_epik_Ionization_Penalty>
  0.0187

> <r_epik_Ionization_Penalty_Charging>
  0.0000

> <r_epik_Ionization_Penalty_Neutral>
  0.0187

> <r_epik_State_Penalty>
  0.0147

> <r_epik_Charging_Adjusted_Penalty>
0.0147457262816037

> <i_epik_Tot_Q>
0

> <i_epik_Tot_abs_Q>
0

$$$$
