2zyn_ligand
                    3D
 Schrodinger Suite 2020-3.
147154  0  0  1  0            999 V2000
  -20.8460    7.2990  -31.3000 C   0  0  2  0  0  0
  -22.3320    7.4520  -30.9930 C   0  0  2  0  0  0
  -22.6340    8.7610  -30.5260 O   0  0  0  0  0  0
  -22.7700    6.4590  -29.9360 C   0  0  1  0  0  0
  -24.1630    6.5750  -29.6640 O   0  0  0  0  0  0
  -22.4330    5.0050  -30.3390 C   0  0  2  0  0  0
  -22.8040    4.1600  -29.2790 O   0  0  0  0  0  0
  -20.9270    4.8530  -30.6460 C   0  0  2  0  0  0
  -20.3930    5.9170  -31.5110 O   0  0  0  0  0  0
  -20.6180    3.5210  -31.3160 C   0  0  0  0  0  0
  -19.5740    2.9510  -30.5670 O   0  0  0  0  0  0
  -23.9510    3.3390  -29.5810 C   0  0  2  0  0  0
  -24.8510    3.1700  -28.3750 C   0  0  2  0  0  0
  -25.3580    4.4170  -27.8660 O   0  0  0  0  0  0
  -24.1510    2.3980  -27.2400 C   0  0  1  0  0  0
  -25.0750    2.1870  -26.1700 O   0  0  0  0  0  0
  -23.5370    1.0440  -27.6830 C   0  0  2  0  0  0
  -22.5830    0.7240  -26.6770 O   0  0  0  0  0  0
  -22.7970    1.1670  -29.0970 C   0  0  2  0  0  0
  -23.4190    2.1050  -30.0560 O   0  0  0  0  0  0
  -22.6710   -0.1630  -29.8530 C   0  0  0  0  0  0
  -23.9600   -0.7380  -29.9930 O   0  0  0  0  0  0
  -22.3660   -0.7270  -26.4740 C   0  0  2  0  0  0
  -22.2440   -1.0100  -24.9710 C   0  0  2  0  0  0
  -23.4290   -0.6950  -24.2720 O   0  0  0  0  0  0
  -21.0650   -0.2320  -24.4260 C   0  0  1  0  0  0
  -20.8900   -0.4460  -23.0200 O   0  0  0  0  0  0
  -19.7340   -0.5670  -25.1770 C   0  0  2  0  0  0
  -18.7050    0.2700  -24.6790 O   0  0  0  0  0  0
  -19.9190   -0.3940  -26.7150 C   0  0  2  0  0  0
  -21.1480   -1.0470  -27.1420 O   0  0  0  0  0  0
  -18.7870   -0.9960  -27.5470 C   0  0  0  0  0  0
  -19.0540   -0.8190  -28.9190 O   0  0  0  0  0  0
  -17.4590   -0.3600  -24.4260 C   0  0  2  0  0  0
  -17.1020    0.0070  -22.9680 C   0  0  2  0  0  0
  -18.2460   -0.1160  -22.1040 O   0  0  0  0  0  0
  -16.4990    1.4630  -22.8270 C   0  0  1  0  0  0
  -15.7390    1.5650  -21.6340 O   0  0  0  0  0  0
  -15.5390    1.8560  -23.9720 C   0  0  2  0  0  0
  -15.2360    3.2480  -23.8950 O   0  0  0  0  0  0
  -16.1590    1.5530  -25.3550 C   0  0  2  0  0  0
  -16.5400    0.1670  -25.4570 O   0  0  0  0  0  0
  -15.2080    1.8930  -26.5120 C   0  0  0  0  0  0
  -15.9660    2.0310  -27.6870 O   0  0  0  0  0  0
  -13.9000    3.6020  -23.5390 C   0  0  2  0  0  0
  -13.9660    4.6380  -22.4280 C   0  0  2  0  0  0
  -14.6060    4.1320  -21.2690 O   0  0  0  0  0  0
  -14.6630    5.9110  -22.9190 C   0  0  1  0  0  0
  -14.7570    6.9230  -21.9590 O   0  0  0  0  0  0
  -14.0210    6.4630  -24.2380 C   0  0  2  0  0  0
  -14.8940    7.4340  -24.7500 O   0  0  0  0  0  0
  -13.8780    5.3450  -25.2910 C   0  0  2  0  0  0
  -13.2740    4.1560  -24.7100 O   0  0  0  0  0  0
  -13.0450    5.7430  -26.4890 C   0  0  0  0  0  0
  -13.2750    4.8420  -27.5500 O   0  0  0  0  0  0
  -14.3790    8.7850  -24.6410 C   0  0  2  0  0  0
  -15.5430    9.6930  -24.3310 C   0  0  2  0  0  0
  -16.1930    9.3500  -23.1040 O   0  0  0  0  0  0
  -16.5450    9.7040  -25.4820 C   0  0  1  0  0  0
  -17.6500   10.5330  -25.2730 O   0  0  0  0  0  0
  -15.8980   10.0180  -26.8790 C   0  0  2  0  0  0
  -16.8910    9.6070  -27.8200 O   0  0  0  0  0  0
  -14.6260    9.1420  -27.0800 C   0  0  2  0  0  0
  -13.7730    9.1320  -25.9050 O   0  0  0  0  0  0
  -13.7230    9.5370  -28.2590 C   0  0  0  0  0  0
  -13.3520   10.9250  -28.0870 O   0  0  0  0  0  0
  -17.0130   10.3500  -29.0770 C   0  0  2  0  0  0
  -18.4390   10.8920  -29.1160 C   0  0  2  0  0  0
  -18.6310   11.7890  -28.0510 O   0  0  0  0  0  0
  -19.4460    9.7160  -29.1000 C   0  0  1  0  0  0
  -20.7980   10.1550  -29.1400 O   0  0  0  0  0  0
  -19.1910    8.7540  -30.2690 C   0  0  2  0  0  0
  -20.1240    7.6950  -30.1320 O   0  0  0  0  0  0
  -17.7010    8.2790  -30.2100 C   0  0  2  0  0  0
  -16.7510    9.3970  -30.1370 O   0  0  0  0  0  0
  -17.3320    7.3250  -31.3880 C   0  0  0  0  0  0
  -17.2240    8.0680  -32.6250 O   0  0  0  0  0  0
  -20.6246    7.8919  -32.1997 H   0  0  0  0  0  0
  -22.9032    7.3272  -31.9248 H   0  0  0  0  0  0
  -22.3942    9.6359  -31.1482 H   0  0  0  0  0  0
  -22.2784    6.7334  -28.9910 H   0  0  0  0  0  0
  -24.5853    7.5443  -29.3606 H   0  0  0  0  0  0
  -23.0272    4.6647  -31.1998 H   0  0  0  0  0  0
  -20.4062    4.9441  -29.6814 H   0  0  0  0  0  0
  -21.5155    2.8852  -31.2992 H   0  0  0  0  0  0
  -20.3127    3.6968  -32.3581 H   0  0  0  0  0  0
  -19.1639    1.9710  -30.8523 H   0  0  0  0  0  0
  -24.5550    3.7903  -30.3820 H   0  0  0  0  0  0
  -25.7468    2.6422  -28.7340 H   0  0  0  0  0  0
  -25.8921    5.1077  -28.5351 H   0  0  0  0  0  0
  -23.3465    3.0297  -26.8353 H   0  0  0  0  0  0
  -25.6084    3.0412  -25.7274 H   0  0  0  0  0  0
  -24.2874    0.2401  -27.7073 H   0  0  0  0  0  0
  -21.8063    1.5798  -28.8557 H   0  0  0  0  0  0
  -22.2363    0.0199  -30.8468 H   0  0  0  0  0  0
  -22.0195   -0.8457  -29.2878 H   0  0  0  0  0  0
  -24.0794   -1.7010  -30.5111 H   0  0  0  0  0  0
  -23.1668   -1.3317  -26.9247 H   0  0  0  0  0  0
  -22.1439   -2.0865  -24.7684 H   0  0  0  0  0  0
  -24.3767   -1.1794  -24.5498 H   0  0  0  0  0  0
  -21.3273    0.8326  -24.5142 H   0  0  0  0  0  0
  -21.7244   -0.2610  -22.3275 H   0  0  0  0  0  0
  -19.3669   -1.5808  -24.9592 H   0  0  0  0  0  0
  -19.9854    0.6836  -26.9255 H   0  0  0  0  0  0
  -17.8403   -0.4962  -27.2941 H   0  0  0  0  0  0
  -18.7036   -2.0710  -27.3293 H   0  0  0  0  0  0
  -18.3426   -1.1922  -29.6704 H   0  0  0  0  0  0
  -17.4805   -1.4527  -24.5508 H   0  0  0  0  0  0
  -16.3937   -0.7550  -22.6107 H   0  0  0  0  0  0
  -18.8045   -1.0628  -22.0623 H   0  0  0  0  0  0
  -17.3312    2.1790  -22.7577 H   0  0  0  0  0  0
  -16.2038    1.3334  -20.6643 H   0  0  0  0  0  0
  -14.5790    1.3328  -23.8510 H   0  0  0  0  0  0
  -17.0884    2.1333  -25.4518 H   0  0  0  0  0  0
  -14.6836    2.8344  -26.2910 H   0  0  0  0  0  0
  -14.4730    1.0835  -26.6325 H   0  0  0  0  0  0
  -15.4684    2.2761  -28.6369 H   0  0  0  0  0  0
  -13.3375    2.7061  -23.2375 H   0  0  0  0  0  0
  -12.9474    4.8536  -22.0730 H   0  0  0  0  0  0
  -14.2287    3.2180  -20.7871 H   0  0  0  0  0  0
  -15.7285    5.6620  -23.0320 H   0  0  0  0  0  0
  -15.1866    6.7049  -20.9701 H   0  0  0  0  0  0
  -13.0531    6.9561  -24.0645 H   0  0  0  0  0  0
  -14.8918    5.0888  -25.6326 H   0  0  0  0  0  0
  -13.3223    6.7588  -26.8072 H   0  0  0  0  0  0
  -11.9792    5.7219  -26.2178 H   0  0  0  0  0  0
  -12.7515    4.9755  -28.5082 H   0  0  0  0  0  0
  -13.5991    8.8548  -23.8684 H   0  0  0  0  0  0
  -15.1462   10.7012  -24.1408 H   0  0  0  0  0  0
  -15.6132    9.2962  -22.1708 H   0  0  0  0  0  0
  -17.0213    8.7130  -25.4496 H   0  0  0  0  0  0
  -18.2296   10.4525  -24.3416 H   0  0  0  0  0  0
  -15.6545   11.0774  -27.0477 H   0  0  0  0  0  0
  -15.0160    8.1258  -27.2388 H   0  0  0  0  0  0
  -12.8261    8.9001  -28.2633 H   0  0  0  0  0  0
  -14.2723    9.4031  -29.2026 H   0  0  0  0  0  0
  -12.7015   11.4160  -28.8257 H   0  0  0  0  0  0
  -16.2796   11.1622  -29.1882 H   0  0  0  0  0  0
  -18.6165   11.5338  -29.9916 H   0  0  0  0  0  0
  -17.9791   12.6691  -27.9488 H   0  0  0  0  0  0
  -19.3748    9.1996  -28.1313 H   0  0  0  0  0  0
  -21.1720   10.8543  -28.3777 H   0  0  0  0  0  0
  -19.4109    9.1706  -31.2630 H   0  0  0  0  0  0
  -17.5605    7.7540  -29.2536 H   0  0  0  0  0  0
  -16.3682    6.8383  -31.1775 H   0  0  0  0  0  0
  -18.1135    6.5587  -31.4978 H   0  0  0  0  0  0
  -16.9690    7.5465  -33.5594 H   0  0  0  0  0  0
  1  2  1  0  0  0
  1  9  1  0  0  0
  1 73  1  0  0  0
  1 78  1  0  0  0
  2  3  1  0  0  0
  2  4  1  0  0  0
  2 79  1  0  0  0
  3 80  1  0  0  0
  4  5  1  0  0  0
  4  6  1  0  0  0
  4 81  1  0  0  0
  5 82  1  0  0  0
  6  7  1  0  0  0
  6  8  1  0  0  0
  6 83  1  0  0  0
  7 12  1  0  0  0
  8  9  1  0  0  0
  8 10  1  0  0  0
  8 84  1  0  0  0
 10 11  1  0  0  0
 10 85  1  0  0  0
 10 86  1  0  0  0
 11 87  1  0  0  0
 12 13  1  0  0  0
 12 20  1  0  0  0
 12 88  1  0  0  0
 13 14  1  0  0  0
 13 15  1  0  0  0
 13 89  1  0  0  0
 14 90  1  0  0  0
 15 16  1  0  0  0
 15 17  1  0  0  0
 15 91  1  0  0  0
 16 92  1  0  0  0
 17 18  1  0  0  0
 17 19  1  0  0  0
 17 93  1  0  0  0
 18 23  1  0  0  0
 19 20  1  0  0  0
 19 21  1  0  0  0
 19 94  1  0  0  0
 21 22  1  0  0  0
 21 95  1  0  0  0
 21 96  1  0  0  0
 22 97  1  0  0  0
 23 24  1  0  0  0
 23 31  1  0  0  0
 23 98  1  0  0  0
 24 25  1  0  0  0
 24 26  1  0  0  0
 24 99  1  0  0  0
 25100  1  0  0  0
 26 27  1  0  0  0
 26 28  1  0  0  0
 26101  1  0  0  0
 27102  1  0  0  0
 28 29  1  0  0  0
 28 30  1  0  0  0
 28103  1  0  0  0
 29 34  1  0  0  0
 30 31  1  0  0  0
 30 32  1  0  0  0
 30104  1  0  0  0
 32 33  1  0  0  0
 32105  1  0  0  0
 32106  1  0  0  0
 33107  1  0  0  0
 34 35  1  0  0  0
 34 42  1  0  0  0
 34108  1  0  0  0
 35 36  1  0  0  0
 35 37  1  0  0  0
 35109  1  0  0  0
 36110  1  0  0  0
 37 38  1  0  0  0
 37 39  1  0  0  0
 37111  1  0  0  0
 38112  1  0  0  0
 39 40  1  0  0  0
 39 41  1  0  0  0
 39113  1  0  0  0
 40 45  1  0  0  0
 41 42  1  0  0  0
 41 43  1  0  0  0
 41114  1  0  0  0
 43 44  1  0  0  0
 43115  1  0  0  0
 43116  1  0  0  0
 44117  1  0  0  0
 45 46  1  0  0  0
 45 53  1  0  0  0
 45118  1  0  0  0
 46 47  1  0  0  0
 46 48  1  0  0  0
 46119  1  0  0  0
 47120  1  0  0  0
 48 49  1  0  0  0
 48 50  1  0  0  0
 48121  1  0  0  0
 49122  1  0  0  0
 50 51  1  0  0  0
 50 52  1  0  0  0
 50123  1  0  0  0
 51 56  1  0  0  0
 52 53  1  0  0  0
 52 54  1  0  0  0
 52124  1  0  0  0
 54 55  1  0  0  0
 54125  1  0  0  0
 54126  1  0  0  0
 55127  1  0  0  0
 56 57  1  0  0  0
 56 64  1  0  0  0
 56128  1  0  0  0
 57 58  1  0  0  0
 57 59  1  0  0  0
 57129  1  0  0  0
 58130  1  0  0  0
 59 60  1  0  0  0
 59 61  1  0  0  0
 59131  1  0  0  0
 60132  1  0  0  0
 61 62  1  0  0  0
 61 63  1  0  0  0
 61133  1  0  0  0
 62 67  1  0  0  0
 63 64  1  0  0  0
 63 65  1  0  0  0
 63134  1  0  0  0
 65 66  1  0  0  0
 65135  1  0  0  0
 65136  1  0  0  0
 66137  1  0  0  0
 67 68  1  0  0  0
 67 75  1  0  0  0
 67138  1  0  0  0
 68 69  1  0  0  0
 68 70  1  0  0  0
 68139  1  0  0  0
 69140  1  0  0  0
 70 71  1  0  0  0
 70 72  1  0  0  0
 70141  1  0  0  0
 71142  1  0  0  0
 72 73  1  0  0  0
 72 74  1  0  0  0
 72143  1  0  0  0
 74 75  1  0  0  0
 74 76  1  0  0  0
 74144  1  0  0  0
 76 77  1  0  0  0
 76145  1  0  0  0
 76146  1  0  0  0
 77147  1  0  0  0
M  END
> <s_m_source_file>
../2zyn_ligand.sdf

> <i_m_source_file_index>
1

> <s_epik_input>
W0NAQEhdMTJbQ0BIXShbT0hdKVtDQEBIXShbT0hdKVtDQEBIXShbQ0BIXShPMSlbQ0gyXVtPSF0pT1tDQEBIXTNbQ0BIXShbT0hdKVtDQEBIXShbT0hdKVtDQEBIXShbQ0BIXShPMylbQ0gyXVtPSF0pT1tDQEBIXTRbQ0BIXShbT0hdKVtDQEBIXShbT0hdKVtDQEBIXShbQ0BIXShPNClbQ0gyXVtPSF0pT1tDQEBIXTVbQ0BIXShbT0hdKVtDQEBIXShbT0hdKVtDQEBIXShbQ0BIXShPNSlbQ0gyXVtPSF0pT1tDQEBIXTZbQ0BIXShbT0hdKVtDQEBIXShbT0hdKVtDQEBIXShbQ0BIXShPNilbQ0gyXVtPSF0pT1tDQEBIXTdbQ0BIXShbT0hdKVtDQEBIXShbT0hdKVtDQEBIXShbQ0BIXShPNylbQ0gyXVtPSF0pT1tDQEBIXThbQ0BIXShbT0hdKVtDQEBIXShbT0hdKVtDQEhdKE8yKVtDQEhdKE84KVtDSDJdW09IXQ==

> <s_epik_cmdline>
J2VwaWtfYXBwJywgJy1pbWFlJywgJ2xpZ2FuZF9wcm8ubWFlJywgJy1vbWFlJywgJ2xpZ2FuZF9wcmVwLm1hZScsICctbXMnLCAnMScsICctcGgnLCAnNycsICctcGh0JywgJzAuNScsICctbnQn

> <r_lp_tautomer_probability>
1

> <r_epik_Ionization_Penalty>
  0.0000

> <r_epik_Ionization_Penalty_Charging>
  0.0000

> <r_epik_Ionization_Penalty_Neutral>
  0.0000

> <r_epik_State_Penalty>
 -0.0000

> <r_epik_Charging_Adjusted_Penalty>
0

> <i_epik_Tot_Q>
0

> <i_epik_Tot_abs_Q>
0

> <s_epik_Chemistry_Notes>
This compound contains an acetal/aminal-like group ( X-CH(R)-Y where X, Y are N, S, or O) that may be acid/base labile, releasing an aldehyde.

$$$$
