2zz1_ligand
                    3D
 Schrodinger Suite 2020-3.
 33 34  0  0  1  0            999 V2000
   24.5860  -17.0270    7.6270 O   0  5  0  0  0  0
   24.5080  -16.0120    8.7490 P   0  0  0  0  0  0
   25.8140  -15.2770    8.9660 O   0  5  0  0  0  0
   23.3180  -15.1050    8.6240 O   0  0  0  0  0  0
   24.1660  -16.8480   10.1040 O   0  0  0  0  0  0
   25.1930  -17.4770   10.8640 C   0  0  0  0  0  0
   24.4550  -18.1490   12.0310 C   0  0  2  0  0  0
   23.9190  -17.1700   13.0460 C   0  0  1  0  0  0
   22.8010  -17.8330   13.6960 O   0  0  0  0  0  0
   25.0980  -17.0780   14.0270 C   0  0  1  0  0  0
   24.5910  -16.7320   15.3100 O   0  0  0  0  0  0
   25.3770  -19.0230   12.7050 O   0  0  0  0  0  0
   25.6460  -18.5020   14.0210 C   0  0  1  0  0  0
   27.0920  -18.6260   14.2710 N   0  0  0  0  0  0
   27.5010  -19.5470   15.2020 C   0  0  0  0  0  0
   28.8640  -19.6850   15.5060 C   0  0  0  0  0  0
   29.7620  -18.8800   14.8380 C   0  0  0  0  0  0
   31.0370  -18.9510   15.0200 O   0  0  0  0  0  0
   29.3080  -18.0430   13.8740 N   0  0  0  0  0  0
   27.9870  -17.9120   13.5980 C   0  0  0  0  0  0
   27.6330  -17.1150   12.7080 O   0  0  0  0  0  0
   26.8020  -20.8310   15.2930 C   0  0  0  0  0  0
   26.2510  -21.8460   15.3980 N   0  0  0  0  0  0
   25.7177  -18.2109   10.2346 H   0  0  0  0  0  0
   25.9073  -16.7174   11.2145 H   0  0  0  0  0  0
   23.6097  -18.7333   11.6384 H   0  0  0  0  0  0
   23.5483  -16.2076   12.6635 H   0  0  0  0  0  0
   21.8609  -17.9914   13.1472 H   0  0  0  0  0  0
   25.8527  -16.3021   13.8307 H   0  0  0  0  0  0
   24.1589  -15.7348   15.4800 H   0  0  0  0  0  0
   25.1715  -19.0897   14.8207 H   0  0  0  0  0  0
   29.2028  -20.4075   16.2485 H   0  0  0  0  0  0
   30.0190  -17.4432   13.2869 H   0  0  0  0  0  0
  1  2  1  0  0  0
  2  3  1  0  0  0
  2  4  2  0  0  0
  2  5  1  0  0  0
  5  6  1  0  0  0
  6  7  1  0  0  0
  6 24  1  0  0  0
  6 25  1  0  0  0
  7  8  1  0  0  0
  7 12  1  0  0  0
  7 26  1  0  0  0
  8  9  1  0  0  0
  8 10  1  0  0  0
  8 27  1  0  0  0
  9 28  1  0  0  0
 10 11  1  0  0  0
 10 13  1  0  0  0
 10 29  1  0  0  0
 11 30  1  0  0  0
 12 13  1  0  0  0
 13 14  1  0  0  0
 13 31  1  0  0  0
 14 15  1  0  0  0
 14 20  1  0  0  0
 15 16  2  0  0  0
 15 22  1  0  0  0
 16 17  1  0  0  0
 16 32  1  0  0  0
 17 18  2  0  0  0
 17 19  1  0  0  0
 19 20  1  0  0  0
 19 33  1  0  0  0
 20 21  2  0  0  0
 22 23  3  0  0  0
M  CHG  2   1  -1   3  -1
M  END
> <s_m_source_file>
../2zz1_ligand.sdf

> <i_m_source_file_index>
1

> <s_epik_input>
W09IXVAoPU8pKFtPSF0pT1tDSDJdW0NAQEhdMVtDQEBIXShbT0hdKVtDQEBIXShbT0hdKVtDQEBIXShPMSluMmMoQyNOKVtjSF1jKD1PKVtuSF1jMj1P

> <s_epik_cmdline>
J2VwaWtfYXBwJywgJy1pbWFlJywgJ2xpZ2FuZF9wcm8ubWFlJywgJy1vbWFlJywgJ2xpZ2FuZF9wcmVwLm1hZScsICctbXMnLCAnMScsICctcGgnLCAnNycsICctcGh0JywgJzAuNScsICctbnQn

> <r_epik_Ionization_Penalty>
  0.4730

> <r_epik_Ionization_Penalty_Charging>
  0.4730

> <r_epik_Ionization_Penalty_Neutral>
  0.0000

> <r_epik_State_Penalty>
  0.3646

> <r_epik_Charging_Adjusted_Penalty>
0.837610158006178

> <i_epik_Tot_Q>
-2

> <i_epik_Tot_abs_Q>
2

> <s_epik_Chemistry_Notes>
This compound contains an acetal/aminal-like group ( X-CH(R)-Y where X, Y are N, S, or O) that may be acid/base labile, releasing an aldehyde.

$$$$
