2zz6_ligand
                    3D
 Schrodinger Suite 2020-3.
 32 33  0  0  1  0            999 V2000
   24.5270  -17.2120    7.6980 O   0  0  0  0  0  0
   24.4090  -16.2970    8.8980 P   0  0  0  0  0  0
   25.7120  -15.5080    9.1220 O   0  5  0  0  0  0
   23.2400  -15.3200    8.7530 O   0  5  0  0  0  0
   24.0840  -17.1920   10.1620 O   0  0  0  0  0  0
   25.1370  -17.6540   11.0230 C   0  0  0  0  0  0
   24.4140  -18.2770   12.2190 C   0  0  2  0  0  0
   23.7250  -17.3310   13.1670 C   0  0  1  0  0  0
   22.6350  -17.9880   13.8090 O   0  0  0  0  0  0
   24.8350  -16.9690   14.1710 C   0  0  1  0  0  0
   24.3210  -16.4520   15.3550 O   0  0  0  0  0  0
   25.3730  -18.9650   13.0840 O   0  0  0  0  0  0
   25.5210  -18.2670   14.3630 C   0  0  1  0  0  0
   26.9820  -18.3140   14.7210 N   0  0  0  0  0  0
   27.4470  -18.9910   15.9160 C   0  0  0  0  0  0
   28.7770  -19.2080   16.0810 C   0  0  0  0  0  0
   29.7210  -18.8060   15.1090 C   0  0  0  0  0  0
   30.9280  -19.0110   15.1240 O   0  0  0  0  0  0
   29.2050  -18.1020   13.9940 N   0  0  0  0  0  0
   27.9060  -17.8160   13.7550 C   0  0  0  0  0  0
   27.5320  -17.2070   12.8000 O   0  0  0  0  0  0
   25.7516  -18.3922   10.4869 H   0  0  0  0  0  0
   25.7653  -16.8025   11.3233 H   0  0  0  0  0  0
   23.6678  -18.9390   11.7554 H   0  0  0  0  0  0
   23.2347  -16.4728   12.6843 H   0  0  0  0  0  0
   21.7630  -18.3095   13.2206 H   0  0  0  0  0  0
   25.5117  -16.1444   13.9026 H   0  0  0  0  0  0
   23.7868  -15.4905   15.3491 H   0  0  0  0  0  0
   25.0255  -18.7040   15.2425 H   0  0  0  0  0  0
   26.7366  -19.3220   16.6735 H   0  0  0  0  0  0
   29.1257  -19.7050   16.9863 H   0  0  0  0  0  0
   29.8868  -17.7289   13.2155 H   0  0  0  0  0  0
  1  2  2  0  0  0
  2  3  1  0  0  0
  2  4  1  0  0  0
  2  5  1  0  0  0
  5  6  1  0  0  0
  6  7  1  0  0  0
  6 22  1  0  0  0
  6 23  1  0  0  0
  7  8  1  0  0  0
  7 12  1  0  0  0
  7 24  1  0  0  0
  8  9  1  0  0  0
  8 10  1  0  0  0
  8 25  1  0  0  0
  9 26  1  0  0  0
 10 11  1  0  0  0
 10 13  1  0  0  0
 10 27  1  0  0  0
 11 28  1  0  0  0
 12 13  1  0  0  0
 13 14  1  0  0  0
 13 29  1  0  0  0
 14 15  1  0  0  0
 14 20  1  0  0  0
 15 16  2  0  0  0
 15 30  1  0  0  0
 16 17  1  0  0  0
 16 31  1  0  0  0
 17 18  2  0  0  0
 17 19  1  0  0  0
 19 20  1  0  0  0
 19 32  1  0  0  0
 20 21  2  0  0  0
M  CHG  2   3  -1   4  -1
M  END
> <s_m_source_file>
../2zz6_ligand.sdf

> <i_m_source_file_index>
1

> <s_epik_input>
Tz1QKFtPSF0pKFtPSF0pT1tDSDJdW0NAQEhdMVtDQEBIXShbT0hdKVtDQEBIXShbT0hdKVtDQEBIXShPMSluMltjSF1bY0hdYyg9TylbbkhdYzI9Tw==

> <s_epik_cmdline>
J2VwaWtfYXBwJywgJy1pbWFlJywgJ2xpZ2FuZF9wcm8ubWFlJywgJy1vbWFlJywgJ2xpZ2FuZF9wcmVwLm1hZScsICctbXMnLCAnMScsICctcGgnLCAnNycsICctcGh0JywgJzAuNScsICctbnQn

> <r_lp_tautomer_probability>
0.999537046341301

> <r_epik_Ionization_Penalty>
  0.1099

> <r_epik_Ionization_Penalty_Charging>
  0.1099

> <r_epik_Ionization_Penalty_Neutral>
  0.0000

> <r_epik_State_Penalty>
  0.0955

> <r_epik_Charging_Adjusted_Penalty>
0.205421335808325

> <i_epik_Tot_Q>
-2

> <i_epik_Tot_abs_Q>
2

> <s_epik_Chemistry_Notes>
This compound contains an acetal/aminal-like group ( X-CH(R)-Y where X, Y are N, S, or O) that may be acid/base labile, releasing an aldehyde.

$$$$
