2zzu_ligand
                    3D
 Schrodinger Suite 2020-3.
 88 91  0  0  1  0            999 V2000
   35.6070    6.9670   10.2740 C   0  0  0  0  0  0
   34.6730    7.2320   11.0260 O   0  0  0  0  0  0
   35.6660    7.3770    8.9700 N   0  0  0  0  0  0
   34.5450    8.1630    8.4640 C   0  0  1  0  0  0
   34.6340    8.5000    6.9820 C   0  0  0  0  0  0
   35.9580    9.2630    6.6040 C   0  0  0  0  0  0
   33.2690    7.4270    8.7640 C   0  0  0  0  0  0
   33.1880    6.2170    8.5900 O   0  0  0  0  0  0
   32.3000    8.2480    9.2370 N   0  0  0  0  0  0
   31.0230    7.6640    9.5170 C   0  0  0  0  0  0
   31.6110    6.4550   11.6610 C   0  0  0  0  0  0
   31.3500    6.1970   13.0110 C   0  0  0  0  0  0
   30.2870    6.8330   13.6850 C   0  0  0  0  0  0
   29.4510    7.6940   12.9690 C   0  0  0  0  0  0
   29.6960    7.9470   11.6170 C   0  0  0  0  0  0
   30.7790    7.3410   10.9600 C   0  0  0  0  0  0
   30.0800    6.6260   15.1230 C   0  0  0  0  0  0
   30.7350    5.6690   15.7560 N   0  3  0  0  0  0
   35.9300    9.7200    5.1650 C   0  0  0  0  0  0
   35.7300    8.9300    4.2700 O   0  0  0  0  0  0
   36.0600   11.0330    4.9540 N   0  0  0  0  0  0
   37.7500    6.9510   11.6390 C   0  0  0  0  0  0
   36.3240    5.0420   11.6560 N   0  0  3  0  0  0
   36.8040    6.1100   10.7990 C   0  0  1  0  0  0
   36.2080    3.4640   11.0080 S   0  0  0  0  0  0
   35.7290    3.6980    9.6870 O   0  0  0  0  0  0
   35.4220    2.7870   11.9800 O   0  0  0  0  0  0
   37.8360    2.8160   10.9480 C   0  0  0  0  0  0
   38.2570    2.3730   12.3580 C   0  0  0  0  0  0
   29.2460    7.3820   15.8280 N   0  0  0  0  0  0
   42.7420    5.3820   10.3270 C   0  0  0  0  0  0
   42.3470    4.9620   11.6550 C   0  0  0  0  0  0
   41.0740    5.2210   12.1740 C   0  0  0  0  0  0
   40.1140    5.8920   11.3490 C   0  0  0  0  0  0
   40.4700    6.2840   10.0630 C   0  0  0  0  0  0
   41.7830    6.0790    9.5190 C   0  0  0  0  0  0
   40.4840    5.1150   13.4220 N   0  0  0  0  0  0
   39.2260    5.6910   13.4000 C   0  0  0  0  0  0
   38.9540    6.1810   12.1190 C   0  0  3  0  0  0
   41.9960    6.7080    8.2810 O   0  0  0  0  0  0
   43.2180    7.4380    8.0820 C   0  0  0  0  0  0
   44.1600   11.0980   10.2420 C   0  0  0  0  0  0
   45.0120    9.9930   10.3140 C   0  0  0  0  0  0
   44.6740    8.8090    9.6350 C   0  0  0  0  0  0
   43.5050    8.7070    8.8600 C   0  0  0  0  0  0
   42.6790    9.8370    8.7750 C   0  0  0  0  0  0
   42.9870   11.0200    9.4760 C   0  0  0  0  0  0
   42.0410   12.1240    9.4580 C   0  0  0  0  0  0
   42.4610   13.2920    9.6010 O   0  5  0  0  0  0
   40.8300   11.8470    9.3260 O   0  0  0  0  0  0
   36.5123    7.1373    8.3094 H   0  0  0  0  0  0
   34.5982    9.1173    9.0084 H   0  0  0  0  0  0
   34.6030    7.5719    6.3924 H   0  0  0  0  0  0
   33.7862    9.1418    6.7003 H   0  0  0  0  0  0
   36.0702   10.1453    7.2512 H   0  0  0  0  0  0
   36.8196    8.5937    6.7439 H   0  0  0  0  0  0
   32.4627    9.3225    9.4074 H   0  0  0  0  0  0
   30.2270    8.3583    9.2099 H   0  0  0  0  0  0
   30.9213    6.7205    8.9607 H   0  0  0  0  0  0
   32.4506    5.9735   11.1598 H   0  0  0  0  0  0
   31.9801    5.4911   13.5521 H   0  0  0  0  0  0
   28.6057    8.1694   13.4666 H   0  0  0  0  0  0
   29.0400    8.6215   11.0667 H   0  0  0  0  0  0
   31.4341    5.0233   15.2043 H   0  0  0  0  0  0
   36.2411   11.7109    5.8011 H   0  0  0  0  0  0
   35.9860   11.4360    3.9332 H   0  0  0  0  0  0
   38.1130    7.8009   11.0424 H   0  0  0  0  0  0
   37.2180    7.3261   12.5257 H   0  0  0  0  0  0
   36.2009    5.2160   12.7351 H   0  0  0  0  0  0
   37.3336    5.6535    9.9498 H   0  0  0  0  0  0
   37.8621    1.9525   10.2670 H   0  0  0  0  0  0
   38.5261    3.5913   10.5836 H   0  0  0  0  0  0
   39.2783    1.9657   12.3247 H   0  0  0  0  0  0
   37.5651    1.5987   12.7209 H   0  0  0  0  0  0
   38.2290    3.2375   13.0376 H   0  0  0  0  0  0
   28.6837    8.1883   15.3344 H   0  0  0  0  0  0
   29.1176    7.2018   16.9055 H   0  0  0  0  0  0
   43.7434    5.1738    9.9503 H   0  0  0  0  0  0
   43.0671    4.4249   12.2724 H   0  0  0  0  0  0
   39.7184    6.7687    9.4399 H   0  0  0  0  0  0
   38.6126    5.7074   14.3129 H   0  0  0  0  0  0
   44.0747    6.7914    8.3226 H   0  0  0  0  0  0
   43.2856    7.7607    7.0326 H   0  0  0  0  0  0
   44.4051   12.0151   10.7777 H   0  0  0  0  0  0
   45.9336   10.0485   10.8933 H   0  0  0  0  0  0
   45.3362    7.9466    9.7114 H   0  0  0  0  0  0
   41.7828    9.7996    8.1557 H   0  0  0  0  0  0
   30.5813    5.5179   16.8347 H   0  0  0  0  0  0
  1  2  2  0  0  0
  1  3  1  0  0  0
  1 24  1  0  0  0
  3  4  1  0  0  0
  3 51  1  0  0  0
  4  5  1  0  0  0
  4  7  1  0  0  0
  4 52  1  0  0  0
  5  6  1  0  0  0
  5 53  1  0  0  0
  5 54  1  0  0  0
  6 19  1  0  0  0
  6 55  1  0  0  0
  6 56  1  0  0  0
  7  8  2  0  0  0
  7  9  1  0  0  0
  9 10  1  0  0  0
  9 57  1  0  0  0
 10 16  1  0  0  0
 10 58  1  0  0  0
 10 59  1  0  0  0
 11 12  2  0  0  0
 11 16  1  0  0  0
 11 60  1  0  0  0
 12 13  1  0  0  0
 12 61  1  0  0  0
 13 14  2  0  0  0
 13 17  1  0  0  0
 14 15  1  0  0  0
 14 62  1  0  0  0
 15 16  2  0  0  0
 15 63  1  0  0  0
 17 18  2  0  0  0
 17 30  1  0  0  0
 18 64  1  0  0  0
 18 88  1  0  0  0
 19 20  2  0  0  0
 19 21  1  0  0  0
 21 65  1  0  0  0
 21 66  1  0  0  0
 22 24  1  0  0  0
 22 39  1  0  0  0
 22 67  1  0  0  0
 22 68  1  0  0  0
 23 24  1  0  0  0
 23 25  1  0  0  0
 23 69  1  0  0  0
 24 70  1  0  0  0
 25 26  2  0  0  0
 25 27  2  0  0  0
 25 28  1  0  0  0
 28 29  1  0  0  0
 28 71  1  0  0  0
 28 72  1  0  0  0
 29 73  1  0  0  0
 29 74  1  0  0  0
 29 75  1  0  0  0
 30 76  1  0  0  0
 30 77  1  0  0  0
 31 32  2  0  0  0
 31 36  1  0  0  0
 31 78  1  0  0  0
 32 33  1  0  0  0
 32 79  1  0  0  0
 33 34  2  0  0  0
 33 37  1  0  0  0
 34 35  1  0  0  0
 34 39  1  0  0  0
 35 36  2  0  0  0
 35 80  1  0  0  0
 36 40  1  0  0  0
 37 38  2  0  0  0
 38 39  1  0  0  0
 38 81  1  0  0  0
 40 41  1  0  0  0
 41 45  1  0  0  0
 41 82  1  0  0  0
 41 83  1  0  0  0
 42 43  2  0  0  0
 42 47  1  0  0  0
 42 84  1  0  0  0
 43 44  1  0  0  0
 43 85  1  0  0  0
 44 45  2  0  0  0
 44 86  1  0  0  0
 45 46  1  0  0  0
 46 47  2  0  0  0
 46 87  1  0  0  0
 47 48  1  0  0  0
 48 49  1  0  0  0
 48 50  2  0  0  0
M  CHG  2  18   1  49  -1
M  END
> <s_m_source_file>
../2zzu_ligand.sdf

> <i_m_source_file_index>
1

> <s_epik_input>
W0hdL049QyhbTkgyXSlcYzFbY0hdW2NIXWMoW2NIXVtjSF0xKVtDSDJdW05IXUMoPU8pW0NASF0oW0NIMl1bQ0gyXUMoPU8pW05IMl0pW05IXUMoPU8pW0NASF0oW05IXVMoPU8pKD1PKVtDSDJdW0NIM10pW0NIMl1bQ0hdKFtDSF09TjIpYyhjMjMpW2NIXWMoW2NIXVtjSF0zKU9bQ0gyXWM0W2NIXVtjSF1bY0hdYyhbY0hdNClDKD1PKVtPSF0=

> <s_epik_cmdline>
J2VwaWtfYXBwJywgJy1pbWFlJywgJ2xpZ2FuZF9wcm8ubWFlJywgJy1vbWFlJywgJ2xpZ2FuZF9wcmVwLm1hZScsICctbXMnLCAnMScsICctcGgnLCAnNycsICctcGh0JywgJzAuNScsICctbnQn

> <r_epik_Ionization_Penalty>
  0.0359

> <r_epik_Ionization_Penalty_Charging>
  0.0009

> <r_epik_Ionization_Penalty_Neutral>
  0.0350

> <r_epik_State_Penalty>
  0.0291

> <r_epik_Charging_Adjusted_Penalty>
0.0300116875180324

> <i_epik_Tot_Q>
0

> <i_epik_Tot_abs_Q>
2

> <s_epik_Chemistry_Notes>
This compound has an imine and may undergo hydrolysis.

$$$$
