3a1t_ligand
                    3D
 Schrodinger Suite 2020-3.
 40 42  0  0  1  0            999 V2000
   25.7160   16.3590   24.6280 P   0  0  0  0  0  0
   24.5450   16.4820   25.5690 O   0  5  0  0  0  0
   26.6170   15.2300   25.0920 O   0  5  0  0  0  0
   25.2170   16.0310   23.2480 O   0  0  0  0  0  0
   26.6050   17.6940   24.4460 O   0  0  0  0  0  0
   26.8560   18.8990   25.5000 P   0  0  2  0  0  0
   27.1630   18.4160   26.8970 O   0  0  0  0  0  0
   25.6600   19.8460   25.4870 O   0  5  0  0  0  0
   28.0990   19.5780   24.7850 O   0  0  0  0  0  0
   29.3090   18.8420   24.5970 C   0  0  0  0  0  0
   30.4710   19.8120   24.4950 C   0  0  1  0  0  0
   30.2960   20.7010   23.3870 O   0  0  0  0  0  0
   30.5430   20.6730   25.7340 C   0  0  1  0  0  0
   31.9230   20.8670   26.0100 O   0  0  0  0  0  0
   29.9950   22.0170   25.3110 C   0  0  1  0  0  0
   30.6740   23.0570   26.0080 O   0  0  0  0  0  0
   30.3090   22.0690   23.8310 C   0  0  2  0  0  0
   29.2680   22.7970   23.0580 N   0  0  0  0  0  0
   27.9370   22.5800   23.1030 C   0  0  0  0  0  0
   27.2770   23.4040   22.2400 N   0  0  0  0  0  0
   28.2150   24.1400   21.6220 C   0  0  0  0  0  0
   28.2130   25.1990   20.5980 C   0  0  0  0  0  0
   27.1160   25.5550   20.1150 O   0  0  0  0  0  0
   29.3800   25.7220   20.2070 N   0  3  0  0  0  0
   30.5610   25.3140   20.7270 C   0  0  0  0  0  0
   31.7110   25.8810   20.2860 N   0  0  0  0  0  0
   30.6380   24.3420   21.6760 N   0  0  0  0  0  0
   29.5240   23.7320   22.1500 C   0  0  0  0  0  0
   29.4646   18.1676   25.4520 H   0  0  0  0  0  0
   29.2387   18.2510   23.6719 H   0  0  0  0  0  0
   31.3960   19.2416   24.3246 H   0  0  0  0  0  0
   30.0568   20.2399   26.6206 H   0  0  0  0  0  0
   32.5423   20.0199   26.3399 H   0  0  0  0  0  0
   28.9372   22.1900   25.5581 H   0  0  0  0  0  0
   30.5527   23.1599   27.0964 H   0  0  0  0  0  0
   31.2764   22.5584   23.6450 H   0  0  0  0  0  0
   27.4533   21.8433   23.7445 H   0  0  0  0  0  0
   31.6769   26.6690   19.5193 H   0  0  0  0  0  0
   32.6780   25.5530   20.6949 H   0  0  0  0  0  0
   29.4001   26.5097   19.4395 H   0  0  0  0  0  0
  1  2  1  0  0  0
  1  3  1  0  0  0
  1  4  2  0  0  0
  1  5  1  0  0  0
  5  6  1  0  0  0
  6  7  2  0  0  0
  6  8  1  0  0  0
  6  9  1  0  0  0
  9 10  1  0  0  0
 10 11  1  0  0  0
 10 29  1  0  0  0
 10 30  1  0  0  0
 11 12  1  0  0  0
 11 13  1  0  0  0
 11 31  1  0  0  0
 12 17  1  0  0  0
 13 14  1  0  0  0
 13 15  1  0  0  0
 13 32  1  0  0  0
 14 33  1  0  0  0
 15 16  1  0  0  0
 15 17  1  0  0  0
 15 34  1  0  0  0
 16 35  1  0  0  0
 17 18  1  0  0  0
 17 36  1  0  0  0
 18 19  1  0  0  0
 18 28  1  0  0  0
 19 20  2  0  0  0
 19 37  1  0  0  0
 20 21  1  0  0  0
 21 22  1  0  0  0
 21 28  2  0  0  0
 22 23  2  0  0  0
 22 24  1  0  0  0
 24 25  1  0  0  0
 24 40  1  0  0  0
 25 26  1  0  0  0
 25 27  2  0  0  0
 26 38  1  0  0  0
 26 39  1  0  0  0
 27 28  1  0  0  0
M  CHG  4   2  -1   3  -1   8  -1  24   1
M  END
> <s_m_source_file>
../3a1t_ligand.sdf

> <i_m_source_file_index>
1

> <s_epik_input>
W09IXVAoPU8pKFtPSF0pT1tQQF0oPU8pKFtPSF0pT1tDSDJdW0NASF0xT1tDQEhdKFtDQEhdKFtPSF0pW0NAQEhdMVtPSF0pbihbY0hdbjIpYyhjMjMpW25IXWMoPU5cW0hdKVxbbkhdYzM9Tw==

> <s_epik_cmdline>
J2VwaWtfYXBwJywgJy1pbWFlJywgJ2xpZ2FuZF9wcm8ubWFlJywgJy1vbWFlJywgJ2xpZ2FuZF9wcmVwLm1hZScsICctbXMnLCAnMScsICctcGgnLCAnNycsICctcGh0JywgJzAuNScsICctbnQn

> <r_epik_Ionization_Penalty>
  2.4918

> <r_epik_Ionization_Penalty_Charging>
  2.4918

> <r_epik_Ionization_Penalty_Neutral>
  0.0000

> <r_epik_State_Penalty>
  0.1302

> <r_epik_Charging_Adjusted_Penalty>
2.62193179535438

> <i_epik_Tot_Q>
-2

> <i_epik_Tot_abs_Q>
4

> <s_epik_Chemistry_Notes>
This compound has an imine and may undergo hydrolysis. This compound contains an acetal/aminal-like group ( X-CH(R)-Y where X, Y are N, S, or O) that may be acid/base labile, releasing an aldehyde.

$$$$
