3a29_ligand
                    3D
 Schrodinger Suite 2020-3.
 28 30  0  0  1  0            999 V2000
   17.7880   60.6800   15.6990 C   0  0  0  0  0  0
   18.7150   61.3960   14.9470 C   0  0  0  0  0  0
   20.0810   61.1890   15.1760 C   0  0  0  0  0  0
   20.5280   60.2780   16.1470 C   0  0  0  0  0  0
   19.5730   59.5760   16.8880 C   0  0  0  0  0  0
   18.2210   59.7790   16.6610 C   0  0  0  0  0  0
   15.2470   60.0030   16.1080 P   0  0  0  0  0  0
   21.3670   58.3110   18.0420 C   0  0  0  0  0  0
   20.0180   58.6130   17.9010 C   0  0  0  0  0  0
   21.5380   57.1860   19.2920 S   0  0  0  0  0  0
   19.8750   57.1460   19.5950 C   0  0  0  0  0  0
   19.1840   57.9640   18.7690 N   0  0  0  0  0  0
   19.2940   56.3120   20.6400 N   0  0  0  0  0  0
   16.3970   60.8690   15.4880 O   0  0  0  0  0  0
   22.5100   58.8510   17.2270 C   0  0  0  0  0  0
   22.0430   60.0770   16.3760 C   0  0  0  0  0  0
   15.2700   60.0420   17.6430 O   0  0  0  0  0  0
   13.8840   60.5320   15.6340 O   0  5  0  0  0  0
   15.3560   58.5130   15.7030 O   0  5  0  0  0  0
   18.3826   62.1074   14.1910 H   0  0  0  0  0  0
   20.8116   61.7458   14.5892 H   0  0  0  0  0  0
   17.4881   59.2234   17.2460 H   0  0  0  0  0  0
   19.9429   55.6781   21.2622 H   0  0  0  0  0  0
   18.2067   56.3166   20.8064 H   0  0  0  0  0  0
   23.3208   59.1697   17.8986 H   0  0  0  0  0  0
   22.8810   58.0667   16.5508 H   0  0  0  0  0  0
   22.5475   59.9555   15.4061 H   0  0  0  0  0  0
   22.4548   60.9544   16.8961 H   0  0  0  0  0  0
  1  2  2  0  0  0
  1  6  1  0  0  0
  1 14  1  0  0  0
  2  3  1  0  0  0
  2 20  1  0  0  0
  3  4  2  0  0  0
  3 21  1  0  0  0
  4  5  1  0  0  0
  4 16  1  0  0  0
  5  6  2  0  0  0
  5  9  1  0  0  0
  6 22  1  0  0  0
  7 14  1  0  0  0
  7 17  2  0  0  0
  7 18  1  0  0  0
  7 19  1  0  0  0
  8  9  2  0  0  0
  8 10  1  0  0  0
  8 15  1  0  0  0
  9 12  1  0  0  0
 10 11  1  0  0  0
 11 12  2  0  0  0
 11 13  1  0  0  0
 13 23  1  0  0  0
 13 24  1  0  0  0
 15 16  1  0  0  0
 15 25  1  0  0  0
 15 26  1  0  0  0
 16 27  1  0  0  0
 16 28  1  0  0  0
M  CHG  2  18  -1  19  -1
M  END
> <s_m_source_file>
../3a29_ligand.sdf

> <i_m_source_file_index>
1

> <s_epik_input>
Tz1QKFtPSF0pKFtPSF0pT2MoW2NIXVtjSF0xKVtjSF1jKGMxMiljM2MoW0NIMl1bQ0gyXTIpc2MobjMpW05IMl0=

> <s_epik_cmdline>
J2VwaWtfYXBwJywgJy1pbWFlJywgJ2xpZ2FuZF9wcm8ubWFlJywgJy1vbWFlJywgJ2xpZ2FuZF9wcmVwLm1hZScsICctbXMnLCAnMScsICctcGgnLCAnNycsICctcGh0JywgJzAuNScsICctbnQn

> <r_epik_Ionization_Penalty>
  0.0922

> <r_epik_Ionization_Penalty_Charging>
  0.0842

> <r_epik_Ionization_Penalty_Neutral>
  0.0080

> <r_epik_State_Penalty>
  0.0749

> <r_epik_Charging_Adjusted_Penalty>
0.159079871568746

> <i_epik_Tot_Q>
-2

> <i_epik_Tot_abs_Q>
2

$$$$
