3a2c_ligand
                    3D
 Schrodinger Suite 2020-3.
 54 57  0  0  1  0            999 V2000
   95.5350  107.9660   96.2340 C   0  0  0  0  0  0
   94.1760  107.2690   96.1970 C   0  0  0  0  0  0
   93.8840  106.7100   97.5920 C   0  0  0  0  0  0
   93.8390  107.7970   98.5850 N   0  3  0  0  0  0
   95.1190  108.5270   98.6420 C   0  0  0  0  0  0
   95.5290  109.0870   97.2730 C   0  0  1  0  0  0
   96.9100  109.6020   97.2730 N   0  0  0  0  0  0
   97.1620  110.8930   97.4520 C   0  0  0  0  0  0
   98.4800  111.3080   97.6290 C   0  0  0  0  0  0
   99.6050  110.2790   97.4730 C   0  0  0  0  0  0
   96.1320  111.7330   97.6510 N   0  0  0  0  0  0
   96.3240  112.9990   98.0390 C   0  0  0  0  0  0
   95.4570  113.9990   98.1960 C   0  0  0  0  0  0
   96.2930  115.2500   98.4600 C   0  0  0  0  0  0
   97.6480  114.6880   98.3640 N   0  0  0  0  0  0
   97.6340  113.4620   98.2450 N   0  0  0  0  0  0
   98.7280  112.5970   98.0830 C   0  0  0  0  0  0
   99.9160  113.2020   98.0940 N   0  0  0  0  0  0
  101.0390  112.9950   97.4200 C   0  0  0  0  0  0
  102.2430  113.2850   98.0500 C   0  0  0  0  0  0
  103.4420  112.8970   97.4630 C   0  0  0  0  0  0
  101.0280  112.2960   96.2220 C   0  0  0  0  0  0
  102.2240  111.9500   95.6090 C   0  0  0  0  0  0
  103.4240  112.2440   96.2380 C   0  0  0  0  0  0
  104.5670  111.9090   95.5870 O   0  0  0  0  0  0
  105.5580  112.9410   95.5380 C   0  0  0  0  0  0
  106.6030  112.3460   94.5920 C   0  0  0  0  0  0
   96.3143  107.2361   96.4982 H   0  0  0  0  0  0
   95.7543  108.3947   95.2450 H   0  0  0  0  0  0
   93.3997  107.9941   95.9112 H   0  0  0  0  0  0
   94.2030  106.4517   95.4613 H   0  0  0  0  0  0
   92.9130  106.1932   97.5840 H   0  0  0  0  0  0
   94.6749  106.0000   97.8754 H   0  0  0  0  0  0
   93.0437  108.5074   98.3151 H   0  0  0  0  0  0
   93.6325  107.3762   99.5802 H   0  0  0  0  0  0
   95.0294  109.3701   99.3429 H   0  0  0  0  0  0
   95.9135  107.8479   98.9850 H   0  0  0  0  0  0
   94.8386  109.9110   97.0398 H   0  0  0  0  0  0
   97.7540  108.9127   97.1229 H   0  0  0  0  0  0
   99.1865  109.3316   97.1025 H   0  0  0  0  0  0
  100.0860  110.1110   98.4479 H   0  0  0  0  0  0
  100.3499  110.6559   96.7567 H   0  0  0  0  0  0
   94.3699  113.9367   98.1461 H   0  0  0  0  0  0
   95.9743  116.2725   98.6627 H   0  0  0  0  0  0
  100.0927  114.0548   98.7659 H   0  0  0  0  0  0
  102.2474  113.8155   99.0022 H   0  0  0  0  0  0
  104.3893  113.1040   97.9609 H   0  0  0  0  0  0
  100.0797  112.0184   95.7619 H   0  0  0  0  0  0
  102.2200  111.4507   94.6401 H   0  0  0  0  0  0
  105.1057  113.8655   95.1496 H   0  0  0  0  0  0
  105.9498  113.1215   96.5499 H   0  0  0  0  0  0
  107.4334  113.0569   94.4692 H   0  0  0  0  0  0
  106.1414  112.1487   93.6132 H   0  0  0  0  0  0
  106.9854  111.4047   95.0135 H   0  0  0  0  0  0
  1  2  1  0  0  0
  1  6  1  0  0  0
  1 28  1  0  0  0
  1 29  1  0  0  0
  2  3  1  0  0  0
  2 30  1  0  0  0
  2 31  1  0  0  0
  3  4  1  0  0  0
  3 32  1  0  0  0
  3 33  1  0  0  0
  4  5  1  0  0  0
  4 34  1  0  0  0
  4 35  1  0  0  0
  5  6  1  0  0  0
  5 36  1  0  0  0
  5 37  1  0  0  0
  6  7  1  0  0  0
  6 38  1  0  0  0
  7  8  1  0  0  0
  7 39  1  0  0  0
  8  9  1  0  0  0
  8 11  2  0  0  0
  9 10  1  0  0  0
  9 17  2  0  0  0
 10 40  1  0  0  0
 10 41  1  0  0  0
 10 42  1  0  0  0
 11 12  1  0  0  0
 12 13  2  0  0  0
 12 16  1  0  0  0
 13 14  1  0  0  0
 13 43  1  0  0  0
 14 15  2  0  0  0
 14 44  1  0  0  0
 15 16  1  0  0  0
 16 17  1  0  0  0
 17 18  1  0  0  0
 18 19  1  0  0  0
 18 45  1  0  0  0
 19 20  2  0  0  0
 19 22  1  0  0  0
 20 21  1  0  0  0
 20 46  1  0  0  0
 21 24  2  0  0  0
 21 47  1  0  0  0
 22 23  2  0  0  0
 22 48  1  0  0  0
 23 24  1  0  0  0
 23 49  1  0  0  0
 24 25  1  0  0  0
 25 26  1  0  0  0
 26 27  1  0  0  0
 26 50  1  0  0  0
 26 51  1  0  0  0
 27 52  1  0  0  0
 27 53  1  0  0  0
 27 54  1  0  0  0
M  CHG  1   4   1
M  END
> <s_m_source_file>
../3a2c_ligand.sdf

> <i_m_source_file_index>
1

> <s_epik_input>
W0NIMl0xW05IMitdW0NIMl1bQ0gyXVtDSDJdW0NAQEhdMVtOSF1jKG4yKWMoW0NIM10pYyhuKGMyMyluW2NIXVtjSF0zKVtOSF1jNFtjSF1bY0hdYyhbY0hdW2NIXTQpT1tDSDJdW0NIM10=

> <s_epik_cmdline>
J2VwaWtfYXBwJywgJy1pbWFlJywgJ2xpZ2FuZF9wcm8ubWFlJywgJy1vbWFlJywgJ2xpZ2FuZF9wcmVwLm1hZScsICctbXMnLCAnMScsICctcGgnLCAnNycsICctcGh0JywgJzAuNScsICctbnQn

> <r_lp_tautomer_probability>
1

> <r_epik_Ionization_Penalty>
  0.0003

> <r_epik_Ionization_Penalty_Charging>
  0.0003

> <r_epik_Ionization_Penalty_Neutral>
  0.0000

> <r_epik_State_Penalty>
 -0.0000

> <r_epik_Charging_Adjusted_Penalty>
0.000278072219921451

> <i_epik_Tot_Q>
1

> <i_epik_Tot_abs_Q>
1

$$$$
