3a2o_ligand
                    3D
 Schrodinger Suite 2020-3.
 80 82  0  0  1  0            999 V2000
   11.0240   18.9070   16.8340 C   0  0  0  0  0  0
   10.9760   18.0910   18.0940 C   0  0  0  0  0  0
   10.0220   17.0800   18.2210 C   0  0  0  0  0  0
    9.9020   16.2850   19.3570 C   0  0  0  0  0  0
   11.7650   17.5470   20.3170 C   0  0  0  0  0  0
    8.9670   15.3080   19.4530 N   0  0  0  0  0  0
   10.7900   16.5430   20.3800 C   0  0  0  0  0  0
   12.7130   17.7850   21.4510 C   0  0  0  0  0  0
   11.8460   18.3150   19.1800 C   0  0  0  0  0  0
   12.7770   19.3140   19.0470 O   0  0  0  0  0  0
   14.0240   18.8150   18.6060 C   0  0  0  0  0  0
   14.9220   19.9880   18.1900 C   0  0  0  0  0  0
   16.1370   19.7620   18.0700 O   0  0  0  0  0  0
   14.3660   21.1790   17.9830 N   0  0  0  0  0  0
   15.1370   22.3170   17.5390 C   0  0  1  0  0  0
   14.5250   22.9340   16.2820 C   0  0  0  0  0  0
   14.3060   21.9140   15.2100 C   0  0  0  0  0  0
   15.3840   21.4000   14.4500 C   0  0  0  0  0  0
   15.1570   20.3950   13.5230 C   0  0  0  0  0  0
   13.9050   19.8760   13.3500 C   0  0  0  0  0  0
   12.8610   20.3750   14.0450 C   0  0  0  0  0  0
   13.0290   21.4130   14.9900 C   0  0  0  0  0  0
   15.2810   23.3490   18.6880 C   0  0  2  0  0  0
   14.1640   24.1820   18.6920 O   0  0  0  0  0  0
   16.5690   24.1320   18.5140 C   0  0  0  0  0  0
   16.5970   25.1770   17.8480 O   0  0  0  0  0  0
   17.6860   23.6370   19.0540 N   0  0  0  0  0  0
   17.7460   22.4220   19.8900 C   0  0  0  0  0  0
   19.4830   22.0700   20.1240 S   0  0  0  0  0  0
   19.8730   23.8380   20.0240 C   0  0  0  0  0  0
   19.4780   24.5500   21.3290 C   0  0  0  0  0  0
   21.3420   24.0340   19.7270 C   0  0  0  0  0  0
   18.9550   24.3560   18.8850 C   0  0  1  0  0  0
   19.4780   24.1450   17.4670 C   0  0  0  0  0  0
   19.2480   23.1110   16.8400 O   0  0  0  0  0  0
   20.1560   25.1710   16.9610 N   0  0  0  0  0  0
   20.7010   25.1690   15.5940 C   0  0  0  0  0  0
   19.8260   26.0030   14.6830 C   0  0  0  0  0  0
   18.4370   25.5160   14.4550 C   0  0  0  0  0  0
   20.3380   27.1310   14.1250 C   0  0  0  0  0  0
   10.2536   18.5485   16.1354 H   0  0  0  0  0  0
   12.0159   18.8060   16.3694 H   0  0  0  0  0  0
   10.8376   19.9641   17.0744 H   0  0  0  0  0  0
    9.3381   16.9047   17.3905 H   0  0  0  0  0  0
    8.2730   15.1271   18.6190 H   0  0  0  0  0  0
    8.9024   14.6962   20.3649 H   0  0  0  0  0  0
   10.7303   15.9353   21.2829 H   0  0  0  0  0  0
   12.4950   17.0786   22.2656 H   0  0  0  0  0  0
   12.5948   18.8153   21.8176 H   0  0  0  0  0  0
   13.7458   17.6359   21.1030 H   0  0  0  0  0  0
   14.5043   18.2553   19.4221 H   0  0  0  0  0  0
   13.8683   18.1475   17.7456 H   0  0  0  0  0  0
   13.2853   21.2822   18.1603 H   0  0  0  0  0  0
   16.1234   21.9102   17.2715 H   0  0  0  0  0  0
   13.5536   23.3860   16.5311 H   0  0  0  0  0  0
   15.1995   23.7085   15.8880 H   0  0  0  0  0  0
   16.3902   21.7937   14.5935 H   0  0  0  0  0  0
   15.9858   20.0147   12.9258 H   0  0  0  0  0  0
   13.7488   19.0564   12.6486 H   0  0  0  0  0  0
   11.8645   19.9679   13.8735 H   0  0  0  0  0  0
   12.1737   21.8123   15.5351 H   0  0  0  0  0  0
   15.2604   22.9037   19.6936 H   0  0  0  0  0  0
   13.1582   23.7527   18.8102 H   0  0  0  0  0  0
   17.2463   22.6132   20.8511 H   0  0  0  0  0  0
   17.2392   21.5947   19.3715 H   0  0  0  0  0  0
   20.1193   24.1948   22.1491 H   0  0  0  0  0  0
   18.4264   24.3286   21.5636 H   0  0  0  0  0  0
   19.6059   25.6358   21.2075 H   0  0  0  0  0  0
   21.9402   23.6495   20.5662 H   0  0  0  0  0  0
   21.5486   25.1057   19.5901 H   0  0  0  0  0  0
   21.6062   23.4894   18.8085 H   0  0  0  0  0  0
   18.8256   25.4452   18.9677 H   0  0  0  0  0  0
   20.3028   26.0466   17.6104 H   0  0  0  0  0  0
   21.7169   25.5908   15.6037 H   0  0  0  0  0  0
   20.7361   24.1370   15.2148 H   0  0  0  0  0  0
   18.2771   24.5860   15.0203 H   0  0  0  0  0  0
   18.2874   25.3234   13.3824 H   0  0  0  0  0  0
   17.7207   26.2789   14.7939 H   0  0  0  0  0  0
   21.3749   27.4290   14.3396 H   0  0  0  0  0  0
   19.7156   27.7463   13.4586 H   0  0  0  0  0  0
  1  2  1  0  0  0
  1 41  1  0  0  0
  1 42  1  0  0  0
  1 43  1  0  0  0
  2  3  2  0  0  0
  2  9  1  0  0  0
  3  4  1  0  0  0
  3 44  1  0  0  0
  4  6  1  0  0  0
  4  7  2  0  0  0
  5  7  1  0  0  0
  5  8  1  0  0  0
  5  9  2  0  0  0
  6 45  1  0  0  0
  6 46  1  0  0  0
  7 47  1  0  0  0
  8 48  1  0  0  0
  8 49  1  0  0  0
  8 50  1  0  0  0
  9 10  1  0  0  0
 10 11  1  0  0  0
 11 12  1  0  0  0
 11 51  1  0  0  0
 11 52  1  0  0  0
 12 13  2  0  0  0
 12 14  1  0  0  0
 14 15  1  0  0  0
 14 53  1  0  0  0
 15 16  1  0  0  0
 15 23  1  0  0  0
 15 54  1  0  0  0
 16 17  1  0  0  0
 16 55  1  0  0  0
 16 56  1  0  0  0
 17 18  2  0  0  0
 17 22  1  0  0  0
 18 19  1  0  0  0
 18 57  1  0  0  0
 19 20  2  0  0  0
 19 58  1  0  0  0
 20 21  1  0  0  0
 20 59  1  0  0  0
 21 22  2  0  0  0
 21 60  1  0  0  0
 22 61  1  0  0  0
 23 24  1  0  0  0
 23 25  1  0  0  0
 23 62  1  0  0  0
 24 63  1  0  0  0
 25 26  2  0  0  0
 25 27  1  0  0  0
 27 28  1  0  0  0
 27 33  1  0  0  0
 28 29  1  0  0  0
 28 64  1  0  0  0
 28 65  1  0  0  0
 29 30  1  0  0  0
 30 31  1  0  0  0
 30 32  1  0  0  0
 30 33  1  0  0  0
 31 66  1  0  0  0
 31 67  1  0  0  0
 31 68  1  0  0  0
 32 69  1  0  0  0
 32 70  1  0  0  0
 32 71  1  0  0  0
 33 34  1  0  0  0
 33 72  1  0  0  0
 34 35  2  0  0  0
 34 36  1  0  0  0
 36 37  1  0  0  0
 36 73  1  0  0  0
 37 38  1  0  0  0
 37 74  1  0  0  0
 37 75  1  0  0  0
 38 39  1  0  0  0
 38 40  2  0  0  0
 39 76  1  0  0  0
 39 77  1  0  0  0
 39 78  1  0  0  0
 40 79  1  0  0  0
 40 80  1  0  0  0
M  END
> <s_m_source_file>
../3a2o_ligand.sdf

> <i_m_source_file_index>
1

> <s_epik_input>
W0NIM11jMVtjSF1jKFtOSDJdKVtjSF1jKFtDSDNdKWMxT1tDSDJdQyg9TylbTkhdW0NAQEhdKFtDSDJdYzJbY0hdW2NIXVtjSF1bY0hdW2NIXTIpW0NASF0oW09IXSlDKD1PKU4oW0NIMl1TQzMoW0NIM10pW0NIM10pW0NAQEhdM0MoPU8pW05IXVtDSDJdQyhbQ0gzXSk9W0NIMl0=

> <s_epik_cmdline>
J2VwaWtfYXBwJywgJy1pbWFlJywgJ2xpZ2FuZF9wcm8ubWFlJywgJy1vbWFlJywgJ2xpZ2FuZF9wcmVwLm1hZScsICctbXMnLCAnMScsICctcGgnLCAnNycsICctcGh0JywgJzAuNScsICctbnQn

> <r_epik_Ionization_Penalty>
  0.0391

> <r_epik_Ionization_Penalty_Charging>
  0.0000

> <r_epik_Ionization_Penalty_Neutral>
  0.0391

> <r_epik_State_Penalty>
  0.0296

> <r_epik_Charging_Adjusted_Penalty>
0.0296331375430558

> <i_epik_Tot_Q>
0

> <i_epik_Tot_abs_Q>
0

> <s_epik_Chemistry_Notes>
This compound contains an acetal/aminal-like group ( X-CH(R)-Y where X, Y are N, S, or O) that may be acid/base labile, releasing an aldehyde.

$$$$
