3a3y_ligand
                    3D
 Schrodinger Suite 2020-3.
 85 90  0  0  1  0            999 V2000
  148.2050   16.4970   -3.5450 C   0  0  2  0  0  0
  147.7280   15.1070   -3.9900 C   0  0  0  0  0  0
  146.9210   15.1880   -5.2810 C   0  0  1  0  0  0
  145.7270   16.1110   -5.0520 C   0  0  0  0  0  0
  146.1260   17.5110   -4.5640 C   0  0  1  0  0  0
  144.8680   18.3470   -4.3380 C   0  0  0  0  0  0
  144.0840   17.8860   -3.1150 C   0  0  0  0  0  0
  144.9560   17.8490   -1.8520 C   0  0  2  0  0  0
  146.2610   17.0500   -2.0540 C   0  0  1  0  0  0
  147.0530   17.4940   -3.3160 C   0  0  1  0  0  0
  147.0400   17.0220   -0.7270 C   0  0  1  0  0  0
  146.2220   16.2250    0.2710 C   0  0  0  0  0  0
  144.8710   16.8650    0.5870 C   0  0  1  0  0  0
  144.1100   17.4330   -0.6340 C   0  0  2  0  0  0
  143.0340   16.4250   -1.0340 C   0  0  0  0  0  0
  142.8080   15.5080    0.1490 C   0  0  0  0  0  0
  143.9890   15.7100    1.0900 C   0  0  2  0  0  0
  145.1360   17.9430    1.6430 C   0  0  0  0  0  0
  147.5890   18.9220   -3.0650 C   0  0  0  0  0  0
  143.4720   15.8400    2.4930 C   0  0  0  0  0  0
  142.6150   16.9820    3.0260 C   0  0  0  0  0  0
  143.7370   14.8980    3.3970 C   0  0  0  0  0  0
  143.2890   15.4570    4.6690 C   0  0  0  0  0  0
  147.6940   15.1610   -7.6030 C   0  0  2  0  0  0
  148.8660   15.7070   -8.4240 C   0  0  1  0  0  0
  150.1940   15.0610   -8.0170 C   0  0  1  0  0  0
  150.1030   13.5350   -8.0310 C   0  0  2  0  0  0
  148.9060   13.0610   -7.2020 C   0  0  2  0  0  0
  148.6980   11.5570   -7.3300 C   0  0  0  0  0  0
  149.1440   17.0130   -4.5030 O   0  0  0  0  0  0
  147.7800   15.7250   -6.2890 O   0  0  0  0  0  0
  146.8310   18.1440   -5.6330 O   0  0  0  0  0  0
  148.3340   16.4100   -0.8090 O   0  0  0  0  0  0
  143.3930   18.5960   -0.2170 O   0  0  0  0  0  0
  148.9670   18.9360   -2.6580 O   0  0  0  0  0  0
  142.5640   16.6870    4.4240 O   0  0  0  0  0  0
  143.4930   14.9810    5.7710 O   0  0  0  0  0  0
  148.6170   15.5070   -9.8220 O   0  0  0  0  0  0
  151.2380   15.4940   -8.8940 O   0  0  0  0  0  0
  151.3190   12.9790   -7.5140 O   0  0  0  0  0  0
  147.6930   13.7200   -7.6060 O   0  0  0  0  0  0
  148.7601   16.3980   -2.6005 H   0  0  0  0  0  0
  148.5993   14.4578   -4.1611 H   0  0  0  0  0  0
  147.0927   14.6690   -3.2061 H   0  0  0  0  0  0
  146.5849   14.2061   -5.6456 H   0  0  0  0  0  0
  145.1728   16.2342   -5.9942 H   0  0  0  0  0  0
  145.0644   15.6717   -4.2917 H   0  0  0  0  0  0
  145.1495   19.3996   -4.1871 H   0  0  0  0  0  0
  144.2108   18.2655   -5.2164 H   0  0  0  0  0  0
  143.2473   18.5768   -2.9341 H   0  0  0  0  0  0
  143.6920   16.8734   -3.2910 H   0  0  0  0  0  0
  145.3130   18.8673   -1.6385 H   0  0  0  0  0  0
  146.0310   15.9994   -2.2849 H   0  0  0  0  0  0
  147.2664   18.0537   -0.4199 H   0  0  0  0  0  0
  146.0280   15.2204   -0.1330 H   0  0  0  0  0  0
  146.7787   16.1390    1.2158 H   0  0  0  0  0  0
  142.1071   16.9598   -1.2886 H   0  0  0  0  0  0
  143.3768   15.8496   -1.9066 H   0  0  0  0  0  0
  141.8626   15.7745    0.6442 H   0  0  0  0  0  0
  142.7584   14.4657   -0.1992 H   0  0  0  0  0  0
  144.6506   14.8319    1.1232 H   0  0  0  0  0  0
  145.7703   18.7312    1.2112 H   0  0  0  0  0  0
  145.6476   17.4926    2.5064 H   0  0  0  0  0  0
  144.1804   18.3791    1.9695 H   0  0  0  0  0  0
  147.5057   19.5126   -3.9892 H   0  0  0  0  0  0
  146.9989   19.4006   -2.2696 H   0  0  0  0  0  0
  143.1049   17.9419    2.8054 H   0  0  0  0  0  0
  141.6269   16.9552    2.5433 H   0  0  0  0  0  0
  144.2000   13.9504    3.0844 H   0  0  0  0  0  0
  146.6986   15.4231   -7.9910 H   0  0  0  0  0  0
  148.9388   16.7965   -8.2909 H   0  0  0  0  0  0
  150.4839   15.4065   -7.0137 H   0  0  0  0  0  0
  150.0197   13.1592   -9.0614 H   0  0  0  0  0  0
  149.0785   13.3467   -6.1539 H   0  0  0  0  0  0
  149.6157   11.0327   -7.0253 H   0  0  0  0  0  0
  148.4627   11.3070   -8.3751 H   0  0  0  0  0  0
  147.8654   11.2456   -6.6821 H   0  0  0  0  0  0
  150.0288   16.4210   -4.7798 H   0  0  0  0  0  0
  146.3507   18.2604   -6.6157 H   0  0  0  0  0  0
  149.0985   16.8279   -1.4804 H   0  0  0  0  0  0
  143.9406   19.4858    0.1270 H   0  0  0  0  0  0
  149.4687   19.8921   -2.4478 H   0  0  0  0  0  0
  147.7016   15.9090  -10.2806 H   0  0  0  0  0  0
  151.4484   16.5674   -9.0108 H   0  0  0  0  0  0
  152.2801   13.2173   -7.9932 H   0  0  0  0  0  0
  1  2  1  0  0  0
  1 10  1  0  0  0
  1 30  1  0  0  0
  1 42  1  0  0  0
  2  3  1  0  0  0
  2 43  1  0  0  0
  2 44  1  0  0  0
  3  4  1  0  0  0
  3 31  1  0  0  0
  3 45  1  0  0  0
  4  5  1  0  0  0
  4 46  1  0  0  0
  4 47  1  0  0  0
  5  6  1  0  0  0
  5 10  1  0  0  0
  5 32  1  0  0  0
  6  7  1  0  0  0
  6 48  1  0  0  0
  6 49  1  0  0  0
  7  8  1  0  0  0
  7 50  1  0  0  0
  7 51  1  0  0  0
  8  9  1  0  0  0
  8 14  1  0  0  0
  8 52  1  0  0  0
  9 10  1  0  0  0
  9 11  1  0  0  0
  9 53  1  0  0  0
 10 19  1  0  0  0
 11 12  1  0  0  0
 11 33  1  0  0  0
 11 54  1  0  0  0
 12 13  1  0  0  0
 12 55  1  0  0  0
 12 56  1  0  0  0
 13 14  1  0  0  0
 13 17  1  0  0  0
 13 18  1  0  0  0
 14 15  1  0  0  0
 14 34  1  0  0  0
 15 16  1  0  0  0
 15 57  1  0  0  0
 15 58  1  0  0  0
 16 17  1  0  0  0
 16 59  1  0  0  0
 16 60  1  0  0  0
 17 20  1  0  0  0
 17 61  1  0  0  0
 18 62  1  0  0  0
 18 63  1  0  0  0
 18 64  1  0  0  0
 19 35  1  0  0  0
 19 65  1  0  0  0
 19 66  1  0  0  0
 20 21  1  0  0  0
 20 22  2  0  0  0
 21 36  1  0  0  0
 21 67  1  0  0  0
 21 68  1  0  0  0
 22 23  1  0  0  0
 22 69  1  0  0  0
 23 36  1  0  0  0
 23 37  2  0  0  0
 24 25  1  0  0  0
 24 31  1  0  0  0
 24 41  1  0  0  0
 24 70  1  0  0  0
 25 26  1  0  0  0
 25 38  1  0  0  0
 25 71  1  0  0  0
 26 27  1  0  0  0
 26 39  1  0  0  0
 26 72  1  0  0  0
 27 28  1  0  0  0
 27 40  1  0  0  0
 27 73  1  0  0  0
 28 29  1  0  0  0
 28 41  1  0  0  0
 28 74  1  0  0  0
 29 75  1  0  0  0
 29 76  1  0  0  0
 29 77  1  0  0  0
 30 78  1  0  0  0
 32 79  1  0  0  0
 33 80  1  0  0  0
 34 81  1  0  0  0
 35 82  1  0  0  0
 38 83  1  0  0  0
 39 84  1  0  0  0
 40 85  1  0  0  0
M  END
> <s_m_source_file>
../3a3y_ligand.sdf

> <i_m_source_file_index>
1

> <s_epik_input>
W0NIM11bQ0BIXShPMSlbQ0BIXShbT0hdKVtDQEBIXShbT0hdKVtDQEBIXShbT0hdKVtDQEBIXTFPW0NASF0oW0NIMl0yKVtDSDJdW0NAQEhdKFtPSF0pW0NAXShbQ0BAXTIzW09IXSkoW0NIMl1bT0hdKVtDQEBIXTRbQ0BASF0oW0NIMl1bQ0gyXTMpW0NAXTUoW09IXSlbQ0BdKFtDSDNdKShbQ0gyXVtDQEhdNFtPSF0pW0NASF0oW0NIMl1bQ0gyXTUpQzY9W0NIXUMoPU8pT1tDSDJdNg==

> <s_epik_cmdline>
J2VwaWtfYXBwJywgJy1pbWFlJywgJ2xpZ2FuZF9wcm8ubWFlJywgJy1vbWFlJywgJ2xpZ2FuZF9wcmVwLm1hZScsICctbXMnLCAnMScsICctcGgnLCAnNycsICctcGh0JywgJzAuNScsICctbnQn

> <r_lp_tautomer_probability>
1

> <r_epik_Ionization_Penalty>
  0.0000

> <r_epik_Ionization_Penalty_Charging>
  0.0000

> <r_epik_Ionization_Penalty_Neutral>
  0.0000

> <r_epik_State_Penalty>
 -0.0000

> <r_epik_Charging_Adjusted_Penalty>
0

> <i_epik_Tot_Q>
0

> <i_epik_Tot_abs_Q>
0

> <s_epik_Chemistry_Notes>
This compound has an ester and may undergo hydrolysis at high or low pH. This compound contains an acetal/aminal-like group ( X-CH(R)-Y where X, Y are N, S, or O) that may be acid/base labile, releasing an aldehyde.

$$$$
