3a4o_ligand
                    3D
 Schrodinger Suite 2020-3.
 62 69  0  0  1  0            999 V2000
   -2.6710  -25.1710  -19.4540 O   0  0  0  0  0  0
   -2.2480  -24.4910  -18.2460 C   0  0  2  0  0  0
   -3.2940  -24.4990  -17.1250 C   0  0  0  0  0  0
   -4.6190  -25.0330  -17.5980 C   0  0  2  0  0  0
   -4.7620  -24.2120  -18.8620 C   0  0  2  0  0  0
   -3.9320  -24.7970  -19.9590 C   0  0  2  0  0  0
   -4.5820  -26.0670  -20.3920 C   0  0  0  0  0  0
   -3.9640  -23.8180  -21.0600 N   0  0  0  0  0  0
   -3.2060  -22.6700  -20.7170 C   0  0  0  0  0  0
   -2.2570  -22.3750  -19.6330 C   0  0  0  0  0  0
   -1.5850  -21.1330  -19.6040 C   0  0  0  0  0  0
   -1.7730  -20.1360  -20.6210 C   0  0  0  0  0  0
   -2.6640  -20.3830  -21.6720 C   0  0  0  0  0  0
   -3.3370  -21.6400  -21.6830 C   0  0  0  0  0  0
   -4.3290  -22.0700  -22.5990 C   0  0  0  0  0  0
   -4.5880  -23.3930  -22.1720 C   0  0  0  0  0  0
   -5.5710  -24.1080  -22.8530 C   0  0  0  0  0  0
   -6.2150  -23.5300  -23.9760 C   0  0  0  0  0  0
   -5.8880  -22.2350  -24.4210 C   0  0  0  0  0  0
   -4.9320  -21.4780  -23.7200 C   0  0  0  0  0  0
   -2.6440  -19.1050  -22.5290 C   0  0  0  0  0  0
   -1.7120  -18.2250  -21.8080 N   0  0  0  0  0  0
   -1.1620  -18.8810  -20.7420 C   0  0  0  0  0  0
   -0.2480  -18.4520  -20.0640 O   0  0  0  0  0  0
   -0.7600  -21.1220  -18.4460 C   0  0  0  0  0  0
   -0.9750  -22.3960  -17.8770 C   0  0  0  0  0  0
   -0.2870  -22.7930  -16.6990 C   0  0  0  0  0  0
    0.6090  -21.8820  -16.0940 C   0  0  0  0  0  0
    0.8000  -20.6000  -16.6440 C   0  0  0  0  0  0
    0.1220  -20.2140  -17.8350 C   0  0  0  0  0  0
   -1.8480  -23.1130  -18.5810 N   0  0  0  0  0  0
   -5.0340  -23.0190  -18.8880 O   0  0  0  0  0  0
   -6.3250  -22.3730  -18.8250 C   0  0  0  0  0  0
   -5.6280  -24.7260  -16.5980 N   0  3  0  0  0  0
   -6.1030  -26.0050  -16.0730 C   0  0  0  0  0  0
   -1.3708  -25.0572  -17.8997 H   0  0  0  0  0  0
   -2.9415  -25.1343  -16.2991 H   0  0  0  0  0  0
   -3.4469  -23.4731  -16.7588 H   0  0  0  0  0  0
   -4.7320  -26.1186  -17.7345 H   0  0  0  0  0  0
   -5.7955  -23.8980  -19.0699 H   0  0  0  0  0  0
   -4.5547  -26.7930  -19.5660 H   0  0  0  0  0  0
   -4.0435  -26.4775  -21.2589 H   0  0  0  0  0  0
   -5.6273  -25.8675  -20.6705 H   0  0  0  0  0  0
   -5.8445  -25.1102  -22.5229 H   0  0  0  0  0  0
   -6.9787  -24.0997  -24.5055 H   0  0  0  0  0  0
   -6.3734  -21.8209  -25.3047 H   0  0  0  0  0  0
   -4.6689  -20.4684  -24.0357 H   0  0  0  0  0  0
   -2.2918  -19.3485  -23.5423 H   0  0  0  0  0  0
   -3.6591  -18.6849  -22.5847 H   0  0  0  0  0  0
   -1.5469  -17.1949  -22.1568 H   0  0  0  0  0  0
   -0.4471  -23.7820  -16.2695 H   0  0  0  0  0  0
    1.1550  -22.1737  -15.1968 H   0  0  0  0  0  0
    1.4730  -19.8967  -16.1536 H   0  0  0  0  0  0
    0.2849  -19.2268  -18.2675 H   0  0  0  0  0  0
   -6.1920  -21.2822  -18.8745 H   0  0  0  0  0  0
   -6.8225  -22.6393  -17.8808 H   0  0  0  0  0  0
   -6.9432  -22.7058  -19.6718 H   0  0  0  0  0  0
   -5.1791  -24.1177  -15.7989 H   0  0  0  0  0  0
   -6.4505  -24.1660  -17.0669 H   0  0  0  0  0  0
   -6.8727  -25.8243  -15.3082 H   0  0  0  0  0  0
   -5.2612  -26.5524  -15.6239 H   0  0  0  0  0  0
   -6.5326  -26.6007  -16.8919 H   0  0  0  0  0  0
  1  2  1  0  0  0
  1  6  1  0  0  0
  2  3  1  0  0  0
  2 31  1  0  0  0
  2 36  1  0  0  0
  3  4  1  0  0  0
  3 37  1  0  0  0
  3 38  1  0  0  0
  4  5  1  0  0  0
  4 34  1  0  0  0
  4 39  1  0  0  0
  5  6  1  0  0  0
  5 32  1  0  0  0
  5 40  1  0  0  0
  6  7  1  0  0  0
  6  8  1  0  0  0
  7 41  1  0  0  0
  7 42  1  0  0  0
  7 43  1  0  0  0
  8  9  1  0  0  0
  8 16  1  0  0  0
  9 10  2  0  0  0
  9 14  1  0  0  0
 10 11  1  0  0  0
 10 31  1  0  0  0
 11 12  2  0  0  0
 11 25  1  0  0  0
 12 13  1  0  0  0
 12 23  1  0  0  0
 13 14  2  0  0  0
 13 21  1  0  0  0
 14 15  1  0  0  0
 15 16  2  0  0  0
 15 20  1  0  0  0
 16 17  1  0  0  0
 17 18  2  0  0  0
 17 44  1  0  0  0
 18 19  1  0  0  0
 18 45  1  0  0  0
 19 20  2  0  0  0
 19 46  1  0  0  0
 20 47  1  0  0  0
 21 22  1  0  0  0
 21 48  1  0  0  0
 21 49  1  0  0  0
 22 23  1  0  0  0
 22 50  1  0  0  0
 23 24  2  0  0  0
 25 26  2  0  0  0
 25 30  1  0  0  0
 26 27  1  0  0  0
 26 31  1  0  0  0
 27 28  2  0  0  0
 27 51  1  0  0  0
 28 29  1  0  0  0
 28 52  1  0  0  0
 29 30  2  0  0  0
 29 53  1  0  0  0
 30 54  1  0  0  0
 32 33  1  0  0  0
 33 55  1  0  0  0
 33 56  1  0  0  0
 33 57  1  0  0  0
 34 35  1  0  0  0
 34 58  1  0  0  0
 34 59  1  0  0  0
 35 60  1  0  0  0
 35 61  1  0  0  0
 35 62  1  0  0  0
M  CHG  1  34   1
M  END
> <s_m_source_file>
../3a4o_ligand.sdf

> <i_m_source_file_index>
1

> <s_epik_input>
W0NIM11PW0NAQEhdMVtDQEhdKFtOSDIrXVtDSDNdKVtDSDJdW0NAQEhdKE8yKW4zYyhbY0hdW2NIXVtjSF1bY0hdNCljNGMoYzNjNW42W0NAXTEyW0NIM10pYzdjKFtDSDJdW05IXUM3PU8pYzVjOGM2W2NIXVtjSF1bY0hdW2NIXTg=

> <s_epik_cmdline>
J2VwaWtfYXBwJywgJy1pbWFlJywgJ2xpZ2FuZF9wcm8ubWFlJywgJy1vbWFlJywgJ2xpZ2FuZF9wcmVwLm1hZScsICctbXMnLCAnMScsICctcGgnLCAnNycsICctcGh0JywgJzAuNScsICctbnQn

> <r_epik_Ionization_Penalty>
  0.0560

> <r_epik_Ionization_Penalty_Charging>
  0.0560

> <r_epik_Ionization_Penalty_Neutral>
  0.0000

> <r_epik_State_Penalty>
  0.0482

> <r_epik_Charging_Adjusted_Penalty>
0.104192696511962

> <i_epik_Tot_Q>
1

> <i_epik_Tot_abs_Q>
1

> <s_epik_Chemistry_Notes>
This compound contains an acetal/aminal-like group ( X-CH(R)-Y where X, Y are N, S, or O) that may be acid/base labile, releasing an aldehyde.

$$$$
