3a4p_ligand
                    3D
 Schrodinger Suite 2020-3.
 45 47  0  0  1  0            999 V2000
  -26.4880  -19.7530   -2.5780 C   0  0  0  0  0  0
  -25.5060  -20.3830   -1.6950 N   0  0  0  0  0  0
  -24.3700  -19.7870   -1.2970 C   0  0  0  0  0  0
  -23.9990  -18.6600   -1.6490 O   0  0  0  0  0  0
  -23.5800  -20.5570   -0.4260 C   0  0  0  0  0  0
  -22.3230  -20.1790    0.0650 C   0  0  0  0  0  0
  -21.7330  -20.9370    1.1060 C   0  0  0  0  0  0
  -20.9730  -20.2930    2.0910 C   0  0  0  0  0  0
  -20.4290  -21.0120    3.1350 C   0  0  0  0  0  0
  -19.6360  -20.3770    4.0830 C   0  0  0  0  0  0
  -21.9490  -22.2980    1.3090 C   0  0  0  0  0  0
  -21.4330  -22.9740    2.3300 N   0  0  0  0  0  0
  -20.6780  -22.3830    3.2490 C   0  0  0  0  0  0
  -20.1370  -23.1410    4.2900 C   0  0  0  0  0  0
  -19.3700  -22.5020    5.2560 C   0  0  0  0  0  0
  -19.1010  -21.1400    5.1550 C   0  0  0  0  0  0
  -18.3020  -20.5960    6.1210 O   0  0  0  0  0  0
  -17.8120  -19.1660    6.1240 C   0  0  2  0  0  0
  -16.4480  -19.0800    6.8660 C   0  0  0  0  0  0
  -18.9650  -18.3240    6.7330 C   0  0  0  0  0  0
  -19.6940  -18.6780    7.8930 C   0  0  0  0  0  0
  -19.3510  -20.0890    8.8320 Cl  0  0  0  0  0  0
  -20.7350  -17.8510    8.3660 C   0  0  0  0  0  0
  -21.4380  -18.1690    9.4760 F   0  0  0  0  0  0
  -21.0700  -16.6850    7.6920 C   0  0  0  0  0  0
  -20.3740  -16.3540    6.5420 C   0  0  0  0  0  0
  -19.3480  -17.1660    6.0850 C   0  0  0  0  0  0
  -18.5320  -16.6870    4.6710 Cl  0  0  0  0  0  0
  -27.3240  -20.4467   -2.7508 H   0  0  0  0  0  0
  -26.0121  -19.5058   -3.5384 H   0  0  0  0  0  0
  -26.8661  -18.8329   -2.1085 H   0  0  0  0  0  0
  -25.6787  -21.4021   -1.3186 H   0  0  0  0  0  0
  -24.0179  -21.5222   -0.1317 H   0  0  0  0  0  0
  -21.8078  -19.3039   -0.3578 H   0  0  0  0  0  0
  -20.8105  -19.2168    2.0321 H   0  0  0  0  0  0
  -19.4277  -19.3099    4.0052 H   0  0  0  0  0  0
  -22.5725  -22.8354    0.5945 H   0  0  0  0  0  0
  -20.3136  -24.2153    4.3435 H   0  0  0  0  0  0
  -18.9763  -23.0707    6.0984 H   0  0  0  0  0  0
  -17.6025  -18.7891    5.1120 H   0  0  0  0  0  0
  -15.7098  -19.7120    6.3506 H   0  0  0  0  0  0
  -16.5712  -19.4301    7.9015 H   0  0  0  0  0  0
  -16.0983  -18.0371    6.8707 H   0  0  0  0  0  0
  -21.8676  -16.0407    8.0619 H   0  0  0  0  0  0
  -20.6345  -15.4493    5.9926 H   0  0  0  0  0  0
  1  2  1  0  0  0
  1 29  1  0  0  0
  1 30  1  0  0  0
  1 31  1  0  0  0
  2  3  1  0  0  0
  2 32  1  0  0  0
  3  4  2  0  0  0
  3  5  1  0  0  0
  5  6  2  0  0  0
  5 33  1  0  0  0
  6  7  1  0  0  0
  6 34  1  0  0  0
  7  8  2  0  0  0
  7 11  1  0  0  0
  8  9  1  0  0  0
  8 35  1  0  0  0
  9 10  2  0  0  0
  9 13  1  0  0  0
 10 16  1  0  0  0
 10 36  1  0  0  0
 11 12  2  0  0  0
 11 37  1  0  0  0
 12 13  1  0  0  0
 13 14  2  0  0  0
 14 15  1  0  0  0
 14 38  1  0  0  0
 15 16  2  0  0  0
 15 39  1  0  0  0
 16 17  1  0  0  0
 17 18  1  0  0  0
 18 19  1  0  0  0
 18 20  1  0  0  0
 18 40  1  0  0  0
 19 41  1  0  0  0
 19 42  1  0  0  0
 19 43  1  0  0  0
 20 21  2  0  0  0
 20 27  1  0  0  0
 21 22  1  0  0  0
 21 23  1  0  0  0
 23 24  1  0  0  0
 23 25  2  0  0  0
 25 26  1  0  0  0
 25 44  1  0  0  0
 26 27  2  0  0  0
 26 45  1  0  0  0
 27 28  1  0  0  0
M  END
> <s_m_source_file>
../3a4p_ligand.sdf

> <i_m_source_file_index>
1

> <s_epik_input>
W0NIM11bTkhdQyg9TykvW0NIXT1bQ0hdL2MoW2NIXTEpW2NIXW5jKGMxMilbY0hdW2NIXWMoW2NIXTIpT1tDQEhdKFtDSDNdKWMzYyhDbCljKEYpW2NIXVtjSF1jM0Ns

> <s_epik_cmdline>
J2VwaWtfYXBwJywgJy1pbWFlJywgJ2xpZ2FuZF9wcm8ubWFlJywgJy1vbWFlJywgJ2xpZ2FuZF9wcmVwLm1hZScsICctbXMnLCAnMScsICctcGgnLCAnNycsICctcGh0JywgJzAuNScsICctbnQn

> <r_lp_tautomer_probability>
1

> <r_epik_Ionization_Penalty>
  0.0015

> <r_epik_Ionization_Penalty_Charging>
  0.0000

> <r_epik_Ionization_Penalty_Neutral>
  0.0015

> <r_epik_State_Penalty>
 -0.0000

> <r_epik_Charging_Adjusted_Penalty>
0

> <i_epik_Tot_Q>
0

> <i_epik_Tot_abs_Q>
0

$$$$
