3a5y_ligand
                    3D
 Schrodinger Suite 2020-3.
 59 61  0  0  1  0            999 V2000
   -3.7240   -4.2390    3.2760 N   0  3  0  0  0  0
   -3.1590   -2.8830    3.2590 C   0  0  0  0  0  0
   -2.2900   -2.6970    2.0130 C   0  0  0  0  0  0
   -3.0980   -2.8760    0.7260 C   0  0  0  0  0  0
   -2.2500   -2.4790   -0.4830 C   0  0  0  0  0  0
   -3.0410   -2.5780   -1.7890 C   0  0  2  0  0  0
   -3.2670   -3.9910   -2.1280 N   0  3  0  0  0  0
   -2.2450   -1.8860   -2.8970 C   0  0  0  0  0  0
   -1.7770   -2.5520   -3.8190 O   0  5  0  0  0  0
   -2.0920   -0.5690   -2.7960 N   0  0  0  0  0  0
   -1.3090    0.0800   -4.0700 S   0  0  0  0  0  0
   -2.0270   -0.2450   -5.3450 O   0  0  0  0  0  0
   -1.2650    1.5700   -3.9010 O   0  0  0  0  0  0
    0.0270   -0.4330   -4.1550 O   0  0  0  0  0  0
    1.0080   -0.0960   -3.1690 C   0  0  0  0  0  0
    2.2780    0.4700   -3.8100 C   0  0  1  0  0  0
    2.7420   -0.3700   -4.8750 O   0  0  0  0  0  0
    2.0290    1.8030   -4.5160 C   0  0  1  0  0  0
    1.9940    2.8430   -3.5350 O   0  0  0  0  0  0
    3.3200    1.9040   -5.3300 C   0  0  1  0  0  0
    4.4020    2.3940   -4.5310 O   0  0  0  0  0  0
    3.5910    0.4430   -5.7040 C   0  0  2  0  0  0
    3.2080    0.1630   -7.1040 N   0  0  0  0  0  0
    1.9730   -0.0650   -7.5450 C   0  0  0  0  0  0
    2.0110   -0.3080   -8.8530 N   0  0  0  0  0  0
    3.2790   -0.2360   -9.2480 C   0  0  0  0  0  0
    4.0440    0.0700   -8.1330 C   0  0  0  0  0  0
    5.3710    0.2110   -8.2610 N   0  0  0  0  0  0
    5.9500    0.0600   -9.4390 C   0  0  0  0  0  0
    5.2550   -0.2370  -10.5220 N   0  0  0  0  0  0
    3.9250   -0.3950  -10.4680 C   0  0  0  0  0  0
    3.2390   -0.7120  -11.5630 N   0  0  0  0  0  0
   -4.3470   -4.3654    4.1737 H   0  0  0  0  0  0
   -2.9077   -4.9762    3.2894 H   0  0  0  0  0  0
   -4.3404   -4.3907    2.3776 H   0  0  0  0  0  0
   -3.9753   -2.1458    3.2456 H   0  0  0  0  0  0
   -2.5427   -2.7313    4.1574 H   0  0  0  0  0  0
   -1.8604   -1.6844    2.0134 H   0  0  0  0  0  0
   -1.4785   -3.4395    2.0177 H   0  0  0  0  0  0
   -3.4001   -3.9290    0.6262 H   0  0  0  0  0  0
   -3.9943   -2.2395    0.7642 H   0  0  0  0  0  0
   -1.9068   -1.4406   -0.3650 H   0  0  0  0  0  0
   -1.3791   -3.1470   -0.5553 H   0  0  0  0  0  0
   -4.0371   -2.1228   -1.6858 H   0  0  0  0  0  0
   -3.8398   -4.4742   -1.3227 H   0  0  0  0  0  0
   -2.2986   -4.4994   -2.2451 H   0  0  0  0  0  0
   -3.8317   -4.0563   -3.0697 H   0  0  0  0  0  0
    0.5961    0.6614   -2.4859 H   0  0  0  0  0  0
    1.2784   -0.9965   -2.5980 H   0  0  0  0  0  0
    3.0278    0.5219   -3.0069 H   0  0  0  0  0  0
    1.0832    1.9237   -5.0646 H   0  0  0  0  0  0
    1.1347    2.9276   -2.8535 H   0  0  0  0  0  0
    3.2784    2.6232   -6.1613 H   0  0  0  0  0  0
    4.3885    3.4305   -4.1630 H   0  0  0  0  0  0
    4.6509    0.1835   -5.5651 H   0  0  0  0  0  0
    1.0722   -0.0544   -6.9314 H   0  0  0  0  0  0
    7.0300    0.1838   -9.5191 H   0  0  0  0  0  0
    2.1477   -0.8399  -11.5106 H   0  0  0  0  0  0
    3.7631   -0.8462  -12.5208 H   0  0  0  0  0  0
  1  2  1  0  0  0
  1 33  1  0  0  0
  1 34  1  0  0  0
  1 35  1  0  0  0
  2  3  1  0  0  0
  2 36  1  0  0  0
  2 37  1  0  0  0
  3  4  1  0  0  0
  3 38  1  0  0  0
  3 39  1  0  0  0
  4  5  1  0  0  0
  4 40  1  0  0  0
  4 41  1  0  0  0
  5  6  1  0  0  0
  5 42  1  0  0  0
  5 43  1  0  0  0
  6  7  1  0  0  0
  6  8  1  0  0  0
  6 44  1  0  0  0
  7 45  1  0  0  0
  7 46  1  0  0  0
  7 47  1  0  0  0
  8  9  1  0  0  0
  8 10  2  0  0  0
 10 11  1  0  0  0
 11 12  2  0  0  0
 11 13  2  0  0  0
 11 14  1  0  0  0
 14 15  1  0  0  0
 15 16  1  0  0  0
 15 48  1  0  0  0
 15 49  1  0  0  0
 16 17  1  0  0  0
 16 18  1  0  0  0
 16 50  1  0  0  0
 17 22  1  0  0  0
 18 19  1  0  0  0
 18 20  1  0  0  0
 18 51  1  0  0  0
 19 52  1  0  0  0
 20 21  1  0  0  0
 20 22  1  0  0  0
 20 53  1  0  0  0
 21 54  1  0  0  0
 22 23  1  0  0  0
 22 55  1  0  0  0
 23 24  1  0  0  0
 23 27  1  0  0  0
 24 25  2  0  0  0
 24 56  1  0  0  0
 25 26  1  0  0  0
 26 27  2  0  0  0
 26 31  1  0  0  0
 27 28  1  0  0  0
 28 29  2  0  0  0
 29 30  1  0  0  0
 29 57  1  0  0  0
 30 31  2  0  0  0
 31 32  1  0  0  0
 32 58  1  0  0  0
 32 59  1  0  0  0
M  CHG  3   1   1   7   1   9  -1
M  END
> <s_m_source_file>
../3a5y_ligand.sdf

> <i_m_source_file_index>
1

> <s_epik_input>
W05IMytdW0NIMl1bQ0gyXVtDSDJdW0NIMl1bQ0BIXShbTkgzK10pQyg9TylbTkhdUyg9TykoPU8pT1tDSDJdW0NASF0xT1tDQEhdKFtDQEhdKFtPSF0pW0NAQEhdMVtPSF0pbihbY0hdbjIpYyhjMjMpbltjSF1uYzNbTkgyXQ==

> <s_epik_cmdline>
J2VwaWtfYXBwJywgJy1pbWFlJywgJ2xpZ2FuZF9wcm8ubWFlJywgJy1vbWFlJywgJ2xpZ2FuZF9wcmVwLm1hZScsICctbXMnLCAnMScsICctcGgnLCAnNycsICctcGh0JywgJzAuNScsICctbnQn

> <r_lp_tautomer_probability>
0.999997216410988

> <r_epik_Ionization_Penalty>
  0.0240

> <r_epik_Ionization_Penalty_Charging>
  0.0235

> <r_epik_Ionization_Penalty_Neutral>
  0.0004

> <r_epik_State_Penalty>
  0.0186

> <r_epik_Charging_Adjusted_Penalty>
0.0421571062586506

> <i_epik_Tot_Q>
1

> <i_epik_Tot_abs_Q>
3

> <s_epik_Chemistry_Notes>
This compound contains an acetal/aminal-like group ( X-CH(R)-Y where X, Y are N, S, or O) that may be acid/base labile, releasing an aldehyde.

$$$$
