3a73_ligand
                    3D
 Schrodinger Suite 2020-3.
 53 53  0  0  1  0            999 V2000
   28.5910   32.2420  -61.5570 C   0  0  0  0  0  0
   27.5690   35.4570  -62.4570 O   0  5  0  0  0  0
   31.4370   33.1970  -53.6150 O   0  0  0  0  0  0
   25.5590   36.1830  -63.0980 O   0  0  0  0  0  0
   30.8360   29.6150  -57.4860 O   0  0  0  0  0  0
   26.4330   35.5350  -58.2600 C   0  0  0  0  0  0
   27.5000   35.3450  -57.3640 C   0  0  0  0  0  0
   30.1070   34.9270  -53.9920 C   0  0  0  0  0  0
   29.3110   35.4020  -54.9450 C   0  0  0  0  0  0
   30.9350   32.2260  -56.1820 C   0  0  0  0  0  0
   29.8140   31.3300  -61.4930 C   0  0  0  0  0  0
   25.5990   34.5890  -58.8080 C   0  0  0  0  0  0
   28.0120   34.2090  -56.7490 C   0  0  0  0  0  0
   30.5480   31.8750  -57.4620 C   0  0  0  0  0  0
   29.4980   29.8760  -61.2530 C   0  0  0  0  0  0
   25.1870   35.0160  -60.2090 C   0  0  0  0  0  0
   30.2700   29.4830  -60.0410 C   0  0  0  0  0  0
   26.0650   36.1670  -60.7500 C   0  0  0  0  0  0
   30.8900   30.7530  -59.5440 C   0  0  0  0  0  0
   26.4230   35.9180  -62.2260 C   0  0  0  0  0  0
   30.7140   33.8140  -54.3460 C   0  0  0  0  0  0
   30.3600   33.3680  -55.5780 C   0  0  3  0  0  0
   31.2930   30.7730  -58.0990 C   0  0  2  0  0  0
   29.4410   34.5030  -56.1710 C   0  0  2  0  0  0
   28.9152   33.2781  -61.7341 H   0  0  0  0  0  0
   28.0424   32.1870  -60.6052 H   0  0  0  0  0  0
   27.9345   31.9178  -62.3779 H   0  0  0  0  0  0
   31.0337   29.4435  -56.4176 H   0  0  0  0  0  0
   26.1800   36.5477  -58.6071 H   0  0  0  0  0  0
   28.0993   36.2056  -57.0320 H   0  0  0  0  0  0
   30.1985   35.4613  -53.0348 H   0  0  0  0  0  0
   28.7073   36.3025  -54.7591 H   0  0  0  0  0  0
   31.6809   31.6197  -55.6472 H   0  0  0  0  0  0
   30.3626   31.3850  -62.4448 H   0  0  0  0  0  0
   30.4706   31.6541  -60.6721 H   0  0  0  0  0  0
   26.1242   33.6239  -58.8612 H   0  0  0  0  0  0
   24.7015   34.4839  -58.1808 H   0  0  0  0  0  0
   27.3467   33.9056  -55.9272 H   0  0  0  0  0  0
   28.0818   33.3938  -57.4843 H   0  0  0  0  0  0
   29.7221   32.4104  -57.9531 H   0  0  0  0  0  0
   28.4164   29.7577  -61.0911 H   0  0  0  0  0  0
   29.8044   29.2848  -62.1285 H   0  0  0  0  0  0
   25.2822   34.1618  -60.8955 H   0  0  0  0  0  0
   24.1424   35.3605  -60.1950 H   0  0  0  0  0  0
   29.5872   29.0473  -59.2967 H   0  0  0  0  0  0
   31.0333   28.7407  -60.3172 H   0  0  0  0  0  0
   25.5154   37.1165  -60.6692 H   0  0  0  0  0  0
   26.9922   36.2288  -60.1613 H   0  0  0  0  0  0
   31.8053   30.9628  -60.1169 H   0  0  0  0  0  0
   30.1791   31.5826  -59.6719 H   0  0  0  0  0  0
   30.3350   32.2718  -55.6654 H   0  0  0  0  0  0
   32.3838   30.8246  -57.9665 H   0  0  0  0  0  0
   29.9124   34.8934  -57.0850 H   0  0  0  0  0  0
  1 11  1  0  0  0
  1 25  1  0  0  0
  1 26  1  0  0  0
  1 27  1  0  0  0
  2 20  1  0  0  0
  3 21  2  0  0  0
  4 20  2  0  0  0
  5 23  1  0  0  0
  5 28  1  0  0  0
  6  7  2  0  0  0
  6 12  1  0  0  0
  6 29  1  0  0  0
  7 13  1  0  0  0
  7 30  1  0  0  0
  8  9  2  0  0  0
  8 21  1  0  0  0
  8 31  1  0  0  0
  9 24  1  0  0  0
  9 32  1  0  0  0
 10 14  2  0  0  0
 10 22  1  0  0  0
 10 33  1  0  0  0
 11 15  1  0  0  0
 11 34  1  0  0  0
 11 35  1  0  0  0
 12 16  1  0  0  0
 12 36  1  0  0  0
 12 37  1  0  0  0
 13 24  1  0  0  0
 13 38  1  0  0  0
 13 39  1  0  0  0
 14 23  1  0  0  0
 14 40  1  0  0  0
 15 17  1  0  0  0
 15 41  1  0  0  0
 15 42  1  0  0  0
 16 18  1  0  0  0
 16 43  1  0  0  0
 16 44  1  0  0  0
 17 19  1  0  0  0
 17 45  1  0  0  0
 17 46  1  0  0  0
 18 20  1  0  0  0
 18 47  1  0  0  0
 18 48  1  0  0  0
 19 23  1  0  0  0
 19 49  1  0  0  0
 19 50  1  0  0  0
 21 22  1  0  0  0
 22 24  1  0  0  0
 22 51  1  0  0  0
 23 52  1  0  0  0
 24 53  1  0  0  0
M  CHG  1   2  -1
M  END
> <s_m_source_file>
../3a73_ligand.sdf

> <i_m_source_file_index>
1

> <s_epik_input>
W0NIM11bQ0gyXVtDSDJdW0NIMl1bQ0gyXVtDQEhdKFtPSF0pXFtDSF09W0NIXVxbQ0hdMVtDQEhdKFtDSF09W0NIXUMxPU8pW0NIMl0vW0NIXT1bQ0hdXFtDSDJdW0NIMl1bQ0gyXUMoPU8pW09IXQ==

> <s_epik_cmdline>
J2VwaWtfYXBwJywgJy1pbWFlJywgJ2xpZ2FuZF9wcm8ubWFlJywgJy1vbWFlJywgJ2xpZ2FuZF9wcmVwLm1hZScsICctbXMnLCAnMScsICctcGgnLCAnNycsICctcGh0JywgJzAuNScsICctbnQn

> <r_lp_tautomer_probability>
1

> <r_epik_Ionization_Penalty>
  0.0041

> <r_epik_Ionization_Penalty_Charging>
  0.0041

> <r_epik_Ionization_Penalty_Neutral>
  0.0000

> <r_epik_State_Penalty>
 -0.0000

> <r_epik_Charging_Adjusted_Penalty>
0.00410215338423493

> <i_epik_Tot_Q>
-1

> <i_epik_Tot_abs_Q>
1

$$$$
