3a9i_ligand
                    3D
 Schrodinger Suite 2020-3.
 25 24  0  0  1  0            999 V2000
   24.4720   17.8700    1.6860 N   0  3  0  0  0  0
   25.8430   18.4940    1.5890 C   0  0  2  0  0  0
   26.5720   17.8450    0.4150 C   0  0  0  0  0  0
   26.1970   16.7640   -0.0490 O   0  0  0  0  0  0
   26.6050   18.2300    2.8790 C   0  0  0  0  0  0
   27.9560   18.9190    3.0110 C   0  0  0  0  0  0
   28.6080   18.4330    4.3100 C   0  0  0  0  0  0
   29.8120   19.2760    4.6620 C   0  0  0  0  0  0
   30.2730   18.9510    6.0650 N   0  3  0  0  0  0
   27.5510   18.4080   -0.0920 O   0  5  0  0  0  0
   23.9168   18.0582    0.7552 H   0  0  0  0  0  0
   23.9273   18.3116    2.5335 H   0  0  0  0  0  0
   24.5728   16.7855    1.8399 H   0  0  0  0  0  0
   25.7582   19.5803    1.4385 H   0  0  0  0  0  0
   26.0046   18.5701    3.7357 H   0  0  0  0  0  0
   26.8022   17.1520    2.9744 H   0  0  0  0  0  0
   28.5863   18.6584    2.1480 H   0  0  0  0  0  0
   27.8103   20.0088    3.0428 H   0  0  0  0  0  0
   27.8801   18.4980    5.1322 H   0  0  0  0  0  0
   28.9324   17.3889    4.1892 H   0  0  0  0  0  0
   30.6268   19.0653    3.9537 H   0  0  0  0  0  0
   29.5431   20.3411    4.6053 H   0  0  0  0  0  0
   31.1490   19.5674    6.3151 H   0  0  0  0  0  0
   30.5445   17.8867    6.1244 H   0  0  0  0  0  0
   29.4608   19.1625    6.7760 H   0  0  0  0  0  0
  1  2  1  0  0  0
  1 11  1  0  0  0
  1 12  1  0  0  0
  1 13  1  0  0  0
  2  3  1  0  0  0
  2  5  1  0  0  0
  2 14  1  0  0  0
  3  4  2  0  0  0
  3 10  1  0  0  0
  5  6  1  0  0  0
  5 15  1  0  0  0
  5 16  1  0  0  0
  6  7  1  0  0  0
  6 17  1  0  0  0
  6 18  1  0  0  0
  7  8  1  0  0  0
  7 19  1  0  0  0
  7 20  1  0  0  0
  8  9  1  0  0  0
  8 21  1  0  0  0
  8 22  1  0  0  0
  9 23  1  0  0  0
  9 24  1  0  0  0
  9 25  1  0  0  0
M  CHG  3   1   1   9   1  10  -1
M  END
> <s_m_source_file>
../3a9i_ligand.sdf

> <i_m_source_file_index>
1

> <s_epik_input>
Tz1DKFtPSF0pW0NAQEhdKFtOSDMrXSlbQ0gyXVtDSDJdW0NIMl1bQ0gyXVtOSDMrXQ==

> <s_epik_cmdline>
J2VwaWtfYXBwJywgJy1pbWFlJywgJ2xpZ2FuZF9wcm8ubWFlJywgJy1vbWFlJywgJ2xpZ2FuZF9wcmVwLm1hZScsICctbXMnLCAnMScsICctcGgnLCAnNycsICctcGh0JywgJzAuNScsICctbnQn

> <r_lp_tautomer_probability>
1

> <r_epik_Ionization_Penalty>
  0.0018

> <r_epik_Ionization_Penalty_Charging>
  0.0018

> <r_epik_Ionization_Penalty_Neutral>
  0.0000

> <r_epik_State_Penalty>
 -0.0000

> <r_epik_Charging_Adjusted_Penalty>
0.00179235442229703

> <i_epik_Tot_Q>
1

> <i_epik_Tot_abs_Q>
3

$$$$
