3aaq_ligand
                    3D
 Schrodinger Suite 2020-3.
 57 59  0  0  1  0            999 V2000
   35.3140   25.8890   32.6230 N   0  0  0  0  0  0
   34.0220   25.7170   32.6470 C   0  0  0  0  0  0
   33.1840   26.6220   32.2680 N   0  0  0  0  0  0
   33.6440   27.7830   31.8360 C   0  0  0  0  0  0
   34.9900   28.0300   31.8010 C   0  0  0  0  0  0
   35.8430   27.0340   32.2190 C   0  0  0  0  0  0
   37.1500   27.1810   32.2020 N   0  0  0  0  0  0
   35.1490   29.2470   31.3380 N   0  0  0  0  0  0
   33.9480   29.7430   31.1090 C   0  0  0  0  0  0
   33.0320   28.8490   31.4130 N   0  0  0  0  0  0
   31.6010   28.9560   31.2930 C   0  0  1  0  0  0
   30.9810   30.3220   31.4030 C   0  0  2  0  0  0
   30.8570   30.7030   32.7310 O   0  0  0  0  0  0
   29.6330   30.1110   30.7420 C   0  0  2  0  0  0
   28.6010   29.8920   31.6860 O   0  0  0  0  0  0
   29.8520   28.8270   29.9770 C   0  0  2  0  0  0
   31.2570   28.6560   29.9660 O   0  0  0  0  0  0
   29.2850   29.1790   28.6680 C   0  0  0  0  0  0
   30.2360   29.8450   28.0060 O   0  0  0  0  0  0
   37.7680   28.7510   30.4740 C   0  0  0  0  0  0
   37.7410   28.4930   31.9600 C   0  0  0  0  0  0
   38.0140   26.0220   32.3780 C   0  0  0  0  0  0
   39.3240   26.4220   33.0400 C   0  0  0  0  0  0
   27.4530   35.8250   25.7750 O   0  5  0  0  0  0
   27.7700   33.7750   29.5010 Br  0  0  0  0  0  0
   28.0770   32.8980   25.4370 O   0  5  0  0  0  0
   31.0640   31.5270   26.5360 O   0  0  0  0  0  0
   27.7730   36.8310   27.8070 O   0  0  0  0  0  0
   27.2550   35.7550   27.1390 P   0  0  0  0  0  0
   28.1780   34.2130   27.7110 C   0  0  0  0  0  0
   27.7120   32.6580   26.7770 P   0  0  2  0  0  0
   28.5940   31.6460   27.5230 O   0  0  0  0  0  0
   29.8700   30.8620   26.9250 P   0  0  2  0  0  0
   25.9190   35.4960   27.4740 O   0  5  0  0  0  0
   30.0770   34.6190   27.5150 Br  0  0  0  0  0  0
   26.3620   32.3520   26.9140 O   0  0  0  0  0  0
   29.2110   29.9860   25.8300 O   0  5  0  0  0  0
   33.6313   24.7641   33.0039 H   0  0  0  0  0  0
   33.7453   30.7430   30.7256 H   0  0  0  0  0  0
   31.2653   28.2666   32.0816 H   0  0  0  0  0  0
   31.5777   31.1597   31.0129 H   0  0  0  0  0  0
   31.7565   30.8909   33.3356 H   0  0  0  0  0  0
   29.2722   30.9822   30.1756 H   0  0  0  0  0  0
   28.2827   30.7075   32.3520 H   0  0  0  0  0  0
   29.4478   27.8703   30.3394 H   0  0  0  0  0  0
   29.0036   28.2609   28.1315 H   0  0  0  0  0  0
   28.3938   29.8076   28.8115 H   0  0  0  0  0  0
   38.2123   29.7387   30.2814 H   0  0  0  0  0  0
   36.7416   28.7272   30.0790 H   0  0  0  0  0  0
   38.3698   27.9752   29.9780 H   0  0  0  0  0  0
   37.1376   29.2648   32.4602 H   0  0  0  0  0  0
   38.7658   28.5128   32.3592 H   0  0  0  0  0  0
   37.5074   25.2801   33.0128 H   0  0  0  0  0  0
   38.2337   25.5760   31.3968 H   0  0  0  0  0  0
   39.9594   25.5325   33.1626 H   0  0  0  0  0  0
   39.1167   26.8633   34.0260 H   0  0  0  0  0  0
   39.8430   27.1594   32.4100 H   0  0  0  0  0  0
  1  2  1  0  0  0
  1  6  2  0  0  0
  2  3  2  0  0  0
  2 38  1  0  0  0
  3  4  1  0  0  0
  4  5  2  0  0  0
  4 10  1  0  0  0
  5  6  1  0  0  0
  5  8  1  0  0  0
  6  7  1  0  0  0
  7 21  1  0  0  0
  7 22  1  0  0  0
  8  9  2  0  0  0
  9 10  1  0  0  0
  9 39  1  0  0  0
 10 11  1  0  0  0
 11 12  1  0  0  0
 11 17  1  0  0  0
 11 40  1  0  0  0
 12 13  1  0  0  0
 12 14  1  0  0  0
 12 41  1  0  0  0
 13 42  1  0  0  0
 14 15  1  0  0  0
 14 16  1  0  0  0
 14 43  1  0  0  0
 15 44  1  0  0  0
 16 17  1  0  0  0
 16 18  1  0  0  0
 16 45  1  0  0  0
 18 19  1  0  0  0
 18 46  1  0  0  0
 18 47  1  0  0  0
 19 33  1  0  0  0
 20 21  1  0  0  0
 20 48  1  0  0  0
 20 49  1  0  0  0
 20 50  1  0  0  0
 21 51  1  0  0  0
 21 52  1  0  0  0
 22 23  1  0  0  0
 22 53  1  0  0  0
 22 54  1  0  0  0
 23 55  1  0  0  0
 23 56  1  0  0  0
 23 57  1  0  0  0
 24 29  1  0  0  0
 25 30  1  0  0  0
 26 31  1  0  0  0
 27 33  2  0  0  0
 28 29  2  0  0  0
 29 30  1  0  0  0
 29 34  1  0  0  0
 30 31  1  0  0  0
 30 35  1  0  0  0
 31 32  1  0  0  0
 31 36  2  0  0  0
 32 33  1  0  0  0
 33 37  1  0  0  0
M  CHG  4  24  -1  26  -1  34  -1  37  -1
M  END
> <s_m_source_file>
../3aaq_ligand.sdf

> <i_m_source_file_index>
1

> <s_epik_input>
bjFbY0hdbmMoTihbQ0gyXVtDSDNdKVtDSDJdW0NIM10pYyhjMTIpbltjSF1uMltDQEhdM1tDQEhdKFtPSF0pW0NASF0oW09IXSlbQ0BIXShPMylbQ0gyXU9bUEBAXSg9TykoW09IXSlPW1BAXSg9TykoW09IXSlDKEJyKShCcilQKD1PKShbT0hdKVtPSF0=

> <s_epik_cmdline>
J2VwaWtfYXBwJywgJy1pbWFlJywgJ2xpZ2FuZF9wcm8ubWFlJywgJy1vbWFlJywgJ2xpZ2FuZF9wcmVwLm1hZScsICctbXMnLCAnMScsICctcGgnLCAnNycsICctcGh0JywgJzAuNScsICctbnQn

> <r_lp_tautomer_probability>
1

> <r_epik_Ionization_Penalty>
  0.0179

> <r_epik_Ionization_Penalty_Charging>
  0.0171

> <r_epik_Ionization_Penalty_Neutral>
  0.0008

> <r_epik_State_Penalty>
  0.0133

> <r_epik_Charging_Adjusted_Penalty>
0.0304067599099739

> <i_epik_Tot_Q>
-4

> <i_epik_Tot_abs_Q>
4

> <s_epik_Chemistry_Notes>
This compound contains an acetal/aminal-like group ( X-CH(R)-Y where X, Y are N, S, or O) that may be acid/base labile, releasing an aldehyde.

$$$$
