3aav_ligand
                    3D
 Schrodinger Suite 2020-3.
 53 54  0  0  1  0            999 V2000
  -17.0910   44.0060    1.2030 N   0  0  0  0  0  0
  -17.6250   42.7870    1.1520 C   0  0  0  0  0  0
  -17.3710   41.9680    0.0590 C   0  0  0  0  0  0
  -16.4330   42.3620   -0.8870 C   0  0  0  0  0  0
  -16.1780   41.5530   -1.9910 C   0  0  0  0  0  0
  -18.3210   37.3380   -7.9560 C   0  0  0  0  0  0
  -19.1130   36.5870   -8.8180 C   0  0  0  0  0  0
  -19.1960   35.2090   -8.6460 C   0  0  0  0  0  0
  -19.2690   34.5300   -9.7820 C   0  0  0  0  0  0
  -19.6320   35.1940  -10.8330 N   0  3  0  0  0  0
  -18.3950   42.3580    2.1480 N   0  3  0  0  0  0
  -18.0580   40.7670   -0.0950 C   0  0  0  0  0  0
  -17.8040   39.9640   -1.2000 C   0  0  0  0  0  0
  -16.8620   40.3530   -2.1460 C   0  0  0  0  0  0
  -16.5920   39.5530   -3.2110 O   0  0  0  0  0  0
  -17.7310   37.4170   -5.7700 O   0  0  0  0  0  0
  -17.6240   36.7310   -6.9370 C   0  0  0  0  0  0
  -17.6890   35.3370   -6.7610 C   0  0  0  0  0  0
  -18.3940   34.6600   -7.6440 C   0  0  0  0  0  0
  -18.9010   33.2580   -9.6560 N   0  0  0  0  0  0
  -18.5290   38.7940   -1.3940 C   0  0  0  0  0  0
  -18.3740   37.9940   -2.4010 N   0  0  1  0  0  0
  -17.6060   36.7450   -2.3200 C   0  0  0  0  0  0
  -17.8580   35.8710   -3.3710 C   0  0  0  0  0  0
  -16.9980   35.3460   -4.5970 N   0  3  0  0  0  0
  -16.9110   34.5570   -5.7000 C   0  0  0  0  0  0
  -16.4540   44.3623    0.3800 H   0  0  0  0  0  0
  -17.2870   44.6566    2.0681 H   0  0  0  0  0  0
  -15.8973   43.3034   -0.7650 H   0  0  0  0  0  0
  -15.4420   41.8607   -2.7338 H   0  0  0  0  0  0
  -18.2519   38.4176   -8.0890 H   0  0  0  0  0  0
  -19.6644   37.0743   -9.6221 H   0  0  0  0  0  0
  -19.9057   36.2558  -10.7454 H   0  0  0  0  0  0
  -18.5926   43.0109    3.0109 H   0  0  0  0  0  0
  -18.7925   40.4578    0.6486 H   0  0  0  0  0  0
  -15.8462   39.8640   -3.9574 H   0  0  0  0  0  0
  -17.6948   38.5164   -5.7730 H   0  0  0  0  0  0
  -18.3469   33.5725   -7.5871 H   0  0  0  0  0  0
  -18.6218   32.8614   -8.6687 H   0  0  0  0  0  0
  -18.8759   32.6027  -10.5391 H   0  0  0  0  0  0
  -18.3622   38.1143   -0.5453 H   0  0  0  0  0  0
  -19.6000   39.0341   -1.4665 H   0  0  0  0  0  0
  -19.3580   37.6429   -2.7452 H   0  0  0  0  0  0
  -16.5303   36.9745   -2.3329 H   0  0  0  0  0  0
  -17.8576   36.2197   -1.3869 H   0  0  0  0  0  0
  -18.1114   34.8786   -2.9699 H   0  0  0  0  0  0
  -18.6993   36.2503   -3.9696 H   0  0  0  0  0  0
  -16.7128   36.1953   -5.2352 H   0  0  0  0  0  0
  -16.0915   34.8481   -4.2225 H   0  0  0  0  0  0
  -17.3813   33.5741   -5.5492 H   0  0  0  0  0  0
  -15.8722   34.4190   -6.0345 H   0  0  0  0  0  0
  -19.6666   34.6962  -11.8133 H   0  0  0  0  0  0
  -18.8342   41.3503    2.1088 H   0  0  0  0  0  0
  1  2  1  0  0  0
  1 27  1  0  0  0
  1 28  1  0  0  0
  2  3  1  0  0  0
  2 11  2  0  0  0
  3  4  2  0  0  0
  3 12  1  0  0  0
  4  5  1  0  0  0
  4 29  1  0  0  0
  5 14  2  0  0  0
  5 30  1  0  0  0
  6  7  2  0  0  0
  6 17  1  0  0  0
  6 31  1  0  0  0
  7  8  1  0  0  0
  7 32  1  0  0  0
  8  9  1  0  0  0
  8 19  2  0  0  0
  9 10  2  0  0  0
  9 20  1  0  0  0
 10 33  1  0  0  0
 10 52  1  0  0  0
 11 34  1  0  0  0
 11 53  1  0  0  0
 12 13  2  0  0  0
 12 35  1  0  0  0
 13 14  1  0  0  0
 13 21  1  0  0  0
 14 15  1  0  0  0
 15 36  1  0  0  0
 16 17  1  0  0  0
 16 37  1  0  0  0
 17 18  2  0  0  0
 18 19  1  0  0  0
 18 26  1  0  0  0
 19 38  1  0  0  0
 20 39  1  0  0  0
 20 40  1  0  0  0
 21 22  1  0  0  0
 21 41  1  0  0  0
 21 42  1  0  0  0
 22 23  1  0  0  0
 22 43  1  0  0  0
 23 24  1  0  0  0
 23 44  1  0  0  0
 23 45  1  0  0  0
 24 25  1  0  0  0
 24 46  1  0  0  0
 24 47  1  0  0  0
 25 26  1  0  0  0
 25 48  1  0  0  0
 25 49  1  0  0  0
 26 50  1  0  0  0
 26 51  1  0  0  0
M  CHG  3  10   1  11   1  25   1
M  END
> <s_m_source_file>
../3aav_ligand.sdf

> <i_m_source_file_index>
1

> <s_epik_input>
W0hdXE49QyhcW05IMl0pYzFbY0hdW2NIXWMoW09IXSljKFtjSF0xKVtDSDJdW05IMitdW0NIMl1bQ0gyXVtOSDIrXVtDSDJdYyhbY0hdMiljKFtPSF0pW2NIXVtjSF1jMi9DKD1OXFtIXSlbTkgyXQ==

> <s_epik_cmdline>
J2VwaWtfYXBwJywgJy1pbWFlJywgJ2xpZ2FuZF9wcm8ubWFlJywgJy1vbWFlJywgJ2xpZ2FuZF9wcmVwLm1hZScsICctbXMnLCAnMScsICctcGgnLCAnNycsICctcGh0JywgJzAuNScsICctbnQn

> <r_lp_tautomer_probability>
1

> <r_epik_Ionization_Penalty>
  0.1758

> <r_epik_Ionization_Penalty_Charging>
  0.0230

> <r_epik_Ionization_Penalty_Neutral>
  0.1528

> <r_epik_State_Penalty>
 -0.0000

> <r_epik_Charging_Adjusted_Penalty>
0.0229848116790988

> <i_epik_Tot_Q>
3

> <i_epik_Tot_abs_Q>
3

> <s_epik_Chemistry_Notes>
This compound has an imine and may undergo hydrolysis.

$$$$
