3abt_ligand
                    3D
 Schrodinger Suite 2020-3.
106113  0  0  1  0            999 V2000
  -21.6820   38.2340   22.6930 C   0  0  1  0  0  0
  -21.8400   39.7390   22.4860 C   0  0  2  0  0  0
  -21.0300   40.4380   23.4350 O   0  0  0  0  0  0
  -23.3080   39.8260   22.8990 C   0  0  2  0  0  0
  -23.4310   39.6510   24.3130 O   0  0  0  0  0  0
  -23.8890   38.6080   22.1750 C   0  0  2  0  0  0
  -22.7860   37.7140   21.9350 O   0  0  0  0  0  0
  -24.4480   39.0710   20.8290 C   0  0  0  0  0  0
  -25.5520   39.9540   21.0370 O   0  0  0  0  0  0
  -31.5560   49.9520   12.9970 C   0  0  0  0  0  0
  -30.5240   49.0890   13.0890 F   0  0  0  0  0  0
  -25.8090   41.1880   20.0360 P   0  0  1  0  0  0
  -31.6020   51.0490   13.8530 C   0  0  0  0  0  0
  -32.7500   53.0530   14.5070 F   0  0  0  0  0  0
  -26.6860   42.1720   20.7080 O   0  0  0  0  0  0
  -32.5440   49.7480   12.0400 C   0  0  0  0  0  0
  -32.4710   48.6930   11.2010 F   0  0  0  0  0  0
  -24.5110   41.6530   19.4990 O   0  5  0  0  0  0
  -32.6610   51.9490   13.7370 C   0  0  0  0  0  0
  -34.6750   52.6230   12.6760 F   0  0  0  0  0  0
  -33.6000   50.6470   11.9320 C   0  0  0  0  0  0
  -34.5650   50.4530   11.0090 F   0  0  0  0  0  0
  -33.6540   51.7460   12.7820 C   0  0  0  0  0  0
  -20.3920   37.7230   22.1760 N   0  0  0  0  0  0
  -19.7300   36.6760   22.6590 C   0  0  0  0  0  0
  -19.9960   35.8130   23.7290 N   0  0  0  0  0  0
  -19.0980   34.6930   24.0910 C   0  0  0  0  0  0
  -17.9340   34.5810   23.1830 N   0  0  0  0  0  0
  -17.7080   35.4750   22.1280 C   0  0  0  0  0  0
  -16.6410   35.3170   21.3510 N   0  0  0  0  0  0
  -18.5910   36.5190   21.8800 C   0  0  0  0  0  0
  -18.6070   37.4830   20.9640 N   0  0  0  0  0  0
  -19.7050   38.2130   21.1460 C   0  0  0  0  0  0
  -26.6230   40.5160   18.8200 O   0  0  0  0  0  0
  -28.2020   40.2270   18.9520 P   0  0  1  0  0  0
  -28.6680   39.5290   17.7340 O   0  0  0  0  0  0
  -28.4720   39.6060   20.2690 O   0  5  0  0  0  0
  -28.8440   41.7030   18.9720 O   0  0  0  0  0  0
  -28.8820   42.4820   17.7730 C   0  0  0  0  0  0
  -29.3640   43.9060   18.0540 C   0  0  1  0  0  0
  -28.5910   44.4710   19.1160 O   0  0  0  0  0  0
  -29.2380   44.7710   16.7990 C   0  0  1  0  0  0
  -30.1370   44.2850   15.7990 O   0  0  0  0  0  0
  -29.5510   46.2410   17.0900 C   0  0  1  0  0  0
  -28.6960   46.7190   18.1320 O   0  0  0  0  0  0
  -29.3440   47.0840   15.8310 C   0  0  0  0  0  0
  -29.4250   48.5320   16.1270 N   0  0  0  0  0  0
  -30.6570   49.1720   16.2780 C   0  0  2  0  0  0
  -31.8510   48.4470   16.2020 N   0  0  0  0  0  0
  -33.0810   49.0780   16.4260 C   0  0  0  0  0  0
  -34.1180   48.4200   16.3530 O   0  0  0  0  0  0
  -33.1380   50.4400   16.7460 N   0  0  0  0  0  0
  -31.9820   51.2300   16.8130 C   0  0  0  0  0  0
  -32.0770   52.4090   17.1480 O   0  0  0  0  0  0
  -30.6650   50.7020   16.2370 C   0  0  1  0  0  0
  -29.4960   51.2580   16.9400 N   0  0  0  0  0  0
  -28.2680   49.2700   16.4000 C   0  0  0  0  0  0
  -28.3460   50.6270   16.6990 C   0  0  0  0  0  0
  -27.0320   48.6360   16.3390 C   0  0  0  0  0  0
  -27.1670   51.3360   16.9080 C   0  0  0  0  0  0
  -25.9290   50.7080   16.8450 C   0  0  0  0  0  0
  -24.6510   51.5170   17.0740 C   0  0  0  0  0  0
  -30.4220   51.2300   14.8200 C   0  0  2  0  0  0
  -30.1460   52.7030   15.1200 C   0  0  0  0  0  0
  -29.3150   52.6180   16.4020 C   0  0  1  0  0  0
  -29.7860   53.5820   17.3470 O   0  0  0  0  0  0
  -24.6360   48.6930   16.5650 C   0  0  0  0  0  0
  -25.8620   49.3480   16.5670 C   0  0  0  0  0  0
  -21.7018   37.8990   23.7405 H   0  0  0  0  0  0
  -21.5339   40.1792   21.5255 H   0  0  0  0  0  0
  -19.9392   40.4825   23.3001 H   0  0  0  0  0  0
  -23.8057   40.7902   22.7185 H   0  0  0  0  0  0
  -23.0650   40.4304   24.9976 H   0  0  0  0  0  0
  -24.6524   38.0740   22.7599 H   0  0  0  0  0  0
  -23.6628   39.5988   20.2679 H   0  0  0  0  0  0
  -24.7865   38.1975   20.2525 H   0  0  0  0  0  0
  -19.2745   34.0243   24.9335 H   0  0  0  0  0  0
  -15.9385   34.4925   21.5424 H   0  0  0  0  0  0
  -19.9958   39.0757   20.5466 H   0  0  0  0  0  0
  -27.8736   42.5325   17.3365 H   0  0  0  0  0  0
  -29.5700   42.0142   17.0534 H   0  0  0  0  0  0
  -30.4044   43.9015   18.4111 H   0  0  0  0  0  0
  -28.5642   43.9784   20.0992 H   0  0  0  0  0  0
  -28.2230   44.6807   16.3848 H   0  0  0  0  0  0
  -30.0665   43.2422   15.4560 H   0  0  0  0  0  0
  -30.5775   46.3522   17.4693 H   0  0  0  0  0  0
  -28.7063   46.2325   19.1185 H   0  0  0  0  0  0
  -28.3520   46.8710   15.4061 H   0  0  0  0  0  0
  -30.1203   46.8362   15.0921 H   0  0  0  0  0  0
  -30.7614   48.5979   17.2105 H   0  0  0  0  0  0
  -31.8282   47.3731   15.9648 H   0  0  0  0  0  0
  -34.1078   50.9163   16.9527 H   0  0  0  0  0  0
  -26.9812   47.5715   16.1103 H   0  0  0  0  0  0
  -27.2154   52.4031   17.1250 H   0  0  0  0  0  0
  -24.9126   52.5657   17.2782 H   0  0  0  0  0  0
  -24.0183   51.4652   16.1756 H   0  0  0  0  0  0
  -24.1032   51.1018   17.9328 H   0  0  0  0  0  0
  -29.6179   50.6944   14.2942 H   0  0  0  0  0  0
  -29.5961   53.1516   14.2795 H   0  0  0  0  0  0
  -31.0994   53.2337   15.2594 H   0  0  0  0  0  0
  -28.2478   52.8418   16.2574 H   0  0  0  0  0  0
  -29.3051   53.6664   18.3327 H   0  0  0  0  0  0
  -24.7884   47.6303   16.3252 H   0  0  0  0  0  0
  -24.1713   48.7818   17.5580 H   0  0  0  0  0  0
  -23.9782   49.1486   15.8102 H   0  0  0  0  0  0
  -16.4606   36.0108   20.5167 H   0  0  0  0  0  0
  1  2  1  0  0  0
  1  7  1  0  0  0
  1 24  1  0  0  0
  1 69  1  0  0  0
  2  3  1  0  0  0
  2  4  1  0  0  0
  2 70  1  0  0  0
  3 71  1  0  0  0
  4  5  1  0  0  0
  4  6  1  0  0  0
  4 72  1  0  0  0
  5 73  1  0  0  0
  6  7  1  0  0  0
  6  8  1  0  0  0
  6 74  1  0  0  0
  8  9  1  0  0  0
  8 75  1  0  0  0
  8 76  1  0  0  0
  9 12  1  0  0  0
 10 11  1  0  0  0
 10 13  2  0  0  0
 10 16  1  0  0  0
 12 15  2  0  0  0
 12 18  1  0  0  0
 12 34  1  0  0  0
 13 19  1  0  0  0
 13 63  1  0  0  0
 14 19  1  0  0  0
 16 17  1  0  0  0
 16 21  2  0  0  0
 19 23  2  0  0  0
 20 23  1  0  0  0
 21 22  1  0  0  0
 21 23  1  0  0  0
 24 25  1  0  0  0
 24 33  1  0  0  0
 25 26  1  0  0  0
 25 31  2  0  0  0
 26 27  2  0  0  0
 27 28  1  0  0  0
 27 77  1  0  0  0
 28 29  2  0  0  0
 29 30  1  0  0  0
 29 31  1  0  0  0
 30 78  1  0  0  0
 30106  1  0  0  0
 31 32  1  0  0  0
 32 33  2  0  0  0
 33 79  1  0  0  0
 34 35  1  0  0  0
 35 36  2  0  0  0
 35 37  1  0  0  0
 35 38  1  0  0  0
 38 39  1  0  0  0
 39 40  1  0  0  0
 39 80  1  0  0  0
 39 81  1  0  0  0
 40 41  1  0  0  0
 40 42  1  0  0  0
 40 82  1  0  0  0
 41 83  1  0  0  0
 42 43  1  0  0  0
 42 44  1  0  0  0
 42 84  1  0  0  0
 43 85  1  0  0  0
 44 45  1  0  0  0
 44 46  1  0  0  0
 44 86  1  0  0  0
 45 87  1  0  0  0
 46 47  1  0  0  0
 46 88  1  0  0  0
 46 89  1  0  0  0
 47 48  1  0  0  0
 47 57  1  0  0  0
 48 49  1  0  0  0
 48 55  1  0  0  0
 48 90  1  0  0  0
 49 50  1  0  0  0
 49 91  1  0  0  0
 50 51  2  0  0  0
 50 52  1  0  0  0
 52 53  1  0  0  0
 52 92  1  0  0  0
 53 54  2  0  0  0
 53 55  1  0  0  0
 55 56  1  0  0  0
 55 63  1  0  0  0
 56 58  1  0  0  0
 56 65  1  0  0  0
 57 58  2  0  0  0
 57 59  1  0  0  0
 58 60  1  0  0  0
 59 68  2  0  0  0
 59 93  1  0  0  0
 60 61  2  0  0  0
 60 94  1  0  0  0
 61 62  1  0  0  0
 61 68  1  0  0  0
 62 95  1  0  0  0
 62 96  1  0  0  0
 62 97  1  0  0  0
 63 64  1  0  0  0
 63 98  1  0  0  0
 64 65  1  0  0  0
 64 99  1  0  0  0
 64100  1  0  0  0
 65 66  1  0  0  0
 65101  1  0  0  0
 66102  1  0  0  0
 67 68  1  0  0  0
 67103  1  0  0  0
 67104  1  0  0  0
 67105  1  0  0  0
M  CHG  2  18  -1  37  -1
M  END
> <s_m_source_file>
../3abt_ligand.sdf

> <i_m_source_file_index>
1

> <s_epik_input>
bjFbY0hdW25IXS9jKD1OXFtIXSljKGMxMiluW2NIXW4yW0NASF0zW0NASF0oW09IXSlbQ0BIXShbT0hdKVtDQEhdKE8zKVtDSDJdT1tQQEBdKD1PKShbT0hdKU9bUEBAXSg9TykoW09IXSlPW0NIMl1bQ0BASF0oW09IXSlbQ0BASF0oW09IXSlbQ0BASF0oW09IXSlbQ0gyXU4oW0NAQEhdKFtDQEBdNDU2KVtOSF1DKD1PKVtOSF1DND1PKWM3YyhbY0hdYyhbQ0gzXSljKFtjSF03KVtDSDNdKU41W0NASF0oW09IXSlbQ0gyXVtDQEBIXTZjKGM4RiljKEYpYyhGKWMoRiljOEY=

> <s_epik_cmdline>
J2VwaWtfYXBwJywgJy1pbWFlJywgJ2xpZ2FuZF9wcm8ubWFlJywgJy1vbWFlJywgJ2xpZ2FuZF9wcmVwLm1hZScsICctbXMnLCAnMScsICctcGgnLCAnNycsICctcGh0JywgJzAuNScsICctbnQn

> <r_lp_tautomer_probability>
1

> <r_epik_Ionization_Penalty>
  0.0023

> <r_epik_Ionization_Penalty_Charging>
  0.0006

> <r_epik_Ionization_Penalty_Neutral>
  0.0017

> <r_epik_State_Penalty>
 -0.0000

> <r_epik_Charging_Adjusted_Penalty>
0.000586675472376959

> <i_epik_Tot_Q>
-2

> <i_epik_Tot_abs_Q>
2

> <s_epik_Chemistry_Notes>
This compound contains an acetal/aminal-like group ( X-CH(R)-Y where X, Y are N, S, or O) that may be acid/base labile, releasing an aldehyde.

$$$$
