3acx_ligand
                    3D
 Schrodinger Suite 2020-3.
 51 52  0  0  1  0            999 V2000
   56.3780   16.2930   57.5430 C   0  0  0  0  0  0
   52.6540    8.7070   53.9290 C   0  0  0  0  0  0
   52.5750   10.8840   55.2050 C   0  0  0  0  0  0
   56.9430   15.7410   56.4070 C   0  0  0  0  0  0
   58.2420   22.3580   53.7270 C   0  0  0  0  0  0
   57.4630   22.0760   52.6320 C   0  0  0  0  0  0
   58.5460   21.3310   54.6090 C   0  0  0  0  0  0
   57.0470   20.7730   52.4150 C   0  0  0  0  0  0
   58.1220   20.0270   54.3810 C   0  0  0  0  0  0
   56.3720   17.9780   51.8460 C   0  0  0  0  0  0
   55.8350   16.6960   51.7200 C   0  0  0  0  0  0
   56.8210   17.5110   54.1430 C   0  0  0  0  0  0
   56.2240   15.3030   55.2830 C   0  0  0  0  0  0
   55.0340   12.3450   51.8160 C   0  0  0  0  0  0
   54.6010   11.8740   53.2070 C   0  0  0  0  0  0
   55.9130   13.5920   51.9260 C   0  0  0  0  0  0
   53.7210   10.7030   53.0610 N   0  3  0  0  0  0
   55.2290   14.5830   52.6740 O   0  0  0  0  0  0
   57.3810   19.7030   53.2540 C   0  0  0  0  0  0
   56.8940   18.3930   53.0660 C   0  0  0  0  0  0
   56.2800   16.2260   54.0490 C   0  0  0  0  0  0
   55.8020   15.8160   52.8030 C   0  0  0  0  0  0
   53.4150    9.9790   54.3110 C   0  0  0  0  0  0
   55.2869   16.4154   57.6108 H   0  0  0  0  0  0
   57.0199   16.6094   58.3784 H   0  0  0  0  0  0
   52.4082    8.1396   54.8388 H   0  0  0  0  0  0
   53.2808    8.0888   53.2695 H   0  0  0  0  0  0
   51.7262    8.9785   53.4042 H   0  0  0  0  0  0
   52.3389   10.3574   56.1414 H   0  0  0  0  0  0
   51.6411   11.1469   54.6866 H   0  0  0  0  0  0
   53.1389   11.8008   55.4320 H   0  0  0  0  0  0
   58.0341   15.6186   56.3392 H   0  0  0  0  0  0
   58.6139   23.3679   53.8998 H   0  0  0  0  0  0
   57.1753   22.8687   51.9414 H   0  0  0  0  0  0
   59.1311   21.5519   55.5017 H   0  0  0  0  0  0
   56.4254   20.5693   51.5431 H   0  0  0  0  0  0
   58.3757   19.2470   55.0989 H   0  0  0  0  0  0
   56.3822   18.6525   50.9898 H   0  0  0  0  0  0
   55.4340   16.3761   50.7583 H   0  0  0  0  0  0
   57.2057   17.8406   55.1081 H   0  0  0  0  0  0
   56.6139   14.3280   54.9554 H   0  0  0  0  0  0
   55.1601   15.2034   55.5442 H   0  0  0  0  0  0
   55.6050   11.5464   51.3198 H   0  0  0  0  0  0
   54.1435   12.5857   51.2167 H   0  0  0  0  0  0
   55.4898   11.6004   53.7946 H   0  0  0  0  0  0
   54.0598   12.6848   53.7167 H   0  0  0  0  0  0
   56.8547   13.3333   52.4322 H   0  0  0  0  0  0
   56.1317   13.9765   50.9189 H   0  0  0  0  0  0
   52.7549   11.0204   52.6415 H   0  0  0  0  0  0
   54.1915    9.9726   52.3863 H   0  0  0  0  0  0
   54.3444    9.7228   54.8407 H   0  0  0  0  0  0
  1  4  2  0  0  0
  1 24  1  0  0  0
  1 25  1  0  0  0
  2 23  1  0  0  0
  2 26  1  0  0  0
  2 27  1  0  0  0
  2 28  1  0  0  0
  3 23  1  0  0  0
  3 29  1  0  0  0
  3 30  1  0  0  0
  3 31  1  0  0  0
  4 13  1  0  0  0
  4 32  1  0  0  0
  5  6  2  0  0  0
  5  7  1  0  0  0
  5 33  1  0  0  0
  6  8  1  0  0  0
  6 34  1  0  0  0
  7  9  2  0  0  0
  7 35  1  0  0  0
  8 19  2  0  0  0
  8 36  1  0  0  0
  9 19  1  0  0  0
  9 37  1  0  0  0
 10 11  2  0  0  0
 10 20  1  0  0  0
 10 38  1  0  0  0
 11 22  1  0  0  0
 11 39  1  0  0  0
 12 20  2  0  0  0
 12 21  1  0  0  0
 12 40  1  0  0  0
 13 21  1  0  0  0
 13 41  1  0  0  0
 13 42  1  0  0  0
 14 15  1  0  0  0
 14 16  1  0  0  0
 14 43  1  0  0  0
 14 44  1  0  0  0
 15 17  1  0  0  0
 15 45  1  0  0  0
 15 46  1  0  0  0
 16 18  1  0  0  0
 16 47  1  0  0  0
 16 48  1  0  0  0
 17 23  1  0  0  0
 17 49  1  0  0  0
 17 50  1  0  0  0
 18 22  1  0  0  0
 19 20  1  0  0  0
 21 22  2  0  0  0
 23 51  1  0  0  0
M  CHG  1  17   1
M  END
> <s_m_source_file>
../3acx_ligand.sdf

> <i_m_source_file_index>
1

> <s_epik_input>
W0NIM11bQ0hdKFtDSDNdKVtOSDIrXVtDSDJdW0NIMl1bQ0gyXU9jKGMoW2NIXTEpW0NIMl1bQ0hdPVtDSDJdKVtjSF1bY0hdYzEtYzJbY0hdW2NIXVtjSF1bY0hdW2NIXTI=

> <s_epik_cmdline>
J2VwaWtfYXBwJywgJy1pbWFlJywgJ2xpZ2FuZF9wcm8ubWFlJywgJy1vbWFlJywgJ2xpZ2FuZF9wcmVwLm1hZScsICctbXMnLCAnMScsICctcGgnLCAnNycsICctcGh0JywgJzAuNScsICctbnQn

> <r_lp_tautomer_probability>
1

> <r_epik_Ionization_Penalty>
  0.0006

> <r_epik_Ionization_Penalty_Charging>
  0.0006

> <r_epik_Ionization_Penalty_Neutral>
  0.0000

> <r_epik_State_Penalty>
 -0.0000

> <r_epik_Charging_Adjusted_Penalty>
0.000564434977853017

> <i_epik_Tot_Q>
1

> <i_epik_Tot_abs_Q>
1

$$$$
