3adt_ligand
                    3D
 Schrodinger Suite 2020-3.
 22 23  0  0  1  0            999 V2000
   18.4760   65.4180   20.1750 O   0  0  0  0  0  0
   19.1060   63.4780   19.3360 O   0  5  0  0  0  0
   15.1180   63.3750   14.9380 O   0  0  0  0  0  0
   17.1630   62.8490   13.7650 C   0  0  0  0  0  0
   18.5940   62.9080   13.6810 C   0  0  0  0  0  0
   20.7950   64.4580   16.0520 C   0  0  0  0  0  0
   17.2020   64.1070   15.9210 C   0  0  0  0  0  0
   19.3670   65.4810   17.9800 C   0  0  0  0  0  0
   20.6080   63.7780   14.9160 N   0  3  0  0  0  0
   18.9550   64.7190   19.2630 C   0  0  0  0  0  0
   16.4790   63.4450   14.8780 C   0  0  0  0  0  0
   19.6220   64.7200   16.6530 C   0  0  0  0  0  0
   19.3040   63.5730   14.7320 C   0  0  0  0  0  0
   18.6300   64.1720   15.8460 C   0  0  0  0  0  0
   14.5576   62.8674   14.1391 H   0  0  0  0  0  0
   16.5931   62.3500   12.9812 H   0  0  0  0  0  0
   19.1254   62.4597   12.8415 H   0  0  0  0  0  0
   21.7356   64.7984   16.5096 H   0  0  0  0  0  0
   16.6722   64.5557   16.7613 H   0  0  0  0  0  0
   18.5822   66.2050   17.7156 H   0  0  0  0  0  0
   20.3127   66.0139   18.1578 H   0  0  0  0  0  0
   21.4724   63.4829   14.3030 H   0  0  0  0  0  0
  1 10  2  0  0  0
  2 10  1  0  0  0
  3 11  1  0  0  0
  3 15  1  0  0  0
  4  5  2  0  0  0
  4 11  1  0  0  0
  4 16  1  0  0  0
  5 13  1  0  0  0
  5 17  1  0  0  0
  6  9  1  0  0  0
  6 12  2  0  0  0
  6 18  1  0  0  0
  7 11  2  0  0  0
  7 14  1  0  0  0
  7 19  1  0  0  0
  8 10  1  0  0  0
  8 12  1  0  0  0
  8 20  1  0  0  0
  8 21  1  0  0  0
  9 13  1  0  0  0
  9 22  1  0  0  0
 12 14  1  0  0  0
 13 14  2  0  0  0
M  CHG  2   2  -1   9   1
M  END
> <s_m_source_file>
../3adt_ligand.sdf

> <i_m_source_file_index>
1

> <s_epik_input>
Tz1DKFtPSF0pW0NIMl1jKFtjSF1bbkhdMSljKGMxMilbY0hdYyhbT0hdKVtjSF1bY0hdMg==

> <s_epik_cmdline>
J2VwaWtfYXBwJywgJy1pbWFlJywgJ2xpZ2FuZF9wcm8ubWFlJywgJy1vbWFlJywgJ2xpZ2FuZF9wcmVwLm1hZScsICctbXMnLCAnMScsICctcGgnLCAnNycsICctcGh0JywgJzAuNScsICctbnQn

> <r_lp_tautomer_probability>
1

> <r_epik_Ionization_Penalty>
  0.0010

> <r_epik_Ionization_Penalty_Charging>
  0.0006

> <r_epik_Ionization_Penalty_Neutral>
  0.0004

> <r_epik_State_Penalty>
 -0.0000

> <r_epik_Charging_Adjusted_Penalty>
0.000611001419887518

> <i_epik_Tot_Q>
0

> <i_epik_Tot_abs_Q>
2

$$$$
