3adu_ligand
                    3D
 Schrodinger Suite 2020-3.
 25 26  0  0  1  0            999 V2000
   17.6750   65.1430    9.7080 C   0  0  0  0  0  0
   10.7150   60.5950   13.0510 O   0  0  0  0  0  0
   12.0950   60.7340   14.7860 O   0  5  0  0  0  0
   17.4600   64.3360   12.6880 C   0  0  0  0  0  0
   16.9230   64.3430   14.0060 C   0  0  0  0  0  0
   13.6950   63.2020   15.0260 C   0  0  0  0  0  0
   15.3550   63.3310   11.8020 C   0  0  0  0  0  0
   12.3840   62.3190   12.9700 C   0  0  0  0  0  0
   14.8750   63.7320   15.3230 N   0  3  0  0  0  0
   17.3260   63.8810   10.3450 O   0  0  0  0  0  0
   11.6750   61.1140   13.6670 C   0  0  0  0  0  0
   16.7000   63.8390   11.5750 C   0  0  0  0  0  0
   13.5940   62.9360   13.7160 C   0  0  0  0  0  0
   15.6040   63.8420   14.2230 C   0  0  0  0  0  0
   14.8140   63.3360   13.1400 C   0  0  0  0  0  0
   18.1620   64.9438    8.7420 H   0  0  0  0  0  0
   18.3639   65.7033   10.3573 H   0  0  0  0  0  0
   16.7628   65.7353    9.5435 H   0  0  0  0  0  0
   18.4679   64.7153   12.5198 H   0  0  0  0  0  0
   17.5116   64.7262   14.8395 H   0  0  0  0  0  0
   12.8549   62.9766   15.6994 H   0  0  0  0  0  0
   14.7624   62.9507   10.9700 H   0  0  0  0  0  0
   12.7664   62.0017   11.9887 H   0  0  0  0  0  0
   11.6643   63.1398   12.8351 H   0  0  0  0  0  0
   15.1099   64.0036   16.3627 H   0  0  0  0  0  0
  1 10  1  0  0  0
  1 16  1  0  0  0
  1 17  1  0  0  0
  1 18  1  0  0  0
  2 11  2  0  0  0
  3 11  1  0  0  0
  4  5  2  0  0  0
  4 12  1  0  0  0
  4 19  1  0  0  0
  5 14  1  0  0  0
  5 20  1  0  0  0
  6  9  1  0  0  0
  6 13  2  0  0  0
  6 21  1  0  0  0
  7 12  2  0  0  0
  7 15  1  0  0  0
  7 22  1  0  0  0
  8 11  1  0  0  0
  8 13  1  0  0  0
  8 23  1  0  0  0
  8 24  1  0  0  0
  9 14  1  0  0  0
  9 25  1  0  0  0
 10 12  1  0  0  0
 13 15  1  0  0  0
 14 15  2  0  0  0
M  CHG  2   3  -1   9   1
M  END
> <s_m_source_file>
../3adu_ligand.sdf

> <i_m_source_file_index>
1

> <s_epik_input>
W0NIM11PYyhbY0hdW2NIXTEpW2NIXWMoYzEyKWMoW2NIXVtuSF0yKVtDSDJdQyg9TylbT0hd

> <s_epik_cmdline>
J2VwaWtfYXBwJywgJy1pbWFlJywgJ2xpZ2FuZF9wcm8ubWFlJywgJy1vbWFlJywgJ2xpZ2FuZF9wcmVwLm1hZScsICctbXMnLCAnMScsICctcGgnLCAnNycsICctcGh0JywgJzAuNScsICctbnQn

> <r_lp_tautomer_probability>
1

> <r_epik_Ionization_Penalty>
  0.0006

> <r_epik_Ionization_Penalty_Charging>
  0.0006

> <r_epik_Ionization_Penalty_Neutral>
  0.0000

> <r_epik_State_Penalty>
 -0.0000

> <r_epik_Charging_Adjusted_Penalty>
0.000611001419887518

> <i_epik_Tot_Q>
0

> <i_epik_Tot_abs_Q>
2

$$$$
