3agm_ligand
                    3D
 Schrodinger Suite 2020-3.
188190  0  0  1  0            999 V2000
  -17.1780   14.5890   11.4160 N   0  0  0  0  0  0
  -15.8610   14.5550   11.1780 C   0  0  0  0  0  0
  -15.3780   14.6120    9.9500 N   0  0  0  0  0  0
  -16.2100   14.7090    8.9020 C   0  0  0  0  0  0
  -17.5890   14.7570    9.1030 C   0  0  0  0  0  0
  -18.0720   14.7020   10.4140 C   0  0  0  0  0  0
  -19.4500   14.7160   10.7570 N   0  0  0  0  0  0
  -18.1480   14.8680    7.8920 N   0  0  0  0  0  0
  -17.1810   14.8780    6.9730 C   0  0  0  0  0  0
  -15.9950   14.7830    7.5960 N   0  0  0  0  0  0
  -21.1750   15.1510   12.5630 C   0  0  0  0  0  0
  -21.8680   15.0620   10.1160 C   0  0  0  0  0  0
  -19.7780   14.6030   12.2170 C   0  0  0  0  0  0
  -20.4860   14.5850    9.6820 C   0  0  0  0  0  0
  -22.1060   14.6470   11.5160 N   0  0  0  0  0  0
  -30.1610   10.9480    9.2280 O   0  0  0  0  0  0
  -23.2540   13.4840   13.0160 O   0  0  0  0  0  0
  -26.5160   11.8030    9.5140 C   0  0  0  0  0  0
  -25.5030   11.1680   10.4630 C   0  0  0  0  0  0
  -27.3140   10.7440    8.7380 C   0  0  0  0  0  0
  -24.9720   12.2060   11.4600 C   0  0  0  0  0  0
  -28.2980   11.4590    7.8100 C   0  0  0  0  0  0
  -24.0590   13.2500   10.7820 C   0  0  0  0  0  0
  -29.6000   11.7980    8.5410 C   0  0  0  0  0  0
  -23.0970   13.8020   11.8370 C   0  0  0  0  0  0
  -30.0470   13.0510    8.4100 N   0  0  0  0  0  0
  -31.3120   13.4820    9.0580 C   0  0  2  0  0  0
  -31.8050   14.8180    8.4490 C   0  0  0  0  0  0
  -32.2260   15.8380    9.5220 C   0  0  0  0  0  0
  -32.7220   17.1460    8.9120 C   0  0  0  0  0  0
  -31.6560   17.5380    8.0020 N   0  0  0  0  0  0
  -30.9840   18.6810    8.0600 C   0  0  0  0  0  0
  -31.2440   19.6860    8.8950 N   0  0  0  0  0  0
  -30.0320   18.7860    7.1650 N   0  0  0  0  0  0
  -31.1410   13.5470   10.5820 C   0  0  0  0  0  0
  -30.0360   13.7490   11.0850 O   0  0  0  0  0  0
  -32.2500   13.3050   11.2730 N   0  0  0  0  0  0
  -32.3370   13.3480   12.7420 C   0  0  2  0  0  0
  -33.7830   13.0130   13.1260 C   0  0  0  0  0  0
  -34.2220   13.5570   14.4900 C   0  0  0  0  0  0
  -35.7170   13.2890   14.7160 C   0  0  0  0  0  0
  -36.5160   13.9870   13.6860 N   0  0  0  0  0  0
  -37.7090   14.5330   13.9520 C   0  0  0  0  0  0
  -38.2460   14.4790   15.1770 N   0  0  0  0  0  0
  -38.3700   15.1340   12.9650 N   0  0  0  0  0  0
  -31.9450   14.7700   13.1940 C   0  0  0  0  0  0
  -32.4240   15.7650   12.6530 O   0  0  0  0  0  0
  -31.0440   14.8180   14.1630 N   0  0  0  0  0  0
  -30.5090   16.0880   14.6520 C   0  0  2  0  0  0
  -29.1050   15.8430   15.2460 C   0  0  0  0  0  0
  -28.3770   17.1510   15.6190 C   0  0  0  0  0  0
  -28.0200   17.9750   14.3780 C   0  0  0  0  0  0
  -26.5580   18.0470   14.1950 N   0  0  0  0  0  0
  -25.9260   17.3540   13.2390 C   0  0  0  0  0  0
  -26.5710   16.5220   12.4070 N   0  0  0  0  0  0
  -24.6130   17.4910   13.1190 N   0  0  0  0  0  0
  -31.4320   16.7910   15.6710 C   0  0  0  0  0  0
  -31.7120   16.2820   16.7570 O   0  0  0  0  0  0
  -31.8550   17.9930   15.2810 N   0  0  0  0  0  0
  -32.6160   18.8900   16.1650 C   0  0  2  0  0  0
  -33.3020   19.9810   15.3310 C   0  0  0  0  0  0
  -33.8500   21.1510   16.1700 C   0  0  0  0  0  0
  -34.4670   22.2310   15.2700 C   0  0  0  0  0  0
  -34.7890   23.4400   16.0610 N   0  0  0  0  0  0
  -35.9800   23.5640   16.6580 C   0  0  0  0  0  0
  -36.9030   22.6010   16.5600 N   0  0  0  0  0  0
  -36.2590   24.6610   17.3600 N   0  0  0  0  0  0
  -31.5220   19.4540   17.0950 C   0  0  0  0  0  0
  -30.5540   20.0610   16.6390 O   0  0  0  0  0  0
  -31.6180   19.0990   18.3700 N   0  0  0  0  0  0
  -30.6150   19.4960   19.3760 C   0  0  2  0  0  0
  -30.4980   18.4380   20.4760 C   0  0  0  0  0  0
  -30.2560   17.0760   19.8340 C   0  0  0  0  0  0
  -28.8030   16.6310   19.9790 C   0  0  0  0  0  0
  -28.7350   15.1970   19.6550 N   0  0  0  0  0  0
  -29.3310   14.2470   20.3980 C   0  0  0  0  0  0
  -30.0040   14.5340   21.5170 N   0  0  0  0  0  0
  -29.2320   12.9790   20.0080 N   0  0  0  0  0  0
  -31.0010   20.8340   19.9750 C   0  0  0  0  0  0
  -31.9830   20.9580   20.7140 O   0  0  0  0  0  0
  -30.1900   21.8170   19.5990 N   0  0  0  0  0  0
  -30.3860   23.1860   20.0610 C   0  0  2  0  0  0
  -30.0620   24.1830   18.9340 C   0  0  0  0  0  0
  -30.8210   23.8240   17.6350 C   0  0  0  0  0  0
  -30.7900   24.9590   16.6020 C   0  0  0  0  0  0
  -29.4170   25.1680   16.1150 N   0  0  0  0  0  0
  -28.8020   26.3420   16.2430 C   0  0  0  0  0  0
  -27.5540   26.4630   15.7890 N   0  0  0  0  0  0
  -29.3890   27.3860   16.8560 N   0  0  0  0  0  0
  -29.4770   23.3650   21.2780 C   0  0  0  0  0  0
  -29.4030   24.4440   21.8410 O   0  0  0  0  0  0
  -28.8020   22.2770   21.6560 N   0  0  0  0  0  0
  -15.1706   14.4784   12.0180 H   0  0  0  0  0  0
  -17.3289   14.9511    5.8956 H   0  0  0  0  0  0
  -21.4742   14.7903   13.5582 H   0  0  0  0  0  0
  -21.1475   16.2507   12.5646 H   0  0  0  0  0  0
  -21.9176   16.1584   10.0416 H   0  0  0  0  0  0
  -22.6320   14.6153    9.4627 H   0  0  0  0  0  0
  -19.7495   13.5455   12.5184 H   0  0  0  0  0  0
  -19.0411   15.1714   12.8034 H   0  0  0  0  0  0
  -20.1870   15.1847    8.8097 H   0  0  0  0  0  0
  -20.5771   13.5291    9.3872 H   0  0  0  0  0  0
  -27.2250   12.4151   10.0907 H   0  0  0  0  0  0
  -25.9892   12.4389    8.7873 H   0  0  0  0  0  0
  -25.9851   10.3520   11.0213 H   0  0  0  0  0  0
  -24.6588   10.7667    9.8831 H   0  0  0  0  0  0
  -26.6233   10.1249    8.1467 H   0  0  0  0  0  0
  -27.8628   10.1063    9.4466 H   0  0  0  0  0  0
  -25.8175   12.7383   11.9202 H   0  0  0  0  0  0
  -24.3889   11.6982   12.2423 H   0  0  0  0  0  0
  -27.8459   12.3934    7.4461 H   0  0  0  0  0  0
  -28.5343   10.8086    6.9549 H   0  0  0  0  0  0
  -23.4937   12.7701    9.9695 H   0  0  0  0  0  0
  -24.6747   14.0630   10.3699 H   0  0  0  0  0  0
  -29.4637   13.7667    7.8121 H   0  0  0  0  0  0
  -32.0643   12.7082    8.8450 H   0  0  0  0  0  0
  -30.9982   15.2689    7.8526 H   0  0  0  0  0  0
  -32.6755   14.6278    7.8039 H   0  0  0  0  0  0
  -33.0389   15.4154   10.1307 H   0  0  0  0  0  0
  -31.3655   16.0672   10.1677 H   0  0  0  0  0  0
  -33.6713   16.9683    8.3855 H   0  0  0  0  0  0
  -32.8784   17.8867    9.7101 H   0  0  0  0  0  0
  -31.3519   16.8635    7.1880 H   0  0  0  0  0  0
  -32.0452   19.5870    9.6422 H   0  0  0  0  0  0
  -30.6575   20.6148    8.8373 H   0  0  0  0  0  0
  -29.8259   17.9499    6.4806 H   0  0  0  0  0  0
  -33.1410   13.0601   10.6762 H   0  0  0  0  0  0
  -31.6540   12.6107   13.1891 H   0  0  0  0  0  0
  -34.4687   13.4367   12.3775 H   0  0  0  0  0  0
  -33.9092   11.9209   13.1621 H   0  0  0  0  0  0
  -33.6448   13.0623   15.2851 H   0  0  0  0  0  0
  -34.0425   14.6416   14.5272 H   0  0  0  0  0  0
  -35.9093   12.2078   14.6527 H   0  0  0  0  0  0
  -36.0089   13.6557   15.7111 H   0  0  0  0  0  0
  -36.1344   14.0718   12.6578 H   0  0  0  0  0  0
  -37.7022   13.9831   15.9945 H   0  0  0  0  0  0
  -39.2311   14.9305   15.3661 H   0  0  0  0  0  0
  -37.9313   15.1800   11.9573 H   0  0  0  0  0  0
  -30.6986   13.8703   14.6017 H   0  0  0  0  0  0
  -30.4662   16.7317   13.7610 H   0  0  0  0  0  0
  -29.1940   15.2360   16.1590 H   0  0  0  0  0  0
  -28.4836   15.3106   14.5109 H   0  0  0  0  0  0
  -29.0264   17.7609   16.2642 H   0  0  0  0  0  0
  -27.4467   16.9127   16.1555 H   0  0  0  0  0  0
  -28.4647   17.5075   13.4871 H   0  0  0  0  0  0
  -28.4125   18.9964   14.4907 H   0  0  0  0  0  0
  -25.9518   18.6847   14.8552 H   0  0  0  0  0  0
  -27.6604   16.3952   12.4913 H   0  0  0  0  0  0
  -26.0103   15.9667   11.6406 H   0  0  0  0  0  0
  -24.0669   18.1684   13.7920 H   0  0  0  0  0  0
  -31.6147   18.3064   14.2543 H   0  0  0  0  0  0
  -33.4194   18.3691   16.7065 H   0  0  0  0  0  0
  -32.5815   20.4020   14.6143 H   0  0  0  0  0  0
  -34.1511   19.5450   14.7842 H   0  0  0  0  0  0
  -34.6247   20.7787   16.8564 H   0  0  0  0  0  0
  -33.0312   21.6009   16.7507 H   0  0  0  0  0  0
  -33.7524   22.5008   14.4784 H   0  0  0  0  0  0
  -35.3906   21.8448   14.8142 H   0  0  0  0  0  0
  -34.0465   24.2453   16.1616 H   0  0  0  0  0  0
  -36.6874   21.6892   15.9837 H   0  0  0  0  0  0
  -37.8777   22.7208   17.0557 H   0  0  0  0  0  0
  -35.5102   25.4618   17.4498 H   0  0  0  0  0  0
  -32.4828   18.4875   18.6671 H   0  0  0  0  0  0
  -29.6522   19.5846   18.8514 H   0  0  0  0  0  0
  -29.6569   18.6896   21.1387 H   0  0  0  0  0  0
  -31.4298   18.4117   21.0600 H   0  0  0  0  0  0
  -30.8973   16.3239   20.3169 H   0  0  0  0  0  0
  -30.4957   17.1283   18.7617 H   0  0  0  0  0  0
  -28.1720   17.2082   19.2871 H   0  0  0  0  0  0
  -28.4678   16.8044   21.0122 H   0  0  0  0  0  0
  -28.1771   14.8591   18.7692 H   0  0  0  0  0  0
  -30.0943   15.5778   21.8521 H   0  0  0  0  0  0
  -30.4674   13.7263   22.1026 H   0  0  0  0  0  0
  -28.6814   12.7275   19.0895 H   0  0  0  0  0  0
  -29.3553   21.5787   18.9233 H   0  0  0  0  0  0
  -31.4415   23.3286   20.3358 H   0  0  0  0  0  0
  -30.3573   25.1961   19.2446 H   0  0  0  0  0  0
  -28.9820   24.1634   18.7264 H   0  0  0  0  0  0
  -30.3621   22.9360   17.1757 H   0  0  0  0  0  0
  -31.8738   23.6113   17.8723 H   0  0  0  0  0  0
  -31.4372   24.6985   15.7515 H   0  0  0  0  0  0
  -31.1517   25.8880   17.0670 H   0  0  0  0  0  0
  -28.8734   24.3430   15.6314 H   0  0  0  0  0  0
  -27.0668   25.6143   15.2867 H   0  0  0  0  0  0
  -30.4182   27.2945   17.2334 H   0  0  0  0  0  0
  -28.8397   28.3310   16.9797 H   0  0  0  0  0  0
  -28.9191   21.3359   21.0987 H   0  0  0  0  0  0
  -28.1288   22.3216   22.5248 H   0  0  0  0  0  0
  1  2  2  0  0  0
  1  6  1  0  0  0
  2  3  1  0  0  0
  2 93  1  0  0  0
  3  4  2  0  0  0
  4  5  1  0  0  0
  4 10  1  0  0  0
  5  6  2  0  0  0
  5  8  1  0  0  0
  6  7  1  0  0  0
  7 13  1  0  0  0
  7 14  1  0  0  0
  8  9  1  0  0  0
  9 10  2  0  0  0
  9 94  1  0  0  0
 11 13  1  0  0  0
 11 15  1  0  0  0
 11 95  1  0  0  0
 11 96  1  0  0  0
 12 14  1  0  0  0
 12 15  1  0  0  0
 12 97  1  0  0  0
 12 98  1  0  0  0
 13 99  1  0  0  0
 13100  1  0  0  0
 14101  1  0  0  0
 14102  1  0  0  0
 15 25  1  0  0  0
 16 24  2  0  0  0
 17 25  2  0  0  0
 18 19  1  0  0  0
 18 20  1  0  0  0
 18103  1  0  0  0
 18104  1  0  0  0
 19 21  1  0  0  0
 19105  1  0  0  0
 19106  1  0  0  0
 20 22  1  0  0  0
 20107  1  0  0  0
 20108  1  0  0  0
 21 23  1  0  0  0
 21109  1  0  0  0
 21110  1  0  0  0
 22 24  1  0  0  0
 22111  1  0  0  0
 22112  1  0  0  0
 23 25  1  0  0  0
 23113  1  0  0  0
 23114  1  0  0  0
 24 26  1  0  0  0
 26 27  1  0  0  0
 26115  1  0  0  0
 27 28  1  0  0  0
 27 35  1  0  0  0
 27116  1  0  0  0
 28 29  1  0  0  0
 28117  1  0  0  0
 28118  1  0  0  0
 29 30  1  0  0  0
 29119  1  0  0  0
 29120  1  0  0  0
 30 31  1  0  0  0
 30121  1  0  0  0
 30122  1  0  0  0
 31 32  1  0  0  0
 31123  1  0  0  0
 32 33  1  0  0  0
 32 34  2  0  0  0
 33124  1  0  0  0
 33125  1  0  0  0
 34126  1  0  0  0
 35 36  2  0  0  0
 35 37  1  0  0  0
 37 38  1  0  0  0
 37127  1  0  0  0
 38 39  1  0  0  0
 38 46  1  0  0  0
 38128  1  0  0  0
 39 40  1  0  0  0
 39129  1  0  0  0
 39130  1  0  0  0
 40 41  1  0  0  0
 40131  1  0  0  0
 40132  1  0  0  0
 41 42  1  0  0  0
 41133  1  0  0  0
 41134  1  0  0  0
 42 43  1  0  0  0
 42135  1  0  0  0
 43 44  1  0  0  0
 43 45  2  0  0  0
 44136  1  0  0  0
 44137  1  0  0  0
 45138  1  0  0  0
 46 47  2  0  0  0
 46 48  1  0  0  0
 48 49  1  0  0  0
 48139  1  0  0  0
 49 50  1  0  0  0
 49 57  1  0  0  0
 49140  1  0  0  0
 50 51  1  0  0  0
 50141  1  0  0  0
 50142  1  0  0  0
 51 52  1  0  0  0
 51143  1  0  0  0
 51144  1  0  0  0
 52 53  1  0  0  0
 52145  1  0  0  0
 52146  1  0  0  0
 53 54  1  0  0  0
 53147  1  0  0  0
 54 55  1  0  0  0
 54 56  2  0  0  0
 55148  1  0  0  0
 55149  1  0  0  0
 56150  1  0  0  0
 57 58  2  0  0  0
 57 59  1  0  0  0
 59 60  1  0  0  0
 59151  1  0  0  0
 60 61  1  0  0  0
 60 68  1  0  0  0
 60152  1  0  0  0
 61 62  1  0  0  0
 61153  1  0  0  0
 61154  1  0  0  0
 62 63  1  0  0  0
 62155  1  0  0  0
 62156  1  0  0  0
 63 64  1  0  0  0
 63157  1  0  0  0
 63158  1  0  0  0
 64 65  1  0  0  0
 64159  1  0  0  0
 65 66  1  0  0  0
 65 67  2  0  0  0
 66160  1  0  0  0
 66161  1  0  0  0
 67162  1  0  0  0
 68 69  2  0  0  0
 68 70  1  0  0  0
 70 71  1  0  0  0
 70163  1  0  0  0
 71 72  1  0  0  0
 71 79  1  0  0  0
 71164  1  0  0  0
 72 73  1  0  0  0
 72165  1  0  0  0
 72166  1  0  0  0
 73 74  1  0  0  0
 73167  1  0  0  0
 73168  1  0  0  0
 74 75  1  0  0  0
 74169  1  0  0  0
 74170  1  0  0  0
 75 76  1  0  0  0
 75171  1  0  0  0
 76 77  1  0  0  0
 76 78  2  0  0  0
 77172  1  0  0  0
 77173  1  0  0  0
 78174  1  0  0  0
 79 80  2  0  0  0
 79 81  1  0  0  0
 81 82  1  0  0  0
 81175  1  0  0  0
 82 83  1  0  0  0
 82 90  1  0  0  0
 82176  1  0  0  0
 83 84  1  0  0  0
 83177  1  0  0  0
 83178  1  0  0  0
 84 85  1  0  0  0
 84179  1  0  0  0
 84180  1  0  0  0
 85 86  1  0  0  0
 85181  1  0  0  0
 85182  1  0  0  0
 86 87  1  0  0  0
 86183  1  0  0  0
 87 88  2  0  0  0
 87 89  1  0  0  0
 88184  1  0  0  0
 89185  1  0  0  0
 89186  1  0  0  0
 90 91  2  0  0  0
 90 92  1  0  0  0
 92187  1  0  0  0
 92188  1  0  0  0
M  END
> <s_m_source_file>
../3agm_ligand.sdf

> <i_m_source_file_index>
1

> <s_epik_input>
bjFbY0hdW25IXWMoYzEyKWMobltjSF1uMilOM1tDSDJdW0NIMl1OKFtDSDJdW0NIMl0zKUMoPU8pW0NIMl1bQ0gyXVtDSDJdW0NIMl1bQ0gyXVtDSDJdQyg9TylbTkhdW0NASF0oW0NIMl1bQ0gyXVtDSDJdW05IXS9DKFtOSDJdKT1OXFtIXSlDKD1PKVtOSF1bQ0BIXShbQ0gyXVtDSDJdW0NIMl1bTkhdL0MoW05IMl0pPU5cW0hdKUMoPU8pW05IXVtDQEhdKFtDSDJdW0NIMl1bQ0gyXVtOSF0vQyhbTkgyXSk9TlxbSF0pQyg9TylbTkhdW0NASF0oW0NIMl1bQ0gyXVtDSDJdW05IXS9DKFtOSDJdKT1OXFtIXSlDKD1PKVtOSF1bQ0BIXShbQ0gyXVtDSDJdW0NIMl1bTkhdL0MoW05IMl0pPU5cW0hdKUMoPU8pW05IXVtDQEBIXShDKD1PKVtOSDJdKVtDSDJdW0NIMl1bQ0gyXVtOSF0vQyg9TlxbSF0pW05IMl0=

> <s_epik_cmdline>
J2VwaWtfYXBwJywgJy1pbWFlJywgJ2xpZ2FuZF9wcm8ubWFlJywgJy1vbWFlJywgJ2xpZ2FuZF9wcmVwLm1hZScsICctbXMnLCAnMScsICctcGgnLCAnNycsICctcGh0JywgJzAuNScsICctbnQn

> <s_epik_pKa_notes>
Molecule size exceeds maximum supported for generating protonation states

> <s_epik_Chemistry_Notes>
This compound has an imine and may undergo hydrolysis.

$$$$
