3ah8_ligand
                    3D
 Schrodinger Suite 2020-3.
137138  0  0  1  0            999 V2000
    9.3730  -30.8480  -44.9020 C   0  0  0  0  0  0
    8.4960  -30.5610  -45.7080 O   0  0  0  0  0  0
   10.3210  -31.9820  -45.1480 C   0  0  0  0  0  0
    9.2890  -27.7380  -43.7040 C   0  0  0  0  0  0
    9.5530  -30.1840  -43.7580 N   0  0  0  0  0  0
   10.3930  -27.6220  -44.2020 O   0  0  0  0  0  0
    8.6720  -29.0700  -43.4410 C   0  0  1  0  0  0
    8.3020  -29.1120  -41.9620 C   0  0  1  0  0  0
    7.0720  -30.0110  -41.7260 C   0  0  0  0  0  0
    9.4530  -29.4560  -41.1670 O   0  0  0  0  0  0
    5.8380  -29.1050  -41.4860 C   0  0  0  0  0  0
    7.2390  -31.0250  -40.5730 C   0  0  0  0  0  0
   10.1190  -23.2690  -43.0520 C   0  0  0  0  0  0
    9.5260  -24.7920  -44.8970 N   0  0  0  0  0  0
   11.0400  -23.6790  -42.3540 O   0  0  0  0  0  0
    9.1370  -24.2840  -43.5830 C   0  0  1  0  0  0
    9.2040  -25.5430  -42.7040 C   0  0  1  0  0  0
    8.6360  -25.5070  -41.2780 C   0  0  0  0  0  0
    8.4920  -26.5710  -43.3720 O   0  0  0  0  0  0
    8.1410  -24.1590  -40.7540 C   0  0  0  0  0  0
    9.6640  -26.1270  -40.3560 C   0  0  0  0  0  0
   10.0090  -21.9520  -43.2940 N   0  0  0  0  0  0
    9.5020  -20.2390  -44.9320 C   0  0  0  0  0  0
    8.9470  -21.3850  -44.1280 C   0  0  2  0  0  0
    9.7380  -19.1560  -44.4130 O   0  0  0  0  0  0
    7.9880  -21.2500  -41.7860 O   0  0  0  0  0  0
    7.7660  -20.9100  -43.2590 C   0  0  2  0  0  0
    8.0340  -19.7530  -41.0560 C   0  0  0  0  0  0
    6.4470  -21.6170  -43.7990 C   0  0  0  0  0  0
   10.9940  -21.0100  -42.7500 C   0  0  0  0  0  0
   10.8670  -21.5810  -48.5170 N   0  0  0  0  0  0
   11.2660  -22.0760  -49.6960 C   0  0  0  0  0  0
   12.4410  -22.2010  -50.0110 O   0  0  0  0  0  0
   10.1660  -22.4770  -50.6370 C   0  0  0  0  0  0
   11.8010  -21.1380  -47.4810 C   0  0  1  0  0  0
   11.1010  -20.0260  -46.7040 C   0  0  2  0  0  0
    9.7830  -20.4310  -46.3450 O   0  0  0  0  0  0
   11.0080  -18.7450  -47.5200 C   0  0  0  0  0  0
   12.1230  -22.2440  -46.5290 C   0  0  0  0  0  0
   11.2190  -22.9610  -46.1430 O   0  0  0  0  0  0
   13.4290  -24.8610  -45.6970 C   0  0  0  0  0  0
   13.2710  -24.9000  -46.9060 O   0  0  0  0  0  0
   13.7120  -23.4860  -45.1190 C   0  0  2  0  0  0
   13.5010  -22.4530  -46.0920 O   0  0  0  0  0  0
   15.1390  -23.3420  -44.6020 C   0  0  0  0  0  0
   15.0720  -23.4000  -43.0930 C   0  0  0  0  0  0
   14.9460  -23.5370  -40.3030 C   0  0  0  0  0  0
   16.1440  -23.9160  -42.3670 C   0  0  0  0  0  0
   13.9350  -22.9530  -42.4190 C   0  0  0  0  0  0
   16.0820  -23.9810  -40.9750 C   0  0  0  0  0  0
   13.8710  -23.0290  -41.0300 C   0  0  0  0  0  0
   13.3280  -25.9670  -44.9060 N   0  0  0  0  0  0
   13.5000  -25.9510  -43.4550 C   0  0  0  0  0  0
   13.0720  -27.1720  -45.4660 C   0  0  0  0  0  0
   12.9790  -28.2270  -44.6660 C   0  0  0  0  0  0
   12.8380  -27.3580  -46.8980 C   0  0  0  0  0  0
   13.7460  -27.3260  -47.7190 O   0  0  0  0  0  0
   11.5400  -27.5590  -47.1550 N   0  0  0  0  0  0
   10.8970  -27.7670  -48.4460 C   0  0  2  0  0  0
    9.4020  -27.9210  -48.2730 C   0  0  0  0  0  0
    8.8790  -28.9400  -48.7110 O   0  0  0  0  0  0
   11.4740  -28.9940  -49.1560 C   0  0  0  0  0  0
    8.6560  -26.9800  -47.6520 N   0  0  0  0  0  0
    7.2090  -27.1570  -47.5020 C   0  0  0  0  0  0
    9.2520  -25.7430  -47.1190 C   0  0  1  0  0  0
    9.1830  -24.6370  -48.1670 C   0  0  0  0  0  0
    8.6630  -25.2430  -45.8190 C   0  0  0  0  0  0
    7.4550  -25.2590  -45.6390 O   0  0  0  0  0  0
   10.0838  -32.4556  -46.1121 H   0  0  0  0  0  0
   10.2230  -32.7234  -44.3413 H   0  0  0  0  0  0
   11.3521  -31.5995  -45.1713 H   0  0  0  0  0  0
   10.3535  -30.4683  -43.0591 H   0  0  0  0  0  0
    7.8181  -29.2032  -44.1215 H   0  0  0  0  0  0
    8.0585  -28.1069  -41.5871 H   0  0  0  0  0  0
    6.9449  -30.6277  -42.6280 H   0  0  0  0  0  0
   10.3814  -28.8738  -41.2626 H   0  0  0  0  0  0
    5.7391  -28.3923  -42.3180 H   0  0  0  0  0  0
    5.9664  -28.5527  -40.5434 H   0  0  0  0  0  0
    4.9326  -29.7269  -41.4262 H   0  0  0  0  0  0
    8.1193  -31.6561  -40.7644 H   0  0  0  0  0  0
    6.3414  -31.6576  -40.5082 H   0  0  0  0  0  0
    7.3752  -30.4834  -39.6253 H   0  0  0  0  0  0
   10.5877  -24.8213  -45.1831 H   0  0  0  0  0  0
    8.1639  -23.7751  -43.6480 H   0  0  0  0  0  0
   10.2788  -25.7561  -42.6074 H   0  0  0  0  0  0
    7.7048  -26.0923  -41.2949 H   0  0  0  0  0  0
    7.3981  -23.7449  -41.4516 H   0  0  0  0  0  0
    8.9900  -23.4649  -40.6679 H   0  0  0  0  0  0
    7.6787  -24.2972  -39.7655 H   0  0  0  0  0  0
    9.9923  -27.0922  -40.7691 H   0  0  0  0  0  0
    9.2177  -26.2858  -39.3632 H   0  0  0  0  0  0
   10.5290  -25.4535  -40.2656 H   0  0  0  0  0  0
    8.6168  -22.1833  -44.8089 H   0  0  0  0  0  0
    7.7054  -19.8126  -43.3051 H   0  0  0  0  0  0
    8.1922  -19.8772  -39.9745 H   0  0  0  0  0  0
    7.0815  -19.2309  -41.2297 H   0  0  0  0  0  0
    8.8587  -19.1626  -41.4818 H   0  0  0  0  0  0
    6.3022  -21.3622  -44.8592 H   0  0  0  0  0  0
    5.5805  -21.2701  -43.2169 H   0  0  0  0  0  0
    6.5464  -22.7075  -43.6942 H   0  0  0  0  0  0
   11.7318  -21.5589  -42.1464 H   0  0  0  0  0  0
   10.4825  -20.2685  -42.1187 H   0  0  0  0  0  0
   11.5060  -20.4965  -43.5772 H   0  0  0  0  0  0
    9.7826  -21.5150  -48.3446 H   0  0  0  0  0  0
    9.1913  -22.2849  -50.1647 H   0  0  0  0  0  0
   10.2556  -23.5482  -50.8705 H   0  0  0  0  0  0
   10.2456  -21.8916  -51.5649 H   0  0  0  0  0  0
   12.7340  -20.8272  -47.9738 H   0  0  0  0  0  0
   11.6428  -19.8462  -45.7637 H   0  0  0  0  0  0
   12.0187  -18.4181  -47.8058 H   0  0  0  0  0  0
   10.5256  -17.9610  -46.9179 H   0  0  0  0  0  0
   10.4125  -18.9300  -48.4262 H   0  0  0  0  0  0
   12.9824  -23.3312  -44.3105 H   0  0  0  0  0  0
   15.7560  -24.1635  -44.9950 H   0  0  0  0  0  0
   15.5544  -22.3796  -44.9354 H   0  0  0  0  0  0
   14.8979  -23.5865  -39.2152 H   0  0  0  0  0  0
   17.0334  -24.2698  -42.8885 H   0  0  0  0  0  0
   13.0954  -22.5436  -42.9807 H   0  0  0  0  0  0
   16.9252  -24.3805  -40.4116 H   0  0  0  0  0  0
   12.9758  -22.6895  -40.5089 H   0  0  0  0  0  0
   13.7017  -24.9225  -43.1210 H   0  0  0  0  0  0
   14.3452  -26.5986  -43.1788 H   0  0  0  0  0  0
   12.5826  -26.3198  -42.9730 H   0  0  0  0  0  0
   13.1502  -28.1145  -43.5852 H   0  0  0  0  0  0
   12.7307  -29.2138  -45.0837 H   0  0  0  0  0  0
   10.9375  -27.5554  -46.2347 H   0  0  0  0  0  0
   11.1098  -26.8592  -49.0296 H   0  0  0  0  0  0
   12.5605  -28.8709  -49.2761 H   0  0  0  0  0  0
   11.0052  -29.0992  -50.1455 H   0  0  0  0  0  0
   11.2710  -29.8937  -48.5566 H   0  0  0  0  0  0
    6.9095  -28.1189  -47.9437 H   0  0  0  0  0  0
    6.6842  -26.3382  -48.0160 H   0  0  0  0  0  0
    6.9472  -27.1467  -46.4337 H   0  0  0  0  0  0
   10.2837  -26.0466  -46.8878 H   0  0  0  0  0  0
    9.6114  -25.0007  -49.1126 H   0  0  0  0  0  0
    9.7542  -23.7644  -47.8173 H   0  0  0  0  0  0
    8.1337  -24.3483  -48.3269 H   0  0  0  0  0  0
  1  2  2  0  0  0
  1  3  1  0  0  0
  1  5  1  0  0  0
  3 69  1  0  0  0
  3 70  1  0  0  0
  3 71  1  0  0  0
  4  6  2  0  0  0
  4  7  1  0  0  0
  4 19  1  0  0  0
  5  7  1  0  0  0
  5 72  1  0  0  0
  7  8  1  0  0  0
  7 73  1  0  0  0
  8  9  1  0  0  0
  8 10  1  0  0  0
  8 74  1  0  0  0
  9 11  1  0  0  0
  9 12  1  0  0  0
  9 75  1  0  0  0
 10 76  1  0  0  0
 11 77  1  0  0  0
 11 78  1  0  0  0
 11 79  1  0  0  0
 12 80  1  0  0  0
 12 81  1  0  0  0
 12 82  1  0  0  0
 13 15  2  0  0  0
 13 16  1  0  0  0
 13 22  1  0  0  0
 14 16  1  0  0  0
 14 67  1  0  0  0
 14 83  1  0  0  0
 16 17  1  0  0  0
 16 84  1  0  0  0
 17 18  1  0  0  0
 17 19  1  0  0  0
 17 85  1  0  0  0
 18 20  1  0  0  0
 18 21  1  0  0  0
 18 86  1  0  0  0
 20 87  1  0  0  0
 20 88  1  0  0  0
 20 89  1  0  0  0
 21 90  1  0  0  0
 21 91  1  0  0  0
 21 92  1  0  0  0
 22 24  1  0  0  0
 22 30  1  0  0  0
 23 24  1  0  0  0
 23 25  2  0  0  0
 23 37  1  0  0  0
 24 27  1  0  0  0
 24 93  1  0  0  0
 26 27  1  0  0  0
 26 28  1  0  0  0
 27 29  1  0  0  0
 27 94  1  0  0  0
 28 95  1  0  0  0
 28 96  1  0  0  0
 28 97  1  0  0  0
 29 98  1  0  0  0
 29 99  1  0  0  0
 29100  1  0  0  0
 30101  1  0  0  0
 30102  1  0  0  0
 30103  1  0  0  0
 31 32  1  0  0  0
 31 35  1  0  0  0
 31104  1  0  0  0
 32 33  2  0  0  0
 32 34  1  0  0  0
 34105  1  0  0  0
 34106  1  0  0  0
 34107  1  0  0  0
 35 36  1  0  0  0
 35 39  1  0  0  0
 35108  1  0  0  0
 36 37  1  0  0  0
 36 38  1  0  0  0
 36109  1  0  0  0
 38110  1  0  0  0
 38111  1  0  0  0
 38112  1  0  0  0
 39 40  2  0  0  0
 39 44  1  0  0  0
 41 42  2  0  0  0
 41 43  1  0  0  0
 41 52  1  0  0  0
 43 44  1  0  0  0
 43 45  1  0  0  0
 43113  1  0  0  0
 45 46  1  0  0  0
 45114  1  0  0  0
 45115  1  0  0  0
 46 48  2  0  0  0
 46 49  1  0  0  0
 47 50  2  0  0  0
 47 51  1  0  0  0
 47116  1  0  0  0
 48 50  1  0  0  0
 48117  1  0  0  0
 49 51  2  0  0  0
 49118  1  0  0  0
 50119  1  0  0  0
 51120  1  0  0  0
 52 53  1  0  0  0
 52 54  1  0  0  0
 53121  1  0  0  0
 53122  1  0  0  0
 53123  1  0  0  0
 54 55  2  0  0  0
 54 56  1  0  0  0
 55124  1  0  0  0
 55125  1  0  0  0
 56 57  2  0  0  0
 56 58  1  0  0  0
 58 59  1  0  0  0
 58126  1  0  0  0
 59 60  1  0  0  0
 59 62  1  0  0  0
 59127  1  0  0  0
 60 61  2  0  0  0
 60 63  1  0  0  0
 62128  1  0  0  0
 62129  1  0  0  0
 62130  1  0  0  0
 63 64  1  0  0  0
 63 65  1  0  0  0
 64131  1  0  0  0
 64132  1  0  0  0
 64133  1  0  0  0
 65 66  1  0  0  0
 65 67  1  0  0  0
 65134  1  0  0  0
 66135  1  0  0  0
 66136  1  0  0  0
 66137  1  0  0  0
 67 68  2  0  0  0
M  END
> <s_m_source_file>
../3ah8_ligand.sdf

> <i_m_source_file_index>
1

> <s_epik_input>
Tz1DKFtDSDNdKVtOSF1bQ0BASF0oW0NASF0oW09IXSlbQ0hdKFtDSDNdKVtDSDNdKUMoPU8pT1tDQEhdKFtDSF0oW0NIM10pW0NIM10pW0NAQEhdKEMxPU8pW05IXUMoPU8pW0NASF0oW0NIM10pTihbQ0gzXSlDKD1PKVtDQEhdKFtDSDNdKVtOSF1DKD1PKUMoPVtDSDJdKU4oW0NIM10pQyg9TylbQ0BASF0oW0NIMl1jMltjSF1bY0hdW2NIXVtjSF1bY0hdMilPQyg9TylbQ0BASF0oW05IXUMoPU8pW0NIM10pW0NAQEhdKFtDSDNdKU9DKD1PKVtDQEBIXShOMVtDSDNdKVtDQEBIXShbQ0gzXSlPW0NIM10=

> <s_epik_cmdline>
J2VwaWtfYXBwJywgJy1pbWFlJywgJ2xpZ2FuZF9wcm8ubWFlJywgJy1vbWFlJywgJ2xpZ2FuZF9wcmVwLm1hZScsICctbXMnLCAnMScsICctcGgnLCAnNycsICctcGh0JywgJzAuNScsICctbnQn

> <r_lp_tautomer_probability>
1

> <r_epik_Ionization_Penalty>
  0.0000

> <r_epik_Ionization_Penalty_Charging>
  0.0000

> <r_epik_Ionization_Penalty_Neutral>
  0.0000

> <r_epik_State_Penalty>
 -0.0000

> <r_epik_Charging_Adjusted_Penalty>
0

> <i_epik_Tot_Q>
0

> <i_epik_Tot_abs_Q>
0

> <s_epik_Chemistry_Notes>
This compound has an ester and may undergo hydrolysis at high or low pH.

$$$$
