3aid_ligand
                    3D
 Schrodinger Suite 2020-3.
 74 76  0  0  1  0            999 V2000
    1.4740    1.3210   11.3540 C   0  0  0  0  0  0
    0.5620    0.2520   12.0360 C   0  0  0  0  0  0
    0.6750    2.6330   11.4100 C   0  0  0  0  0  0
    1.8520    1.0060    9.8910 C   0  0  0  0  0  0
    2.6640    1.5540   12.1080 O   0  0  0  0  0  0
    3.5110    0.5710   12.4000 C   0  0  0  0  0  0
    3.3990   -0.5330   11.9700 O   0  0  0  0  0  0
    4.4970    0.9940   13.1930 N   0  0  0  0  0  0
    5.7160    0.2690   13.5580 C   0  0  1  0  0  0
    6.9530    1.1630   13.3460 C   0  0  0  0  0  0
    6.9750    1.8240   11.9980 C   0  0  0  0  0  0
    6.8150    1.0510   10.8260 C   0  0  0  0  0  0
    6.7910    1.7010    9.5740 C   0  0  0  0  0  0
    6.9270    3.1100    9.5190 C   0  0  0  0  0  0
    7.1140    3.2320   11.9410 C   0  0  0  0  0  0
    7.0850    3.8880   10.6920 C   0  0  0  0  0  0
    5.6420   -0.3190   14.9980 C   0  0  1  0  0  0
    5.2480    0.6510   15.9800 O   0  0  0  0  0  0
    4.6690   -1.5250   15.0080 C   0  0  0  0  0  0
    4.9980   -2.6690   15.9100 N   0  3  1  0  0  0
    5.4410   -2.2190   17.2490 C   0  0  0  0  0  0
    3.7180   -3.4410   16.0240 C   0  0  0  0  0  0
    3.7240   -4.6950   16.8830 C   0  0  0  0  0  0
    4.0550   -5.9400   16.3080 C   0  0  0  0  0  0
    4.1620   -7.1060   17.1090 C   0  0  0  0  0  0
    3.9570   -7.0060   18.5050 C   0  0  0  0  0  0
    3.3860   -4.6320   18.2480 C   0  0  0  0  0  0
    3.5020   -5.7910   19.0630 C   0  0  0  0  0  0
    6.1210   -3.3330   15.2910 N   0  0  0  0  0  0
    6.0670   -4.0330   14.1400 C   0  0  0  0  0  0
    5.0150   -4.2240   13.5230 O   0  5  0  0  0  0
    7.3600   -4.5790   13.6740 C   0  0  0  0  0  0
    7.3430   -5.4900   12.5820 C   0  0  0  0  0  0
    8.5210   -6.1010   12.1230 C   0  0  0  0  0  0
    9.7140   -5.7960   12.7960 C   0  0  0  0  0  0
    8.5930   -4.2220   14.2790 C   0  0  0  0  0  0
    9.7810   -4.8390   13.8380 C   0  0  0  0  0  0
    1.0732   -0.7220   12.0326 H   0  0  0  0  0  0
   -0.3850    0.1710   11.4823 H   0  0  0  0  0  0
    0.3556    0.5542   13.0734 H   0  0  0  0  0  0
    1.2604    3.4390   10.9434 H   0  0  0  0  0  0
    0.4668    2.8910   12.4588 H   0  0  0  0  0  0
   -0.2739    2.5078   10.8678 H   0  0  0  0  0  0
    2.4915    1.8093    9.4964 H   0  0  0  0  0  0
    0.9378    0.9334    9.2836 H   0  0  0  0  0  0
    2.3961    0.0508    9.8504 H   0  0  0  0  0  0
    4.3200    2.0057   13.5869 H   0  0  0  0  0  0
    5.7618   -0.5738   12.8526 H   0  0  0  0  0  0
    6.9666    1.9567   14.1075 H   0  0  0  0  0  0
    7.8649    0.5542   13.4345 H   0  0  0  0  0  0
    6.7116   -0.0323   10.8883 H   0  0  0  0  0  0
    6.6689    1.1242    8.6572 H   0  0  0  0  0  0
    6.9096    3.6080    8.5496 H   0  0  0  0  0  0
    7.2429    3.8068   12.8581 H   0  0  0  0  0  0
    7.1823    4.9719   10.6311 H   0  0  0  0  0  0
    6.6486   -0.5930   15.3468 H   0  0  0  0  0  0
    5.8328    1.5740   16.1069 H   0  0  0  0  0  0
    3.6696   -1.1872   15.3196 H   0  0  0  0  0  0
    4.6114   -1.9581   13.9985 H   0  0  0  0  0  0
    6.3801   -1.6541   17.1538 H   0  0  0  0  0  0
    5.6035   -3.0945   17.8948 H   0  0  0  0  0  0
    4.6685   -1.5740   17.6932 H   0  0  0  0  0  0
    2.9389   -2.7971   16.4581 H   0  0  0  0  0  0
    3.4019   -3.7765   15.0252 H   0  0  0  0  0  0
    4.2308   -6.0069   15.2344 H   0  0  0  0  0  0
    4.3994   -8.0676   16.6540 H   0  0  0  0  0  0
    4.1497   -7.8645   19.1484 H   0  0  0  0  0  0
    3.0354   -3.6947   18.6800 H   0  0  0  0  0  0
    3.2395   -5.7419   20.1198 H   0  0  0  0  0  0
    6.3967   -5.7185   12.0916 H   0  0  0  0  0  0
    8.5092   -6.7865   11.2757 H   0  0  0  0  0  0
   10.6263   -6.3168   12.5050 H   0  0  0  0  0  0
    8.6210   -3.4789   15.0759 H   0  0  0  0  0  0
   10.7381   -4.5832   14.2926 H   0  0  0  0  0  0
  1  5  1  0  0  0
  1  4  1  0  0  0
  1  3  1  0  0  0
  1  2  1  0  0  0
  2 38  1  0  0  0
  2 39  1  0  0  0
  2 40  1  0  0  0
  3 41  1  0  0  0
  3 42  1  0  0  0
  3 43  1  0  0  0
  4 44  1  0  0  0
  4 45  1  0  0  0
  4 46  1  0  0  0
  5  6  1  0  0  0
  6  8  1  0  0  0
  6  7  2  0  0  0
  8  9  1  0  0  0
  8 47  1  0  0  0
  9 17  1  0  0  0
  9 10  1  0  0  0
  9 48  1  0  0  0
 10 11  1  0  0  0
 10 49  1  0  0  0
 10 50  1  0  0  0
 11 15  2  0  0  0
 11 12  1  0  0  0
 12 13  2  0  0  0
 12 51  1  0  0  0
 13 14  1  0  0  0
 13 52  1  0  0  0
 14 16  2  0  0  0
 14 53  1  0  0  0
 15 16  1  0  0  0
 15 54  1  0  0  0
 16 55  1  0  0  0
 17 19  1  0  0  0
 17 18  1  0  0  0
 17 56  1  0  0  0
 18 57  1  0  0  0
 19 20  1  0  0  0
 19 58  1  0  0  0
 19 59  1  0  0  0
 20 29  1  0  0  0
 20 22  1  0  0  0
 20 21  1  0  0  0
 21 60  1  0  0  0
 21 61  1  0  0  0
 21 62  1  0  0  0
 22 23  1  0  0  0
 22 63  1  0  0  0
 22 64  1  0  0  0
 23 27  2  0  0  0
 23 24  1  0  0  0
 24 25  2  0  0  0
 24 65  1  0  0  0
 25 26  1  0  0  0
 25 66  1  0  0  0
 26 28  2  0  0  0
 26 67  1  0  0  0
 27 28  1  0  0  0
 27 68  1  0  0  0
 28 69  1  0  0  0
 29 30  2  0  0  0
 30 32  1  0  0  0
 30 31  1  0  0  0
 32 36  2  0  0  0
 32 33  1  0  0  0
 33 34  2  0  0  0
 33 70  1  0  0  0
 34 35  1  0  0  0
 34 71  1  0  0  0
 35 37  2  0  0  0
 35 72  1  0  0  0
 36 37  1  0  0  0
 36 73  1  0  0  0
 37 74  1  0  0  0
M  CHG  2  20   1  31  -1
M  END
> <s_m_source_file>
../3aid_ligand.sdf

> <i_m_source_file_index>
1

> <s_epik_input>
W2NIXTFbY0hdW2NIXVtjSF1bY0hdYzFbQ0gyXVtDQEhdKFtOSF1DKD1PKU9DKFtDSDNdKShbQ0gzXSlbQ0gzXSlbQ0BASF0oW09IXSlbQ0gyXVtOQEArXShbQ0gzXSkoW0NIMl1jMltjSF1bY0hdW2NIXVtjSF1bY0hdMilbTkhdQyg9TyljM1tjSF1bY0hdW2NIXVtjSF1bY0hdMw==

> <s_epik_cmdline>
J2VwaWtfYXBwJywgJy1pbWFlJywgJ2xpZ2FuZF9wcm8ubWFlJywgJy1vbWFlJywgJ2xpZ2FuZF9wcmVwLm1hZScsICctbXMnLCAnMScsICctcGgnLCAnNycsICctcGh0JywgJzAuNScsICctbnQn

> <r_lp_tautomer_probability>
1

> <r_epik_Ionization_Penalty>
  0.0012

> <r_epik_Ionization_Penalty_Charging>
  0.0006

> <r_epik_Ionization_Penalty_Neutral>
  0.0006

> <r_epik_State_Penalty>
 -0.0000

> <r_epik_Charging_Adjusted_Penalty>
0.000648374030175426

> <i_epik_Tot_Q>
0

> <i_epik_Tot_abs_Q>
2

> <s_epik_Chemistry_Notes>
This compound has an ester and may undergo hydrolysis at high or low pH.

$$$$
