3al3_ligand
                    3D
 Schrodinger Suite 2020-3.
177180  0  0  1  0            999 V2000
  -15.0540   -0.2860   -8.2630 N   0  3  0  0  0  0
  -16.0870    0.7900   -8.0380 C   0  0  2  0  0  0
  -16.4160    1.0390   -6.5660 C   0  0  0  0  0  0
  -16.5570    0.0930   -5.7910 O   0  0  0  0  0  0
  -17.3680    0.5120   -8.8250 C   0  0  0  0  0  0
  -18.4230    1.3860   -8.4300 O   0  0  0  0  0  0
  -16.5300    2.3170   -6.1970 N   0  0  0  0  0  0
  -16.9510    2.7010   -4.8420 C   0  0  2  0  0  0
  -18.3250    2.1390   -4.4520 C   0  0  0  0  0  0
  -18.6620    2.0760   -3.2660 O   0  0  0  0  0  0
  -16.9820    4.2480   -4.6220 C   0  0  2  0  0  0
  -17.9020    4.9310   -5.6420 C   0  0  0  0  0  0
  -15.5810    4.8340   -4.6450 C   0  0  0  0  0  0
  -18.2080    6.4190   -5.3450 C   0  0  0  0  0  0
  -19.1090    1.7490   -5.4520 N   0  0  0  0  0  0
  -20.4420    1.2320   -5.2440 C   0  0  2  0  0  0
  -20.4750   -0.3110   -5.1930 C   0  0  0  0  0  0
  -21.5520   -0.8880   -5.0530 O   0  0  0  0  0  0
  -21.3860    1.7510   -6.3400 C   0  0  0  0  0  0
  -21.4360    3.2710   -6.5020 C   0  0  0  0  0  0
  -21.8110    4.0930   -5.4330 C   0  0  0  0  0  0
  -21.1370    3.8830   -7.7330 C   0  0  0  0  0  0
  -21.8810    5.4920   -5.5730 C   0  0  0  0  0  0
  -21.2160    5.2960   -7.8950 C   0  0  0  0  0  0
  -21.5890    6.0860   -6.7930 C   0  0  0  0  0  0
  -21.6720    7.4650   -6.8850 O   0  0  0  0  0  0
  -19.3210   -0.9760   -5.3440 N   0  0  0  0  0  0
  -19.2550   -2.4360   -5.1830 C   0  0  2  0  0  0
  -18.8780   -2.7080   -3.7230 C   0  0  0  0  0  0
  -17.9670   -2.0820   -3.1920 O   0  0  0  0  0  0
  -18.2150   -3.1020   -6.1100 C   0  0  0  0  0  0
  -18.4300   -2.8890   -7.6090 C   0  0  0  0  0  0
  -19.6110   -2.3280   -8.1290 C   0  0  0  0  0  0
  -17.4370   -3.3010   -8.5040 C   0  0  0  0  0  0
  -19.7850   -2.1600   -9.5120 C   0  0  0  0  0  0
  -17.5840   -3.1190   -9.9050 C   0  0  0  0  0  0
  -18.7530   -2.5500  -10.4110 C   0  0  0  0  0  0
  -19.5690   -3.6320   -3.0700 N   0  0  0  0  0  0
  -19.2940   -3.9320   -1.6730 C   0  0  1  0  0  0
  -20.2200   -5.0330   -1.1640 C   0  0  1  0  0  0
  -20.1010   -5.2240    0.3500 C   0  0  0  0  0  0
  -21.5610   -4.6790   -1.4940 O   0  0  0  0  0  0
  -22.4280   -5.4420   -2.6360 P   0  0  0  0  0  0
  -23.8300   -5.0270   -2.3340 O   0  0  0  0  0  0
  -21.8920   -4.9010   -3.9310 O   0  0  0  0  0  0
  -22.1790   -6.9120   -2.3890 O   0  0  0  0  0  0
  -17.8550   -4.3690   -1.5370 C   0  0  0  0  0  0
  -17.4160   -5.2690   -2.2630 O   0  0  0  0  0  0
  -17.0910   -3.7280   -0.6250 N   0  0  0  0  0  0
  -15.7040   -4.1570   -0.4150 C   0  0  2  0  0  0
  -15.5830   -5.6550   -0.1240 C   0  0  0  0  0  0
  -16.4790   -6.2520    0.4920 O   0  0  0  0  0  0
  -15.2480   -3.3290    0.7940 C   0  0  0  0  0  0
  -16.0680   -2.0590    0.7120 C   0  0  0  0  0  0
  -17.4210   -2.5120    0.1410 C   0  0  0  0  0  0
  -14.4920   -6.2490   -0.6090 N   0  0  0  0  0  0
  -14.1210   -7.6210   -0.2920 C   0  0  2  0  0  0
  -13.8510   -7.7950    1.2120 C   0  0  0  0  0  0
  -13.6340   -6.8200    1.9280 O   0  0  0  0  0  0
  -12.8580   -8.0180   -1.0790 C   0  0  0  0  0  0
  -13.0280   -8.1400   -2.5990 C   0  0  0  0  0  0
  -11.9810   -9.0490   -3.2280 C   0  0  0  0  0  0
  -10.7880   -8.9660   -2.8480 O   0  0  0  0  0  0
  -12.3460   -9.8780   -4.0840 O   0  0  0  0  0  0
  -13.8150   -9.0430    1.6660 N   0  0  0  0  0  0
  -13.5020   -9.3750    3.0610 C   0  0  2  0  0  0
  -11.9950   -9.5750    3.2760 C   0  0  0  0  0  0
  -11.5670  -10.0570    4.3270 O   0  0  0  0  0  0
  -14.2890  -10.6230    3.4850 C   0  0  0  0  0  0
  -15.8050  -10.4820    3.6950 C   0  0  0  0  0  0
  -16.4520  -11.8430    3.7530 C   0  0  0  0  0  0
  -16.1540   -9.6610    4.9610 C   0  0  0  0  0  0
  -11.2080   -9.1760    2.2750 N   0  0  0  0  0  0
   -9.7580   -9.3680    2.2240 C   0  0  2  0  0  0
   -9.0300   -8.1490    1.6690 C   0  0  0  0  0  0
   -9.5880   -7.4160    0.8560 O   0  0  0  0  0  0
   -9.4290  -10.5730    1.3350 C   0  0  0  0  0  0
  -10.0650  -11.8570    1.8260 C   0  0  0  0  0  0
   -9.4420  -12.6240    2.8020 C   0  0  0  0  0  0
  -11.3060  -12.2850    1.3330 C   0  0  0  0  0  0
  -10.0180  -13.7960    3.2750 C   0  0  0  0  0  0
  -11.8950  -13.4660    1.8010 C   0  0  0  0  0  0
  -11.2410  -14.2120    2.7730 C   0  0  0  0  0  0
  -11.7880  -15.3810    3.2450 O   0  0  0  0  0  0
   -7.7870   -7.9520    2.1030 N   0  0  0  0  0  0
   -6.8530   -7.0100    1.4700 C   0  0  2  0  0  0
   -6.4700   -7.5090    0.0800 C   0  0  0  0  0  0
   -7.0150   -7.0530   -0.9230 O   0  0  0  0  0  0
   -5.5650   -6.8580    2.2970 C   0  0  0  0  0  0
   -5.8140   -6.3120    3.7000 C   0  0  0  0  0  0
   -6.9110   -5.7850    3.9780 O   0  0  0  0  0  0
   -4.8930   -6.3970    4.5350 O   0  0  0  0  0  0
   -5.5855   -8.3981   -0.0411 O   0  0  0  0  0  0
  -14.1491   -0.0527   -7.6827 H   0  0  0  0  0  0
  -14.8014   -0.3339   -9.3325 H   0  0  0  0  0  0
  -15.4582   -1.2560   -7.9379 H   0  0  0  0  0  0
  -15.6093    1.7048   -8.4188 H   0  0  0  0  0  0
  -17.1778    0.6583   -9.8985 H   0  0  0  0  0  0
  -17.6896   -0.5249   -8.6476 H   0  0  0  0  0  0
  -19.4105    1.3074   -8.9083 H   0  0  0  0  0  0
  -16.2981    3.0929   -6.9415 H   0  0  0  0  0  0
  -16.1625    2.2194   -4.2450 H   0  0  0  0  0  0
  -17.3869    4.4679   -3.6231 H   0  0  0  0  0  0
  -17.4357    4.8956   -6.6377 H   0  0  0  0  0  0
  -18.8692    4.4080   -5.6713 H   0  0  0  0  0  0
  -14.9555    4.3181   -3.9016 H   0  0  0  0  0  0
  -15.6281    5.9062   -4.4039 H   0  0  0  0  0  0
  -15.1448    4.7021   -5.6461 H   0  0  0  0  0  0
  -18.8709    6.8200   -6.1259 H   0  0  0  0  0  0
  -17.2685    6.9910   -5.3322 H   0  0  0  0  0  0
  -18.7020    6.5034   -4.3658 H   0  0  0  0  0  0
  -18.7044    1.8327   -6.4715 H   0  0  0  0  0  0
  -20.7222    1.6310   -4.2579 H   0  0  0  0  0  0
  -21.0747    1.3458   -7.3141 H   0  0  0  0  0  0
  -22.4147    1.4289   -6.1207 H   0  0  0  0  0  0
  -22.0540    3.6403   -4.4717 H   0  0  0  0  0  0
  -20.8391    3.2639   -8.5792 H   0  0  0  0  0  0
  -22.1652    6.1102   -4.7214 H   0  0  0  0  0  0
  -20.9912    5.7571   -8.8568 H   0  0  0  0  0  0
  -21.9664    8.0581   -6.0066 H   0  0  0  0  0  0
  -18.4122   -0.4085   -5.5931 H   0  0  0  0  0  0
  -20.2488   -2.8200   -5.4566 H   0  0  0  0  0  0
  -17.2143   -2.7058   -5.8828 H   0  0  0  0  0  0
  -18.2238   -4.1901   -5.9489 H   0  0  0  0  0  0
  -20.4034   -2.0189   -7.4473 H   0  0  0  0  0  0
  -16.5323   -3.7711   -8.1185 H   0  0  0  0  0  0
  -20.7101   -1.7310   -9.8970 H   0  0  0  0  0  0
  -16.7861   -3.4229  -10.5826 H   0  0  0  0  0  0
  -18.8747   -2.4055  -11.4845 H   0  0  0  0  0  0
  -20.3625   -4.1759   -3.6035 H   0  0  0  0  0  0
  -19.4723   -3.0043   -1.1095 H   0  0  0  0  0  0
  -19.9975   -5.9832   -1.6715 H   0  0  0  0  0  0
  -19.0664   -5.4972    0.6049 H   0  0  0  0  0  0
  -20.7820   -6.0252    0.6731 H   0  0  0  0  0  0
  -20.3691   -4.2870    0.8600 H   0  0  0  0  0  0
  -22.0328   -3.8398   -4.1840 H   0  0  0  0  0  0
  -22.5406   -7.3831   -1.4631 H   0  0  0  0  0  0
  -15.1262   -3.9851   -1.3351 H   0  0  0  0  0  0
  -15.4494   -3.8892    1.7190 H   0  0  0  0  0  0
  -14.1695   -3.1276    0.7148 H   0  0  0  0  0  0
  -16.1715   -1.6238    1.7170 H   0  0  0  0  0  0
  -15.5637   -1.3389    0.0508 H   0  0  0  0  0  0
  -17.8600   -1.7618   -0.5332 H   0  0  0  0  0  0
  -18.1436   -2.7617    0.9319 H   0  0  0  0  0  0
  -13.8591   -5.6490   -1.2794 H   0  0  0  0  0  0
  -14.9924   -8.2216   -0.5919 H   0  0  0  0  0  0
  -12.0733   -7.2642   -0.9175 H   0  0  0  0  0  0
  -12.5018   -8.9986   -0.7303 H   0  0  0  0  0  0
  -14.0204   -8.5574   -2.8246 H   0  0  0  0  0  0
  -12.9354   -7.1453   -3.0593 H   0  0  0  0  0  0
  -10.0220   -9.6171   -3.2945 H   0  0  0  0  0  0
  -14.0329   -9.8450    0.9454 H   0  0  0  0  0  0
  -13.8200   -8.5032    3.6516 H   0  0  0  0  0  0
  -14.1777  -11.4045    2.7189 H   0  0  0  0  0  0
  -13.9003  -10.9929    4.4452 H   0  0  0  0  0  0
  -16.2120   -9.9490    2.8231 H   0  0  0  0  0  0
  -16.1934  -12.4108    2.8471 H   0  0  0  0  0  0
  -17.5442  -11.7274    3.8140 H   0  0  0  0  0  0
  -16.0903  -12.3834    4.6402 H   0  0  0  0  0  0
  -15.6742   -8.6730    4.9011 H   0  0  0  0  0  0
  -15.7909  -10.1914    5.8536 H   0  0  0  0  0  0
  -17.2448   -9.5355    5.0274 H   0  0  0  0  0  0
  -11.7252   -8.6698    1.4466 H   0  0  0  0  0  0
   -9.4623   -9.5230    3.2721 H   0  0  0  0  0  0
   -9.7945  -10.3864    0.3144 H   0  0  0  0  0  0
   -8.3398  -10.7254    1.3122 H   0  0  0  0  0  0
   -8.4823  -12.2999    3.2046 H   0  0  0  0  0  0
  -11.8184  -11.6911    0.5762 H   0  0  0  0  0  0
   -9.5103  -14.3862    4.0379 H   0  0  0  0  0  0
  -12.8561  -13.7962    1.4069 H   0  0  0  0  0  0
  -11.2608  -15.9634    4.0150 H   0  0  0  0  0  0
   -7.4697   -8.5357    2.9797 H   0  0  0  0  0  0
   -7.3984   -6.0561    1.4182 H   0  0  0  0  0  0
   -5.0795   -7.8393    2.4032 H   0  0  0  0  0  0
   -4.8812   -6.1640    1.7864 H   0  0  0  0  0  0
   -7.0914   -5.3911    4.9891 H   0  0  0  0  0  0
   -5.3048   -8.7622   -1.0404 H   0  0  0  0  0  0
  1  2  1  0  0  0
  1 94  1  0  0  0
  1 95  1  0  0  0
  1 96  1  0  0  0
  2  3  1  0  0  0
  2  5  1  0  0  0
  2 97  1  0  0  0
  3  4  2  0  0  0
  3  7  1  0  0  0
  5  6  1  0  0  0
  5 98  1  0  0  0
  5 99  1  0  0  0
  6100  1  0  0  0
  7  8  1  0  0  0
  7101  1  0  0  0
  8  9  1  0  0  0
  8 11  1  0  0  0
  8102  1  0  0  0
  9 10  2  0  0  0
  9 15  1  0  0  0
 11 12  1  0  0  0
 11 13  1  0  0  0
 11103  1  0  0  0
 12 14  1  0  0  0
 12104  1  0  0  0
 12105  1  0  0  0
 13106  1  0  0  0
 13107  1  0  0  0
 13108  1  0  0  0
 14109  1  0  0  0
 14110  1  0  0  0
 14111  1  0  0  0
 15 16  1  0  0  0
 15112  1  0  0  0
 16 17  1  0  0  0
 16 19  1  0  0  0
 16113  1  0  0  0
 17 18  2  0  0  0
 17 27  1  0  0  0
 19 20  1  0  0  0
 19114  1  0  0  0
 19115  1  0  0  0
 20 21  2  0  0  0
 20 22  1  0  0  0
 21 23  1  0  0  0
 21116  1  0  0  0
 22 24  2  0  0  0
 22117  1  0  0  0
 23 25  2  0  0  0
 23118  1  0  0  0
 24 25  1  0  0  0
 24119  1  0  0  0
 25 26  1  0  0  0
 26120  1  0  0  0
 27 28  1  0  0  0
 27121  1  0  0  0
 28 29  1  0  0  0
 28 31  1  0  0  0
 28122  1  0  0  0
 29 30  2  0  0  0
 29 38  1  0  0  0
 31 32  1  0  0  0
 31123  1  0  0  0
 31124  1  0  0  0
 32 33  2  0  0  0
 32 34  1  0  0  0
 33 35  1  0  0  0
 33125  1  0  0  0
 34 36  2  0  0  0
 34126  1  0  0  0
 35 37  2  0  0  0
 35127  1  0  0  0
 36 37  1  0  0  0
 36128  1  0  0  0
 37129  1  0  0  0
 38 39  1  0  0  0
 38130  1  0  0  0
 39 40  1  0  0  0
 39 47  1  0  0  0
 39131  1  0  0  0
 40 41  1  0  0  0
 40 42  1  0  0  0
 40132  1  0  0  0
 41133  1  0  0  0
 41134  1  0  0  0
 41135  1  0  0  0
 42 43  1  0  0  0
 43 44  2  0  0  0
 43 45  1  0  0  0
 43 46  1  0  0  0
 45136  1  0  0  0
 46137  1  0  0  0
 47 48  2  0  0  0
 47 49  1  0  0  0
 49 50  1  0  0  0
 49 55  1  0  0  0
 50 51  1  0  0  0
 50 53  1  0  0  0
 50138  1  0  0  0
 51 52  2  0  0  0
 51 56  1  0  0  0
 53 54  1  0  0  0
 53139  1  0  0  0
 53140  1  0  0  0
 54 55  1  0  0  0
 54141  1  0  0  0
 54142  1  0  0  0
 55143  1  0  0  0
 55144  1  0  0  0
 56 57  1  0  0  0
 56145  1  0  0  0
 57 58  1  0  0  0
 57 60  1  0  0  0
 57146  1  0  0  0
 58 59  2  0  0  0
 58 65  1  0  0  0
 60 61  1  0  0  0
 60147  1  0  0  0
 60148  1  0  0  0
 61 62  1  0  0  0
 61149  1  0  0  0
 61150  1  0  0  0
 62 63  1  0  0  0
 62 64  2  0  0  0
 63151  1  0  0  0
 65 66  1  0  0  0
 65152  1  0  0  0
 66 67  1  0  0  0
 66 69  1  0  0  0
 66153  1  0  0  0
 67 68  2  0  0  0
 67 73  1  0  0  0
 69 70  1  0  0  0
 69154  1  0  0  0
 69155  1  0  0  0
 70 71  1  0  0  0
 70 72  1  0  0  0
 70156  1  0  0  0
 71157  1  0  0  0
 71158  1  0  0  0
 71159  1  0  0  0
 72160  1  0  0  0
 72161  1  0  0  0
 72162  1  0  0  0
 73 74  1  0  0  0
 73163  1  0  0  0
 74 75  1  0  0  0
 74 77  1  0  0  0
 74164  1  0  0  0
 75 76  2  0  0  0
 75 85  1  0  0  0
 77 78  1  0  0  0
 77165  1  0  0  0
 77166  1  0  0  0
 78 79  2  0  0  0
 78 80  1  0  0  0
 79 81  1  0  0  0
 79167  1  0  0  0
 80 82  2  0  0  0
 80168  1  0  0  0
 81 83  2  0  0  0
 81169  1  0  0  0
 82 83  1  0  0  0
 82170  1  0  0  0
 83 84  1  0  0  0
 84171  1  0  0  0
 85 86  1  0  0  0
 85172  1  0  0  0
 86 87  1  0  0  0
 86 89  1  0  0  0
 86173  1  0  0  0
 87 88  2  0  0  0
 87 93  1  0  0  0
 89 90  1  0  0  0
 89174  1  0  0  0
 89175  1  0  0  0
 90 91  1  0  0  0
 90 92  2  0  0  0
 91176  1  0  0  0
 93177  1  0  0  0
M  CHG  1   1   1
M  END
> <s_m_source_file>
../3al3_ligand.sdf

> <i_m_source_file_index>
1

> <s_epik_input>
W09IXVtDSDJdW0NASF0oW05IMytdKUMoPU8pW05IXVtDQEBIXShbQ0BASF0oW0NIM10pW0NIMl1bQ0gzXSlDKD1PKVtOSF1bQ0BASF0oW0NIMl1jMVtjSF1bY0hdYyhbT0hdKVtjSF1bY0hdMSlDKD1PKVtOSF1bQ0BASF0oW0NIMl1jMltjSF1bY0hdW2NIXVtjSF1bY0hdMilDKD1PKVtOSF1bQ0BASF0oW0NAQEhdKFtDSDNdKU9QKD1PKShbT0hdKVtPSF0pQyg9TylOM1tDQEBIXShbQ0gyXVtDSDJdW0NIMl0zKUMoPU8pW05IXVtDQEBIXShbQ0gyXVtDSDJdQyg9TylbT0hdKUMoPU8pW05IXVtDQEBIXShbQ0gyXVtDSF0oW0NIM10pW0NIM10pQyg9TylbTkhdW0NASF0oQyg9TylbTkhdW0NASF0oQyg9TylbT0hdKVtDSDJdQyg9TylbT0hdKVtDSDJdYzRbY0hdW2NIXWMoW09IXSlbY0hdW2NIXTQ=

> <s_epik_cmdline>
J2VwaWtfYXBwJywgJy1pbWFlJywgJ2xpZ2FuZF9wcm8ubWFlJywgJy1vbWFlJywgJ2xpZ2FuZF9wcmVwLm1hZScsICctbXMnLCAnMScsICctcGgnLCAnNycsICctcGh0JywgJzAuNScsICctbnQn

> <s_epik_pKa_notes>
Molecule size exceeds maximum supported for generating protonation states

$$$$
