3alt_ligand
                    3D
 Schrodinger Suite 2020-3.
 45 46  0  0  1  0            999 V2000
   18.2520  -38.2240   32.3440 C   0  0  2  0  0  0
   18.5330  -38.2650   33.7780 O   0  0  0  0  0  0
   19.3930  -37.8210   31.4490 C   0  0  2  0  0  0
   20.4610  -38.6760   31.8150 O   0  0  0  0  0  0
   19.6680  -36.3320   31.6280 C   0  0  1  0  0  0
   20.5320  -35.9570   30.5540 O   0  0  0  0  0  0
   18.3620  -35.5240   31.5500 C   0  0  1  0  0  0
   17.8300  -35.6280   30.2250 O   0  0  0  0  0  0
   17.3150  -36.0530   32.5310 C   0  0  2  0  0  0
   17.0980  -37.3860   32.1620 O   0  0  0  0  0  0
   15.9670  -35.3300   32.5510 C   0  0  0  0  0  0
   15.3290  -35.2650   31.2730 O   0  0  0  0  0  0
   18.4560  -40.4230   37.0610 C   0  0  2  0  0  0
   17.2700  -41.2480   37.0950 O   0  0  0  0  0  0
   19.0090  -40.0180   38.4190 C   0  0  2  0  0  0
   18.0340  -40.2000   39.4400 O   0  0  0  0  0  0
   19.4890  -38.5680   38.4030 C   0  0  1  0  0  0
   20.3040  -38.3510   39.5370 O   0  0  0  0  0  0
   20.3000  -38.2490   37.1410 C   0  0  2  0  0  0
   20.8210  -36.9130   37.1900 O   0  0  0  0  0  0
   19.2890  -38.3310   36.0180 C   0  0  2  0  0  0
   18.1800  -39.1970   36.4070 O   0  0  0  0  0  0
   19.7510  -38.5510   34.5400 C   0  0  0  0  0  0
   18.0217  -39.2550   32.0373 H   0  0  0  0  0  0
   19.2421  -37.9936   30.3732 H   0  0  0  0  0  0
   20.3505  -39.7662   31.7187 H   0  0  0  0  0  0
   20.1793  -36.1138   32.5772 H   0  0  0  0  0  0
   21.5175  -36.4341   30.4487 H   0  0  0  0  0  0
   18.5635  -34.4606   31.7463 H   0  0  0  0  0  0
   18.4298  -35.2979   29.3640 H   0  0  0  0  0  0
   17.7136  -35.9907   33.5544 H   0  0  0  0  0  0
   15.2804  -35.8532   33.2328 H   0  0  0  0  0  0
   16.1106  -34.2959   32.8976 H   0  0  0  0  0  0
   14.3536  -34.7671   31.1699 H   0  0  0  0  0  0
   19.1594  -41.0467   36.4899 H   0  0  0  0  0  0
   17.3037  -42.2404   37.5682 H   0  0  0  0  0  0
   19.8308  -40.6947   38.6958 H   0  0  0  0  0  0
   17.5776  -41.1888   39.5947 H   0  0  0  0  0  0
   18.6315  -37.8841   38.4868 H   0  0  0  0  0  0
   19.9011  -38.5259   40.5455 H   0  0  0  0  0  0
   21.1872  -38.8866   37.0128 H   0  0  0  0  0  0
   21.5759  -36.6443   37.9436 H   0  0  0  0  0  0
   18.9143  -37.2974   35.9830 H   0  0  0  0  0  0
   20.0722  -39.5846   34.3435 H   0  0  0  0  0  0
   20.5465  -37.8555   34.2344 H   0  0  0  0  0  0
  1  2  1  0  0  0
  1  3  1  0  0  0
  1 10  1  0  0  0
  1 24  1  0  0  0
  2 23  1  0  0  0
  3  4  1  0  0  0
  3  5  1  0  0  0
  3 25  1  0  0  0
  4 26  1  0  0  0
  5  6  1  0  0  0
  5  7  1  0  0  0
  5 27  1  0  0  0
  6 28  1  0  0  0
  7  8  1  0  0  0
  7  9  1  0  0  0
  7 29  1  0  0  0
  8 30  1  0  0  0
  9 10  1  0  0  0
  9 11  1  0  0  0
  9 31  1  0  0  0
 11 12  1  0  0  0
 11 32  1  0  0  0
 11 33  1  0  0  0
 12 34  1  0  0  0
 13 14  1  0  0  0
 13 15  1  0  0  0
 13 22  1  0  0  0
 13 35  1  0  0  0
 14 36  1  0  0  0
 15 16  1  0  0  0
 15 17  1  0  0  0
 15 37  1  0  0  0
 16 38  1  0  0  0
 17 18  1  0  0  0
 17 19  1  0  0  0
 17 39  1  0  0  0
 18 40  1  0  0  0
 19 20  1  0  0  0
 19 21  1  0  0  0
 19 41  1  0  0  0
 20 42  1  0  0  0
 21 22  1  0  0  0
 21 23  1  0  0  0
 21 43  1  0  0  0
 23 44  1  0  0  0
 23 45  1  0  0  0
M  END
> <s_m_source_file>
../3alt_ligand.sdf

> <i_m_source_file_index>
1

> <s_epik_input>
W09IXVtDSDJdW0NAQEhdKE8xKVtDQEhdKFtPSF0pW0NASF0oW09IXSlbQ0BASF0oW09IXSlbQ0BIXTFPW0NIMl1bQ0BASF0oTzIpW0NAQEhdKFtPSF0pW0NASF0oW09IXSlbQ0BASF0oW09IXSlbQ0BIXTJbT0hd

> <s_epik_cmdline>
J2VwaWtfYXBwJywgJy1pbWFlJywgJ2xpZ2FuZF9wcm8ubWFlJywgJy1vbWFlJywgJ2xpZ2FuZF9wcmVwLm1hZScsICctbXMnLCAnMScsICctcGgnLCAnNycsICctcGh0JywgJzAuNScsICctbnQn

> <r_lp_tautomer_probability>
1

> <r_epik_Ionization_Penalty>
  0.0000

> <r_epik_Ionization_Penalty_Charging>
  0.0000

> <r_epik_Ionization_Penalty_Neutral>
  0.0000

> <r_epik_State_Penalty>
 -0.0000

> <r_epik_Charging_Adjusted_Penalty>
0

> <i_epik_Tot_Q>
0

> <i_epik_Tot_abs_Q>
0

> <s_epik_Chemistry_Notes>
This compound contains an acetal/aminal-like group ( X-CH(R)-Y where X, Y are N, S, or O) that may be acid/base labile, releasing an aldehyde.

$$$$
