3amb_ligand
                    3D
 Schrodinger Suite 2020-3.
 61 65  0  0  1  0            999 V2000
  -31.7510   -8.4810  -14.4850 N   0  3  0  0  0  0
  -30.3410   -8.6250  -14.0490 C   0  0  0  0  0  0
  -30.1980   -9.7380  -13.0020 C   0  0  0  0  0  0
  -31.2820   -9.6310  -11.9610 N   0  0  0  0  0  0
  -32.6870   -9.3550  -12.4020 C   0  0  0  0  0  0
  -32.6810   -8.1690  -13.3730 C   0  0  0  0  0  0
  -31.8180   -7.3730  -15.4420 C   0  0  0  0  0  0
  -30.9690   -9.7570  -10.5850 C   0  0  0  0  0  0
  -31.9390   -9.6900   -9.5800 C   0  0  0  0  0  0
  -31.5570   -9.8070   -8.2360 C   0  0  0  0  0  0
  -30.2570   -9.9800   -7.9470 N   0  0  0  0  0  0
  -29.3410  -10.0380   -8.9290 C   0  0  0  0  0  0
  -29.6900   -9.9290  -10.2220 N   0  0  0  0  0  0
  -32.5020   -9.7340   -7.2890 N   0  0  0  0  0  0
  -32.3900   -9.8650   -5.9520 C   0  0  0  0  0  0
  -31.3160  -10.1340   -5.1750 C   0  0  0  0  0  0
  -31.8230  -10.1420   -3.9400 C   0  0  3  0  0  0
  -33.1240   -9.8830   -3.9940 N   0  0  0  0  0  0
  -33.4480   -9.7080   -5.1670 N   0  0  0  0  0  0
  -31.0840  -10.3970   -2.6180 C   0  0  0  0  0  0
  -27.6470  -10.2770   -8.5870 S   0  0  0  0  0  0
  -27.4980   -9.9830   -6.8400 C   0  0  0  0  0  0
  -27.4550   -8.6800   -6.3420 C   0  0  0  0  0  0
  -27.3360   -8.4440   -4.9640 C   0  0  0  0  0  0
  -27.2350   -9.5170   -4.0760 C   0  0  0  0  0  0
  -27.2500  -10.8220   -4.5880 C   0  0  0  0  0  0
  -27.3850  -11.0570   -5.9610 C   0  0  0  0  0  0
  -27.0940   -9.2430   -2.7640 N   0  0  0  0  0  0
  -27.1420  -10.0870   -1.7350 C   0  0  0  0  0  0
  -27.3650  -11.3040   -1.7980 O   0  0  0  0  0  0
  -26.9200   -9.4060   -0.3990 C   0  0  0  0  0  0
  -27.8110   -9.9280    0.7480 C   0  0  0  0  0  0
  -26.3100  -10.2760    0.7060 C   0  0  0  0  0  0
  -32.0610   -9.4387  -14.9286 H   0  0  0  0  0  0
  -29.7127   -8.8750  -14.9166 H   0  0  0  0  0  0
  -29.9956   -7.6790  -13.6065 H   0  0  0  0  0  0
  -30.2744  -10.7179  -13.4958 H   0  0  0  0  0  0
  -29.2195   -9.6522  -12.5069 H   0  0  0  0  0  0
  -33.0948  -10.2442  -12.9049 H   0  0  0  0  0  0
  -33.3058   -9.1136  -11.5252 H   0  0  0  0  0  0
  -32.3415   -7.2598  -12.8552 H   0  0  0  0  0  0
  -33.6918   -8.0061  -13.7751 H   0  0  0  0  0  0
  -31.1375   -7.5730  -16.2827 H   0  0  0  0  0  0
  -31.5198   -6.4391  -14.9431 H   0  0  0  0  0  0
  -32.8470   -7.2753  -15.8184 H   0  0  0  0  0  0
  -32.9878   -9.5474   -9.8404 H   0  0  0  0  0  0
  -33.5480   -9.5410   -7.5695 H   0  0  0  0  0  0
  -30.3278  -10.2825   -5.6349 H   0  0  0  0  0  0
  -30.0204  -10.5879   -2.8234 H   0  0  0  0  0  0
  -31.5230  -11.2714   -2.1153 H   0  0  0  0  0  0
  -31.1794   -9.5144   -1.9685 H   0  0  0  0  0  0
  -27.5145   -7.8371   -7.0305 H   0  0  0  0  0  0
  -27.3224   -7.4217   -4.5861 H   0  0  0  0  0  0
  -27.1550  -11.6669   -3.9060 H   0  0  0  0  0  0
  -27.4016  -12.0783   -6.3414 H   0  0  0  0  0  0
  -26.9140   -8.2091   -2.4343 H   0  0  0  0  0  0
  -26.6817   -8.4238   -0.8330 H   0  0  0  0  0  0
  -28.2482   -9.0761    1.2895 H   0  0  0  0  0  0
  -28.6168  -10.5506    0.3321 H   0  0  0  0  0  0
  -25.8848  -11.1881    0.2618 H   0  0  0  0  0  0
  -25.5161   -9.7136    1.2192 H   0  0  0  0  0  0
  1  2  1  0  0  0
  1  6  1  0  0  0
  1  7  1  0  0  0
  1 34  1  0  0  0
  2  3  1  0  0  0
  2 35  1  0  0  0
  2 36  1  0  0  0
  3  4  1  0  0  0
  3 37  1  0  0  0
  3 38  1  0  0  0
  4  5  1  0  0  0
  4  8  1  0  0  0
  5  6  1  0  0  0
  5 39  1  0  0  0
  5 40  1  0  0  0
  6 41  1  0  0  0
  6 42  1  0  0  0
  7 43  1  0  0  0
  7 44  1  0  0  0
  7 45  1  0  0  0
  8  9  2  0  0  0
  8 13  1  0  0  0
  9 10  1  0  0  0
  9 46  1  0  0  0
 10 11  2  0  0  0
 10 14  1  0  0  0
 11 12  1  0  0  0
 12 13  2  0  0  0
 12 21  1  0  0  0
 14 15  1  0  0  0
 14 47  1  0  0  0
 15 16  2  0  0  0
 15 19  1  0  0  0
 16 17  1  0  0  0
 16 48  1  0  0  0
 17 18  1  0  0  0
 17 20  1  0  0  0
 18 19  2  0  0  0
 20 49  1  0  0  0
 20 50  1  0  0  0
 20 51  1  0  0  0
 21 22  1  0  0  0
 22 23  2  0  0  0
 22 27  1  0  0  0
 23 24  1  0  0  0
 23 52  1  0  0  0
 24 25  2  0  0  0
 24 53  1  0  0  0
 25 26  1  0  0  0
 25 28  1  0  0  0
 26 27  2  0  0  0
 26 54  1  0  0  0
 27 55  1  0  0  0
 28 29  1  0  0  0
 28 56  1  0  0  0
 29 30  2  0  0  0
 29 31  1  0  0  0
 31 32  1  0  0  0
 31 33  1  0  0  0
 31 57  1  0  0  0
 32 33  1  0  0  0
 32 58  1  0  0  0
 32 59  1  0  0  0
 33 60  1  0  0  0
 33 61  1  0  0  0
M  CHG  1   1   1
M  END
> <s_m_source_file>
../3amb_ligand.sdf

> <i_m_source_file_index>
1

> <s_epik_input>
W0NIM11bTkgrXTFbQ0gyXVtDSDJdTihbQ0gyXVtDSDJdMSljMltjSF1jKFtOSF1DMz1bQ0hdW0NIXShOPU4zKVtDSDNdKW5jKG4yKVNjNFtjSF1bY0hdYyhbY0hdW2NIXTQpW05IXUMoPU8pW0NIXTVbQ0gyXVtDSDJdNQ==

> <s_epik_cmdline>
J2VwaWtfYXBwJywgJy1pbWFlJywgJ2xpZ2FuZF9wcm8ubWFlJywgJy1vbWFlJywgJ2xpZ2FuZF9wcmVwLm1hZScsICctbXMnLCAnMScsICctcGgnLCAnNycsICctcGh0JywgJzAuNScsICctbnQn

> <r_lp_tautomer_probability>
1

> <r_epik_Ionization_Penalty>
  0.1916

> <r_epik_Ionization_Penalty_Charging>
  0.1866

> <r_epik_Ionization_Penalty_Neutral>
  0.0050

> <r_epik_State_Penalty>
 -0.0000

> <r_epik_Charging_Adjusted_Penalty>
0.186630809027351

> <i_epik_Tot_Q>
1

> <i_epik_Tot_abs_Q>
1

$$$$
