3amv_ligand
                    3D
 Schrodinger Suite 2020-3.
 48 49  0  0  1  0            999 V2000
   27.9610    2.2690   52.9470 C   0  0  0  0  0  0
   27.3160    3.6340   53.3400 C   0  0  0  0  0  0
   27.4490    4.1200   54.7240 C   0  0  0  0  0  0
   28.2340    3.2640   55.6850 C   0  0  0  0  0  0
   28.8210    2.0640   55.3710 C   0  0  0  0  0  0
   28.6870    1.5600   54.0220 C   0  0  0  0  0  0
   27.8800    1.6580   51.4890 C   0  0  2  0  0  0
   26.9280    0.2460   51.4410 C   0  0  0  0  0  0
   29.9290    0.3110   50.6910 C   0  0  0  0  0  0
   27.5580   -1.0210   51.1960 C   0  0  0  0  0  0
   29.2760    1.6510   50.8680 C   0  0  0  0  0  0
   29.9820    3.0590   50.5500 C   0  0  0  0  0  0
   31.2980    0.2270   50.1430 C   0  0  0  0  0  0
   26.9010   -2.3950   51.0280 C   0  0  0  0  0  0
   30.2480   -2.2590   53.0770 C   0  0  0  0  0  0
   29.8410   -2.1490   51.6430 C   0  0  0  0  0  0
   25.3210    0.4300   51.6270 C   0  0  0  0  0  0
   23.3130    2.0350   51.3960 C   0  0  0  0  0  0
   23.1480    2.4680   52.8950 C   0  0  0  0  0  0
   23.0590    3.1160   50.3590 C   0  0  0  0  0  0
   29.0990   -0.9670   51.1400 N   0  0  0  0  0  0
   31.2080    3.3100   50.5930 O   0  0  0  0  0  0
   29.2440    4.0710   50.2930 O   0  5  0  0  0  0
   31.4280   -0.1720   48.9410 O   0  5  0  0  0  0
   32.1490    0.6040   50.9940 O   0  0  0  0  0  0
   24.6010   -0.4530   52.0160 O   0  0  0  0  0  0
   24.8790    1.7030   51.3100 O   0  0  0  0  0  0
   26.4980    4.5920   52.2890 Cl  0  0  0  0  0  0
   26.9981    5.0605   55.0405 H   0  0  0  0  0  0
   28.3437    3.6258   56.7073 H   0  0  0  0  0  0
   29.3764    1.5026   56.1223 H   0  0  0  0  0  0
   29.1482    0.6015   53.7841 H   0  0  0  0  0  0
   27.4163    2.3717   50.7921 H   0  0  0  0  0  0
   25.8078   -2.2885   51.0883 H   0  0  0  0  0  0
   27.2485   -3.0676   51.8260 H   0  0  0  0  0  0
   27.1751   -2.8152   50.0491 H   0  0  0  0  0  0
   30.7832   -3.2070   53.2345 H   0  0  0  0  0  0
   29.3525   -2.2330   53.7153 H   0  0  0  0  0  0
   30.9078   -1.4179   53.3364 H   0  0  0  0  0  0
   30.7365   -2.1750   51.0047 H   0  0  0  0  0  0
   29.1812   -2.9901   51.3835 H   0  0  0  0  0  0
   22.5662    1.2654   51.1512 H   0  0  0  0  0  0
   22.0965    2.7271   53.0882 H   0  0  0  0  0  0
   23.7841    3.3426   53.0961 H   0  0  0  0  0  0
   23.4477    1.6379   53.5515 H   0  0  0  0  0  0
   21.9937    3.3899   50.3683 H   0  0  0  0  0  0
   23.3321    2.7393   49.3622 H   0  0  0  0  0  0
   23.6674    4.0014   50.5957 H   0  0  0  0  0  0
  1  2  2  0  0  0
  1  6  1  0  0  0
  1  7  1  0  0  0
  2  3  1  0  0  0
  2 28  1  0  0  0
  3  4  2  0  0  0
  3 29  1  0  0  0
  4  5  1  0  0  0
  4 30  1  0  0  0
  5  6  2  0  0  0
  5 31  1  0  0  0
  6 32  1  0  0  0
  7  8  1  0  0  0
  7 11  1  0  0  0
  7 33  1  0  0  0
  8 10  2  0  0  0
  8 17  1  0  0  0
  9 11  2  0  0  0
  9 13  1  0  0  0
  9 21  1  0  0  0
 10 14  1  0  0  0
 10 21  1  0  0  0
 11 12  1  0  0  0
 12 22  2  0  0  0
 12 23  1  0  0  0
 13 24  1  0  0  0
 13 25  2  0  0  0
 14 34  1  0  0  0
 14 35  1  0  0  0
 14 36  1  0  0  0
 15 16  1  0  0  0
 15 37  1  0  0  0
 15 38  1  0  0  0
 15 39  1  0  0  0
 16 21  1  0  0  0
 16 40  1  0  0  0
 16 41  1  0  0  0
 17 26  2  0  0  0
 17 27  1  0  0  0
 18 19  1  0  0  0
 18 20  1  0  0  0
 18 27  1  0  0  0
 18 42  1  0  0  0
 19 43  1  0  0  0
 19 44  1  0  0  0
 19 45  1  0  0  0
 20 46  1  0  0  0
 20 47  1  0  0  0
 20 48  1  0  0  0
M  CHG  2  23  -1  24  -1
M  END
> <s_m_source_file>
../3amv_ligand.sdf

> <i_m_source_file_index>
1

> <s_epik_input>
W2NIXTFbY0hdW2NIXVtjSF1jKENsKWMxW0NAQEhdMkMoQyg9TylPW0NIXShbQ0gzXSlbQ0gzXSk9QyhbQ0gzXSlOKFtDSDJdW0NIM10pQyhDKD1PKVtPSF0pPUMyQyg9TylbT0hd

> <s_epik_cmdline>
J2VwaWtfYXBwJywgJy1pbWFlJywgJ2xpZ2FuZF9wcm8ubWFlJywgJy1vbWFlJywgJ2xpZ2FuZF9wcmVwLm1hZScsICctbXMnLCAnMScsICctcGgnLCAnNycsICctcGh0JywgJzAuNScsICctbnQn

> <r_lp_tautomer_probability>
1

> <r_epik_Ionization_Penalty>
  0.0007

> <r_epik_Ionization_Penalty_Charging>
  0.0007

> <r_epik_Ionization_Penalty_Neutral>
  0.0000

> <r_epik_State_Penalty>
 -0.0000

> <r_epik_Charging_Adjusted_Penalty>
0.000675009627634526

> <i_epik_Tot_Q>
-2

> <i_epik_Tot_abs_Q>
2

> <s_epik_Chemistry_Notes>
This compound has an ester and may undergo hydrolysis at high or low pH.

$$$$
