3anq_ligand
                    3D
 Schrodinger Suite 2020-3.
 29 30  0  0  1  0            999 V2000
    5.7470   27.3360   12.0130 N   0  3  0  0  0  0
    6.5620   24.1970   14.7460 O   0  0  0  0  0  0
    7.5380   25.9660   12.9180 S   0  0  0  0  0  0
    8.2280   29.0220   10.0220 C   0  0  0  0  0  0
    6.9930   28.7220   10.5240 C   0  0  0  0  0  0
    6.8310   27.7120   11.4640 C   0  0  0  0  0  0
    7.9220   26.9940   11.9120 C   0  0  0  0  0  0
    9.1670   27.2980   11.4060 C   0  0  0  0  0  0
    9.3210   28.3070   10.4630 C   0  0  0  0  0  0
    6.0070   26.3110   12.8820 C   0  0  0  0  0  0
    5.0920   25.6410   13.6630 C   0  0  0  0  0  0
    5.3890   24.6200   14.5550 C   0  0  0  0  0  0
    4.2330   24.0200   15.3310 C   0  0  0  0  0  0
    4.4640   28.0720   11.6100 C   0  0  0  0  0  0
    3.1830   27.7330   12.2810 C   0  0  0  0  0  0
    8.3630   30.0350    9.0840 O   0  5  0  0  0  0
    6.1231   29.2828   10.1822 H   0  0  0  0  0  0
   10.0395   26.7417   11.7487 H   0  0  0  0  0  0
   10.3118   28.5344   10.0697 H   0  0  0  0  0  0
    4.5819   26.3560   14.3252 H   0  0  0  0  0  0
    4.3513   25.1464   13.0174 H   0  0  0  0  0  0
    4.6091   23.2280   15.9953 H   0  0  0  0  0  0
    3.5022   23.5929   14.6285 H   0  0  0  0  0  0
    3.7490   24.8037   15.9322 H   0  0  0  0  0  0
    4.5871   29.1499   11.7918 H   0  0  0  0  0  0
    4.2631   27.9009   10.5421 H   0  0  0  0  0  0
    2.3763   28.3561   11.8674 H   0  0  0  0  0  0
    3.2740   27.9205   13.3611 H   0  0  0  0  0  0
    2.9500   26.6714   12.1115 H   0  0  0  0  0  0
  1  6  1  0  0  0
  1 10  2  0  0  0
  1 14  1  0  0  0
  2 12  2  0  0  0
  3  7  1  0  0  0
  3 10  1  0  0  0
  4  5  1  0  0  0
  4  9  2  0  0  0
  4 16  1  0  0  0
  5  6  2  0  0  0
  5 17  1  0  0  0
  6  7  1  0  0  0
  7  8  2  0  0  0
  8  9  1  0  0  0
  8 18  1  0  0  0
  9 19  1  0  0  0
 10 11  1  0  0  0
 11 12  1  0  0  0
 11 20  1  0  0  0
 11 21  1  0  0  0
 12 13  1  0  0  0
 13 22  1  0  0  0
 13 23  1  0  0  0
 13 24  1  0  0  0
 14 15  1  0  0  0
 14 25  1  0  0  0
 14 26  1  0  0  0
 15 27  1  0  0  0
 15 28  1  0  0  0
 15 29  1  0  0  0
M  CHG  2   1   1  16  -1
M  END
> <s_m_source_file>
../3anq_ligand.sdf

> <i_m_source_file_index>
1

> <s_epik_input>
Tz1DKFtDSDNdKVtDSDJdYyhbbitdMVtDSDJdW0NIM10pc2MoYzEyKVtjSF1bY0hdYyhbY0hdMilbT0hd

> <s_epik_cmdline>
J2VwaWtfYXBwJywgJy1pbWFlJywgJ2xpZ2FuZF9wcm8ubWFlJywgJy1vbWFlJywgJ2xpZ2FuZF9wcmVwLm1hZScsICctbXMnLCAnMScsICctcGgnLCAnNycsICctcGh0JywgJzAuNScsICctbnQn

> <r_lp_tautomer_probability>
1

> <r_epik_Ionization_Penalty>
  0.0050

> <r_epik_Ionization_Penalty_Charging>
  0.0050

> <r_epik_Ionization_Penalty_Neutral>
  0.0000

> <r_epik_State_Penalty>
 -0.0000

> <r_epik_Charging_Adjusted_Penalty>
0.00498759506358935

> <i_epik_Tot_Q>
0

> <i_epik_Tot_abs_Q>
2

$$$$
