3anr_ligand
                    3D
 Schrodinger Suite 2020-3.
 28 30  0  0  1  0            999 V2000
    4.5020   25.2040   14.2410 C   0  0  0  0  0  0
    5.9850   25.2420   13.8740 C   0  0  0  0  0  0
    6.8340   24.3240   14.4600 N   0  0  0  0  0  0
    8.1810   24.2600   14.1990 C   0  0  0  0  0  0
    8.7420   25.1680   13.2880 C   0  0  0  0  0  0
    7.8810   26.1270   12.6760 C   0  0  0  0  0  0
    6.5010   26.1610   12.9720 C   0  0  0  0  0  0
    5.9660   27.1510   12.2530 N   0  3  0  0  0  0
    6.9000   27.7250   11.5450 C   0  0  0  0  0  0
    6.7930   28.7750   10.6760 C   0  0  0  0  0  0
    8.1250   27.1250   11.7640 C   0  0  0  0  0  0
    9.3420   27.5510   11.1010 C   0  0  0  0  0  0
    9.2400   28.6480   10.1800 C   0  0  0  0  0  0
    7.9480   29.2400    9.9930 C   0  0  0  0  0  0
    7.8320   30.3070    9.1000 O   0  0  0  0  0  0
    6.5460   31.0510    8.9910 C   0  0  0  0  0  0
    4.3250   24.3988   14.9692 H   0  0  0  0  0  0
    3.9050   25.0177   13.3361 H   0  0  0  0  0  0
    4.2086   26.1681   14.6818 H   0  0  0  0  0  0
    8.8050   23.5148   14.6923 H   0  0  0  0  0  0
    9.8063   25.1414   13.0543 H   0  0  0  0  0  0
    5.8274   29.2522   10.5085 H   0  0  0  0  0  0
   10.2952   27.0588   11.2937 H   0  0  0  0  0  0
   10.1135   29.0172    9.6425 H   0  0  0  0  0  0
    6.6471   31.8502    8.2420 H   0  0  0  0  0  0
    6.2940   31.4924    9.9665 H   0  0  0  0  0  0
    5.7473   30.3597    8.6840 H   0  0  0  0  0  0
    4.8889   27.3627   12.3245 H   0  0  0  0  0  0
  1  2  1  0  0  0
  1 17  1  0  0  0
  1 18  1  0  0  0
  1 19  1  0  0  0
  2  3  2  0  0  0
  2  7  1  0  0  0
  3  4  1  0  0  0
  4  5  2  0  0  0
  4 20  1  0  0  0
  5  6  1  0  0  0
  5 21  1  0  0  0
  6  7  2  0  0  0
  6 11  1  0  0  0
  7  8  1  0  0  0
  8  9  1  0  0  0
  8 28  1  0  0  0
  9 10  1  0  0  0
  9 11  2  0  0  0
 10 14  2  0  0  0
 10 22  1  0  0  0
 11 12  1  0  0  0
 12 13  2  0  0  0
 12 23  1  0  0  0
 13 14  1  0  0  0
 13 24  1  0  0  0
 14 15  1  0  0  0
 15 16  1  0  0  0
 16 25  1  0  0  0
 16 26  1  0  0  0
 16 27  1  0  0  0
M  CHG  1   8   1
M  END
> <s_m_source_file>
../3anr_ligand.sdf

> <i_m_source_file_index>
1

> <s_epik_input>
W2NIXTFbY0hdbmMoW0NIM10pYyhjMTIpW25IXWMzYzJbY0hdW2NIXWMoW2NIXTMpT1tDSDNd

> <s_epik_cmdline>
J2VwaWtfYXBwJywgJy1pbWFlJywgJ2xpZ2FuZF9wcm8ubWFlJywgJy1vbWFlJywgJ2xpZ2FuZF9wcmVwLm1hZScsICctbXMnLCAnMScsICctcGgnLCAnNycsICctcGh0JywgJzAuNScsICctbnQn

> <r_lp_tautomer_probability>
0.999999999999999

> <r_epik_Ionization_Penalty>
  0.2353

> <r_epik_Ionization_Penalty_Charging>
  0.0000

> <r_epik_Ionization_Penalty_Neutral>
  0.2353

> <r_epik_State_Penalty>
  0.2261

> <r_epik_Charging_Adjusted_Penalty>
0.226078425094713

> <i_epik_Tot_Q>
1

> <i_epik_Tot_abs_Q>
1

$$$$
