3ans_ligand
                    3D
 Schrodinger Suite 2020-3.
 34 36  0  0  1  0            999 V2000
   22.1520   26.6200  116.2450 C   0  0  0  0  0  0
   22.1920   27.4510  115.1530 C   0  0  0  0  0  0
   23.2420   27.4270  114.2600 C   0  0  0  0  0  0
   24.2840   26.5500  114.4630 C   0  0  0  0  0  0
   24.2310   25.7190  115.5590 C   0  0  0  0  0  0
   23.1850   25.7410  116.4530 C   0  0  0  0  0  0
   25.2970   24.7720  115.8550 C   0  0  0  0  0  0
   25.8460   24.0730  114.8150 N   0  0  0  0  0  0
   26.5270   22.8670  115.1370 C   0  0  2  0  0  0
   28.0240   22.8490  115.1950 C   0  0  2  0  0  0
   27.3030   22.0600  114.1480 C   0  0  0  0  0  0
   28.7900   22.1510  116.2450 C   0  0  0  0  0  0
   28.1980   21.6590  117.3890 C   0  0  0  0  0  0
   28.9310   21.0150  118.3610 C   0  0  0  0  0  0
   30.2860   20.8470  118.2050 C   0  0  0  0  0  0
   30.8930   21.3350  117.0710 C   0  0  0  0  0  0
   30.1490   21.9770  116.1070 C   0  0  0  0  0  0
   25.6200   24.6670  117.0250 O   0  0  0  0  0  0
   21.1120   28.3460  114.9670 C   0  0  0  0  0  0
   20.2440   29.1030  114.8260 N   0  0  0  0  0  0
   21.3111   26.6579  116.9375 H   0  0  0  0  0  0
   23.2473   28.0969  113.4001 H   0  0  0  0  0  0
   25.1281   26.5148  113.7743 H   0  0  0  0  0  0
   23.1772   25.0709  117.3126 H   0  0  0  0  0  0
   25.7794   24.4044  113.7682 H   0  0  0  0  0  0
   25.6775   22.6637  115.8056 H   0  0  0  0  0  0
   28.7970   23.6311  115.2243 H   0  0  0  0  0  0
   27.0208   21.0006  114.2372 H   0  0  0  0  0  0
   27.0806   22.4142  113.1306 H   0  0  0  0  0  0
   27.1239   21.7827  117.5274 H   0  0  0  0  0  0
   28.4355   20.6379  119.2556 H   0  0  0  0  0  0
   30.8712   20.3346  118.9686 H   0  0  0  0  0  0
   31.9676   21.2128  116.9352 H   0  0  0  0  0  0
   30.6468   22.3561  115.2145 H   0  0  0  0  0  0
  1  2  2  0  0  0
  1  6  1  0  0  0
  1 21  1  0  0  0
  2  3  1  0  0  0
  2 19  1  0  0  0
  3  4  2  0  0  0
  3 22  1  0  0  0
  4  5  1  0  0  0
  4 23  1  0  0  0
  5  6  2  0  0  0
  5  7  1  0  0  0
  6 24  1  0  0  0
  7  8  1  0  0  0
  7 18  2  0  0  0
  8  9  1  0  0  0
  8 25  1  0  0  0
  9 10  1  0  0  0
  9 11  1  0  0  0
  9 26  1  0  0  0
 10 11  1  0  0  0
 10 12  1  0  0  0
 10 27  1  0  0  0
 11 28  1  0  0  0
 11 29  1  0  0  0
 12 13  2  0  0  0
 12 17  1  0  0  0
 13 14  1  0  0  0
 13 30  1  0  0  0
 14 15  2  0  0  0
 14 31  1  0  0  0
 15 16  1  0  0  0
 15 32  1  0  0  0
 16 17  2  0  0  0
 16 33  1  0  0  0
 17 34  1  0  0  0
 19 20  3  0  0  0
M  END
> <s_m_source_file>
../3ans_ligand.sdf

> <i_m_source_file_index>
1

> <s_epik_input>
TiNDYzFbY0hdW2NIXWMoW2NIXVtjSF0xKUMoPU8pW05IXVtDQEBIXTJbQ0BIXShbQ0gyXTIpYzNbY0hdW2NIXVtjSF1bY0hdW2NIXTM=

> <s_epik_cmdline>
J2VwaWtfYXBwJywgJy1pbWFlJywgJ2xpZ2FuZF9wcm8ubWFlJywgJy1vbWFlJywgJ2xpZ2FuZF9wcmVwLm1hZScsICctbXMnLCAnMScsICctcGgnLCAnNycsICctcGh0JywgJzAuNScsICctbnQn

> <r_lp_tautomer_probability>
1

> <r_epik_Ionization_Penalty>
  0.0000

> <r_epik_Ionization_Penalty_Charging>
  0.0000

> <r_epik_Ionization_Penalty_Neutral>
  0.0000

> <r_epik_State_Penalty>
 -0.0000

> <r_epik_Charging_Adjusted_Penalty>
0

> <i_epik_Tot_Q>
0

> <i_epik_Tot_abs_Q>
0

$$$$
