3ant_ligand
                    3D
 Schrodinger Suite 2020-3.
 52 55  0  0  1  0            999 V2000
   24.2230   25.1070  116.2560 N   0  0  0  0  0  0
   25.4360   24.5360  116.5590 C   0  0  0  0  0  0
   26.0590   23.8900  115.5220 N   0  0  0  0  0  0
   26.8300   22.7310  115.8000 C   0  0  2  0  0  0
   28.3280   22.7740  115.8050 C   0  0  2  0  0  0
   27.6020   22.0100  114.7430 C   0  0  0  0  0  0
   29.1500   22.0800  116.8130 C   0  0  0  0  0  0
   28.6150   21.4890  117.9390 C   0  0  0  0  0  0
   29.4000   20.8490  118.8740 C   0  0  0  0  0  0
   30.7630   20.7910  118.6970 C   0  0  0  0  0  0
   31.3180   21.3790  117.5820 C   0  0  0  0  0  0
   30.5160   22.0100  116.6570 C   0  0  0  0  0  0
   25.9190   24.5870  117.6800 O   0  0  0  0  0  0
   23.4080   25.5590  117.3480 C   0  0  0  0  0  0
   23.5170   27.0600  117.4660 C   0  0  0  0  0  0
   23.0590   27.6900  116.1690 C   0  0  0  0  0  0
   23.8150   27.1600  114.9660 C   0  0  0  0  0  0
   23.9220   25.6490  114.9540 C   0  0  0  0  0  0
   21.5950   27.6060  116.0080 C   0  0  0  0  0  0
   20.6590   27.6240  116.9280 N   0  0  0  0  0  0
   19.5230   27.5190  116.1700 C   0  0  0  0  0  0
   19.7290   27.4420  114.8490 N   0  0  0  0  0  0
   21.1150   27.5020  114.7400 O   0  0  0  0  0  0
   18.1790   27.4960  116.7840 C   0  0  0  0  0  0
   17.7000   26.0870  117.0460 C   0  0  0  0  0  0
   17.1570   28.2870  115.9980 C   0  0  0  0  0  0
   25.9690   24.2558  114.4885 H   0  0  0  0  0  0
   26.0299   22.4743  116.5099 H   0  0  0  0  0  0
   29.0785   23.5775  115.8366 H   0  0  0  0  0  0
   27.3669   20.9362  114.7854 H   0  0  0  0  0  0
   27.3282   22.4065  113.7542 H   0  0  0  0  0  0
   27.5369   21.5295  118.0943 H   0  0  0  0  0  0
   28.9424   20.3905  119.7506 H   0  0  0  0  0  0
   31.3946   20.2870  119.4286 H   0  0  0  0  0  0
   32.3969   21.3448  117.4309 H   0  0  0  0  0  0
   30.9745   22.4655  115.7792 H   0  0  0  0  0  0
   22.3601   25.2798  117.1635 H   0  0  0  0  0  0
   23.7533   25.0908  118.2816 H   0  0  0  0  0  0
   22.8818   27.4098  118.2931 H   0  0  0  0  0  0
   24.5629   27.3372  117.6643 H   0  0  0  0  0  0
   23.2754   28.7669  116.2270 H   0  0  0  0  0  0
   23.2984   27.4660  114.0443 H   0  0  0  0  0  0
   24.8367   27.5676  114.9662 H   0  0  0  0  0  0
   24.7186   25.3713  114.2481 H   0  0  0  0  0  0
   22.9620   25.2441  114.6012 H   0  0  0  0  0  0
   18.3125   28.0019  117.7516 H   0  0  0  0  0  0
   18.4643   25.5403  117.6179 H   0  0  0  0  0  0
   17.5233   25.5758  116.0882 H   0  0  0  0  0  0
   16.7638   26.1193  117.6226 H   0  0  0  0  0  0
   17.5356   29.3052  115.8248 H   0  0  0  0  0  0
   16.2164   28.3373  116.5661 H   0  0  0  0  0  0
   16.9758   27.7938  115.0316 H   0  0  0  0  0  0
  1  2  1  0  0  0
  1 14  1  0  0  0
  1 18  1  0  0  0
  2  3  1  0  0  0
  2 13  2  0  0  0
  3  4  1  0  0  0
  3 27  1  0  0  0
  4  5  1  0  0  0
  4  6  1  0  0  0
  4 28  1  0  0  0
  5  6  1  0  0  0
  5  7  1  0  0  0
  5 29  1  0  0  0
  6 30  1  0  0  0
  6 31  1  0  0  0
  7  8  2  0  0  0
  7 12  1  0  0  0
  8  9  1  0  0  0
  8 32  1  0  0  0
  9 10  2  0  0  0
  9 33  1  0  0  0
 10 11  1  0  0  0
 10 34  1  0  0  0
 11 12  2  0  0  0
 11 35  1  0  0  0
 12 36  1  0  0  0
 14 15  1  0  0  0
 14 37  1  0  0  0
 14 38  1  0  0  0
 15 16  1  0  0  0
 15 39  1  0  0  0
 15 40  1  0  0  0
 16 17  1  0  0  0
 16 19  1  0  0  0
 16 41  1  0  0  0
 17 18  1  0  0  0
 17 42  1  0  0  0
 17 43  1  0  0  0
 18 44  1  0  0  0
 18 45  1  0  0  0
 19 20  2  0  0  0
 19 23  1  0  0  0
 20 21  1  0  0  0
 21 22  2  0  0  0
 21 24  1  0  0  0
 22 23  1  0  0  0
 24 25  1  0  0  0
 24 26  1  0  0  0
 24 46  1  0  0  0
 25 47  1  0  0  0
 25 48  1  0  0  0
 25 49  1  0  0  0
 26 50  1  0  0  0
 26 51  1  0  0  0
 26 52  1  0  0  0
M  END
> <s_m_source_file>
../3ant_ligand.sdf

> <i_m_source_file_index>
1

> <s_epik_input>
bzFuYyhbQ0hdKFtDSDNdKVtDSDNdKW5jMVtDSF0oW0NIMl1bQ0gyXTIpW0NIMl1bQ0gyXU4yQyg9TylbTkhdW0NAQEhdM1tDQEhdKFtDSDJdMyljNFtjSF1bY0hdW2NIXVtjSF1bY0hdNA==

> <s_epik_cmdline>
J2VwaWtfYXBwJywgJy1pbWFlJywgJ2xpZ2FuZF9wcm8ubWFlJywgJy1vbWFlJywgJ2xpZ2FuZF9wcmVwLm1hZScsICctbXMnLCAnMScsICctcGgnLCAnNycsICctcGh0JywgJzAuNScsICctbnQn

> <r_lp_tautomer_probability>
1

> <r_epik_Ionization_Penalty>
  0.0001

> <r_epik_Ionization_Penalty_Charging>
  0.0000

> <r_epik_Ionization_Penalty_Neutral>
  0.0001

> <r_epik_State_Penalty>
 -0.0000

> <r_epik_Charging_Adjusted_Penalty>
0

> <i_epik_Tot_Q>
0

> <i_epik_Tot_abs_Q>
0

$$$$
