3ao2_ligand
                    3D
 Schrodinger Suite 2020-3.
 27 29  0  0  1  0            999 V2000
    8.5180  -22.2800   -5.6960 C   0  0  0  0  0  0
    9.6330  -22.2010   -6.5780 C   0  0  0  0  0  0
   10.6110  -21.2110   -6.4820 C   0  0  0  0  0  0
   10.5430  -20.2270   -5.5330 C   0  0  0  0  0  0
    9.4210  -20.2350   -4.6000 C   0  0  0  0  0  0
    8.4270  -21.2810   -4.7080 C   0  0  0  0  0  0
    7.5400  -21.0060   -3.7100 O   0  0  0  0  0  0
    7.9950  -19.9210   -2.8750 C   0  0  0  0  0  0
    9.1330  -19.3870   -3.5670 O   0  0  0  0  0  0
    9.9500  -23.1890   -7.6470 C   0  0  0  0  0  0
   11.2490  -23.6360   -7.7740 N   0  0  0  0  0  0
   11.2570  -24.5530   -8.8270 N   0  0  0  0  0  0
   10.0070  -24.6320   -9.2800 C   0  0  0  0  0  0
    9.1160  -23.8120   -8.5900 C   0  0  0  0  0  0
   11.8100  -18.8850   -5.3540 Br  0  0  0  0  0  0
   12.5700  -25.1820   -9.1680 C   0  0  0  0  0  0
    9.6610  -25.4450  -10.3170 N   0  0  0  0  0  0
    7.7741  -23.0721   -5.7812 H   0  0  0  0  0  0
   11.4490  -21.2213   -7.1790 H   0  0  0  0  0  0
    7.1919  -19.1766   -2.7712 H   0  0  0  0  0  0
    8.2645  -20.3105   -1.8822 H   0  0  0  0  0  0
    8.0442  -23.6861   -8.7432 H   0  0  0  0  0  0
   13.3487  -24.7927   -8.4956 H   0  0  0  0  0  0
   12.8316  -24.9429  -10.2093 H   0  0  0  0  0  0
   12.4955  -26.2731   -9.0499 H   0  0  0  0  0  0
   10.4257  -26.0630  -10.8102 H   0  0  0  0  0  0
    8.6169  -25.4835  -10.6611 H   0  0  0  0  0  0
  1  2  2  0  0  0
  1  6  1  0  0  0
  1 18  1  0  0  0
  2  3  1  0  0  0
  2 10  1  0  0  0
  3  4  2  0  0  0
  3 19  1  0  0  0
  4  5  1  0  0  0
  4 15  1  0  0  0
  5  6  2  0  0  0
  5  9  1  0  0  0
  6  7  1  0  0  0
  7  8  1  0  0  0
  8  9  1  0  0  0
  8 20  1  0  0  0
  8 21  1  0  0  0
 10 11  2  0  0  0
 10 14  1  0  0  0
 11 12  1  0  0  0
 12 13  1  0  0  0
 12 16  1  0  0  0
 13 14  2  0  0  0
 13 17  1  0  0  0
 14 22  1  0  0  0
 16 23  1  0  0  0
 16 24  1  0  0  0
 16 25  1  0  0  0
 17 26  1  0  0  0
 17 27  1  0  0  0
M  END
> <s_m_source_file>
../3ao2_ligand.sdf

> <i_m_source_file_index>
1

> <s_epik_input>
TzFbQ0gyXU9jKGMxMilbY0hdYyhbY0hdYzJCciktYzNubihbQ0gzXSljKFtjSF0zKVtOSDJd

> <s_epik_cmdline>
J2VwaWtfYXBwJywgJy1pbWFlJywgJ2xpZ2FuZF9wcm8ubWFlJywgJy1vbWFlJywgJ2xpZ2FuZF9wcmVwLm1hZScsICctbXMnLCAnMScsICctcGgnLCAnNycsICctcGh0JywgJzAuNScsICctbnQn

> <r_lp_tautomer_probability>
1

> <r_epik_Ionization_Penalty>
  0.0005

> <r_epik_Ionization_Penalty_Charging>
  0.0000

> <r_epik_Ionization_Penalty_Neutral>
  0.0005

> <r_epik_State_Penalty>
 -0.0000

> <r_epik_Charging_Adjusted_Penalty>
0

> <i_epik_Tot_Q>
0

> <i_epik_Tot_abs_Q>
0

> <s_epik_Chemistry_Notes>
This compound contains an acetal/aminal-like group ( X-CH(R)-Y where X, Y are N, S, or O) that may be acid/base labile, releasing an aldehyde.

$$$$
