3ao5_ligand
                    3D
 Schrodinger Suite 2020-3.
 27 29  0  0  1  0            999 V2000
   14.9450  -10.0780   -5.7960 C   0  0  0  0  0  0
   14.3810   -9.2090   -6.7500 C   0  0  0  0  0  0
   13.0470   -8.7730   -6.6830 C   0  0  0  0  0  0
   12.1860   -9.1890   -5.6720 C   0  0  0  0  0  0
   12.7530  -10.0970   -4.6580 C   0  0  0  0  0  0
   14.1370  -10.5180   -4.7580 C   0  0  0  0  0  0
   14.3840  -11.3570   -3.7090 O   0  0  0  0  0  0
   13.1300  -11.6490   -3.0480 C   0  0  0  0  0  0
   12.1950  -10.6810   -3.5620 O   0  0  0  0  0  0
   15.2360   -8.7130   -7.8650 C   0  0  0  0  0  0
   15.1040   -7.5430   -8.5250 N   0  0  0  0  0  0
   16.0820   -7.3810   -9.5150 N   0  0  0  0  0  0
   16.7910   -8.5140   -9.3860 C   0  0  0  0  0  0
   16.3390   -9.3730   -8.4020 C   0  0  0  0  0  0
   10.3970   -8.6090   -5.5840 Br  0  0  0  0  0  0
   14.1460   -6.4130   -8.4300 C   0  0  0  0  0  0
   17.8660   -8.7930  -10.1640 N   0  0  0  0  0  0
   15.9851  -10.3952   -5.8711 H   0  0  0  0  0  0
   12.6755   -8.0885   -7.4456 H   0  0  0  0  0  0
   12.8196  -12.6767   -3.2880 H   0  0  0  0  0  0
   13.2570  -11.5490   -1.9599 H   0  0  0  0  0  0
   16.7496  -10.3406   -8.1136 H   0  0  0  0  0  0
   13.4154   -6.6177   -7.6336 H   0  0  0  0  0  0
   13.6200   -6.2966   -9.3891 H   0  0  0  0  0  0
   14.6928   -5.4874   -8.1969 H   0  0  0  0  0  0
   18.1878   -8.0771  -10.9347 H   0  0  0  0  0  0
   18.4163   -9.7352  -10.0244 H   0  0  0  0  0  0
  1  2  2  0  0  0
  1  6  1  0  0  0
  1 18  1  0  0  0
  2  3  1  0  0  0
  2 10  1  0  0  0
  3  4  2  0  0  0
  3 19  1  0  0  0
  4  5  1  0  0  0
  4 15  1  0  0  0
  5  6  2  0  0  0
  5  9  1  0  0  0
  6  7  1  0  0  0
  7  8  1  0  0  0
  8  9  1  0  0  0
  8 20  1  0  0  0
  8 21  1  0  0  0
 10 11  1  0  0  0
 10 14  2  0  0  0
 11 12  1  0  0  0
 11 16  1  0  0  0
 12 13  2  0  0  0
 13 14  1  0  0  0
 13 17  1  0  0  0
 14 22  1  0  0  0
 16 23  1  0  0  0
 16 24  1  0  0  0
 16 25  1  0  0  0
 17 26  1  0  0  0
 17 27  1  0  0  0
M  END
> <s_m_source_file>
../3ao5_ligand.sdf

> <i_m_source_file_index>
1

> <s_epik_input>
TzFbQ0gyXU9jKGMxMilbY0hdYyhbY0hdYzJCciktYzNuKFtDSDNdKW5jKFtjSF0zKVtOSDJd

> <s_epik_cmdline>
J2VwaWtfYXBwJywgJy1pbWFlJywgJ2xpZ2FuZF9wcm8ubWFlJywgJy1vbWFlJywgJ2xpZ2FuZF9wcmVwLm1hZScsICctbXMnLCAnMScsICctcGgnLCAnNycsICctcGh0JywgJzAuNScsICctbnQn

> <r_lp_tautomer_probability>
1

> <r_epik_Ionization_Penalty>
  0.0109

> <r_epik_Ionization_Penalty_Charging>
  0.0000

> <r_epik_Ionization_Penalty_Neutral>
  0.0109

> <r_epik_State_Penalty>
  0.0084

> <r_epik_Charging_Adjusted_Penalty>
0.00837261953693903

> <i_epik_Tot_Q>
0

> <i_epik_Tot_abs_Q>
0

> <s_epik_Chemistry_Notes>
This compound contains an acetal/aminal-like group ( X-CH(R)-Y where X, Y are N, S, or O) that may be acid/base labile, releasing an aldehyde.

$$$$
