3ap4_ligand
                    3D
 Schrodinger Suite 2020-3.
 45 46  0  0  1  0            999 V2000
   23.4030   29.6820   23.4140 C   0  0  2  0  0  0
   22.9480   30.9370   24.2170 C   0  0  1  0  0  0
   21.4280   31.1640   23.9640 C   0  0  2  0  0  0
   21.1200   31.1730   22.4370 C   0  0  2  0  0  0
   21.7310   29.9110   21.7820 C   0  0  1  0  0  0
   21.4970   29.9190   20.2540 C   0  0  0  0  0  0
   24.8190   29.6450   23.4570 O   0  0  0  0  0  0
   23.0960   30.7080   25.5930 O   0  0  0  0  0  0
   20.9460   32.3990   24.4760 O   0  0  0  0  0  0
   21.6250   32.3030   21.7680 O   0  0  0  0  0  0
   23.1340   29.8220   22.0300 O   0  0  0  0  0  0
   21.9810   28.7820   19.6070 O   0  0  0  0  0  0
   27.6800   26.6120   22.5180 C   0  0  1  0  0  0
   27.4070   27.7630   21.4890 C   0  0  1  0  0  0
   26.7350   28.9820   22.1720 C   0  0  2  0  0  0
   25.4830   28.4860   22.9170 C   0  0  1  0  0  0
   25.9790   27.5430   24.0490 C   0  0  1  0  0  0
   24.8020   26.9260   24.8490 C   0  0  0  0  0  0
   28.9030   26.6730   23.1700 O   0  0  0  0  0  0
   28.5880   28.2400   20.8750 O   0  0  0  0  0  0
   26.3040   29.8730   21.1780 O   0  0  0  0  0  0
   26.6920   26.4210   23.5190 O   0  0  0  0  0  0
   23.8770   26.2660   24.0270 O   0  0  0  0  0  0
   22.9321   28.7578   23.7801 H   0  0  0  0  0  0
   23.5830   31.8074   23.9954 H   0  0  0  0  0  0
   20.8801   30.4007   24.5359 H   0  0  0  0  0  0
   20.0362   31.2803   22.2825 H   0  0  0  0  0  0
   21.3071   29.0138   22.2568 H   0  0  0  0  0  0
   20.4180   29.9784   20.0486 H   0  0  0  0  0  0
   22.0031   30.7889   19.8101 H   0  0  0  0  0  0
   24.0942   30.5198   26.0150 H   0  0  0  0  0  0
   21.0504   32.6288   25.5467 H   0  0  0  0  0  0
   21.3143   33.3111   22.0796 H   0  0  0  0  0  0
   21.8694   28.6797   18.5175 H   0  0  0  0  0  0
   27.7149   25.6739   21.9447 H   0  0  0  0  0  0
   26.8154   27.3507   20.6583 H   0  0  0  0  0  0
   27.4287   29.5474   22.8115 H   0  0  0  0  0  0
   24.7350   27.9947   22.2774 H   0  0  0  0  0  0
   26.6756   28.1206   24.6745 H   0  0  0  0  0  0
   25.1933   26.1945   25.5714 H   0  0  0  0  0  0
   24.2669   27.7224   25.3870 H   0  0  0  0  0  0
   29.8277   26.8184   22.5922 H   0  0  0  0  0  0
   29.2392   27.5468   20.3224 H   0  0  0  0  0  0
   27.0381   30.3552   20.5158 H   0  0  0  0  0  0
   22.9933   25.7837   24.4703 H   0  0  0  0  0  0
  1  2  1  0  0  0
  1  7  1  0  0  0
  1 11  1  0  0  0
  1 24  1  0  0  0
  2  3  1  0  0  0
  2  8  1  0  0  0
  2 25  1  0  0  0
  3  4  1  0  0  0
  3  9  1  0  0  0
  3 26  1  0  0  0
  4  5  1  0  0  0
  4 10  1  0  0  0
  4 27  1  0  0  0
  5  6  1  0  0  0
  5 11  1  0  0  0
  5 28  1  0  0  0
  6 12  1  0  0  0
  6 29  1  0  0  0
  6 30  1  0  0  0
  7 16  1  0  0  0
  8 31  1  0  0  0
  9 32  1  0  0  0
 10 33  1  0  0  0
 12 34  1  0  0  0
 13 14  1  0  0  0
 13 19  1  0  0  0
 13 22  1  0  0  0
 13 35  1  0  0  0
 14 15  1  0  0  0
 14 20  1  0  0  0
 14 36  1  0  0  0
 15 16  1  0  0  0
 15 21  1  0  0  0
 15 37  1  0  0  0
 16 17  1  0  0  0
 16 38  1  0  0  0
 17 18  1  0  0  0
 17 22  1  0  0  0
 17 39  1  0  0  0
 18 23  1  0  0  0
 18 40  1  0  0  0
 18 41  1  0  0  0
 19 42  1  0  0  0
 20 43  1  0  0  0
 21 44  1  0  0  0
 23 45  1  0  0  0
M  END
> <s_m_source_file>
../3ap4_ligand.sdf

> <i_m_source_file_index>
1

> <s_epik_input>
W09IXVtDQEBIXTFbQ0BIXShbT0hdKVtDQEBIXShbT0hdKVtDQEBIXShbQ0BIXShPMSlbQ0gyXVtPSF0pT1tDQEhdMltDQEhdKFtPSF0pW0NAQEhdKFtPSF0pW0NAQEhdKFtPSF0pW0NASF0oTzIpW0NIMl1bT0hd

> <s_epik_cmdline>
J2VwaWtfYXBwJywgJy1pbWFlJywgJ2xpZ2FuZF9wcm8ubWFlJywgJy1vbWFlJywgJ2xpZ2FuZF9wcmVwLm1hZScsICctbXMnLCAnMScsICctcGgnLCAnNycsICctcGh0JywgJzAuNScsICctbnQn

> <r_lp_tautomer_probability>
1

> <r_epik_Ionization_Penalty>
  0.0000

> <r_epik_Ionization_Penalty_Charging>
  0.0000

> <r_epik_Ionization_Penalty_Neutral>
  0.0000

> <r_epik_State_Penalty>
 -0.0000

> <r_epik_Charging_Adjusted_Penalty>
0

> <i_epik_Tot_Q>
0

> <i_epik_Tot_abs_Q>
0

> <s_epik_Chemistry_Notes>
This compound contains an acetal/aminal-like group ( X-CH(R)-Y where X, Y are N, S, or O) that may be acid/base labile, releasing an aldehyde.

$$$$
