3ap7_ligand
                    3D
 Schrodinger Suite 2020-3.
 81 83  0  0  1  0            999 V2000
   18.4710   25.1360   42.7310 C   0  0  2  0  0  0
   18.7550   23.7830   42.1130 C   0  0  1  0  0  0
   20.0340   23.8210   41.2860 C   0  0  2  0  0  0
   20.0280   25.0080   40.3260 C   0  0  2  0  0  0
   19.6720   26.2950   41.0700 C   0  0  1  0  0  0
   19.6180   27.5110   40.1590 C   0  0  0  0  0  0
   17.1940   25.0610   43.3670 O   0  0  0  0  0  0
   18.8530   22.7980   43.1500 O   0  0  0  0  0  0
   20.1500   22.6110   40.5180 O   0  0  0  0  0  0
   19.0890   24.7530   39.2690 O   0  0  0  0  0  0
   18.4170   26.1260   41.7010 O   0  0  0  0  0  0
   19.3350   28.6600   40.9670 O   0  0  0  0  0  0
   15.1270   27.4550   46.0830 C   0  0  2  0  0  0
   14.8590   27.7210   44.6000 C   0  0  1  0  0  0
   15.3710   26.5670   43.7390 C   0  0  2  0  0  0
   16.8130   26.2280   44.0980 C   0  0  1  0  0  0
   16.9500   25.9990   45.6030 C   0  0  1  0  0  0
   18.3820   25.7180   46.0460 C   0  0  0  0  0  0
   14.7860   28.6040   46.8750 O   0  0  0  0  0  0
   13.4570   27.8560   44.3810 O   0  0  0  0  0  0
   15.2760   26.9020   42.3450 O   0  0  0  0  0  0
   16.5100   27.1790   46.2790 O   0  0  0  0  0  0
   19.2210   26.8340   45.7170 O   0  0  0  0  0  0
   22.5450   22.3780   40.6550 C   0  0  0  0  0  0
   21.1970   21.7190   40.8830 C   0  0  2  0  0  0
   21.0170   20.4690   40.0160 C   0  0  0  0  0  0
   21.8330   19.2770   40.5140 C   0  0  1  0  0  0
   21.6140   19.0260   42.0040 C   0  0  2  0  0  0
   21.8800   20.3370   42.7490 C   0  0  2  0  0  0
   21.6860   20.2490   44.2580 C   0  0  1  0  0  0
   21.8470   21.6100   44.9320 C   0  0  1  0  0  0
   22.0650   21.4410   46.4310 C   0  0  0  0  0  0
   22.0140   16.8390   43.0040 C   0  0  0  0  0  0
   22.9410   15.7350   43.4200 C   0  0  0  0  0  0
   22.5100   17.9570   42.4550 N   0  0  0  0  0  0
   23.0420   22.3960   39.4990 O   0  0  0  0  0  0
   23.1400   22.8890   41.6400 O   0  5  0  0  0  0
   21.4600   18.1110   39.7570 O   0  0  0  0  0  0
   21.0070   21.3690   42.2620 O   0  0  0  0  0  0
   20.3690   19.7660   44.5390 O   0  0  0  0  0  0
   22.9490   22.3350   44.3630 O   0  0  0  0  0  0
   21.8340   22.6920   47.0970 O   0  0  0  0  0  0
   20.8110   16.7140   43.1660 O   0  0  0  0  0  0
   19.2284   25.4529   43.4631 H   0  0  0  0  0  0
   17.9143   23.4707   41.4761 H   0  0  0  0  0  0
   20.9045   23.8664   41.9569 H   0  0  0  0  0  0
   21.0055   25.1255   39.8354 H   0  0  0  0  0  0
   20.4106   26.4810   41.8636 H   0  0  0  0  0  0
   20.5868   27.6330   39.6526 H   0  0  0  0  0  0
   18.8266   27.3716   39.4078 H   0  0  0  0  0  0
   18.0115   22.6412   43.8409 H   0  0  0  0  0  0
   19.2035   23.8616   38.6347 H   0  0  0  0  0  0
   19.2522   29.6531   40.5012 H   0  0  0  0  0  0
   14.5452   26.5988   46.4551 H   0  0  0  0  0  0
   15.3202   28.6739   44.3012 H   0  0  0  0  0  0
   14.7295   25.6835   43.8727 H   0  0  0  0  0  0
   17.5073   27.0222   43.7862 H   0  0  0  0  0  0
   16.3089   25.1533   45.8924 H   0  0  0  0  0  0
   18.4040   25.5550   47.1336 H   0  0  0  0  0  0
   18.7549   24.8193   45.5329 H   0  0  0  0  0  0
   13.7559   28.9899   46.8692 H   0  0  0  0  0  0
   12.8902   28.6361   44.9104 H   0  0  0  0  0  0
   14.3032   27.1747   41.9099 H   0  0  0  0  0  0
   20.2926   26.8080   45.9638 H   0  0  0  0  0  0
   19.9576   20.1727   40.0153 H   0  0  0  0  0  0
   21.3373   20.6875   38.9866 H   0  0  0  0  0  0
   22.9048   19.4483   40.3351 H   0  0  0  0  0  0
   20.5982   18.6634   42.2202 H   0  0  0  0  0  0
   22.9199   20.6233   42.5329 H   0  0  0  0  0  0
   22.4051   19.5269   44.6721 H   0  0  0  0  0  0
   20.9581   22.2274   44.7356 H   0  0  0  0  0  0
   21.3663   20.6859   46.8203 H   0  0  0  0  0  0
   23.0988   21.1142   46.6167 H   0  0  0  0  0  0
   23.9788   16.0246   43.1984 H   0  0  0  0  0  0
   22.6902   14.8178   42.8671 H   0  0  0  0  0  0
   22.8336   15.5533   44.4996 H   0  0  0  0  0  0
   23.5987   18.0685   42.3442 H   0  0  0  0  0  0
   21.5531   18.1139   38.6609 H   0  0  0  0  0  0
   20.0442   18.7924   44.1434 H   0  0  0  0  0  0
   22.9658   22.5533   43.2850 H   0  0  0  0  0  0
   21.9450   22.7624   48.1891 H   0  0  0  0  0  0
  1  2  1  0  0  0
  1  7  1  0  0  0
  1 11  1  0  0  0
  1 44  1  0  0  0
  2  3  1  0  0  0
  2  8  1  0  0  0
  2 45  1  0  0  0
  3  4  1  0  0  0
  3  9  1  0  0  0
  3 46  1  0  0  0
  4  5  1  0  0  0
  4 10  1  0  0  0
  4 47  1  0  0  0
  5  6  1  0  0  0
  5 11  1  0  0  0
  5 48  1  0  0  0
  6 12  1  0  0  0
  6 49  1  0  0  0
  6 50  1  0  0  0
  7 16  1  0  0  0
  8 51  1  0  0  0
  9 25  1  0  0  0
 10 52  1  0  0  0
 12 53  1  0  0  0
 13 14  1  0  0  0
 13 19  1  0  0  0
 13 22  1  0  0  0
 13 54  1  0  0  0
 14 15  1  0  0  0
 14 20  1  0  0  0
 14 55  1  0  0  0
 15 16  1  0  0  0
 15 21  1  0  0  0
 15 56  1  0  0  0
 16 17  1  0  0  0
 16 57  1  0  0  0
 17 18  1  0  0  0
 17 22  1  0  0  0
 17 58  1  0  0  0
 18 23  1  0  0  0
 18 59  1  0  0  0
 18 60  1  0  0  0
 19 61  1  0  0  0
 20 62  1  0  0  0
 21 63  1  0  0  0
 23 64  1  0  0  0
 24 25  1  0  0  0
 24 36  2  0  0  0
 24 37  1  0  0  0
 25 26  1  0  0  0
 25 39  1  0  0  0
 26 27  1  0  0  0
 26 65  1  0  0  0
 26 66  1  0  0  0
 27 28  1  0  0  0
 27 38  1  0  0  0
 27 67  1  0  0  0
 28 29  1  0  0  0
 28 35  1  0  0  0
 28 68  1  0  0  0
 29 30  1  0  0  0
 29 39  1  0  0  0
 29 69  1  0  0  0
 30 31  1  0  0  0
 30 40  1  0  0  0
 30 70  1  0  0  0
 31 32  1  0  0  0
 31 41  1  0  0  0
 31 71  1  0  0  0
 32 42  1  0  0  0
 32 72  1  0  0  0
 32 73  1  0  0  0
 33 34  1  0  0  0
 33 35  1  0  0  0
 33 43  2  0  0  0
 34 74  1  0  0  0
 34 75  1  0  0  0
 34 76  1  0  0  0
 35 77  1  0  0  0
 38 78  1  0  0  0
 40 79  1  0  0  0
 41 80  1  0  0  0
 42 81  1  0  0  0
M  CHG  1  37  -1
M  END
> <s_m_source_file>
../3ap7_ligand.sdf

> <i_m_source_file_index>
1

> <s_epik_input>
W09IXVtDQEhdMVtDQEhdKFtPSF0pW0NAQEhdKFtPSF0pW0NAQEhdKFtDQEhdKE8xKVtDSDJdW09IXSlPW0NASF0yW0NASF0oW09IXSlbQ0BIXShbQ0BASF0oW09IXSlbQ0BIXShPMilbQ0gyXVtPSF0pT1tDQF0zKEMoPU8pW09IXSlbQ0gyXVtDQEhdKFtPSF0pW0NAQEhdKFtOSF1DKD1PKVtDSDNdKVtDQEBIXShPMylbQ0BIXShbT0hdKVtDQEhdKFtPSF0pW0NIMl1bT0hd

> <s_epik_cmdline>
J2VwaWtfYXBwJywgJy1pbWFlJywgJ2xpZ2FuZF9wcm8ubWFlJywgJy1vbWFlJywgJ2xpZ2FuZF9wcmVwLm1hZScsICctbXMnLCAnMScsICctcGgnLCAnNycsICctcGh0JywgJzAuNScsICctbnQn

> <r_lp_tautomer_probability>
1

> <r_epik_Ionization_Penalty>
  0.0000

> <r_epik_Ionization_Penalty_Charging>
  0.0000

> <r_epik_Ionization_Penalty_Neutral>
  0.0000

> <r_epik_State_Penalty>
 -0.0000

> <r_epik_Charging_Adjusted_Penalty>
9.89927833884068e-06

> <i_epik_Tot_Q>
-1

> <i_epik_Tot_abs_Q>
1

> <s_epik_Chemistry_Notes>
This compound contains an acetal/aminal-like group ( X-CH(R)-Y where X, Y are N, S, or O) that may be acid/base labile, releasing an aldehyde.

$$$$
