3apc_ligand
                    3D
 Schrodinger Suite 2020-3.
 43 46  0  0  1  0            999 V2000
  118.7450   14.2410   29.9690 C   0  0  0  0  0  0
  119.2220   13.8600   28.5660 C   0  0  0  0  0  0
  118.8620   12.4860   28.3400 O   0  0  0  0  0  0
  117.4280   12.4140   28.1630 C   0  0  0  0  0  0
  116.7130   12.7510   29.4710 C   0  0  0  0  0  0
  117.3130   13.9240   30.1370 N   0  0  0  0  0  0
  116.5080   14.7410   30.9220 C   0  0  0  0  0  0
  115.2500   14.3600   31.1880 N   0  0  0  0  0  0
  116.9970   15.8940   31.4000 N   0  0  0  0  0  0
  116.2330   16.6910   32.1630 C   0  0  0  0  0  0
  116.4970   17.8730   32.7180 N   0  0  0  0  0  0
  117.8480   18.7400   32.3850 S   0  0  0  0  0  0
  117.6400   19.3780   30.7430 C   0  0  0  0  0  0
  119.0920   17.9130   32.4470 O   0  0  0  0  0  0
  117.9630   19.8670   33.3580 O   0  0  0  0  0  0
  115.3720   18.4030   33.4980 C   0  0  0  0  0  0
  114.2620   17.3730   33.3040 C   0  0  0  0  0  0
  114.9210   16.3130   32.4390 C   0  0  0  0  0  0
  114.4220   15.1070   31.9450 C   0  0  0  0  0  0
  113.1200   14.6260   32.1800 C   0  0  0  0  0  0
  112.6060   13.5970   31.3850 C   0  0  0  0  0  0
  111.3880   13.1180   31.5870 N   0  0  0  0  0  0
  110.6180   13.6190   32.5690 C   0  0  0  0  0  0
  109.3910   13.1390   32.7630 N   0  0  0  0  0  0
  111.0850   14.6080   33.3550 N   0  0  0  0  0  0
  112.3020   15.1170   33.1930 C   0  0  0  0  0  0
  119.3236   13.6802   30.7178 H   0  0  0  0  0  0
  118.8911   15.3200   30.1256 H   0  0  0  0  0  0
  118.7352   14.5101   27.8241 H   0  0  0  0  0  0
  120.3131   13.9849   28.5031 H   0  0  0  0  0  0
  117.1176   13.1318   27.3895 H   0  0  0  0  0  0
  117.1474   11.3966   27.8529 H   0  0  0  0  0  0
  115.6560   12.9744   29.2640 H   0  0  0  0  0  0
  116.7790   11.8933   30.1565 H   0  0  0  0  0  0
  117.5561   18.5422   30.0328 H   0  0  0  0  0  0
  118.5087   19.9986   30.4780 H   0  0  0  0  0  0
  116.7262   19.9888   30.7000 H   0  0  0  0  0  0
  115.3371   19.3224   34.0825 H   0  0  0  0  0  0
  113.2437   17.3935   33.6921 H   0  0  0  0  0  0
  113.2187   13.1817   30.5848 H   0  0  0  0  0  0
  109.0086   12.3313   32.1216 H   0  0  0  0  0  0
  108.7599   13.5503   33.5646 H   0  0  0  0  0  0
  112.6565   15.9126   33.8483 H   0  0  0  0  0  0
  1  2  1  0  0  0
  1  6  1  0  0  0
  1 27  1  0  0  0
  1 28  1  0  0  0
  2  3  1  0  0  0
  2 29  1  0  0  0
  2 30  1  0  0  0
  3  4  1  0  0  0
  4  5  1  0  0  0
  4 31  1  0  0  0
  4 32  1  0  0  0
  5  6  1  0  0  0
  5 33  1  0  0  0
  5 34  1  0  0  0
  6  7  1  0  0  0
  7  8  1  0  0  0
  7  9  2  0  0  0
  8 19  2  0  0  0
  9 10  1  0  0  0
 10 11  1  0  0  0
 10 18  2  0  0  0
 11 12  1  0  0  0
 11 16  1  0  0  0
 12 13  1  0  0  0
 12 14  2  0  0  0
 12 15  2  0  0  0
 13 35  1  0  0  0
 13 36  1  0  0  0
 13 37  1  0  0  0
 16 17  2  0  0  0
 16 38  1  0  0  0
 17 18  1  0  0  0
 17 39  1  0  0  0
 18 19  1  0  0  0
 19 20  1  0  0  0
 20 21  2  0  0  0
 20 26  1  0  0  0
 21 22  1  0  0  0
 21 40  1  0  0  0
 22 23  2  0  0  0
 23 24  1  0  0  0
 23 25  1  0  0  0
 24 41  1  0  0  0
 24 42  1  0  0  0
 25 26  2  0  0  0
 26 43  1  0  0  0
M  END
> <s_m_source_file>
../3apc_ligand.sdf

> <i_m_source_file_index>
1

> <s_epik_input>
W0NIMl0xW0NIMl1PW0NIMl1bQ0gyXU4xYyhuMiluYyhjKGMyMylbY0hdW2NIXW4zUyg9TykoPU8pW0NIM10pLWM0W2NIXW5jKFtOSDJdKW5bY0hdNA==

> <s_epik_cmdline>
J2VwaWtfYXBwJywgJy1pbWFlJywgJ2xpZ2FuZF9wcm8ubWFlJywgJy1vbWFlJywgJ2xpZ2FuZF9wcmVwLm1hZScsICctbXMnLCAnMScsICctcGgnLCAnNycsICctcGh0JywgJzAuNScsICctbnQn

> <r_lp_tautomer_probability>
1

> <r_epik_Ionization_Penalty>
  0.0000

> <r_epik_Ionization_Penalty_Charging>
  0.0000

> <r_epik_Ionization_Penalty_Neutral>
  0.0000

> <r_epik_State_Penalty>
 -0.0000

> <r_epik_Charging_Adjusted_Penalty>
0

> <i_epik_Tot_Q>
0

> <i_epik_Tot_abs_Q>
0

$$$$
