3aqa_ligand
                    3D
 Schrodinger Suite 2020-3.
 39 42  0  0  1  0            999 V2000
   11.2490   -8.4980   36.0140 C   0  0  0  0  0  0
    9.5090   -6.4700   34.3110 S   0  0  0  0  0  0
   15.5250   -4.0930   32.8810 C   0  0  0  0  0  0
   14.7150   -4.3790   34.0270 C   0  0  0  0  0  0
   12.3160  -12.0270   33.2810 C   0  0  0  0  0  0
   11.7890  -11.8860   31.9640 C   0  0  0  0  0  0
   15.0270   -4.2890   31.5520 C   0  0  0  0  0  0
   13.3980   -4.8760   33.8680 C   0  0  0  0  0  0
   12.0890  -11.0350   34.2630 C   0  0  0  0  0  0
   11.0190  -10.7450   31.6060 C   0  0  0  0  0  0
    9.1770   -6.6050   30.9020 C   0  0  0  0  0  0
    9.3830   -8.1120   31.2330 C   0  0  0  0  0  0
   12.9560   -5.0730   30.3290 N   0  0  0  0  0  0
   11.7390   -5.5300   32.1180 N   0  3  0  0  0  0
   10.4850   -6.0480   29.7380 S   0  0  0  0  0  0
   11.7820   -5.5240   30.7860 C   0  0  0  0  0  0
   10.1860   -7.9870   33.7540 C   0  0  0  0  0  0
   13.6990   -4.7850   31.4040 C   0  0  0  0  0  0
   12.8960   -5.0820   32.5530 C   0  0  0  0  0  0
   11.3030   -9.8670   33.8990 C   0  0  0  0  0  0
   10.7680   -9.7250   32.5650 C   0  0  0  0  0  0
   10.9200   -8.7890   34.5660 N   0  0  0  0  0  0
   10.0870   -8.5660   32.5100 N   0  0  0  0  0  0
   10.8031   -7.5354   36.3050 H   0  0  0  0  0  0
   12.3408   -8.4492   36.1393 H   0  0  0  0  0  0
   10.8423   -9.2978   36.6503 H   0  0  0  0  0  0
   16.5391   -3.7193   33.0225 H   0  0  0  0  0  0
   15.1143   -4.2132   35.0276 H   0  0  0  0  0  0
   12.9015  -12.9108   33.5344 H   0  0  0  0  0  0
   11.9784  -12.6620   31.2224 H   0  0  0  0  0  0
   15.6441   -4.0659   30.6817 H   0  0  0  0  0  0
   12.7799   -5.0968   34.7383 H   0  0  0  0  0  0
   12.4938  -11.1434   35.2692 H   0  0  0  0  0  0
   10.6208  -10.6521   30.5956 H   0  0  0  0  0  0
    8.1895   -6.4631   30.4385 H   0  0  0  0  0  0
    9.2355   -6.0148   31.8284 H   0  0  0  0  0  0
    8.4044   -8.6100   31.2992 H   0  0  0  0  0  0
    9.9813   -8.5833   30.4393 H   0  0  0  0  0  0
   10.8325   -5.8742   32.6375 H   0  0  0  0  0  0
  1 22  1  0  0  0
  1 24  1  0  0  0
  1 25  1  0  0  0
  1 26  1  0  0  0
  2 17  2  0  0  0
  3  4  2  0  0  0
  3  7  1  0  0  0
  3 27  1  0  0  0
  4  8  1  0  0  0
  4 28  1  0  0  0
  5  6  2  0  0  0
  5  9  1  0  0  0
  5 29  1  0  0  0
  6 10  1  0  0  0
  6 30  1  0  0  0
  7 18  2  0  0  0
  7 31  1  0  0  0
  8 19  2  0  0  0
  8 32  1  0  0  0
  9 20  2  0  0  0
  9 33  1  0  0  0
 10 21  2  0  0  0
 10 34  1  0  0  0
 11 12  1  0  0  0
 11 15  1  0  0  0
 11 35  1  0  0  0
 11 36  1  0  0  0
 12 23  1  0  0  0
 12 37  1  0  0  0
 12 38  1  0  0  0
 13 16  2  0  0  0
 13 18  1  0  0  0
 14 16  1  0  0  0
 14 19  1  0  0  0
 14 39  1  0  0  0
 15 16  1  0  0  0
 17 22  1  0  0  0
 17 23  1  0  0  0
 18 19  1  0  0  0
 20 21  1  0  0  0
 20 22  1  0  0  0
 21 23  1  0  0  0
M  CHG  1  14   1
M  END
> <s_m_source_file>
../3aqa_ligand.sdf

> <i_m_source_file_index>
1

> <s_epik_input>
W2NIXTFbY0hdW2NIXVtjSF1jKGMxMiluKGMoW1NIXSlbbitdMltDSDNdKVtDSDJdW0NIMl1TYyhuMylbbkhdYyhjMzQpW2NIXVtjSF1bY0hdW2NIXTQ=

> <s_epik_cmdline>
J2VwaWtfYXBwJywgJy1pbWFlJywgJ2xpZ2FuZF9wcm8ubWFlJywgJy1vbWFlJywgJ2xpZ2FuZF9wcmVwLm1hZScsICctbXMnLCAnMScsICctcGgnLCAnNycsICctcGh0JywgJzAuNScsICctbnQn

> <r_epik_Ionization_Penalty>
  0.0000

> <r_epik_Ionization_Penalty_Charging>
  0.0000

> <r_epik_Ionization_Penalty_Neutral>
  0.0000

> <r_epik_State_Penalty>
  0.0000

> <r_epik_Charging_Adjusted_Penalty>
1.74254930197797e-05

> <i_epik_Tot_Q>
1

> <i_epik_Tot_abs_Q>
1

> <s_epik_Chemistry_Notes>
This compound has an imine and may undergo hydrolysis.

$$$$
