3aqt_ligand
                    3D
 Schrodinger Suite 2020-3.
 14 14  0  0  1  0            999 V2000
   54.5300   28.4260   21.8790 C   0  0  0  0  0  0
   54.4670   29.5730   21.0380 C   0  0  0  0  0  0
   55.6090   29.9850   20.2960 C   0  0  0  0  0  0
   56.8030   29.2450   20.4050 C   0  0  0  0  0  0
   56.8710   28.1110   21.2360 C   0  0  0  0  0  0
   55.7310   27.7000   21.9780 C   0  0  0  0  0  0
   53.3930   28.0380   22.5950 O   0  0  0  0  0  0
   55.5630   31.1130   19.4660 O   0  0  0  0  0  0
   53.5385   30.1389   20.9621 H   0  0  0  0  0  0
   57.6827   29.5537   19.8403 H   0  0  0  0  0  0
   57.8005   27.5466   21.3105 H   0  0  0  0  0  0
   55.7869   26.8232   22.6232 H   0  0  0  0  0  0
   52.4623   28.6175   22.5055 H   0  0  0  0  0  0
   54.6328   31.6936   19.3780 H   0  0  0  0  0  0
  1  2  2  0  0  0
  1  6  1  0  0  0
  1  7  1  0  0  0
  2  3  1  0  0  0
  2  9  1  0  0  0
  3  4  2  0  0  0
  3  8  1  0  0  0
  4  5  1  0  0  0
  4 10  1  0  0  0
  5  6  2  0  0  0
  5 11  1  0  0  0
  6 12  1  0  0  0
  7 13  1  0  0  0
  8 14  1  0  0  0
M  END
> <s_m_source_file>
../3aqt_ligand.sdf

> <i_m_source_file_index>
1

> <s_epik_input>
W09IXWMxW2NIXWMoW09IXSlbY0hdW2NIXVtjSF0x

> <s_epik_cmdline>
J2VwaWtfYXBwJywgJy1pbWFlJywgJ2xpZ2FuZF9wcm8ubWFlJywgJy1vbWFlJywgJ2xpZ2FuZF9wcmVwLm1hZScsICctbXMnLCAnMScsICctcGgnLCAnNycsICctcGh0JywgJzAuNScsICctbnQn

> <r_lp_tautomer_probability>
1

> <r_epik_Ionization_Penalty>
  0.0050

> <r_epik_Ionization_Penalty_Charging>
  0.0000

> <r_epik_Ionization_Penalty_Neutral>
  0.0050

> <r_epik_State_Penalty>
 -0.0000

> <r_epik_Charging_Adjusted_Penalty>
0

> <i_epik_Tot_Q>
0

> <i_epik_Tot_abs_Q>
0

$$$$
