3ara_ligand
                    3D
 Schrodinger Suite 2020-3.
 62 65  0  0  1  0            999 V2000
    3.5850   10.0530  -11.9210 O   0  0  0  0  0  0
    4.5700    9.6280  -12.4070 C   0  0  0  0  0  0
    5.6140   10.4920  -12.3970 N   0  0  0  0  0  0
    6.7760   10.1440  -12.9840 C   0  0  0  0  0  0
    6.9200    8.8780  -13.5430 N   0  0  0  0  0  0
    5.8950    7.9620  -13.5430 C   0  0  0  0  0  0
    4.6430    8.3310  -12.8710 C   0  0  0  0  0  0
    7.7100   10.9680  -13.0730 O   0  0  0  0  0  0
    8.2410    8.4370  -14.1440 C   0  0  0  0  0  0
    8.1860    8.2480  -15.6470 C   0  0  0  0  0  0
    8.0030    9.6690  -16.2840 C   0  0  0  0  0  0
    8.0830    9.5260  -17.9830 S   0  0  0  0  0  0
    8.2100   10.8940  -18.6920 N   0  0  3  0  0  0
    9.4930   11.6190  -18.7470 C   0  0  0  0  0  0
    9.5440   11.8740  -20.2780 C   0  0  0  0  0  0
    8.0940   12.0190  -20.7640 C   0  0  0  0  0  0
    7.2070   11.5030  -19.6070 C   0  0  2  0  0  0
    9.2430    8.7140  -18.4110 O   0  0  0  0  0  0
    6.8740    8.7950  -18.3500 O   0  0  0  0  0  0
    6.3100   12.6010  -19.0140 C   0  0  0  0  0  0
    7.0580   13.7250  -18.5030 O   0  0  0  0  0  0
    5.3270   13.1030  -20.0480 C   0  0  0  0  0  0
    4.9140   14.4300  -19.9590 C   0  0  0  0  0  0
    3.9560   14.9200  -20.8830 C   0  0  0  0  0  0
    3.4530   14.0880  -21.8970 C   0  0  0  0  0  0
    3.9060   12.7740  -21.9820 C   0  0  0  0  0  0
    4.8190   12.2460  -21.0520 C   0  0  0  0  0  0
    5.5180   12.0880  -17.8300 C   0  0  0  0  0  0
    5.8230   12.6250  -16.5940 C   0  0  0  0  0  0
    5.1240   12.2340  -15.4850 C   0  0  0  0  0  0
    4.1250   11.2760  -15.5600 C   0  0  0  0  0  0
    3.7780   10.7140  -16.8200 C   0  0  0  0  0  0
    4.4680   11.1680  -17.9390 C   0  0  0  0  0  0
    5.5111   11.4734  -11.9109 H   0  0  0  0  0  0
    5.6071    7.7339  -14.5799 H   0  0  0  0  0  0
    6.2272    7.0400  -13.0435 H   0  0  0  0  0  0
    4.5295    7.6332  -12.0283 H   0  0  0  0  0  0
    3.8394    8.1572  -13.6018 H   0  0  0  0  0  0
    9.0103    9.1949  -13.9346 H   0  0  0  0  0  0
    8.5427    7.4763  -13.7013 H   0  0  0  0  0  0
    9.1222    7.7856  -15.9929 H   0  0  0  0  0  0
    7.3382    7.5958  -15.9038 H   0  0  0  0  0  0
    7.0255   10.0792  -15.9905 H   0  0  0  0  0  0
    8.8022   10.3359  -15.9284 H   0  0  0  0  0  0
    9.4269   12.5284  -18.1317 H   0  0  0  0  0  0
   10.2959   10.9733  -18.3618 H   0  0  0  0  0  0
   10.1125   12.7943  -20.4777 H   0  0  0  0  0  0
   10.0352   11.0245  -20.7751 H   0  0  0  0  0  0
    7.8855   13.0761  -20.9853 H   0  0  0  0  0  0
    7.9507   11.4186  -21.6745 H   0  0  0  0  0  0
    6.4567   10.7436  -19.8722 H   0  0  0  0  0  0
    7.7269   14.2892  -19.1695 H   0  0  0  0  0  0
    5.3221   15.0842  -19.1885 H   0  0  0  0  0  0
    3.6074   15.9499  -20.8057 H   0  0  0  0  0  0
    2.7180   14.4659  -22.6077 H   0  0  0  0  0  0
    3.5436   12.1385  -22.7901 H   0  0  0  0  0  0
    5.1277   11.2019  -21.1036 H   0  0  0  0  0  0
    6.6216   13.3612  -16.5025 H   0  0  0  0  0  0
    5.3578   12.6858  -14.5210 H   0  0  0  0  0  0
    3.6070   10.9543  -14.6565 H   0  0  0  0  0  0
    2.9999    9.9554  -16.9053 H   0  0  0  0  0  0
    4.1846   10.7987  -18.9246 H   0  0  0  0  0  0
  1  2  2  0  0  0
  2  3  1  0  0  0
  2  7  1  0  0  0
  3  4  1  0  0  0
  3 34  1  0  0  0
  4  5  1  0  0  0
  4  8  2  0  0  0
  5  6  1  0  0  0
  5  9  1  0  0  0
  6  7  1  0  0  0
  6 35  1  0  0  0
  6 36  1  0  0  0
  7 37  1  0  0  0
  7 38  1  0  0  0
  9 10  1  0  0  0
  9 39  1  0  0  0
  9 40  1  0  0  0
 10 11  1  0  0  0
 10 41  1  0  0  0
 10 42  1  0  0  0
 11 12  1  0  0  0
 11 43  1  0  0  0
 11 44  1  0  0  0
 12 13  1  0  0  0
 12 18  2  0  0  0
 12 19  2  0  0  0
 13 14  1  0  0  0
 13 17  1  0  0  0
 14 15  1  0  0  0
 14 45  1  0  0  0
 14 46  1  0  0  0
 15 16  1  0  0  0
 15 47  1  0  0  0
 15 48  1  0  0  0
 16 17  1  0  0  0
 16 49  1  0  0  0
 16 50  1  0  0  0
 17 20  1  0  0  0
 17 51  1  0  0  0
 20 21  1  0  0  0
 20 22  1  0  0  0
 20 28  1  0  0  0
 21 52  1  0  0  0
 22 23  2  0  0  0
 22 27  1  0  0  0
 23 24  1  0  0  0
 23 53  1  0  0  0
 24 25  2  0  0  0
 24 54  1  0  0  0
 25 26  1  0  0  0
 25 55  1  0  0  0
 26 27  2  0  0  0
 26 56  1  0  0  0
 27 57  1  0  0  0
 28 29  2  0  0  0
 28 33  1  0  0  0
 29 30  1  0  0  0
 29 58  1  0  0  0
 30 31  2  0  0  0
 30 59  1  0  0  0
 31 32  1  0  0  0
 31 60  1  0  0  0
 32 33  2  0  0  0
 32 61  1  0  0  0
 33 62  1  0  0  0
M  END
> <s_m_source_file>
../3ara_ligand.sdf

> <i_m_source_file_index>
1

> <s_epik_input>
Tz1DMVtOSF1DKD1PKU4oW0NIMl1bQ0gyXTEpW0NIMl1bQ0gyXVtDSDJdUyg9TykoPU8pTjJbQ0gyXVtDSDJdW0NIMl1bQ0BASF0yQyhbT0hdKShjM1tjSF1bY0hdW2NIXVtjSF1bY0hdMyljNFtjSF1bY0hdW2NIXVtjSF1bY0hdNA==

> <s_epik_cmdline>
J2VwaWtfYXBwJywgJy1pbWFlJywgJ2xpZ2FuZF9wcm8ubWFlJywgJy1vbWFlJywgJ2xpZ2FuZF9wcmVwLm1hZScsICctbXMnLCAnMScsICctcGgnLCAnNycsICctcGh0JywgJzAuNScsICctbnQn

> <r_lp_tautomer_probability>
1

> <r_epik_Ionization_Penalty>
  0.0001

> <r_epik_Ionization_Penalty_Charging>
  0.0000

> <r_epik_Ionization_Penalty_Neutral>
  0.0001

> <r_epik_State_Penalty>
 -0.0000

> <r_epik_Charging_Adjusted_Penalty>
0

> <i_epik_Tot_Q>
0

> <i_epik_Tot_abs_Q>
0

$$$$
