3arb_ligand
                    3D
 Schrodinger Suite 2020-3.
126126  0  0  1  0            999 V2000
  -11.1910  -45.4960  -63.7310 N   0  0  0  0  0  0
   -9.1790  -46.8470  -63.5470 C   0  0  2  0  0  0
   -9.7520  -47.9640  -64.4300 C   0  0  1  0  0  0
   -9.6370  -47.7020  -65.9360 C   0  0  0  0  0  0
   -9.8230  -48.9650  -66.7800 C   0  0  0  0  0  0
  -11.2960  -49.3040  -67.0170 C   0  0  0  0  0  0
  -11.6060  -49.5600  -68.4910 C   0  0  0  0  0  0
  -11.0660  -50.8930  -68.9770 C   0  0  0  0  0  0
   -9.3060  -44.4950  -62.6710 C   0  0  0  0  0  0
  -20.0100  -44.9660  -72.8240 C   0  0  0  0  0  0
  -21.0750  -43.9960  -73.3280 C   0  0  0  0  0  0
  -20.8680  -42.5840  -72.7810 C   0  0  0  0  0  0
  -21.6930  -41.5560  -73.5510 C   0  0  0  0  0  0
  -20.9310  -40.2480  -73.7430 C   0  0  0  0  0  0
  -20.4390  -40.0810  -75.1790 C   0  0  0  0  0  0
  -19.1780  -39.2220  -75.2510 C   0  0  0  0  0  0
  -18.1240  -39.8420  -76.1640 C   0  0  0  0  0  0
  -16.7190  -39.6410  -75.6030 C   0  0  0  0  0  0
  -15.6640  -40.4160  -76.3900 C   0  0  0  0  0  0
  -14.8400  -41.3320  -75.4870 C   0  0  0  0  0  0
  -14.7540  -42.7420  -76.0690 C   0  0  0  0  0  0
  -13.9710  -43.6950  -75.1670 C   0  0  0  0  0  0
  -14.7230  -45.0090  -74.9700 C   0  0  0  0  0  0
  -14.2920  -45.7140  -73.6860 C   0  0  0  0  0  0
  -15.4510  -45.8430  -72.7040 C   0  0  0  0  0  0
  -14.9920  -46.4180  -71.3670 C   0  0  0  0  0  0
  -15.2930  -45.4500  -70.2260 C   0  0  0  0  0  0
  -14.9550  -46.0470  -68.8620 C   0  0  0  0  0  0
  -14.7780  -44.9410  -67.8250 C   0  0  0  0  0  0
  -14.1950  -45.4800  -66.5240 C   0  0  0  0  0  0
  -14.2650  -44.4250  -65.4250 C   0  0  0  0  0  0
  -13.4750  -44.8380  -64.1850 C   0  0  0  0  0  0
  -11.9840  -44.6340  -64.3730 C   0  0  0  0  0  0
  -11.5600  -43.7250  -65.0750 O   0  0  0  0  0  0
   -9.7290  -45.4370  -63.8010 C   0  0  2  0  0  0
   -7.7530  -46.8260  -63.6870 O   0  0  0  0  0  0
   -9.0800  -49.1860  -64.1010 O   0  0  0  0  0  0
   -9.9520  -44.9000  -61.4710 O   0  0  0  0  0  0
   -9.4990  -44.2280  -60.3040 C   0  0  1  0  0  0
  -10.0230  -42.8910  -60.2230 O   0  0  0  0  0  0
  -11.4500  -42.7570  -60.1000 C   0  0  2  0  0  0
  -11.8130  -41.2770  -59.9850 C   0  0  0  0  0  0
  -11.7310  -40.6490  -61.2720 O   0  0  0  0  0  0
  -11.9840  -43.5660  -58.9140 C   0  0  2  0  0  0
  -11.6070  -42.9430  -57.6750 O   0  0  0  0  0  0
  -11.4690  -45.0060  -58.9680 C   0  0  2  0  0  0
  -11.8530  -45.7290  -57.7970 O   0  0  0  0  0  0
   -9.9500  -45.0340  -59.0890 C   0  0  1  0  0  0
   -9.5090  -46.3870  -59.2090 O   0  0  0  0  0  0
  -11.6818  -46.2755  -63.1297 H   0  0  0  0  0  0
   -9.4260  -47.1029  -62.5061 H   0  0  0  0  0  0
  -10.8204  -48.0873  -64.1990 H   0  0  0  0  0  0
  -10.4079  -46.9796  -66.2424 H   0  0  0  0  0  0
   -8.6410  -47.2934  -66.1621 H   0  0  0  0  0  0
   -9.3474  -48.8233  -67.7617 H   0  0  0  0  0  0
   -9.3583  -49.8202  -66.2675 H   0  0  0  0  0  0
  -11.5589  -50.2108  -66.4526 H   0  0  0  0  0  0
  -11.9240  -48.4666  -66.6788 H   0  0  0  0  0  0
  -12.6956  -49.5614  -68.6416 H   0  0  0  0  0  0
  -11.1521  -48.7675  -69.1042 H   0  0  0  0  0  0
  -11.3168  -51.0246  -70.0399 H   0  0  0  0  0  0
  -11.5167  -51.7070  -68.3904 H   0  0  0  0  0  0
   -9.9732  -50.9131  -68.8529 H   0  0  0  0  0  0
   -8.2147  -44.5442  -62.5418 H   0  0  0  0  0  0
   -9.5993  -43.4652  -62.9230 H   0  0  0  0  0  0
  -20.1979  -45.9662  -73.2416 H   0  0  0  0  0  0
  -20.0481  -45.0141  -71.7257 H   0  0  0  0  0  0
  -19.0164  -44.6169  -73.1415 H   0  0  0  0  0  0
  -21.0369  -43.9479  -74.4263 H   0  0  0  0  0  0
  -22.0687  -44.3451  -73.0106 H   0  0  0  0  0  0
  -21.1721  -42.5519  -71.7244 H   0  0  0  0  0  0
  -19.8060  -42.3101  -72.8653 H   0  0  0  0  0  0
  -21.9457  -41.9577  -74.5434 H   0  0  0  0  0  0
  -22.6181  -41.3389  -72.9969 H   0  0  0  0  0  0
  -21.5908  -39.4008  -73.5043 H   0  0  0  0  0  0
  -20.0569  -40.2314  -73.0754 H   0  0  0  0  0  0
  -20.2085  -41.0687  -75.6048 H   0  0  0  0  0  0
  -21.2217  -39.5960  -75.7807 H   0  0  0  0  0  0
  -19.4341  -38.2270  -75.6438 H   0  0  0  0  0  0
  -18.7466  -39.1189  -74.2444 H   0  0  0  0  0  0
  -18.3117  -40.9216  -76.2604 H   0  0  0  0  0  0
  -18.1757  -39.3708  -77.1566 H   0  0  0  0  0  0
  -16.4575  -38.5733  -75.6430 H   0  0  0  0  0  0
  -16.6879  -39.9873  -74.5594 H   0  0  0  0  0  0
  -16.1577  -41.0366  -77.1523 H   0  0  0  0  0  0
  -14.9792  -39.7085  -76.8804 H   0  0  0  0  0  0
  -13.8214  -40.9289  -75.3874 H   0  0  0  0  0  0
  -15.3107  -41.3884  -74.4944 H   0  0  0  0  0  0
  -15.7681  -43.1489  -76.1955 H   0  0  0  0  0  0
  -14.2491  -42.7054  -77.0456 H   0  0  0  0  0  0
  -12.9949  -43.9138  -75.6245 H   0  0  0  0  0  0
  -13.8183  -43.2266  -74.1835 H   0  0  0  0  0  0
  -15.8029  -44.8081  -74.9109 H   0  0  0  0  0  0
  -14.5205  -45.6783  -75.8192 H   0  0  0  0  0  0
  -13.9257  -46.7228  -73.9269 H   0  0  0  0  0  0
  -13.4889  -45.1379  -73.2032 H   0  0  0  0  0  0
  -15.8904  -44.8509  -72.5231 H   0  0  0  0  0  0
  -16.2161  -46.5116  -73.1255 H   0  0  0  0  0  0
  -15.5177  -47.3650  -71.1753 H   0  0  0  0  0  0
  -13.9077  -46.6005  -71.3992 H   0  0  0  0  0  0
  -14.6981  -44.5339  -70.3558 H   0  0  0  0  0  0
  -16.3633  -45.1963  -70.2331 H   0  0  0  0  0  0
  -15.7703  -46.7118  -68.5405 H   0  0  0  0  0  0
  -14.0201  -46.6221  -68.9349 H   0  0  0  0  0  0
  -14.0955  -44.1740  -68.2198 H   0  0  0  0  0  0
  -15.7545  -44.4848  -67.6052 H   0  0  0  0  0  0
  -14.7660  -46.3644  -66.2050 H   0  0  0  0  0  0
  -13.1430  -45.7601  -66.6819 H   0  0  0  0  0  0
  -13.8479  -43.4782  -65.7986 H   0  0  0  0  0  0
  -15.3135  -44.2724  -65.1294 H   0  0  0  0  0  0
  -13.8003  -44.2341  -63.3251 H   0  0  0  0  0  0
  -13.6539  -45.9027  -63.9740 H   0  0  0  0  0  0
   -9.3974  -45.0796  -64.7871 H   0  0  0  0  0  0
   -7.1724  -47.7489  -63.5417 H   0  0  0  0  0  0
   -9.0574  -49.5380  -63.0591 H   0  0  0  0  0  0
   -8.4087  -44.1203  -60.4025 H   0  0  0  0  0  0
  -11.8668  -43.1793  -61.0263 H   0  0  0  0  0  0
  -12.8389  -41.1799  -59.6002 H   0  0  0  0  0  0
  -11.1143  -40.7806  -59.2955 H   0  0  0  0  0  0
  -11.9603  -39.5783  -61.3772 H   0  0  0  0  0  0
  -13.0840  -43.5598  -58.9132 H   0  0  0  0  0  0
  -11.8984  -41.9019  -57.4719 H   0  0  0  0  0  0
  -11.9421  -45.5318  -59.8105 H   0  0  0  0  0  0
  -12.9167  -45.8239  -57.5334 H   0  0  0  0  0  0
   -9.4781  -44.6434  -58.1753 H   0  0  0  0  0  0
   -8.4361  -46.6091  -59.3072 H   0  0  0  0  0  0
  1 33  1  0  0  0
  1 35  1  0  0  0
  1 50  1  0  0  0
  2  3  1  0  0  0
  2 35  1  0  0  0
  2 36  1  0  0  0
  2 51  1  0  0  0
  3  4  1  0  0  0
  3 37  1  0  0  0
  3 52  1  0  0  0
  4  5  1  0  0  0
  4 53  1  0  0  0
  4 54  1  0  0  0
  5  6  1  0  0  0
  5 55  1  0  0  0
  5 56  1  0  0  0
  6  7  1  0  0  0
  6 57  1  0  0  0
  6 58  1  0  0  0
  7  8  1  0  0  0
  7 59  1  0  0  0
  7 60  1  0  0  0
  8 61  1  0  0  0
  8 62  1  0  0  0
  8 63  1  0  0  0
  9 35  1  0  0  0
  9 38  1  0  0  0
  9 64  1  0  0  0
  9 65  1  0  0  0
 10 11  1  0  0  0
 10 66  1  0  0  0
 10 67  1  0  0  0
 10 68  1  0  0  0
 11 12  1  0  0  0
 11 69  1  0  0  0
 11 70  1  0  0  0
 12 13  1  0  0  0
 12 71  1  0  0  0
 12 72  1  0  0  0
 13 14  1  0  0  0
 13 73  1  0  0  0
 13 74  1  0  0  0
 14 15  1  0  0  0
 14 75  1  0  0  0
 14 76  1  0  0  0
 15 16  1  0  0  0
 15 77  1  0  0  0
 15 78  1  0  0  0
 16 17  1  0  0  0
 16 79  1  0  0  0
 16 80  1  0  0  0
 17 18  1  0  0  0
 17 81  1  0  0  0
 17 82  1  0  0  0
 18 19  1  0  0  0
 18 83  1  0  0  0
 18 84  1  0  0  0
 19 20  1  0  0  0
 19 85  1  0  0  0
 19 86  1  0  0  0
 20 21  1  0  0  0
 20 87  1  0  0  0
 20 88  1  0  0  0
 21 22  1  0  0  0
 21 89  1  0  0  0
 21 90  1  0  0  0
 22 23  1  0  0  0
 22 91  1  0  0  0
 22 92  1  0  0  0
 23 24  1  0  0  0
 23 93  1  0  0  0
 23 94  1  0  0  0
 24 25  1  0  0  0
 24 95  1  0  0  0
 24 96  1  0  0  0
 25 26  1  0  0  0
 25 97  1  0  0  0
 25 98  1  0  0  0
 26 27  1  0  0  0
 26 99  1  0  0  0
 26100  1  0  0  0
 27 28  1  0  0  0
 27101  1  0  0  0
 27102  1  0  0  0
 28 29  1  0  0  0
 28103  1  0  0  0
 28104  1  0  0  0
 29 30  1  0  0  0
 29105  1  0  0  0
 29106  1  0  0  0
 30 31  1  0  0  0
 30107  1  0  0  0
 30108  1  0  0  0
 31 32  1  0  0  0
 31109  1  0  0  0
 31110  1  0  0  0
 32 33  1  0  0  0
 32111  1  0  0  0
 32112  1  0  0  0
 33 34  2  0  0  0
 35113  1  0  0  0
 36114  1  0  0  0
 37115  1  0  0  0
 38 39  1  0  0  0
 39 40  1  0  0  0
 39 48  1  0  0  0
 39116  1  0  0  0
 40 41  1  0  0  0
 41 42  1  0  0  0
 41 44  1  0  0  0
 41117  1  0  0  0
 42 43  1  0  0  0
 42118  1  0  0  0
 42119  1  0  0  0
 43120  1  0  0  0
 44 45  1  0  0  0
 44 46  1  0  0  0
 44121  1  0  0  0
 45122  1  0  0  0
 46 47  1  0  0  0
 46 48  1  0  0  0
 46123  1  0  0  0
 47124  1  0  0  0
 48 49  1  0  0  0
 48125  1  0  0  0
 49126  1  0  0  0
M  END
> <s_m_source_file>
../3arb_ligand.sdf

> <i_m_source_file_index>
1

> <s_epik_input>
W09IXVtDQEBIXTFbQ0BASF0oW09IXSlbQ0BASF0oW09IXSlbQ0BASF0oW0NIMl1bT0hdKU9bQ0BASF0xT1tDSDJdW0NAQEhdKFtDQEhdKFtPSF0pW0NASF0oW09IXSlbQ0gyXVtDSDJdW0NIMl1bQ0gyXVtDSDNdKVtOSF1DKD1PKVtDSDJdW0NIMl1bQ0gyXVtDSDJdW0NIMl1bQ0gyXVtDSDJdW0NIMl1bQ0gyXVtDSDJdW0NIMl1bQ0gyXVtDSDJdW0NIMl1bQ0gyXVtDSDJdW0NIMl1bQ0gyXVtDSDJdW0NIMl1bQ0gyXVtDSDJdW0NIM10=

> <s_epik_cmdline>
J2VwaWtfYXBwJywgJy1pbWFlJywgJ2xpZ2FuZF9wcm8ubWFlJywgJy1vbWFlJywgJ2xpZ2FuZF9wcmVwLm1hZScsICctbXMnLCAnMScsICctcGgnLCAnNycsICctcGh0JywgJzAuNScsICctbnQn

> <r_lp_tautomer_probability>
1

> <r_epik_Ionization_Penalty>
  0.0000

> <r_epik_Ionization_Penalty_Charging>
  0.0000

> <r_epik_Ionization_Penalty_Neutral>
  0.0000

> <r_epik_State_Penalty>
 -0.0000

> <r_epik_Charging_Adjusted_Penalty>
0

> <i_epik_Tot_Q>
0

> <i_epik_Tot_abs_Q>
0

> <s_epik_Chemistry_Notes>
This compound contains an acetal/aminal-like group ( X-CH(R)-Y where X, Y are N, S, or O) that may be acid/base labile, releasing an aldehyde.

$$$$
