3ard_ligand
                    3D
 Schrodinger Suite 2020-3.
157157  0  0  1  0            999 V2000
   -9.2160  -44.6340  -62.7150 C   0  0  0  0  0  0
   -9.8330  -45.3140  -63.9400 C   0  0  2  0  0  0
  -11.2870  -45.1960  -63.8010 N   0  0  0  0  0  0
   -9.5320  -46.8160  -64.0100 C   0  0  2  0  0  0
   -8.1940  -47.0770  -63.5590 O   0  0  0  0  0  0
   -9.7120  -47.3280  -65.4380 C   0  0  0  0  0  0
   -9.1300  -48.7210  -65.6670 C   0  0  0  0  0  0
  -10.2240  -49.7410  -65.9740 C   0  0  0  0  0  0
  -10.5020  -49.8830  -67.4700 C   0  0  0  0  0  0
   -9.8580  -51.1540  -68.0150 C   0  0  0  0  0  0
  -10.8610  -52.0290  -68.7590 C   0  0  0  0  0  0
  -10.1910  -52.7530  -69.9190 C   0  0  0  0  0  0
   -9.7570  -54.1630  -69.5390 C   0  0  0  0  0  0
   -8.4200  -54.4950  -70.1920 C   0  0  0  0  0  0
   -8.4630  -55.8410  -70.9050 C   0  0  0  0  0  0
   -7.7580  -56.9200  -70.0900 C   0  0  0  0  0  0
   -6.3640  -57.2100  -70.6340 C   0  0  0  0  0  0
   -5.2860  -56.7260  -69.6690 C   0  0  0  0  0  0
   -4.0240  -57.5740  -69.7850 C   0  0  0  0  0  0
   -2.8080  -56.7080  -70.0200 C   0  0  0  0  0  0
   -9.4930  -44.2460  -60.3920 C   0  0  2  0  0  0
   -9.8480  -45.0600  -61.5130 O   0  0  0  0  0  0
   -9.7640  -45.0100  -59.0970 C   0  0  2  0  0  0
   -9.1880  -46.3160  -59.1930 O   0  0  0  0  0  0
  -11.2590  -45.1380  -58.8010 C   0  0  0  0  0  0
  -11.9830  -43.8040  -58.9310 C   0  0  1  0  0  0
  -11.5880  -42.9440  -57.8560 O   0  0  0  0  0  0
  -11.4720  -40.7330  -60.3160 O   0  0  0  0  0  0
  -11.6470  -43.1610  -60.2760 C   0  0  1  0  0  0
  -12.3760  -41.8320  -60.4880 C   0  0  0  0  0  0
  -10.2230  -43.0090  -60.3890 O   0  0  0  0  0  0
  -12.0090  -44.1410  -64.2040 C   0  0  0  0  0  0
  -11.5450  -43.1400  -64.7320 O   0  0  0  0  0  0
  -13.4990  -44.2370  -63.9640 C   0  0  0  0  0  0
  -14.2550  -43.9000  -65.2410 C   0  0  0  0  0  0
  -14.1840  -45.0540  -66.2310 C   0  0  0  0  0  0
  -14.8010  -44.6800  -67.5720 C   0  0  0  0  0  0
  -15.2520  -45.9400  -68.2990 C   0  0  0  0  0  0
  -14.6620  -46.0030  -69.7010 C   0  0  0  0  0  0
  -15.7530  -46.0920  -70.7610 C   0  0  0  0  0  0
  -15.1550  -46.2190  -72.1560 C   0  0  0  0  0  0
  -14.9210  -44.8640  -72.8110 C   0  0  0  0  0  0
  -14.6480  -45.0150  -74.3010 C   0  0  0  0  0  0
  -13.5460  -44.0540  -74.7260 C   0  0  0  0  0  0
  -14.0210  -43.1170  -75.8300 C   0  0  0  0  0  0
  -14.2400  -41.6990  -75.3130 C   0  0  0  0  0  0
  -15.7180  -41.3430  -75.3990 C   0  0  0  0  0  0
  -15.9340  -39.9660  -76.0270 C   0  0  0  0  0  0
  -17.0420  -39.1780  -75.3250 C   0  0  0  0  0  0
  -18.4280  -39.6730  -75.7280 C   0  0  0  0  0  0
  -19.5280  -38.8930  -75.0260 C   0  0  0  0  0  0
  -20.7660  -39.7660  -74.8690 C   0  0  0  0  0  0
  -21.2160  -39.8490  -73.4140 C   0  0  0  0  0  0
  -21.7990  -41.2180  -73.0850 C   0  0  0  0  0  0
  -20.7260  -42.1680  -72.5650 C   0  0  0  0  0  0
  -21.0690  -43.6200  -72.8790 C   0  0  0  0  0  0
  -19.8290  -44.4990  -72.7400 C   0  0  0  0  0  0
  -20.2120  -45.9340  -72.4560 C   0  0  0  0  0  0
   -8.1467  -44.8854  -62.6558 H   0  0  0  0  0  0
   -9.3320  -43.5437  -62.8035 H   0  0  0  0  0  0
   -9.4569  -44.8200  -64.8480 H   0  0  0  0  0  0
  -11.8631  -46.0106  -63.3379 H   0  0  0  0  0  0
  -10.1843  -47.3709  -63.3196 H   0  0  0  0  0  0
   -7.8856  -46.7740  -62.5475 H   0  0  0  0  0  0
  -10.7845  -47.3772  -65.6774 H   0  0  0  0  0  0
   -9.2109  -46.6439  -66.1387 H   0  0  0  0  0  0
   -8.4327  -48.6918  -66.5173 H   0  0  0  0  0  0
   -8.5934  -49.0472  -64.7639 H   0  0  0  0  0  0
   -9.9219  -50.7282  -65.5943 H   0  0  0  0  0  0
  -11.1607  -49.4318  -65.4871 H   0  0  0  0  0  0
  -11.5880  -49.9324  -67.6380 H   0  0  0  0  0  0
  -10.0875  -49.0152  -68.0040 H   0  0  0  0  0  0
   -9.0516  -50.8860  -68.7135 H   0  0  0  0  0  0
   -9.4420  -51.7403  -67.1824 H   0  0  0  0  0  0
  -11.2787  -52.7764  -68.0684 H   0  0  0  0  0  0
  -11.6729  -51.4010  -69.1545 H   0  0  0  0  0  0
  -10.8948  -52.8260  -70.7612 H   0  0  0  0  0  0
   -9.2985  -52.1927  -70.2345 H   0  0  0  0  0  0
   -9.6515  -54.2322  -68.4463 H   0  0  0  0  0  0
  -10.5140  -54.8843  -69.8807 H   0  0  0  0  0  0
   -8.1698  -53.7189  -70.9302 H   0  0  0  0  0  0
   -7.6356  -54.5350  -69.4218 H   0  0  0  0  0  0
   -9.5100  -56.1430  -71.0554 H   0  0  0  0  0  0
   -7.9624  -55.7553  -71.8807 H   0  0  0  0  0  0
   -7.6618  -56.5868  -69.0461 H   0  0  0  0  0  0
   -8.3457  -57.8492  -70.1256 H   0  0  0  0  0  0
   -6.2452  -58.2939  -70.7791 H   0  0  0  0  0  0
   -6.2315  -56.6945  -71.5967 H   0  0  0  0  0  0
   -5.0301  -55.6813  -69.8993 H   0  0  0  0  0  0
   -5.6609  -56.7927  -68.6370 H   0  0  0  0  0  0
   -3.8773  -58.1423  -68.8547 H   0  0  0  0  0  0
   -4.1276  -58.2722  -70.6287 H   0  0  0  0  0  0
   -1.9144  -57.3445  -70.0995 H   0  0  0  0  0  0
   -2.6871  -56.0096  -69.1788 H   0  0  0  0  0  0
   -2.9374  -56.1395  -70.9528 H   0  0  0  0  0  0
   -8.4347  -43.9799  -60.5301 H   0  0  0  0  0  0
   -9.2683  -44.4975  -58.2594 H   0  0  0  0  0  0
   -8.1142  -46.4295  -59.4029 H   0  0  0  0  0  0
  -11.7137  -45.8459  -59.5095 H   0  0  0  0  0  0
  -11.3993  -45.5061  -57.7740 H   0  0  0  0  0  0
  -13.0707  -43.9303  -58.8263 H   0  0  0  0  0  0
  -11.7570  -43.2530  -56.8139 H   0  0  0  0  0  0
  -11.8328  -39.7005  -60.4333 H   0  0  0  0  0  0
  -11.9357  -43.8348  -61.0962 H   0  0  0  0  0  0
  -13.1941  -41.7517  -59.7570 H   0  0  0  0  0  0
  -12.7909  -41.8096  -61.5065 H   0  0  0  0  0  0
  -13.7549  -45.2602  -63.6514 H   0  0  0  0  0  0
  -13.7895  -43.5288  -63.1740 H   0  0  0  0  0  0
  -15.3103  -43.7027  -65.0011 H   0  0  0  0  0  0
  -13.8113  -43.0068  -65.7049 H   0  0  0  0  0  0
  -13.1323  -45.3302  -66.3974 H   0  0  0  0  0  0
  -14.7305  -45.9186  -65.8262 H   0  0  0  0  0  0
  -15.6686  -44.0244  -67.4063 H   0  0  0  0  0  0
  -14.0548  -44.1529  -68.1847 H   0  0  0  0  0  0
  -14.9208  -46.8259  -67.7372 H   0  0  0  0  0  0
  -16.3492  -45.9450  -68.3779 H   0  0  0  0  0  0
  -14.0662  -45.0976  -69.8891 H   0  0  0  0  0  0
  -14.0179  -46.8904  -69.7883 H   0  0  0  0  0  0
  -16.3819  -46.9734  -70.5668 H   0  0  0  0  0  0
  -16.3732  -45.1842  -70.7260 H   0  0  0  0  0  0
  -14.1875  -46.7388  -72.0943 H   0  0  0  0  0  0
  -15.8395  -46.7934  -72.7975 H   0  0  0  0  0  0
  -15.8130  -44.2340  -72.6790 H   0  0  0  0  0  0
  -14.0542  -44.3750  -72.3424 H   0  0  0  0  0  0
  -14.3312  -46.0468  -74.5130 H   0  0  0  0  0  0
  -15.5642  -44.7893  -74.8664 H   0  0  0  0  0  0
  -13.2356  -43.4472  -73.8626 H   0  0  0  0  0  0
  -12.6846  -44.6264  -75.1005 H   0  0  0  0  0  0
  -13.2667  -43.0806  -76.6298 H   0  0  0  0  0  0
  -14.9726  -43.4862  -76.2401 H   0  0  0  0  0  0
  -13.9104  -41.6357  -74.2655 H   0  0  0  0  0  0
  -13.6589  -40.9922  -75.9236 H   0  0  0  0  0  0
  -16.2397  -42.0897  -76.0156 H   0  0  0  0  0  0
  -16.1524  -41.3339  -74.3884 H   0  0  0  0  0  0
  -15.0041  -39.3822  -75.9594 H   0  0  0  0  0  0
  -16.2162  -40.0850  -77.0835 H   0  0  0  0  0  0
  -16.9375  -39.2896  -74.2357 H   0  0  0  0  0  0
  -16.9623  -38.1144  -75.5939 H   0  0  0  0  0  0
  -18.5581  -39.5550  -76.8139 H   0  0  0  0  0  0
  -18.5305  -40.7348  -75.4597 H   0  0  0  0  0  0
  -19.1777  -38.5793  -74.0316 H   0  0  0  0  0  0
  -19.7847  -38.0044  -75.6214 H   0  0  0  0  0  0
  -21.5900  -39.3439  -75.4630 H   0  0  0  0  0  0
  -20.5439  -40.7840  -75.2216 H   0  0  0  0  0  0
  -20.3550  -39.6701  -72.7532 H   0  0  0  0  0  0
  -21.9876  -39.0882  -73.2249 H   0  0  0  0  0  0
  -22.5745  -41.1102  -72.3123 H   0  0  0  0  0  0
  -22.2430  -41.6550  -73.9916 H   0  0  0  0  0  0
  -19.7625  -41.9269  -73.0378 H   0  0  0  0  0  0
  -20.6367  -42.0585  -71.4741 H   0  0  0  0  0  0
  -21.8405  -43.9740  -72.1794 H   0  0  0  0  0  0
  -21.4472  -43.6929  -73.9094 H   0  0  0  0  0  0
  -19.2499  -44.4666  -73.6747 H   0  0  0  0  0  0
  -19.2081  -44.1287  -71.9110 H   0  0  0  0  0  0
  -19.3019  -46.5444  -72.3606 H   0  0  0  0  0  0
  -20.8273  -46.3197  -73.2823 H   0  0  0  0  0  0
  -20.7855  -45.9818  -71.5185 H   0  0  0  0  0  0
  1  2  1  0  0  0
  1 22  1  0  0  0
  1 59  1  0  0  0
  1 60  1  0  0  0
  2  3  1  0  0  0
  2  4  1  0  0  0
  2 61  1  0  0  0
  3 32  1  0  0  0
  3 62  1  0  0  0
  4  5  1  0  0  0
  4  6  1  0  0  0
  4 63  1  0  0  0
  5 64  1  0  0  0
  6  7  1  0  0  0
  6 65  1  0  0  0
  6 66  1  0  0  0
  7  8  1  0  0  0
  7 67  1  0  0  0
  7 68  1  0  0  0
  8  9  1  0  0  0
  8 69  1  0  0  0
  8 70  1  0  0  0
  9 10  1  0  0  0
  9 71  1  0  0  0
  9 72  1  0  0  0
 10 11  1  0  0  0
 10 73  1  0  0  0
 10 74  1  0  0  0
 11 12  1  0  0  0
 11 75  1  0  0  0
 11 76  1  0  0  0
 12 13  1  0  0  0
 12 77  1  0  0  0
 12 78  1  0  0  0
 13 14  1  0  0  0
 13 79  1  0  0  0
 13 80  1  0  0  0
 14 15  1  0  0  0
 14 81  1  0  0  0
 14 82  1  0  0  0
 15 16  1  0  0  0
 15 83  1  0  0  0
 15 84  1  0  0  0
 16 17  1  0  0  0
 16 85  1  0  0  0
 16 86  1  0  0  0
 17 18  1  0  0  0
 17 87  1  0  0  0
 17 88  1  0  0  0
 18 19  1  0  0  0
 18 89  1  0  0  0
 18 90  1  0  0  0
 19 20  1  0  0  0
 19 91  1  0  0  0
 19 92  1  0  0  0
 20 93  1  0  0  0
 20 94  1  0  0  0
 20 95  1  0  0  0
 21 22  1  0  0  0
 21 23  1  0  0  0
 21 31  1  0  0  0
 21 96  1  0  0  0
 23 24  1  0  0  0
 23 25  1  0  0  0
 23 97  1  0  0  0
 24 98  1  0  0  0
 25 26  1  0  0  0
 25 99  1  0  0  0
 25100  1  0  0  0
 26 27  1  0  0  0
 26 29  1  0  0  0
 26101  1  0  0  0
 27102  1  0  0  0
 28 30  1  0  0  0
 28103  1  0  0  0
 29 30  1  0  0  0
 29 31  1  0  0  0
 29104  1  0  0  0
 30105  1  0  0  0
 30106  1  0  0  0
 32 33  2  0  0  0
 32 34  1  0  0  0
 34 35  1  0  0  0
 34107  1  0  0  0
 34108  1  0  0  0
 35 36  1  0  0  0
 35109  1  0  0  0
 35110  1  0  0  0
 36 37  1  0  0  0
 36111  1  0  0  0
 36112  1  0  0  0
 37 38  1  0  0  0
 37113  1  0  0  0
 37114  1  0  0  0
 38 39  1  0  0  0
 38115  1  0  0  0
 38116  1  0  0  0
 39 40  1  0  0  0
 39117  1  0  0  0
 39118  1  0  0  0
 40 41  1  0  0  0
 40119  1  0  0  0
 40120  1  0  0  0
 41 42  1  0  0  0
 41121  1  0  0  0
 41122  1  0  0  0
 42 43  1  0  0  0
 42123  1  0  0  0
 42124  1  0  0  0
 43 44  1  0  0  0
 43125  1  0  0  0
 43126  1  0  0  0
 44 45  1  0  0  0
 44127  1  0  0  0
 44128  1  0  0  0
 45 46  1  0  0  0
 45129  1  0  0  0
 45130  1  0  0  0
 46 47  1  0  0  0
 46131  1  0  0  0
 46132  1  0  0  0
 47 48  1  0  0  0
 47133  1  0  0  0
 47134  1  0  0  0
 48 49  1  0  0  0
 48135  1  0  0  0
 48136  1  0  0  0
 49 50  1  0  0  0
 49137  1  0  0  0
 49138  1  0  0  0
 50 51  1  0  0  0
 50139  1  0  0  0
 50140  1  0  0  0
 51 52  1  0  0  0
 51141  1  0  0  0
 51142  1  0  0  0
 52 53  1  0  0  0
 52143  1  0  0  0
 52144  1  0  0  0
 53 54  1  0  0  0
 53145  1  0  0  0
 53146  1  0  0  0
 54 55  1  0  0  0
 54147  1  0  0  0
 54148  1  0  0  0
 55 56  1  0  0  0
 55149  1  0  0  0
 55150  1  0  0  0
 56 57  1  0  0  0
 56151  1  0  0  0
 56152  1  0  0  0
 57 58  1  0  0  0
 57153  1  0  0  0
 57154  1  0  0  0
 58155  1  0  0  0
 58156  1  0  0  0
 58157  1  0  0  0
M  END
> <s_m_source_file>
../3ard_ligand.sdf

> <i_m_source_file_index>
1

> <s_epik_input>
W0NIM11bQ0gyXVtDSDJdW0NIMl1bQ0gyXVtDSDJdW0NIMl1bQ0gyXVtDSDJdW0NIMl1bQ0gyXVtDSDJdW0NIMl1bQ0gyXVtDSDJdW0NAQEhdKFtPSF0pW0NASF0oW0NIMl1PW0NAQEhdMVtDQEhdKFtPSF0pW0NIMl1bQ0BASF0oW09IXSlbQ0BIXShPMSlbQ0gyXVtPSF0pW05IXUMoPU8pW0NIMl1bQ0gyXVtDSDJdW0NIMl1bQ0gyXVtDSDJdW0NIMl1bQ0gyXVtDSDJdW0NIMl1bQ0gyXVtDSDJdW0NIMl1bQ0gyXVtDSDJdW0NIMl1bQ0gyXVtDSDJdW0NIMl1bQ0gyXVtDSDJdW0NIMl1bQ0gyXVtDSDJdW0NIM10=

> <s_epik_cmdline>
J2VwaWtfYXBwJywgJy1pbWFlJywgJ2xpZ2FuZF9wcm8ubWFlJywgJy1vbWFlJywgJ2xpZ2FuZF9wcmVwLm1hZScsICctbXMnLCAnMScsICctcGgnLCAnNycsICctcGh0JywgJzAuNScsICctbnQn

> <s_epik_pKa_notes>
Molecule size exceeds maximum supported for generating protonation states

> <s_epik_Chemistry_Notes>
This compound contains an acetal/aminal-like group ( X-CH(R)-Y where X, Y are N, S, or O) that may be acid/base labile, releasing an aldehyde.

$$$$
