3are_ligand
                    3D
 Schrodinger Suite 2020-3.
157157  0  0  1  0            999 V2000
   -9.9700  -44.7830  -62.8540 C   0  0  0  0  0  0
  -10.3960  -45.3970  -64.1950 C   0  0  2  0  0  0
  -11.8590  -45.4400  -64.2830 N   0  0  0  0  0  0
   -9.9180  -46.8410  -64.3680 C   0  0  2  0  0  0
   -8.5070  -46.9000  -64.1400 O   0  0  0  0  0  0
  -10.1950  -47.3450  -65.7830 C   0  0  0  0  0  0
   -9.8970  -48.8310  -65.9500 C   0  0  0  0  0  0
  -11.1310  -49.5780  -66.4430 C   0  0  0  0  0  0
  -10.9980  -50.0040  -67.9000 C   0  0  0  0  0  0
  -10.3850  -51.3960  -68.0180 C   0  0  0  0  0  0
  -11.0040  -52.1750  -69.1730 C   0  0  0  0  0  0
   -9.9910  -53.1450  -69.7630 C   0  0  0  0  0  0
  -10.6140  -54.5160  -70.0080 C   0  0  0  0  0  0
   -9.6060  -55.6300  -69.7470 C   0  0  0  0  0  0
   -8.8340  -56.0020  -71.0090 C   0  0  0  0  0  0
   -7.7010  -56.9680  -70.6830 C   0  0  0  0  0  0
   -6.3430  -56.3230  -70.9350 C   0  0  0  0  0  0
   -5.4310  -56.4500  -69.7180 C   0  0  0  0  0  0
   -4.2930  -57.4300  -69.9790 C   0  0  0  0  0  0
   -2.9630  -56.7180  -70.0980 C   0  0  0  0  0  0
  -10.5360  -44.3780  -60.5940 C   0  0  2  0  0  0
  -10.7920  -45.1780  -61.7570 O   0  0  0  0  0  0
  -11.0410  -45.0970  -59.3480 C   0  0  2  0  0  0
  -10.5400  -46.4340  -59.3520 O   0  0  0  0  0  0
  -12.5660  -45.1320  -59.2860 C   0  0  1  0  0  0
  -12.9540  -45.6030  -57.9930 O   0  0  0  0  0  0
  -13.1810  -43.7550  -59.5240 C   0  0  0  0  0  0
  -12.4470  -40.7630  -60.0350 O   0  0  0  0  0  0
  -12.5780  -43.0900  -60.7610 C   0  0  1  0  0  0
  -13.1240  -41.6700  -60.9140 C   0  0  0  0  0  0
  -11.1450  -43.0790  -60.6760 O   0  0  0  0  0  0
  -12.6200  -44.3710  -64.5330 C   0  0  0  0  0  0
  -12.1810  -43.2390  -64.6890 O   0  0  0  0  0  0
  -14.1070  -44.6210  -64.6120 C   0  0  0  0  0  0
  -14.5680  -44.3110  -66.0330 C   0  0  0  0  0  0
  -15.3970  -45.4460  -66.6260 C   0  0  0  0  0  0
  -14.7720  -46.0030  -67.9030 C   0  0  0  0  0  0
  -15.4890  -45.5110  -69.1560 C   0  0  0  0  0  0
  -15.2340  -46.4450  -70.3370 C   0  0  0  0  0  0
  -15.9430  -45.9610  -71.6000 C   0  0  0  0  0  0
  -14.9310  -45.5010  -72.6430 C   0  0  0  0  0  0
  -15.5870  -45.0950  -73.9600 C   0  0  0  0  0  0
  -14.5620  -44.5060  -74.9300 C   0  0  0  0  0  0
  -14.4770  -42.9830  -74.8120 C   0  0  0  0  0  0
  -15.1710  -42.3090  -75.9910 C   0  0  0  0  0  0
  -14.8440  -40.8240  -76.0680 C   0  0  0  0  0  0
  -15.9740  -39.9900  -75.4730 C   0  0  0  0  0  0
  -16.7800  -39.2830  -76.5570 C   0  0  0  0  0  0
  -17.9520  -38.5030  -75.9670 C   0  0  0  0  0  0
  -19.2470  -39.3070  -76.0060 C   0  0  0  0  0  0
  -20.0570  -39.0660  -74.7380 C   0  0  0  0  0  0
  -21.1850  -40.0800  -74.5870 C   0  0  0  0  0  0
  -20.8690  -41.1150  -73.5130 C   0  0  0  0  0  0
  -22.0610  -42.0360  -73.2870 C   0  0  0  0  0  0
  -21.7890  -43.4330  -73.8340 C   0  0  0  0  0  0
  -21.7100  -44.4420  -72.6940 C   0  0  0  0  0  0
  -20.9340  -45.6910  -73.0930 C   0  0  0  0  0  0
  -19.5160  -45.6480  -72.5720 C   0  0  0  0  0  0
   -8.9404  -45.0915  -62.6201 H   0  0  0  0  0  0
  -10.0177  -43.6861  -62.9213 H   0  0  0  0  0  0
   -9.9852  -44.7555  -64.9886 H   0  0  0  0  0  0
  -12.3909  -46.3922  -64.1397 H   0  0  0  0  0  0
  -10.4007  -47.4893  -63.6219 H   0  0  0  0  0  0
   -8.0922  -46.5788  -63.1732 H   0  0  0  0  0  0
  -11.2554  -47.1855  -66.0280 H   0  0  0  0  0  0
   -9.5666  -46.7939  -66.4981 H   0  0  0  0  0  0
   -9.0867  -48.9624  -66.6822 H   0  0  0  0  0  0
   -9.5891  -49.2542  -64.9825 H   0  0  0  0  0  0
  -11.2803  -50.4817  -65.8338 H   0  0  0  0  0  0
  -12.0132  -48.9268  -66.3553 H   0  0  0  0  0  0
  -11.9925  -50.0191  -68.3698 H   0  0  0  0  0  0
  -10.3516  -49.2912  -68.4329 H   0  0  0  0  0  0
   -9.3031  -51.3064  -68.1952 H   0  0  0  0  0  0
  -10.5589  -51.9535  -67.0858 H   0  0  0  0  0  0
  -11.8728  -52.7427  -68.8084 H   0  0  0  0  0  0
  -11.3268  -51.4740  -69.9568 H   0  0  0  0  0  0
   -9.6222  -52.7518  -70.7219 H   0  0  0  0  0  0
   -9.1478  -53.2632  -69.0666 H   0  0  0  0  0  0
  -11.4734  -54.6537  -69.3353 H   0  0  0  0  0  0
  -10.9516  -54.5840  -71.0527 H   0  0  0  0  0  0
   -8.8843  -55.3003  -68.9851 H   0  0  0  0  0  0
  -10.1342  -56.5258  -69.3884 H   0  0  0  0  0  0
   -9.5149  -56.4823  -71.7271 H   0  0  0  0  0  0
   -8.4077  -55.0934  -71.4593 H   0  0  0  0  0  0
   -7.7615  -57.2601  -69.6242 H   0  0  0  0  0  0
   -7.7889  -57.8633  -71.3160 H   0  0  0  0  0  0
   -5.8557  -56.8162  -71.7890 H   0  0  0  0  0  0
   -6.4802  -55.2546  -71.1580 H   0  0  0  0  0  0
   -4.9987  -55.4670  -69.4796 H   0  0  0  0  0  0
   -6.0145  -56.8120  -68.8587 H   0  0  0  0  0  0
   -4.2298  -58.1482  -69.1482 H   0  0  0  0  0  0
   -4.4830  -57.9710  -70.9177 H   0  0  0  0  0  0
   -2.1681  -57.4549  -70.2856 H   0  0  0  0  0  0
   -2.7505  -56.1794  -69.1627 H   0  0  0  0  0  0
   -3.0037  -56.0022  -70.9322 H   0  0  0  0  0  0
   -9.4499  -44.2036  -60.5948 H   0  0  0  0  0  0
  -10.6477  -44.6022  -58.4477 H   0  0  0  0  0  0
   -9.4558  -46.6149  -59.3936 H   0  0  0  0  0  0
  -12.9581  -45.8389  -60.0320 H   0  0  0  0  0  0
  -12.6069  -46.5847  -57.6383 H   0  0  0  0  0  0
  -14.2658  -43.8589  -59.6737 H   0  0  0  0  0  0
  -12.9912  -43.1128  -58.6513 H   0  0  0  0  0  0
  -12.7238  -39.6985  -60.0236 H   0  0  0  0  0  0
  -12.7970  -43.6808  -61.6626 H   0  0  0  0  0  0
  -14.1981  -41.6773  -60.6769 H   0  0  0  0  0  0
  -12.9806  -41.3469  -61.9557 H   0  0  0  0  0  0
  -14.3154  -45.6732  -64.3682 H   0  0  0  0  0  0
  -14.6271  -43.9686  -63.8952 H   0  0  0  0  0  0
  -15.1861  -43.4011  -66.0276 H   0  0  0  0  0  0
  -13.6903  -44.1542  -66.6773 H   0  0  0  0  0  0
  -15.4735  -46.2647  -65.8953 H   0  0  0  0  0  0
  -16.4041  -45.0763  -66.8691 H   0  0  0  0  0  0
  -13.7202  -45.6870  -67.9644 H   0  0  0  0  0  0
  -14.8245  -47.1016  -67.8880 H   0  0  0  0  0  0
  -16.5718  -45.4704  -68.9667 H   0  0  0  0  0  0
  -15.1244  -44.5064  -69.4165 H   0  0  0  0  0  0
  -14.1541  -46.4914  -70.5413 H   0  0  0  0  0  0
  -15.6049  -47.4519  -70.0949 H   0  0  0  0  0  0
  -16.5407  -46.7821  -72.0224 H   0  0  0  0  0  0
  -16.6036  -45.1179  -71.3494 H   0  0  0  0  0  0
  -14.3786  -44.6307  -72.2590 H   0  0  0  0  0  0
  -14.2260  -46.3182  -72.8553 H   0  0  0  0  0  0
  -16.0462  -45.9780  -74.4284 H   0  0  0  0  0  0
  -16.3615  -44.3384  -73.7659 H   0  0  0  0  0  0
  -13.5684  -44.9250  -74.7125 H   0  0  0  0  0  0
  -14.8477  -44.7567  -75.9622 H   0  0  0  0  0  0
  -14.9654  -42.6596  -73.8809 H   0  0  0  0  0  0
  -13.4212  -42.6746  -74.7985 H   0  0  0  0  0  0
  -14.8445  -42.7829  -76.9284 H   0  0  0  0  0  0
  -16.2606  -42.4170  -75.8857 H   0  0  0  0  0  0
  -13.9202  -40.6224  -75.5060 H   0  0  0  0  0  0
  -14.7042  -40.5334  -77.1197 H   0  0  0  0  0  0
  -16.6530  -40.6439  -74.9061 H   0  0  0  0  0  0
  -15.5526  -39.2280  -74.8008 H   0  0  0  0  0  0
  -16.1301  -38.5781  -77.0962 H   0  0  0  0  0  0
  -17.1782  -40.0274  -77.2622 H   0  0  0  0  0  0
  -17.7342  -38.2513  -74.9186 H   0  0  0  0  0  0
  -18.1035  -37.5778  -76.5423 H   0  0  0  0  0  0
  -19.8436  -38.9991  -76.8773 H   0  0  0  0  0  0
  -19.0111  -40.3786  -76.0833 H   0  0  0  0  0  0
  -19.3983  -39.1484  -73.8609 H   0  0  0  0  0  0
  -20.4992  -38.0593  -74.7711 H   0  0  0  0  0  0
  -22.1115  -39.5585  -74.3048 H   0  0  0  0  0  0
  -21.3361  -40.6052  -75.5416 H   0  0  0  0  0  0
  -20.0067  -41.7202  -73.8294 H   0  0  0  0  0  0
  -20.6309  -40.6029  -72.5690 H   0  0  0  0  0  0
  -22.2644  -42.1145  -72.2088 H   0  0  0  0  0  0
  -22.9442  -41.6247  -73.7977 H   0  0  0  0  0  0
  -22.6017  -43.7245  -74.5156 H   0  0  0  0  0  0
  -20.8343  -43.4334  -74.3804 H   0  0  0  0  0  0
  -21.2036  -43.9827  -71.8323 H   0  0  0  0  0  0
  -22.7261  -44.7464  -72.4027 H   0  0  0  0  0  0
  -21.4318  -46.5800  -72.6783 H   0  0  0  0  0  0
  -20.9010  -45.7674  -74.1898 H   0  0  0  0  0  0
  -18.9854  -46.5620  -72.8771 H   0  0  0  0  0  0
  -19.5306  -45.5816  -71.4741 H   0  0  0  0  0  0
  -18.9999  -44.7690  -72.9856 H   0  0  0  0  0  0
  1  2  1  0  0  0
  1 22  1  0  0  0
  1 59  1  0  0  0
  1 60  1  0  0  0
  2  3  1  0  0  0
  2  4  1  0  0  0
  2 61  1  0  0  0
  3 32  1  0  0  0
  3 62  1  0  0  0
  4  5  1  0  0  0
  4  6  1  0  0  0
  4 63  1  0  0  0
  5 64  1  0  0  0
  6  7  1  0  0  0
  6 65  1  0  0  0
  6 66  1  0  0  0
  7  8  1  0  0  0
  7 67  1  0  0  0
  7 68  1  0  0  0
  8  9  1  0  0  0
  8 69  1  0  0  0
  8 70  1  0  0  0
  9 10  1  0  0  0
  9 71  1  0  0  0
  9 72  1  0  0  0
 10 11  1  0  0  0
 10 73  1  0  0  0
 10 74  1  0  0  0
 11 12  1  0  0  0
 11 75  1  0  0  0
 11 76  1  0  0  0
 12 13  1  0  0  0
 12 77  1  0  0  0
 12 78  1  0  0  0
 13 14  1  0  0  0
 13 79  1  0  0  0
 13 80  1  0  0  0
 14 15  1  0  0  0
 14 81  1  0  0  0
 14 82  1  0  0  0
 15 16  1  0  0  0
 15 83  1  0  0  0
 15 84  1  0  0  0
 16 17  1  0  0  0
 16 85  1  0  0  0
 16 86  1  0  0  0
 17 18  1  0  0  0
 17 87  1  0  0  0
 17 88  1  0  0  0
 18 19  1  0  0  0
 18 89  1  0  0  0
 18 90  1  0  0  0
 19 20  1  0  0  0
 19 91  1  0  0  0
 19 92  1  0  0  0
 20 93  1  0  0  0
 20 94  1  0  0  0
 20 95  1  0  0  0
 21 22  1  0  0  0
 21 23  1  0  0  0
 21 31  1  0  0  0
 21 96  1  0  0  0
 23 24  1  0  0  0
 23 25  1  0  0  0
 23 97  1  0  0  0
 24 98  1  0  0  0
 25 26  1  0  0  0
 25 27  1  0  0  0
 25 99  1  0  0  0
 26100  1  0  0  0
 27 29  1  0  0  0
 27101  1  0  0  0
 27102  1  0  0  0
 28 30  1  0  0  0
 28103  1  0  0  0
 29 30  1  0  0  0
 29 31  1  0  0  0
 29104  1  0  0  0
 30105  1  0  0  0
 30106  1  0  0  0
 32 33  2  0  0  0
 32 34  1  0  0  0
 34 35  1  0  0  0
 34107  1  0  0  0
 34108  1  0  0  0
 35 36  1  0  0  0
 35109  1  0  0  0
 35110  1  0  0  0
 36 37  1  0  0  0
 36111  1  0  0  0
 36112  1  0  0  0
 37 38  1  0  0  0
 37113  1  0  0  0
 37114  1  0  0  0
 38 39  1  0  0  0
 38115  1  0  0  0
 38116  1  0  0  0
 39 40  1  0  0  0
 39117  1  0  0  0
 39118  1  0  0  0
 40 41  1  0  0  0
 40119  1  0  0  0
 40120  1  0  0  0
 41 42  1  0  0  0
 41121  1  0  0  0
 41122  1  0  0  0
 42 43  1  0  0  0
 42123  1  0  0  0
 42124  1  0  0  0
 43 44  1  0  0  0
 43125  1  0  0  0
 43126  1  0  0  0
 44 45  1  0  0  0
 44127  1  0  0  0
 44128  1  0  0  0
 45 46  1  0  0  0
 45129  1  0  0  0
 45130  1  0  0  0
 46 47  1  0  0  0
 46131  1  0  0  0
 46132  1  0  0  0
 47 48  1  0  0  0
 47133  1  0  0  0
 47134  1  0  0  0
 48 49  1  0  0  0
 48135  1  0  0  0
 48136  1  0  0  0
 49 50  1  0  0  0
 49137  1  0  0  0
 49138  1  0  0  0
 50 51  1  0  0  0
 50139  1  0  0  0
 50140  1  0  0  0
 51 52  1  0  0  0
 51141  1  0  0  0
 51142  1  0  0  0
 52 53  1  0  0  0
 52143  1  0  0  0
 52144  1  0  0  0
 53 54  1  0  0  0
 53145  1  0  0  0
 53146  1  0  0  0
 54 55  1  0  0  0
 54147  1  0  0  0
 54148  1  0  0  0
 55 56  1  0  0  0
 55149  1  0  0  0
 55150  1  0  0  0
 56 57  1  0  0  0
 56151  1  0  0  0
 56152  1  0  0  0
 57 58  1  0  0  0
 57153  1  0  0  0
 57154  1  0  0  0
 58155  1  0  0  0
 58156  1  0  0  0
 58157  1  0  0  0
M  END
> <s_m_source_file>
../3are_ligand.sdf

> <i_m_source_file_index>
1

> <s_epik_input>
W0NIM11bQ0gyXVtDSDJdW0NIMl1bQ0gyXVtDSDJdW0NIMl1bQ0gyXVtDSDJdW0NIMl1bQ0gyXVtDSDJdW0NIMl1bQ0gyXVtDSDJdW0NAQEhdKFtPSF0pW0NASF0oW0NIMl1PW0NAQEhdMVtDQEhdKFtPSF0pW0NAQEhdKFtPSF0pW0NIMl1bQ0BIXShPMSlbQ0gyXVtPSF0pW05IXUMoPU8pW0NIMl1bQ0gyXVtDSDJdW0NIMl1bQ0gyXVtDSDJdW0NIMl1bQ0gyXVtDSDJdW0NIMl1bQ0gyXVtDSDJdW0NIMl1bQ0gyXVtDSDJdW0NIMl1bQ0gyXVtDSDJdW0NIMl1bQ0gyXVtDSDJdW0NIMl1bQ0gyXVtDSDJdW0NIM10=

> <s_epik_cmdline>
J2VwaWtfYXBwJywgJy1pbWFlJywgJ2xpZ2FuZF9wcm8ubWFlJywgJy1vbWFlJywgJ2xpZ2FuZF9wcmVwLm1hZScsICctbXMnLCAnMScsICctcGgnLCAnNycsICctcGh0JywgJzAuNScsICctbnQn

> <s_epik_pKa_notes>
Molecule size exceeds maximum supported for generating protonation states

> <s_epik_Chemistry_Notes>
This compound contains an acetal/aminal-like group ( X-CH(R)-Y where X, Y are N, S, or O) that may be acid/base labile, releasing an aldehyde.

$$$$
