3arf_ligand
                    3D
 Schrodinger Suite 2020-3.
137137  0  0  1  0            999 V2000
   -9.5620  -44.0820  -62.7410 C   0  0  0  0  0  0
   -9.9400  -45.0820  -63.8450 C   0  0  2  0  0  0
  -11.4100  -45.1540  -63.9290 N   0  0  0  0  0  0
   -9.3680  -46.4690  -63.5050 C   0  0  2  0  0  0
   -7.9390  -46.3660  -63.4870 O   0  0  0  0  0  0
   -9.7340  -47.6280  -64.4410 C   0  0  2  0  0  0
   -8.8690  -48.7400  -64.1550 O   0  0  0  0  0  0
   -9.6300  -47.3080  -65.9320 C   0  0  0  0  0  0
   -9.4750  -48.5740  -66.7740 C   0  0  0  0  0  0
  -10.8190  -49.1760  -67.1570 C   0  0  0  0  0  0
  -10.7700  -49.6970  -68.5850 C   0  0  0  0  0  0
  -11.0750  -51.1890  -68.6350 C   0  0  0  0  0  0
   -9.8080  -52.0160  -68.8140 C   0  0  0  0  0  0
  -10.0270  -53.1120  -69.8440 C   0  0  0  0  0  0
   -9.9350  -54.4810  -69.1870 C   0  0  0  0  0  0
   -8.9550  -55.3780  -69.9310 C   0  0  0  0  0  0
   -7.6820  -55.5710  -69.1170 C   0  0  0  0  0  0
   -6.7690  -56.6020  -69.7680 C   0  0  0  0  0  0
   -5.3160  -56.1590  -69.6860 C   0  0  0  0  0  0
   -4.3890  -57.3230  -70.0050 C   0  0  0  0  0  0
   -2.9710  -56.8400  -70.2080 C   0  0  0  0  0  0
   -9.5240  -43.8630  -60.3560 C   0  0  2  0  0  0
  -10.1170  -44.4900  -61.4940 O   0  0  0  0  0  0
   -9.8110  -44.7220  -59.1310 C   0  0  2  0  0  0
   -9.2940  -46.0360  -59.3320 O   0  0  0  0  0  0
  -11.3120  -44.7860  -58.8690 C   0  0  1  0  0  0
  -11.5390  -45.5110  -57.6600 O   0  0  0  0  0  0
  -11.9070  -43.3820  -58.7610 C   0  0  1  0  0  0
  -11.4860  -42.7570  -57.5410 O   0  0  0  0  0  0
  -11.3200  -40.2680  -60.8040 O   0  0  0  0  0  0
  -11.4930  -42.5200  -59.9540 C   0  0  1  0  0  0
  -11.9430  -41.0730  -59.7980 C   0  0  0  0  0  0
  -10.0720  -42.5570  -60.1300 O   0  0  0  0  0  0
  -12.2400  -44.1530  -64.2990 C   0  0  0  0  0  0
  -11.9010  -43.0130  -64.6070 O   0  0  0  0  0  0
  -13.7120  -44.4980  -64.3160 C   0  0  0  0  0  0
  -14.3030  -44.1760  -65.6860 C   0  0  0  0  0  0
  -14.5970  -45.4430  -66.4840 C   0  0  0  0  0  0
  -14.7950  -45.1320  -67.9640 C   0  0  0  0  0  0
  -15.2820  -46.3540  -68.7430 C   0  0  0  0  0  0
  -14.7320  -46.3780  -70.1690 C   0  0  0  0  0  0
  -15.7300  -45.8300  -71.1880 C   0  0  0  0  0  0
  -15.4930  -46.4300  -72.5720 C   0  0  0  0  0  0
  -15.3340  -45.3590  -73.6510 C   0  0  0  0  0  0
  -13.8740  -45.2130  -74.0350 C   0  0  0  0  0  0
  -13.4280  -44.4950  -75.0740 C   0  0  0  0  0  0
  -14.3240  -43.7290  -76.0250 C   0  0  0  0  0  0
  -14.5800  -42.3410  -75.4860 C   0  0  0  0  0  0
  -15.3390  -41.4850  -76.1650 C   0  0  0  0  0  0
  -15.5940  -40.1020  -75.6070 C   0  0  0  0  0  0
  -16.9720  -39.5950  -76.0370 C   0  0  0  0  0  0
  -18.1050  -40.1680  -75.1900 C   0  0  0  0  0  0
  -19.4580  -39.6510  -75.6560 C   0  0  0  0  0  0
  -20.5350  -40.0110  -74.6560 C   0  0  0  0  0  0
   -8.4669  -44.0345  -62.6486 H   0  0  0  0  0  0
   -9.9517  -43.0862  -62.9991 H   0  0  0  0  0  0
   -9.5653  -44.7513  -64.8249 H   0  0  0  0  0  0
  -11.9301  -46.0899  -63.6768 H   0  0  0  0  0  0
   -9.7564  -46.7309  -62.5097 H   0  0  0  0  0  0
   -7.4509  -45.5935  -62.8746 H   0  0  0  0  0  0
  -10.7752  -47.9142  -64.2312 H   0  0  0  0  0  0
   -8.7966  -49.1310  -63.1294 H   0  0  0  0  0  0
  -10.5406  -46.7848  -66.2591 H   0  0  0  0  0  0
   -8.7546  -46.6659  -66.1090 H   0  0  0  0  0  0
   -8.9311  -48.3344  -67.6996 H   0  0  0  0  0  0
   -8.9128  -49.3276  -66.2030 H   0  0  0  0  0  0
  -11.0553  -50.0078  -66.4771 H   0  0  0  0  0  0
  -11.6009  -48.4061  -67.0801 H   0  0  0  0  0  0
  -11.5147  -49.1649  -69.1952 H   0  0  0  0  0  0
   -9.7663  -49.5288  -69.0025 H   0  0  0  0  0  0
  -11.5596  -51.4958  -67.6964 H   0  0  0  0  0  0
  -11.7475  -51.3977  -69.4801 H   0  0  0  0  0  0
   -8.9899  -51.3644  -69.1549 H   0  0  0  0  0  0
   -9.5331  -52.4781  -67.8544 H   0  0  0  0  0  0
  -11.0234  -52.9970  -70.2956 H   0  0  0  0  0  0
   -9.2586  -53.0377  -70.6276 H   0  0  0  0  0  0
   -9.5905  -54.3669  -68.1486 H   0  0  0  0  0  0
  -10.9259  -54.9585  -69.1942 H   0  0  0  0  0  0
   -9.4180  -56.3601  -70.1072 H   0  0  0  0  0  0
   -8.6952  -54.9168  -70.8953 H   0  0  0  0  0  0
   -7.1422  -54.6150  -69.0485 H   0  0  0  0  0  0
   -7.9422  -55.9184  -68.1063 H   0  0  0  0  0  0
   -6.8770  -57.5664  -69.2501 H   0  0  0  0  0  0
   -7.0459  -56.7209  -70.8259 H   0  0  0  0  0  0
   -5.1380  -55.3499  -70.4097 H   0  0  0  0  0  0
   -5.1000  -55.7964  -68.6702 H   0  0  0  0  0  0
   -4.4030  -58.0417  -69.1723 H   0  0  0  0  0  0
   -4.7290  -57.8211  -70.9250 H   0  0  0  0  0  0
   -2.3209  -57.6973  -70.4369 H   0  0  0  0  0  0
   -2.6171  -56.3460  -69.2911 H   0  0  0  0  0  0
   -2.9432  -56.1253  -71.0437 H   0  0  0  0  0  0
   -8.4576  -43.7286  -60.5898 H   0  0  0  0  0  0
   -9.2832  -44.3290  -58.2495 H   0  0  0  0  0  0
   -8.2225  -46.1804  -59.5348 H   0  0  0  0  0  0
  -11.8242  -45.3465  -59.6649 H   0  0  0  0  0  0
  -11.1759  -46.5447  -57.5621 H   0  0  0  0  0  0
  -13.0034  -43.4456  -58.6989 H   0  0  0  0  0  0
  -11.6993  -43.2375  -56.5748 H   0  0  0  0  0  0
  -11.5259  -39.1884  -60.8501 H   0  0  0  0  0  0
  -11.9277  -42.9477  -60.8695 H   0  0  0  0  0  0
  -11.6540  -40.7046  -58.8026 H   0  0  0  0  0  0
  -13.0361  -41.0154  -59.9071 H   0  0  0  0  0  0
  -13.8396  -45.5706  -64.1079 H   0  0  0  0  0  0
  -14.2352  -43.9106  -63.5471 H   0  0  0  0  0  0
  -15.2438  -43.6206  -65.5581 H   0  0  0  0  0  0
  -13.5905  -43.5635  -66.2579 H   0  0  0  0  0  0
  -13.7549  -46.1435  -66.3832 H   0  0  0  0  0  0
  -15.5137  -45.9140  -66.0996 H   0  0  0  0  0  0
  -15.5429  -44.3329  -68.0739 H   0  0  0  0  0  0
  -13.8404  -44.8032  -68.4005 H   0  0  0  0  0  0
  -14.9522  -47.2703  -68.2314 H   0  0  0  0  0  0
  -16.3805  -46.3399  -68.7980 H   0  0  0  0  0  0
  -13.8214  -45.7631  -70.2212 H   0  0  0  0  0  0
  -14.4919  -47.4135  -70.4520 H   0  0  0  0  0  0
  -16.7531  -46.0778  -70.8690 H   0  0  0  0  0  0
  -15.6217  -44.7375  -71.2563 H   0  0  0  0  0  0
  -14.5751  -47.0360  -72.5566 H   0  0  0  0  0  0
  -16.3475  -47.0657  -72.8473 H   0  0  0  0  0  0
  -15.9128  -45.6465  -74.5411 H   0  0  0  0  0  0
  -15.7033  -44.3959  -73.2689 H   0  0  0  0  0  0
  -13.1617  -45.7493  -73.3908 H   0  0  0  0  0  0
  -12.3489  -44.4360  -75.2790 H   0  0  0  0  0  0
  -13.8352  -43.6519  -77.0074 H   0  0  0  0  0  0
  -15.2821  -44.2585  -76.1327 H   0  0  0  0  0  0
  -14.1347  -42.0397  -74.5263 H   0  0  0  0  0  0
  -15.7784  -41.7838  -77.1281 H   0  0  0  0  0  0
  -15.5534  -40.1367  -74.5083 H   0  0  0  0  0  0
  -14.8261  -39.4086  -75.9805 H   0  0  0  0  0  0
  -17.0049  -38.4994  -75.9444 H   0  0  0  0  0  0
  -17.1577  -39.8803  -77.0830 H   0  0  0  0  0  0
  -18.1031  -41.2652  -75.2690 H   0  0  0  0  0  0
  -17.9613  -39.8758  -74.1393 H   0  0  0  0  0  0
  -19.4168  -38.5566  -75.7587 H   0  0  0  0  0  0
  -19.7076  -40.1013  -76.6281 H   0  0  0  0  0  0
  -21.5048  -39.6300  -75.0086 H   0  0  0  0  0  0
  -20.2961  -39.5600  -73.6816 H   0  0  0  0  0  0
  -20.5870  -41.1047  -74.5509 H   0  0  0  0  0  0
  1  2  1  0  0  0
  1 23  1  0  0  0
  1 55  1  0  0  0
  1 56  1  0  0  0
  2  3  1  0  0  0
  2  4  1  0  0  0
  2 57  1  0  0  0
  3 34  1  0  0  0
  3 58  1  0  0  0
  4  5  1  0  0  0
  4  6  1  0  0  0
  4 59  1  0  0  0
  5 60  1  0  0  0
  6  7  1  0  0  0
  6  8  1  0  0  0
  6 61  1  0  0  0
  7 62  1  0  0  0
  8  9  1  0  0  0
  8 63  1  0  0  0
  8 64  1  0  0  0
  9 10  1  0  0  0
  9 65  1  0  0  0
  9 66  1  0  0  0
 10 11  1  0  0  0
 10 67  1  0  0  0
 10 68  1  0  0  0
 11 12  1  0  0  0
 11 69  1  0  0  0
 11 70  1  0  0  0
 12 13  1  0  0  0
 12 71  1  0  0  0
 12 72  1  0  0  0
 13 14  1  0  0  0
 13 73  1  0  0  0
 13 74  1  0  0  0
 14 15  1  0  0  0
 14 75  1  0  0  0
 14 76  1  0  0  0
 15 16  1  0  0  0
 15 77  1  0  0  0
 15 78  1  0  0  0
 16 17  1  0  0  0
 16 79  1  0  0  0
 16 80  1  0  0  0
 17 18  1  0  0  0
 17 81  1  0  0  0
 17 82  1  0  0  0
 18 19  1  0  0  0
 18 83  1  0  0  0
 18 84  1  0  0  0
 19 20  1  0  0  0
 19 85  1  0  0  0
 19 86  1  0  0  0
 20 21  1  0  0  0
 20 87  1  0  0  0
 20 88  1  0  0  0
 21 89  1  0  0  0
 21 90  1  0  0  0
 21 91  1  0  0  0
 22 23  1  0  0  0
 22 24  1  0  0  0
 22 33  1  0  0  0
 22 92  1  0  0  0
 24 25  1  0  0  0
 24 26  1  0  0  0
 24 93  1  0  0  0
 25 94  1  0  0  0
 26 27  1  0  0  0
 26 28  1  0  0  0
 26 95  1  0  0  0
 27 96  1  0  0  0
 28 29  1  0  0  0
 28 31  1  0  0  0
 28 97  1  0  0  0
 29 98  1  0  0  0
 30 32  1  0  0  0
 30 99  1  0  0  0
 31 32  1  0  0  0
 31 33  1  0  0  0
 31100  1  0  0  0
 32101  1  0  0  0
 32102  1  0  0  0
 34 35  2  0  0  0
 34 36  1  0  0  0
 36 37  1  0  0  0
 36103  1  0  0  0
 36104  1  0  0  0
 37 38  1  0  0  0
 37105  1  0  0  0
 37106  1  0  0  0
 38 39  1  0  0  0
 38107  1  0  0  0
 38108  1  0  0  0
 39 40  1  0  0  0
 39109  1  0  0  0
 39110  1  0  0  0
 40 41  1  0  0  0
 40111  1  0  0  0
 40112  1  0  0  0
 41 42  1  0  0  0
 41113  1  0  0  0
 41114  1  0  0  0
 42 43  1  0  0  0
 42115  1  0  0  0
 42116  1  0  0  0
 43 44  1  0  0  0
 43117  1  0  0  0
 43118  1  0  0  0
 44 45  1  0  0  0
 44119  1  0  0  0
 44120  1  0  0  0
 45 46  2  0  0  0
 45121  1  0  0  0
 46 47  1  0  0  0
 46122  1  0  0  0
 47 48  1  0  0  0
 47123  1  0  0  0
 47124  1  0  0  0
 48 49  2  0  0  0
 48125  1  0  0  0
 49 50  1  0  0  0
 49126  1  0  0  0
 50 51  1  0  0  0
 50127  1  0  0  0
 50128  1  0  0  0
 51 52  1  0  0  0
 51129  1  0  0  0
 51130  1  0  0  0
 52 53  1  0  0  0
 52131  1  0  0  0
 52132  1  0  0  0
 53 54  1  0  0  0
 53133  1  0  0  0
 53134  1  0  0  0
 54135  1  0  0  0
 54136  1  0  0  0
 54137  1  0  0  0
M  END
> <s_m_source_file>
../3arf_ligand.sdf

> <i_m_source_file_index>
1

> <s_epik_input>
W0NIM11bQ0gyXVtDSDJdW0NIMl1bQ0gyXVtDSDJdW0NIMl1bQ0gyXVtDSDJdW0NIMl1bQ0gyXVtDSDJdW0NIMl1bQ0gyXVtDQEBIXShbT0hdKVtDQEBIXShbT0hdKVtDQEhdKFtDSDJdT1tDQEBIXTFbQ0BIXShbT0hdKVtDQEBIXShbT0hdKVtDQEBIXShbT0hdKVtDQEhdKE8xKVtDSDJdW09IXSlbTkhdQyg9TylbQ0gyXVtDSDJdW0NIMl1bQ0gyXVtDSDJdW0NIMl1bQ0gyXVtDSDJdW0NIMl0vW0NIXT1bQ0hdXFtDSDJdL1tDSF09W0NIXS9bQ0gyXVtDSDJdW0NIMl1bQ0gyXVtDSDNd

> <s_epik_cmdline>
J2VwaWtfYXBwJywgJy1pbWFlJywgJ2xpZ2FuZF9wcm8ubWFlJywgJy1vbWFlJywgJ2xpZ2FuZF9wcmVwLm1hZScsICctbXMnLCAnMScsICctcGgnLCAnNycsICctcGh0JywgJzAuNScsICctbnQn

> <r_lp_tautomer_probability>
1

> <r_epik_Ionization_Penalty>
  0.0000

> <r_epik_Ionization_Penalty_Charging>
  0.0000

> <r_epik_Ionization_Penalty_Neutral>
  0.0000

> <r_epik_State_Penalty>
 -0.0000

> <r_epik_Charging_Adjusted_Penalty>
0

> <i_epik_Tot_Q>
0

> <i_epik_Tot_abs_Q>
0

> <s_epik_Chemistry_Notes>
This compound contains an acetal/aminal-like group ( X-CH(R)-Y where X, Y are N, S, or O) that may be acid/base labile, releasing an aldehyde.

$$$$
