3arg_ligand
                    3D
 Schrodinger Suite 2020-3.
137137  0  0  1  0            999 V2000
   -9.8350  -43.4600  -62.9790 C   0  0  0  0  0  0
  -10.1220  -44.5460  -64.0240 C   0  0  2  0  0  0
  -11.5820  -44.6560  -64.0760 N   0  0  0  0  0  0
   -9.5060  -45.8990  -63.6410 C   0  0  2  0  0  0
   -8.0790  -45.7880  -63.7390 O   0  0  0  0  0  0
   -9.9620  -47.0820  -64.4970 C   0  0  2  0  0  0
   -9.4180  -48.2800  -63.9250 O   0  0  0  0  0  0
   -9.5330  -46.9640  -65.9610 C   0  0  0  0  0  0
   -9.6030  -48.2990  -66.6930 C   0  0  0  0  0  0
  -10.8850  -48.4190  -67.5030 C   0  0  0  0  0  0
  -11.1140  -49.8670  -67.9010 C   0  0  0  0  0  0
  -10.9770  -50.0590  -69.4050 C   0  0  0  0  0  0
  -11.1550  -51.5270  -69.7700 C   0  0  0  0  0  0
   -9.8510  -52.1250  -70.2790 C   0  0  0  0  0  0
  -10.0030  -53.6240  -70.4920 C   0  0  0  0  0  0
   -8.8720  -54.3800  -69.8120 C   0  0  0  0  0  0
   -8.9210  -55.8600  -70.1720 C   0  0  0  0  0  0
   -7.8050  -56.2320  -71.1450 C   0  0  0  0  0  0
   -6.6390  -56.8910  -70.4130 C   0  0  0  0  0  0
   -5.3040  -56.5280  -71.0510 C   0  0  0  0  0  0
   -4.5450  -55.5420  -70.1940 C   0  0  0  0  0  0
  -10.4520  -43.5980  -60.5580 C   0  0  3  0  0  0
   -9.5930  -43.9840  -61.6680 O   0  0  0  0  0  0
  -10.8010  -44.5430  -59.4540 C   0  0  2  0  0  0
  -10.1960  -45.8220  -59.6680 O   0  0  0  0  0  0
  -12.3200  -44.6930  -59.4190 C   0  0  1  0  0  0
  -12.6990  -45.0530  -58.0860 O   0  0  0  0  0  0
  -13.1360  -43.4520  -59.8170 C   0  0  2  0  0  0
  -14.2890  -43.9080  -60.5370 O   0  0  0  0  0  0
  -14.0730  -40.7470  -61.4120 O   0  0  0  0  0  0
  -12.4560  -42.3670  -60.6760 C   0  0  1  0  0  0
  -13.0800  -41.0000  -60.4100 C   0  0  0  0  0  0
  -11.0420  -42.2790  -60.4860 O   0  0  0  0  0  0
  -12.3050  -43.9960  -64.9880 C   0  0  0  0  0  0
  -11.8100  -43.2600  -65.8330 O   0  0  0  0  0  0
  -13.8050  -44.1960  -64.9230 C   0  0  0  0  0  0
  -14.4700  -43.9850  -66.2840 C   0  0  0  0  0  0
  -14.3300  -45.2160  -67.1840 C   0  0  0  0  0  0
  -15.2150  -45.1040  -68.4230 C   0  0  0  0  0  0
  -14.6750  -45.9170  -69.5980 C   0  0  0  0  0  0
  -14.6440  -45.0660  -70.8690 C   0  0  0  0  0  0
  -14.6980  -45.9040  -72.1450 C   0  0  0  0  0  0
  -15.1780  -45.0600  -73.3250 C   0  0  0  0  0  0
  -14.3780  -45.3450  -74.5940 C   0  0  0  0  0  0
  -14.6540  -44.2720  -75.6240 C   0  0  0  0  0  0
  -13.8580  -43.2070  -75.7200 C   0  0  0  0  0  0
  -14.1440  -42.1340  -76.7450 C   0  0  0  0  0  0
  -14.8480  -40.9720  -76.0800 C   0  0  0  0  0  0
  -16.0450  -40.5740  -76.5080 C   0  0  0  0  0  0
  -16.7470  -39.4120  -75.8370 C   0  0  0  0  0  0
  -18.1560  -39.2090  -76.3970 C   0  0  0  0  0  0
  -19.1670  -40.1240  -75.7100 C   0  0  0  0  0  0
  -20.4450  -39.3870  -75.3250 C   0  0  0  0  0  0
  -21.2300  -40.1540  -74.2790 C   0  0  0  0  0  0
   -8.9426  -42.8905  -63.2777 H   0  0  0  0  0  0
  -10.6974  -42.7806  -62.9099 H   0  0  0  0  0  0
   -9.7220  -44.2752  -65.0123 H   0  0  0  0  0  0
  -12.1116  -45.2939  -63.3531 H   0  0  0  0  0  0
   -9.7826  -46.1180  -62.5991 H   0  0  0  0  0  0
   -7.5503  -44.9931  -63.1925 H   0  0  0  0  0  0
  -11.0588  -47.1611  -64.4694 H   0  0  0  0  0  0
   -9.6238  -48.5302  -62.8738 H   0  0  0  0  0  0
  -10.1943  -46.2552  -66.4808 H   0  0  0  0  0  0
   -8.4955  -46.6018  -66.0110 H   0  0  0  0  0  0
   -8.7469  -48.3868  -67.3781 H   0  0  0  0  0  0
   -9.5731  -49.1202  -65.9617 H   0  0  0  0  0  0
  -11.7351  -48.0711  -66.8977 H   0  0  0  0  0  0
  -10.8045  -47.8025  -68.4105 H   0  0  0  0  0  0
  -10.3733  -50.5068  -67.3989 H   0  0  0  0  0  0
  -12.1269  -50.1739  -67.6012 H   0  0  0  0  0  0
  -11.7452  -49.4652  -69.9219 H   0  0  0  0  0  0
   -9.9789  -49.7277  -69.7275 H   0  0  0  0  0  0
  -11.4775  -52.0893  -68.8813 H   0  0  0  0  0  0
  -11.9165  -51.6191  -70.5584 H   0  0  0  0  0  0
   -9.5796  -51.6529  -71.2347 H   0  0  0  0  0  0
   -9.0537  -51.9467  -69.5425 H   0  0  0  0  0  0
  -10.9608  -53.9594  -70.0676 H   0  0  0  0  0  0
   -9.9817  -53.8453  -71.5693 H   0  0  0  0  0  0
   -7.9063  -53.9664  -70.1383 H   0  0  0  0  0  0
   -8.9655  -54.2761  -68.7209 H   0  0  0  0  0  0
   -8.8049  -56.4633  -69.2596 H   0  0  0  0  0  0
   -9.8875  -56.0908  -70.6437 H   0  0  0  0  0  0
   -8.1930  -56.9356  -71.8963 H   0  0  0  0  0  0
   -7.4388  -55.3245  -71.6472 H   0  0  0  0  0  0
   -6.6273  -56.5558  -69.3654 H   0  0  0  0  0  0
   -6.7557  -57.9843  -70.4468 H   0  0  0  0  0  0
   -4.6945  -57.4362  -71.1679 H   0  0  0  0  0  0
   -5.4803  -56.0752  -72.0379 H   0  0  0  0  0  0
   -3.5873  -55.2977  -70.6769 H   0  0  0  0  0  0
   -4.3546  -55.9858  -69.2056 H   0  0  0  0  0  0
   -5.1405  -54.6247  -70.0756 H   0  0  0  0  0  0
   -9.6091  -43.4716  -61.2534 H   0  0  0  0  0  0
  -10.3819  -44.1840  -58.5024 H   0  0  0  0  0  0
   -9.1009  -45.9102  -59.7226 H   0  0  0  0  0  0
  -12.5734  -45.4994  -60.1229 H   0  0  0  0  0  0
  -12.2337  -45.9219  -57.5976 H   0  0  0  0  0  0
  -13.4107  -42.9619  -58.8713 H   0  0  0  0  0  0
  -14.9317  -44.6905  -60.1074 H   0  0  0  0  0  0
  -14.6426  -39.8061  -61.3967 H   0  0  0  0  0  0
  -12.5443  -42.6640  -61.7315 H   0  0  0  0  0  0
  -12.3058  -40.2199  -60.4559 H   0  0  0  0  0  0
  -13.5513  -40.9908  -59.4161 H   0  0  0  0  0  0
  -14.0241  -45.2208  -64.5886 H   0  0  0  0  0  0
  -14.2403  -43.4776  -64.2127 H   0  0  0  0  0  0
  -15.5417  -43.7826  -66.1410 H   0  0  0  0  0  0
  -14.0003  -43.1305  -66.7931 H   0  0  0  0  0  0
  -13.2841  -45.3148  -67.5100 H   0  0  0  0  0  0
  -14.6259  -46.1153  -66.6239 H   0  0  0  0  0  0
  -16.2236  -45.4747  -68.1879 H   0  0  0  0  0  0
  -15.2751  -44.0514  -68.7367 H   0  0  0  0  0  0
  -13.6538  -46.2566  -69.3703 H   0  0  0  0  0  0
  -15.3223  -46.7900  -69.7682 H   0  0  0  0  0  0
  -15.5092  -44.3868  -70.8767 H   0  0  0  0  0  0
  -13.7153  -44.4770  -70.8934 H   0  0  0  0  0  0
  -13.6942  -46.2930  -72.3710 H   0  0  0  0  0  0
  -15.3934  -46.7444  -72.0026 H   0  0  0  0  0  0
  -16.2359  -45.2822  -73.5284 H   0  0  0  0  0  0
  -15.0677  -43.9930  -73.0815 H   0  0  0  0  0  0
  -13.3041  -45.3539  -74.3562 H   0  0  0  0  0  0
  -14.6716  -46.3241  -75.0004 H   0  0  0  0  0  0
  -15.5184  -44.3750  -76.2965 H   0  0  0  0  0  0
  -12.9898  -43.1072  -75.0519 H   0  0  0  0  0  0
  -13.1978  -41.7852  -77.1844 H   0  0  0  0  0  0
  -14.7864  -42.5457  -77.5373 H   0  0  0  0  0  0
  -14.3651  -40.4548  -75.2378 H   0  0  0  0  0  0
  -16.5269  -41.0898  -77.3516 H   0  0  0  0  0  0
  -16.8262  -39.6057  -74.7571 H   0  0  0  0  0  0
  -16.1704  -38.4900  -76.0028 H   0  0  0  0  0  0
  -18.4665  -38.1656  -76.2390 H   0  0  0  0  0  0
  -18.1584  -39.4332  -77.4739 H   0  0  0  0  0  0
  -19.4386  -40.9456  -76.3891 H   0  0  0  0  0  0
  -18.7228  -40.5381  -74.7928 H   0  0  0  0  0  0
  -20.1891  -38.3988  -74.9152 H   0  0  0  0  0  0
  -21.0785  -39.2618  -76.2155 H   0  0  0  0  0  0
  -22.1434  -39.5965  -74.0243 H   0  0  0  0  0  0
  -20.6133  -40.2795  -73.3768 H   0  0  0  0  0  0
  -21.5028  -41.1425  -74.6771 H   0  0  0  0  0  0
  1  2  1  0  0  0
  1 23  1  0  0  0
  1 55  1  0  0  0
  1 56  1  0  0  0
  2  3  1  0  0  0
  2  4  1  0  0  0
  2 57  1  0  0  0
  3 34  1  0  0  0
  3 58  1  0  0  0
  4  5  1  0  0  0
  4  6  1  0  0  0
  4 59  1  0  0  0
  5 60  1  0  0  0
  6  7  1  0  0  0
  6  8  1  0  0  0
  6 61  1  0  0  0
  7 62  1  0  0  0
  8  9  1  0  0  0
  8 63  1  0  0  0
  8 64  1  0  0  0
  9 10  1  0  0  0
  9 65  1  0  0  0
  9 66  1  0  0  0
 10 11  1  0  0  0
 10 67  1  0  0  0
 10 68  1  0  0  0
 11 12  1  0  0  0
 11 69  1  0  0  0
 11 70  1  0  0  0
 12 13  1  0  0  0
 12 71  1  0  0  0
 12 72  1  0  0  0
 13 14  1  0  0  0
 13 73  1  0  0  0
 13 74  1  0  0  0
 14 15  1  0  0  0
 14 75  1  0  0  0
 14 76  1  0  0  0
 15 16  1  0  0  0
 15 77  1  0  0  0
 15 78  1  0  0  0
 16 17  1  0  0  0
 16 79  1  0  0  0
 16 80  1  0  0  0
 17 18  1  0  0  0
 17 81  1  0  0  0
 17 82  1  0  0  0
 18 19  1  0  0  0
 18 83  1  0  0  0
 18 84  1  0  0  0
 19 20  1  0  0  0
 19 85  1  0  0  0
 19 86  1  0  0  0
 20 21  1  0  0  0
 20 87  1  0  0  0
 20 88  1  0  0  0
 21 89  1  0  0  0
 21 90  1  0  0  0
 21 91  1  0  0  0
 22 23  1  0  0  0
 22 24  1  0  0  0
 22 33  1  0  0  0
 22 92  1  0  0  0
 24 25  1  0  0  0
 24 26  1  0  0  0
 24 93  1  0  0  0
 25 94  1  0  0  0
 26 27  1  0  0  0
 26 28  1  0  0  0
 26 95  1  0  0  0
 27 96  1  0  0  0
 28 29  1  0  0  0
 28 31  1  0  0  0
 28 97  1  0  0  0
 29 98  1  0  0  0
 30 32  1  0  0  0
 30 99  1  0  0  0
 31 32  1  0  0  0
 31 33  1  0  0  0
 31100  1  0  0  0
 32101  1  0  0  0
 32102  1  0  0  0
 34 35  2  0  0  0
 34 36  1  0  0  0
 36 37  1  0  0  0
 36103  1  0  0  0
 36104  1  0  0  0
 37 38  1  0  0  0
 37105  1  0  0  0
 37106  1  0  0  0
 38 39  1  0  0  0
 38107  1  0  0  0
 38108  1  0  0  0
 39 40  1  0  0  0
 39109  1  0  0  0
 39110  1  0  0  0
 40 41  1  0  0  0
 40111  1  0  0  0
 40112  1  0  0  0
 41 42  1  0  0  0
 41113  1  0  0  0
 41114  1  0  0  0
 42 43  1  0  0  0
 42115  1  0  0  0
 42116  1  0  0  0
 43 44  1  0  0  0
 43117  1  0  0  0
 43118  1  0  0  0
 44 45  1  0  0  0
 44119  1  0  0  0
 44120  1  0  0  0
 45 46  2  0  0  0
 45121  1  0  0  0
 46 47  1  0  0  0
 46122  1  0  0  0
 47 48  1  0  0  0
 47123  1  0  0  0
 47124  1  0  0  0
 48 49  2  0  0  0
 48125  1  0  0  0
 49 50  1  0  0  0
 49126  1  0  0  0
 50 51  1  0  0  0
 50127  1  0  0  0
 50128  1  0  0  0
 51 52  1  0  0  0
 51129  1  0  0  0
 51130  1  0  0  0
 52 53  1  0  0  0
 52131  1  0  0  0
 52132  1  0  0  0
 53 54  1  0  0  0
 53133  1  0  0  0
 53134  1  0  0  0
 54135  1  0  0  0
 54136  1  0  0  0
 54137  1  0  0  0
M  END
> <s_m_source_file>
../3arg_ligand.sdf

> <i_m_source_file_index>
1

> <s_epik_input>
W0NIM11bQ0gyXVtDSDJdW0NIMl1bQ0gyXVtDSDJdW0NIMl1bQ0gyXVtDSDJdW0NIMl1bQ0gyXVtDSDJdW0NIMl1bQ0gyXVtDQEBIXShbT0hdKVtDQEBIXShbT0hdKVtDQEhdKFtDSDJdT1tDSF0xW0NASF0oW09IXSlbQ0BASF0oW09IXSlbQ0BIXShbT0hdKVtDQEhdKE8xKVtDSDJdW09IXSlbTkhdQyg9TylbQ0gyXVtDSDJdW0NIMl1bQ0gyXVtDSDJdW0NIMl1bQ0gyXVtDSDJdW0NIMl0vW0NIXT1bQ0hdL1tDSDJdL1tDSF09W0NIXS9bQ0gyXVtDSDJdW0NIMl1bQ0gyXVtDSDNd

> <s_epik_cmdline>
J2VwaWtfYXBwJywgJy1pbWFlJywgJ2xpZ2FuZF9wcm8ubWFlJywgJy1vbWFlJywgJ2xpZ2FuZF9wcmVwLm1hZScsICctbXMnLCAnMScsICctcGgnLCAnNycsICctcGh0JywgJzAuNScsICctbnQn

> <r_lp_tautomer_probability>
1

> <r_epik_Ionization_Penalty>
  0.0000

> <r_epik_Ionization_Penalty_Charging>
  0.0000

> <r_epik_Ionization_Penalty_Neutral>
  0.0000

> <r_epik_State_Penalty>
 -0.0000

> <r_epik_Charging_Adjusted_Penalty>
0

> <i_epik_Tot_Q>
0

> <i_epik_Tot_abs_Q>
0

> <s_epik_Chemistry_Notes>
This compound contains an acetal/aminal-like group ( X-CH(R)-Y where X, Y are N, S, or O) that may be acid/base labile, releasing an aldehyde.

$$$$
