3arn_ligand
                    3D
 Schrodinger Suite 2020-3.
 49 50  0  0  1  0            999 V2000
   -3.5960   31.7470   32.6610 O   0  0  0  0  0  0
   -4.6950   32.1620   32.1900 C   0  0  0  0  0  0
   -5.7710   31.3220   32.1430 N   0  0  0  0  0  0
   -6.9330   31.6750   31.5900 C   0  0  0  0  0  0
   -7.0690   32.9470   31.0670 N   0  0  0  0  0  0
   -5.9960   33.7610   31.1140 C   0  0  0  0  0  0
   -4.7660   33.4630   31.6820 C   0  0  0  0  0  0
   -7.9030   30.8900   31.5670 O   0  0  0  0  0  0
   -8.3610   33.3590   30.4630 C   0  0  0  0  0  0
   -6.4710   33.0180   24.8770 C   0  0  0  0  0  0
   -8.1460   33.4560   29.0180 O   0  0  0  0  0  0
   -8.0110   32.1370   28.3850 C   0  0  0  0  0  0
   -8.0160   32.3500   26.8720 C   0  0  0  0  0  0
   -5.0550   30.6790   24.8250 S   0  0  0  0  0  0
   -6.7630   33.1990   26.4010 C   0  0  0  0  0  0
   -5.0780   29.4730   24.1320 O   0  0  0  0  0  0
   -4.8230   30.4180   26.4010 C   0  0  0  0  0  0
   -5.7570   29.5600   27.0010 C   0  0  0  0  0  0
   -5.7300   29.2090   28.3720 C   0  0  0  0  0  0
   -4.7740   29.7850   29.1870 C   0  0  0  0  0  0
   -6.1930   31.6530   24.4080 N   0  0  3  0  0  0
   -3.8520   30.6800   28.5810 C   0  0  0  0  0  0
   -3.9180   31.3580   24.4530 O   0  0  0  0  0  0
   -3.8530   30.9910   27.2150 C   0  0  0  0  0  0
   -5.3010   33.9730   24.5600 C   0  0  0  0  0  0
   -7.7030   33.5400   24.0860 C   0  0  0  0  0  0
   -5.6989   30.3114   32.5714 H   0  0  0  0  0  0
   -6.1050   34.7472   30.6628 H   0  0  0  0  0  0
   -3.9386   34.1712   31.7277 H   0  0  0  0  0  0
   -9.1295   32.6060   30.6921 H   0  0  0  0  0  0
   -8.6657   34.3315   30.8769 H   0  0  0  0  0  0
   -7.0666   31.6720   28.7043 H   0  0  0  0  0  0
   -8.8543   31.4979   28.6857 H   0  0  0  0  0  0
   -7.9864   31.3746   26.3643 H   0  0  0  0  0  0
   -8.9303   32.8875   26.5804 H   0  0  0  0  0  0
   -5.8888   32.8720   26.9832 H   0  0  0  0  0  0
   -6.9682   34.2590   26.6117 H   0  0  0  0  0  0
   -6.5465   29.1408   26.3773 H   0  0  0  0  0  0
   -6.4497   28.4978   28.7773 H   0  0  0  0  0  0
   -4.7291   29.5614   30.2529 H   0  0  0  0  0  0
   -6.9278   31.1264   23.7813 H   0  0  0  0  0  0
   -3.1011   31.1515   29.2149 H   0  0  0  0  0  0
   -3.1078   31.6689   26.7988 H   0  0  0  0  0  0
   -4.4015   33.6427   25.1001 H   0  0  0  0  0  0
   -5.5645   34.9932   24.8759 H   0  0  0  0  0  0
   -5.1031   33.9638   23.4780 H   0  0  0  0  0  0
   -8.5671   32.8878   24.2810 H   0  0  0  0  0  0
   -7.4762   33.5361   23.0097 H   0  0  0  0  0  0
   -7.9376   34.5654   24.4076 H   0  0  0  0  0  0
  1  2  2  0  0  0
  2  3  1  0  0  0
  2  7  1  0  0  0
  3  4  1  0  0  0
  3 27  1  0  0  0
  4  5  1  0  0  0
  4  8  2  0  0  0
  5  6  1  0  0  0
  5  9  1  0  0  0
  6  7  2  0  0  0
  6 28  1  0  0  0
  7 29  1  0  0  0
  9 11  1  0  0  0
  9 30  1  0  0  0
  9 31  1  0  0  0
 10 15  1  0  0  0
 10 21  1  0  0  0
 10 25  1  0  0  0
 10 26  1  0  0  0
 11 12  1  0  0  0
 12 13  1  0  0  0
 12 32  1  0  0  0
 12 33  1  0  0  0
 13 15  1  0  0  0
 13 34  1  0  0  0
 13 35  1  0  0  0
 14 16  2  0  0  0
 14 17  1  0  0  0
 14 21  1  0  0  0
 14 23  2  0  0  0
 15 36  1  0  0  0
 15 37  1  0  0  0
 17 18  2  0  0  0
 17 24  1  0  0  0
 18 19  1  0  0  0
 18 38  1  0  0  0
 19 20  2  0  0  0
 19 39  1  0  0  0
 20 22  1  0  0  0
 20 40  1  0  0  0
 21 41  1  0  0  0
 22 24  2  0  0  0
 22 42  1  0  0  0
 24 43  1  0  0  0
 25 44  1  0  0  0
 25 45  1  0  0  0
 25 46  1  0  0  0
 26 47  1  0  0  0
 26 48  1  0  0  0
 26 49  1  0  0  0
M  END
> <s_m_source_file>
../3arn_ligand.sdf

> <i_m_source_file_index>
1

> <s_epik_input>
Tz1jMVtuSF1jKD1PKW4oW2NIXVtjSF0xKVtDSDJdT1tDSDJdW0NIMl1bQ0gyXUMoW0NIM10pKFtDSDNdKVtOSF1TKD1PKSg9TyljMltjSF1bY0hdW2NIXVtjSF1bY0hdMg==

> <s_epik_cmdline>
J2VwaWtfYXBwJywgJy1pbWFlJywgJ2xpZ2FuZF9wcm8ubWFlJywgJy1vbWFlJywgJ2xpZ2FuZF9wcmVwLm1hZScsICctbXMnLCAnMScsICctcGgnLCAnNycsICctcGh0JywgJzAuNScsICctbnQn

> <r_lp_tautomer_probability>
1

> <r_epik_Ionization_Penalty>
  0.0025

> <r_epik_Ionization_Penalty_Charging>
  0.0024

> <r_epik_Ionization_Penalty_Neutral>
  0.0000

> <r_epik_State_Penalty>
 -0.0000

> <r_epik_Charging_Adjusted_Penalty>
0.00244998359502246

> <i_epik_Tot_Q>
0

> <i_epik_Tot_abs_Q>
0

> <s_epik_Chemistry_Notes>
This compound contains an acetal/aminal-like group ( X-CH(R)-Y where X, Y are N, S, or O) that may be acid/base labile, releasing an aldehyde.

$$$$
