3art_ligand
                    3D
 Schrodinger Suite 2020-3.
 75 78  0  0  1  0            999 V2000
   -2.4120    7.4870   19.2270 C   0  0  0  0  0  0
   -1.1240    7.1780   18.7170 C   0  0  0  0  0  0
   -0.3210    6.2000   19.3190 C   0  0  0  0  0  0
   -0.8240    5.5370   20.4400 C   0  0  0  0  0  0
   -2.9280    6.8220   20.3680 C   0  0  0  0  0  0
   -2.1090    5.8350   20.9600 C   0  0  0  0  0  0
   -2.5700    5.1540   22.0860 C   0  0  0  0  0  0
   -3.8280    5.4390   22.6370 C   0  0  0  0  0  0
   -4.6940    6.4060   22.0950 C   0  0  3  0  0  0
   -4.2450    7.1440   20.9220 N   0  0  0  0  0  0
   -1.9670    7.7730   24.7270 C   0  0  0  0  0  0
   -3.0900    8.6410   24.5710 C   0  0  0  0  0  0
   -3.1800    9.4950   23.3740 N   0  0  0  0  0  0
   -2.1420    9.4150   22.3980 C   0  0  0  0  0  0
   -1.0540    8.5630   22.6020 C   0  0  0  0  0  0
   -0.9620    7.7470   23.7290 C   0  0  0  0  0  0
   -1.8370    6.9450   25.8710 C   0  0  0  0  0  0
   -2.8060    6.9580   26.8710 C   0  0  0  0  0  0
   -3.9210    7.8100   26.7230 C   0  0  0  0  0  0
   -4.0660    8.6390   25.5950 C   0  0  0  0  0  0
   -4.3070   10.4630   23.0130 C   0  0  0  0  0  0
   -4.9740   11.2930   24.1250 C   0  0  0  0  0  0
   -6.4120   11.6990   23.7400 C   0  0  0  0  0  0
   -6.5120   12.9560   22.8400 C   0  0  0  0  0  0
   -6.7580   12.5960   21.3570 C   0  0  0  0  0  0
   -8.1680   12.0080   21.1080 C   0  0  0  0  0  0
   -8.1810   10.5130   20.6580 C   0  0  0  0  0  0
   -6.8340   10.0140   20.0770 C   0  0  0  0  0  0
   -6.2620    8.8630   20.9260 C   0  0  0  0  0  0
   -5.0570    8.2200   20.1990 C   0  0  0  0  0  0
   -6.0710    6.6030   22.8140 C   0  0  0  0  0  0
   -2.1710   10.2710   21.0990 C   0  0  0  0  0  0
   -1.7960    4.2210   22.6500 N   0  0  0  0  0  0
    0.1260    6.9470   23.8250 N   0  3  0  0  0  0
   -3.0150    8.2488   18.7329 H   0  0  0  0  0  0
   -0.7529    7.7109   17.8415 H   0  0  0  0  0  0
    0.6670    5.9639   18.9238 H   0  0  0  0  0  0
   -0.2159    4.7740   20.9258 H   0  0  0  0  0  0
   -4.1731    4.8968   23.5297 H   0  0  0  0  0  0
   -4.2478    7.1712   22.7472 H   0  0  0  0  0  0
   -0.2556    8.5353   21.8604 H   0  0  0  0  0  0
   -0.9698    6.2918   25.9685 H   0  0  0  0  0  0
   -2.7051    6.3225   27.7508 H   0  0  0  0  0  0
   -4.6864    7.8264   27.4989 H   0  0  0  0  0  0
   -4.9390    9.2860   25.5095 H   0  0  0  0  0  0
   -3.9321   11.2131   22.3010 H   0  0  0  0  0  0
   -5.1369    9.9051   22.5547 H   0  0  0  0  0  0
   -5.0150   10.7001   25.0506 H   0  0  0  0  0  0
   -4.3887   12.2076   24.3011 H   0  0  0  0  0  0
   -6.8905   10.8756   23.1896 H   0  0  0  0  0  0
   -6.9887   11.9146   24.6516 H   0  0  0  0  0  0
   -7.3469   13.5857   23.1812 H   0  0  0  0  0  0
   -5.5735   13.5265   22.9014 H   0  0  0  0  0  0
   -6.6572   13.5001   20.7386 H   0  0  0  0  0  0
   -6.0200   11.8469   21.0342 H   0  0  0  0  0  0
   -8.7584   12.0664   22.0343 H   0  0  0  0  0  0
   -8.6704   12.5828   20.3161 H   0  0  0  0  0  0
   -8.4180    9.8726   21.5204 H   0  0  0  0  0  0
   -8.9421   10.3719   19.8764 H   0  0  0  0  0  0
   -6.9893    9.6524   19.0498 H   0  0  0  0  0  0
   -6.1092   10.8414   20.0688 H   0  0  0  0  0  0
   -5.9314    9.2546   21.8993 H   0  0  0  0  0  0
   -7.0398    8.1011   21.0824 H   0  0  0  0  0  0
   -4.4016    9.0669   19.9477 H   0  0  0  0  0  0
   -5.4831    7.7996   19.2761 H   0  0  0  0  0  0
   -6.1404    5.9136   23.6684 H   0  0  0  0  0  0
   -6.8871    6.3938   22.1068 H   0  0  0  0  0  0
   -6.1527    7.6399   23.1719 H   0  0  0  0  0  0
   -3.0837   10.8848   21.0847 H   0  0  0  0  0  0
   -2.1618    9.6070   20.2221 H   0  0  0  0  0  0
   -1.2880   10.9264   21.0720 H   0  0  0  0  0  0
   -0.8085    3.9934   22.2221 H   0  0  0  0  0  0
   -2.1467    3.6810   23.5419 H   0  0  0  0  0  0
    0.2462    6.2841   24.6945 H   0  0  0  0  0  0
    0.8897    6.9599   23.0335 H   0  0  0  0  0  0
  1  2  2  0  0  0
  1  5  1  0  0  0
  1 35  1  0  0  0
  2  3  1  0  0  0
  2 36  1  0  0  0
  3  4  2  0  0  0
  3 37  1  0  0  0
  4  6  1  0  0  0
  4 38  1  0  0  0
  5  6  2  0  0  0
  5 10  1  0  0  0
  6  7  1  0  0  0
  7  8  2  0  0  0
  7 33  1  0  0  0
  8  9  1  0  0  0
  8 39  1  0  0  0
  9 10  1  0  0  0
  9 31  1  0  0  0
  9 40  1  0  0  0
 10 30  1  0  0  0
 11 12  2  0  0  0
 11 16  1  0  0  0
 11 17  1  0  0  0
 12 13  1  0  0  0
 12 20  1  0  0  0
 13 14  1  0  0  0
 13 21  1  0  0  0
 14 15  2  0  0  0
 14 32  1  0  0  0
 15 16  1  0  0  0
 15 41  1  0  0  0
 16 34  2  0  0  0
 17 18  2  0  0  0
 17 42  1  0  0  0
 18 19  1  0  0  0
 18 43  1  0  0  0
 19 20  2  0  0  0
 19 44  1  0  0  0
 20 45  1  0  0  0
 21 22  1  0  0  0
 21 46  1  0  0  0
 21 47  1  0  0  0
 22 23  1  0  0  0
 22 48  1  0  0  0
 22 49  1  0  0  0
 23 24  1  0  0  0
 23 50  1  0  0  0
 23 51  1  0  0  0
 24 25  1  0  0  0
 24 52  1  0  0  0
 24 53  1  0  0  0
 25 26  1  0  0  0
 25 54  1  0  0  0
 25 55  1  0  0  0
 26 27  1  0  0  0
 26 56  1  0  0  0
 26 57  1  0  0  0
 27 28  1  0  0  0
 27 58  1  0  0  0
 27 59  1  0  0  0
 28 29  1  0  0  0
 28 60  1  0  0  0
 28 61  1  0  0  0
 29 30  1  0  0  0
 29 62  1  0  0  0
 29 63  1  0  0  0
 30 64  1  0  0  0
 30 65  1  0  0  0
 31 66  1  0  0  0
 31 67  1  0  0  0
 31 68  1  0  0  0
 32 69  1  0  0  0
 32 70  1  0  0  0
 32 71  1  0  0  0
 33 72  1  0  0  0
 33 73  1  0  0  0
 34 74  1  0  0  0
 34 75  1  0  0  0
M  CHG  1  34   1
M  END
> <s_m_source_file>
../3art_ligand.sdf

> <i_m_source_file_index>
1

> <s_epik_input>
W2NIXTFbY0hdW2NIXVtjSF1jKGMxMilDKFtOSDJdKT1bQ0hdW0NIXShbQ0gzXSlOMltDSDJdW0NIMl1bQ0gyXVtDSDJdW0NIMl1bQ0gyXVtDSDJdW0NIMl1bQ0gyXVtDSDJdbihjKFtDSDNdKVtjSF1jXDM9TlxbSF0pYyhjMzQpW2NIXVtjSF1bY0hdW2NIXTQ=

> <s_epik_cmdline>
J2VwaWtfYXBwJywgJy1pbWFlJywgJ2xpZ2FuZF9wcm8ubWFlJywgJy1vbWFlJywgJ2xpZ2FuZF9wcmVwLm1hZScsICctbXMnLCAnMScsICctcGgnLCAnNycsICctcGh0JywgJzAuNScsICctbnQn

> <r_lp_tautomer_probability>
7.000049000343e-06

> <r_epik_Ionization_Penalty>
  0.0104

> <r_epik_Ionization_Penalty_Charging>
  0.0000

> <r_epik_Ionization_Penalty_Neutral>
  0.0104

> <r_epik_State_Penalty>
  0.0075

> <r_epik_Charging_Adjusted_Penalty>
0.00751808938765547

> <i_epik_Tot_Q>
1

> <i_epik_Tot_abs_Q>
1

> <s_epik_Chemistry_Notes>
This compound has an imine and may undergo hydrolysis.

$$$$
