3arw_ligand
                    3D
 Schrodinger Suite 2020-3.
 45 49  0  0  1  0            999 V2000
   20.1890   -9.9140   22.4820 C   0  0  0  0  0  0
   18.9240   -9.8270   21.8590 C   0  0  0  0  0  0
   18.7580  -10.3610   20.6010 C   0  0  0  0  0  0
   19.8780  -10.9420   19.9770 C   0  0  0  0  0  0
   17.8610   -9.2610   22.5420 C   0  0  0  0  0  0
   16.5700   -9.2070   22.0010 C   0  0  0  0  0  0
   16.4010   -9.7470   20.7270 C   0  0  0  0  0  0
   17.4960  -10.3030   20.0150 C   0  0  0  0  0  0
   18.1220   -8.7860   23.8460 N   0  0  0  0  0  0
   15.5240   -8.6440   22.7540 C   0  0  0  0  0  0
   15.8040   -8.1510   24.0490 C   0  0  0  0  0  0
   17.0780   -8.2330   24.5790 C   0  0  0  0  0  0
   19.4750   -8.8530   24.4730 C   0  0  0  0  0  0
   13.5190   -7.4680   24.3400 C   0  0  0  0  0  0
   13.1960   -7.9430   23.0540 C   0  0  0  0  0  0
   14.2080   -8.5360   22.2820 C   0  0  0  0  0  0
   14.8100   -7.5700   24.8560 C   0  0  0  0  0  0
   15.0880   -7.0260   26.1210 O   0  0  0  0  0  0
   15.3140   -7.7360   27.3920 C   0  0  0  0  0  0
   12.5720   -6.8750   25.1250 O   0  0  0  0  0  0
   12.3480   -7.5730   26.3720 C   0  0  0  0  0  0
   21.2950  -10.4960   21.8670 C   0  0  0  0  0  0
   21.1370  -11.0040   20.5780 C   0  0  0  0  0  0
   22.6220  -10.6540   22.2710 O   0  0  0  0  0  0
   23.2140  -11.6110   21.3230 C   0  0  0  0  0  0
   22.3630  -11.4930   20.1450 O   0  0  0  0  0  0
   20.3045   -9.5083   23.4871 H   0  0  0  0  0  0
   19.7570  -11.3629   18.9788 H   0  0  0  0  0  0
   15.4115   -9.7422   20.2699 H   0  0  0  0  0  0
   17.3484  -10.6862   19.0053 H   0  0  0  0  0  0
   16.9343   -8.8096   25.5047 H   0  0  0  0  0  0
   17.3190   -7.1896   24.8306 H   0  0  0  0  0  0
   20.1832   -9.3135   23.7685 H   0  0  0  0  0  0
   19.4245   -9.4581   25.3902 H   0  0  0  0  0  0
   19.8143   -7.8368   24.7223 H   0  0  0  0  0  0
   12.1814   -7.8522   22.6660 H   0  0  0  0  0  0
   13.9647   -8.9217   21.2920 H   0  0  0  0  0  0
   15.5061   -7.0050   28.1912 H   0  0  0  0  0  0
   16.1820   -8.4039   27.2896 H   0  0  0  0  0  0
   14.4226   -8.3292   27.6441 H   0  0  0  0  0  0
   11.5776   -7.0459   26.9540 H   0  0  0  0  0  0
   13.2847   -7.6048   26.9477 H   0  0  0  0  0  0
   12.0113   -8.5990   26.1625 H   0  0  0  0  0  0
   24.2562  -11.3259   21.1170 H   0  0  0  0  0  0
   23.1893  -12.6210   21.7580 H   0  0  0  0  0  0
  1  2  2  0  0  0
  1 22  1  0  0  0
  1 27  1  0  0  0
  2  3  1  0  0  0
  2  5  1  0  0  0
  3  4  2  0  0  0
  3  8  1  0  0  0
  4 23  1  0  0  0
  4 28  1  0  0  0
  5  6  2  0  0  0
  5  9  1  0  0  0
  6  7  1  0  0  0
  6 10  1  0  0  0
  7  8  2  0  0  0
  7 29  1  0  0  0
  8 30  1  0  0  0
  9 12  1  0  0  0
  9 13  1  0  0  0
 10 11  2  0  0  0
 10 16  1  0  0  0
 11 12  1  0  0  0
 11 17  1  0  0  0
 12 31  1  0  0  0
 12 32  1  0  0  0
 13 33  1  0  0  0
 13 34  1  0  0  0
 13 35  1  0  0  0
 14 15  1  0  0  0
 14 17  2  0  0  0
 14 20  1  0  0  0
 15 16  2  0  0  0
 15 36  1  0  0  0
 16 37  1  0  0  0
 17 18  1  0  0  0
 18 19  1  0  0  0
 19 38  1  0  0  0
 19 39  1  0  0  0
 19 40  1  0  0  0
 20 21  1  0  0  0
 21 41  1  0  0  0
 21 42  1  0  0  0
 21 43  1  0  0  0
 22 23  2  0  0  0
 22 24  1  0  0  0
 23 26  1  0  0  0
 24 25  1  0  0  0
 25 26  1  0  0  0
 25 44  1  0  0  0
 25 45  1  0  0  0
M  END
> <s_m_source_file>
../3arw_ligand.sdf

> <i_m_source_file_index>
1

> <s_epik_input>
TzFbQ0gyXU9jKFtjSF0yKWMxW2NIXWMoYzIzKVtjSF1bY0hdYzRjM04oW0NIM10pW0NIMl1jNWM0W2NIXVtjSF1jKE9bQ0gzXSljNU9bQ0gzXQ==

> <s_epik_cmdline>
J2VwaWtfYXBwJywgJy1pbWFlJywgJ2xpZ2FuZF9wcm8ubWFlJywgJy1vbWFlJywgJ2xpZ2FuZF9wcmVwLm1hZScsICctbXMnLCAnMScsICctcGgnLCAnNycsICctcGh0JywgJzAuNScsICctbnQn

> <r_lp_tautomer_probability>
1

> <r_epik_Ionization_Penalty>
  0.0004

> <r_epik_Ionization_Penalty_Charging>
  0.0000

> <r_epik_Ionization_Penalty_Neutral>
  0.0004

> <r_epik_State_Penalty>
 -0.0000

> <r_epik_Charging_Adjusted_Penalty>
0

> <i_epik_Tot_Q>
0

> <i_epik_Tot_abs_Q>
0

> <s_epik_Chemistry_Notes>
This compound contains an acetal/aminal-like group ( X-CH(R)-Y where X, Y are N, S, or O) that may be acid/base labile, releasing an aldehyde.

$$$$
