3arx_ligand
                    3D
 Schrodinger Suite 2020-3.
 44 45  0  0  1  0            999 V2000
   18.6050  -11.0460   19.5070 N   0  0  0  0  0  0
   17.7710  -10.1930   20.1530 C   0  0  0  0  0  0
   18.2430   -9.6350   21.3400 C   0  0  0  0  0  0
   19.4970   -9.8800   21.8250 C   0  0  0  0  0  0
   20.3340  -10.7510   21.2020 N   0  0  0  0  0  0
   19.9000  -11.3380   20.0300 C   0  0  0  0  0  0
   17.7600   -8.7540   22.2020 N   0  0  0  0  0  0
   18.7130   -8.5680   23.2450 C   0  0  0  0  0  0
   19.7830   -9.2180   23.0080 N   0  0  0  0  0  0
   18.1300  -11.7040   18.2110 C   0  0  0  0  0  0
   17.3990  -13.0380   18.5360 C   0  0  0  0  0  0
   17.4380  -14.1100   17.3390 C   0  0  0  0  0  0
   16.8140  -13.2980   16.1610 C   0  0  0  0  0  0
   16.6410  -14.1580   14.9440 C   0  0  0  0  0  0
   16.8370  -15.5300   15.0160 C   0  0  0  0  0  0
   16.1210  -13.6430   13.8760 O   0  0  0  0  0  0
   16.6050  -10.0590   19.7440 O   0  0  0  0  0  0
   20.6550  -12.1120   19.4180 O   0  0  0  0  0  0
   21.6680  -10.9920   21.8710 C   0  0  0  0  0  0
   16.4580   -8.1840   22.0690 C   0  0  0  0  0  0
   15.3960   -8.9200   22.8640 C   0  0  0  0  0  0
   13.9460   -8.3970   22.8470 C   0  0  0  0  0  0
   18.5484   -7.9513   24.1286 H   0  0  0  0  0  0
   17.4378  -11.0273   17.6886 H   0  0  0  0  0  0
   18.9966  -11.9114   17.5660 H   0  0  0  0  0  0
   17.8693  -13.5100   19.4113 H   0  0  0  0  0  0
   16.3407  -12.8324   18.7547 H   0  0  0  0  0  0
   18.4788  -14.4127   17.1517 H   0  0  0  0  0  0
   16.8439  -14.9928   17.6179 H   0  0  0  0  0  0
   15.8287  -12.9129   16.4625 H   0  0  0  0  0  0
   17.4743  -12.4560   15.9057 H   0  0  0  0  0  0
   17.2845  -15.7859   15.9877 H   0  0  0  0  0  0
   17.5114  -15.8470   14.2068 H   0  0  0  0  0  0
   15.8705  -16.0445   14.9105 H   0  0  0  0  0  0
   21.7330  -10.3874   22.7876 H   0  0  0  0  0  0
   22.4791  -10.7064   21.1850 H   0  0  0  0  0  0
   21.7625  -12.0576   22.1271 H   0  0  0  0  0  0
   16.4754   -7.1431   22.4243 H   0  0  0  0  0  0
   16.1545   -8.2056   21.0119 H   0  0  0  0  0  0
   15.3177   -9.9553   22.5007 H   0  0  0  0  0  0
   15.6726   -8.9250   23.9286 H   0  0  0  0  0  0
   13.3149   -9.0458   23.4720 H   0  0  0  0  0  0
   13.5668   -8.4012   21.8144 H   0  0  0  0  0  0
   13.9217   -7.3708   23.2424 H   0  0  0  0  0  0
  1  2  1  0  0  0
  1  6  1  0  0  0
  1 10  1  0  0  0
  2  3  1  0  0  0
  2 17  2  0  0  0
  3  4  2  0  0  0
  3  7  1  0  0  0
  4  5  1  0  0  0
  4  9  1  0  0  0
  5  6  1  0  0  0
  5 19  1  0  0  0
  6 18  2  0  0  0
  7  8  1  0  0  0
  7 20  1  0  0  0
  8  9  2  0  0  0
  8 23  1  0  0  0
 10 11  1  0  0  0
 10 24  1  0  0  0
 10 25  1  0  0  0
 11 12  1  0  0  0
 11 26  1  0  0  0
 11 27  1  0  0  0
 12 13  1  0  0  0
 12 28  1  0  0  0
 12 29  1  0  0  0
 13 14  1  0  0  0
 13 30  1  0  0  0
 13 31  1  0  0  0
 14 15  1  0  0  0
 14 16  2  0  0  0
 15 32  1  0  0  0
 15 33  1  0  0  0
 15 34  1  0  0  0
 19 35  1  0  0  0
 19 36  1  0  0  0
 19 37  1  0  0  0
 20 21  1  0  0  0
 20 38  1  0  0  0
 20 39  1  0  0  0
 21 22  1  0  0  0
 21 40  1  0  0  0
 21 41  1  0  0  0
 22 42  1  0  0  0
 22 43  1  0  0  0
 22 44  1  0  0  0
M  END
> <s_m_source_file>
../3arx_ligand.sdf

> <i_m_source_file_index>
1

> <s_epik_input>
W0NIM11DKD1PKVtDSDJdW0NIMl1bQ0gyXVtDSDJdbihjMT1PKWMoPU8pbihbQ0gzXSljKGMxMiluW2NIXW4yW0NIMl1bQ0gyXVtDSDNd

> <s_epik_cmdline>
J2VwaWtfYXBwJywgJy1pbWFlJywgJ2xpZ2FuZF9wcm8ubWFlJywgJy1vbWFlJywgJ2xpZ2FuZF9wcmVwLm1hZScsICctbXMnLCAnMScsICctcGgnLCAnNycsICctcGh0JywgJzAuNScsICctbnQn

> <r_lp_tautomer_probability>
1

> <r_epik_Ionization_Penalty>
  0.0000

> <r_epik_Ionization_Penalty_Charging>
  0.0000

> <r_epik_Ionization_Penalty_Neutral>
  0.0000

> <r_epik_State_Penalty>
 -0.0000

> <r_epik_Charging_Adjusted_Penalty>
8.49988572693779e-09

> <i_epik_Tot_Q>
0

> <i_epik_Tot_abs_Q>
0

$$$$
