3arz_ligand
                    3D
 Schrodinger Suite 2020-3.
 29 31  0  0  1  0            999 V2000
   -1.0570  -15.2870    1.6010 C   0  0  0  0  0  0
   -2.3600  -15.7660    1.3450 C   0  0  0  0  0  0
   -3.4470  -14.8650    1.2950 C   0  0  0  0  0  0
   -3.2160  -13.4990    1.4960 C   0  0  0  0  0  0
   -1.9430  -13.0270    1.7550 C   0  0  0  0  0  0
   -0.8830  -13.9170    1.8090 C   0  0  0  0  0  0
   -4.7790  -15.0140    1.0900 C   0  0  0  0  0  0
   -5.3970  -13.8070    1.1530 C   0  0  0  0  0  0
   -4.4220  -12.8530    1.4090 O   0  0  0  0  0  0
   -6.7750  -13.4520    1.0420 C   0  0  0  0  0  0
   -7.2430  -12.1870    1.0750 N   0  3  0  0  0  0
   -8.7270  -12.1260    1.0170 C   0  0  0  0  0  0
   -9.1270  -13.6040    1.0380 C   0  0  0  0  0  0
   -7.8210  -14.3080    1.1040 N   0  0  0  0  0  0
    0.0310  -16.1050    1.6690 N   0  0  0  0  0  0
    0.9180  -15.9430    2.6640 C   0  0  0  0  0  0
    2.3170  -16.8890    2.9820 S   0  0  0  0  0  0
   -2.5275  -16.8312    1.1859 H   0  0  0  0  0  0
   -1.7745  -11.9622    1.9156 H   0  0  0  0  0  0
    0.1165  -13.5369    2.0201 H   0  0  0  0  0  0
   -5.2800  -15.9636    0.9022 H   0  0  0  0  0  0
   -9.1055  -11.5710    1.8881 H   0  0  0  0  0  0
   -9.0372  -11.6150    0.0936 H   0  0  0  0  0  0
   -9.7565  -13.8010    1.9183 H   0  0  0  0  0  0
   -9.6894  -13.8447    0.1238 H   0  0  0  0  0  0
   -7.7908  -15.4040    1.1929 H   0  0  0  0  0  0
    0.1769  -16.8901    0.9125 H   0  0  0  0  0  0
    0.6686  -15.0933    3.3166 H   0  0  0  0  0  0
   -6.5411  -11.3424    1.1384 H   0  0  0  0  0  0
  1  2  1  0  0  0
  1  6  2  0  0  0
  1 15  1  0  0  0
  2  3  2  0  0  0
  2 18  1  0  0  0
  3  4  1  0  0  0
  3  7  1  0  0  0
  4  5  2  0  0  0
  4  9  1  0  0  0
  5  6  1  0  0  0
  5 19  1  0  0  0
  6 20  1  0  0  0
  7  8  2  0  0  0
  7 21  1  0  0  0
  8  9  1  0  0  0
  8 10  1  0  0  0
 10 11  2  0  0  0
 10 14  1  0  0  0
 11 12  1  0  0  0
 11 29  1  0  0  0
 12 13  1  0  0  0
 12 22  1  0  0  0
 12 23  1  0  0  0
 13 14  1  0  0  0
 13 24  1  0  0  0
 13 25  1  0  0  0
 14 26  1  0  0  0
 15 16  1  0  0  0
 15 27  1  0  0  0
 16 17  2  0  0  0
 16 28  1  0  0  0
M  CHG  1  11   1
M  END
> <s_m_source_file>
../3arz_ligand.sdf

> <i_m_source_file_index>
1

> <s_epik_input>
Uz1bQ0hdW05IXWMoW2NIXTEpW2NIXVtjSF1jKGMxMilvYyhbY0hdMilDMz1OW0NIMl1bQ0gyXVtOSF0z

> <s_epik_cmdline>
J2VwaWtfYXBwJywgJy1pbWFlJywgJ2xpZ2FuZF9wcm8ubWFlJywgJy1vbWFlJywgJ2xpZ2FuZF9wcmVwLm1hZScsICctbXMnLCAnMScsICctcGgnLCAnNycsICctcGh0JywgJzAuNScsICctbnQn

> <r_lp_tautomer_probability>
1

> <r_epik_Ionization_Penalty>
  0.0000

> <r_epik_Ionization_Penalty_Charging>
  0.0000

> <r_epik_Ionization_Penalty_Neutral>
  0.0000

> <r_epik_State_Penalty>
 -0.0000

> <r_epik_Charging_Adjusted_Penalty>
1.7326129957982e-05

> <i_epik_Tot_Q>
1

> <i_epik_Tot_abs_Q>
1

> <s_epik_Chemistry_Notes>
This compound has an imine and may undergo hydrolysis.

$$$$
