3as1_ligand
                    3D
 Schrodinger Suite 2020-3.
 45 49  0  0  1  0            999 V2000
   -1.7840    6.7500   20.1530 C   0  0  0  0  0  0
   -2.6150    6.3670   21.2180 C   0  0  0  0  0  0
   -2.1480    5.4110   22.1550 C   0  0  0  0  0  0
   -0.8710    4.8590   22.0060 C   0  0  0  0  0  0
   -3.9020    6.9330   21.3490 C   0  0  0  0  0  0
   -4.7130    6.5180   22.4440 C   0  0  0  0  0  0
   -4.2190    5.5640   23.3670 C   0  0  0  0  0  0
   -2.9410    5.0100   23.2250 C   0  0  0  0  0  0
   -4.4100    7.9070   20.4140 N   0  0  0  0  0  0
   -6.0140    7.0570   22.6140 C   0  0  0  0  0  0
   -6.4990    8.0080   21.6890 C   0  0  0  0  0  0
   -5.7010    8.4230   20.6100 C   0  0  0  0  0  0
   -3.6640    8.4200   19.2260 C   0  0  0  0  0  0
   -8.6000    8.1620   22.9270 C   0  0  0  0  0  0
   -8.1150    7.2070   23.8440 C   0  0  0  0  0  0
   -6.8330    6.6630   23.6920 C   0  0  0  0  0  0
   -7.7900    8.5520   21.8340 C   0  0  0  0  0  0
   -8.2400    9.4650   20.9060 O   0  0  0  0  0  0
   -8.7410    8.7690   19.7140 C   0  0  0  0  0  0
   -9.8690    8.6910   23.0880 O   0  0  0  0  0  0
   -9.9940    9.9810   23.7870 C   0  0  0  0  0  0
   -0.5160    6.2020   20.0100 C   0  0  0  0  0  0
   -0.0500    5.2590   20.9370 C   0  0  0  0  0  0
    0.4430    6.4190   19.0750 O   0  0  0  0  0  0
    1.6630    5.9000   19.6510 C   0  0  0  0  0  0
    1.2210    4.8840   20.5760 O   0  0  0  0  0  0
   -2.1380    7.4855   19.4306 H   0  0  0  0  0  0
   -0.5120    4.1176   22.7199 H   0  0  0  0  0  0
   -4.8456    5.2553   24.2037 H   0  0  0  0  0  0
   -2.5732    4.2759   23.9419 H   0  0  0  0  0  0
   -5.6436    9.5133   20.7442 H   0  0  0  0  0  0
   -6.3245    8.1939   19.7332 H   0  0  0  0  0  0
   -2.6733    7.9440   19.1816 H   0  0  0  0  0  0
   -3.5436    9.5101   19.3113 H   0  0  0  0  0  0
   -4.2257    8.1837   18.3102 H   0  0  0  0  0  0
   -8.7421    6.8897   24.6772 H   0  0  0  0  0  0
   -6.4665    5.9307   24.4114 H   0  0  0  0  0  0
   -9.0972    9.5076   18.9808 H   0  0  0  0  0  0
   -9.5707    8.1052   19.9986 H   0  0  0  0  0  0
   -7.9303    8.1728   19.2697 H   0  0  0  0  0  0
  -11.0543   10.2697   23.8369 H   0  0  0  0  0  0
   -9.4298   10.7506   23.2399 H   0  0  0  0  0  0
   -9.5914    9.8862   24.8063 H   0  0  0  0  0  0
    2.2960    5.4824   18.8542 H   0  0  0  0  0  0
    2.2026    6.7122   20.1602 H   0  0  0  0  0  0
  1  2  2  0  0  0
  1 22  1  0  0  0
  1 27  1  0  0  0
  2  3  1  0  0  0
  2  5  1  0  0  0
  3  4  2  0  0  0
  3  8  1  0  0  0
  4 23  1  0  0  0
  4 28  1  0  0  0
  5  6  2  0  0  0
  5  9  1  0  0  0
  6  7  1  0  0  0
  6 10  1  0  0  0
  7  8  2  0  0  0
  7 29  1  0  0  0
  8 30  1  0  0  0
  9 12  1  0  0  0
  9 13  1  0  0  0
 10 11  2  0  0  0
 10 16  1  0  0  0
 11 12  1  0  0  0
 11 17  1  0  0  0
 12 31  1  0  0  0
 12 32  1  0  0  0
 13 33  1  0  0  0
 13 34  1  0  0  0
 13 35  1  0  0  0
 14 15  1  0  0  0
 14 17  2  0  0  0
 14 20  1  0  0  0
 15 16  2  0  0  0
 15 36  1  0  0  0
 16 37  1  0  0  0
 17 18  1  0  0  0
 18 19  1  0  0  0
 19 38  1  0  0  0
 19 39  1  0  0  0
 19 40  1  0  0  0
 20 21  1  0  0  0
 21 41  1  0  0  0
 21 42  1  0  0  0
 21 43  1  0  0  0
 22 23  2  0  0  0
 22 24  1  0  0  0
 23 26  1  0  0  0
 24 25  1  0  0  0
 25 26  1  0  0  0
 25 44  1  0  0  0
 25 45  1  0  0  0
M  END
> <s_m_source_file>
../3as1_ligand.sdf

> <i_m_source_file_index>
1

> <s_epik_input>
TzFbQ0gyXU9jKFtjSF0yKWMxW2NIXWMoYzIzKVtjSF1bY0hdYzRjM04oW0NIM10pW0NIMl1jNWM0W2NIXVtjSF1jKE9bQ0gzXSljNU9bQ0gzXQ==

> <s_epik_cmdline>
J2VwaWtfYXBwJywgJy1pbWFlJywgJ2xpZ2FuZF9wcm8ubWFlJywgJy1vbWFlJywgJ2xpZ2FuZF9wcmVwLm1hZScsICctbXMnLCAnMScsICctcGgnLCAnNycsICctcGh0JywgJzAuNScsICctbnQn

> <r_lp_tautomer_probability>
1

> <r_epik_Ionization_Penalty>
  0.0004

> <r_epik_Ionization_Penalty_Charging>
  0.0000

> <r_epik_Ionization_Penalty_Neutral>
  0.0004

> <r_epik_State_Penalty>
 -0.0000

> <r_epik_Charging_Adjusted_Penalty>
0

> <i_epik_Tot_Q>
0

> <i_epik_Tot_abs_Q>
0

> <s_epik_Chemistry_Notes>
This compound contains an acetal/aminal-like group ( X-CH(R)-Y where X, Y are N, S, or O) that may be acid/base labile, releasing an aldehyde.

$$$$
