3as2_ligand
                    3D
 Schrodinger Suite 2020-3.
 44 45  0  0  1  0            999 V2000
   -1.6390    7.6160   18.5800 N   0  0  0  0  0  0
   -0.5910    6.7430   18.9880 C   0  0  0  0  0  0
   -0.6850    6.0480   20.1990 C   0  0  0  0  0  0
   -1.8250    6.2130   21.0330 C   0  0  0  0  0  0
   -2.9130    7.0960   20.6710 N   0  0  0  0  0  0
   -2.8080    7.8020   19.4080 C   0  0  0  0  0  0
    0.1420    5.1870   20.8120 N   0  0  0  0  0  0
   -0.4300    4.8140   21.9660 C   0  0  0  0  0  0
   -1.6170    5.4310   22.0990 N   0  0  0  0  0  0
   -1.5140    8.3210   17.2810 C   0  0  0  0  0  0
   -0.9280    9.7080   17.4940 C   0  0  0  0  0  0
   -1.3590   10.6150   16.3420 C   0  0  0  0  0  0
   -0.1720   10.8480   15.4400 C   0  0  0  0  0  0
   -0.5690   11.7580   14.3110 C   0  0  0  0  0  0
   -0.6090   11.2250   12.8740 C   0  0  0  0  0  0
   -0.7200   12.9350   14.5290 O   0  0  0  0  0  0
    0.4080    6.5840   18.2870 O   0  0  0  0  0  0
   -3.6940    8.5680   19.0120 O   0  0  0  0  0  0
   -4.1030    7.2530   21.5720 C   0  0  0  0  0  0
    1.4810    4.6910   20.3370 C   0  0  0  0  0  0
    2.6620    5.6310   20.7500 C   0  0  0  0  0  0
    3.5760    5.1730   21.9280 C   0  0  0  0  0  0
    0.0010    4.1178   22.6854 H   0  0  0  0  0  0
   -0.8524    7.7478   16.6149 H   0  0  0  0  0  0
   -2.5074    8.4158   16.8182 H   0  0  0  0  0  0
   -1.2953   10.1190   18.4460 H   0  0  0  0  0  0
    0.1696    9.6419   17.5223 H   0  0  0  0  0  0
   -2.1685   10.1301   15.7767 H   0  0  0  0  0  0
   -1.7165   11.5742   16.7445 H   0  0  0  0  0  0
    0.6409   11.3135   16.0166 H   0  0  0  0  0  0
    0.1723    9.8865   15.0313 H   0  0  0  0  0  0
   -0.4523   10.1362   12.8823 H   0  0  0  0  0  0
    0.1845   11.7052   12.2826 H   0  0  0  0  0  0
   -1.5879   11.4512   12.4262 H   0  0  0  0  0  0
   -3.9694    6.6289   22.4679 H   0  0  0  0  0  0
   -5.0115    6.9379   21.0378 H   0  0  0  0  0  0
   -4.2002    8.3072   21.8706 H   0  0  0  0  0  0
    1.6779    3.6980   20.7673 H   0  0  0  0  0  0
    1.4777    4.6208   19.2392 H   0  0  0  0  0  0
    3.3400    5.7655   19.8943 H   0  0  0  0  0  0
    2.2622    6.6083   21.0582 H   0  0  0  0  0  0
    4.3557    5.9291   22.1025 H   0  0  0  0  0  0
    4.0474    4.2121   21.6741 H   0  0  0  0  0  0
    2.9695    5.0548   22.8381 H   0  0  0  0  0  0
  1  2  1  0  0  0
  1  6  1  0  0  0
  1 10  1  0  0  0
  2  3  1  0  0  0
  2 17  2  0  0  0
  3  4  2  0  0  0
  3  7  1  0  0  0
  4  5  1  0  0  0
  4  9  1  0  0  0
  5  6  1  0  0  0
  5 19  1  0  0  0
  6 18  2  0  0  0
  7  8  1  0  0  0
  7 20  1  0  0  0
  8  9  2  0  0  0
  8 23  1  0  0  0
 10 11  1  0  0  0
 10 24  1  0  0  0
 10 25  1  0  0  0
 11 12  1  0  0  0
 11 26  1  0  0  0
 11 27  1  0  0  0
 12 13  1  0  0  0
 12 28  1  0  0  0
 12 29  1  0  0  0
 13 14  1  0  0  0
 13 30  1  0  0  0
 13 31  1  0  0  0
 14 15  1  0  0  0
 14 16  2  0  0  0
 15 32  1  0  0  0
 15 33  1  0  0  0
 15 34  1  0  0  0
 19 35  1  0  0  0
 19 36  1  0  0  0
 19 37  1  0  0  0
 20 21  1  0  0  0
 20 38  1  0  0  0
 20 39  1  0  0  0
 21 22  1  0  0  0
 21 40  1  0  0  0
 21 41  1  0  0  0
 22 42  1  0  0  0
 22 43  1  0  0  0
 22 44  1  0  0  0
M  END
> <s_m_source_file>
../3as2_ligand.sdf

> <i_m_source_file_index>
1

> <s_epik_input>
W0NIM11DKD1PKVtDSDJdW0NIMl1bQ0gyXVtDSDJdbihjMT1PKWMoPU8pbihbQ0gzXSljKGMxMiluW2NIXW4yW0NIMl1bQ0gyXVtDSDNd

> <s_epik_cmdline>
J2VwaWtfYXBwJywgJy1pbWFlJywgJ2xpZ2FuZF9wcm8ubWFlJywgJy1vbWFlJywgJ2xpZ2FuZF9wcmVwLm1hZScsICctbXMnLCAnMScsICctcGgnLCAnNycsICctcGh0JywgJzAuNScsICctbnQn

> <r_lp_tautomer_probability>
1

> <r_epik_Ionization_Penalty>
  0.0000

> <r_epik_Ionization_Penalty_Charging>
  0.0000

> <r_epik_Ionization_Penalty_Neutral>
  0.0000

> <r_epik_State_Penalty>
 -0.0000

> <r_epik_Charging_Adjusted_Penalty>
8.49988572693779e-09

> <i_epik_Tot_Q>
0

> <i_epik_Tot_abs_Q>
0

$$$$
