3as3_ligand
                    3D
 Schrodinger Suite 2020-3.
 29 31  0  0  1  0            999 V2000
   -0.1800    5.1350   20.2270 C   0  0  0  0  0  0
   -1.3890    5.1160   20.9710 C   0  0  0  0  0  0
   -2.4460    6.0170   20.6850 C   0  0  0  0  0  0
   -2.2740    6.9380   19.6440 C   0  0  0  0  0  0
   -1.0740    6.9660   18.9050 C   0  0  0  0  0  0
   -0.0390    6.0750   19.1970 C   0  0  0  0  0  0
   -3.6800    6.2230   21.2060 C   0  0  0  0  0  0
   -4.3010    7.2360   20.5540 C   0  0  0  0  0  0
   -3.4360    7.6830   19.5770 O   0  0  0  0  0  0
   -5.6070    7.7930   20.7000 C   0  0  0  0  0  0
   -6.2440    8.5020   19.7330 N   0  0  0  0  0  0
   -7.6220    8.8930   20.1030 C   0  0  0  0  0  0
   -7.7650    8.2780   21.4910 C   0  0  0  0  0  0
   -6.4590    7.6020   21.7280 N   0  3  0  0  0  0
    0.8700    4.2960   20.4640 N   0  0  0  0  0  0
    0.7810    2.9860   20.7490 C   0  0  0  0  0  0
    2.1620    1.9430   21.0000 S   0  0  0  0  0  0
   -1.5072    4.3938   21.7788 H   0  0  0  0  0  0
   -0.9528    7.6893   18.0987 H   0  0  0  0  0  0
    0.8849    6.1109   18.6198 H   0  0  0  0  0  0
   -4.1111    5.6556   22.0308 H   0  0  0  0  0  0
   -5.8349    8.7897   18.7533 H   0  0  0  0  0  0
   -7.7032    9.9900   20.1075 H   0  0  0  0  0  0
   -8.3303    8.4759   19.3720 H   0  0  0  0  0  0
   -7.9574    9.0732   22.2263 H   0  0  0  0  0  0
   -8.6040    7.5666   21.4922 H   0  0  0  0  0  0
    1.9000    4.6807   20.4297 H   0  0  0  0  0  0
   -0.2375    2.5770   20.8215 H   0  0  0  0  0  0
   -6.1464    7.0057   22.5979 H   0  0  0  0  0  0
  1  2  1  0  0  0
  1  6  2  0  0  0
  1 15  1  0  0  0
  2  3  2  0  0  0
  2 18  1  0  0  0
  3  4  1  0  0  0
  3  7  1  0  0  0
  4  5  2  0  0  0
  4  9  1  0  0  0
  5  6  1  0  0  0
  5 19  1  0  0  0
  6 20  1  0  0  0
  7  8  2  0  0  0
  7 21  1  0  0  0
  8  9  1  0  0  0
  8 10  1  0  0  0
 10 11  1  0  0  0
 10 14  2  0  0  0
 11 12  1  0  0  0
 11 22  1  0  0  0
 12 13  1  0  0  0
 12 23  1  0  0  0
 12 24  1  0  0  0
 13 14  1  0  0  0
 13 25  1  0  0  0
 13 26  1  0  0  0
 14 29  1  0  0  0
 15 16  1  0  0  0
 15 27  1  0  0  0
 16 17  2  0  0  0
 16 28  1  0  0  0
M  CHG  1  14   1
M  END
> <s_m_source_file>
../3as3_ligand.sdf

> <i_m_source_file_index>
1

> <s_epik_input>
Uz1bQ0hdW05IXWMoW2NIXTEpW2NIXVtjSF1jKGMxMilvYyhbY0hdMilDMz1OW0NIMl1bQ0gyXVtOSF0z

> <s_epik_cmdline>
J2VwaWtfYXBwJywgJy1pbWFlJywgJ2xpZ2FuZF9wcm8ubWFlJywgJy1vbWFlJywgJ2xpZ2FuZF9wcmVwLm1hZScsICctbXMnLCAnMScsICctcGgnLCAnNycsICctcGh0JywgJzAuNScsICctbnQn

> <r_lp_tautomer_probability>
1

> <r_epik_Ionization_Penalty>
  0.0000

> <r_epik_Ionization_Penalty_Charging>
  0.0000

> <r_epik_Ionization_Penalty_Neutral>
  0.0000

> <r_epik_State_Penalty>
 -0.0000

> <r_epik_Charging_Adjusted_Penalty>
1.7326129957982e-05

> <i_epik_Tot_Q>
1

> <i_epik_Tot_abs_Q>
1

> <s_epik_Chemistry_Notes>
This compound has an imine and may undergo hydrolysis.

$$$$
