3ask_ligand
                    3D
 Schrodinger Suite 2020-3.
179178  0  0  1  0            999 V2000
   30.3870  -28.0800   69.2470 N   0  3  0  0  0  0
   31.8340  -27.9180   69.3490 C   0  0  2  0  0  0
   32.2350  -26.8510   68.3630 C   0  0  0  0  0  0
   32.1680  -27.0580   67.1500 O   0  0  0  0  0  0
   32.5350  -29.2190   69.0310 C   0  0  0  0  0  0
   32.6480  -25.7010   68.8770 N   0  0  0  0  0  0
   32.7440  -24.5200   68.0320 C   0  0  2  0  0  0
   34.0820  -24.3850   67.2890 C   0  0  0  0  0  0
   35.1090  -24.0570   67.8940 O   0  0  0  0  0  0
   32.4240  -23.2730   68.8580 C   0  0  0  0  0  0
   31.3910  -22.3640   68.2100 C   0  0  0  0  0  0
   30.5600  -21.6290   69.2530 C   0  0  0  0  0  0
   31.3870  -20.9190   70.2260 N   0  0  0  0  0  0
   32.1000  -19.8390   69.9400 C   0  0  0  0  0  0
   32.0910  -19.3520   68.7070 N   0  0  0  0  0  0
   32.8210  -19.2470   70.8830 N   0  0  0  0  0  0
   34.0580  -24.6410   65.9770 N   0  0  0  0  0  0
   35.2530  -24.5130   65.1340 C   0  0  2  0  0  0
   35.4110  -23.0980   64.5860 C   0  0  0  0  0  0
   34.4300  -22.4500   64.2240 O   0  0  0  0  0  0
   35.2410  -25.4880   63.9210 C   0  0  2  0  0  0
   34.2630  -25.0640   62.9610 O   0  0  0  0  0  0
   34.9520  -26.9250   64.3530 C   0  0  0  0  0  0
   36.6480  -22.6200   64.5110 N   0  0  0  0  0  0
   36.9030  -21.3170   63.9070 C   0  0  2  0  0  0
   36.5610  -21.3340   62.4160 C   0  0  0  0  0  0
   36.5520  -20.2930   61.7730 O   0  0  0  0  0  0
   38.3470  -20.8650   64.1390 C   0  0  0  0  0  0
   38.6320  -19.4140   63.7660 C   0  0  0  0  0  0
   37.6790  -18.4620   64.4690 C   0  0  0  0  0  0
   37.9680  -17.0160   64.0960 C   0  0  0  0  0  0
   39.3540  -16.6140   64.4630 N   0  3  0  0  0  0
   36.2770  -22.5090   61.8630 N   0  0  0  0  0  0
   35.6540  -22.5490   60.5490 C   0  0  2  0  0  0
   34.2040  -22.1300   60.6830 C   0  0  0  0  0  0
   33.6930  -21.3540   59.8830 O   0  0  0  0  0  0
   35.6620  -23.9440   59.9330 C   0  0  0  0  0  0
   34.5080  -24.0950   58.9170 C   0  0  0  0  0  0
   34.2740  -25.5180   58.4330 C   0  0  0  0  0  0
   33.8280  -25.7200   57.3070 O   0  0  0  0  0  0
   34.5670  -26.5080   59.2800 N   0  0  0  0  0  0
   33.5410  -22.6800   61.6890 N   0  0  0  0  0  0
   32.1330  -22.4090   61.9200 C   0  0  2  0  0  0
   31.9130  -20.9410   62.1880 C   0  0  0  0  0  0
   31.1750  -20.2750   61.4680 O   0  0  0  0  0  0
   31.6090  -23.1910   63.1310 C   0  0  2  0  0  0
   31.1830  -24.4920   62.7100 O   0  0  0  0  0  0
   30.4420  -22.4500   63.7860 C   0  0  0  0  0  0
   32.5620  -20.4350   63.2290 N   0  0  0  0  0  0
   32.3160  -19.0720   63.6770 C   0  0  2  0  0  0
   32.8180  -18.0080   62.6980 C   0  0  0  0  0  0
   32.4740  -16.8350   62.8290 O   0  0  0  0  0  0
   32.9010  -18.8530   65.0620 C   0  0  0  0  0  0
   33.6170  -18.4190   61.7150 N   0  0  0  0  0  0
   34.1570  -17.4880   60.7300 C   0  0  2  0  0  0
   33.0220  -16.7020   60.0740 C   0  0  0  0  0  0
   33.2680  -15.7960   59.2820 O   0  0  0  0  0  0
   35.0030  -18.2320   59.6860 C   0  0  0  0  0  0
   35.9840  -17.3590   58.8990 C   0  0  0  0  0  0
   36.7280  -18.1610   57.8190 C   0  0  0  0  0  0
   37.1630  -17.3080   56.7080 N   0  0  0  0  0  0
   38.0840  -17.6560   55.8160 C   0  0  0  0  0  0
   38.6740  -18.8410   55.8960 N   0  0  0  0  0  0
   38.4170  -16.8180   54.8450 N   0  0  0  0  0  0
   31.7820  -17.0680   60.4040 N   0  0  0  0  0  0
   30.5930  -16.2770   60.0670 C   0  0  1  0  0  0
   29.6610  -16.9150   58.9960 C   0  0  0  0  0  0
   30.3020  -17.5510   57.7310 C   0  0  0  0  0  0
   29.4570  -17.8410   56.4450 C   0  0  0  0  0  0
   30.2210  -18.0760   55.1080 C   0  0  0  0  0  0
   29.5890  -18.8880   54.0290 N   0  3  0  0  0  0
   29.8210  -15.8690   61.3430 C   0  0  0  0  0  0
   29.0200  -16.6010   61.8380 O   0  0  0  0  0  0
   30.2950  -18.7050   52.7800 C   0  0  0  0  0  0
   29.7610  -20.2390   54.5250 C   0  0  0  0  0  0
   28.1790  -18.8610   53.6730 C   0  0  0  0  0  0
   30.1370  -14.6680   61.8440 N   0  0  0  0  0  0
   29.5140  -14.0590   63.0340 C   0  0  2  0  0  0
   28.0360  -14.4380   63.2110 C   0  0  0  0  0  0
   27.6920  -15.4569   63.8675 O   0  0  0  0  0  0
   29.6780  -12.5230   62.9800 C   0  0  0  0  0  0
   29.1740  -11.8630   64.1380 O   0  0  0  0  0  0
   27.1476  -13.7137   62.6878 O   0  0  0  0  0  0
   29.8937  -27.1251   69.4813 H   0  0  0  0  0  0
   30.0531  -28.8495   69.9587 H   0  0  0  0  0  0
   30.1237  -28.3875   68.2242 H   0  0  0  0  0  0
   32.0868  -27.6278   70.3795 H   0  0  0  0  0  0
   32.2320  -29.9862   69.7587 H   0  0  0  0  0  0
   33.6237  -29.0717   69.0854 H   0  0  0  0  0  0
   32.2594  -29.5458   68.0175 H   0  0  0  0  0  0
   32.9181  -25.6390   69.9415 H   0  0  0  0  0  0
   31.9777  -24.6871   67.2607 H   0  0  0  0  0  0
   32.0278  -23.5746   69.8388 H   0  0  0  0  0  0
   33.3406  -22.6814   68.9990 H   0  0  0  0  0  0
   31.9011  -21.6178   67.5830 H   0  0  0  0  0  0
   30.7132  -22.9653   67.5862 H   0  0  0  0  0  0
   29.9144  -20.8913   68.7540 H   0  0  0  0  0  0
   29.9365  -22.3512   69.8005 H   0  0  0  0  0  0
   31.4428  -21.2760   71.2650 H   0  0  0  0  0  0
   31.4927  -19.8437   67.9258 H   0  0  0  0  0  0
   32.8277  -19.6519   71.9057 H   0  0  0  0  0  0
   33.4122  -18.3511   70.6423 H   0  0  0  0  0  0
   33.1026  -24.9566   65.5325 H   0  0  0  0  0  0
   36.0608  -24.7533   65.8409 H   0  0  0  0  0  0
   36.2062  -25.4588   63.3942 H   0  0  0  0  0  0
   34.3129  -24.0507   62.5359 H   0  0  0  0  0  0
   35.7045  -27.2450   65.0888 H   0  0  0  0  0  0
   34.9926  -27.5869   63.4754 H   0  0  0  0  0  0
   33.9509  -26.9774   64.8058 H   0  0  0  0  0  0
   37.4835  -23.2148   64.9087 H   0  0  0  0  0  0
   36.2270  -20.6243   64.4297 H   0  0  0  0  0  0
   38.5984  -20.9731   65.2044 H   0  0  0  0  0  0
   39.0268  -21.4859   63.5371 H   0  0  0  0  0  0
   39.6607  -19.1558   64.0576 H   0  0  0  0  0  0
   38.5154  -19.2849   62.6798 H   0  0  0  0  0  0
   36.6445  -18.6983   64.1791 H   0  0  0  0  0  0
   37.7886  -18.5712   65.5581 H   0  0  0  0  0  0
   37.8480  -16.8864   63.0103 H   0  0  0  0  0  0
   37.2662  -16.3538   64.6241 H   0  0  0  0  0  0
   39.5195  -15.5649   64.1765 H   0  0  0  0  0  0
   40.0741  -17.2563   63.9349 H   0  0  0  0  0  0
   39.4922  -16.7238   65.5487 H   0  0  0  0  0  0
   36.5091  -23.4460   62.3904 H   0  0  0  0  0  0
   36.2561  -21.8609   59.9374 H   0  0  0  0  0  0
   36.6178  -24.1104   59.4146 H   0  0  0  0  0  0
   35.5395  -24.6959   60.7265 H   0  0  0  0  0  0
   33.5681  -23.7555   59.3766 H   0  0  0  0  0  0
   34.7216  -23.4859   58.0263 H   0  0  0  0  0  0
   34.9647  -26.2772   60.2793 H   0  0  0  0  0  0
   34.4106  -27.5542   58.9784 H   0  0  0  0  0  0
   34.0876  -23.3594   62.3596 H   0  0  0  0  0  0
   31.6372  -22.7188   60.9882 H   0  0  0  0  0  0
   32.4116  -23.3577   63.8645 H   0  0  0  0  0  0
   31.8940  -25.1703   62.2156 H   0  0  0  0  0  0
   30.7752  -21.4521   64.1070 H   0  0  0  0  0  0
   30.0912  -23.0182   64.6601 H   0  0  0  0  0  0
   29.6204  -22.3469   63.0619 H   0  0  0  0  0  0
   33.2957  -21.0630   63.7555 H   0  0  0  0  0  0
   31.2185  -19.0061   63.7116 H   0  0  0  0  0  0
   32.5257  -19.6289   65.7454 H   0  0  0  0  0  0
   32.6026  -17.8616   65.4335 H   0  0  0  0  0  0
   33.9983  -18.9100   65.0097 H   0  0  0  0  0  0
   33.8676  -19.4885   61.6562 H   0  0  0  0  0  0
   34.8036  -16.7946   61.2877 H   0  0  0  0  0  0
   35.6042  -19.0061   60.1854 H   0  0  0  0  0  0
   34.3402  -18.7035   58.9455 H   0  0  0  0  0  0
   35.4346  -16.5441   58.4049 H   0  0  0  0  0  0
   36.7299  -16.9341   59.5868 H   0  0  0  0  0  0
   37.6183  -18.6326   58.2606 H   0  0  0  0  0  0
   36.0626  -18.9389   57.4164 H   0  0  0  0  0  0
   36.7197  -16.3102   56.5745 H   0  0  0  0  0  0
   38.3997  -19.5388   56.7009 H   0  0  0  0  0  0
   39.4377  -19.1261   55.1574 H   0  0  0  0  0  0
   37.9294  -15.8344   54.7760 H   0  0  0  0  0  0
   31.6752  -18.0137   60.9555 H   0  0  0  0  0  0
   31.0407  -15.3895   59.5959 H   0  0  0  0  0  0
   29.0806  -17.7297   59.4536 H   0  0  0  0  0  0
   28.9739  -16.1500   58.6052 H   0  0  0  0  0  0
   31.1071  -16.8992   57.3608 H   0  0  0  0  0  0
   30.7169  -18.5372   57.9865 H   0  0  0  0  0  0
   28.8587  -18.7515   56.5970 H   0  0  0  0  0  0
   28.7874  -16.9911   56.2468 H   0  0  0  0  0  0
   30.4285  -17.1077   54.6292 H   0  0  0  0  0  0
   31.1694  -18.5940   55.3137 H   0  0  0  0  0  0
   31.3790  -18.7138   52.9669 H   0  0  0  0  0  0
   30.0076  -17.7414   52.3341 H   0  0  0  0  0  0
   30.0354  -19.5207   52.0891 H   0  0  0  0  0  0
   30.8070  -20.3865   54.8319 H   0  0  0  0  0  0
   29.5073  -20.9563   53.7306 H   0  0  0  0  0  0
   29.0993  -20.3994   55.3889 H   0  0  0  0  0  0
   27.9200  -17.8684   53.2760 H   0  0  0  0  0  0
   27.5713  -19.0687   54.5661 H   0  0  0  0  0  0
   27.9794  -19.6255   52.9077 H   0  0  0  0  0  0
   30.9245  -14.1277   61.2982 H   0  0  0  0  0  0
   30.0631  -14.4945   63.8819 H   0  0  0  0  0  0
   30.7452  -12.2711   62.8924 H   0  0  0  0  0  0
   29.1350  -12.1266   62.1093 H   0  0  0  0  0  0
   29.2340  -10.7675   64.2165 H   0  0  0  0  0  0
   26.0854  -13.9737   62.8068 H   0  0  0  0  0  0
  1  2  1  0  0  0
  1 84  1  0  0  0
  1 85  1  0  0  0
  1 86  1  0  0  0
  2  3  1  0  0  0
  2  5  1  0  0  0
  2 87  1  0  0  0
  3  4  2  0  0  0
  3  6  1  0  0  0
  5 88  1  0  0  0
  5 89  1  0  0  0
  5 90  1  0  0  0
  6  7  1  0  0  0
  6 91  1  0  0  0
  7  8  1  0  0  0
  7 10  1  0  0  0
  7 92  1  0  0  0
  8  9  2  0  0  0
  8 17  1  0  0  0
 10 11  1  0  0  0
 10 93  1  0  0  0
 10 94  1  0  0  0
 11 12  1  0  0  0
 11 95  1  0  0  0
 11 96  1  0  0  0
 12 13  1  0  0  0
 12 97  1  0  0  0
 12 98  1  0  0  0
 13 14  1  0  0  0
 13 99  1  0  0  0
 14 15  2  0  0  0
 14 16  1  0  0  0
 15100  1  0  0  0
 16101  1  0  0  0
 16102  1  0  0  0
 17 18  1  0  0  0
 17103  1  0  0  0
 18 19  1  0  0  0
 18 21  1  0  0  0
 18104  1  0  0  0
 19 20  2  0  0  0
 19 24  1  0  0  0
 21 22  1  0  0  0
 21 23  1  0  0  0
 21105  1  0  0  0
 22106  1  0  0  0
 23107  1  0  0  0
 23108  1  0  0  0
 23109  1  0  0  0
 24 25  1  0  0  0
 24110  1  0  0  0
 25 26  1  0  0  0
 25 28  1  0  0  0
 25111  1  0  0  0
 26 27  2  0  0  0
 26 33  1  0  0  0
 28 29  1  0  0  0
 28112  1  0  0  0
 28113  1  0  0  0
 29 30  1  0  0  0
 29114  1  0  0  0
 29115  1  0  0  0
 30 31  1  0  0  0
 30116  1  0  0  0
 30117  1  0  0  0
 31 32  1  0  0  0
 31118  1  0  0  0
 31119  1  0  0  0
 32120  1  0  0  0
 32121  1  0  0  0
 32122  1  0  0  0
 33 34  1  0  0  0
 33123  1  0  0  0
 34 35  1  0  0  0
 34 37  1  0  0  0
 34124  1  0  0  0
 35 36  2  0  0  0
 35 42  1  0  0  0
 37 38  1  0  0  0
 37125  1  0  0  0
 37126  1  0  0  0
 38 39  1  0  0  0
 38127  1  0  0  0
 38128  1  0  0  0
 39 40  2  0  0  0
 39 41  1  0  0  0
 41129  1  0  0  0
 41130  1  0  0  0
 42 43  1  0  0  0
 42131  1  0  0  0
 43 44  1  0  0  0
 43 46  1  0  0  0
 43132  1  0  0  0
 44 45  2  0  0  0
 44 49  1  0  0  0
 46 47  1  0  0  0
 46 48  1  0  0  0
 46133  1  0  0  0
 47134  1  0  0  0
 48135  1  0  0  0
 48136  1  0  0  0
 48137  1  0  0  0
 49 50  1  0  0  0
 49138  1  0  0  0
 50 51  1  0  0  0
 50 53  1  0  0  0
 50139  1  0  0  0
 51 52  2  0  0  0
 51 54  1  0  0  0
 53140  1  0  0  0
 53141  1  0  0  0
 53142  1  0  0  0
 54 55  1  0  0  0
 54143  1  0  0  0
 55 56  1  0  0  0
 55 58  1  0  0  0
 55144  1  0  0  0
 56 57  2  0  0  0
 56 65  1  0  0  0
 58 59  1  0  0  0
 58145  1  0  0  0
 58146  1  0  0  0
 59 60  1  0  0  0
 59147  1  0  0  0
 59148  1  0  0  0
 60 61  1  0  0  0
 60149  1  0  0  0
 60150  1  0  0  0
 61 62  1  0  0  0
 61151  1  0  0  0
 62 63  1  0  0  0
 62 64  2  0  0  0
 63152  1  0  0  0
 63153  1  0  0  0
 64154  1  0  0  0
 65 66  1  0  0  0
 65155  1  0  0  0
 66 67  1  0  0  0
 66 72  1  0  0  0
 66156  1  0  0  0
 67 68  1  0  0  0
 67157  1  0  0  0
 67158  1  0  0  0
 68 69  1  0  0  0
 68159  1  0  0  0
 68160  1  0  0  0
 69 70  1  0  0  0
 69161  1  0  0  0
 69162  1  0  0  0
 70 71  1  0  0  0
 70163  1  0  0  0
 70164  1  0  0  0
 71 74  1  0  0  0
 71 75  1  0  0  0
 71 76  1  0  0  0
 72 73  2  0  0  0
 72 77  1  0  0  0
 74165  1  0  0  0
 74166  1  0  0  0
 74167  1  0  0  0
 75168  1  0  0  0
 75169  1  0  0  0
 75170  1  0  0  0
 76171  1  0  0  0
 76172  1  0  0  0
 76173  1  0  0  0
 77 78  1  0  0  0
 77174  1  0  0  0
 78 79  1  0  0  0
 78 81  1  0  0  0
 78175  1  0  0  0
 79 80  2  0  0  0
 79 83  1  0  0  0
 81 82  1  0  0  0
 81176  1  0  0  0
 81177  1  0  0  0
 82178  1  0  0  0
 83179  1  0  0  0
M  CHG  3   1   1  32   1  71   1
M  END
> <s_m_source_file>
../3ask_ligand.sdf

> <i_m_source_file_index>
1

> <s_epik_input>
W0hdL049QyhbTkgyXSlcW05IXVtDSDJdW0NIMl1bQ0gyXVtDQEhdKFtOSF1DKD1PKVtDQEBIXShbTkgzK10pW0NIM10pQyg9TylbTkhdW0NAQEhdKFtDQEhdKFtPSF0pW0NIM10pQyg9TylbTkhdW0NAQEhdKFtDSDJdW0NIMl1bQ0gyXVtDSDJdW05IMytdKUMoPU8pW05IXVtDQEBIXShbQ0gyXVtDSDJdQyg9TylbTkgyXSlDKD1PKVtOSF1bQ0BASF0oW0NASF0oW09IXSlbQ0gzXSlDKD1PKVtOSF1bQ0BASF0oW0NIM10pQyg9TylbTkhdW0NAQEhdKFtDSDJdW0NIMl1bQ0gyXVtOSF0vQyhbTkgyXSk9TlxbSF0pQyg9TylbTkhdW0NASF0oQyg9TylbTkhdW0NASF0oQyg9TylbT0hdKVtDSDJdW09IXSlbQ0gyXVtDSDJdW0NIMl1bQ0gyXVtOK10oW0NIM10pKFtDSDNdKVtDSDNd

> <s_epik_cmdline>
J2VwaWtfYXBwJywgJy1pbWFlJywgJ2xpZ2FuZF9wcm8ubWFlJywgJy1vbWFlJywgJ2xpZ2FuZF9wcmVwLm1hZScsICctbXMnLCAnMScsICctcGgnLCAnNycsICctcGh0JywgJzAuNScsICctbnQn

> <s_epik_pKa_notes>
Molecule size exceeds maximum supported for generating protonation states

> <s_epik_Chemistry_Notes>
This compound has an imine and may undergo hydrolysis.

$$$$
