3asl_ligand
                    3D
 Schrodinger Suite 2020-3.
159158  0  0  1  0            999 V2000
   19.9030   18.0410    2.3430 N   0  3  0  0  0  0
   18.4260   17.8410    2.5020 C   0  0  2  0  0  0
   17.9980   16.5330    1.8600 C   0  0  0  0  0  0
   18.7400   15.9570    1.0780 O   0  0  0  0  0  0
   17.6700   19.0110    1.8650 C   0  0  0  0  0  0
   16.8140   16.0580    2.1980 N   0  0  0  0  0  0
   16.2570   14.8520    1.5930 C   0  0  2  0  0  0
   15.7090   15.1280    0.1900 C   0  0  0  0  0  0
   15.1170   16.1720   -0.0780 O   0  0  0  0  0  0
   15.1310   14.2680    2.4720 C   0  0  0  0  0  0
   15.6110   13.6570    3.7600 C   0  0  0  0  0  0
   14.4820   13.0580    4.5550 C   0  0  0  0  0  0
   13.4560   14.0610    4.8500 N   0  0  0  0  0  0
   12.1470   13.9550    4.6090 C   0  0  0  0  0  0
   11.6180   12.8500    4.0950 N   0  0  0  0  0  0
   11.3520   14.9680    4.9260 N   0  0  0  0  0  0
   15.8920   14.1720   -0.7090 N   0  0  0  0  0  0
   15.2190   14.2040   -2.0030 C   0  0  2  0  0  0
   14.3020   12.9910   -2.0700 C   0  0  0  0  0  0
   14.4950   11.9890   -1.3440 O   0  0  0  0  0  0
   16.2350   14.1530   -3.1690 C   0  0  2  0  0  0
   17.0540   12.9830   -3.0260 O   0  0  0  0  0  0
   17.1390   15.3690   -3.1650 C   0  0  0  0  0  0
   13.3290   13.0550   -2.9790 N   0  0  0  0  0  0
   12.3880   11.9730   -3.1280 C   0  0  2  0  0  0
   13.0510   10.6880   -3.5490 C   0  0  0  0  0  0
   12.7140    9.6020   -3.0520 O   0  0  0  0  0  0
   11.2780   12.3410   -4.1090 C   0  0  0  0  0  0
   10.1180   11.3730   -3.9750 C   0  0  0  0  0  0
    8.8910   11.8520   -4.6380 C   0  0  0  0  0  0
    9.0820   11.7590   -6.1040 C   0  0  0  0  0  0
    7.8820   12.2800   -6.7880 N   0  3  0  0  0  0
   13.9450   10.8060   -4.5180 N   0  0  0  0  0  0
   14.7860    9.6870   -4.9440 C   0  0  2  0  0  0
   16.2040   10.1580   -5.1970 C   0  0  0  0  0  0
   16.5100   11.3300   -5.0860 O   0  0  0  0  0  0
   14.2050    9.0210   -6.2050 C   0  0  0  0  0  0
   12.8010    8.5210   -6.0050 C   0  0  0  0  0  0
   12.1900    7.9100   -7.2430 C   0  0  0  0  0  0
   12.8870    7.5250   -8.1800 O   0  0  0  0  0  0
   10.8660    7.8310   -7.2580 N   0  0  0  0  0  0
   17.0860    9.2010   -5.4690 N   0  0  0  0  0  0
   18.4610    9.4540   -5.9300 C   0  0  2  0  0  0
   18.5510    8.9590   -7.3690 C   0  0  0  0  0  0
   17.6720    8.1950   -7.8260 O   0  0  0  0  0  0
   19.4880    8.6990   -5.0590 C   0  0  2  0  0  0
   19.2640    7.2940   -5.1900 O   0  0  0  0  0  0
   19.3530    9.1140   -3.6210 C   0  0  0  0  0  0
   19.6260    9.3400   -8.0660 N   0  0  0  0  0  0
   19.8670    8.9290   -9.4460 C   0  0  2  0  0  0
   21.3400    8.6270   -9.6110 C   0  0  0  0  0  0
   22.1830    9.1980   -8.9180 O   0  0  0  0  0  0
   19.4260   10.0030  -10.4290 C   0  0  0  0  0  0
   21.6170    7.7540  -10.5760 N   0  0  0  0  0  0
   22.9600    7.3060  -10.8990 C   0  0  2  0  0  0
   23.7370    8.4910  -11.4380 C   0  0  0  0  0  0
   23.1780    9.3150  -12.1580 O   0  0  0  0  0  0
   22.8950    6.1860  -11.9510 C   0  0  0  0  0  0
   24.0520    5.1930  -11.9060 C   0  0  0  0  0  0
   23.7500    3.9260  -12.7230 C   0  0  0  0  0  0
   24.2750    2.7230  -12.0760 N   0  0  0  0  0  0
   24.3730    1.5280  -12.6550 C   0  0  0  0  0  0
   23.9840    1.3430  -13.9210 N   0  0  0  0  0  0
   24.8800    0.5070  -11.9690 N   0  0  0  0  0  0
   25.0170    8.5670  -11.0760 N   0  0  0  0  0  0
   25.9270    9.6050  -11.5570 C   0  0  2  0  0  0
   26.4340    9.2640  -12.9580 C   0  0  0  0  0  0
   25.7300    8.6098  -13.7729 O   0  0  0  0  0  0
   27.1020    9.7400  -10.5770 C   0  0  0  0  0  0
   28.1930   10.7320  -10.9470 C   0  0  0  0  0  0
   28.9440   11.2570   -9.7080 C   0  0  0  0  0  0
   29.3510   10.1470   -8.7310 C   0  0  0  0  0  0
   29.9410    8.9550   -9.4210 N   0  3  0  0  0  0
   27.5831    9.6461  -13.3063 O   0  0  0  0  0  0
   20.4388   17.1974    2.8026 H   0  0  0  0  0  0
   20.2014   18.9776    2.8367 H   0  0  0  0  0  0
   20.1526   18.0948    1.2730 H   0  0  0  0  0  0
   18.2066   17.7946    3.5789 H   0  0  0  0  0  0
   17.9871   19.9527    2.3368 H   0  0  0  0  0  0
   16.5888   18.8728    2.0127 H   0  0  0  0  0  0
   17.8912   19.0477    0.7881 H   0  0  0  0  0  0
   16.2427   16.6035    2.9635 H   0  0  0  0  0  0
   17.1129   14.1639    1.5309 H   0  0  0  0  0  0
   14.4216   15.0658    2.7371 H   0  0  0  0  0  0
   14.6040   13.4785    1.9161 H   0  0  0  0  0  0
   16.3366   12.8601    3.5398 H   0  0  0  0  0  0
   16.0921   14.4309    4.3761 H   0  0  0  0  0  0
   14.0212   12.2415    3.9796 H   0  0  0  0  0  0
   14.8716   12.6628    5.5048 H   0  0  0  0  0  0
   13.7386   15.0159    5.3173 H   0  0  0  0  0  0
   12.2664   12.0026    3.8278 H   0  0  0  0  0  0
   10.5316   12.7825    3.9366 H   0  0  0  0  0  0
   11.7774   15.8885    5.3523 H   0  0  0  0  0  0
   16.5691   13.3412   -0.4616 H   0  0  0  0  0  0
   14.6565   15.1483   -2.0474 H   0  0  0  0  0  0
   15.7146   14.0816   -4.1355 H   0  0  0  0  0  0
   16.5899   11.9859   -3.0052 H   0  0  0  0  0  0
   16.5303   16.2787   -3.2737 H   0  0  0  0  0  0
   17.8491   15.3007   -4.0023 H   0  0  0  0  0  0
   17.6938   15.4103   -2.2161 H   0  0  0  0  0  0
   13.2487   13.9459   -3.6193 H   0  0  0  0  0  0
   11.9875   11.8392   -2.1123 H   0  0  0  0  0  0
   10.9230   13.3600   -3.8955 H   0  0  0  0  0  0
   11.6673   12.2962   -5.1368 H   0  0  0  0  0  0
   10.3902   10.4093   -4.4302 H   0  0  0  0  0  0
    9.8866   11.2232   -2.9101 H   0  0  0  0  0  0
    8.0399   11.2270   -4.3299 H   0  0  0  0  0  0
    8.7022   12.8966   -4.3495 H   0  0  0  0  0  0
    9.9598   12.3533   -6.3978 H   0  0  0  0  0  0
    9.2394   10.7078   -6.3873 H   0  0  0  0  0  0
    8.0220   12.2117   -7.8769 H   0  0  0  0  0  0
    7.7252   13.3310   -6.5036 H   0  0  0  0  0  0
    7.0047   11.6855   -6.4931 H   0  0  0  0  0  0
   14.0443   11.7861   -5.0074 H   0  0  0  0  0  0
   14.7891    8.9749   -4.1056 H   0  0  0  0  0  0
   14.1883    9.7489   -7.0295 H   0  0  0  0  0  0
   14.8309    8.1616   -6.4873 H   0  0  0  0  0  0
   12.7951    7.7481   -5.2223 H   0  0  0  0  0  0
   12.1541    9.3567   -5.6999 H   0  0  0  0  0  0
   10.2839    8.1885   -6.3958 H   0  0  0  0  0  0
   10.3501    7.4080   -8.1326 H   0  0  0  0  0  0
   16.7337    8.1682   -5.3304 H   0  0  0  0  0  0
   18.6466   10.5355   -5.8530 H   0  0  0  0  0  0
   20.5238    8.8746   -5.3849 H   0  0  0  0  0  0
   19.3239    6.8174   -6.1796 H   0  0  0  0  0  0
   19.5276   10.1966   -3.5339 H   0  0  0  0  0  0
   20.0926    8.5731   -3.0123 H   0  0  0  0  0  0
   18.3400    8.8761   -3.2643 H   0  0  0  0  0  0
   20.3470    9.9933   -7.5528 H   0  0  0  0  0  0
   19.2635    8.0265   -9.6230 H   0  0  0  0  0  0
   18.3538   10.2071  -10.2924 H   0  0  0  0  0  0
   19.6049    9.6549  -11.4570 H   0  0  0  0  0  0
   20.0004   10.9235  -10.2484 H   0  0  0  0  0  0
   20.7572    7.3682  -11.1433 H   0  0  0  0  0  0
   23.4208    6.9314   -9.9731 H   0  0  0  0  0  0
   21.9731    5.6029  -11.8093 H   0  0  0  0  0  0
   22.8979    6.6283  -12.9582 H   0  0  0  0  0  0
   24.9555    5.6638  -12.3207 H   0  0  0  0  0  0
   24.2392    4.8951  -10.8638 H   0  0  0  0  0  0
   22.6615    3.8114  -12.8330 H   0  0  0  0  0  0
   24.2119    4.0123  -13.7176 H   0  0  0  0  0  0
   24.6251    2.7671  -11.0341 H   0  0  0  0  0  0
   23.5638    2.1817  -14.4954 H   0  0  0  0  0  0
   24.0843    0.3521  -14.3880 H   0  0  0  0  0  0
   25.2025    0.6504  -10.9272 H   0  0  0  0  0  0
   25.3800    7.7970  -10.3794 H   0  0  0  0  0  0
   25.3475   10.5389  -11.6020 H   0  0  0  0  0  0
   26.7255   10.0643   -9.5956 H   0  0  0  0  0  0
   27.6065    8.7680  -10.4733 H   0  0  0  0  0  0
   28.9235   10.2437  -11.6088 H   0  0  0  0  0  0
   27.7456   11.5923  -11.4663 H   0  0  0  0  0  0
   29.8626   11.7714  -10.0267 H   0  0  0  0  0  0
   28.3005   11.9613   -9.1603 H   0  0  0  0  0  0
   30.1028   10.5349   -8.0279 H   0  0  0  0  0  0
   28.4664    9.8082   -8.1718 H   0  0  0  0  0  0
   30.2125    8.1955   -8.6730 H   0  0  0  0  0  0
   30.8400    9.2606   -9.9763 H   0  0  0  0  0  0
   29.2036    8.5339  -10.1202 H   0  0  0  0  0  0
   27.9608    9.4078  -14.3116 H   0  0  0  0  0  0
  1  2  1  0  0  0
  1 75  1  0  0  0
  1 76  1  0  0  0
  1 77  1  0  0  0
  2  3  1  0  0  0
  2  5  1  0  0  0
  2 78  1  0  0  0
  3  4  2  0  0  0
  3  6  1  0  0  0
  5 79  1  0  0  0
  5 80  1  0  0  0
  5 81  1  0  0  0
  6  7  1  0  0  0
  6 82  1  0  0  0
  7  8  1  0  0  0
  7 10  1  0  0  0
  7 83  1  0  0  0
  8  9  2  0  0  0
  8 17  1  0  0  0
 10 11  1  0  0  0
 10 84  1  0  0  0
 10 85  1  0  0  0
 11 12  1  0  0  0
 11 86  1  0  0  0
 11 87  1  0  0  0
 12 13  1  0  0  0
 12 88  1  0  0  0
 12 89  1  0  0  0
 13 14  1  0  0  0
 13 90  1  0  0  0
 14 15  1  0  0  0
 14 16  2  0  0  0
 15 91  1  0  0  0
 15 92  1  0  0  0
 16 93  1  0  0  0
 17 18  1  0  0  0
 17 94  1  0  0  0
 18 19  1  0  0  0
 18 21  1  0  0  0
 18 95  1  0  0  0
 19 20  2  0  0  0
 19 24  1  0  0  0
 21 22  1  0  0  0
 21 23  1  0  0  0
 21 96  1  0  0  0
 22 97  1  0  0  0
 23 98  1  0  0  0
 23 99  1  0  0  0
 23100  1  0  0  0
 24 25  1  0  0  0
 24101  1  0  0  0
 25 26  1  0  0  0
 25 28  1  0  0  0
 25102  1  0  0  0
 26 27  2  0  0  0
 26 33  1  0  0  0
 28 29  1  0  0  0
 28103  1  0  0  0
 28104  1  0  0  0
 29 30  1  0  0  0
 29105  1  0  0  0
 29106  1  0  0  0
 30 31  1  0  0  0
 30107  1  0  0  0
 30108  1  0  0  0
 31 32  1  0  0  0
 31109  1  0  0  0
 31110  1  0  0  0
 32111  1  0  0  0
 32112  1  0  0  0
 32113  1  0  0  0
 33 34  1  0  0  0
 33114  1  0  0  0
 34 35  1  0  0  0
 34 37  1  0  0  0
 34115  1  0  0  0
 35 36  2  0  0  0
 35 42  1  0  0  0
 37 38  1  0  0  0
 37116  1  0  0  0
 37117  1  0  0  0
 38 39  1  0  0  0
 38118  1  0  0  0
 38119  1  0  0  0
 39 40  2  0  0  0
 39 41  1  0  0  0
 41120  1  0  0  0
 41121  1  0  0  0
 42 43  1  0  0  0
 42122  1  0  0  0
 43 44  1  0  0  0
 43 46  1  0  0  0
 43123  1  0  0  0
 44 45  2  0  0  0
 44 49  1  0  0  0
 46 47  1  0  0  0
 46 48  1  0  0  0
 46124  1  0  0  0
 47125  1  0  0  0
 48126  1  0  0  0
 48127  1  0  0  0
 48128  1  0  0  0
 49 50  1  0  0  0
 49129  1  0  0  0
 50 51  1  0  0  0
 50 53  1  0  0  0
 50130  1  0  0  0
 51 52  2  0  0  0
 51 54  1  0  0  0
 53131  1  0  0  0
 53132  1  0  0  0
 53133  1  0  0  0
 54 55  1  0  0  0
 54134  1  0  0  0
 55 56  1  0  0  0
 55 58  1  0  0  0
 55135  1  0  0  0
 56 57  2  0  0  0
 56 65  1  0  0  0
 58 59  1  0  0  0
 58136  1  0  0  0
 58137  1  0  0  0
 59 60  1  0  0  0
 59138  1  0  0  0
 59139  1  0  0  0
 60 61  1  0  0  0
 60140  1  0  0  0
 60141  1  0  0  0
 61 62  1  0  0  0
 61142  1  0  0  0
 62 63  1  0  0  0
 62 64  2  0  0  0
 63143  1  0  0  0
 63144  1  0  0  0
 64145  1  0  0  0
 65 66  1  0  0  0
 65146  1  0  0  0
 66 67  1  0  0  0
 66 69  1  0  0  0
 66147  1  0  0  0
 67 68  2  0  0  0
 67 74  1  0  0  0
 69 70  1  0  0  0
 69148  1  0  0  0
 69149  1  0  0  0
 70 71  1  0  0  0
 70150  1  0  0  0
 70151  1  0  0  0
 71 72  1  0  0  0
 71152  1  0  0  0
 71153  1  0  0  0
 72 73  1  0  0  0
 72154  1  0  0  0
 72155  1  0  0  0
 73156  1  0  0  0
 73157  1  0  0  0
 73158  1  0  0  0
 74159  1  0  0  0
M  CHG  3   1   1  32   1  73   1
M  END
> <s_m_source_file>
../3asl_ligand.sdf

> <i_m_source_file_index>
1

> <s_epik_input>
W0hdL049QyhbTkgyXSlcW05IXVtDSDJdW0NIMl1bQ0gyXVtDQEhdKFtOSF1DKD1PKVtDQEBIXShbTkgzK10pW0NIM10pQyg9TylbTkhdW0NAQEhdKFtDQEhdKFtPSF0pW0NIM10pQyg9TylbTkhdW0NAQEhdKFtDSDJdW0NIMl1bQ0gyXVtDSDJdW05IMytdKUMoPU8pW05IXVtDQEBIXShbQ0gyXVtDSDJdQyg9TylbTkgyXSlDKD1PKVtOSF1bQ0BASF0oW0NASF0oW09IXSlbQ0gzXSlDKD1PKVtOSF1bQ0BASF0oW0NIM10pQyg9TylbTkhdW0NAQEhdKFtDSDJdW0NIMl1bQ0gyXVtOSF0vQyhbTkgyXSk9TlxbSF0pQyg9TylbTkhdW0NASF0oQyg9TylbT0hdKVtDSDJdW0NIMl1bQ0gyXVtDSDJdW05IMytd

> <s_epik_cmdline>
J2VwaWtfYXBwJywgJy1pbWFlJywgJ2xpZ2FuZF9wcm8ubWFlJywgJy1vbWFlJywgJ2xpZ2FuZF9wcmVwLm1hZScsICctbXMnLCAnMScsICctcGgnLCAnNycsICctcGh0JywgJzAuNScsICctbnQn

> <s_epik_pKa_notes>
Molecule size exceeds maximum supported for generating protonation states

> <s_epik_Chemistry_Notes>
This compound has an imine and may undergo hydrolysis.

$$$$
