3asx_ligand
                    3D
 Schrodinger Suite 2020-3.
 70 72  0  0  1  0            999 V2000
   17.1720   -3.6090   55.0720 C   0  0  0  0  0  0
   17.7110   -4.4110   56.1220 N   0  0  0  0  0  0
   18.2250   -0.9550   56.5470 O   0  0  0  0  0  0
   20.8020   -3.0400   53.5230 Cl  0  0  0  0  0  0
   16.0590   -4.1290   54.3920 C   0  0  0  0  0  0
   16.6720   -2.1020   60.8980 N   0  0  0  0  0  0
   17.3800   -5.0240   58.2240 O   0  0  0  0  0  0
   15.2160   -1.1440   51.7320 Cl  0  0  0  0  0  0
   15.4900   -3.3920   53.3120 C   0  0  0  0  0  0
   17.6730   -2.0720   58.8660 O   0  0  0  0  0  0
   15.9900   -2.1250   53.0290 C   0  0  0  0  0  0
   13.3240   -2.0530   63.5300 O   0  0  0  0  0  0
   17.1170   -1.6100   53.7100 C   0  0  0  0  0  0
   13.8630   -0.0160   64.1890 O   0  5  0  0  0  0
   17.6860   -2.3480   54.7330 C   0  0  0  0  0  0
   18.8270   -1.7400   55.4850 C   0  0  1  0  0  0
   19.7400   -0.8120   54.7180 C   0  0  0  0  0  0
   20.6910   -1.2910   53.8320 C   0  0  0  0  0  0
   21.5820   -0.4420   53.1940 C   0  0  0  0  0  0
   21.4820    0.9240   53.4140 C   0  0  0  0  0  0
   20.5160    1.4400   54.2820 C   0  0  0  0  0  0
   19.6330    0.5850   54.9270 C   0  0  0  0  0  0
   17.0270   -4.3600   57.2880 C   0  0  0  0  0  0
   15.7980   -3.4450   57.4440 C   0  0  0  0  0  0
   15.5750   -3.1990   58.9680 C   0  0  0  0  0  0
   16.7170   -2.4000   59.5700 C   0  0  0  0  0  0
   15.4230   -2.1920   61.6970 C   0  0  0  0  0  0
   15.5800   -1.4330   63.0240 C   0  0  1  0  0  0
   16.3650   -0.1270   62.7840 C   0  0  0  0  0  0
   17.7540   -0.3790   62.1790 C   0  0  0  0  0  0
   17.9060   -1.8010   61.6380 C   0  0  0  0  0  0
   14.1910   -1.1810   63.5930 C   0  0  0  0  0  0
   18.9500   -5.2230   55.9130 C   0  0  0  0  0  0
   18.7830   -6.6130   55.3220 C   0  0  0  0  0  0
   17.6280   -7.4140   55.9390 C   0  0  0  0  0  0
   20.0960   -7.2870   55.6750 C   0  0  0  0  0  0
   18.6620   -6.5330   53.7790 C   0  0  0  0  0  0
   17.5151   -1.4249   57.2436 H   0  0  0  0  0  0
   15.6335   -5.0881   54.6872 H   0  0  0  0  0  0
   14.6783   -3.8136   52.7191 H   0  0  0  0  0  0
   17.5333   -0.6417   53.4321 H   0  0  0  0  0  0
   19.4542   -2.5751   55.8304 H   0  0  0  0  0  0
   22.3488   -0.8413   52.5302 H   0  0  0  0  0  0
   22.1651    1.6030   52.9037 H   0  0  0  0  0  0
   20.4559    2.5149   54.4527 H   0  0  0  0  0  0
   18.8643    0.9849   55.5883 H   0  0  0  0  0  0
   15.9827   -2.4917   56.9271 H   0  0  0  0  0  0
   14.9172   -3.9359   57.0043 H   0  0  0  0  0  0
   14.6398   -2.6391   59.1160 H   0  0  0  0  0  0
   15.5104   -4.1652   59.4898 H   0  0  0  0  0  0
   14.5913   -1.7507   61.1282 H   0  0  0  0  0  0
   15.2007   -3.2476   61.9123 H   0  0  0  0  0  0
   16.1426   -2.0237   63.7619 H   0  0  0  0  0  0
   15.8042    0.5154   62.0891 H   0  0  0  0  0  0
   16.5023    0.3993   63.7401 H   0  0  0  0  0  0
   17.9240    0.3204   61.3472 H   0  0  0  0  0  0
   18.5232   -0.2254   62.9502 H   0  0  0  0  0  0
   18.0262   -2.5227   62.4594 H   0  0  0  0  0  0
   18.7679   -1.8723   60.9582 H   0  0  0  0  0  0
   19.6244   -4.6923   55.2249 H   0  0  0  0  0  0
   19.4560   -5.3749   56.8778 H   0  0  0  0  0  0
   17.7484   -7.4485   57.0318 H   0  0  0  0  0  0
   17.6358   -8.4378   55.5368 H   0  0  0  0  0  0
   16.6721   -6.9297   55.6905 H   0  0  0  0  0  0
   20.1935   -7.3497   56.7689 H   0  0  0  0  0  0
   20.9312   -6.6999   55.2655 H   0  0  0  0  0  0
   20.1150   -8.2999   55.2465 H   0  0  0  0  0  0
   17.7131   -6.0457   53.5104 H   0  0  0  0  0  0
   18.6854   -7.5483   53.3563 H   0  0  0  0  0  0
   19.5016   -5.9482   53.3752 H   0  0  0  0  0  0
  1  2  1  0  0  0
  1  5  2  0  0  0
  1 15  1  0  0  0
  2 23  1  0  0  0
  2 33  1  0  0  0
  3 16  1  0  0  0
  3 38  1  0  0  0
  4 18  1  0  0  0
  5  9  1  0  0  0
  5 39  1  0  0  0
  6 26  1  0  0  0
  6 27  1  0  0  0
  6 31  1  0  0  0
  7 23  2  0  0  0
  8 11  1  0  0  0
  9 11  2  0  0  0
  9 40  1  0  0  0
 10 26  2  0  0  0
 11 13  1  0  0  0
 12 32  2  0  0  0
 13 15  2  0  0  0
 13 41  1  0  0  0
 14 32  1  0  0  0
 15 16  1  0  0  0
 16 17  1  0  0  0
 16 42  1  0  0  0
 17 18  2  0  0  0
 17 22  1  0  0  0
 18 19  1  0  0  0
 19 20  2  0  0  0
 19 43  1  0  0  0
 20 21  1  0  0  0
 20 44  1  0  0  0
 21 22  2  0  0  0
 21 45  1  0  0  0
 22 46  1  0  0  0
 23 24  1  0  0  0
 24 25  1  0  0  0
 24 47  1  0  0  0
 24 48  1  0  0  0
 25 26  1  0  0  0
 25 49  1  0  0  0
 25 50  1  0  0  0
 27 28  1  0  0  0
 27 51  1  0  0  0
 27 52  1  0  0  0
 28 29  1  0  0  0
 28 32  1  0  0  0
 28 53  1  0  0  0
 29 30  1  0  0  0
 29 54  1  0  0  0
 29 55  1  0  0  0
 30 31  1  0  0  0
 30 56  1  0  0  0
 30 57  1  0  0  0
 31 58  1  0  0  0
 31 59  1  0  0  0
 33 34  1  0  0  0
 33 60  1  0  0  0
 33 61  1  0  0  0
 34 35  1  0  0  0
 34 36  1  0  0  0
 34 37  1  0  0  0
 35 62  1  0  0  0
 35 63  1  0  0  0
 35 64  1  0  0  0
 36 65  1  0  0  0
 36 66  1  0  0  0
 36 67  1  0  0  0
 37 68  1  0  0  0
 37 69  1  0  0  0
 37 70  1  0  0  0
M  CHG  1  14  -1
M  END
> <s_m_source_file>
../3asx_ligand.sdf

> <i_m_source_file_index>
1

> <s_epik_input>
W0NIMl0xW0NIMl1bQ0gyXVtDQEBIXShDKD1PKVtPSF0pW0NIMl1OMUMoPU8pW0NIMl1bQ0gyXUMoPU8pTihbQ0gyXUMoW0NIM10pKFtDSDNdKVtDSDNdKWMyW2NIXVtjSF1jKENsKVtjSF1jMltDQEhdKFtPSF0pYzNjKENsKVtjSF1bY0hdW2NIXVtjSF0z

> <s_epik_cmdline>
J2VwaWtfYXBwJywgJy1pbWFlJywgJ2xpZ2FuZF9wcm8ubWFlJywgJy1vbWFlJywgJ2xpZ2FuZF9wcmVwLm1hZScsICctbXMnLCAnMScsICctcGgnLCAnNycsICctcGh0JywgJzAuNScsICctbnQn

> <r_lp_tautomer_probability>
1

> <r_epik_Ionization_Penalty>
  0.0012

> <r_epik_Ionization_Penalty_Charging>
  0.0012

> <r_epik_Ionization_Penalty_Neutral>
  0.0000

> <r_epik_State_Penalty>
 -0.0000

> <r_epik_Charging_Adjusted_Penalty>
0.00120289576974211

> <i_epik_Tot_Q>
-1

> <i_epik_Tot_abs_Q>
1

$$$$
