3at1_ligand
                    3D
 Schrodinger Suite 2020-3.
 13 12  0  0  1  0            999 V2000
   46.1560   30.0400   16.5110 P   0  0  0  0  0  0
   46.0560   30.4960   18.0210 O   0  5  0  0  0  0
   47.3050   28.9990   16.2310 O   0  0  0  0  0  0
   46.3110   31.2930   15.5680 O   0  0  0  0  0  0
   44.6090   29.1120   16.1580 C   0  0  0  0  0  0
   43.3160   29.8900   16.1500 C   0  0  0  0  0  0
   43.2440   31.1230   16.1660 O   0  0  0  0  0  0
   42.2620   29.0600   16.1120 N   0  0  0  0  0  0
   47.1906   31.9468   15.6622 H   0  0  0  0  0  0
   44.6771   28.6513   15.1615 H   0  0  0  0  0  0
   44.4712   28.3270   16.9162 H   0  0  0  0  0  0
   42.4193   27.9714   16.1002 H   0  0  0  0  0  0
   41.2408   29.4684   16.0927 H   0  0  0  0  0  0
  1  2  1  0  0  0
  1  3  2  0  0  0
  1  4  1  0  0  0
  1  5  1  0  0  0
  4  9  1  0  0  0
  5  6  1  0  0  0
  5 10  1  0  0  0
  5 11  1  0  0  0
  6  7  2  0  0  0
  6  8  1  0  0  0
  8 12  1  0  0  0
  8 13  1  0  0  0
M  CHG  1   2  -1
M  END
> <s_m_source_file>
../3at1_ligand.sdf

> <i_m_source_file_index>
1

> <s_epik_input>
W09IXVAoPU8pKFtPSF0pW0NIMl1DKD1PKVtOSDJd

> <s_epik_cmdline>
J2VwaWtfYXBwJywgJy1pbWFlJywgJ2xpZ2FuZF9wcm8ubWFlJywgJy1vbWFlJywgJ2xpZ2FuZF9wcmVwLm1hZScsICctbXMnLCAnMScsICctcGgnLCAnNycsICctcGh0JywgJzAuNScsICctbnQn

> <r_epik_Ionization_Penalty>
  0.1869

> <r_epik_Ionization_Penalty_Charging>
  0.0000

> <r_epik_Ionization_Penalty_Neutral>
  0.1869

> <r_epik_State_Penalty>
  0.1765

> <r_epik_Charging_Adjusted_Penalty>
0.176528742871776

> <i_epik_Tot_Q>
-1

> <i_epik_Tot_abs_Q>
1

$$$$
