3at3_ligand
                    3D
 Schrodinger Suite 2020-3.
 51 55  0  0  1  0            999 V2000
   50.7070    9.0770   10.3080 N   0  0  0  0  0  0
   51.1820   10.5950   12.5270 N   0  0  0  0  0  0
   50.9090   10.3790   10.1850 C   0  0  0  0  0  0
   51.1610   11.1710   11.3370 C   0  0  0  0  0  0
   51.3890   12.5240   11.2580 N   0  0  0  0  0  0
   50.9650    9.2950   12.6540 C   0  0  0  0  0  0
   50.7220    8.5000   11.4980 C   0  0  0  0  0  0
   50.9800    8.7840   13.9160 N   0  0  0  0  0  0
   51.4410   13.4500   12.2460 C   0  0  0  0  0  0
   51.6370   14.7150   11.6760 C   0  0  0  0  0  0
   51.5590   13.0890   10.1690 N   0  0  0  0  0  0
   51.7030   14.4100   10.3080 C   0  0  0  0  0  0
   51.4110    9.2640   15.2110 C   0  0  0  0  0  0
   51.5350    8.2860   16.2000 C   0  0  0  0  0  0
   51.1450    7.0800   15.6130 C   0  0  0  0  0  0
   50.5860    7.4710   14.4010 C   0  0  0  0  0  0
   51.7280   15.9160   12.3670 C   0  0  0  0  0  0
   51.3810   14.5970   15.7500 N   0  0  0  0  0  0
   51.6270   15.8270   13.7670 C   0  0  0  0  0  0
   51.4500   14.5700   14.4040 C   0  0  0  0  0  0
   51.3440   13.3550   13.6510 C   0  0  0  0  0  0
   51.6300   13.3940   16.5550 C   0  0  0  0  0  0
   50.3000   12.9860   17.1940 C   0  0  0  0  0  0
   50.3650   13.6850   18.5530 C   0  0  0  0  0  0
   51.6650   14.5020   18.6430 C   0  0  0  0  0  0
   52.5760   13.7260   17.7250 C   0  0  0  0  0  0
   50.8260    8.6910   19.6960 O   0  0  0  0  0  0
   50.1080    7.1470   18.3800 O   0  5  0  0  0  0
   51.9820    8.4470   17.6220 C   0  0  0  0  0  0
   50.8880    8.0680   18.6450 C   0  0  0  0  0  0
   50.8820   10.8439    9.1995 H   0  0  0  0  0  0
   50.5502    7.4278   11.5927 H   0  0  0  0  0  0
   51.8468   15.1264    9.4992 H   0  0  0  0  0  0
   51.6241   10.3159   15.4014 H   0  0  0  0  0  0
   51.2532    6.0710   16.0108 H   0  0  0  0  0  0
   49.8957    6.8330   13.8491 H   0  0  0  0  0  0
   51.8689   16.8685   11.8562 H   0  0  0  0  0  0
   51.1317   15.5476   16.2442 H   0  0  0  0  0  0
   51.6852   16.7331   14.3700 H   0  0  0  0  0  0
   51.1943   12.3946   14.1443 H   0  0  0  0  0  0
   52.0554   12.6366   15.8802 H   0  0  0  0  0  0
   49.4682   13.3415   16.5681 H   0  0  0  0  0  0
   50.2540   11.8901   17.2770 H   0  0  0  0  0  0
   49.5002   14.3560   18.6619 H   0  0  0  0  0  0
   50.3476   12.9314   19.3542 H   0  0  0  0  0  0
   51.4765   15.5300   18.3000 H   0  0  0  0  0  0
   52.0142   14.5217   19.6859 H   0  0  0  0  0  0
   52.9486   12.7923   18.1715 H   0  0  0  0  0  0
   53.4247   14.3190   17.3534 H   0  0  0  0  0  0
   52.8521    7.8003   17.8083 H   0  0  0  0  0  0
   52.2594    9.4960   17.8026 H   0  0  0  0  0  0
  1  3  2  0  0  0
  1  7  1  0  0  0
  2  4  2  0  0  0
  2  6  1  0  0  0
  3  4  1  0  0  0
  3 31  1  0  0  0
  4  5  1  0  0  0
  5  9  1  0  0  0
  5 11  1  0  0  0
  6  7  2  0  0  0
  6  8  1  0  0  0
  7 32  1  0  0  0
  8 13  1  0  0  0
  8 16  1  0  0  0
  9 10  2  0  0  0
  9 21  1  0  0  0
 10 12  1  0  0  0
 10 17  1  0  0  0
 11 12  2  0  0  0
 12 33  1  0  0  0
 13 14  2  0  0  0
 13 34  1  0  0  0
 14 15  1  0  0  0
 14 29  1  0  0  0
 15 16  2  0  0  0
 15 35  1  0  0  0
 16 36  1  0  0  0
 17 19  2  0  0  0
 17 37  1  0  0  0
 18 20  1  0  0  0
 18 22  1  0  0  0
 18 38  1  0  0  0
 19 20  1  0  0  0
 19 39  1  0  0  0
 20 21  2  0  0  0
 21 40  1  0  0  0
 22 23  1  0  0  0
 22 26  1  0  0  0
 22 41  1  0  0  0
 23 24  1  0  0  0
 23 42  1  0  0  0
 23 43  1  0  0  0
 24 25  1  0  0  0
 24 44  1  0  0  0
 24 45  1  0  0  0
 25 26  1  0  0  0
 25 46  1  0  0  0
 25 47  1  0  0  0
 26 48  1  0  0  0
 26 49  1  0  0  0
 27 30  2  0  0  0
 28 30  1  0  0  0
 29 30  1  0  0  0
 29 50  1  0  0  0
 29 51  1  0  0  0
M  CHG  1  28  -1
M  END
> <s_m_source_file>
../3at3_ligand.sdf

> <i_m_source_file_index>
1

> <s_epik_input>
Tz1DKFtPSF0pW0NIMl1jKFtjSF1bY0hdMSlbY0hdbjEtYyhbY0hdbltjSF0yKW5jMi1uM25bY0hdYyhjMzQpW2NIXVtjSF1jKFtjSF00KVtOSF1bQ0hdNVtDSDJdW0NIMl1bQ0gyXVtDSDJdNQ==

> <s_epik_cmdline>
J2VwaWtfYXBwJywgJy1pbWFlJywgJ2xpZ2FuZF9wcm8ubWFlJywgJy1vbWFlJywgJ2xpZ2FuZF9wcmVwLm1hZScsICctbXMnLCAnMScsICctcGgnLCAnNycsICctcGh0JywgJzAuNScsICctbnQn

> <r_lp_tautomer_probability>
1

> <r_epik_Ionization_Penalty>
  0.0054

> <r_epik_Ionization_Penalty_Charging>
  0.0011

> <r_epik_Ionization_Penalty_Neutral>
  0.0043

> <r_epik_State_Penalty>
 -0.0000

> <r_epik_Charging_Adjusted_Penalty>
0.0010668340448865

> <i_epik_Tot_Q>
-1

> <i_epik_Tot_abs_Q>
1

$$$$
