3at4_ligand
                    3D
 Schrodinger Suite 2020-3.
 47 50  0  0  1  0            999 V2000
  -25.1630   -9.1420  -29.5900 N   0  0  0  0  0  0
  -25.3790  -10.4650  -29.7320 C   0  0  0  0  0  0
  -25.6700  -11.2840  -28.6050 C   0  0  0  0  0  0
  -25.7230  -10.7100  -27.3800 N   0  0  0  0  0  0
  -25.4890   -9.4050  -27.2670 C   0  0  0  0  0  0
  -25.2030   -8.5860  -28.3890 C   0  0  0  0  0  0
  -25.9000  -12.6170  -28.7640 N   0  0  0  0  0  0
  -25.5210   -8.8510  -26.0470 N   0  0  0  0  0  0
  -26.0000  -13.6020  -27.8370 C   0  0  0  0  0  0
  -26.2570  -14.8190  -28.4690 C   0  0  0  0  0  0
  -26.3040  -14.4370  -29.8220 C   0  0  0  0  0  0
  -26.0490  -13.1210  -29.8910 N   0  0  0  0  0  0
  -25.8140   -9.4160  -24.7480 C   0  0  0  0  0  0
  -25.8410   -8.5280  -23.7030 C   0  0  0  0  0  0
  -25.4930   -7.2670  -24.2330 C   0  0  0  0  0  0
  -25.3040   -7.4750  -25.6030 C   0  0  0  0  0  0
  -26.4110  -16.0510  -27.8340 C   0  0  0  0  0  0
  -26.2910  -16.0500  -26.4310 C   0  0  0  0  0  0
  -26.0320  -14.8380  -25.7380 C   0  0  0  0  0  0
  -25.8850  -13.5920  -26.4340 C   0  0  0  0  0  0
  -25.9190  -14.8940  -24.3800 N   0  0  0  0  0  0
  -26.0530  -13.7080  -23.5480 C   0  0  0  0  0  0
  -24.7970  -13.4200  -22.7100 C   0  0  0  0  0  0
  -27.3490  -13.7310  -22.7350 C   0  0  0  0  0  0
  -26.2210   -8.9040  -22.2910 C   0  0  0  0  0  0
  -25.4200   -8.1890  -21.2120 C   0  0  0  0  0  0
  -24.7790   -7.1440  -21.4800 O   0  5  0  0  0  0
  -25.4780   -8.7170  -20.1000 O   0  0  0  0  0  0
  -25.3301  -10.9139  -30.7241 H   0  0  0  0  0  0
  -25.0195   -7.5187  -28.2649 H   0  0  0  0  0  0
  -26.5112  -15.0944  -30.6664 H   0  0  0  0  0  0
  -26.0016  -10.4806  -24.6084 H   0  0  0  0  0  0
  -25.3926   -6.3280  -23.6887 H   0  0  0  0  0  0
  -25.0177   -6.6748  -26.2855 H   0  0  0  0  0  0
  -26.6132  -16.9646  -28.3930 H   0  0  0  0  0  0
  -26.3972  -16.9818  -25.8756 H   0  0  0  0  0  0
  -25.6902  -12.6660  -25.8930 H   0  0  0  0  0  0
  -25.7208  -15.8716  -23.9163 H   0  0  0  0  0  0
  -26.1367  -12.8884  -24.2768 H   0  0  0  0  0  0
  -23.9122  -13.4204  -23.3635 H   0  0  0  0  0  0
  -24.6842  -14.1970  -21.9396 H   0  0  0  0  0  0
  -24.8959  -12.4365  -22.2273 H   0  0  0  0  0  0
  -28.1971  -13.9422  -23.4029 H   0  0  0  0  0  0
  -27.4966  -12.7535  -22.2527 H   0  0  0  0  0  0
  -27.2849  -14.5139  -21.9650 H   0  0  0  0  0  0
  -27.2797   -8.6600  -22.1189 H   0  0  0  0  0  0
  -26.0648   -9.9829  -22.1442 H   0  0  0  0  0  0
  1  2  2  0  0  0
  1  6  1  0  0  0
  2  3  1  0  0  0
  2 29  1  0  0  0
  3  4  2  0  0  0
  3  7  1  0  0  0
  4  5  1  0  0  0
  5  6  2  0  0  0
  5  8  1  0  0  0
  6 30  1  0  0  0
  7  9  1  0  0  0
  7 12  1  0  0  0
  8 13  1  0  0  0
  8 16  1  0  0  0
  9 10  2  0  0  0
  9 20  1  0  0  0
 10 11  1  0  0  0
 10 17  1  0  0  0
 11 12  2  0  0  0
 11 31  1  0  0  0
 13 14  2  0  0  0
 13 32  1  0  0  0
 14 15  1  0  0  0
 14 25  1  0  0  0
 15 16  2  0  0  0
 15 33  1  0  0  0
 16 34  1  0  0  0
 17 18  2  0  0  0
 17 35  1  0  0  0
 18 19  1  0  0  0
 18 36  1  0  0  0
 19 20  2  0  0  0
 19 21  1  0  0  0
 20 37  1  0  0  0
 21 22  1  0  0  0
 21 38  1  0  0  0
 22 23  1  0  0  0
 22 24  1  0  0  0
 22 39  1  0  0  0
 23 40  1  0  0  0
 23 41  1  0  0  0
 23 42  1  0  0  0
 24 43  1  0  0  0
 24 44  1  0  0  0
 24 45  1  0  0  0
 25 26  1  0  0  0
 25 46  1  0  0  0
 25 47  1  0  0  0
 26 27  1  0  0  0
 26 28  2  0  0  0
M  CHG  1  27  -1
M  END
> <s_m_source_file>
../3at4_ligand.sdf

> <i_m_source_file_index>
1

> <s_epik_input>
W09IXUMoPU8pW0NIMl1jKFtjSF1bY0hdMSlbY0hdbjEtYyhuMilbY0hdbltjSF1jMi1uM25bY0hdYyhjMzQpW2NIXVtjSF1jKFtjSF00KVtOSF1bQ0hdKFtDSDNdKVtDSDNd

> <s_epik_cmdline>
J2VwaWtfYXBwJywgJy1pbWFlJywgJ2xpZ2FuZF9wcm8ubWFlJywgJy1vbWFlJywgJ2xpZ2FuZF9wcmVwLm1hZScsICctbXMnLCAnMScsICctcGgnLCAnNycsICctcGh0JywgJzAuNScsICctbnQn

> <r_lp_tautomer_probability>
1

> <r_epik_Ionization_Penalty>
  0.0014

> <r_epik_Ionization_Penalty_Charging>
  0.0011

> <r_epik_Ionization_Penalty_Neutral>
  0.0003

> <r_epik_State_Penalty>
 -0.0000

> <r_epik_Charging_Adjusted_Penalty>
0.0010668340448865

> <i_epik_Tot_Q>
-1

> <i_epik_Tot_abs_Q>
1

$$$$
