3ati_ligand
                    3D
 Schrodinger Suite 2020-3.
 22 22  0  0  1  0            999 V2000
   -2.9810  -13.4170   18.8090 N   0  3  0  0  0  0
   -2.7890  -17.2940   15.5400 O   0  0  0  0  0  0
   -1.7810  -13.1740   18.0390 C   0  0  0  0  0  0
   -1.7690  -13.9950   16.7700 C   0  0  0  0  0  0
   -1.2180  -13.4530   15.6120 C   0  0  0  0  0  0
   -1.1900  -14.1930   14.4360 C   0  0  0  0  0  0
   -1.7220  -15.4810   14.4160 C   0  0  0  0  0  0
   -2.2700  -16.0270   15.5760 C   0  0  0  0  0  0
   -2.6500  -18.1770   16.6530 C   0  0  0  0  0  0
   -2.2970  -15.2860   16.7530 C   0  0  0  0  0  0
   -2.9596  -12.8065   19.7238 H   0  0  0  0  0  0
   -3.0334  -14.4818   19.0800 H   0  0  0  0  0  0
   -3.8626  -13.1475   18.2089 H   0  0  0  0  0  0
   -1.7286  -12.1092   17.7680 H   0  0  0  0  0  0
   -0.8994  -13.4435   18.6391 H   0  0  0  0  0  0
   -0.8067  -12.4437   15.6278 H   0  0  0  0  0  0
   -0.7535  -13.7675   13.5324 H   0  0  0  0  0  0
   -1.7097  -16.0615   13.4935 H   0  0  0  0  0  0
   -3.1333  -19.1376   16.4215 H   0  0  0  0  0  0
   -3.1274  -17.7300   17.5375 H   0  0  0  0  0  0
   -1.5821  -18.3437   16.8576 H   0  0  0  0  0  0
   -2.7290  -15.7125   17.6583 H   0  0  0  0  0  0
  1  3  1  0  0  0
  1 11  1  0  0  0
  1 12  1  0  0  0
  1 13  1  0  0  0
  2  8  1  0  0  0
  2  9  1  0  0  0
  3  4  1  0  0  0
  3 14  1  0  0  0
  3 15  1  0  0  0
  4  5  2  0  0  0
  4 10  1  0  0  0
  5  6  1  0  0  0
  5 16  1  0  0  0
  6  7  2  0  0  0
  6 17  1  0  0  0
  7  8  1  0  0  0
  7 18  1  0  0  0
  8 10  2  0  0  0
  9 19  1  0  0  0
  9 20  1  0  0  0
  9 21  1  0  0  0
 10 22  1  0  0  0
M  CHG  1   1   1
M  END
> <s_m_source_file>
../3ati_ligand.sdf

> <i_m_source_file_index>
1

> <s_epik_input>
W05IMytdW0NIMl1jMVtjSF1bY0hdW2NIXWMoW2NIXTEpT1tDSDNd

> <s_epik_cmdline>
J2VwaWtfYXBwJywgJy1pbWFlJywgJ2xpZ2FuZF9wcm8ubWFlJywgJy1vbWFlJywgJ2xpZ2FuZF9wcmVwLm1hZScsICctbXMnLCAnMScsICctcGgnLCAnNycsICctcGh0JywgJzAuNScsICctbnQn

> <r_lp_tautomer_probability>
1

> <r_epik_Ionization_Penalty>
  0.0283

> <r_epik_Ionization_Penalty_Charging>
  0.0283

> <r_epik_Ionization_Penalty_Neutral>
  0.0000

> <r_epik_State_Penalty>
  0.0232

> <r_epik_Charging_Adjusted_Penalty>
0.05158607355732

> <i_epik_Tot_Q>
1

> <i_epik_Tot_abs_Q>
1

$$$$
