3atk_ligand
                    3D
 Schrodinger Suite 2020-3.
 24 24  0  0  1  0            999 V2000
   -1.6220  -12.9070   17.7580 N   0  3  0  0  0  0
   -1.4040  -14.0480   16.8800 C   0  0  0  0  0  0
   -1.4840  -13.5930   15.4220 C   0  0  0  0  0  0
   -0.5820  -14.4130   14.5030 C   0  0  0  0  0  0
   -1.1840  -15.7650   14.1450 C   0  0  0  0  0  0
   -1.4590  -16.5980   15.3930 C   0  0  0  0  0  0
   -2.7130  -16.1480   16.1270 C   0  0  0  0  0  0
   -2.4240  -15.1350   17.2340 C   0  0  0  0  0  0
   -0.8970  -12.1155   17.5174 H   0  0  0  0  0  0
   -1.4903  -13.2192   18.8045 H   0  0  0  0  0  0
   -2.6434  -12.5244   17.6153 H   0  0  0  0  0  0
   -0.3907  -14.4393   17.0537 H   0  0  0  0  0  0
   -2.5182  -13.6967   15.0618 H   0  0  0  0  0  0
   -1.1741  -12.5401   15.3489 H   0  0  0  0  0  0
   -0.4127  -13.8604   13.5670 H   0  0  0  0  0  0
    0.3818  -14.5940   15.0013 H   0  0  0  0  0  0
   -2.1329  -15.6136   13.6096 H   0  0  0  0  0  0
   -0.4845  -16.3192   13.5019 H   0  0  0  0  0  0
   -1.5924  -17.6521   15.1082 H   0  0  0  0  0  0
   -0.6099  -16.5103   16.0868 H   0  0  0  0  0  0
   -3.4056  -15.6764   15.4144 H   0  0  0  0  0  0
   -3.1998  -17.0193   16.5895 H   0  0  0  0  0  0
   -2.0601  -15.7122   18.0968 H   0  0  0  0  0  0
   -3.3867  -14.6664   17.4861 H   0  0  0  0  0  0
  1  2  1  0  0  0
  1  9  1  0  0  0
  1 10  1  0  0  0
  1 11  1  0  0  0
  2  3  1  0  0  0
  2  8  1  0  0  0
  2 12  1  0  0  0
  3  4  1  0  0  0
  3 13  1  0  0  0
  3 14  1  0  0  0
  4  5  1  0  0  0
  4 15  1  0  0  0
  4 16  1  0  0  0
  5  6  1  0  0  0
  5 17  1  0  0  0
  5 18  1  0  0  0
  6  7  1  0  0  0
  6 19  1  0  0  0
  6 20  1  0  0  0
  7  8  1  0  0  0
  7 21  1  0  0  0
  7 22  1  0  0  0
  8 23  1  0  0  0
  8 24  1  0  0  0
M  CHG  1   1   1
M  END
> <s_m_source_file>
../3atk_ligand.sdf

> <i_m_source_file_index>
1

> <s_epik_input>
W05IMytdW0NIXTFbQ0gyXVtDSDJdW0NIMl1bQ0gyXVtDSDJdW0NIMl0x

> <s_epik_cmdline>
J2VwaWtfYXBwJywgJy1pbWFlJywgJ2xpZ2FuZF9wcm8ubWFlJywgJy1vbWFlJywgJ2xpZ2FuZF9wcmVwLm1hZScsICctbXMnLCAnMScsICctcGgnLCAnNycsICctcGh0JywgJzAuNScsICctbnQn

> <r_lp_tautomer_probability>
1

> <r_epik_Ionization_Penalty>
  0.0002

> <r_epik_Ionization_Penalty_Charging>
  0.0002

> <r_epik_Ionization_Penalty_Neutral>
  0.0000

> <r_epik_State_Penalty>
 -0.0000

> <r_epik_Charging_Adjusted_Penalty>
0.000237798257672491

> <i_epik_Tot_Q>
1

> <i_epik_Tot_abs_Q>
1

$$$$
