3atm_ligand
                    3D
 Schrodinger Suite 2020-3.
 25 26  0  0  1  0            999 V2000
   -1.8380  -12.6490   18.0740 N   0  3  0  0  0  0
   -2.0560  -13.3430   16.8190 C   0  0  0  0  0  0
   -0.8540  -14.2220   16.5320 C   0  0  0  0  0  0
   -1.1600  -15.2300   15.4610 C   0  0  0  0  0  0
   -0.6320  -15.2810   14.1750 C   0  0  0  0  0  0
   -1.1360  -16.3510   13.4940 N   0  3  0  0  0  0
   -1.9910  -17.0560   14.2530 C   0  0  0  0  0  0
   -2.0630  -16.3910   15.5620 C   0  0  0  0  0  0
   -2.7590  -18.1980   14.0540 C   0  0  0  0  0  0
   -3.5630  -18.6740   15.0920 C   0  0  0  0  0  0
   -3.6180  -18.0290   16.3360 C   0  0  0  0  0  0
   -2.8660  -16.8790   16.5810 C   0  0  0  0  0  0
   -2.7041  -12.0074   18.2934 H   0  0  0  0  0  0
   -0.9325  -12.0292   17.9977 H   0  0  0  0  0  0
   -1.7121  -13.3842   18.8825 H   0  0  0  0  0  0
   -2.9615  -13.9628   16.8953 H   0  0  0  0  0  0
   -2.1819  -12.6078   16.0105 H   0  0  0  0  0  0
   -0.0144  -13.5964   16.1948 H   0  0  0  0  0  0
   -0.5660  -14.7597   17.4474 H   0  0  0  0  0  0
    0.0873  -14.5170   13.8451 H   0  0  0  0  0  0
   -2.7337  -18.7173   13.0960 H   0  0  0  0  0  0
   -4.1630  -19.5696   14.9311 H   0  0  0  0  0  0
   -4.2567  -18.4313   17.1223 H   0  0  0  0  0  0
   -2.9090  -16.3779   17.5480 H   0  0  0  0  0  0
   -0.8256  -16.5377   12.4553 H   0  0  0  0  0  0
  1  2  1  0  0  0
  1 13  1  0  0  0
  1 14  1  0  0  0
  1 15  1  0  0  0
  2  3  1  0  0  0
  2 16  1  0  0  0
  2 17  1  0  0  0
  3  4  1  0  0  0
  3 18  1  0  0  0
  3 19  1  0  0  0
  4  5  2  0  0  0
  4  8  1  0  0  0
  5  6  1  0  0  0
  5 20  1  0  0  0
  6  7  1  0  0  0
  6 25  1  0  0  0
  7  8  2  0  0  0
  7  9  1  0  0  0
  8 12  1  0  0  0
  9 10  2  0  0  0
  9 21  1  0  0  0
 10 11  1  0  0  0
 10 22  1  0  0  0
 11 12  2  0  0  0
 11 23  1  0  0  0
 12 24  1  0  0  0
M  CHG  2   1   1   6   1
M  END
> <s_m_source_file>
../3atm_ligand.sdf

> <i_m_source_file_index>
1

> <s_epik_input>
W05IMytdW0NIMl1bQ0gyXWMoW2NIXVtuSF0xKWMoYzEyKVtjSF1bY0hdW2NIXVtjSF0y

> <s_epik_cmdline>
J2VwaWtfYXBwJywgJy1pbWFlJywgJ2xpZ2FuZF9wcm8ubWFlJywgJy1vbWFlJywgJ2xpZ2FuZF9wcmVwLm1hZScsICctbXMnLCAnMScsICctcGgnLCAnNycsICctcGh0JywgJzAuNScsICctbnQn

> <r_lp_tautomer_probability>
1

> <r_epik_Ionization_Penalty>
  0.0012

> <r_epik_Ionization_Penalty_Charging>
  0.0011

> <r_epik_Ionization_Penalty_Neutral>
  0.0000

> <r_epik_State_Penalty>
 -0.0000

> <r_epik_Charging_Adjusted_Penalty>
0.00114913690555984

> <i_epik_Tot_Q>
2

> <i_epik_Tot_abs_Q>
2

$$$$
