3atu_ligand
                    3D
 Schrodinger Suite 2020-3.
 39 41  0  0  1  0            999 V2000
    4.4130   12.6730   17.9280 P   0  0  0  0  0  0
    4.5700   12.6760   19.4350 O   0  5  0  0  0  0
    3.5980   11.5420   17.3770 O   0  0  0  0  0  0
    5.7420   12.8540   17.2080 O   0  5  0  0  0  0
    3.0880   14.8160   16.3540 P   0  0  1  0  0  0
    3.0910   13.9140   15.1350 O   0  5  0  0  0  0
    1.8780   15.5580   16.7670 O   0  0  0  0  0  0
    3.5410   14.0040   17.6960 O   0  0  0  0  0  0
    4.3500   15.8110   16.1740 O   0  0  0  0  0  0
    4.5800   16.8560   17.1470 C   0  0  0  0  0  0
    5.5840   17.8700   16.6370 C   0  0  1  0  0  0
    5.0050   18.4930   15.4950 O   0  0  0  0  0  0
    5.9250   18.9500   17.6560 C   0  0  1  0  0  0
    7.3690   19.1390   17.6160 O   0  0  0  0  0  0
    5.1880   20.1620   17.1130 C   0  0  1  0  0  0
    5.7110   21.4340   17.5040 O   0  0  0  0  0  0
    5.2840   19.8750   15.6160 C   0  0  2  0  0  0
    4.3090   20.6000   14.8200 N   0  0  0  0  0  0
    2.9450   20.5710   14.9080 C   0  0  0  0  0  0
    2.4170   21.3960   13.9730 N   0  0  0  0  0  0
    3.4470   21.9300   13.2790 C   0  0  0  0  0  0
    3.5720   22.8970   12.1870 C   0  0  0  0  0  0
    2.4460   23.4110   11.6480 N   0  0  0  0  0  0
    4.8210   23.1980   11.7440 N   0  0  0  0  0  0
    5.9260   22.6690   12.3000 C   0  0  0  0  0  0
    5.8910   21.7690   13.3180 N   0  0  0  0  0  0
    4.6810   21.4140   13.8400 C   0  0  0  0  0  0
    3.6336   17.3755   17.3578 H   0  0  0  0  0  0
    4.9699   16.4132   18.0754 H   0  0  0  0  0  0
    6.5121   17.3552   16.3478 H   0  0  0  0  0  0
    5.6845   18.7391   18.7085 H   0  0  0  0  0  0
    8.0380   18.3441   17.9774 H   0  0  0  0  0  0
    4.1840   20.3301   17.5298 H   0  0  0  0  0  0
    5.6888   21.7363   18.5614 H   0  0  0  0  0  0
    6.2641   20.1436   15.1949 H   0  0  0  0  0  0
    2.3720   19.9766   15.6197 H   0  0  0  0  0  0
    1.4633   23.1272   12.0527 H   0  0  0  0  0  0
    2.5112   24.1136   10.8041 H   0  0  0  0  0  0
    6.8979   22.9776   11.9149 H   0  0  0  0  0  0
  1  2  1  0  0  0
  1  3  2  0  0  0
  1  4  1  0  0  0
  1  8  1  0  0  0
  5  6  1  0  0  0
  5  7  2  0  0  0
  5  8  1  0  0  0
  5  9  1  0  0  0
  9 10  1  0  0  0
 10 11  1  0  0  0
 10 28  1  0  0  0
 10 29  1  0  0  0
 11 12  1  0  0  0
 11 13  1  0  0  0
 11 30  1  0  0  0
 12 17  1  0  0  0
 13 14  1  0  0  0
 13 15  1  0  0  0
 13 31  1  0  0  0
 14 32  1  0  0  0
 15 16  1  0  0  0
 15 17  1  0  0  0
 15 33  1  0  0  0
 16 34  1  0  0  0
 17 18  1  0  0  0
 17 35  1  0  0  0
 18 19  1  0  0  0
 18 27  1  0  0  0
 19 20  2  0  0  0
 19 36  1  0  0  0
 20 21  1  0  0  0
 21 22  2  0  0  0
 21 27  1  0  0  0
 22 23  1  0  0  0
 22 24  1  0  0  0
 23 37  1  0  0  0
 23 38  1  0  0  0
 24 25  2  0  0  0
 25 26  1  0  0  0
 25 39  1  0  0  0
 26 27  2  0  0  0
M  CHG  3   2  -1   4  -1   6  -1
M  END
> <s_m_source_file>
../3atu_ligand.sdf

> <i_m_source_file_index>
1

> <s_epik_input>
W09IXVAoPU8pKFtPSF0pT1tQQF0oPU8pKFtPSF0pT1tDSDJdW0NASF0xT1tDQEhdKFtDQEhdKFtPSF0pW0NAQEhdMVtPSF0pbihbY0hdbjIpYyhjMjMpbltjSF1uYzNbTkgyXQ==

> <s_epik_cmdline>
J2VwaWtfYXBwJywgJy1pbWFlJywgJ2xpZ2FuZF9wcm8ubWFlJywgJy1vbWFlJywgJ2xpZ2FuZF9wcmVwLm1hZScsICctbXMnLCAnMScsICctcGgnLCAnNycsICctcGh0JywgJzAuNScsICctbnQn

> <r_lp_tautomer_probability>
0.999997216410988

> <r_epik_Ionization_Penalty>
  0.1037

> <r_epik_Ionization_Penalty_Charging>
  0.1033

> <r_epik_Ionization_Penalty_Neutral>
  0.0004

> <r_epik_State_Penalty>
  0.0922

> <r_epik_Charging_Adjusted_Penalty>
0.19546844050481

> <i_epik_Tot_Q>
-3

> <i_epik_Tot_abs_Q>
3

> <s_epik_Chemistry_Notes>
This compound contains an acetal/aminal-like group ( X-CH(R)-Y where X, Y are N, S, or O) that may be acid/base labile, releasing an aldehyde.

$$$$
