3atv_ligand
                    3D
 Schrodinger Suite 2020-3.
 39 41  0  0  1  0            999 V2000
   -4.5050   18.9420   18.2000 P   0  0  0  0  0  0
   -3.8370   19.6500   19.3680 O   0  5  0  0  0  0
   -5.2460   19.8030   17.2230 O   0  0  0  0  0  0
   -5.4110   17.8230   18.6840 O   0  5  0  0  0  0
   -2.9810   17.0400   16.4270 P   0  0  1  0  0  0
   -2.8260   17.6630   15.0510 O   0  5  0  0  0  0
   -1.8230   16.2640   16.9970 O   0  0  0  0  0  0
   -3.2240   18.2120   17.5050 O   0  0  0  0  0  0
   -4.3060   16.1420   16.3600 O   0  0  0  0  0  0
   -4.5510   15.1020   17.3070 C   0  0  0  0  0  0
   -5.5480   14.0970   16.7460 C   0  0  1  0  0  0
   -4.9160   13.4330   15.6450 O   0  0  0  0  0  0
   -5.8800   12.9800   17.7220 C   0  0  1  0  0  0
   -7.2800   12.7420   17.6200 O   0  0  0  0  0  0
   -5.1240   11.7650   17.1790 C   0  0  1  0  0  0
   -5.6730   10.4840   17.4940 O   0  0  0  0  0  0
   -5.2210   12.0620   15.6920 C   0  0  2  0  0  0
   -4.2420   11.3250   14.8860 N   0  0  0  0  0  0
   -2.8950   11.3910   14.9950 C   0  0  0  0  0  0
   -2.2980   10.5880   14.0810 N   0  0  0  0  0  0
   -3.2920    9.9900   13.3810 C   0  0  0  0  0  0
   -3.3390    9.0270   12.2840 C   0  0  0  0  0  0
   -2.1730    8.5330   11.7770 N   0  0  0  0  0  0
   -4.5700    8.6830   11.8270 N   0  0  0  0  0  0
   -5.7080    9.1800   12.3520 C   0  0  0  0  0  0
   -5.7460   10.0740   13.3590 N   0  0  0  0  0  0
   -4.5670   10.4960   13.9020 C   0  0  0  0  0  0
   -3.6081   14.5828   17.5335 H   0  0  0  0  0  0
   -4.9614   15.5363   18.2306 H   0  0  0  0  0  0
   -6.4550   14.6396   16.4411 H   0  0  0  0  0  0
   -5.6763   13.1994   18.7805 H   0  0  0  0  0  0
   -7.9941   13.5057   17.9620 H   0  0  0  0  0  0
   -4.1315   11.6015   17.6243 H   0  0  0  0  0  0
   -5.6748   10.1272   18.5345 H   0  0  0  0  0  0
   -6.1970   11.8238   15.2439 H   0  0  0  0  0  0
   -2.3622   12.0066   15.7197 H   0  0  0  0  0  0
   -1.2095    8.8570   12.1974 H   0  0  0  0  0  0
   -2.1962    7.8107   10.9477 H   0  0  0  0  0  0
   -6.6555    8.8374   11.9361 H   0  0  0  0  0  0
  1  2  1  0  0  0
  1  3  2  0  0  0
  1  4  1  0  0  0
  1  8  1  0  0  0
  5  6  1  0  0  0
  5  7  2  0  0  0
  5  8  1  0  0  0
  5  9  1  0  0  0
  9 10  1  0  0  0
 10 11  1  0  0  0
 10 28  1  0  0  0
 10 29  1  0  0  0
 11 12  1  0  0  0
 11 13  1  0  0  0
 11 30  1  0  0  0
 12 17  1  0  0  0
 13 14  1  0  0  0
 13 15  1  0  0  0
 13 31  1  0  0  0
 14 32  1  0  0  0
 15 16  1  0  0  0
 15 17  1  0  0  0
 15 33  1  0  0  0
 16 34  1  0  0  0
 17 18  1  0  0  0
 17 35  1  0  0  0
 18 19  1  0  0  0
 18 27  1  0  0  0
 19 20  2  0  0  0
 19 36  1  0  0  0
 20 21  1  0  0  0
 21 22  2  0  0  0
 21 27  1  0  0  0
 22 23  1  0  0  0
 22 24  1  0  0  0
 23 37  1  0  0  0
 23 38  1  0  0  0
 24 25  2  0  0  0
 25 26  1  0  0  0
 25 39  1  0  0  0
 26 27  2  0  0  0
M  CHG  3   2  -1   4  -1   6  -1
M  END
> <s_m_source_file>
../3atv_ligand.sdf

> <i_m_source_file_index>
1

> <s_epik_input>
W09IXVAoPU8pKFtPSF0pT1tQQF0oPU8pKFtPSF0pT1tDSDJdW0NASF0xT1tDQEhdKFtDQEhdKFtPSF0pW0NAQEhdMVtPSF0pbihbY0hdbjIpYyhjMjMpbltjSF1uYzNbTkgyXQ==

> <s_epik_cmdline>
J2VwaWtfYXBwJywgJy1pbWFlJywgJ2xpZ2FuZF9wcm8ubWFlJywgJy1vbWFlJywgJ2xpZ2FuZF9wcmVwLm1hZScsICctbXMnLCAnMScsICctcGgnLCAnNycsICctcGh0JywgJzAuNScsICctbnQn

> <r_lp_tautomer_probability>
0.999997216410988

> <r_epik_Ionization_Penalty>
  0.1037

> <r_epik_Ionization_Penalty_Charging>
  0.1033

> <r_epik_Ionization_Penalty_Neutral>
  0.0004

> <r_epik_State_Penalty>
  0.0922

> <r_epik_Charging_Adjusted_Penalty>
0.19546844050481

> <i_epik_Tot_Q>
-3

> <i_epik_Tot_abs_Q>
3

> <s_epik_Chemistry_Notes>
This compound contains an acetal/aminal-like group ( X-CH(R)-Y where X, Y are N, S, or O) that may be acid/base labile, releasing an aldehyde.

$$$$
