3atw_ligand
                    3D
 Schrodinger Suite 2020-3.
 79 80  0  0  1  0            999 V2000
    1.3530   11.1600  -17.3980 C   0  0  0  0  0  0
    0.3890   10.6860  -16.7880 O   0  0  0  0  0  0
    1.2430   11.4550  -18.8950 C   0  0  0  0  0  0
    2.5500   11.4260  -16.8530 N   0  0  0  0  0  0
    2.8270   11.2310  -15.4130 C   0  0  2  0  0  0
    2.3830   12.5170  -14.7190 C   0  0  0  0  0  0
    2.8630   13.6030  -15.0400 O   0  0  0  0  0  0
    4.2980   10.9480  -15.1460 C   0  0  2  0  0  0
    4.6590    9.7580  -15.8340 O   0  0  0  0  0  0
    4.5910   10.8060  -13.6500 C   0  0  0  0  0  0
    1.4330   12.3540  -13.8100 N   0  0  0  0  0  0
    0.8610   13.4810  -13.0770 C   0  0  2  0  0  0
    1.2580   13.3890  -11.5960 C   0  0  0  0  0  0
    1.0530   12.3550  -10.9530 O   0  0  0  0  0  0
   -0.6850   13.4840  -13.2370 C   0  0  0  0  0  0
   -1.3000   14.7570  -12.6490 C   0  0  0  0  0  0
   -1.1310   13.3280  -14.7010 C   0  0  0  0  0  0
    1.8070   14.5110  -11.1140 N   0  0  0  0  0  0
    2.2280   14.6740   -9.7220 C   0  0  2  0  0  0
    0.9520   15.0170   -8.9890 C   0  0  0  0  0  0
    0.1940   15.8720   -9.4530 O   0  0  0  0  0  0
    3.2310   15.8360   -9.5350 C   0  0  0  0  0  0
    4.5880   15.6290  -10.2380 C   0  0  0  0  0  0
    5.5550   16.7300   -9.7520 C   0  0  0  0  0  0
    6.9970   16.5970  -10.2990 C   0  0  0  0  0  0
    7.5580   15.1740  -10.1630 C   0  0  0  0  0  0
    6.5690   14.0670  -10.6210 C   0  0  0  0  0  0
    5.1840   14.2260   -9.9680 C   0  0  0  0  0  0
    0.7050   14.3290   -7.8840 N   0  0  0  0  0  0
   -0.5370   14.6110   -7.1330 C   0  0  1  0  0  0
   -1.1760   13.2910   -6.6470 C   0  0  0  0  0  0
   -2.0440   12.6880   -7.7480 C   0  0  0  0  0  0
   -2.4800   11.4310   -7.8000 N   0  0  0  0  0  0
   -2.5180   13.3210   -8.8180 C   0  0  0  0  0  0
   -3.2140   11.2910   -8.9040 C   0  0  0  0  0  0
   -3.2380   12.4640   -9.5380 N   0  0  0  0  0  0
   -0.2040   15.6050   -5.9990 C   0  0  0  0  0  0
   -0.9250   15.7820   -5.0190 O   0  0  0  0  0  0
    0.8631   16.2698   -6.0825 O   0  5  0  0  0  0
    0.2303   11.2053  -19.2445 H   0  0  0  0  0  0
    1.9798   10.8494  -19.4431 H   0  0  0  0  0  0
    1.4398   12.5224  -19.0738 H   0  0  0  0  0  0
    3.3405   11.8020  -17.5192 H   0  0  0  0  0  0
    2.2742   10.3480  -15.0599 H   0  0  0  0  0  0
    4.9241   11.7518  -15.5606 H   0  0  0  0  0  0
    4.5149    9.6866  -16.9222 H   0  0  0  0  0  0
    4.3069   11.7334  -13.1311 H   0  0  0  0  0  0
    5.6647   10.6177  -13.5029 H   0  0  0  0  0  0
    4.0118    9.9649  -13.2412 H   0  0  0  0  0  0
    1.0759   11.3322  -13.6139 H   0  0  0  0  0  0
    1.2931   14.3917  -13.5174 H   0  0  0  0  0  0
   -1.0633   12.6151  -12.6785 H   0  0  0  0  0  0
   -0.9811   14.8685  -11.6022 H   0  0  0  0  0  0
   -2.3970   14.6883  -12.6928 H   0  0  0  0  0  0
   -0.9637   15.6287  -13.2296 H   0  0  0  0  0  0
   -0.6892   12.4135  -15.1234 H   0  0  0  0  0  0
   -0.7947   14.1997  -15.2816 H   0  0  0  0  0  0
   -2.2280   13.2593  -14.7448 H   0  0  0  0  0  0
    1.9356   15.3379  -11.8279 H   0  0  0  0  0  0
    2.7103   13.7414   -9.3940 H   0  0  0  0  0  0
    2.7986   16.7625   -9.9409 H   0  0  0  0  0  0
    3.4428   15.9688   -8.4638 H   0  0  0  0  0  0
    4.4345   15.6998  -11.3249 H   0  0  0  0  0  0
    5.1796   17.7140  -10.0695 H   0  0  0  0  0  0
    5.6228   16.7001   -8.6545 H   0  0  0  0  0  0
    7.0101   16.8620  -11.3665 H   0  0  0  0  0  0
    7.6633   17.2745   -9.7449 H   0  0  0  0  0  0
    8.4653   15.0773  -10.7773 H   0  0  0  0  0  0
    7.8057   14.9766   -9.1096 H   0  0  0  0  0  0
    6.4422   14.1173  -11.7125 H   0  0  0  0  0  0
    6.9687   13.0805  -10.3434 H   0  0  0  0  0  0
    5.2908   14.0755   -8.8836 H   0  0  0  0  0  0
    4.5140   13.4574  -10.3806 H   0  0  0  0  0  0
    1.4037   13.5601   -7.5226 H   0  0  0  0  0  0
   -1.2649   15.0838   -7.8088 H   0  0  0  0  0  0
   -1.0834   12.7796   -5.6775 H   0  0  0  0  0  0
   -2.4039   14.3620   -9.1545 H   0  0  0  0  0  0
   -3.7086   10.3766   -9.2316 H   0  0  0  0  0  0
   -2.2104   10.7220   -7.0034 H   0  0  0  0  0  0
  1  2  2  0  0  0
  1  3  1  0  0  0
  1  4  1  0  0  0
  3 40  1  0  0  0
  3 41  1  0  0  0
  3 42  1  0  0  0
  4  5  1  0  0  0
  4 43  1  0  0  0
  5  6  1  0  0  0
  5  8  1  0  0  0
  5 44  1  0  0  0
  6  7  2  0  0  0
  6 11  1  0  0  0
  8  9  1  0  0  0
  8 10  1  0  0  0
  8 45  1  0  0  0
  9 46  1  0  0  0
 10 47  1  0  0  0
 10 48  1  0  0  0
 10 49  1  0  0  0
 11 12  1  0  0  0
 11 50  1  0  0  0
 12 13  1  0  0  0
 12 15  1  0  0  0
 12 51  1  0  0  0
 13 14  2  0  0  0
 13 18  1  0  0  0
 15 16  1  0  0  0
 15 17  1  0  0  0
 15 52  1  0  0  0
 16 53  1  0  0  0
 16 54  1  0  0  0
 16 55  1  0  0  0
 17 56  1  0  0  0
 17 57  1  0  0  0
 17 58  1  0  0  0
 18 19  1  0  0  0
 18 59  1  0  0  0
 19 20  1  0  0  0
 19 22  1  0  0  0
 19 60  1  0  0  0
 20 21  2  0  0  0
 20 29  1  0  0  0
 22 23  1  0  0  0
 22 61  1  0  0  0
 22 62  1  0  0  0
 23 24  1  0  0  0
 23 28  1  0  0  0
 23 63  1  0  0  0
 24 25  1  0  0  0
 24 64  1  0  0  0
 24 65  1  0  0  0
 25 26  1  0  0  0
 25 66  1  0  0  0
 25 67  1  0  0  0
 26 27  1  0  0  0
 26 68  1  0  0  0
 26 69  1  0  0  0
 27 28  1  0  0  0
 27 70  1  0  0  0
 27 71  1  0  0  0
 28 72  1  0  0  0
 28 73  1  0  0  0
 29 30  1  0  0  0
 29 74  1  0  0  0
 30 31  1  0  0  0
 30 37  1  0  0  0
 30 75  1  0  0  0
 31 32  2  0  0  0
 31 76  1  0  0  0
 32 33  1  0  0  0
 32 34  1  0  0  0
 33 35  1  0  0  0
 33 79  1  0  0  0
 34 36  2  0  0  0
 34 77  1  0  0  0
 35 36  1  0  0  0
 35 78  1  0  0  0
 37 38  2  0  0  0
 37 39  1  0  0  0
M  CHG  1  39  -1
M  END
> <s_m_source_file>
../3atw_ligand.sdf

> <i_m_source_file_index>
1

> <s_epik_input>
Tz1DKFtDSDNdKVtOSF1bQ0BASF0oW0NASF0oW09IXSlbQ0gzXSlDKD1PKVtOSF1bQ0BASF0oW0NIXShbQ0gzXSlbQ0gzXSlDKD1PKVtOSF1bQ0BASF0oW0NIMl1bQ0hdMVtDSDJdW0NIMl1bQ0gyXVtDSDJdW0NIMl0xKUMoPU8pW05IXVtDQEhdKEMoPU8pW09IXSlbQ0gyXUMyPU5bQ0gyXU49W0NIXTI=

> <s_epik_cmdline>
J2VwaWtfYXBwJywgJy1pbWFlJywgJ2xpZ2FuZF9wcm8ubWFlJywgJy1vbWFlJywgJ2xpZ2FuZF9wcmVwLm1hZScsICctbXMnLCAnMScsICctcGgnLCAnNycsICctcGh0JywgJzAuNScsICctbnQn

> <r_lp_tautomer_probability>
1

> <r_epik_Ionization_Penalty>
  0.0000

> <r_epik_Ionization_Penalty_Charging>
  0.0000

> <r_epik_Ionization_Penalty_Neutral>
  0.0000

> <r_epik_State_Penalty>
 -0.0000

> <r_epik_Charging_Adjusted_Penalty>
1.61996737655724e-05

> <i_epik_Tot_Q>
-1

> <i_epik_Tot_abs_Q>
1

> <s_epik_Chemistry_Notes>
This compound has an imine and may undergo hydrolysis.

$$$$
