3au6_ligand
                    3D
 Schrodinger Suite 2020-3.
 43 45  0  0  1  0            999 V2000
    1.5300  -30.7990    1.8770 P   0  0  0  0  0  0
    0.0500  -30.5600    1.6300 O   0  5  0  0  0  0
    1.8060  -31.7320    3.0160 O   0  0  0  0  0  0
    2.2310  -31.1540    0.5950 O   0  0  0  0  0  0
    2.1860  -29.4630    2.5280 O   0  0  0  0  0  0
    1.3550  -28.4640    3.5250 P   0  0  1  0  0  0
    2.1380  -28.1280    4.7860 O   0  5  0  0  0  0
    0.9990  -27.2680    2.6870 O   0  0  0  0  0  0
   -0.0040  -29.2610    3.9780 O   0  0  0  0  0  0
   -0.0950  -30.2830    5.2360 P   0  0  1  0  0  0
   -0.7300  -31.5300    4.7370 O   0  0  0  0  0  0
    1.2020  -30.3100    6.0350 O   0  5  0  0  0  0
   -1.1870  -29.6980    6.2460 O   0  0  0  0  0  0
   -1.8120  -28.4150    6.1380 C   0  0  0  0  0  0
   -1.5000  -27.3580    7.2350 C   0  0  1  0  0  0
   -1.5030  -27.7820    8.6170 O   0  0  0  0  0  0
   -0.1540  -26.6450    7.0610 C   0  0  0  0  0  0
    0.0450  -25.9600    8.4080 C   0  0  0  0  0  0
   -0.8200  -26.7670    9.3680 C   0  0  2  0  0  0
    0.1160  -27.3560   10.3220 N   0  0  0  0  0  0
    0.8670  -28.4440   10.0860 C   0  0  0  0  0  0
    1.6560  -28.7340   11.1520 N   0  0  0  0  0  0
    1.4030  -27.8090   12.0890 C   0  0  0  0  0  0
    1.9010  -27.5340   13.4590 C   0  0  0  0  0  0
    2.7700  -28.2730   14.0090 O   0  0  0  0  0  0
    1.3690  -26.4660   14.0950 N   0  3  0  0  0  0
    0.4370  -25.6570   13.5340 C   0  0  0  0  0  0
   -0.0220  -24.6060   14.2590 N   0  0  0  0  0  0
   -0.0540  -25.8580   12.2770 N   0  0  0  0  0  0
    0.3880  -26.8940   11.5300 C   0  0  0  0  0  0
    1.9125  -32.0360    0.0200 H   0  0  0  0  0  0
   -1.5149  -27.9410    5.1909 H   0  0  0  0  0  0
   -2.9050  -28.5366    6.1601 H   0  0  0  0  0  0
   -2.3789  -26.7033    7.1404 H   0  0  0  0  0  0
    0.6285  -27.3869    6.8434 H   0  0  0  0  0  0
   -0.2229  -25.9297    6.2281 H   0  0  0  0  0  0
    1.1095  -25.9941    8.6830 H   0  0  0  0  0  0
   -0.2823  -24.9121    8.3384 H   0  0  0  0  0  0
   -1.6044  -26.2078    9.8991 H   0  0  0  0  0  0
    0.8458  -29.0188    9.1601 H   0  0  0  0  0  0
    0.3624  -24.4284   15.2742 H   0  0  0  0  0  0
   -0.7786  -23.9315   13.8316 H   0  0  0  0  0  0
    1.6900  -26.2188   15.1177 H   0  0  0  0  0  0
  1  2  1  0  0  0
  1  3  2  0  0  0
  1  4  1  0  0  0
  1  5  1  0  0  0
  4 31  1  0  0  0
  5  6  1  0  0  0
  6  7  1  0  0  0
  6  8  2  0  0  0
  6  9  1  0  0  0
  9 10  1  0  0  0
 10 11  2  0  0  0
 10 12  1  0  0  0
 10 13  1  0  0  0
 13 14  1  0  0  0
 14 15  1  0  0  0
 14 32  1  0  0  0
 14 33  1  0  0  0
 15 16  1  0  0  0
 15 17  1  0  0  0
 15 34  1  0  0  0
 16 19  1  0  0  0
 17 18  1  0  0  0
 17 35  1  0  0  0
 17 36  1  0  0  0
 18 19  1  0  0  0
 18 37  1  0  0  0
 18 38  1  0  0  0
 19 20  1  0  0  0
 19 39  1  0  0  0
 20 21  1  0  0  0
 20 30  1  0  0  0
 21 22  2  0  0  0
 21 40  1  0  0  0
 22 23  1  0  0  0
 23 24  1  0  0  0
 23 30  2  0  0  0
 24 25  2  0  0  0
 24 26  1  0  0  0
 26 27  1  0  0  0
 26 43  1  0  0  0
 27 28  1  0  0  0
 27 29  2  0  0  0
 28 41  1  0  0  0
 28 42  1  0  0  0
 29 30  1  0  0  0
M  CHG  4   2  -1   7  -1  12  -1  26   1
M  END
> <s_m_source_file>
../3au6_ligand.sdf

> <i_m_source_file_index>
1

> <s_epik_input>
W09IXVAoPU8pKFtPSF0pT1tQQF0oPU8pKFtPSF0pT1tQQEBdKD1PKShbT0hdKU9bQ0gyXVtDQEhdMU9bQ0BIXShbQ0gyXVtDSDJdMSluKFtjSF1uMiljKGMyMylbbkhdYyg9TlxbSF0pXFtuSF1jMz1P

> <s_epik_cmdline>
J2VwaWtfYXBwJywgJy1pbWFlJywgJ2xpZ2FuZF9wcm8ubWFlJywgJy1vbWFlJywgJ2xpZ2FuZF9wcmVwLm1hZScsICctbXMnLCAnMScsICctcGgnLCAnNycsICctcGh0JywgJzAuNScsICctbnQn

> <r_epik_Ionization_Penalty>
  3.6140

> <r_epik_Ionization_Penalty_Charging>
  2.3890

> <r_epik_Ionization_Penalty_Neutral>
  1.2250

> <r_epik_State_Penalty>
  0.0091

> <r_epik_Charging_Adjusted_Penalty>
2.39804693315748

> <i_epik_Tot_Q>
-2

> <i_epik_Tot_abs_Q>
4

> <s_epik_Chemistry_Notes>
This compound has an imine and may undergo hydrolysis. This compound contains an acetal/aminal-like group ( X-CH(R)-Y where X, Y are N, S, or O) that may be acid/base labile, releasing an aldehyde.

$$$$
