3av9_ligand
                    3D
 Schrodinger Suite 2020-3.
119119  0  0  1  0            999 V2000
    9.5650  -53.7090    3.0710 N   0  0  0  0  0  0
    9.7930  -53.7090    4.5530 C   0  0  2  0  0  0
    9.1220  -52.6000    5.4090 C   0  0  0  0  0  0
    9.6690  -52.1650    6.4650 O   0  0  0  0  0  0
   11.2790  -53.9650    4.9430 C   0  0  0  0  0  0
   12.1740  -52.9910    4.4130 O   0  0  0  0  0  0
    7.9370  -52.1670    4.9460 N   0  0  0  0  0  0
    7.1150  -51.0870    5.5520 C   0  0  2  0  0  0
    7.8490  -49.7430    5.6490 C   0  0  0  0  0  0
    7.6850  -48.9760    6.6470 O   0  0  0  0  0  0
    6.4830  -51.5030    6.9380 C   0  0  0  0  0  0
    8.6220  -49.4270    4.6040 N   0  0  0  0  0  0
    9.2720  -48.0980    4.5310 C   0  0  2  0  0  0
    8.8130  -47.4580    3.2600 C   0  0  0  0  0  0
    8.4840  -48.1760    2.2960 O   0  0  0  0  0  0
   10.7870  -48.2360    4.4620 C   0  0  0  0  0  0
   11.4790  -49.0650    5.5290 C   0  0  0  0  0  0
   11.2790  -48.4400    6.8900 C   0  0  0  0  0  0
   12.2190  -49.0970    7.8860 C   0  0  0  0  0  0
   11.7180  -48.9480    9.2770 N   0  3  0  0  0  0
    8.7570  -46.1240    3.2320 N   0  0  0  0  0  0
    8.2780  -45.3960    2.0360 C   0  0  2  0  0  0
    9.1150  -45.8370    0.8280 C   0  0  0  0  0  0
    8.5960  -46.0030   -0.3250 O   0  0  0  0  0  0
    8.3250  -43.8380    2.2780 C   0  0  2  0  0  0
    7.1290  -43.1200    1.6260 C   0  0  0  0  0  0
    9.6260  -43.2270    1.7990 C   0  0  0  0  0  0
    5.8420  -43.1600    2.4960 C   0  0  0  0  0  0
   10.4230  -46.0170    1.0880 N   0  0  0  0  0  0
   11.3840  -46.2120    0.0180 C   0  0  2  0  0  0
   11.5950  -47.6740   -0.2550 C   0  0  0  0  0  0
   12.3860  -48.0040   -1.1290 O   0  0  0  0  0  0
   12.7890  -45.5260    0.2110 C   0  0  0  0  0  0
   13.4150  -45.7830    1.5680 C   0  0  0  0  0  0
   14.6020  -45.3440    1.8140 O   0  5  0  0  0  0
   12.7370  -46.4010    2.4300 O   0  0  0  0  0  0
   10.9280  -48.5210    0.5360 N   0  0  0  0  0  0
   11.0150  -49.9690    0.4070 C   0  0  2  0  0  0
    9.7030  -50.5160    1.0100 C   0  0  0  0  0  0
    9.5910  -50.9060    2.2310 O   0  0  0  0  0  0
   12.2540  -50.4970    1.0990 C   0  0  0  0  0  0
   12.4750  -51.9950    0.8350 C   0  0  0  0  0  0
   11.9230  -52.5590   -0.1190 O   0  0  0  0  0  0
   13.2870  -52.6430    1.6950 N   0  0  0  0  0  0
    8.6730  -50.4650    0.1770 N   0  0  0  0  0  0
    7.3290  -50.7980    0.6800 C   0  0  2  0  0  0
    7.3190  -52.2630    1.1810 C   0  0  0  0  0  0
    6.6630  -52.5840    2.1910 O   0  0  0  0  0  0
    6.2540  -50.4910   -0.3830 C   0  0  0  0  0  0
    5.8690  -49.0000   -0.5000 C   0  0  0  0  0  0
    4.8070  -48.9910   -1.5480 C   0  0  0  0  0  0
    5.3020  -48.3420    0.8130 C   0  0  0  0  0  0
    8.1370  -53.0980    0.5350 N   0  0  0  0  0  0
    8.4100  -54.4860    0.9940 C   0  0  2  0  0  0
    8.7930  -54.6530    2.4900 C   0  0  0  0  0  0
    8.3570  -55.6460    3.1200 O   0  0  0  0  0  0
    9.4380  -55.1690    0.0700 C   0  0  0  0  0  0
    8.7820  -55.8650   -1.1550 C   0  0  0  0  0  0
    7.5220  -55.9190   -1.2470 O   0  5  0  0  0  0
    9.5500  -56.3530   -2.0270 O   0  0  0  0  0  0
   10.0288  -52.9340    2.4432 H   0  0  0  0  0  0
    9.1850  -54.5925    4.7974 H   0  0  0  0  0  0
   11.3789  -53.9470    6.0383 H   0  0  0  0  0  0
   11.5940  -54.9478    4.5622 H   0  0  0  0  0  0
   13.2519  -53.0643    4.6197 H   0  0  0  0  0  0
    7.5852  -52.6839    4.0410 H   0  0  0  0  0  0
    6.3228  -50.9567    4.8001 H   0  0  0  0  0  0
    5.9666  -52.4683    6.8305 H   0  0  0  0  0  0
    5.7628  -50.7355    7.2577 H   0  0  0  0  0  0
    7.2794  -51.5950    7.6912 H   0  0  0  0  0  0
    8.7741  -50.1587    3.7969 H   0  0  0  0  0  0
    8.9869  -47.5173    5.4207 H   0  0  0  0  0  0
   11.0693  -48.7063    3.5085 H   0  0  0  0  0  0
   11.2494  -47.2403    4.5307 H   0  0  0  0  0  0
   11.0573  -50.0809    5.5348 H   0  0  0  0  0  0
   12.5562  -49.1164    5.3122 H   0  0  0  0  0  0
   11.4953  -47.3629    6.8342 H   0  0  0  0  0  0
   10.2379  -48.5887    7.2124 H   0  0  0  0  0  0
   12.3045  -50.1695    7.6570 H   0  0  0  0  0  0
   13.2114  -48.6274    7.8184 H   0  0  0  0  0  0
   12.4185  -49.4328    9.9729 H   0  0  0  0  0  0
   10.7289  -49.4216    9.3632 H   0  0  0  0  0  0
   11.6357  -47.8794    9.5246 H   0  0  0  0  0  0
    9.0769  -45.5658    4.1242 H   0  0  0  0  0  0
    7.2339  -45.6940    1.8598 H   0  0  0  0  0  0
    8.2792  -43.6572    3.3621 H   0  0  0  0  0  0
    7.3832  -42.0631    1.4576 H   0  0  0  0  0  0
    6.8943  -43.5984    0.6637 H   0  0  0  0  0  0
   10.4717  -43.7481    2.2715 H   0  0  0  0  0  0
    9.6531  -42.1617    2.0718 H   0  0  0  0  0  0
    9.6978  -43.3276    0.7060 H   0  0  0  0  0  0
    5.0303  -42.6318    1.9744 H   0  0  0  0  0  0
    6.0369  -42.6706    3.4617 H   0  0  0  0  0  0
    5.5479  -44.2060    2.6678 H   0  0  0  0  0  0
   10.7591  -46.0145    2.1354 H   0  0  0  0  0  0
   10.8388  -45.7284   -0.8060 H   0  0  0  0  0  0
   13.4892  -45.9045   -0.5482 H   0  0  0  0  0  0
   12.6833  -44.4366    0.1016 H   0  0  0  0  0  0
   10.2900  -48.0754    1.3134 H   0  0  0  0  0  0
   11.1339  -50.2461   -0.6509 H   0  0  0  0  0  0
   13.1376  -49.9526    0.7345 H   0  0  0  0  0  0
   12.1569  -50.3530    2.1852 H   0  0  0  0  0  0
   13.7543  -52.0970    2.5278 H   0  0  0  0  0  0
   13.4820  -53.7176    1.5637 H   0  0  0  0  0  0
    8.8109  -50.1791   -0.8762 H   0  0  0  0  0  0
    7.1213  -50.1365    1.5340 H   0  0  0  0  0  0
    6.6174  -50.8040   -1.3729 H   0  0  0  0  0  0
    5.3317  -51.0393   -0.1408 H   0  0  0  0  0  0
    6.7574  -48.4115   -0.7728 H   0  0  0  0  0  0
    5.1966  -49.4496   -2.4688 H   0  0  0  0  0  0
    4.5045  -47.9538   -1.7546 H   0  0  0  0  0  0
    3.9369  -49.5630   -1.1932 H   0  0  0  0  0  0
    6.0803  -48.3453    1.5904 H   0  0  0  0  0  0
    4.4310  -48.9151    1.1637 H   0  0  0  0  0  0
    4.9986  -47.3059    0.6023 H   0  0  0  0  0  0
    8.6187  -52.7155   -0.3770 H   0  0  0  0  0  0
    7.4195  -54.9543    0.8956 H   0  0  0  0  0  0
   10.1450  -54.4173   -0.3108 H   0  0  0  0  0  0
    9.9875  -55.9355    0.6361 H   0  0  0  0  0  0
  1  2  1  0  0  0
  1 55  1  0  0  0
  1 61  1  0  0  0
  2  3  1  0  0  0
  2  5  1  0  0  0
  2 62  1  0  0  0
  3  4  2  0  0  0
  3  7  1  0  0  0
  5  6  1  0  0  0
  5 63  1  0  0  0
  5 64  1  0  0  0
  6 65  1  0  0  0
  7  8  1  0  0  0
  7 66  1  0  0  0
  8  9  1  0  0  0
  8 11  1  0  0  0
  8 67  1  0  0  0
  9 10  2  0  0  0
  9 12  1  0  0  0
 11 68  1  0  0  0
 11 69  1  0  0  0
 11 70  1  0  0  0
 12 13  1  0  0  0
 12 71  1  0  0  0
 13 14  1  0  0  0
 13 16  1  0  0  0
 13 72  1  0  0  0
 14 15  2  0  0  0
 14 21  1  0  0  0
 16 17  1  0  0  0
 16 73  1  0  0  0
 16 74  1  0  0  0
 17 18  1  0  0  0
 17 75  1  0  0  0
 17 76  1  0  0  0
 18 19  1  0  0  0
 18 77  1  0  0  0
 18 78  1  0  0  0
 19 20  1  0  0  0
 19 79  1  0  0  0
 19 80  1  0  0  0
 20 81  1  0  0  0
 20 82  1  0  0  0
 20 83  1  0  0  0
 21 22  1  0  0  0
 21 84  1  0  0  0
 22 23  1  0  0  0
 22 25  1  0  0  0
 22 85  1  0  0  0
 23 24  2  0  0  0
 23 29  1  0  0  0
 25 26  1  0  0  0
 25 27  1  0  0  0
 25 86  1  0  0  0
 26 28  1  0  0  0
 26 87  1  0  0  0
 26 88  1  0  0  0
 27 89  1  0  0  0
 27 90  1  0  0  0
 27 91  1  0  0  0
 28 92  1  0  0  0
 28 93  1  0  0  0
 28 94  1  0  0  0
 29 30  1  0  0  0
 29 95  1  0  0  0
 30 31  1  0  0  0
 30 33  1  0  0  0
 30 96  1  0  0  0
 31 32  2  0  0  0
 31 37  1  0  0  0
 33 34  1  0  0  0
 33 97  1  0  0  0
 33 98  1  0  0  0
 34 35  1  0  0  0
 34 36  2  0  0  0
 37 38  1  0  0  0
 37 99  1  0  0  0
 38 39  1  0  0  0
 38 41  1  0  0  0
 38100  1  0  0  0
 39 40  2  0  0  0
 39 45  1  0  0  0
 41 42  1  0  0  0
 41101  1  0  0  0
 41102  1  0  0  0
 42 43  2  0  0  0
 42 44  1  0  0  0
 44103  1  0  0  0
 44104  1  0  0  0
 45 46  1  0  0  0
 45105  1  0  0  0
 46 47  1  0  0  0
 46 49  1  0  0  0
 46106  1  0  0  0
 47 48  2  0  0  0
 47 53  1  0  0  0
 49 50  1  0  0  0
 49107  1  0  0  0
 49108  1  0  0  0
 50 51  1  0  0  0
 50 52  1  0  0  0
 50109  1  0  0  0
 51110  1  0  0  0
 51111  1  0  0  0
 51112  1  0  0  0
 52113  1  0  0  0
 52114  1  0  0  0
 52115  1  0  0  0
 53 54  1  0  0  0
 53116  1  0  0  0
 54 55  1  0  0  0
 54 57  1  0  0  0
 54117  1  0  0  0
 55 56  2  0  0  0
 57 58  1  0  0  0
 57118  1  0  0  0
 57119  1  0  0  0
 58 59  1  0  0  0
 58 60  2  0  0  0
M  CHG  3  20   1  35  -1  59  -1
M  END
> <s_m_source_file>
../3av9_ligand.sdf

> <i_m_source_file_index>
1

> <s_epik_input>
W09IXVtDSDJdW0NAQEhdMVtOSF1DKD1PKVtDQEhdKFtDSDJdQyg9TylbT0hdKVtOSF1DKD1PKVtDQEhdKFtDSDJdW0NIXShbQ0gzXSlbQ0gzXSlbTkhdQyg9TylbQ0BIXShbQ0gyXUMoPU8pW05IMl0pW05IXUMoPU8pW0NASF0oW0NIMl1DKD1PKVtPSF0pW05IXUMoPU8pW0NASF0oW0NAQEhdKFtDSDNdKVtDSDJdW0NIM10pW05IXUMoPU8pW0NAQEhdKFtOSF1DKD1PKVtDQEhdKFtDSDNdKVtOSF1DMT1PKVtDSDJdW0NIMl1bQ0gyXVtDSDJdW05IMytd

> <s_epik_cmdline>
J2VwaWtfYXBwJywgJy1pbWFlJywgJ2xpZ2FuZF9wcm8ubWFlJywgJy1vbWFlJywgJ2xpZ2FuZF9wcmVwLm1hZScsICctbXMnLCAnMScsICctcGgnLCAnNycsICctcGh0JywgJzAuNScsICctbnQn

> <r_lp_tautomer_probability>
1

> <r_epik_Ionization_Penalty>
  0.0028

> <r_epik_Ionization_Penalty_Charging>
  0.0028

> <r_epik_Ionization_Penalty_Neutral>
  0.0000

> <r_epik_State_Penalty>
 -0.0000

> <r_epik_Charging_Adjusted_Penalty>
0.00281819407029797

> <i_epik_Tot_Q>
-1

> <i_epik_Tot_abs_Q>
3

$$$$
