3ava_ligand
                    3D
 Schrodinger Suite 2020-3.
127127  0  0  1  0            999 V2000
    9.6400  -53.6340    2.7670 N   0  0  0  0  0  0
   10.2220  -53.5040    4.1330 C   0  0  2  0  0  0
    9.4350  -52.5860    5.0890 C   0  0  0  0  0  0
    9.9440  -52.2270    6.1960 O   0  0  0  0  0  0
   11.7280  -53.0080    4.0220 C   0  0  0  0  0  0
    8.2180  -52.1740    4.7030 N   0  0  0  0  0  0
    7.3460  -51.2230    5.4740 C   0  0  2  0  0  0
    7.8320  -49.7810    5.5090 C   0  0  0  0  0  0
    7.4720  -48.9980    6.4080 O   0  0  0  0  0  0
    7.0940  -51.6830    6.9180 C   0  0  0  0  0  0
    6.0550  -50.8760    7.7160 C   0  0  0  0  0  0
    4.7540  -50.7410    6.9700 C   0  0  0  0  0  0
    5.8030  -51.4980    9.1370 C   0  0  0  0  0  0
    8.6540  -49.4250    4.5310 N   0  0  0  0  0  0
    9.3040  -48.0880    4.5140 C   0  0  2  0  0  0
    8.8270  -47.4320    3.2620 C   0  0  0  0  0  0
    8.4850  -48.1330    2.3120 O   0  0  0  0  0  0
   10.8300  -48.2270    4.3960 C   0  0  0  0  0  0
   11.5310  -49.0620    5.4590 C   0  0  0  0  0  0
   11.3790  -48.4090    6.8460 C   0  0  0  0  0  0
   11.8160  -49.4050    7.9180 C   0  0  0  0  0  0
   11.9650  -48.8090    9.2680 N   0  3  0  0  0  0
    8.8270  -46.0990    3.2280 N   0  0  0  0  0  0
    8.2780  -45.3530    2.0760 C   0  0  2  0  0  0
    9.1110  -45.6920    0.8390 C   0  0  0  0  0  0
    8.5770  -45.7810   -0.3200 O   0  0  0  0  0  0
    8.2320  -43.8180    2.3950 C   0  0  2  0  0  0
    7.1210  -43.1130    1.6050 C   0  0  0  0  0  0
    9.5730  -43.1870    2.2090 C   0  0  0  0  0  0
    5.8060  -43.2300    2.3530 C   0  0  0  0  0  0
   10.4240  -45.9070    1.0690 N   0  0  0  0  0  0
   11.3560  -46.1250   -0.0460 C   0  0  2  0  0  0
   11.5540  -47.5780   -0.3080 C   0  0  0  0  0  0
   12.3880  -47.9190   -1.1780 O   0  0  0  0  0  0
   12.7640  -45.4800    0.0970 C   0  0  0  0  0  0
   13.4180  -45.7330    1.4820 C   0  0  0  0  0  0
   14.5830  -45.2660    1.7550 O   0  5  0  0  0  0
   12.7700  -46.3710    2.3230 O   0  0  0  0  0  0
   10.8870  -48.4210    0.4800 N   0  0  0  0  0  0
   10.9580  -49.8700    0.2630 C   0  0  2  0  0  0
    9.7160  -50.4560    0.9060 C   0  0  0  0  0  0
    9.6660  -50.8190    2.1070 O   0  0  0  0  0  0
   12.2560  -50.4640    0.8160 C   0  0  0  0  0  0
   12.4120  -51.9490    0.4570 C   0  0  0  0  0  0
   11.4440  -52.6150    0.1260 O   0  0  0  0  0  0
   13.6340  -52.4530    0.5310 N   0  0  0  0  0  0
    8.6650  -50.4600    0.1070 N   0  0  0  0  0  0
    7.3270  -50.7760    0.6540 C   0  0  2  0  0  0
    7.3160  -52.2320    1.1650 C   0  0  0  0  0  0
    6.7140  -52.5290    2.2050 O   0  0  0  0  0  0
    6.2400  -50.5300   -0.4150 C   0  0  0  0  0  0
    5.8430  -49.0330   -0.5850 C   0  0  0  0  0  0
    4.7500  -48.9370   -1.6650 C   0  0  0  0  0  0
    5.3460  -48.3060    0.6880 C   0  0  0  0  0  0
    8.0580  -53.0900    0.4820 N   0  0  0  0  0  0
    8.2410  -54.4940    0.9500 C   0  0  2  0  0  0
    8.7560  -54.5760    2.3980 C   0  0  0  0  0  0
    8.3530  -55.4930    3.1560 O   0  0  0  0  0  0
    9.1600  -55.2620   -0.0080 C   0  0  0  0  0  0
    8.4270  -55.7640   -1.2600 C   0  0  0  0  0  0
    7.1700  -55.7550   -1.2600 O   0  0  0  0  0  0
    9.1220  -56.1510   -2.2490 O   0  5  0  0  0  0
    9.9301  -52.9268    1.9760 H   0  0  0  0  0  0
   10.1138  -54.5183    4.5446 H   0  0  0  0  0  0
   12.2820  -53.6681    3.3384 H   0  0  0  0  0  0
   12.1968  -53.0337    5.0168 H   0  0  0  0  0  0
   11.7474  -51.9789    3.6340 H   0  0  0  0  0  0
    7.8690  -52.5864    3.7448 H   0  0  0  0  0  0
    6.4198  -51.2490    4.8811 H   0  0  0  0  0  0
    6.7334  -52.7222    6.9141 H   0  0  0  0  0  0
    8.0310  -51.6221    7.4910 H   0  0  0  0  0  0
    6.4595  -49.8577    7.8128 H   0  0  0  0  0  0
    4.9437  -50.3050    5.9781 H   0  0  0  0  0  0
    4.0739  -50.0861    7.5345 H   0  0  0  0  0  0
    4.2941  -51.7333    6.8525 H   0  0  0  0  0  0
    6.7600  -51.5913    9.6713 H   0  0  0  0  0  0
    5.3464  -52.4926    9.0261 H   0  0  0  0  0  0
    5.1263  -50.8454    9.7081 H   0  0  0  0  0  0
    8.8511  -50.1427    3.7210 H   0  0  0  0  0  0
    9.0350  -47.5352    5.4262 H   0  0  0  0  0  0
   11.0819  -48.6990    3.4349 H   0  0  0  0  0  0
   11.2940  -47.2310    4.4481 H   0  0  0  0  0  0
   11.0865  -50.0678    5.4872 H   0  0  0  0  0  0
   12.6011  -49.1407    5.2167 H   0  0  0  0  0  0
   12.0090  -47.5088    6.8985 H   0  0  0  0  0  0
   10.3271  -48.1302    7.0068 H   0  0  0  0  0  0
   11.0693  -50.2088    7.9979 H   0  0  0  0  0  0
   12.7902  -49.8356    7.6432 H   0  0  0  0  0  0
   12.2803  -49.5866    9.9793 H   0  0  0  0  0  0
   11.0022  -48.3858    9.5903 H   0  0  0  0  0  0
   12.7231  -48.0126    9.2356 H   0  0  0  0  0  0
    9.2492  -45.5542    4.0853 H   0  0  0  0  0  0
    7.2496  -45.6994    1.8959 H   0  0  0  0  0  0
    8.0053  -43.6545    3.4589 H   0  0  0  0  0  0
    7.3765  -42.0502    1.4819 H   0  0  0  0  0  0
    7.0200  -43.5828    0.6155 H   0  0  0  0  0  0
   10.3217  -43.7364    2.7985 H   0  0  0  0  0  0
    9.5360  -42.1408    2.5469 H   0  0  0  0  0  0
    9.8488  -43.2191    1.1446 H   0  0  0  0  0  0
    5.0135  -42.7233    1.7828 H   0  0  0  0  0  0
    5.9039  -42.7594    3.3424 H   0  0  0  0  0  0
    5.5474  -44.2921    2.4760 H   0  0  0  0  0  0
   10.7937  -45.9179    2.1050 H   0  0  0  0  0  0
   10.8025  -45.6405   -0.8639 H   0  0  0  0  0  0
   13.4369  -45.8953   -0.6677 H   0  0  0  0  0  0
   12.6839  -44.3912   -0.0374 H   0  0  0  0  0  0
   10.2774  -48.0172    1.3018 H   0  0  0  0  0  0
   10.9695  -50.0757   -0.8175 H   0  0  0  0  0  0
   13.1156  -49.9190    0.3987 H   0  0  0  0  0  0
   12.2623  -50.3746    1.9123 H   0  0  0  0  0  0
   14.4755  -51.8129    0.8344 H   0  0  0  0  0  0
   13.8078  -53.5119    0.2891 H   0  0  0  0  0  0
    8.7816  -50.2294   -0.9622 H   0  0  0  0  0  0
    7.1439  -50.0938    1.4972 H   0  0  0  0  0  0
    6.6007  -50.8824   -1.3926 H   0  0  0  0  0  0
    5.3264  -51.0784   -0.1419 H   0  0  0  0  0  0
    6.7688  -48.5100   -0.8667 H   0  0  0  0  0  0
    5.0895  -49.4500   -2.5769 H   0  0  0  0  0  0
    4.5507  -47.8793   -1.8919 H   0  0  0  0  0  0
    3.8289  -49.4131   -1.2978 H   0  0  0  0  0  0
    6.1177  -48.3664    1.4696 H   0  0  0  0  0  0
    4.4227  -48.7844    1.0466 H   0  0  0  0  0  0
    5.1445  -47.2506    0.4524 H   0  0  0  0  0  0
    8.5435  -52.7516   -0.4452 H   0  0  0  0  0  0
    7.2353  -54.9394    0.9323 H   0  0  0  0  0  0
    9.9775  -54.6042   -0.3381 H   0  0  0  0  0  0
    9.5799  -56.1372    0.5094 H   0  0  0  0  0  0
  1  2  1  0  0  0
  1 57  1  0  0  0
  1 63  1  0  0  0
  2  3  1  0  0  0
  2  5  1  0  0  0
  2 64  1  0  0  0
  3  4  2  0  0  0
  3  6  1  0  0  0
  5 65  1  0  0  0
  5 66  1  0  0  0
  5 67  1  0  0  0
  6  7  1  0  0  0
  6 68  1  0  0  0
  7  8  1  0  0  0
  7 10  1  0  0  0
  7 69  1  0  0  0
  8  9  2  0  0  0
  8 14  1  0  0  0
 10 11  1  0  0  0
 10 70  1  0  0  0
 10 71  1  0  0  0
 11 12  1  0  0  0
 11 13  1  0  0  0
 11 72  1  0  0  0
 12 73  1  0  0  0
 12 74  1  0  0  0
 12 75  1  0  0  0
 13 76  1  0  0  0
 13 77  1  0  0  0
 13 78  1  0  0  0
 14 15  1  0  0  0
 14 79  1  0  0  0
 15 16  1  0  0  0
 15 18  1  0  0  0
 15 80  1  0  0  0
 16 17  2  0  0  0
 16 23  1  0  0  0
 18 19  1  0  0  0
 18 81  1  0  0  0
 18 82  1  0  0  0
 19 20  1  0  0  0
 19 83  1  0  0  0
 19 84  1  0  0  0
 20 21  1  0  0  0
 20 85  1  0  0  0
 20 86  1  0  0  0
 21 22  1  0  0  0
 21 87  1  0  0  0
 21 88  1  0  0  0
 22 89  1  0  0  0
 22 90  1  0  0  0
 22 91  1  0  0  0
 23 24  1  0  0  0
 23 92  1  0  0  0
 24 25  1  0  0  0
 24 27  1  0  0  0
 24 93  1  0  0  0
 25 26  2  0  0  0
 25 31  1  0  0  0
 27 28  1  0  0  0
 27 29  1  0  0  0
 27 94  1  0  0  0
 28 30  1  0  0  0
 28 95  1  0  0  0
 28 96  1  0  0  0
 29 97  1  0  0  0
 29 98  1  0  0  0
 29 99  1  0  0  0
 30100  1  0  0  0
 30101  1  0  0  0
 30102  1  0  0  0
 31 32  1  0  0  0
 31103  1  0  0  0
 32 33  1  0  0  0
 32 35  1  0  0  0
 32104  1  0  0  0
 33 34  2  0  0  0
 33 39  1  0  0  0
 35 36  1  0  0  0
 35105  1  0  0  0
 35106  1  0  0  0
 36 37  1  0  0  0
 36 38  2  0  0  0
 39 40  1  0  0  0
 39107  1  0  0  0
 40 41  1  0  0  0
 40 43  1  0  0  0
 40108  1  0  0  0
 41 42  2  0  0  0
 41 47  1  0  0  0
 43 44  1  0  0  0
 43109  1  0  0  0
 43110  1  0  0  0
 44 45  2  0  0  0
 44 46  1  0  0  0
 46111  1  0  0  0
 46112  1  0  0  0
 47 48  1  0  0  0
 47113  1  0  0  0
 48 49  1  0  0  0
 48 51  1  0  0  0
 48114  1  0  0  0
 49 50  2  0  0  0
 49 55  1  0  0  0
 51 52  1  0  0  0
 51115  1  0  0  0
 51116  1  0  0  0
 52 53  1  0  0  0
 52 54  1  0  0  0
 52117  1  0  0  0
 53118  1  0  0  0
 53119  1  0  0  0
 53120  1  0  0  0
 54121  1  0  0  0
 54122  1  0  0  0
 54123  1  0  0  0
 55 56  1  0  0  0
 55124  1  0  0  0
 56 57  1  0  0  0
 56 59  1  0  0  0
 56125  1  0  0  0
 57 58  2  0  0  0
 59 60  1  0  0  0
 59126  1  0  0  0
 59127  1  0  0  0
 60 61  2  0  0  0
 60 62  1  0  0  0
M  CHG  3  22   1  37  -1  62  -1
M  END
> <s_m_source_file>
../3ava_ligand.sdf

> <i_m_source_file_index>
1

> <s_epik_input>
W0NIM11bQ0BASF0xW05IXUMoPU8pW0NASF0oW0NIMl1DKD1PKVtPSF0pW05IXUMoPU8pW0NASF0oW0NIMl1bQ0hdKFtDSDNdKVtDSDNdKVtOSF1DKD1PKVtDQEhdKFtDSDJdQyg9TylbTkgyXSlbTkhdQyg9TylbQ0BIXShbQ0gyXUMoPU8pW09IXSlbTkhdQyg9TylbQ0BIXShbQ0BASF0oW0NIM10pW0NIMl1bQ0gzXSlbTkhdQyg9TylbQ0BIXShbQ0gyXVtDSDJdW0NIMl1bQ0gyXVtOSDMrXSlbTkhdQyg9TylbQ0BASF0oW05IXUMxPU8pW0NIMl1bQ0hdKFtDSDNdKVtDSDNd

> <s_epik_cmdline>
J2VwaWtfYXBwJywgJy1pbWFlJywgJ2xpZ2FuZF9wcm8ubWFlJywgJy1vbWFlJywgJ2xpZ2FuZF9wcmVwLm1hZScsICctbXMnLCAnMScsICctcGgnLCAnNycsICctcGh0JywgJzAuNScsICctbnQn

> <r_lp_tautomer_probability>
1

> <r_epik_Ionization_Penalty>
  0.0029

> <r_epik_Ionization_Penalty_Charging>
  0.0029

> <r_epik_Ionization_Penalty_Neutral>
  0.0000

> <r_epik_State_Penalty>
 -0.0000

> <r_epik_Charging_Adjusted_Penalty>
0.00285288814422227

> <i_epik_Tot_Q>
-1

> <i_epik_Tot_abs_Q>
3

$$$$
