3avb_ligand
                    3D
 Schrodinger Suite 2020-3.
128128  0  0  1  0            999 V2000
    9.6790  -53.6360    2.8620 N   0  0  0  0  0  0
   10.0630  -53.5160    4.3180 C   0  0  2  0  0  0
    9.2710  -52.5360    5.2000 C   0  0  0  0  0  0
    9.7490  -52.1450    6.2990 O   0  0  0  0  0  0
   11.5690  -53.2200    4.4970 C   0  0  0  0  0  0
   12.3550  -54.2960    4.0140 O   0  0  0  0  0  0
    8.0850  -52.1350    4.7200 N   0  0  0  0  0  0
    7.1500  -51.1880    5.3840 C   0  0  2  0  0  0
    7.5010  -49.6940    5.2090 C   0  0  0  0  0  0
    6.7080  -48.8190    5.5900 O   0  0  0  0  0  0
    6.9190  -51.5490    6.8750 C   0  0  0  0  0  0
    5.6080  -51.1710    7.5960 C   0  0  0  0  0  0
    4.3770  -51.4660    6.7660 C   0  0  0  0  0  0
    5.5090  -51.8930    8.9780 C   0  0  0  0  0  0
    8.6610  -49.4240    4.6020 N   0  0  0  0  0  0
    9.2710  -48.0730    4.5440 C   0  0  2  0  0  0
    8.8030  -47.4040    3.2600 C   0  0  0  0  0  0
    8.5340  -48.1120    2.2780 O   0  0  0  0  0  0
   10.7850  -48.1940    4.4380 C   0  0  0  0  0  0
   11.4940  -49.0320    5.4860 C   0  0  0  0  0  0
   11.2630  -48.4720    6.8450 C   0  0  0  0  0  0
   12.0380  -49.3310    7.8620 C   0  0  0  0  0  0
   11.7300  -48.8830    9.2100 N   0  3  0  0  0  0
    8.7950  -46.0620    3.2350 N   0  0  0  0  0  0
    8.3070  -45.2590    2.0760 C   0  0  2  0  0  0
    9.1140  -45.5940    0.8370 C   0  0  0  0  0  0
    8.5820  -45.5970   -0.3230 O   0  0  0  0  0  0
    8.4120  -43.7280    2.4460 C   0  0  2  0  0  0
    7.2510  -43.3540    3.3470 C   0  0  0  0  0  0
    8.3920  -42.7720    1.2360 C   0  0  0  0  0  0
    5.9440  -43.0490    2.5110 C   0  0  0  0  0  0
   10.4140  -45.8830    1.0810 N   0  0  0  0  0  0
   11.3520  -46.1210   -0.0140 C   0  0  2  0  0  0
   11.5630  -47.5940   -0.2780 C   0  0  0  0  0  0
   12.3440  -47.9220   -1.1630 O   0  0  0  0  0  0
   12.7420  -45.4600    0.1580 C   0  0  0  0  0  0
   13.3920  -45.7300    1.5040 C   0  0  0  0  0  0
   14.5620  -45.2560    1.6660 O   0  5  0  0  0  0
   12.7730  -46.3870    2.3990 O   0  0  0  0  0  0
   10.8910  -48.4490    0.4890 N   0  0  0  0  0  0
   10.9820  -49.9060    0.2700 C   0  0  2  0  0  0
    9.7050  -50.4970    0.8400 C   0  0  0  0  0  0
    9.6370  -50.8800    2.0330 O   0  0  0  0  0  0
   12.2690  -50.4820    0.8950 C   0  0  0  0  0  0
   12.5070  -51.9870    0.5410 C   0  0  0  0  0  0
   11.7860  -52.5830   -0.2490 O   0  0  0  0  0  0
   13.5440  -52.5720    1.1260 N   0  0  0  0  0  0
    8.6510  -50.4710    0.0240 N   0  0  0  0  0  0
    7.3200  -50.8130    0.5620 C   0  0  2  0  0  0
    7.3260  -52.2580    1.1210 C   0  0  0  0  0  0
    6.7200  -52.5450    2.1790 O   0  0  0  0  0  0
    6.2130  -50.5710   -0.4810 C   0  0  0  0  0  0
    5.8260  -49.0680   -0.5900 C   0  0  0  0  0  0
    4.7450  -48.9510   -1.6110 C   0  0  0  0  0  0
    5.3360  -48.4070    0.7250 C   0  0  0  0  0  0
    8.0830  -53.1160    0.4440 N   0  0  0  0  0  0
    8.3790  -54.4910    0.9240 C   0  0  2  0  0  0
    8.7940  -54.5510    2.4170 C   0  0  0  0  0  0
    8.3160  -55.4390    3.1470 O   0  0  0  0  0  0
    9.4680  -55.1230    0.0450 C   0  0  0  0  0  0
    8.8910  -55.8940   -1.1440 C   0  0  0  0  0  0
    7.6560  -56.0300   -1.2230 O   0  0  0  0  0  0
    9.6900  -56.3500   -1.9970 O   0  5  0  0  0  0
   10.1264  -52.9608    2.1177 H   0  0  0  0  0  0
    9.7761  -54.5209    4.6614 H   0  0  0  0  0  0
   11.8327  -52.3099    3.9383 H   0  0  0  0  0  0
   11.7892  -53.0716    5.5645 H   0  0  0  0  0  0
   13.4524  -54.2432    4.0681 H   0  0  0  0  0  0
    7.8241  -52.5728    3.7452 H   0  0  0  0  0  0
    6.2246  -51.3511    4.8121 H   0  0  0  0  0  0
    6.9713  -52.6406    7.0003 H   0  0  0  0  0  0
    7.6943  -51.0715    7.4923 H   0  0  0  0  0  0
    5.6229  -50.0791    7.7283 H   0  0  0  0  0  0
    4.4572  -50.9532    5.7961 H   0  0  0  0  0  0
    3.4825  -51.1084    7.2970 H   0  0  0  0  0  0
    4.2968  -52.5507    6.6018 H   0  0  0  0  0  0
    6.4078  -51.6720    9.5724 H   0  0  0  0  0  0
    5.4319  -52.9788    8.8197 H   0  0  0  0  0  0
    4.6176  -51.5365    9.5149 H   0  0  0  0  0  0
    9.1677  -50.2771    4.1271 H   0  0  0  0  0  0
    8.9741  -47.5262    5.4511 H   0  0  0  0  0  0
   11.0497  -48.6496    3.4724 H   0  0  0  0  0  0
   11.2386  -47.1943    4.5083 H   0  0  0  0  0  0
   11.1090  -50.0619    5.4539 H   0  0  0  0  0  0
   12.5747  -49.0380    5.2811 H   0  0  0  0  0  0
   11.6216  -47.4327    6.8791 H   0  0  0  0  0  0
   10.1873  -48.4964    7.0737 H   0  0  0  0  0  0
   11.7448  -50.3853    7.7503 H   0  0  0  0  0  0
   13.1181  -49.2296    7.6800 H   0  0  0  0  0  0
   12.2837  -49.4967    9.9358 H   0  0  0  0  0  0
   10.6500  -48.9845    9.3923 H   0  0  0  0  0  0
   12.0233  -47.8287    9.3220 H   0  0  0  0  0  0
    9.1757  -45.5551    4.1340 H   0  0  0  0  0  0
    7.2684  -45.5506    1.8609 H   0  0  0  0  0  0
    9.3756  -43.5774    2.9548 H   0  0  0  0  0  0
    7.0382  -44.1855    4.0350 H   0  0  0  0  0  0
    7.5111  -42.4560    3.9266 H   0  0  0  0  0  0
    9.2248  -43.0178    0.5607 H   0  0  0  0  0  0
    8.4980  -41.7347    1.5865 H   0  0  0  0  0  0
    7.4389  -42.8816    0.6978 H   0  0  0  0  0  0
    5.1251  -42.7821    3.1952 H   0  0  0  0  0  0
    5.6624  -43.9411    1.9323 H   0  0  0  0  0  0
    6.1354  -42.2116    1.8239 H   0  0  0  0  0  0
   10.7605  -45.9374    2.1236 H   0  0  0  0  0  0
   10.8046  -45.6471   -0.8421 H   0  0  0  0  0  0
   13.4265  -45.8393   -0.6150 H   0  0  0  0  0  0
   12.6441  -44.3690    0.0578 H   0  0  0  0  0  0
   10.2594  -48.0528    1.2977 H   0  0  0  0  0  0
   11.0436  -50.1267   -0.8059 H   0  0  0  0  0  0
   13.1386  -49.9143    0.5323 H   0  0  0  0  0  0
   12.2112  -50.4040    1.9907 H   0  0  0  0  0  0
   14.1699  -52.0049    1.8308 H   0  0  0  0  0  0
   13.7780  -53.6241    0.9063 H   0  0  0  0  0  0
    8.7626  -50.1997   -1.0362 H   0  0  0  0  0  0
    7.1334  -50.1145    1.3911 H   0  0  0  0  0  0
    6.5606  -50.9066   -1.4692 H   0  0  0  0  0  0
    5.3125  -51.1358   -0.1978 H   0  0  0  0  0  0
    6.7269  -48.5163   -0.8966 H   0  0  0  0  0  0
    5.0768  -49.4156   -2.5512 H   0  0  0  0  0  0
    4.5198  -47.8887   -1.7864 H   0  0  0  0  0  0
    3.8412  -49.4624   -1.2483 H   0  0  0  0  0  0
    6.1228  -48.4848    1.4898 H   0  0  0  0  0  0
    4.4296  -48.9206    1.0779 H   0  0  0  0  0  0
    5.1082  -47.3469    0.5397 H   0  0  0  0  0  0
    8.4972  -52.7665   -0.5132 H   0  0  0  0  0  0
    7.4259  -55.0299    0.8183 H   0  0  0  0  0  0
   10.1237  -54.3335   -0.3508 H   0  0  0  0  0  0
   10.0627  -55.8261    0.6467 H   0  0  0  0  0  0
  1  2  1  0  0  0
  1 58  1  0  0  0
  1 64  1  0  0  0
  2  3  1  0  0  0
  2  5  1  0  0  0
  2 65  1  0  0  0
  3  4  2  0  0  0
  3  7  1  0  0  0
  5  6  1  0  0  0
  5 66  1  0  0  0
  5 67  1  0  0  0
  6 68  1  0  0  0
  7  8  1  0  0  0
  7 69  1  0  0  0
  8  9  1  0  0  0
  8 11  1  0  0  0
  8 70  1  0  0  0
  9 10  2  0  0  0
  9 15  1  0  0  0
 11 12  1  0  0  0
 11 71  1  0  0  0
 11 72  1  0  0  0
 12 13  1  0  0  0
 12 14  1  0  0  0
 12 73  1  0  0  0
 13 74  1  0  0  0
 13 75  1  0  0  0
 13 76  1  0  0  0
 14 77  1  0  0  0
 14 78  1  0  0  0
 14 79  1  0  0  0
 15 16  1  0  0  0
 15 80  1  0  0  0
 16 17  1  0  0  0
 16 19  1  0  0  0
 16 81  1  0  0  0
 17 18  2  0  0  0
 17 24  1  0  0  0
 19 20  1  0  0  0
 19 82  1  0  0  0
 19 83  1  0  0  0
 20 21  1  0  0  0
 20 84  1  0  0  0
 20 85  1  0  0  0
 21 22  1  0  0  0
 21 86  1  0  0  0
 21 87  1  0  0  0
 22 23  1  0  0  0
 22 88  1  0  0  0
 22 89  1  0  0  0
 23 90  1  0  0  0
 23 91  1  0  0  0
 23 92  1  0  0  0
 24 25  1  0  0  0
 24 93  1  0  0  0
 25 26  1  0  0  0
 25 28  1  0  0  0
 25 94  1  0  0  0
 26 27  2  0  0  0
 26 32  1  0  0  0
 28 29  1  0  0  0
 28 30  1  0  0  0
 28 95  1  0  0  0
 29 31  1  0  0  0
 29 96  1  0  0  0
 29 97  1  0  0  0
 30 98  1  0  0  0
 30 99  1  0  0  0
 30100  1  0  0  0
 31101  1  0  0  0
 31102  1  0  0  0
 31103  1  0  0  0
 32 33  1  0  0  0
 32104  1  0  0  0
 33 34  1  0  0  0
 33 36  1  0  0  0
 33105  1  0  0  0
 34 35  2  0  0  0
 34 40  1  0  0  0
 36 37  1  0  0  0
 36106  1  0  0  0
 36107  1  0  0  0
 37 38  1  0  0  0
 37 39  2  0  0  0
 40 41  1  0  0  0
 40108  1  0  0  0
 41 42  1  0  0  0
 41 44  1  0  0  0
 41109  1  0  0  0
 42 43  2  0  0  0
 42 48  1  0  0  0
 44 45  1  0  0  0
 44110  1  0  0  0
 44111  1  0  0  0
 45 46  2  0  0  0
 45 47  1  0  0  0
 47112  1  0  0  0
 47113  1  0  0  0
 48 49  1  0  0  0
 48114  1  0  0  0
 49 50  1  0  0  0
 49 52  1  0  0  0
 49115  1  0  0  0
 50 51  2  0  0  0
 50 56  1  0  0  0
 52 53  1  0  0  0
 52116  1  0  0  0
 52117  1  0  0  0
 53 54  1  0  0  0
 53 55  1  0  0  0
 53118  1  0  0  0
 54119  1  0  0  0
 54120  1  0  0  0
 54121  1  0  0  0
 55122  1  0  0  0
 55123  1  0  0  0
 55124  1  0  0  0
 56 57  1  0  0  0
 56125  1  0  0  0
 57 58  1  0  0  0
 57 60  1  0  0  0
 57126  1  0  0  0
 58 59  2  0  0  0
 60 61  1  0  0  0
 60127  1  0  0  0
 60128  1  0  0  0
 61 62  2  0  0  0
 61 63  1  0  0  0
M  CHG  3  23   1  38  -1  63  -1
M  END
> <s_m_source_file>
../3avb_ligand.sdf

> <i_m_source_file_index>
1

> <s_epik_input>
W09IXVtDSDJdW0NAQEhdMVtOSF1DKD1PKVtDQEhdKFtDSDJdQyg9TylbT0hdKVtOSF1DKD1PKVtDQEhdKFtDSDJdW0NIXShbQ0gzXSlbQ0gzXSlbTkhdQyg9TylbQ0BIXShbQ0gyXUMoPU8pW05IMl0pW05IXUMoPU8pW0NASF0oW0NIMl1DKD1PKVtPSF0pW05IXUMoPU8pW0NASF0oW0NAQEhdKFtDSDNdKVtDSDJdW0NIM10pW05IXUMoPU8pW0NASF0oW0NIMl1bQ0gyXVtDSDJdW0NIMl1bTkgzK10pW05IXUMoPU8pW0NAQEhdKFtOSF1DMT1PKVtDSDJdW0NIXShbQ0gzXSlbQ0gzXQ==

> <s_epik_cmdline>
J2VwaWtfYXBwJywgJy1pbWFlJywgJ2xpZ2FuZF9wcm8ubWFlJywgJy1vbWFlJywgJ2xpZ2FuZF9wcmVwLm1hZScsICctbXMnLCAnMScsICctcGgnLCAnNycsICctcGh0JywgJzAuNScsICctbnQn

> <r_lp_tautomer_probability>
1

> <r_epik_Ionization_Penalty>
  0.0028

> <r_epik_Ionization_Penalty_Charging>
  0.0028

> <r_epik_Ionization_Penalty_Neutral>
  0.0000

> <r_epik_State_Penalty>
 -0.0000

> <r_epik_Charging_Adjusted_Penalty>
0.00281936779525945

> <i_epik_Tot_Q>
-1

> <i_epik_Tot_abs_Q>
3

$$$$
