3avf_ligand
                    3D
 Schrodinger Suite 2020-3.
129129  0  0  1  0            999 V2000
  -41.5470   34.8860   -3.7070 N   0  0  0  0  0  0
  -41.0870   35.4560   -4.9720 C   0  0  2  0  0  0
  -40.6400   34.3000   -5.8960 C   0  0  0  0  0  0
  -40.0430   34.5150   -6.9690 O   0  0  0  0  0  0
  -39.9320   36.4230   -4.5610 C   0  0  0  0  0  0
  -39.3860   37.2790   -5.6980 C   0  0  0  0  0  0
  -40.1140   37.5000   -6.6900 O   0  0  0  0  0  0
  -38.2100   37.7440   -5.5660 O   0  5  0  0  0  0
  -40.9160   33.0650   -5.4630 N   0  0  0  0  0  0
  -40.5200   31.7870   -6.1510 C   0  0  2  0  0  0
  -39.0030   31.6250   -6.2760 C   0  0  0  0  0  0
  -38.4870   31.0240   -7.2530 O   0  0  0  0  0  0
  -41.2030   31.6170   -7.5350 C   0  0  0  0  0  0
  -42.0580   30.3500   -7.7470 C   0  0  0  0  0  0
  -43.2920   30.4010   -6.7610 C   0  0  0  0  0  0
  -42.5020   30.1700   -9.2070 C   0  0  0  0  0  0
  -38.2860   32.1100   -5.2650 N   0  0  0  0  0  0
  -36.8200   32.0120   -5.2790 C   0  0  2  0  0  0
  -36.5070   31.2240   -4.0420 C   0  0  0  0  0  0
  -37.2860   31.2970   -3.0610 O   0  0  0  0  0  0
  -36.2370   33.4260   -5.1300 C   0  0  0  0  0  0
  -36.6240   34.4030   -6.2350 C   0  0  0  0  0  0
  -36.0410   33.9200   -7.5400 C   0  0  0  0  0  0
  -36.7190   34.8390   -8.5900 C   0  0  0  0  0  0
  -36.1360   34.7480   -9.9360 N   0  3  0  0  0  0
  -35.3700   30.5020   -4.0270 N   0  0  0  0  0  0
  -34.9490   29.7180   -2.8340 C   0  0  2  0  0  0
  -34.8420   30.6250   -1.6000 C   0  0  0  0  0  0
  -35.1330   30.1760   -0.4700 O   0  0  0  0  0  0
  -33.5930   28.8870   -3.0690 C   0  0  2  0  0  0
  -33.7030   27.4480   -2.5660 C   0  0  0  0  0  0
  -32.4410   29.4500   -2.2750 C   0  0  0  0  0  0
  -34.5050   26.5490   -3.4240 C   0  0  0  0  0  0
  -34.4370   31.8970   -1.8100 N   0  0  0  0  0  0
  -34.1120   32.7880   -0.6840 C   0  0  2  0  0  0
  -35.2690   33.6950   -0.4250 C   0  0  0  0  0  0
  -35.1520   34.6040    0.4170 O   0  0  0  0  0  0
  -32.8120   33.6410   -0.9280 C   0  0  0  0  0  0
  -32.7800   34.3390   -2.2470 C   0  0  0  0  0  0
  -31.8540   35.1730   -2.4510 O   0  5  0  0  0  0
  -33.6490   34.1040   -3.0980 O   0  0  0  0  0  0
  -36.3300   33.5220   -1.2280 N   0  0  0  0  0  0
  -37.5890   34.2710   -1.0130 C   0  0  2  0  0  0
  -38.7040   33.4720   -1.6490 C   0  0  0  0  0  0
  -39.0160   33.6000   -2.8400 O   0  0  0  0  0  0
  -37.5280   35.6830   -1.5810 C   0  0  0  0  0  0
  -38.7670   36.5240   -1.1490 C   0  0  0  0  0  0
  -39.8520   35.9910   -0.9610 O   0  0  0  0  0  0
  -38.5890   37.8260   -1.0200 N   0  0  0  0  0  0
  -39.2730   32.5700   -0.8690 N   0  0  0  0  0  0
  -40.1700   31.6040   -1.5030 C   0  0  2  0  0  0
  -41.4140   32.3360   -2.0610 C   0  0  0  0  0  0
  -41.9570   31.9380   -3.0980 O   0  0  0  0  0  0
  -40.5390   30.4940   -0.4700 C   0  0  0  0  0  0
  -39.4020   29.4670   -0.3030 C   0  0  0  0  0  0
  -39.8870   28.4860    0.7590 C   0  0  0  0  0  0
  -39.0410   28.6860   -1.5920 C   0  0  0  0  0  0
  -41.7850   33.4280   -1.4170 N   0  0  0  0  0  0
  -42.9460   34.2760   -1.8560 C   0  0  2  0  0  0
  -42.8110   34.7540   -3.2940 C   0  0  0  0  0  0
  -43.8100   34.9720   -3.9900 O   0  0  0  0  0  0
  -43.0690   35.5080   -0.9550 C   0  0  0  0  0  0
  -43.8570   35.2300    0.3060 C   0  0  0  0  0  0
  -44.4990   34.1580    0.3780 O   0  5  0  0  0  0
  -43.8160   36.0740    1.2280 O   0  0  0  0  0  0
  -40.8168   34.5083   -2.9761 H   0  0  0  0  0  0
  -41.8903   35.9899   -5.5009 H   0  0  0  0  0  0
  -40.2918   37.1151   -3.7854 H   0  0  0  0  0  0
  -39.0870   35.8387   -4.1677 H   0  0  0  0  0  0
  -41.4820   33.0297   -4.5204 H   0  0  0  0  0  0
  -40.8831   31.0028   -5.4704 H   0  0  0  0  0  0
  -41.8818   32.4636   -7.7154 H   0  0  0  0  0  0
  -40.4349   31.5888   -8.3219 H   0  0  0  0  0  0
  -41.4243   29.4738   -7.5453 H   0  0  0  0  0  0
  -42.9321   30.5303   -5.7296 H   0  0  0  0  0  0
  -43.8603   29.4622   -6.8361 H   0  0  0  0  0  0
  -43.9424   31.2460   -7.0310 H   0  0  0  0  0  0
  -41.6162   30.1395   -9.8585 H   0  0  0  0  0  0
  -43.1448   31.0127   -9.5013 H   0  0  0  0  0  0
  -43.0628   29.2289   -9.3063 H   0  0  0  0  0  0
  -38.7973   32.5864   -4.4155 H   0  0  0  0  0  0
  -36.4459   31.5368   -6.1978 H   0  0  0  0  0  0
  -36.5833   33.8676   -4.1839 H   0  0  0  0  0  0
  -35.1384   33.3714   -5.1287 H   0  0  0  0  0  0
  -37.7201   34.4528   -6.3130 H   0  0  0  0  0  0
  -36.2276   35.4012   -5.9973 H   0  0  0  0  0  0
  -34.9476   34.0384   -7.5192 H   0  0  0  0  0  0
  -36.2923   32.8587   -7.6834 H   0  0  0  0  0  0
  -37.7820   34.5709   -8.6799 H   0  0  0  0  0  0
  -36.6311   35.8879   -8.2705 H   0  0  0  0  0  0
  -36.6723   35.4277  -10.6146 H   0  0  0  0  0  0
  -36.2252   33.7156  -10.3051 H   0  0  0  0  0  0
  -35.0742   35.0326   -9.8957 H   0  0  0  0  0  0
  -34.7457   30.5032   -4.9327 H   0  0  0  0  0  0
  -35.7888   29.0249   -2.6777 H   0  0  0  0  0  0
  -33.3722   28.9186   -4.1462 H   0  0  0  0  0  0
  -32.6981   27.0060   -2.4968 H   0  0  0  0  0  0
  -34.1754   27.4419   -1.5726 H   0  0  0  0  0  0
  -32.2741   30.4982   -2.5639 H   0  0  0  0  0  0
  -31.5330   28.8640   -2.4805 H   0  0  0  0  0  0
  -32.6756   29.3984   -1.2016 H   0  0  0  0  0  0
  -34.5255   25.5420   -2.9818 H   0  0  0  0  0  0
  -34.0543   26.5002   -4.4262 H   0  0  0  0  0  0
  -35.5316   26.9362   -3.5021 H   0  0  0  0  0  0
  -34.3519   32.2635   -2.8437 H   0  0  0  0  0  0
  -33.9712   32.1159    0.1753 H   0  0  0  0  0  0
  -32.7297   34.4145   -0.1503 H   0  0  0  0  0  0
  -31.9300   32.9850   -0.8874 H   0  0  0  0  0  0
  -36.2509   32.8064   -2.0597 H   0  0  0  0  0  0
  -37.7456   34.3749    0.0708 H   0  0  0  0  0  0
  -36.6204   36.1861   -1.2161 H   0  0  0  0  0  0
  -37.5044   35.6356   -2.6797 H   0  0  0  0  0  0
  -37.5966   38.2658   -1.1982 H   0  0  0  0  0  0
  -39.4331   38.4709   -0.7343 H   0  0  0  0  0  0
  -39.0957   32.5263    0.2157 H   0  0  0  0  0  0
  -39.6250   31.1564   -2.3472 H   0  0  0  0  0  0
  -40.7346   30.9550    0.5094 H   0  0  0  0  0  0
  -41.4388   29.9607   -0.8105 H   0  0  0  0  0  0
  -38.4845   30.0018   -0.0163 H   0  0  0  0  0  0
  -40.1445   29.0362    1.6761 H   0  0  0  0  0  0
  -39.0904   27.7598    0.9784 H   0  0  0  0  0  0
  -40.7759   27.9544    0.3885 H   0  0  0  0  0  0
  -38.6905   29.3899   -2.3612 H   0  0  0  0  0  0
  -39.9309   28.1542   -1.9598 H   0  0  0  0  0  0
  -38.2454   27.9596   -1.3699 H   0  0  0  0  0  0
  -41.2052   33.7085   -0.5253 H   0  0  0  0  0  0
  -43.8304   33.6261   -1.7821 H   0  0  0  0  0  0
  -42.0655   35.8469   -0.6583 H   0  0  0  0  0  0
  -43.5809   36.3131   -1.5025 H   0  0  0  0  0  0
  1  2  1  0  0  0
  1 60  1  0  0  0
  1 66  1  0  0  0
  2  3  1  0  0  0
  2  5  1  0  0  0
  2 67  1  0  0  0
  3  4  2  0  0  0
  3  9  1  0  0  0
  5  6  1  0  0  0
  5 68  1  0  0  0
  5 69  1  0  0  0
  6  7  2  0  0  0
  6  8  1  0  0  0
  9 10  1  0  0  0
  9 70  1  0  0  0
 10 11  1  0  0  0
 10 13  1  0  0  0
 10 71  1  0  0  0
 11 12  2  0  0  0
 11 17  1  0  0  0
 13 14  1  0  0  0
 13 72  1  0  0  0
 13 73  1  0  0  0
 14 15  1  0  0  0
 14 16  1  0  0  0
 14 74  1  0  0  0
 15 75  1  0  0  0
 15 76  1  0  0  0
 15 77  1  0  0  0
 16 78  1  0  0  0
 16 79  1  0  0  0
 16 80  1  0  0  0
 17 18  1  0  0  0
 17 81  1  0  0  0
 18 19  1  0  0  0
 18 21  1  0  0  0
 18 82  1  0  0  0
 19 20  2  0  0  0
 19 26  1  0  0  0
 21 22  1  0  0  0
 21 83  1  0  0  0
 21 84  1  0  0  0
 22 23  1  0  0  0
 22 85  1  0  0  0
 22 86  1  0  0  0
 23 24  1  0  0  0
 23 87  1  0  0  0
 23 88  1  0  0  0
 24 25  1  0  0  0
 24 89  1  0  0  0
 24 90  1  0  0  0
 25 91  1  0  0  0
 25 92  1  0  0  0
 25 93  1  0  0  0
 26 27  1  0  0  0
 26 94  1  0  0  0
 27 28  1  0  0  0
 27 30  1  0  0  0
 27 95  1  0  0  0
 28 29  2  0  0  0
 28 34  1  0  0  0
 30 31  1  0  0  0
 30 32  1  0  0  0
 30 96  1  0  0  0
 31 33  1  0  0  0
 31 97  1  0  0  0
 31 98  1  0  0  0
 32 99  1  0  0  0
 32100  1  0  0  0
 32101  1  0  0  0
 33102  1  0  0  0
 33103  1  0  0  0
 33104  1  0  0  0
 34 35  1  0  0  0
 34105  1  0  0  0
 35 36  1  0  0  0
 35 38  1  0  0  0
 35106  1  0  0  0
 36 37  2  0  0  0
 36 42  1  0  0  0
 38 39  1  0  0  0
 38107  1  0  0  0
 38108  1  0  0  0
 39 40  1  0  0  0
 39 41  2  0  0  0
 42 43  1  0  0  0
 42109  1  0  0  0
 43 44  1  0  0  0
 43 46  1  0  0  0
 43110  1  0  0  0
 44 45  2  0  0  0
 44 50  1  0  0  0
 46 47  1  0  0  0
 46111  1  0  0  0
 46112  1  0  0  0
 47 48  2  0  0  0
 47 49  1  0  0  0
 49113  1  0  0  0
 49114  1  0  0  0
 50 51  1  0  0  0
 50115  1  0  0  0
 51 52  1  0  0  0
 51 54  1  0  0  0
 51116  1  0  0  0
 52 53  2  0  0  0
 52 58  1  0  0  0
 54 55  1  0  0  0
 54117  1  0  0  0
 54118  1  0  0  0
 55 56  1  0  0  0
 55 57  1  0  0  0
 55119  1  0  0  0
 56120  1  0  0  0
 56121  1  0  0  0
 56122  1  0  0  0
 57123  1  0  0  0
 57124  1  0  0  0
 57125  1  0  0  0
 58 59  1  0  0  0
 58126  1  0  0  0
 59 60  1  0  0  0
 59 62  1  0  0  0
 59127  1  0  0  0
 60 61  2  0  0  0
 62 63  1  0  0  0
 62128  1  0  0  0
 62129  1  0  0  0
 63 64  1  0  0  0
 63 65  2  0  0  0
M  CHG  4   8  -1  25   1  40  -1  64  -1
M  END
> <s_m_source_file>
../3avf_ligand.sdf

> <i_m_source_file_index>
1

> <s_epik_input>
Tz1DKFtPSF0pW0NIMl1bQ0BASF0xW05IXUMoPU8pW0NASF0oW0NIMl1DKD1PKVtPSF0pW05IXUMoPU8pW0NASF0oW0NIMl1bQ0hdKFtDSDNdKVtDSDNdKVtOSF1DKD1PKVtDQEhdKFtDSDJdQyg9TylbTkgyXSlbTkhdQyg9TylbQ0BIXShbQ0gyXUMoPU8pW09IXSlbTkhdQyg9TylbQ0BIXShbQ0BASF0oW0NIM10pW0NIMl1bQ0gzXSlbTkhdQyg9TylbQ0BIXShbQ0gyXVtDSDJdW0NIMl1bQ0gyXVtOSDMrXSlbTkhdQyg9TylbQ0BASF0oW05IXUMxPU8pW0NIMl1bQ0hdKFtDSDNdKVtDSDNd

> <s_epik_cmdline>
J2VwaWtfYXBwJywgJy1pbWFlJywgJ2xpZ2FuZF9wcm8ubWFlJywgJy1vbWFlJywgJ2xpZ2FuZF9wcmVwLm1hZScsICctbXMnLCAnMScsICctcGgnLCAnNycsICctcGh0JywgJzAuNScsICctbnQn

> <r_lp_tautomer_probability>
1

> <r_epik_Ionization_Penalty>
  0.0064

> <r_epik_Ionization_Penalty_Charging>
  0.0064

> <r_epik_Ionization_Penalty_Neutral>
  0.0000

> <r_epik_State_Penalty>
 -0.0000

> <r_epik_Charging_Adjusted_Penalty>
0.00641110576916704

> <i_epik_Tot_Q>
-2

> <i_epik_Tot_abs_Q>
4

$$$$
