3avg_ligand
                    3D
 Schrodinger Suite 2020-3.
120120  0  0  1  0            999 V2000
   15.9360   38.8140  -16.1520 N   0  0  0  0  0  0
   16.1160   38.2750  -17.5190 C   0  0  2  0  0  0
   14.9240   38.5170  -18.4460 C   0  0  0  0  0  0
   14.8350   37.9180  -19.5310 O   0  0  0  0  0  0
   16.4530   36.7440  -17.4400 C   0  0  0  0  0  0
   13.9940   39.3770  -18.0300 N   0  0  0  0  0  0
   12.6930   39.6020  -18.7410 C   0  0  2  0  0  0
   11.7300   38.3930  -18.8300 C   0  0  0  0  0  0
   10.8660   38.3120  -19.7240 O   0  0  0  0  0  0
   12.9520   40.1170  -20.1660 C   0  0  0  0  0  0
   11.9300   41.1370  -20.5980 C   0  0  0  0  0  0
   10.7390   41.0110  -20.2440 O   0  0  0  0  0  0
   12.3270   42.0860  -21.3070 O   0  5  0  0  0  0
   11.8370   37.4900  -17.8720 N   0  0  0  0  0  0
   10.9660   36.3160  -17.8470 C   0  0  2  0  0  0
   10.0650   36.4710  -16.6320 C   0  0  0  0  0  0
   10.5100   37.1100  -15.6330 O   0  0  0  0  0  0
   11.8880   35.1390  -17.6340 C   0  0  0  0  0  0
   12.9070   34.8920  -18.8030 C   0  0  0  0  0  0
   12.2030   34.6450  -20.1270 C   0  0  0  0  0  0
   13.3600   34.6880  -21.2300 C   0  0  0  0  0  0
   12.8820   34.5030  -22.5800 N   0  3  0  0  0  0
    8.9080   35.8130  -16.6180 N   0  0  0  0  0  0
    8.0050   35.8670  -15.4290 C   0  0  2  0  0  0
    8.7340   35.3150  -14.1940 C   0  0  0  0  0  0
    8.5220   35.7820  -13.0340 O   0  0  0  0  0  0
    6.6750   35.0540  -15.7320 C   0  0  2  0  0  0
    5.4840   35.5690  -14.9330 C   0  0  0  0  0  0
    6.8450   33.5980  -15.4890 C   0  0  0  0  0  0
    4.9060   36.8040  -15.6360 C   0  0  0  0  0  0
    9.5990   34.3110  -14.4160 N   0  0  0  0  0  0
   10.2210   33.6030  -13.2980 C   0  0  2  0  0  0
   11.5940   34.1540  -13.0360 C   0  0  0  0  0  0
   12.2830   33.6710  -12.1070 O   0  0  0  0  0  0
   10.3410   32.0570  -13.4650 C   0  0  0  0  0  0
   10.8980   31.6560  -14.8090 C   0  0  0  0  0  0
   11.0900   30.4360  -15.0240 O   0  0  0  0  0  0
   11.1250   32.5650  -15.6490 O   0  5  0  0  0  0
   11.9960   35.1310  -13.8440 N   0  0  0  0  0  0
   13.2640   35.8460  -13.5850 C   0  0  2  0  0  0
   13.1070   37.2150  -14.2350 C   0  0  0  0  0  0
   13.3870   37.4240  -15.4400 O   0  0  0  0  0  0
   14.4520   35.0530  -14.1480 C   0  0  0  0  0  0
   15.8210   35.5830  -13.6410 C   0  0  0  0  0  0
   15.9430   36.7270  -13.2190 O   0  0  0  0  0  0
   16.8400   34.7370  -13.6990 N   0  0  0  0  0  0
   12.5890   38.1540  -13.4430 N   0  0  0  0  0  0
   12.2110   39.4400  -14.0500 C   0  0  2  0  0  0
   13.4470   40.1760  -14.5920 C   0  0  0  0  0  0
   13.3580   40.8960  -15.5990 O   0  0  0  0  0  0
   11.4460   40.3150  -13.0220 C   0  0  0  0  0  0
   10.0080   39.8400  -12.8140 C   0  0  0  0  0  0
    9.3630   40.8010  -11.7930 C   0  0  0  0  0  0
    9.1360   39.8110  -14.1080 C   0  0  0  0  0  0
   14.5680   39.9520  -13.9130 N   0  0  0  0  0  0
   15.9050   40.4520  -14.3390 C   0  0  2  0  0  0
   16.2280   40.0710  -15.7940 C   0  0  0  0  0  0
   16.7090   40.9090  -16.5700 O   0  0  0  0  0  0
   17.0140   39.9290  -13.4010 C   0  0  0  0  0  0
   17.1710   40.7580  -12.1090 C   0  0  0  0  0  0
   16.5870   41.8600  -11.9840 O   0  0  0  0  0  0
   17.8960   40.2890  -11.2000 O   0  5  0  0  0  0
   15.5393   38.1689  -15.3542 H   0  0  0  0  0  0
   16.9413   38.8730  -17.9328 H   0  0  0  0  0  0
   17.3116   36.5917  -16.7695 H   0  0  0  0  0  0
   16.7015   36.3710  -18.4445 H   0  0  0  0  0  0
   15.5820   36.1965  -17.0506 H   0  0  0  0  0  0
   14.2230   39.9375  -17.1116 H   0  0  0  0  0  0
   12.2096   40.3461  -18.0908 H   0  0  0  0  0  0
   13.9448   40.5885  -20.2107 H   0  0  0  0  0  0
   12.9138   39.2750  -20.8728 H   0  0  0  0  0  0
   12.5938   37.6302  -17.0862 H   0  0  0  0  0  0
   10.3783   36.2158  -18.7714 H   0  0  0  0  0  0
   12.4804   35.2978  -16.7208 H   0  0  0  0  0  0
   11.2919   34.2205  -17.5292 H   0  0  0  0  0  0
   13.5549   35.7736  -18.9170 H   0  0  0  0  0  0
   13.5239   34.0111  -18.5717 H   0  0  0  0  0  0
   11.7055   33.6643  -20.1004 H   0  0  0  0  0  0
   11.4533   35.4320  -20.2961 H   0  0  0  0  0  0
   13.8661   35.6640  -21.1927 H   0  0  0  0  0  0
   14.0888   33.8891  -21.0283 H   0  0  0  0  0  0
   13.7308   34.5448  -23.2784 H   0  0  0  0  0  0
   12.1642   35.2991  -22.8271 H   0  0  0  0  0  0
   12.3869   33.5242  -22.6627 H   0  0  0  0  0  0
    8.6206   35.2227  -17.5006 H   0  0  0  0  0  0
    7.7795   36.9264  -15.2371 H   0  0  0  0  0  0
    6.4298   35.1556  -16.7995 H   0  0  0  0  0  0
    4.7160   34.7838  -14.8724 H   0  0  0  0  0  0
    5.8124   35.8398  -13.9187 H   0  0  0  0  0  0
    7.7050   33.2279  -16.0664 H   0  0  0  0  0  0
    5.9355   33.0652  -15.8035 H   0  0  0  0  0  0
    7.0203   33.4232  -14.4172 H   0  0  0  0  0  0
    4.0452   37.1818  -15.0647 H   0  0  0  0  0  0
    4.5810   36.5298  -16.6505 H   0  0  0  0  0  0
    5.6774   37.5858  -15.6968 H   0  0  0  0  0  0
    9.8378   34.0232  -15.4505 H   0  0  0  0  0  0
    9.5236   33.8328  -12.4789 H   0  0  0  0  0  0
   11.0106   31.6554  -12.6902 H   0  0  0  0  0  0
    9.3461   31.5989  -13.3632 H   0  0  0  0  0  0
   11.3768   35.4057  -14.7106 H   0  0  0  0  0  0
   13.4381   35.9481  -12.5037 H   0  0  0  0  0  0
   14.3658   33.9990  -13.8452 H   0  0  0  0  0  0
   14.4505   35.1203  -15.2459 H   0  0  0  0  0  0
   16.6877   33.7182  -14.0848 H   0  0  0  0  0  0
   17.8378   35.0538  -13.3613 H   0  0  0  0  0  0
   12.4413   37.9899  -12.3654 H   0  0  0  0  0  0
   11.5541   39.1885  -14.8957 H   0  0  0  0  0  0
   11.9619   40.2758  -12.0513 H   0  0  0  0  0  0
   11.4134   41.3552  -13.3782 H   0  0  0  0  0  0
   10.0664   38.8006  -12.4587 H   0  0  0  0  0  0
    9.9726   40.8266  -10.8777 H   0  0  0  0  0  0
    8.3494   40.4502  -11.5488 H   0  0  0  0  0  0
    9.3073   41.8112  -12.2248 H   0  0  0  0  0  0
    9.5899   39.1276  -14.8408 H   0  0  0  0  0  0
    9.0807   40.8230  -14.5356 H   0  0  0  0  0  0
    8.1228   39.4620  -13.8596 H   0  0  0  0  0  0
   14.4700   39.3618  -12.9900 H   0  0  0  0  0  0
   15.8309   41.5472  -14.2680 H   0  0  0  0  0  0
   16.7845   38.8954  -13.1025 H   0  0  0  0  0  0
   17.9801   39.9530  -13.9264 H   0  0  0  0  0  0
  1  2  1  0  0  0
  1 57  1  0  0  0
  1 63  1  0  0  0
  2  3  1  0  0  0
  2  5  1  0  0  0
  2 64  1  0  0  0
  3  4  2  0  0  0
  3  6  1  0  0  0
  5 65  1  0  0  0
  5 66  1  0  0  0
  5 67  1  0  0  0
  6  7  1  0  0  0
  6 68  1  0  0  0
  7  8  1  0  0  0
  7 10  1  0  0  0
  7 69  1  0  0  0
  8  9  2  0  0  0
  8 14  1  0  0  0
 10 11  1  0  0  0
 10 70  1  0  0  0
 10 71  1  0  0  0
 11 12  2  0  0  0
 11 13  1  0  0  0
 14 15  1  0  0  0
 14 72  1  0  0  0
 15 16  1  0  0  0
 15 18  1  0  0  0
 15 73  1  0  0  0
 16 17  2  0  0  0
 16 23  1  0  0  0
 18 19  1  0  0  0
 18 74  1  0  0  0
 18 75  1  0  0  0
 19 20  1  0  0  0
 19 76  1  0  0  0
 19 77  1  0  0  0
 20 21  1  0  0  0
 20 78  1  0  0  0
 20 79  1  0  0  0
 21 22  1  0  0  0
 21 80  1  0  0  0
 21 81  1  0  0  0
 22 82  1  0  0  0
 22 83  1  0  0  0
 22 84  1  0  0  0
 23 24  1  0  0  0
 23 85  1  0  0  0
 24 25  1  0  0  0
 24 27  1  0  0  0
 24 86  1  0  0  0
 25 26  2  0  0  0
 25 31  1  0  0  0
 27 28  1  0  0  0
 27 29  1  0  0  0
 27 87  1  0  0  0
 28 30  1  0  0  0
 28 88  1  0  0  0
 28 89  1  0  0  0
 29 90  1  0  0  0
 29 91  1  0  0  0
 29 92  1  0  0  0
 30 93  1  0  0  0
 30 94  1  0  0  0
 30 95  1  0  0  0
 31 32  1  0  0  0
 31 96  1  0  0  0
 32 33  1  0  0  0
 32 35  1  0  0  0
 32 97  1  0  0  0
 33 34  2  0  0  0
 33 39  1  0  0  0
 35 36  1  0  0  0
 35 98  1  0  0  0
 35 99  1  0  0  0
 36 37  2  0  0  0
 36 38  1  0  0  0
 39 40  1  0  0  0
 39100  1  0  0  0
 40 41  1  0  0  0
 40 43  1  0  0  0
 40101  1  0  0  0
 41 42  2  0  0  0
 41 47  1  0  0  0
 43 44  1  0  0  0
 43102  1  0  0  0
 43103  1  0  0  0
 44 45  2  0  0  0
 44 46  1  0  0  0
 46104  1  0  0  0
 46105  1  0  0  0
 47 48  1  0  0  0
 47106  1  0  0  0
 48 49  1  0  0  0
 48 51  1  0  0  0
 48107  1  0  0  0
 49 50  2  0  0  0
 49 55  1  0  0  0
 51 52  1  0  0  0
 51108  1  0  0  0
 51109  1  0  0  0
 52 53  1  0  0  0
 52 54  1  0  0  0
 52110  1  0  0  0
 53111  1  0  0  0
 53112  1  0  0  0
 53113  1  0  0  0
 54114  1  0  0  0
 54115  1  0  0  0
 54116  1  0  0  0
 55 56  1  0  0  0
 55117  1  0  0  0
 56 57  1  0  0  0
 56 59  1  0  0  0
 56118  1  0  0  0
 57 58  2  0  0  0
 59 60  1  0  0  0
 59119  1  0  0  0
 59120  1  0  0  0
 60 61  2  0  0  0
 60 62  1  0  0  0
M  CHG  4  13  -1  22   1  38  -1  62  -1
M  END
> <s_m_source_file>
../3avg_ligand.sdf

> <i_m_source_file_index>
1

> <s_epik_input>
W0NIM11bQ0BASF0xW05IXUMoPU8pW0NASF0oW0NIMl1DKD1PKVtPSF0pW05IXUMoPU8pW0NASF0oW0NIMl1bQ0hdKFtDSDNdKVtDSDNdKVtOSF1DKD1PKVtDQEhdKFtDSDJdQyg9TylbTkgyXSlbTkhdQyg9TylbQ0BIXShbQ0gyXUMoPU8pW09IXSlbTkhdQyg9TylbQ0BIXShbQ0BASF0oW0NIM10pW0NIMl1bQ0gzXSlbTkhdQyg9TylbQ0BIXShbQ0gyXVtDSDJdW0NIMl1bQ0gyXVtOSDMrXSlbTkhdQyg9TylbQ0BASF0oW05IXUMxPU8pW0NIMl1DKD1PKVtPSF0=

> <s_epik_cmdline>
J2VwaWtfYXBwJywgJy1pbWFlJywgJ2xpZ2FuZF9wcm8ubWFlJywgJy1vbWFlJywgJ2xpZ2FuZF9wcmVwLm1hZScsICctbXMnLCAnMScsICctcGgnLCAnNycsICctcGh0JywgJzAuNScsICctbnQn

> <r_lp_tautomer_probability>
1

> <r_epik_Ionization_Penalty>
  0.0063

> <r_epik_Ionization_Penalty_Charging>
  0.0063

> <r_epik_Ionization_Penalty_Neutral>
  0.0000

> <r_epik_State_Penalty>
 -0.0000

> <r_epik_Charging_Adjusted_Penalty>
0.00632540350462192

> <i_epik_Tot_Q>
-2

> <i_epik_Tot_abs_Q>
4

$$$$
