3avh_ligand
                    3D
 Schrodinger Suite 2020-3.
132132  0  0  1  0            999 V2000
  -16.1130   38.7360   15.2920 N   0  0  0  0  0  0
  -16.2980   38.0950   16.6170 C   0  0  2  0  0  0
  -15.1770   38.4460   17.6020 C   0  0  0  0  0  0
  -15.0600   37.8620   18.6870 O   0  0  0  0  0  0
  -16.4470   36.5450   16.4560 C   0  0  0  0  0  0
  -14.3490   39.4010   17.2120 N   0  0  0  0  0  0
  -13.0830   39.7240   17.9000 C   0  0  2  0  0  0
  -12.1940   38.4780   18.1530 C   0  0  0  0  0  0
  -11.7080   38.2770   19.2510 O   0  0  0  0  0  0
  -13.3390   40.5910   19.1740 C   0  0  0  0  0  0
  -13.9200   42.0240   18.8540 C   0  0  0  0  0  0
  -14.2830   42.8620   20.1060 C   0  0  0  0  0  0
  -15.1220   44.0340   19.7910 N   0  0  0  0  0  0
  -15.9120   44.6780   20.6620 C   0  0  0  0  0  0
  -16.0000   44.2910   21.9290 N   0  0  0  0  0  0
  -16.6360   45.7130   20.2690 N   0  3  0  0  0  0
  -12.0060   37.6520   17.1220 N   0  0  0  0  0  0
  -11.0710   36.5040   17.1470 C   0  0  2  0  0  0
  -10.2110   36.5620   15.9300 C   0  0  0  0  0  0
  -10.6420   37.0950   14.8940 O   0  0  0  0  0  0
  -11.8670   35.1770   17.0070 C   0  0  0  0  0  0
  -12.9010   34.9210   18.0910 C   0  0  0  0  0  0
  -12.2610   34.7910   19.4750 C   0  0  0  0  0  0
  -13.4020   34.5220   20.4460 C   0  0  0  0  0  0
  -12.9510   34.5800   21.8390 N   0  3  0  0  0  0
   -9.0530   35.9190   15.9640 N   0  0  0  0  0  0
   -8.1030   35.9730   14.8050 C   0  0  2  0  0  0
   -8.7250   35.3830   13.5300 C   0  0  0  0  0  0
   -8.4380   35.8450   12.3870 O   0  0  0  0  0  0
   -6.7850   35.1780   15.1460 C   0  0  2  0  0  0
   -5.6060   35.6900   14.3400 C   0  0  0  0  0  0
   -6.9050   33.7530   14.8100 C   0  0  0  0  0  0
   -4.8790   36.7240   15.0870 C   0  0  0  0  0  0
   -9.5660   34.3570   13.7350 N   0  0  0  0  0  0
  -10.2280   33.6790   12.6150 C   0  0  2  0  0  0
  -11.6100   34.2460   12.4080 C   0  0  0  0  0  0
  -12.3330   33.7490   11.5510 O   0  0  0  0  0  0
  -10.3210   32.1310   12.7870 C   0  0  0  0  0  0
  -10.8930   31.7180   14.1390 C   0  0  0  0  0  0
  -11.0730   30.4940   14.3250 O   0  0  0  0  0  0
  -11.1780   32.5910   15.0170 O   0  5  0  0  0  0
  -11.9860   35.2400   13.2120 N   0  0  0  0  0  0
  -13.2670   35.8940   13.0000 C   0  0  2  0  0  0
  -13.1880   37.2840   13.6230 C   0  0  0  0  0  0
  -13.4600   37.5200   14.8160 O   0  0  0  0  0  0
  -14.4660   35.0600   13.4630 C   0  0  0  0  0  0
  -15.8240   35.6990   13.0500 C   0  0  0  0  0  0
  -15.8890   36.8190   12.5300 O   0  0  0  0  0  0
  -16.8990   34.9720   13.2920 N   0  0  0  0  0  0
  -12.6910   38.1940   12.7890 N   0  0  0  0  0  0
  -12.3050   39.5130   13.3080 C   0  0  2  0  0  0
  -13.5370   40.2440   13.8440 C   0  0  0  0  0  0
  -13.4200   40.9860   14.8410 O   0  0  0  0  0  0
  -11.5710   40.2930   12.2170 C   0  0  0  0  0  0
  -10.1050   39.8690   12.0170 C   0  0  0  0  0  0
   -9.5460   40.9420   11.0930 C   0  0  0  0  0  0
   -9.2420   39.8180   13.3710 C   0  0  0  0  0  0
  -14.6860   40.0020   13.1940 N   0  0  0  0  0  0
  -16.0150   40.5000   13.6380 C   0  0  2  0  0  0
  -16.3170   40.0440   15.0620 C   0  0  0  0  0  0
  -16.7220   40.8580   15.9220 O   0  0  0  0  0  0
  -17.1190   39.9390   12.7280 C   0  0  0  0  0  0
  -17.2650   40.7170   11.4380 C   0  0  0  0  0  0
  -16.7490   41.8500   11.3650 O   0  0  0  0  0  0
  -17.8970   40.1940   10.4890 O   0  5  0  0  0  0
  -15.7914   38.1335   14.4297 H   0  0  0  0  0  0
  -17.2211   38.5402   17.0167 H   0  0  0  0  0  0
  -17.2572   36.3265   15.7448 H   0  0  0  0  0  0
  -16.6846   36.0962   17.4318 H   0  0  0  0  0  0
  -15.5039   36.1233   16.0783 H   0  0  0  0  0  0
  -14.6505   39.9691   16.3196 H   0  0  0  0  0  0
  -12.5321   40.3350   17.1698 H   0  0  0  0  0  0
  -14.0630   40.0801   19.8258 H   0  0  0  0  0  0
  -12.3930   40.7329   19.7172 H   0  0  0  0  0  0
  -13.1769   42.6023   18.2854 H   0  0  0  0  0  0
  -14.8393   41.9224   18.2585 H   0  0  0  0  0  0
  -14.8388   42.2348   20.8185 H   0  0  0  0  0  0
  -13.3614   43.2287   20.5816 H   0  0  0  0  0  0
  -15.1306   44.4461   18.7712 H   0  0  0  0  0  0
  -15.4097   43.4335   22.2844 H   0  0  0  0  0  0
  -16.6632   44.8278   22.6233 H   0  0  0  0  0  0
  -16.5836   46.0563   19.2252 H   0  0  0  0  0  0
  -12.5940   37.8628   16.2166 H   0  0  0  0  0  0
  -10.4861   36.5853   18.0751 H   0  0  0  0  0  0
  -12.4108   35.1748   16.0508 H   0  0  0  0  0  0
  -11.1698   34.3266   17.0343 H   0  0  0  0  0  0
  -13.6159   35.7565   18.1204 H   0  0  0  0  0  0
  -13.4382   33.9864   17.8720 H   0  0  0  0  0  0
  -11.5413   33.9591   19.4695 H   0  0  0  0  0  0
  -11.7388   35.7259   19.7268 H   0  0  0  0  0  0
  -14.1894   35.2770   20.3047 H   0  0  0  0  0  0
  -13.8160   33.5206   20.2569 H   0  0  0  0  0  0
  -13.8011   34.3811   22.5082 H   0  0  0  0  0  0
  -12.5434   35.5794   22.0511 H   0  0  0  0  0  0
  -12.1700   33.8230   22.0033 H   0  0  0  0  0  0
   -8.7931   35.3387   16.8616 H   0  0  0  0  0  0
   -7.9140   37.0436   14.6376 H   0  0  0  0  0  0
   -6.5963   35.2640   16.2263 H   0  0  0  0  0  0
   -4.9200   34.8576   14.1245 H   0  0  0  0  0  0
   -5.9675   36.1212   13.3948 H   0  0  0  0  0  0
   -7.7481   33.3153   15.3646 H   0  0  0  0  0  0
   -5.9758   33.2321   15.0842 H   0  0  0  0  0  0
   -7.0810   33.6446   13.7296 H   0  0  0  0  0  0
   -4.0296   37.0813   14.4863 H   0  0  0  0  0  0
   -4.5076   36.3008   16.0320 H   0  0  0  0  0  0
   -5.5552   37.5645   15.3023 H   0  0  0  0  0  0
   -9.7550   34.0267   14.7671 H   0  0  0  0  0  0
   -9.5843   33.9189   11.7559 H   0  0  0  0  0  0
  -10.9731   31.7138   12.0055 H   0  0  0  0  0  0
   -9.3165   31.6913   12.6996 H   0  0  0  0  0  0
  -11.3313   35.5661   14.0336 H   0  0  0  0  0  0
  -13.4020   35.9762   11.9114 H   0  0  0  0  0  0
  -14.4105   34.0574   13.0140 H   0  0  0  0  0  0
  -14.4501   34.9721   14.5594 H   0  0  0  0  0  0
  -16.7989   33.9798   13.7563 H   0  0  0  0  0  0
  -17.8948   35.3584   13.0294 H   0  0  0  0  0  0
  -12.5681   37.9661   11.7199 H   0  0  0  0  0  0
  -11.6125   39.3626   14.1493 H   0  0  0  0  0  0
  -12.0834   40.1477   11.2546 H   0  0  0  0  0  0
  -11.5658   41.3631   12.4717 H   0  0  0  0  0  0
  -10.0743   38.8609   11.5778 H   0  0  0  0  0  0
  -10.1392   40.9740   10.1672 H   0  0  0  0  0  0
   -8.4992   40.7074   10.8498 H   0  0  0  0  0  0
   -9.5957   41.9198   11.5944 H   0  0  0  0  0  0
   -9.6487   39.0418   14.0360 H   0  0  0  0  0  0
   -9.2915   40.7948   13.8743 H   0  0  0  0  0  0
   -8.1950   39.5824   13.1298 H   0  0  0  0  0  0
  -14.6033   39.3948   12.2805 H   0  0  0  0  0  0
  -15.9592   41.5974   13.5873 H   0  0  0  0  0  0
  -16.8848   38.8962   12.4676 H   0  0  0  0  0  0
  -18.0836   39.9774   13.2553 H   0  0  0  0  0  0
  -17.2904   46.2304   20.9859 H   0  0  0  0  0  0
  1  2  1  0  0  0
  1 60  1  0  0  0
  1 66  1  0  0  0
  2  3  1  0  0  0
  2  5  1  0  0  0
  2 67  1  0  0  0
  3  4  2  0  0  0
  3  6  1  0  0  0
  5 68  1  0  0  0
  5 69  1  0  0  0
  5 70  1  0  0  0
  6  7  1  0  0  0
  6 71  1  0  0  0
  7  8  1  0  0  0
  7 10  1  0  0  0
  7 72  1  0  0  0
  8  9  2  0  0  0
  8 17  1  0  0  0
 10 11  1  0  0  0
 10 73  1  0  0  0
 10 74  1  0  0  0
 11 12  1  0  0  0
 11 75  1  0  0  0
 11 76  1  0  0  0
 12 13  1  0  0  0
 12 77  1  0  0  0
 12 78  1  0  0  0
 13 14  1  0  0  0
 13 79  1  0  0  0
 14 15  1  0  0  0
 14 16  2  0  0  0
 15 80  1  0  0  0
 15 81  1  0  0  0
 16 82  1  0  0  0
 16132  1  0  0  0
 17 18  1  0  0  0
 17 83  1  0  0  0
 18 19  1  0  0  0
 18 21  1  0  0  0
 18 84  1  0  0  0
 19 20  2  0  0  0
 19 26  1  0  0  0
 21 22  1  0  0  0
 21 85  1  0  0  0
 21 86  1  0  0  0
 22 23  1  0  0  0
 22 87  1  0  0  0
 22 88  1  0  0  0
 23 24  1  0  0  0
 23 89  1  0  0  0
 23 90  1  0  0  0
 24 25  1  0  0  0
 24 91  1  0  0  0
 24 92  1  0  0  0
 25 93  1  0  0  0
 25 94  1  0  0  0
 25 95  1  0  0  0
 26 27  1  0  0  0
 26 96  1  0  0  0
 27 28  1  0  0  0
 27 30  1  0  0  0
 27 97  1  0  0  0
 28 29  2  0  0  0
 28 34  1  0  0  0
 30 31  1  0  0  0
 30 32  1  0  0  0
 30 98  1  0  0  0
 31 33  1  0  0  0
 31 99  1  0  0  0
 31100  1  0  0  0
 32101  1  0  0  0
 32102  1  0  0  0
 32103  1  0  0  0
 33104  1  0  0  0
 33105  1  0  0  0
 33106  1  0  0  0
 34 35  1  0  0  0
 34107  1  0  0  0
 35 36  1  0  0  0
 35 38  1  0  0  0
 35108  1  0  0  0
 36 37  2  0  0  0
 36 42  1  0  0  0
 38 39  1  0  0  0
 38109  1  0  0  0
 38110  1  0  0  0
 39 40  2  0  0  0
 39 41  1  0  0  0
 42 43  1  0  0  0
 42111  1  0  0  0
 43 44  1  0  0  0
 43 46  1  0  0  0
 43112  1  0  0  0
 44 45  2  0  0  0
 44 50  1  0  0  0
 46 47  1  0  0  0
 46113  1  0  0  0
 46114  1  0  0  0
 47 48  2  0  0  0
 47 49  1  0  0  0
 49115  1  0  0  0
 49116  1  0  0  0
 50 51  1  0  0  0
 50117  1  0  0  0
 51 52  1  0  0  0
 51 54  1  0  0  0
 51118  1  0  0  0
 52 53  2  0  0  0
 52 58  1  0  0  0
 54 55  1  0  0  0
 54119  1  0  0  0
 54120  1  0  0  0
 55 56  1  0  0  0
 55 57  1  0  0  0
 55121  1  0  0  0
 56122  1  0  0  0
 56123  1  0  0  0
 56124  1  0  0  0
 57125  1  0  0  0
 57126  1  0  0  0
 57127  1  0  0  0
 58 59  1  0  0  0
 58128  1  0  0  0
 59 60  1  0  0  0
 59 62  1  0  0  0
 59129  1  0  0  0
 60 61  2  0  0  0
 62 63  1  0  0  0
 62130  1  0  0  0
 62131  1  0  0  0
 63 64  2  0  0  0
 63 65  1  0  0  0
M  CHG  4  16   1  25   1  41  -1  65  -1
M  END
> <s_m_source_file>
../3avh_ligand.sdf

> <i_m_source_file_index>
1

> <s_epik_input>
W0NIM11bQ0BASF0xW05IXUMoPU8pW0NASF0oW0NIMl1DKD1PKVtPSF0pW05IXUMoPU8pW0NASF0oW0NIMl1bQ0hdKFtDSDNdKVtDSDNdKVtOSF1DKD1PKVtDQEhdKFtDSDJdQyg9TylbTkgyXSlbTkhdQyg9TylbQ0BIXShbQ0gyXUMoPU8pW09IXSlbTkhdQyg9TylbQ0BIXShbQ0BASF0oW0NIM10pW0NIMl1bQ0gzXSlbTkhdQyg9TylbQ0BIXShbQ0gyXVtDSDJdW0NIMl1bQ0gyXVtOSDMrXSlbTkhdQyg9TylbQ0BASF0oW05IXUMxPU8pW0NIMl1bQ0gyXVtDSDJdW05IXS9DKFtOSDJdKT1OXFtIXQ==

> <s_epik_cmdline>
J2VwaWtfYXBwJywgJy1pbWFlJywgJ2xpZ2FuZF9wcm8ubWFlJywgJy1vbWFlJywgJ2xpZ2FuZF9wcmVwLm1hZScsICctbXMnLCAnMScsICctcGgnLCAnNycsICctcGh0JywgJzAuNScsICctbnQn

> <r_lp_tautomer_probability>
1

> <r_epik_Ionization_Penalty>
  0.0029

> <r_epik_Ionization_Penalty_Charging>
  0.0029

> <r_epik_Ionization_Penalty_Neutral>
  0.0000

> <r_epik_State_Penalty>
 -0.0000

> <r_epik_Charging_Adjusted_Penalty>
0.00285571695265971

> <i_epik_Tot_Q>
0

> <i_epik_Tot_abs_Q>
4

> <s_epik_Chemistry_Notes>
This compound has an imine and may undergo hydrolysis.

$$$$
