3avi_ligand
                    3D
 Schrodinger Suite 2020-3.
126126  0  0  1  0            999 V2000
    9.1190  -52.9960   13.1520 N   0  0  0  0  0  0
    9.5400  -53.1060   14.5370 C   0  0  2  0  0  0
    8.7870  -52.1540   15.4550 C   0  0  0  0  0  0
    9.2700  -51.9040   16.5750 O   0  0  0  0  0  0
   11.0150  -52.7710   14.6540 C   0  0  0  0  0  0
   11.7620  -53.6980   13.9000 O   0  0  0  0  0  0
    7.6180  -51.7000   14.9960 N   0  0  0  0  0  0
    6.6950  -50.7910   15.6500 C   0  0  2  0  0  0
    7.4010  -49.4870   16.1230 C   0  0  0  0  0  0
    7.1090  -49.0020   17.2320 O   0  0  0  0  0  0
    5.8850  -51.4530   16.8510 C   0  0  0  0  0  0
    4.9010  -52.6150   16.4820 C   0  0  0  0  0  0
    4.2670  -53.1980   17.7400 C   0  0  0  0  0  0
    3.7670  -52.1810   15.5210 C   0  0  0  0  0  0
    8.3010  -48.9520   15.2860 N   0  0  0  0  0  0
    8.9620  -47.6690   15.5120 C   0  0  2  0  0  0
    8.5050  -46.7590   14.3750 C   0  0  0  0  0  0
    8.1550  -47.2520   13.2880 O   0  0  0  0  0  0
   10.4520  -47.8240   15.4150 C   0  0  0  0  0  0
   10.9630  -48.8740   16.4250 C   0  0  0  0  0  0
   10.7510  -48.4320   17.8450 C   0  0  0  0  0  0
   11.4510  -49.4770   18.7920 C   0  0  0  0  0  0
   10.9110  -49.2050   20.1280 N   0  3  0  0  0  0
    8.5270  -45.4410   14.6140 N   0  0  0  0  0  0
    8.0170  -44.5300   13.6010 C   0  0  2  0  0  0
    8.8420  -44.5940   12.3300 C   0  0  0  0  0  0
    8.3330  -44.2450   11.2250 O   0  0  0  0  0  0
    8.0090  -43.0810   14.1950 C   0  0  2  0  0  0
    7.0440  -43.0050   15.4310 C   0  0  0  0  0  0
    7.5580  -42.0390   13.1440 C   0  0  0  0  0  0
    5.4870  -43.2250   15.1000 C   0  0  0  0  0  0
   10.1260  -44.8780   12.5040 N   0  0  0  0  0  0
   11.0340  -45.0430   11.3910 C   0  0  2  0  0  0
   11.1610  -46.4900   10.9060 C   0  0  0  0  0  0
   11.9330  -46.7020    9.9330 O   0  0  0  0  0  0
   12.4710  -44.4760   11.6970 C   0  0  0  0  0  0
   13.1040  -45.0820   12.9550 C   0  0  0  0  0  0
   14.3340  -44.8320   13.2170 O   0  5  0  0  0  0
   12.4100  -45.7860   13.7320 O   0  0  0  0  0  0
   10.3500  -47.4150   11.4340 N   0  0  0  0  0  0
   10.4050  -48.8370   11.0200 C   0  0  2  0  0  0
    9.2850  -49.5750   11.6020 C   0  0  0  0  0  0
    9.4480  -50.1090   12.7260 O   0  0  0  0  0  0
   11.7410  -49.4740   11.4860 C   0  0  0  0  0  0
   11.8670  -50.9470   11.0200 C   0  0  0  0  0  0
   10.9200  -51.5050   10.5290 O   0  0  0  0  0  0
   13.0720  -51.5230   11.1290 N   0  0  0  0  0  0
    8.1330  -49.5310   10.9310 N   0  0  0  0  0  0
    6.9180  -50.0420   11.5780 C   0  0  2  0  0  0
    6.9260  -51.5920   11.6600 C   0  0  0  0  0  0
    6.1370  -52.1600   12.4490 O   0  0  0  0  0  0
    5.6580  -49.5240   10.9070 C   0  0  0  0  0  0
    5.3050  -48.0990   11.4130 C   0  0  0  0  0  0
    5.0040  -47.9900   13.2250 S   0  0  0  0  0  0
    3.3970  -48.6100   13.1640 C   0  0  0  0  0  0
    7.7960  -52.2510   10.8900 N   0  0  0  0  0  0
    7.9210  -53.7190   11.0900 C   0  0  2  0  0  0
    8.4260  -53.9650   12.5440 C   0  0  0  0  0  0
    8.2020  -55.0590   13.0850 O   0  0  0  0  0  0
    8.9820  -54.2880   10.2040 C   0  0  0  0  0  0
    8.5810  -54.2840    8.7060 C   0  0  0  0  0  0
    7.3600  -54.1120    8.4320 O   0  5  0  0  0  0
    9.4940  -54.4820    7.8720 O   0  0  0  0  0  0
    9.3689  -52.0960   12.5710 H   0  0  0  0  0  0
    9.3150  -54.1505   14.7987 H   0  0  0  0  0  0
   11.1919  -51.7553   14.2704 H   0  0  0  0  0  0
   11.3201  -52.8226   15.7096 H   0  0  0  0  0  0
   12.8585  -53.6188   13.8610 H   0  0  0  0  0  0
    7.3828  -52.0990   13.9983 H   0  0  0  0  0  0
    6.0202  -50.5710   14.8096 H   0  0  0  0  0  0
    6.5913  -51.8801   17.5781 H   0  0  0  0  0  0
    5.2694  -50.6866   17.3445 H   0  0  0  0  0  0
    5.4983  -53.3868   15.9746 H   0  0  0  0  0  0
    5.0577  -53.5129   18.4369 H   0  0  0  0  0  0
    3.6487  -54.0668   17.4701 H   0  0  0  0  0  0
    3.6372  -52.4349   18.2206 H   0  0  0  0  0  0
    4.2047  -51.7568   14.6053 H   0  0  0  0  0  0
    3.1397  -51.4230   16.0128 H   0  0  0  0  0  0
    3.1511  -53.0549   15.2623 H   0  0  0  0  0  0
    8.5331  -49.5391   14.3852 H   0  0  0  0  0  0
    8.7057  -47.3052   16.5180 H   0  0  0  0  0  0
   10.7214  -48.1496   14.3994 H   0  0  0  0  0  0
   10.9358  -46.8601   15.6315 H   0  0  0  0  0  0
   10.4238  -49.8208   16.2740 H   0  0  0  0  0  0
   12.0400  -49.0369   16.2713 H   0  0  0  0  0  0
   11.1928  -47.4349   17.9885 H   0  0  0  0  0  0
    9.6728  -48.3895   18.0587 H   0  0  0  0  0  0
   11.2078  -50.4961   18.4568 H   0  0  0  0  0  0
   12.5406  -49.3302   18.7582 H   0  0  0  0  0  0
   11.3570  -49.9021   20.8526 H   0  0  0  0  0  0
    9.8191  -49.3374   20.1160 H   0  0  0  0  0  0
   11.1519  -48.1715   20.4174 H   0  0  0  0  0  0
    8.9235  -45.0448   15.5605 H   0  0  0  0  0  0
    7.0094  -44.8899   13.3459 H   0  0  0  0  0  0
    9.0394  -42.8388   14.4943 H   0  0  0  0  0  0
    7.3209  -43.7802   16.1606 H   0  0  0  0  0  0
    7.1266  -42.0136   15.9003 H   0  0  0  0  0  0
    8.2279  -42.0835   12.2727 H   0  0  0  0  0  0
    7.5971  -41.0323   13.5856 H   0  0  0  0  0  0
    6.5283  -42.2604   12.8266 H   0  0  0  0  0  0
    4.9011  -43.1527   16.0281 H   0  0  0  0  0  0
    5.3442  -44.2198   14.6528 H   0  0  0  0  0  0
    5.1499  -42.4531   14.3925 H   0  0  0  0  0  0
   10.4938  -44.9878   13.5348 H   0  0  0  0  0  0
   10.4982  -44.4590   10.6282 H   0  0  0  0  0  0
   13.1391  -44.6942   10.8508 H   0  0  0  0  0  0
   12.4117  -43.3878   11.8462 H   0  0  0  0  0  0
    9.6268  -47.0920   12.1973 H   0  0  0  0  0  0
   10.2847  -48.8721    9.9272 H   0  0  0  0  0  0
   12.5842  -48.9051   11.0672 H   0  0  0  0  0  0
   11.7939  -49.4527   12.5845 H   0  0  0  0  0  0
   13.9063  -50.9706   11.5859 H   0  0  0  0  0  0
   13.2268  -52.5482   10.7615 H   0  0  0  0  0  0
    8.0825  -49.1216    9.9113 H   0  0  0  0  0  0
    6.9483  -49.6149   12.5912 H   0  0  0  0  0  0
    5.8121  -49.4841    9.8186 H   0  0  0  0  0  0
    4.8183  -50.1974   11.1340 H   0  0  0  0  0  0
    6.1333  -47.4127   11.1832 H   0  0  0  0  0  0
    4.3895  -47.7489   10.9137 H   0  0  0  0  0  0
    2.9783  -48.6441   14.1806 H   0  0  0  0  0  0
    3.4113  -49.6245   12.7392 H   0  0  0  0  0  0
    2.7758  -47.9571   12.5333 H   0  0  0  0  0  0
    8.4084  -51.7455   10.1288 H   0  0  0  0  0  0
    6.9451  -54.1612   10.8408 H   0  0  0  0  0  0
    9.9025  -53.6946   10.3066 H   0  0  0  0  0  0
    9.1829  -55.3296   10.4949 H   0  0  0  0  0  0
  1  2  1  0  0  0
  1 58  1  0  0  0
  1 64  1  0  0  0
  2  3  1  0  0  0
  2  5  1  0  0  0
  2 65  1  0  0  0
  3  4  2  0  0  0
  3  7  1  0  0  0
  5  6  1  0  0  0
  5 66  1  0  0  0
  5 67  1  0  0  0
  6 68  1  0  0  0
  7  8  1  0  0  0
  7 69  1  0  0  0
  8  9  1  0  0  0
  8 11  1  0  0  0
  8 70  1  0  0  0
  9 10  2  0  0  0
  9 15  1  0  0  0
 11 12  1  0  0  0
 11 71  1  0  0  0
 11 72  1  0  0  0
 12 13  1  0  0  0
 12 14  1  0  0  0
 12 73  1  0  0  0
 13 74  1  0  0  0
 13 75  1  0  0  0
 13 76  1  0  0  0
 14 77  1  0  0  0
 14 78  1  0  0  0
 14 79  1  0  0  0
 15 16  1  0  0  0
 15 80  1  0  0  0
 16 17  1  0  0  0
 16 19  1  0  0  0
 16 81  1  0  0  0
 17 18  2  0  0  0
 17 24  1  0  0  0
 19 20  1  0  0  0
 19 82  1  0  0  0
 19 83  1  0  0  0
 20 21  1  0  0  0
 20 84  1  0  0  0
 20 85  1  0  0  0
 21 22  1  0  0  0
 21 86  1  0  0  0
 21 87  1  0  0  0
 22 23  1  0  0  0
 22 88  1  0  0  0
 22 89  1  0  0  0
 23 90  1  0  0  0
 23 91  1  0  0  0
 23 92  1  0  0  0
 24 25  1  0  0  0
 24 93  1  0  0  0
 25 26  1  0  0  0
 25 28  1  0  0  0
 25 94  1  0  0  0
 26 27  2  0  0  0
 26 32  1  0  0  0
 28 29  1  0  0  0
 28 30  1  0  0  0
 28 95  1  0  0  0
 29 31  1  0  0  0
 29 96  1  0  0  0
 29 97  1  0  0  0
 30 98  1  0  0  0
 30 99  1  0  0  0
 30100  1  0  0  0
 31101  1  0  0  0
 31102  1  0  0  0
 31103  1  0  0  0
 32 33  1  0  0  0
 32104  1  0  0  0
 33 34  1  0  0  0
 33 36  1  0  0  0
 33105  1  0  0  0
 34 35  2  0  0  0
 34 40  1  0  0  0
 36 37  1  0  0  0
 36106  1  0  0  0
 36107  1  0  0  0
 37 38  1  0  0  0
 37 39  2  0  0  0
 40 41  1  0  0  0
 40108  1  0  0  0
 41 42  1  0  0  0
 41 44  1  0  0  0
 41109  1  0  0  0
 42 43  2  0  0  0
 42 48  1  0  0  0
 44 45  1  0  0  0
 44110  1  0  0  0
 44111  1  0  0  0
 45 46  2  0  0  0
 45 47  1  0  0  0
 47112  1  0  0  0
 47113  1  0  0  0
 48 49  1  0  0  0
 48114  1  0  0  0
 49 50  1  0  0  0
 49 52  1  0  0  0
 49115  1  0  0  0
 50 51  2  0  0  0
 50 56  1  0  0  0
 52 53  1  0  0  0
 52116  1  0  0  0
 52117  1  0  0  0
 53 54  1  0  0  0
 53118  1  0  0  0
 53119  1  0  0  0
 54 55  1  0  0  0
 55120  1  0  0  0
 55121  1  0  0  0
 55122  1  0  0  0
 56 57  1  0  0  0
 56123  1  0  0  0
 57 58  1  0  0  0
 57 60  1  0  0  0
 57124  1  0  0  0
 58 59  2  0  0  0
 60 61  1  0  0  0
 60125  1  0  0  0
 60126  1  0  0  0
 61 62  1  0  0  0
 61 63  2  0  0  0
M  CHG  3  23   1  38  -1  62  -1
M  END
> <s_m_source_file>
../3avi_ligand.sdf

> <i_m_source_file_index>
1

> <s_epik_input>
W09IXVtDSDJdW0NAQEhdMVtOSF1DKD1PKVtDQEhdKFtDSDJdQyg9TylbT0hdKVtOSF1DKD1PKVtDQEhdKFtDSDJdW0NIMl1TW0NIM10pW05IXUMoPU8pW0NASF0oW0NIMl1DKD1PKVtOSDJdKVtOSF1DKD1PKVtDQEhdKFtDSDJdQyg9TylbT0hdKVtOSF1DKD1PKVtDQEhdKFtDQEBIXShbQ0gzXSlbQ0gyXVtDSDNdKVtOSF1DKD1PKVtDQEhdKFtDSDJdW0NIMl1bQ0gyXVtDSDJdW05IMytdKVtOSF1DKD1PKVtDQEBIXShbTkhdQzE9TylbQ0gyXVtDSF0oW0NIM10pW0NIM10=

> <s_epik_cmdline>
J2VwaWtfYXBwJywgJy1pbWFlJywgJ2xpZ2FuZF9wcm8ubWFlJywgJy1vbWFlJywgJ2xpZ2FuZF9wcmVwLm1hZScsICctbXMnLCAnMScsICctcGgnLCAnNycsICctcGh0JywgJzAuNScsICctbnQn

> <r_lp_tautomer_probability>
1

> <r_epik_Ionization_Penalty>
  0.0028

> <r_epik_Ionization_Penalty_Charging>
  0.0028

> <r_epik_Ionization_Penalty_Neutral>
  0.0000

> <r_epik_State_Penalty>
 -0.0000

> <r_epik_Charging_Adjusted_Penalty>
0.00279140738987678

> <i_epik_Tot_Q>
-1

> <i_epik_Tot_abs_Q>
3

$$$$
