3avj_ligand
                    3D
 Schrodinger Suite 2020-3.
125125  0  0  1  0            999 V2000
    9.2490  -52.9490   13.1590 N   0  0  0  0  0  0
    9.7660  -53.0350   14.5390 C   0  0  2  0  0  0
    8.8910  -52.1760   15.4910 C   0  0  0  0  0  0
    9.3080  -51.9740   16.6380 O   0  0  0  0  0  0
   11.1650  -52.5420   14.6250 C   0  0  0  0  0  0
    7.6990  -51.7870   15.0470 N   0  0  0  0  0  0
    6.7480  -50.8610   15.6940 C   0  0  2  0  0  0
    7.4630  -49.5760   16.1600 C   0  0  0  0  0  0
    7.1950  -49.0820   17.2850 O   0  0  0  0  0  0
    5.9580  -51.5050   16.9090 C   0  0  0  0  0  0
    4.9620  -52.6530   16.5000 C   0  0  0  0  0  0
    4.3350  -53.2570   17.7360 C   0  0  0  0  0  0
    3.8640  -52.1210   15.5650 C   0  0  0  0  0  0
    8.3310  -49.0350   15.3040 N   0  0  0  0  0  0
    8.9480  -47.7310   15.5630 C   0  0  2  0  0  0
    8.4930  -46.7970   14.4240 C   0  0  0  0  0  0
    8.1390  -47.2690   13.3330 O   0  0  0  0  0  0
   10.4390  -47.8410   15.5180 C   0  0  0  0  0  0
   10.9690  -48.8830   16.5480 C   0  0  0  0  0  0
   10.7330  -48.4710   18.0190 C   0  0  0  0  0  0
   11.4410  -49.5290   18.9760 C   0  0  0  0  0  0
   10.9270  -49.1570   20.3190 N   0  3  0  0  0  0
    8.5220  -45.4850   14.6680 N   0  0  0  0  0  0
    8.0230  -44.5530   13.6670 C   0  0  2  0  0  0
    8.8450  -44.6400   12.3990 C   0  0  0  0  0  0
    8.3800  -44.3010   11.2990 O   0  0  0  0  0  0
    8.0320  -43.1120   14.2520 C   0  0  2  0  0  0
    7.0430  -42.9740   15.4610 C   0  0  0  0  0  0
    7.6900  -42.0540   13.1910 C   0  0  0  0  0  0
    5.4910  -43.2740   15.1200 C   0  0  0  0  0  0
   10.1270  -44.9510   12.5970 N   0  0  0  0  0  0
   11.0250  -45.0510   11.4840 C   0  0  2  0  0  0
   11.1410  -46.4820   10.9610 C   0  0  0  0  0  0
   11.9580  -46.7030   10.0520 O   0  0  0  0  0  0
   12.4520  -44.5130   11.8340 C   0  0  0  0  0  0
   13.0520  -45.1590   13.0590 C   0  0  0  0  0  0
   12.3970  -45.9140   13.7740 O   0  0  0  0  0  0
   14.2840  -44.9010   13.3230 O   0  5  0  0  0  0
   10.3860  -47.4520   11.4830 N   0  0  0  0  0  0
   10.4330  -48.8770   11.0420 C   0  0  2  0  0  0
    9.2910  -49.5930   11.6790 C   0  0  0  0  0  0
    9.4290  -50.1230   12.7820 O   0  0  0  0  0  0
   11.7620  -49.5000   11.4500 C   0  0  0  0  0  0
   11.8400  -50.9690   11.0710 C   0  0  0  0  0  0
   10.8960  -51.5070   10.5710 O   0  0  0  0  0  0
   13.0180  -51.5460   11.2040 N   0  0  0  0  0  0
    8.1480  -49.5390   11.0030 N   0  0  0  0  0  0
    6.9500  -50.0530   11.6640 C   0  0  2  0  0  0
    6.9820  -51.5730   11.6780 C   0  0  0  0  0  0
    6.2050  -52.1600   12.4590 O   0  0  0  0  0  0
    5.7060  -49.5070   11.0210 C   0  0  0  0  0  0
    5.3570  -48.0840   11.4670 C   0  0  0  0  0  0
    4.9950  -47.9960   13.2760 S   0  0  0  0  0  0
    3.3860  -48.7230   13.2210 C   0  0  0  0  0  0
    7.8890  -52.2200   10.9260 N   0  0  0  0  0  0
    7.9840  -53.6860   11.1440 C   0  0  2  0  0  0
    8.5140  -53.9120   12.5840 C   0  0  0  0  0  0
    8.2980  -55.0170   13.1460 O   0  0  0  0  0  0
    9.0460  -54.2660   10.2580 C   0  0  0  0  0  0
    8.6030  -54.3200    8.7690 C   0  0  0  0  0  0
    7.3490  -54.1480    8.5490 O   0  5  0  0  0  0
    9.5130  -54.5500    7.9240 O   0  0  0  0  0  0
    9.4618  -52.0605   12.5463 H   0  0  0  0  0  0
    9.7608  -54.1051   14.7935 H   0  0  0  0  0  0
   11.8052  -53.1372   13.9572 H   0  0  0  0  0  0
   11.5248  -52.6386   15.6600 H   0  0  0  0  0  0
   11.2007  -51.4853   14.3215 H   0  0  0  0  0  0
    7.4490  -52.2439   14.0781 H   0  0  0  0  0  0
    6.0522  -50.6346   14.8727 H   0  0  0  0  0  0
    6.6736  -51.9396   17.6225 H   0  0  0  0  0  0
    5.3637  -50.7285   17.4128 H   0  0  0  0  0  0
    5.5035  -53.4522   15.9726 H   0  0  0  0  0  0
    5.1256  -53.6356   18.4005 H   0  0  0  0  0  0
    3.6735  -54.0859   17.4438 H   0  0  0  0  0  0
    3.7497  -52.4890   18.2629 H   0  0  0  0  0  0
    4.3266  -51.6831   14.6682 H   0  0  0  0  0  0
    3.2780  -51.3512   16.0884 H   0  0  0  0  0  0
    3.2017  -52.9481   15.2694 H   0  0  0  0  0  0
    8.5810  -49.5894   14.3874 H   0  0  0  0  0  0
    8.6558  -47.3963   16.5693 H   0  0  0  0  0  0
   10.7532  -48.1566   14.5122 H   0  0  0  0  0  0
   10.8860  -46.8635   15.7519 H   0  0  0  0  0  0
   10.4608  -49.8457   16.3902 H   0  0  0  0  0  0
   12.0528  -49.0139   16.4126 H   0  0  0  0  0  0
   11.1587  -47.4717   18.1927 H   0  0  0  0  0  0
    9.6527  -48.4502   18.2252 H   0  0  0  0  0  0
   11.1487  -50.5466   18.6774 H   0  0  0  0  0  0
   12.5329  -49.4228   18.8959 H   0  0  0  0  0  0
   11.3552  -49.8314   21.0752 H   0  0  0  0  0  0
    9.8305  -49.2440   20.3289 H   0  0  0  0  0  0
   11.2147  -48.1201   20.5474 H   0  0  0  0  0  0
    8.9209  -45.1071   15.6209 H   0  0  0  0  0  0
    7.0007  -44.8774   13.4226 H   0  0  0  0  0  0
    9.0623  -42.9236   14.5880 H   0  0  0  0  0  0
    7.3314  -43.6807   16.2531 H   0  0  0  0  0  0
    7.0842  -41.9471   15.8530 H   0  0  0  0  0  0
    8.3827  -42.1491   12.3418 H   0  0  0  0  0  0
    7.7843  -41.0501   13.6306 H   0  0  0  0  0  0
    6.6582  -42.2057   12.8412 H   0  0  0  0  0  0
    4.8852  -43.1504   16.0298 H   0  0  0  0  0  0
    5.3897  -44.3046   14.7492 H   0  0  0  0  0  0
    5.1425  -42.5710   14.3491 H   0  0  0  0  0  0
   10.4945  -45.1309   13.6181 H   0  0  0  0  0  0
   10.5141  -44.4229   10.7394 H   0  0  0  0  0  0
   13.1331  -44.7053   10.9919 H   0  0  0  0  0  0
   12.3996  -43.4307   12.0233 H   0  0  0  0  0  0
    9.6982  -47.1470   12.2854 H   0  0  0  0  0  0
   10.3300  -48.9403    9.9487 H   0  0  0  0  0  0
   12.5848  -48.9707   10.9471 H   0  0  0  0  0  0
   11.8858  -49.4188   12.5400 H   0  0  0  0  0  0
   13.8488  -50.9985   11.6731 H   0  0  0  0  0  0
   13.1701  -52.5749   10.8458 H   0  0  0  0  0  0
    8.0810  -49.1281    9.9848 H   0  0  0  0  0  0
    6.9612  -49.6836   12.7000 H   0  0  0  0  0  0
    5.8369  -49.4853    9.9290 H   0  0  0  0  0  0
    4.8498  -50.1492   11.2749 H   0  0  0  0  0  0
    6.2033  -47.4147   11.2529 H   0  0  0  0  0  0
    4.4675  -47.7364   10.9212 H   0  0  0  0  0  0
    2.9694  -48.7688   14.2380 H   0  0  0  0  0  0
    3.4571  -49.7399   12.8077 H   0  0  0  0  0  0
    2.7296  -48.1130   12.5830 H   0  0  0  0  0  0
    8.5386  -51.7309   10.1852 H   0  0  0  0  0  0
    6.9981  -54.1207   10.9227 H   0  0  0  0  0  0
    9.9543  -53.6489   10.3222 H   0  0  0  0  0  0
    9.2756  -55.2913   10.5837 H   0  0  0  0  0  0
  1  2  1  0  0  0
  1 57  1  0  0  0
  1 63  1  0  0  0
  2  3  1  0  0  0
  2  5  1  0  0  0
  2 64  1  0  0  0
  3  4  2  0  0  0
  3  6  1  0  0  0
  5 65  1  0  0  0
  5 66  1  0  0  0
  5 67  1  0  0  0
  6  7  1  0  0  0
  6 68  1  0  0  0
  7  8  1  0  0  0
  7 10  1  0  0  0
  7 69  1  0  0  0
  8  9  2  0  0  0
  8 14  1  0  0  0
 10 11  1  0  0  0
 10 70  1  0  0  0
 10 71  1  0  0  0
 11 12  1  0  0  0
 11 13  1  0  0  0
 11 72  1  0  0  0
 12 73  1  0  0  0
 12 74  1  0  0  0
 12 75  1  0  0  0
 13 76  1  0  0  0
 13 77  1  0  0  0
 13 78  1  0  0  0
 14 15  1  0  0  0
 14 79  1  0  0  0
 15 16  1  0  0  0
 15 18  1  0  0  0
 15 80  1  0  0  0
 16 17  2  0  0  0
 16 23  1  0  0  0
 18 19  1  0  0  0
 18 81  1  0  0  0
 18 82  1  0  0  0
 19 20  1  0  0  0
 19 83  1  0  0  0
 19 84  1  0  0  0
 20 21  1  0  0  0
 20 85  1  0  0  0
 20 86  1  0  0  0
 21 22  1  0  0  0
 21 87  1  0  0  0
 21 88  1  0  0  0
 22 89  1  0  0  0
 22 90  1  0  0  0
 22 91  1  0  0  0
 23 24  1  0  0  0
 23 92  1  0  0  0
 24 25  1  0  0  0
 24 27  1  0  0  0
 24 93  1  0  0  0
 25 26  2  0  0  0
 25 31  1  0  0  0
 27 28  1  0  0  0
 27 29  1  0  0  0
 27 94  1  0  0  0
 28 30  1  0  0  0
 28 95  1  0  0  0
 28 96  1  0  0  0
 29 97  1  0  0  0
 29 98  1  0  0  0
 29 99  1  0  0  0
 30100  1  0  0  0
 30101  1  0  0  0
 30102  1  0  0  0
 31 32  1  0  0  0
 31103  1  0  0  0
 32 33  1  0  0  0
 32 35  1  0  0  0
 32104  1  0  0  0
 33 34  2  0  0  0
 33 39  1  0  0  0
 35 36  1  0  0  0
 35105  1  0  0  0
 35106  1  0  0  0
 36 37  2  0  0  0
 36 38  1  0  0  0
 39 40  1  0  0  0
 39107  1  0  0  0
 40 41  1  0  0  0
 40 43  1  0  0  0
 40108  1  0  0  0
 41 42  2  0  0  0
 41 47  1  0  0  0
 43 44  1  0  0  0
 43109  1  0  0  0
 43110  1  0  0  0
 44 45  2  0  0  0
 44 46  1  0  0  0
 46111  1  0  0  0
 46112  1  0  0  0
 47 48  1  0  0  0
 47113  1  0  0  0
 48 49  1  0  0  0
 48 51  1  0  0  0
 48114  1  0  0  0
 49 50  2  0  0  0
 49 55  1  0  0  0
 51 52  1  0  0  0
 51115  1  0  0  0
 51116  1  0  0  0
 52 53  1  0  0  0
 52117  1  0  0  0
 52118  1  0  0  0
 53 54  1  0  0  0
 54119  1  0  0  0
 54120  1  0  0  0
 54121  1  0  0  0
 55 56  1  0  0  0
 55122  1  0  0  0
 56 57  1  0  0  0
 56 59  1  0  0  0
 56123  1  0  0  0
 57 58  2  0  0  0
 59 60  1  0  0  0
 59124  1  0  0  0
 59125  1  0  0  0
 60 61  1  0  0  0
 60 62  2  0  0  0
M  CHG  3  22   1  38  -1  61  -1
M  END
> <s_m_source_file>
../3avj_ligand.sdf

> <i_m_source_file_index>
1

> <s_epik_input>
W0NIM11bQ0BASF0xW05IXUMoPU8pW0NASF0oW0NIMl1DKD1PKVtPSF0pW05IXUMoPU8pW0NASF0oW0NIMl1bQ0gyXVNbQ0gzXSlbTkhdQyg9TylbQ0BIXShbQ0gyXUMoPU8pW05IMl0pW05IXUMoPU8pW0NASF0oW0NIMl1DKD1PKVtPSF0pW05IXUMoPU8pW0NASF0oW0NAQEhdKFtDSDNdKVtDSDJdW0NIM10pW05IXUMoPU8pW0NASF0oW0NIMl1bQ0gyXVtDSDJdW0NIMl1bTkgzK10pW05IXUMoPU8pW0NAQEhdKFtOSF1DMT1PKVtDSDJdW0NIXShbQ0gzXSlbQ0gzXQ==

> <s_epik_cmdline>
J2VwaWtfYXBwJywgJy1pbWFlJywgJ2xpZ2FuZF9wcm8ubWFlJywgJy1vbWFlJywgJ2xpZ2FuZF9wcmVwLm1hZScsICctbXMnLCAnMScsICctcGgnLCAnNycsICctcGh0JywgJzAuNScsICctbnQn

> <r_lp_tautomer_probability>
1

> <r_epik_Ionization_Penalty>
  0.0028

> <r_epik_Ionization_Penalty_Charging>
  0.0028

> <r_epik_Ionization_Penalty_Neutral>
  0.0000

> <r_epik_State_Penalty>
 -0.0000

> <r_epik_Charging_Adjusted_Penalty>
0.00282417697834339

> <i_epik_Tot_Q>
-1

> <i_epik_Tot_abs_Q>
3

$$$$
