3avk_ligand
                    3D
 Schrodinger Suite 2020-3.
124124  0  0  1  0            999 V2000
  -41.2960   34.4020  -13.9680 N   0  0  0  0  0  0
  -41.2570   34.8940  -15.3250 C   0  0  2  0  0  0
  -40.8230   33.7920  -16.3150 C   0  0  0  0  0  0
  -40.4320   34.0990  -17.4550 O   0  0  0  0  0  0
  -40.4430   36.1860  -15.4160 C   0  0  0  0  0  0
  -39.1610   36.0280  -14.8390 O   0  0  0  0  0  0
  -40.9730   32.5300  -15.8850 N   0  0  0  0  0  0
  -40.6630   31.3110  -16.6780 C   0  0  2  0  0  0
  -39.1720   31.2270  -17.1050 C   0  0  0  0  0  0
  -38.8510   30.6490  -18.1460 O   0  0  0  0  0  0
  -41.6270   31.0900  -17.8960 C   0  0  0  0  0  0
  -43.1420   30.8970  -17.5790 C   0  0  0  0  0  0
  -44.0970   31.2380  -18.7950 C   0  0  0  0  0  0
  -43.4730   29.5210  -16.8540 C   0  0  0  0  0  0
  -38.2790   31.7570  -16.2610 N   0  0  0  0  0  0
  -36.8290   31.6460  -16.4770 C   0  0  2  0  0  0
  -36.2930   30.7710  -15.3300 C   0  0  0  0  0  0
  -36.9250   30.6890  -14.2570 O   0  0  0  0  0  0
  -36.2020   33.0240  -16.4020 C   0  0  0  0  0  0
  -36.9150   33.9960  -17.4400 C   0  0  0  0  0  0
  -36.6110   33.5380  -18.8770 C   0  0  0  0  0  0
  -36.9950   34.7190  -19.8490 C   0  0  0  0  0  0
  -37.0460   34.1980  -21.2300 N   0  3  0  0  0  0
  -35.1780   30.0940  -15.5660 N   0  0  0  0  0  0
  -34.5690   29.2280  -14.5370 C   0  0  2  0  0  0
  -34.2560   29.9130  -13.2290 C   0  0  0  0  0  0
  -34.3300   29.2760  -12.1120 O   0  0  0  0  0  0
  -33.3300   28.5190  -15.1570 C   0  0  2  0  0  0
  -33.8620   27.6850  -16.3350 C   0  0  0  0  0  0
  -32.5650   27.6490  -14.1320 C   0  0  0  0  0  0
  -34.6250   26.3010  -15.9640 C   0  0  0  0  0  0
  -33.8940   31.1960  -13.3770 N   0  0  0  0  0  0
  -33.5110   32.0810  -12.2640 C   0  0  2  0  0  0
  -34.7130   32.8880  -11.7420 C   0  0  0  0  0  0
  -34.5860   33.6590  -10.7480 O   0  0  0  0  0  0
  -32.3120   33.0520  -12.6490 C   0  0  0  0  0  0
  -32.5640   33.9360  -13.9630 C   0  0  0  0  0  0
  -31.7270   34.8740  -14.2790 O   0  5  0  0  0  0
  -33.5240   33.7090  -14.7210 O   0  0  0  0  0  0
  -35.8940   32.6680  -12.3200 N   0  0  0  0  0  0
  -37.0820   33.4070  -11.8690 C   0  0  2  0  0  0
  -38.3180   32.7950  -12.4780 C   0  0  0  0  0  0
  -38.7960   33.2420  -13.5690 O   0  0  0  0  0  0
  -37.0020   34.8630  -12.2760 C   0  0  0  0  0  0
  -38.2040   35.6530  -11.8220 C   0  0  0  0  0  0
  -39.0990   35.1260  -11.1570 O   0  0  0  0  0  0
  -38.2340   36.9250  -12.1900 N   0  0  0  0  0  0
  -38.8120   31.7480  -11.8250 N   0  0  0  0  0  0
  -39.8520   30.9710  -12.4970 C   0  0  2  0  0  0
  -41.1960   31.7370  -12.5570 C   0  0  0  0  0  0
  -42.0470   31.3280  -13.3630 O   0  0  0  0  0  0
  -40.0180   29.5480  -11.9360 C   0  0  0  0  0  0
  -38.9970   28.5750  -12.4830 C   0  0  0  0  0  0
  -39.0200   28.3430  -14.0050 C   0  0  0  0  0  0
  -40.0570   28.5550  -14.6190 O   0  0  0  0  0  0
  -37.9940   27.8680  -14.5880 O   0  5  0  0  0  0
  -41.3670   32.8220  -11.7530 N   0  0  0  0  0  0
  -42.4980   33.7510  -11.9290 C   0  0  2  0  0  0
  -42.4790   34.3160  -13.3490 C   0  0  0  0  0  0
  -43.5290   34.7140  -13.8640 O   0  0  0  0  0  0
  -42.3980   34.9650  -10.9990 C   0  0  0  0  0  0
  -42.6630   34.6120   -9.5690 C   0  0  0  0  0  0
  -43.0800   33.4600   -9.3350 O   0  5  0  0  0  0
  -42.4500   35.4660   -8.6870 O   0  0  0  0  0  0
  -40.3644   34.1065  -13.4631 H   0  0  0  0  0  0
  -42.2990   35.1543  -15.5629 H   0  0  0  0  0  0
  -40.3189   36.4676  -16.4721 H   0  0  0  0  0  0
  -40.9703   36.9900  -14.8817 H   0  0  0  0  0  0
  -38.4554   36.8718  -14.8272 H   0  0  0  0  0  0
  -41.3583   32.4355  -14.8590 H   0  0  0  0  0  0
  -40.8512   30.5182  -15.9390 H   0  0  0  0  0  0
  -41.5755   31.9602  -18.5669 H   0  0  0  0  0  0
  -41.3238   30.1858  -18.4443 H   0  0  0  0  0  0
  -43.3538   31.6758  -16.8316 H   0  0  0  0  0  0
  -43.7994   32.2007  -19.2362 H   0  0  0  0  0  0
  -45.1355   31.3035  -18.4384 H   0  0  0  0  0  0
  -44.0195   30.4467  -19.5551 H   0  0  0  0  0  0
  -42.7658   29.3633  -16.0263 H   0  0  0  0  0  0
  -43.3831   28.6955  -17.5755 H   0  0  0  0  0  0
  -44.4990   29.5524  -16.4587 H   0  0  0  0  0  0
  -38.6645   32.2909  -15.3799 H   0  0  0  0  0  0
  -36.6304   31.2211  -17.4720 H   0  0  0  0  0  0
  -36.3213   33.4263  -15.3852 H   0  0  0  0  0  0
  -35.1315   32.9535  -16.6451 H   0  0  0  0  0  0
  -38.0022   33.9755  -17.2742 H   0  0  0  0  0  0
  -36.5418   35.0210  -17.2985 H   0  0  0  0  0  0
  -35.5406   33.3011  -18.9676 H   0  0  0  0  0  0
  -37.2058   32.6425  -19.1100 H   0  0  0  0  0  0
  -37.9782   35.1224  -19.5653 H   0  0  0  0  0  0
  -36.2380   35.5139  -19.7772 H   0  0  0  0  0  0
  -37.3131   35.0124  -21.9195 H   0  0  0  0  0  0
  -37.8016   33.4011  -21.2936 H   0  0  0  0  0  0
  -36.0613   33.7925  -21.5055 H   0  0  0  0  0  0
  -34.7059   30.1884  -16.5551 H   0  0  0  0  0  0
  -35.3612   28.5206  -14.2505 H   0  0  0  0  0  0
  -32.5873   29.2536  -15.5018 H   0  0  0  0  0  0
  -34.5874   28.2811  -16.9082 H   0  0  0  0  0  0
  -33.0251   27.3982  -16.9887 H   0  0  0  0  0  0
  -32.2036   28.2838  -13.3096 H   0  0  0  0  0  0
  -31.7089   27.1671  -14.6267 H   0  0  0  0  0  0
  -33.2386   26.8774  -13.7308 H   0  0  0  0  0  0
  -34.9534   25.8041  -16.8888 H   0  0  0  0  0  0
  -35.5004   26.5220  -15.3357 H   0  0  0  0  0  0
  -33.9381   25.6391  -15.4162 H   0  0  0  0  0  0
  -33.8945   31.5782  -14.4085 H   0  0  0  0  0  0
  -33.2029   31.3682  -11.4849 H   0  0  0  0  0  0
  -32.1292   33.7545  -11.8225 H   0  0  0  0  0  0
  -31.4043   32.4586  -12.8333 H   0  0  0  0  0  0
  -35.9795   31.9335  -13.1344 H   0  0  0  0  0  0
  -37.1059   33.3285  -10.7721 H   0  0  0  0  0  0
  -36.1065   35.3199  -11.8295 H   0  0  0  0  0  0
  -36.9424   34.9346  -13.3720 H   0  0  0  0  0  0
  -37.4087   37.3455  -12.7834 H   0  0  0  0  0  0
  -39.0842   37.5609  -11.9022 H   0  0  0  0  0  0
  -38.4704   31.4569  -10.8207 H   0  0  0  0  0  0
  -39.4447   30.8670  -13.5135 H   0  0  0  0  0  0
  -39.9064   29.5699  -10.8419 H   0  0  0  0  0  0
  -41.0164   29.1658  -12.1951 H   0  0  0  0  0  0
  -37.9846   28.9352  -12.2480 H   0  0  0  0  0  0
  -39.1501   27.5867  -12.0248 H   0  0  0  0  0  0
  -40.6314   32.9962  -10.9540 H   0  0  0  0  0  0
  -43.3886   33.1454  -11.7053 H   0  0  0  0  0  0
  -41.3863   35.3923  -11.0613 H   0  0  0  0  0  0
  -43.1352   35.7223  -11.3040 H   0  0  0  0  0  0
  1  2  1  0  0  0
  1 59  1  0  0  0
  1 65  1  0  0  0
  2  3  1  0  0  0
  2  5  1  0  0  0
  2 66  1  0  0  0
  3  4  2  0  0  0
  3  7  1  0  0  0
  5  6  1  0  0  0
  5 67  1  0  0  0
  5 68  1  0  0  0
  6 69  1  0  0  0
  7  8  1  0  0  0
  7 70  1  0  0  0
  8  9  1  0  0  0
  8 11  1  0  0  0
  8 71  1  0  0  0
  9 10  2  0  0  0
  9 15  1  0  0  0
 11 12  1  0  0  0
 11 72  1  0  0  0
 11 73  1  0  0  0
 12 13  1  0  0  0
 12 14  1  0  0  0
 12 74  1  0  0  0
 13 75  1  0  0  0
 13 76  1  0  0  0
 13 77  1  0  0  0
 14 78  1  0  0  0
 14 79  1  0  0  0
 14 80  1  0  0  0
 15 16  1  0  0  0
 15 81  1  0  0  0
 16 17  1  0  0  0
 16 19  1  0  0  0
 16 82  1  0  0  0
 17 18  2  0  0  0
 17 24  1  0  0  0
 19 20  1  0  0  0
 19 83  1  0  0  0
 19 84  1  0  0  0
 20 21  1  0  0  0
 20 85  1  0  0  0
 20 86  1  0  0  0
 21 22  1  0  0  0
 21 87  1  0  0  0
 21 88  1  0  0  0
 22 23  1  0  0  0
 22 89  1  0  0  0
 22 90  1  0  0  0
 23 91  1  0  0  0
 23 92  1  0  0  0
 23 93  1  0  0  0
 24 25  1  0  0  0
 24 94  1  0  0  0
 25 26  1  0  0  0
 25 28  1  0  0  0
 25 95  1  0  0  0
 26 27  2  0  0  0
 26 32  1  0  0  0
 28 29  1  0  0  0
 28 30  1  0  0  0
 28 96  1  0  0  0
 29 31  1  0  0  0
 29 97  1  0  0  0
 29 98  1  0  0  0
 30 99  1  0  0  0
 30100  1  0  0  0
 30101  1  0  0  0
 31102  1  0  0  0
 31103  1  0  0  0
 31104  1  0  0  0
 32 33  1  0  0  0
 32105  1  0  0  0
 33 34  1  0  0  0
 33 36  1  0  0  0
 33106  1  0  0  0
 34 35  2  0  0  0
 34 40  1  0  0  0
 36 37  1  0  0  0
 36107  1  0  0  0
 36108  1  0  0  0
 37 38  1  0  0  0
 37 39  2  0  0  0
 40 41  1  0  0  0
 40109  1  0  0  0
 41 42  1  0  0  0
 41 44  1  0  0  0
 41110  1  0  0  0
 42 43  2  0  0  0
 42 48  1  0  0  0
 44 45  1  0  0  0
 44111  1  0  0  0
 44112  1  0  0  0
 45 46  2  0  0  0
 45 47  1  0  0  0
 47113  1  0  0  0
 47114  1  0  0  0
 48 49  1  0  0  0
 48115  1  0  0  0
 49 50  1  0  0  0
 49 52  1  0  0  0
 49116  1  0  0  0
 50 51  2  0  0  0
 50 57  1  0  0  0
 52 53  1  0  0  0
 52117  1  0  0  0
 52118  1  0  0  0
 53 54  1  0  0  0
 53119  1  0  0  0
 53120  1  0  0  0
 54 55  2  0  0  0
 54 56  1  0  0  0
 57 58  1  0  0  0
 57121  1  0  0  0
 58 59  1  0  0  0
 58 61  1  0  0  0
 58122  1  0  0  0
 59 60  2  0  0  0
 61 62  1  0  0  0
 61123  1  0  0  0
 61124  1  0  0  0
 62 63  1  0  0  0
 62 64  2  0  0  0
M  CHG  4  23   1  38  -1  56  -1  63  -1
M  END
> <s_m_source_file>
../3avk_ligand.sdf

> <i_m_source_file_index>
1

> <s_epik_input>
W09IXVtDSDJdW0NAQEhdMVtOSF1DKD1PKVtDQEhdKFtDSDJdQyg9TylbT0hdKVtOSF1DKD1PKVtDQEhdKFtDSDJdW0NIMl1DKD1PKVtPSF0pW05IXUMoPU8pW0NASF0oW0NIMl1DKD1PKVtOSDJdKVtOSF1DKD1PKVtDQEhdKFtDSDJdQyg9TylbT0hdKVtOSF1DKD1PKVtDQEhdKFtDQEBIXShbQ0gzXSlbQ0gyXVtDSDNdKVtOSF1DKD1PKVtDQEhdKFtDSDJdW0NIMl1bQ0gyXVtDSDJdW05IMytdKVtOSF1DKD1PKVtDQEBIXShbTkhdQzE9TylbQ0gyXVtDSF0oW0NIM10pW0NIM10=

> <s_epik_cmdline>
J2VwaWtfYXBwJywgJy1pbWFlJywgJ2xpZ2FuZF9wcm8ubWFlJywgJy1vbWFlJywgJ2xpZ2FuZF9wcmVwLm1hZScsICctbXMnLCAnMScsICctcGgnLCAnNycsICctcGh0JywgJzAuNScsICctbnQn

> <r_lp_tautomer_probability>
1

> <r_epik_Ionization_Penalty>
  0.0045

> <r_epik_Ionization_Penalty_Charging>
  0.0045

> <r_epik_Ionization_Penalty_Neutral>
  0.0000

> <r_epik_State_Penalty>
 -0.0000

> <r_epik_Charging_Adjusted_Penalty>
0.00454815836419724

> <i_epik_Tot_Q>
-2

> <i_epik_Tot_abs_Q>
4

$$$$
