3avl_ligand
                    3D
 Schrodinger Suite 2020-3.
122122  0  0  1  0            999 V2000
   -6.2260  -14.9730    4.3020 N   0  0  0  0  0  0
   -5.8400  -15.5130    5.6110 C   0  0  2  0  0  0
   -5.4590  -14.4060    6.6190 C   0  0  0  0  0  0
   -4.8390  -14.6850    7.6540 O   0  0  0  0  0  0
   -4.6790  -16.5440    5.4390 C   0  0  0  0  0  0
   -5.8370  -13.1580    6.3200 N   0  0  0  0  0  0
   -5.4040  -11.9250    7.0780 C   0  0  2  0  0  0
   -3.8840  -11.7070    7.2240 C   0  0  0  0  0  0
   -3.3990  -11.3100    8.2830 O   0  0  0  0  0  0
   -6.1160  -11.7710    8.4930 C   0  0  2  0  0  0
   -7.4510  -12.3020    8.4190 O   0  0  0  0  0  0
   -6.1470  -10.2630    8.9610 C   0  0  0  0  0  0
   -3.1320  -11.9610    6.1530 N   0  0  0  0  0  0
   -1.6750  -11.8070    6.1850 C   0  0  2  0  0  0
   -1.2870  -10.9550    4.9860 C   0  0  0  0  0  0
   -1.9740  -10.9860    3.9850 O   0  0  0  0  0  0
   -1.0110  -13.1940    6.0740 C   0  0  0  0  0  0
   -1.4520  -14.2080    7.1490 C   0  0  0  0  0  0
   -0.8840  -13.8080    8.5030 C   0  0  0  0  0  0
   -1.4570  -14.7690    9.5990 C   0  0  0  0  0  0
   -0.9680  -14.2560   10.8870 N   0  3  0  0  0  0
   -0.1900  -10.2040    5.0680 N   0  0  0  0  0  0
    0.2490   -9.3470    3.9330 C   0  0  2  0  0  0
    0.4240  -10.1690    2.6330 C   0  0  0  0  0  0
    0.1110   -9.7000    1.5040 O   0  0  0  0  0  0
    1.5850   -8.6210    4.2600 C   0  0  2  0  0  0
    1.7350   -7.3230    3.4580 C   0  0  0  0  0  0
    2.7440   -9.5350    3.9740 C   0  0  0  0  0  0
    1.0620   -6.1450    4.0870 C   0  0  0  0  0  0
    0.8980  -11.4070    2.8140 N   0  0  0  0  0  0
    1.1900  -12.3120    1.6820 C   0  0  2  0  0  0
    0.0180  -13.2820    1.4570 C   0  0  0  0  0  0
    0.1200  -14.1720    0.6310 O   0  0  0  0  0  0
    2.5270  -13.0860    1.8970 C   0  0  0  0  0  0
    2.5280  -13.9040    3.1650 C   0  0  0  0  0  0
    3.4320  -14.7310    3.3620 O   0  0  0  0  0  0
    1.6000  -13.7580    4.0030 O   0  5  0  0  0  0
   -1.0580  -13.1450    2.2380 N   0  0  0  0  0  0
   -2.2940  -13.9050    1.9560 C   0  0  2  0  0  0
   -3.4360  -13.1270    2.5890 C   0  0  0  0  0  0
   -3.7790  -13.2700    3.8100 O   0  0  0  0  0  0
   -2.1960  -15.3790    2.4070 C   0  0  0  0  0  0
   -3.4130  -16.2380    1.9570 C   0  0  0  0  0  0
   -4.4360  -15.7290    1.4930 O   0  0  0  0  0  0
   -3.2890  -17.5500    2.1220 N   0  0  0  0  0  0
   -3.9770  -12.2250    1.7680 N   0  0  0  0  0  0
   -4.9670  -11.2910    2.3190 C   0  0  2  0  0  0
   -6.2170  -12.0610    2.8330 C   0  0  0  0  0  0
   -6.8020  -11.6590    3.8460 O   0  0  0  0  0  0
   -5.3010  -10.1720    1.3350 C   0  0  0  0  0  0
   -4.2000   -9.0950    1.1990 C   0  0  0  0  0  0
   -4.6960   -8.0770    0.2120 C   0  0  0  0  0  0
   -3.8170   -8.4190    2.5750 C   0  0  0  0  0  0
   -6.5550  -13.1740    2.1610 N   0  0  0  0  0  0
   -7.6520  -14.1010    2.5530 C   0  0  2  0  0  0
   -7.4870  -14.7030    3.9460 C   0  0  0  0  0  0
   -8.4780  -14.9330    4.6550 O   0  0  0  0  0  0
   -7.7620  -15.2550    1.5490 C   0  0  0  0  0  0
   -8.5810  -14.8880    0.3360 C   0  0  0  0  0  0
   -9.4030  -13.9500    0.4490 O   0  0  0  0  0  0
   -8.3890  -15.5240   -0.7280 O   0  5  0  0  0  0
   -5.4564  -14.7660    3.5438 H   0  0  0  0  0  0
   -6.7531  -15.9995    5.9846 H   0  0  0  0  0  0
   -4.9796  -17.3177    4.7171 H   0  0  0  0  0  0
   -4.4588  -17.0134    6.4091 H   0  0  0  0  0  0
   -3.7812  -16.0269    5.0696 H   0  0  0  0  0  0
   -6.5103  -13.0638    5.4552 H   0  0  0  0  0  0
   -5.7378  -11.1585    6.3631 H   0  0  0  0  0  0
   -5.6251  -12.3888    9.2594 H   0  0  0  0  0  0
   -7.6117  -13.3447    8.1077 H   0  0  0  0  0  0
   -5.1194   -9.8737    9.0120 H   0  0  0  0  0  0
   -6.6138  -10.1971    9.9549 H   0  0  0  0  0  0
   -6.7293   -9.6679    8.2421 H   0  0  0  0  0  0
   -3.6298  -12.2933    5.2301 H   0  0  0  0  0  0
   -1.3898  -11.3218    7.1301 H   0  0  0  0  0  0
   -1.2539  -13.6397    5.0981 H   0  0  0  0  0  0
    0.0798  -13.0868    6.1668 H   0  0  0  0  0  0
   -2.5503  -14.2260    7.2075 H   0  0  0  0  0  0
   -1.0826  -15.2092    6.8822 H   0  0  0  0  0  0
    0.2130  -13.8856    8.4778 H   0  0  0  0  0  0
   -1.1731  -12.7713    8.7302 H   0  0  0  0  0  0
   -2.5562  -14.7569    9.5589 H   0  0  0  0  0  0
   -1.0947  -15.7914    9.4160 H   0  0  0  0  0  0
   -1.3405  -14.8948   11.7013 H   0  0  0  0  0  0
   -1.3296  -13.2275   11.0331 H   0  0  0  0  0  0
    0.1320  -14.2619   10.8902 H   0  0  0  0  0  0
    0.3954  -10.2260    5.9990 H   0  0  0  0  0  0
   -0.5679   -8.6208    3.8095 H   0  0  0  0  0  0
    1.6054   -8.3626    5.3290 H   0  0  0  0  0  0
    2.8020   -7.0750    3.3580 H   0  0  0  0  0  0
    1.2944   -7.4563    2.4589 H   0  0  0  0  0  0
    2.6299  -10.4637    4.5524 H   0  0  0  0  0  0
    3.6825   -9.0377    4.2603 H   0  0  0  0  0  0
    2.7675   -9.7723    2.9002 H   0  0  0  0  0  0
    1.2133   -5.2564    3.4565 H   0  0  0  0  0  0
    1.4927   -5.9654    5.0831 H   0  0  0  0  0  0
   -0.0150   -6.3467    4.1841 H   0  0  0  0  0  0
    1.0697  -11.7448    3.8467 H   0  0  0  0  0  0
    1.2893  -11.6559    0.8047 H   0  0  0  0  0  0
    2.6934  -13.7718    1.0532 H   0  0  0  0  0  0
    3.3597  -12.3698    1.9571 H   0  0  0  0  0  0
   -1.0180  -12.4591    3.0971 H   0  0  0  0  0  0
   -2.4469  -13.9560    0.8679 H   0  0  0  0  0  0
   -1.2908  -15.8341    1.9787 H   0  0  0  0  0  0
   -2.1446  -15.4239    3.5049 H   0  0  0  0  0  0
   -2.3603  -17.9665    2.5393 H   0  0  0  0  0  0
   -4.1150  -18.2201    1.8414 H   0  0  0  0  0  0
   -3.7001  -12.1690    0.7049 H   0  0  0  0  0  0
   -4.4713  -10.8028    3.1710 H   0  0  0  0  0  0
   -5.4587  -10.5992    0.3337 H   0  0  0  0  0  0
   -6.2163   -9.6570    1.6622 H   0  0  0  0  0  0
   -3.2850   -9.5600    0.8033 H   0  0  0  0  0  0
   -4.9537   -8.5777   -0.7329 H   0  0  0  0  0  0
   -3.9093   -7.3304    0.0287 H   0  0  0  0  0  0
   -5.5883   -7.5776    0.6175 H   0  0  0  0  0  0
   -3.4584   -9.1886    3.2744 H   0  0  0  0  0  0
   -4.7025   -7.9225    2.9986 H   0  0  0  0  0  0
   -3.0235   -7.6753    2.4098 H   0  0  0  0  0  0
   -5.9549  -13.3807    1.2626 H   0  0  0  0  0  0
   -8.5448  -13.4585    2.5553 H   0  0  0  0  0  0
   -6.7564  -15.5394    1.2057 H   0  0  0  0  0  0
   -8.2418  -16.1181    2.0336 H   0  0  0  0  0  0
  1  2  1  0  0  0
  1 56  1  0  0  0
  1 62  1  0  0  0
  2  3  1  0  0  0
  2  5  1  0  0  0
  2 63  1  0  0  0
  3  4  2  0  0  0
  3  6  1  0  0  0
  5 64  1  0  0  0
  5 65  1  0  0  0
  5 66  1  0  0  0
  6  7  1  0  0  0
  6 67  1  0  0  0
  7  8  1  0  0  0
  7 10  1  0  0  0
  7 68  1  0  0  0
  8  9  2  0  0  0
  8 13  1  0  0  0
 10 11  1  0  0  0
 10 12  1  0  0  0
 10 69  1  0  0  0
 11 70  1  0  0  0
 12 71  1  0  0  0
 12 72  1  0  0  0
 12 73  1  0  0  0
 13 14  1  0  0  0
 13 74  1  0  0  0
 14 15  1  0  0  0
 14 17  1  0  0  0
 14 75  1  0  0  0
 15 16  2  0  0  0
 15 22  1  0  0  0
 17 18  1  0  0  0
 17 76  1  0  0  0
 17 77  1  0  0  0
 18 19  1  0  0  0
 18 78  1  0  0  0
 18 79  1  0  0  0
 19 20  1  0  0  0
 19 80  1  0  0  0
 19 81  1  0  0  0
 20 21  1  0  0  0
 20 82  1  0  0  0
 20 83  1  0  0  0
 21 84  1  0  0  0
 21 85  1  0  0  0
 21 86  1  0  0  0
 22 23  1  0  0  0
 22 87  1  0  0  0
 23 24  1  0  0  0
 23 26  1  0  0  0
 23 88  1  0  0  0
 24 25  2  0  0  0
 24 30  1  0  0  0
 26 27  1  0  0  0
 26 28  1  0  0  0
 26 89  1  0  0  0
 27 29  1  0  0  0
 27 90  1  0  0  0
 27 91  1  0  0  0
 28 92  1  0  0  0
 28 93  1  0  0  0
 28 94  1  0  0  0
 29 95  1  0  0  0
 29 96  1  0  0  0
 29 97  1  0  0  0
 30 31  1  0  0  0
 30 98  1  0  0  0
 31 32  1  0  0  0
 31 34  1  0  0  0
 31 99  1  0  0  0
 32 33  2  0  0  0
 32 38  1  0  0  0
 34 35  1  0  0  0
 34100  1  0  0  0
 34101  1  0  0  0
 35 36  2  0  0  0
 35 37  1  0  0  0
 38 39  1  0  0  0
 38102  1  0  0  0
 39 40  1  0  0  0
 39 42  1  0  0  0
 39103  1  0  0  0
 40 41  2  0  0  0
 40 46  1  0  0  0
 42 43  1  0  0  0
 42104  1  0  0  0
 42105  1  0  0  0
 43 44  2  0  0  0
 43 45  1  0  0  0
 45106  1  0  0  0
 45107  1  0  0  0
 46 47  1  0  0  0
 46108  1  0  0  0
 47 48  1  0  0  0
 47 50  1  0  0  0
 47109  1  0  0  0
 48 49  2  0  0  0
 48 54  1  0  0  0
 50 51  1  0  0  0
 50110  1  0  0  0
 50111  1  0  0  0
 51 52  1  0  0  0
 51 53  1  0  0  0
 51112  1  0  0  0
 52113  1  0  0  0
 52114  1  0  0  0
 52115  1  0  0  0
 53116  1  0  0  0
 53117  1  0  0  0
 53118  1  0  0  0
 54 55  1  0  0  0
 54119  1  0  0  0
 55 56  1  0  0  0
 55 58  1  0  0  0
 55120  1  0  0  0
 56 57  2  0  0  0
 58 59  1  0  0  0
 58121  1  0  0  0
 58122  1  0  0  0
 59 60  2  0  0  0
 59 61  1  0  0  0
M  CHG  3  21   1  37  -1  61  -1
M  END
> <s_m_source_file>
../3avl_ligand.sdf

> <i_m_source_file_index>
1

> <s_epik_input>
W0NIM11bQ0BASF0xW05IXUMoPU8pW0NASF0oW0NIMl1DKD1PKVtPSF0pW05IXUMoPU8pW0NASF0oW0NIMl1bQ0hdKFtDSDNdKVtDSDNdKVtOSF1DKD1PKVtDQEhdKFtDSDJdQyg9TylbTkgyXSlbTkhdQyg9TylbQ0BIXShbQ0gyXUMoPU8pW09IXSlbTkhdQyg9TylbQ0BIXShbQ0BASF0oW0NIM10pW0NIMl1bQ0gzXSlbTkhdQyg9TylbQ0BASF0oW05IXUMoPU8pW0NAQEhdKFtOSF1DMT1PKVtDQEhdKFtPSF0pW0NIM10pW0NIMl1bQ0gyXVtDSDJdW0NIMl1bTkgzK10=

> <s_epik_cmdline>
J2VwaWtfYXBwJywgJy1pbWFlJywgJ2xpZ2FuZF9wcm8ubWFlJywgJy1vbWFlJywgJ2xpZ2FuZF9wcmVwLm1hZScsICctbXMnLCAnMScsICctcGgnLCAnNycsICctcGh0JywgJzAuNScsICctbnQn

> <r_lp_tautomer_probability>
1

> <r_epik_Ionization_Penalty>
  0.0028

> <r_epik_Ionization_Penalty_Charging>
  0.0028

> <r_epik_Ionization_Penalty_Neutral>
  0.0000

> <r_epik_State_Penalty>
 -0.0000

> <r_epik_Charging_Adjusted_Penalty>
0.00283018132272244

> <i_epik_Tot_Q>
-1

> <i_epik_Tot_abs_Q>
3

$$$$
