3avm_ligand
                    3D
 Schrodinger Suite 2020-3.
133133  0  0  1  0            999 V2000
    9.7350  -53.5700   15.2880 N   0  0  0  0  0  0
   10.2950  -53.4410   16.6410 C   0  0  2  0  0  0
    9.4390  -52.5610   17.5970 C   0  0  0  0  0  0
    9.8500  -52.2270   18.7380 O   0  0  0  0  0  0
   11.7100  -52.8630   16.4970 C   0  0  0  0  0  0
   12.6510  -53.6710   17.1720 O   0  0  0  0  0  0
    8.2580  -52.1590   17.1200 N   0  0  0  0  0  0
    7.3660  -51.2550   17.8700 C   0  0  2  0  0  0
    7.9440  -49.8090   17.9670 C   0  0  0  0  0  0
    7.6830  -49.0780   18.9330 O   0  0  0  0  0  0
    7.0310  -51.8950   19.2550 C   0  0  0  0  0  0
    6.0140  -51.1840   20.1380 C   0  0  0  0  0  0
    4.6800  -50.9290   19.4670 C   0  0  0  0  0  0
    4.0760  -49.7090   20.0140 N   0  0  0  0  0  0
    4.2160  -48.4840   19.4970 C   0  0  0  0  0  0
    4.9210  -48.2890   18.3860 N   0  3  0  0  0  0
    3.6320  -47.4410   20.0890 N   0  0  0  0  0  0
    8.7110  -49.3950   16.9530 N   0  0  0  0  0  0
    9.3330  -48.0590   16.9300 C   0  0  2  0  0  0
    8.8070  -47.3260   15.6990 C   0  0  0  0  0  0
    8.5070  -47.9870   14.7240 O   0  0  0  0  0  0
   10.8560  -48.2180   16.8350 C   0  0  0  0  0  0
   11.4740  -49.0680   17.9370 C   0  0  0  0  0  0
   11.3600  -48.3720   19.2840 C   0  0  0  0  0  0
   11.6620  -49.4100   20.3550 C   0  0  0  0  0  0
   12.0080  -48.8400   21.6740 N   0  3  0  0  0  0
    8.7200  -45.9900   15.7130 N   0  0  0  0  0  0
    8.3090  -45.1850   14.5150 C   0  0  2  0  0  0
    9.1410  -45.5760   13.3070 C   0  0  0  0  0  0
    8.6170  -45.6570   12.1690 O   0  0  0  0  0  0
    8.4470  -43.6150   14.7940 C   0  0  2  0  0  0
    7.2870  -43.1600   15.6650 C   0  0  0  0  0  0
    8.5050  -42.7250   13.5120 C   0  0  0  0  0  0
    5.9800  -42.9580   14.8830 C   0  0  0  0  0  0
   10.4390  -45.8280   13.5610 N   0  0  0  0  0  0
   11.3840  -46.0490   12.4620 C   0  0  2  0  0  0
   11.6030  -47.5260   12.2140 C   0  0  0  0  0  0
   12.3700  -47.8760   11.3430 O   0  0  0  0  0  0
   12.7680  -45.3450   12.6630 C   0  0  0  0  0  0
   13.4120  -45.6510   14.0160 C   0  0  0  0  0  0
   14.6060  -45.2850   14.1740 O   0  0  0  0  0  0
   12.7720  -46.2970   14.8970 O   0  5  0  0  0  0
   10.9710  -48.3720   13.0210 N   0  0  0  0  0  0
   11.0310  -49.8190   12.8230 C   0  0  2  0  0  0
    9.7370  -50.3940   13.4180 C   0  0  0  0  0  0
    9.6730  -50.7700   14.6030 O   0  0  0  0  0  0
   12.3230  -50.4150   13.4190 C   0  0  0  0  0  0
   12.5490  -51.8770   13.0100 C   0  0  0  0  0  0
   11.7750  -52.4610   12.2510 O   0  0  0  0  0  0
   13.6000  -52.4730   13.5410 N   0  0  0  0  0  0
    8.6790  -50.3830   12.5960 N   0  0  0  0  0  0
    7.3430  -50.7470   13.1240 C   0  0  2  0  0  0
    7.3440  -52.1890   13.6580 C   0  0  0  0  0  0
    6.6630  -52.4950   14.6590 O   0  0  0  0  0  0
    6.2250  -50.5180   12.1010 C   0  0  0  0  0  0
    5.8270  -49.0240   11.9110 C   0  0  0  0  0  0
    4.6610  -48.9550   10.9290 C   0  0  0  0  0  0
    5.4570  -48.2980   13.2200 C   0  0  0  0  0  0
    8.1380  -53.0410   13.0000 N   0  0  0  0  0  0
    8.4190  -54.4250   13.4490 C   0  0  2  0  0  0
    8.8570  -54.4990   14.9160 C   0  0  0  0  0  0
    8.3950  -55.3590   15.6770 O   0  0  0  0  0  0
    9.4980  -55.0630   12.5560 C   0  0  0  0  0  0
    8.9040  -55.8070   11.3610 C   0  0  0  0  0  0
    7.6610  -55.9100   11.2850 O   0  0  0  0  0  0
    9.6760  -56.2910   10.5020 O   0  5  0  0  0  0
   10.0384  -52.8674   14.4979 H   0  0  0  0  0  0
   10.2958  -54.4598   17.0557 H   0  0  0  0  0  0
   11.9806  -52.8169   15.4318 H   0  0  0  0  0  0
   11.7381  -51.8507   16.9265 H   0  0  0  0  0  0
   13.7160  -53.3960   17.1670 H   0  0  0  0  0  0
    7.9590  -52.5284   16.1279 H   0  0  0  0  0  0
    6.4440  -51.1754   17.2754 H   0  0  0  0  0  0
    6.6238  -52.9055   19.1031 H   0  0  0  0  0  0
    7.9464  -51.9560   19.8618 H   0  0  0  0  0  0
    5.8145  -51.7937   21.0316 H   0  0  0  0  0  0
    6.4139  -50.2058   20.4434 H   0  0  0  0  0  0
    4.8316  -50.8068   18.3844 H   0  0  0  0  0  0
    4.0089  -51.7813   19.6494 H   0  0  0  0  0  0
    3.4523  -49.7619   20.9186 H   0  0  0  0  0  0
    5.4080  -49.1399   17.8872 H   0  0  0  0  0  0
    3.0460  -47.5875   21.0083 H   0  0  0  0  0  0
    3.7365  -46.4344   19.6579 H   0  0  0  0  0  0
    8.8712  -50.0907   16.1162 H   0  0  0  0  0  0
    9.0678  -47.5201   17.8515 H   0  0  0  0  0  0
   11.1158  -48.6966   15.8793 H   0  0  0  0  0  0
   11.3322  -47.2280   16.8906 H   0  0  0  0  0  0
   10.9509  -50.0341   17.9918 H   0  0  0  0  0  0
   12.5378  -49.2390   17.7152 H   0  0  0  0  0  0
   12.0839  -47.5452   19.3319 H   0  0  0  0  0  0
   10.3415  -47.9751   19.4066 H   0  0  0  0  0  0
   10.7807  -50.0514   20.5028 H   0  0  0  0  0  0
   12.5154  -50.0271   20.0373 H   0  0  0  0  0  0
   12.2100  -49.6554   22.3842 H   0  0  0  0  0  0
   11.1684  -48.2324   22.0425 H   0  0  0  0  0  0
   12.9031  -48.2080   21.5769 H   0  0  0  0  0  0
    8.9663  -45.4835   16.6579 H   0  0  0  0  0  0
    7.2655  -45.4676   14.3117 H   0  0  0  0  0  0
    9.3963  -43.4427   15.3223 H   0  0  0  0  0  0
    7.0940  -43.9143   16.4420 H   0  0  0  0  0  0
    7.5395  -42.2006   16.1401 H   0  0  0  0  0  0
    9.3429  -43.0499   12.8777 H   0  0  0  0  0  0
    8.6505  -41.6738   13.8017 H   0  0  0  0  0  0
    7.5624  -42.8244   12.9537 H   0  0  0  0  0  0
    5.1874  -42.6306   15.5719 H   0  0  0  0  0  0
    5.6857  -43.9063   14.4096 H   0  0  0  0  0  0
    6.1312  -42.1925   14.1077 H   0  0  0  0  0  0
   10.7885  -45.8674   14.6032 H   0  0  0  0  0  0
   10.8510  -45.6019   11.6099 H   0  0  0  0  0  0
   13.4660  -45.6786   11.8811 H   0  0  0  0  0  0
   12.6378  -44.2547   12.5973 H   0  0  0  0  0  0
   10.3905  -47.9549   13.8571 H   0  0  0  0  0  0
   11.0791  -50.0332   11.7451 H   0  0  0  0  0  0
   13.1893  -49.8321   13.0729 H   0  0  0  0  0  0
   12.2713  -50.3781   14.5172 H   0  0  0  0  0  0
   14.2668  -51.9148   14.2147 H   0  0  0  0  0  0
   13.8092  -53.5279   13.3099 H   0  0  0  0  0  0
    8.7956  -50.1070   11.5376 H   0  0  0  0  0  0
    7.1636  -50.0515   13.9571 H   0  0  0  0  0  0
    6.5451  -50.8935   11.1179 H   0  0  0  0  0  0
    5.3195  -51.0542   12.4212 H   0  0  0  0  0  0
    6.7011  -48.4871   11.5139 H   0  0  0  0  0  0
    4.9337  -49.4751    9.9989 H   0  0  0  0  0  0
    4.4307  -47.9026   10.7067 H   0  0  0  0  0  0
    3.7782  -49.4376   11.3736 H   0  0  0  0  0  0
    6.3027  -48.3528   13.9213 H   0  0  0  0  0  0
    4.5759  -48.7792   13.6697 H   0  0  0  0  0  0
    5.2284  -47.2442   13.0028 H   0  0  0  0  0  0
    8.5937  -52.6599   12.0742 H   0  0  0  0  0  0
    7.4564  -54.9484   13.3516 H   0  0  0  0  0  0
   10.1646  -54.2783   12.1689 H   0  0  0  0  0  0
   10.0836  -55.7833   13.1462 H   0  0  0  0  0  0
    5.0170  -47.2769   17.9661 H   0  0  0  0  0  0
  1  2  1  0  0  0
  1 61  1  0  0  0
  1 67  1  0  0  0
  2  3  1  0  0  0
  2  5  1  0  0  0
  2 68  1  0  0  0
  3  4  2  0  0  0
  3  7  1  0  0  0
  5  6  1  0  0  0
  5 69  1  0  0  0
  5 70  1  0  0  0
  6 71  1  0  0  0
  7  8  1  0  0  0
  7 72  1  0  0  0
  8  9  1  0  0  0
  8 11  1  0  0  0
  8 73  1  0  0  0
  9 10  2  0  0  0
  9 18  1  0  0  0
 11 12  1  0  0  0
 11 74  1  0  0  0
 11 75  1  0  0  0
 12 13  1  0  0  0
 12 76  1  0  0  0
 12 77  1  0  0  0
 13 14  1  0  0  0
 13 78  1  0  0  0
 13 79  1  0  0  0
 14 15  1  0  0  0
 14 80  1  0  0  0
 15 16  2  0  0  0
 15 17  1  0  0  0
 16 81  1  0  0  0
 16133  1  0  0  0
 17 82  1  0  0  0
 17 83  1  0  0  0
 18 19  1  0  0  0
 18 84  1  0  0  0
 19 20  1  0  0  0
 19 22  1  0  0  0
 19 85  1  0  0  0
 20 21  2  0  0  0
 20 27  1  0  0  0
 22 23  1  0  0  0
 22 86  1  0  0  0
 22 87  1  0  0  0
 23 24  1  0  0  0
 23 88  1  0  0  0
 23 89  1  0  0  0
 24 25  1  0  0  0
 24 90  1  0  0  0
 24 91  1  0  0  0
 25 26  1  0  0  0
 25 92  1  0  0  0
 25 93  1  0  0  0
 26 94  1  0  0  0
 26 95  1  0  0  0
 26 96  1  0  0  0
 27 28  1  0  0  0
 27 97  1  0  0  0
 28 29  1  0  0  0
 28 31  1  0  0  0
 28 98  1  0  0  0
 29 30  2  0  0  0
 29 35  1  0  0  0
 31 32  1  0  0  0
 31 33  1  0  0  0
 31 99  1  0  0  0
 32 34  1  0  0  0
 32100  1  0  0  0
 32101  1  0  0  0
 33102  1  0  0  0
 33103  1  0  0  0
 33104  1  0  0  0
 34105  1  0  0  0
 34106  1  0  0  0
 34107  1  0  0  0
 35 36  1  0  0  0
 35108  1  0  0  0
 36 37  1  0  0  0
 36 39  1  0  0  0
 36109  1  0  0  0
 37 38  2  0  0  0
 37 43  1  0  0  0
 39 40  1  0  0  0
 39110  1  0  0  0
 39111  1  0  0  0
 40 41  2  0  0  0
 40 42  1  0  0  0
 43 44  1  0  0  0
 43112  1  0  0  0
 44 45  1  0  0  0
 44 47  1  0  0  0
 44113  1  0  0  0
 45 46  2  0  0  0
 45 51  1  0  0  0
 47 48  1  0  0  0
 47114  1  0  0  0
 47115  1  0  0  0
 48 49  2  0  0  0
 48 50  1  0  0  0
 50116  1  0  0  0
 50117  1  0  0  0
 51 52  1  0  0  0
 51118  1  0  0  0
 52 53  1  0  0  0
 52 55  1  0  0  0
 52119  1  0  0  0
 53 54  2  0  0  0
 53 59  1  0  0  0
 55 56  1  0  0  0
 55120  1  0  0  0
 55121  1  0  0  0
 56 57  1  0  0  0
 56 58  1  0  0  0
 56122  1  0  0  0
 57123  1  0  0  0
 57124  1  0  0  0
 57125  1  0  0  0
 58126  1  0  0  0
 58127  1  0  0  0
 58128  1  0  0  0
 59 60  1  0  0  0
 59129  1  0  0  0
 60 61  1  0  0  0
 60 63  1  0  0  0
 60130  1  0  0  0
 61 62  2  0  0  0
 63 64  1  0  0  0
 63131  1  0  0  0
 63132  1  0  0  0
 64 65  2  0  0  0
 64 66  1  0  0  0
M  CHG  4  16   1  26   1  42  -1  66  -1
M  END
> <s_m_source_file>
../3avm_ligand.sdf

> <i_m_source_file_index>
1

> <s_epik_input>
W09IXVtDSDJdW0NAQEhdMVtOSF1DKD1PKVtDQEhdKFtDSDJdQyg9TylbT0hdKVtOSF1DKD1PKVtDQEhdKFtDSDJdW0NIXShbQ0gzXSlbQ0gzXSlbTkhdQyg9TylbQ0BIXShbQ0gyXUMoPU8pW05IMl0pW05IXUMoPU8pW0NASF0oW0NIMl1DKD1PKVtPSF0pW05IXUMoPU8pW0NASF0oW0NAQEhdKFtDSDNdKVtDSDJdW0NIM10pW05IXUMoPU8pW0NASF0oW0NIMl1bQ0gyXVtDSDJdW0NIMl1bTkgzK10pW05IXUMoPU8pW0NAQEhdKFtOSF1DMT1PKVtDSDJdW0NIMl1bQ0gyXVtOSF0vQyg9TlxbSF0pW05IMl0=

> <s_epik_cmdline>
J2VwaWtfYXBwJywgJy1pbWFlJywgJ2xpZ2FuZF9wcm8ubWFlJywgJy1vbWFlJywgJ2xpZ2FuZF9wcmVwLm1hZScsICctbXMnLCAnMScsICctcGgnLCAnNycsICctcGh0JywgJzAuNScsICctbnQn

> <r_lp_tautomer_probability>
1

> <r_epik_Ionization_Penalty>
  0.0028

> <r_epik_Ionization_Penalty_Charging>
  0.0028

> <r_epik_Ionization_Penalty_Neutral>
  0.0000

> <r_epik_State_Penalty>
 -0.0000

> <r_epik_Charging_Adjusted_Penalty>
0.00283505769155509

> <i_epik_Tot_Q>
0

> <i_epik_Tot_abs_Q>
4

> <s_epik_Chemistry_Notes>
This compound has an imine and may undergo hydrolysis.

$$$$
