3avn_ligand
                    3D
 Schrodinger Suite 2020-3.
125126  0  0  1  0            999 V2000
   -9.7400   53.8410   15.6610 N   0  0  0  0  0  0
  -10.2700   53.8740   17.0220 C   0  0  2  0  0  0
   -9.6540   52.7630   17.8760 C   0  0  0  0  0  0
  -10.2700   52.2590   18.8190 O   0  0  0  0  0  0
  -11.8090   53.8150   17.0090 C   0  0  0  0  0  0
  -12.2890   52.7960   16.1440 O   0  0  0  0  0  0
   -8.4160   52.4110   17.5350 N   0  0  0  0  0  0
   -7.6320   51.3320   18.1810 C   0  0  2  0  0  0
   -8.2720   49.9440   18.3330 C   0  0  0  0  0  0
   -8.2210   49.3640   19.4150 O   0  0  0  0  0  0
   -7.0090   51.7670   19.5260 C   0  0  0  0  0  0
   -5.6760   51.1200   19.7960 C   0  0  0  0  0  0
   -4.5410   51.8430   20.1090 N   0  0  0  0  0  0
   -5.2900   49.8200   19.7600 C   0  0  0  0  0  0
   -3.5190   51.0190   20.2680 C   0  0  0  0  0  0
   -3.9490   49.7840   20.0670 N   0  0  0  0  0  0
   -8.8270   49.3970   17.2530 N   0  0  0  0  0  0
   -9.3630   48.0170   17.2680 C   0  0  2  0  0  0
   -8.8410   47.2850   16.0550 C   0  0  0  0  0  0
   -8.5770   47.9480   15.0610 O   0  0  0  0  0  0
  -10.8900   48.0860   17.1660 C   0  0  0  0  0  0
  -11.5910   48.9150   18.2580 C   0  0  0  0  0  0
  -11.4700   48.3130   19.6580 C   0  0  0  0  0  0
  -12.2610   49.2150   20.6130 C   0  0  0  0  0  0
  -12.0680   48.8260   22.0070 N   0  3  0  0  0  0
   -8.7490   45.9480   16.0470 N   0  0  0  0  0  0
   -8.3220   45.2490   14.8030 C   0  0  2  0  0  0
   -9.1820   45.6680   13.5860 C   0  0  0  0  0  0
   -8.6690   45.7950   12.4690 O   0  0  0  0  0  0
   -8.2810   43.6570   14.8980 C   0  0  2  0  0  0
   -6.9960   43.0980   14.2970 C   0  0  0  0  0  0
   -9.3150   42.9610   14.0040 C   0  0  0  0  0  0
   -5.8840   42.9410   15.2960 C   0  0  0  0  0  0
  -10.4790   45.8950   13.8180 N   0  0  0  0  0  0
  -11.4220   46.0630   12.7010 C   0  0  2  0  0  0
  -11.6630   47.5220   12.4700 C   0  0  0  0  0  0
  -12.3890   47.8400   11.5410 O   0  0  0  0  0  0
  -12.7920   45.3270   12.8770 C   0  0  0  0  0  0
  -13.4950   45.6920   14.1920 C   0  0  0  0  0  0
  -14.6520   45.2940   14.3720 O   0  0  0  0  0  0
  -12.8840   46.3400   15.0770 O   0  5  0  0  0  0
  -11.0730   48.3790   13.3170 N   0  0  0  0  0  0
  -11.0990   49.8360   13.1260 C   0  0  2  0  0  0
   -9.8260   50.3960   13.7910 C   0  0  0  0  0  0
   -9.7980   50.6800   14.9980 O   0  0  0  0  0  0
  -12.3770   50.4640   13.7050 C   0  0  0  0  0  0
  -12.7120   51.8750   13.1010 C   0  0  0  0  0  0
  -11.8630   52.5630   12.5490 O   0  0  0  0  0  0
  -13.9660   52.2820   13.2370 N   0  0  0  0  0  0
   -8.7630   50.5000   12.9890 N   0  0  0  0  0  0
   -7.4200   50.7580   13.5170 C   0  0  2  0  0  0
   -7.3710   52.1930   14.0340 C   0  0  0  0  0  0
   -6.6450   52.4910   15.0030 O   0  0  0  0  0  0
   -6.3640   50.4920   12.4290 C   0  0  0  0  0  0
   -5.8800   49.0320   12.1870 C   0  0  0  0  0  0
   -4.6650   48.9710   11.2210 C   0  0  0  0  0  0
   -5.5150   48.2930   13.5040 C   0  0  0  0  0  0
   -8.1920   53.0600   13.4080 N   0  0  0  0  0  0
   -8.3410   54.4830   13.7870 C   0  0  2  0  0  0
   -8.7810   54.6670   15.2380 C   0  0  0  0  0  0
   -8.2620   55.5370   15.9460 O   0  0  0  0  0  0
   -9.3390   55.1980   12.8510 C   0  0  0  0  0  0
   -8.6970   55.6660   11.5350 C   0  0  0  0  0  0
   -7.4420   55.6960   11.4250 O   0  5  0  0  0  0
   -9.4620   56.0060   10.6020 O   0  0  0  0  0  0
  -10.1322   53.1131   14.9355 H   0  0  0  0  0  0
   -9.9540   54.8412   17.4401 H   0  0  0  0  0  0
  -12.1766   53.6079   18.0249 H   0  0  0  0  0  0
  -12.2100   54.7793   16.6635 H   0  0  0  0  0  0
  -13.3713   52.6346   16.0317 H   0  0  0  0  0  0
   -7.9786   52.9888   16.7075 H   0  0  0  0  0  0
   -6.8824   51.2141   17.3846 H   0  0  0  0  0  0
   -7.4375   52.4693   20.2562 H   0  0  0  0  0  0
   -5.8302   48.8863   19.5449 H   0  0  0  0  0  0
   -2.4987   51.3074   20.5209 H   0  0  0  0  0  0
   -8.8815   49.9982   16.3335 H   0  0  0  0  0  0
   -9.0369   47.5185   18.1927 H   0  0  0  0  0  0
  -11.1731   48.5380   16.2040 H   0  0  0  0  0  0
  -11.3081   47.0707   17.2313 H   0  0  0  0  0  0
  -11.1489   49.9216   18.2947 H   0  0  0  0  0  0
  -12.6635   48.9939   18.0267 H   0  0  0  0  0  0
  -11.8856   47.2945   19.6563 H   0  0  0  0  0  0
  -10.4104   48.2762   19.9510 H   0  0  0  0  0  0
  -11.9271   50.2564   20.4947 H   0  0  0  0  0  0
  -13.3336   49.1451   20.3793 H   0  0  0  0  0  0
  -12.6499   49.4948   22.6582 H   0  0  0  0  0  0
  -11.0011   48.9007   22.2642 H   0  0  0  0  0  0
  -12.4076   47.7894   22.1488 H   0  0  0  0  0  0
   -8.9862   45.3671   16.9505 H   0  0  0  0  0  0
   -7.2982   45.6385   14.7028 H   0  0  0  0  0  0
   -8.4220   43.4308   15.9652 H   0  0  0  0  0  0
   -7.1940   42.1052   13.8668 H   0  0  0  0  0  0
   -6.6358   43.7743   13.5078 H   0  0  0  0  0  0
  -10.3273   43.2628   14.3108 H   0  0  0  0  0  0
   -9.2113   41.8705   14.1040 H   0  0  0  0  0  0
   -9.1478   43.2507   12.9561 H   0  0  0  0  0  0
   -4.9939   42.5351   14.7930 H   0  0  0  0  0  0
   -6.2013   42.2519   16.0925 H   0  0  0  0  0  0
   -5.6431   43.9211   15.7335 H   0  0  0  0  0  0
  -10.8390   45.9558   14.8556 H   0  0  0  0  0  0
  -10.8864   45.6180   11.8495 H   0  0  0  0  0  0
  -13.4633   45.5988   12.0490 H   0  0  0  0  0  0
  -12.6271   44.2394   12.8734 H   0  0  0  0  0  0
  -10.5533   47.9473   14.1851 H   0  0  0  0  0  0
  -11.1148   50.0387   12.0449 H   0  0  0  0  0  0
  -13.2344   49.8062   13.4994 H   0  0  0  0  0  0
  -12.2638   50.5899   14.7919 H   0  0  0  0  0  0
  -14.7023   51.6369   13.7388 H   0  0  0  0  0  0
  -14.2705   53.2649   12.8481 H   0  0  0  0  0  0
   -8.9156   50.3866   11.9056 H   0  0  0  0  0  0
   -7.2391   50.0656   14.3523 H   0  0  0  0  0  0
   -6.7526   50.8188   11.4532 H   0  0  0  0  0  0
   -5.4463   51.0511   12.6642 H   0  0  0  0  0  0
   -6.7350   48.5172   11.7244 H   0  0  0  0  0  0
   -4.9143   49.4921   10.2849 H   0  0  0  0  0  0
   -4.4227   47.9205   11.0025 H   0  0  0  0  0  0
   -3.7977   49.4572   11.6916 H   0  0  0  0  0  0
   -6.3701   48.3310   14.1949 H   0  0  0  0  0  0
   -4.6457   48.7807   13.9693 H   0  0  0  0  0  0
   -5.2707   47.2441   13.2802 H   0  0  0  0  0  0
   -8.7723   52.6509   12.5678 H   0  0  0  0  0  0
   -7.3268   54.8953   13.6800 H   0  0  0  0  0  0
  -10.1599   54.5113   12.5970 H   0  0  0  0  0  0
   -9.7466   56.0849   13.3583 H   0  0  0  0  0  0
   -4.5916   52.9389   20.1890 H   0  0  0  0  0  0
  1  2  1  0  0  0
  1 60  1  0  0  0
  1 66  1  0  0  0
  2  3  1  0  0  0
  2  5  1  0  0  0
  2 67  1  0  0  0
  3  4  2  0  0  0
  3  7  1  0  0  0
  5  6  1  0  0  0
  5 68  1  0  0  0
  5 69  1  0  0  0
  6 70  1  0  0  0
  7  8  1  0  0  0
  7 71  1  0  0  0
  8  9  1  0  0  0
  8 11  1  0  0  0
  8 72  1  0  0  0
  9 10  2  0  0  0
  9 17  1  0  0  0
 11 12  2  0  0  0
 11 73  1  0  0  0
 12 13  1  0  0  0
 12 14  1  0  0  0
 13 15  1  0  0  0
 13125  1  0  0  0
 14 16  2  0  0  0
 14 74  1  0  0  0
 15 16  1  0  0  0
 15 75  1  0  0  0
 17 18  1  0  0  0
 17 76  1  0  0  0
 18 19  1  0  0  0
 18 21  1  0  0  0
 18 77  1  0  0  0
 19 20  2  0  0  0
 19 26  1  0  0  0
 21 22  1  0  0  0
 21 78  1  0  0  0
 21 79  1  0  0  0
 22 23  1  0  0  0
 22 80  1  0  0  0
 22 81  1  0  0  0
 23 24  1  0  0  0
 23 82  1  0  0  0
 23 83  1  0  0  0
 24 25  1  0  0  0
 24 84  1  0  0  0
 24 85  1  0  0  0
 25 86  1  0  0  0
 25 87  1  0  0  0
 25 88  1  0  0  0
 26 27  1  0  0  0
 26 89  1  0  0  0
 27 28  1  0  0  0
 27 30  1  0  0  0
 27 90  1  0  0  0
 28 29  2  0  0  0
 28 34  1  0  0  0
 30 31  1  0  0  0
 30 32  1  0  0  0
 30 91  1  0  0  0
 31 33  1  0  0  0
 31 92  1  0  0  0
 31 93  1  0  0  0
 32 94  1  0  0  0
 32 95  1  0  0  0
 32 96  1  0  0  0
 33 97  1  0  0  0
 33 98  1  0  0  0
 33 99  1  0  0  0
 34 35  1  0  0  0
 34100  1  0  0  0
 35 36  1  0  0  0
 35 38  1  0  0  0
 35101  1  0  0  0
 36 37  2  0  0  0
 36 42  1  0  0  0
 38 39  1  0  0  0
 38102  1  0  0  0
 38103  1  0  0  0
 39 40  2  0  0  0
 39 41  1  0  0  0
 42 43  1  0  0  0
 42104  1  0  0  0
 43 44  1  0  0  0
 43 46  1  0  0  0
 43105  1  0  0  0
 44 45  2  0  0  0
 44 50  1  0  0  0
 46 47  1  0  0  0
 46106  1  0  0  0
 46107  1  0  0  0
 47 48  2  0  0  0
 47 49  1  0  0  0
 49108  1  0  0  0
 49109  1  0  0  0
 50 51  1  0  0  0
 50110  1  0  0  0
 51 52  1  0  0  0
 51 54  1  0  0  0
 51111  1  0  0  0
 52 53  2  0  0  0
 52 58  1  0  0  0
 54 55  1  0  0  0
 54112  1  0  0  0
 54113  1  0  0  0
 55 56  1  0  0  0
 55 57  1  0  0  0
 55114  1  0  0  0
 56115  1  0  0  0
 56116  1  0  0  0
 56117  1  0  0  0
 57118  1  0  0  0
 57119  1  0  0  0
 57120  1  0  0  0
 58 59  1  0  0  0
 58121  1  0  0  0
 59 60  1  0  0  0
 59 62  1  0  0  0
 59122  1  0  0  0
 60 61  2  0  0  0
 62 63  1  0  0  0
 62123  1  0  0  0
 62124  1  0  0  0
 63 64  1  0  0  0
 63 65  2  0  0  0
M  CHG  3  25   1  41  -1  64  -1
M  END
> <s_m_source_file>
../3avn_ligand.sdf

> <i_m_source_file_index>
1

> <s_epik_input>
W09IXVtDSDJdW0NAQEhdMVtOSF1DKD1PKVtDQEhdKFtDSDJdQyg9TylbT0hdKVtOSF1DKD1PKVtDQEhdKFtDSDJdW0NIXShbQ0gzXSlbQ0gzXSlbTkhdQyg9TylbQ0BIXShbQ0gyXUMoPU8pW05IMl0pW05IXUMoPU8pW0NASF0oW0NIMl1DKD1PKVtPSF0pW05IXUMoPU8pW0NASF0oW0NAQEhdKFtDSDNdKVtDSDJdW0NIM10pW05IXUMoPU8pW0NASF0oW0NIMl1bQ0gyXVtDSDJdW0NIMl1bTkgzK10pW05IXUMoPU8pW0NAQEhdKFtOSF1DMT1PKVtDSDJdQzI9TltDSDJdTj1bQ0hdMg==

> <s_epik_cmdline>
J2VwaWtfYXBwJywgJy1pbWFlJywgJ2xpZ2FuZF9wcm8ubWFlJywgJy1vbWFlJywgJ2xpZ2FuZF9wcmVwLm1hZScsICctbXMnLCAnMScsICctcGgnLCAnNycsICctcGh0JywgJzAuNScsICctbnQn

> <r_lp_tautomer_probability>
1

> <r_epik_Ionization_Penalty>
  0.0028

> <r_epik_Ionization_Penalty_Charging>
  0.0028

> <r_epik_Ionization_Penalty_Neutral>
  0.0000

> <r_epik_State_Penalty>
 -0.0000

> <r_epik_Charging_Adjusted_Penalty>
0.00281876290110785

> <i_epik_Tot_Q>
-1

> <i_epik_Tot_abs_Q>
3

> <s_epik_Chemistry_Notes>
This compound has an imine and may undergo hydrolysis.

$$$$
