3avz_ligand
                    3D
 Schrodinger Suite 2020-3.
 85 86  0  0  1  0            999 V2000
  -27.8050  -29.8220    5.1430 C   0  0  0  0  0  0
  -27.7050  -30.1000    6.3370 O   0  0  0  0  0  0
  -27.5080  -28.4570    4.5940 C   0  0  0  0  0  0
  -27.8850  -30.9440    4.4240 N   0  0  0  0  0  0
  -27.9660  -32.2160    5.1310 C   0  0  2  0  0  0
  -26.7220  -33.0640    4.8860 C   0  0  0  0  0  0
  -25.8850  -32.7270    4.0470 O   0  0  0  0  0  0
  -29.2180  -32.9860    4.7060 C   0  0  0  0  0  0
  -28.8950  -34.0210    3.7930 O   0  0  0  0  0  0
  -26.6060  -34.1630    5.6230 N   0  0  0  0  0  0
  -25.4650  -35.0610    5.4870 C   0  0  2  0  0  0
  -25.6830  -36.0640    4.3590 C   0  0  0  0  0  0
  -26.7780  -36.6020    4.1970 O   0  0  0  0  0  0
  -25.1990  -35.7830    6.7990 C   0  0  0  0  0  0
  -24.6330  -36.3100    3.5820 N   0  0  0  0  0  0
  -24.7070  -37.2490    2.4690 C   0  0  2  0  0  0
  -23.9340  -38.5250    2.7850 C   0  0  0  0  0  0
  -22.7410  -38.4810    3.0840 O   0  0  0  0  0  0
  -24.1530  -36.6310    1.1720 C   0  0  0  0  0  0
  -23.8570  -35.1530    1.3720 C   0  0  0  0  0  0
  -22.9050  -37.3750    0.7210 C   0  0  0  0  0  0
  -24.6230  -39.6600    2.7180 N   0  0  0  0  0  0
  -24.0070  -40.9420    2.9980 C   0  0  2  0  0  0
  -23.1380  -41.3590    1.8180 C   0  0  0  0  0  0
  -23.4960  -40.9830    0.4840 O   0  0  0  0  0  0
  -25.0920  -41.9770    3.2710 C   0  0  0  0  0  0
  -26.0210  -41.5130    4.3860 C   0  0  0  0  0  0
  -26.5260  -42.7230    5.1630 C   0  0  0  0  0  0
  -27.5670  -42.3100    6.1960 C   0  0  0  0  0  0
  -27.1050  -41.0760    6.9610 C   0  0  0  0  0  0
  -25.6070  -40.8600    6.7830 C   0  0  0  0  0  0
  -25.2620  -40.5810    5.3240 C   0  0  0  0  0  0
  -22.0560  -42.0760    2.1050 N   0  0  0  0  0  0
  -21.1440  -42.5360    1.0650 C   0  0  1  0  0  0
  -19.7840  -41.8490    1.2030 C   0  0  0  0  0  0
  -19.7830  -40.4180    0.7630 C   0  0  0  0  0  0
  -18.6990  -39.5850    0.9410 N   0  0  0  0  0  0
  -20.7330  -39.6720    0.1520 C   0  0  0  0  0  0
  -18.9820  -38.3880    0.4590 C   0  0  0  0  0  0
  -20.2110  -38.4140   -0.0260 N   0  0  0  0  0  0
  -20.9720  -44.0510    1.1130 C   0  0  0  0  0  0
  -21.3430  -44.7570    0.1750 O   0  5  0  0  0  0
  -27.5050  -27.7245    5.4146 H   0  0  0  0  0  0
  -28.2790  -28.1816    3.8594 H   0  0  0  0  0  0
  -26.5223  -28.4647    4.1057 H   0  0  0  0  0  0
  -27.8907  -30.9247    3.3242 H   0  0  0  0  0  0
  -28.0225  -31.9483    6.1964 H   0  0  0  0  0  0
  -29.6916  -33.4337    5.5922 H   0  0  0  0  0  0
  -29.9252  -32.2971    4.2210 H   0  0  0  0  0  0
  -29.6889  -34.6681    3.3918 H   0  0  0  0  0  0
  -27.3995  -34.3883    6.3507 H   0  0  0  0  0  0
  -24.6108  -34.4147    5.2369 H   0  0  0  0  0  0
  -25.0445  -35.0443    7.5993 H   0  0  0  0  0  0
  -24.2992  -36.4076    6.6979 H   0  0  0  0  0  0
  -26.0609  -36.4192    7.0487 H   0  0  0  0  0  0
  -23.6908  -35.7842    3.7963 H   0  0  0  0  0  0
  -25.7809  -37.4644    2.3678 H   0  0  0  0  0  0
  -24.9067  -36.7193    0.3757 H   0  0  0  0  0  0
  -24.7721  -34.6365    1.6973 H   0  0  0  0  0  0
  -23.5074  -34.7176    0.4243 H   0  0  0  0  0  0
  -23.0774  -35.0357    2.1391 H   0  0  0  0  0  0
  -23.1429  -38.4401    0.5830 H   0  0  0  0  0  0
  -22.1199  -37.2705    1.4843 H   0  0  0  0  0  0
  -22.5499  -36.9523   -0.2305 H   0  0  0  0  0  0
  -25.6866  -39.6095    2.4418 H   0  0  0  0  0  0
  -23.3799  -40.8139    3.8926 H   0  0  0  0  0  0
  -25.6866  -42.1342    2.3590 H   0  0  0  0  0  0
  -24.6255  -42.9264    3.5727 H   0  0  0  0  0  0
  -26.8772  -40.9760    3.9518 H   0  0  0  0  0  0
  -26.9842  -43.4407    4.4667 H   0  0  0  0  0  0
  -25.6835  -43.2030    5.6824 H   0  0  0  0  0  0
  -28.5156  -42.0798    5.6888 H   0  0  0  0  0  0
  -27.7227  -43.1331    6.9090 H   0  0  0  0  0  0
  -27.6385  -40.1905    6.5851 H   0  0  0  0  0  0
  -27.3201  -41.2065    8.0318 H   0  0  0  0  0  0
  -25.2856  -40.0014    7.3908 H   0  0  0  0  0  0
  -25.0656  -41.7613    7.1063 H   0  0  0  0  0  0
  -24.1800  -40.7246    5.1871 H   0  0  0  0  0  0
  -25.5251  -39.5375    5.0961 H   0  0  0  0  0  0
  -21.8300  -42.3366    3.1495 H   0  0  0  0  0  0
  -18.8592  -42.3085    1.5819 H   0  0  0  0  0  0
  -21.7545  -39.8969   -0.1886 H   0  0  0  0  0  0
  -18.3153  -37.5257    0.4610 H   0  0  0  0  0  0
  -20.5120  -44.5247    1.9928 H   0  0  0  0  0  0
  -17.7866  -39.9652    1.4238 H   0  0  0  0  0  0
  1  2  2  0  0  0
  1  3  1  0  0  0
  1  4  1  0  0  0
  3 43  1  0  0  0
  3 44  1  0  0  0
  3 45  1  0  0  0
  4  5  1  0  0  0
  4 46  1  0  0  0
  5  6  1  0  0  0
  5  8  1  0  0  0
  5 47  1  0  0  0
  6  7  2  0  0  0
  6 10  1  0  0  0
  8  9  1  0  0  0
  8 48  1  0  0  0
  8 49  1  0  0  0
  9 50  1  0  0  0
 10 11  1  0  0  0
 10 51  1  0  0  0
 11 12  1  0  0  0
 11 14  1  0  0  0
 11 52  1  0  0  0
 12 13  2  0  0  0
 12 15  1  0  0  0
 14 53  1  0  0  0
 14 54  1  0  0  0
 14 55  1  0  0  0
 15 16  1  0  0  0
 15 56  1  0  0  0
 16 17  1  0  0  0
 16 19  1  0  0  0
 16 57  1  0  0  0
 17 18  2  0  0  0
 17 22  1  0  0  0
 19 20  1  0  0  0
 19 21  1  0  0  0
 19 58  1  0  0  0
 20 59  1  0  0  0
 20 60  1  0  0  0
 20 61  1  0  0  0
 21 62  1  0  0  0
 21 63  1  0  0  0
 21 64  1  0  0  0
 22 23  1  0  0  0
 22 65  1  0  0  0
 23 24  1  0  0  0
 23 26  1  0  0  0
 23 66  1  0  0  0
 24 25  2  0  0  0
 24 33  1  0  0  0
 26 27  1  0  0  0
 26 67  1  0  0  0
 26 68  1  0  0  0
 27 28  1  0  0  0
 27 32  1  0  0  0
 27 69  1  0  0  0
 28 29  1  0  0  0
 28 70  1  0  0  0
 28 71  1  0  0  0
 29 30  1  0  0  0
 29 72  1  0  0  0
 29 73  1  0  0  0
 30 31  1  0  0  0
 30 74  1  0  0  0
 30 75  1  0  0  0
 31 32  1  0  0  0
 31 76  1  0  0  0
 31 77  1  0  0  0
 32 78  1  0  0  0
 32 79  1  0  0  0
 33 34  1  0  0  0
 33 80  1  0  0  0
 34 35  1  0  0  0
 34 41  2  0  0  0
 35 36  2  0  0  0
 35 81  1  0  0  0
 36 37  1  0  0  0
 36 38  1  0  0  0
 37 39  1  0  0  0
 37 85  1  0  0  0
 38 40  2  0  0  0
 38 82  1  0  0  0
 39 40  1  0  0  0
 39 83  1  0  0  0
 41 42  1  0  0  0
 41 84  1  0  0  0
M  CHG  1  42  -1
M  END
> <s_m_source_file>
../3avz_ligand.sdf

> <i_m_source_file_index>
1

> <s_epik_input>
Tz1DKFtDSDNdKVtOSF1bQ0BASF0oW0NIMl1bT0hdKUMoPU8pW05IXVtDQEBIXShbQ0gzXSlDKD1PKVtOSF1bQ0BASF0oW0NIXShbQ0gzXSlbQ0gzXSlDKD1PKVtOSF1bQ0BASF0oW0NIMl1bQ0hdMVtDSDJdW0NIMl1bQ0gyXVtDSDJdW0NIMl0xKUMoPU8pW05IXVtDQEhdKFtDSF09TylbQ0gyXUMyPU5bQ0gyXU49W0NIXTI=

> <s_epik_cmdline>
J2VwaWtfYXBwJywgJy1pbWFlJywgJ2xpZ2FuZF9wcm8ubWFlJywgJy1vbWFlJywgJ2xpZ2FuZF9wcmVwLm1hZScsICctbXMnLCAnMScsICctcGgnLCAnNycsICctcGh0JywgJzAuNScsICctbnQn

> <r_epik_Ionization_Penalty>
  0.1347

> <r_epik_Ionization_Penalty_Charging>
  0.1347

> <r_epik_Ionization_Penalty_Neutral>
  0.0000

> <r_epik_State_Penalty>
  0.1240

> <r_epik_Charging_Adjusted_Penalty>
0.258734707946613

> <i_epik_Tot_Q>
-1

> <i_epik_Tot_abs_Q>
1

> <s_epik_Chemistry_Notes>
This compound has an imine and may undergo hydrolysis.

$$$$
