3aw0_ligand
                    3D
 Schrodinger Suite 2020-3.
 79 79  0  0  1  0            999 V2000
  -27.3610  -30.1340    5.7140 C   0  0  0  0  0  0
  -27.2580  -30.1760    6.9490 O   0  0  0  0  0  0
  -27.5350  -28.8320    4.9450 C   0  0  0  0  0  0
  -27.5090  -31.2680    5.0110 N   0  0  0  0  0  0
  -27.4930  -32.6210    5.5990 C   0  0  2  0  0  0
  -26.1150  -33.3010    5.5080 C   0  0  0  0  0  0
  -25.3150  -33.0490    4.5900 O   0  0  0  0  0  0
  -28.5570  -33.5370    4.9270 C   0  0  0  0  0  0
  -29.8800  -33.2670    5.3760 O   0  0  0  0  0  0
  -25.8580  -34.1830    6.4670 N   0  0  0  0  0  0
  -24.8080  -35.1900    6.3170 C   0  0  2  0  0  0
  -25.2010  -36.1950    5.2090 C   0  0  0  0  0  0
  -26.3970  -36.3810    4.9220 O   0  0  0  0  0  0
  -24.5810  -35.8930    7.6300 C   0  0  0  0  0  0
  -24.2020  -36.8140    4.5770 N   0  0  0  0  0  0
  -24.4390  -37.8110    3.5290 C   0  0  2  0  0  0
  -23.6720  -39.0880    3.8930 C   0  0  0  0  0  0
  -22.4500  -39.1000    3.9890 O   0  0  0  0  0  0
  -24.0740  -37.2800    2.0710 C   0  0  0  0  0  0
  -24.0590  -38.4200    1.0050 C   0  0  0  0  0  0
  -25.0050  -36.1150    1.6370 C   0  0  0  0  0  0
  -24.4030  -40.1790    4.0930 N   0  0  0  0  0  0
  -23.7730  -41.4540    4.4180 C   0  0  2  0  0  0
  -23.2920  -42.1570    3.1510 C   0  0  0  0  0  0
  -24.1020  -42.5780    2.3260 O   0  0  0  0  0  0
  -24.7450  -42.3540    5.1830 C   0  0  0  0  0  0
  -25.3030  -41.7890    6.4910 C   0  0  0  0  0  0
  -26.1440  -42.8320    7.2120 C   0  0  0  0  0  0
  -24.1780  -41.2900    7.3850 C   0  0  0  0  0  0
  -21.9760  -42.2830    2.9950 N   0  0  0  0  0  0
  -21.4250  -42.9160    1.7940 C   0  0  1  0  0  0
  -19.9510  -42.5330    1.6080 C   0  0  0  0  0  0
  -19.7420  -41.1060    1.1920 C   0  0  0  0  0  0
  -18.8110  -40.2850    1.7870 N   0  0  0  0  0  0
  -20.3290  -40.3620    0.2230 C   0  0  0  0  0  0
  -18.8240  -39.1030    1.1990 C   0  0  0  0  0  0
  -19.7380  -39.1220    0.2480 N   0  0  0  0  0  0
  -21.6850  -44.4520    1.8610 C   0  0  0  0  0  0
  -20.8920  -45.2900    1.4270 O   0  0  0  0  0  0
  -22.7577  -44.8562    2.3841 O   0  5  0  0  0  0
  -27.3902  -27.9812    5.6270 H   0  0  0  0  0  0
  -28.5478  -28.7911    4.5176 H   0  0  0  0  0  0
  -26.7928  -28.7828    4.1347 H   0  0  0  0  0  0
  -27.6493  -31.1408    3.9274 H   0  0  0  0  0  0
  -27.7264  -32.4307    6.6570 H   0  0  0  0  0  0
  -28.5348  -33.3866    3.8376 H   0  0  0  0  0  0
  -28.3326  -34.5891    5.1565 H   0  0  0  0  0  0
  -30.7253  -33.8468    4.9770 H   0  0  0  0  0  0
  -26.4554  -34.1446    7.3898 H   0  0  0  0  0  0
  -23.8841  -34.6574    6.0473 H   0  0  0  0  0  0
  -24.3035  -35.1555    8.3976 H   0  0  0  0  0  0
  -23.7701  -36.6276    7.5172 H   0  0  0  0  0  0
  -25.5037  -36.4091    7.9339 H   0  0  0  0  0  0
  -23.1730  -36.5539    4.8661 H   0  0  0  0  0  0
  -25.5204  -38.0093    3.5653 H   0  0  0  0  0  0
  -23.0514  -36.8761    2.1045 H   0  0  0  0  0  0
  -23.3923  -39.2277    1.3413 H   0  0  0  0  0  0
  -23.6966  -38.0207    0.0462 H   0  0  0  0  0  0
  -25.0775  -38.8150    0.8762 H   0  0  0  0  0  0
  -24.9935  -35.3300    2.4074 H   0  0  0  0  0  0
  -26.0309  -36.4922    1.5131 H   0  0  0  0  0  0
  -24.6500  -35.6978    0.6831 H   0  0  0  0  0  0
  -25.4978  -40.1117    4.0106 H   0  0  0  0  0  0
  -22.9114  -41.2019    5.0536 H   0  0  0  0  0  0
  -25.6179  -42.5722    4.5503 H   0  0  0  0  0  0
  -24.2411  -43.2947    5.4497 H   0  0  0  0  0  0
  -25.9526  -40.9335    6.2542 H   0  0  0  0  0  0
  -26.9494  -43.1772    6.5470 H   0  0  0  0  0  0
  -26.5818  -42.3876    8.1180 H   0  0  0  0  0  0
  -25.5089  -43.6853    7.4922 H   0  0  0  0  0  0
  -23.5850  -40.5385    6.8432 H   0  0  0  0  0  0
  -23.5313  -42.1342    7.6662 H   0  0  0  0  0  0
  -24.6042  -40.8365    8.2920 H   0  0  0  0  0  0
  -21.3006  -41.9069    3.7776 H   0  0  0  0  0  0
  -21.9568  -42.4989    0.9261 H   0  0  0  0  0  0
  -19.0855  -43.1966    1.7510 H   0  0  0  0  0  0
  -21.1246  -40.5775   -0.5054 H   0  0  0  0  0  0
  -18.1879  -38.2558    1.4556 H   0  0  0  0  0  0
  -18.2001  -40.6602    2.6213 H   0  0  0  0  0  0
  1  2  2  0  0  0
  1  3  1  0  0  0
  1  4  1  0  0  0
  3 41  1  0  0  0
  3 42  1  0  0  0
  3 43  1  0  0  0
  4  5  1  0  0  0
  4 44  1  0  0  0
  5  6  1  0  0  0
  5  8  1  0  0  0
  5 45  1  0  0  0
  6  7  2  0  0  0
  6 10  1  0  0  0
  8  9  1  0  0  0
  8 46  1  0  0  0
  8 47  1  0  0  0
  9 48  1  0  0  0
 10 11  1  0  0  0
 10 49  1  0  0  0
 11 12  1  0  0  0
 11 14  1  0  0  0
 11 50  1  0  0  0
 12 13  2  0  0  0
 12 15  1  0  0  0
 14 51  1  0  0  0
 14 52  1  0  0  0
 14 53  1  0  0  0
 15 16  1  0  0  0
 15 54  1  0  0  0
 16 17  1  0  0  0
 16 19  1  0  0  0
 16 55  1  0  0  0
 17 18  2  0  0  0
 17 22  1  0  0  0
 19 20  1  0  0  0
 19 21  1  0  0  0
 19 56  1  0  0  0
 20 57  1  0  0  0
 20 58  1  0  0  0
 20 59  1  0  0  0
 21 60  1  0  0  0
 21 61  1  0  0  0
 21 62  1  0  0  0
 22 23  1  0  0  0
 22 63  1  0  0  0
 23 24  1  0  0  0
 23 26  1  0  0  0
 23 64  1  0  0  0
 24 25  2  0  0  0
 24 30  1  0  0  0
 26 27  1  0  0  0
 26 65  1  0  0  0
 26 66  1  0  0  0
 27 28  1  0  0  0
 27 29  1  0  0  0
 27 67  1  0  0  0
 28 68  1  0  0  0
 28 69  1  0  0  0
 28 70  1  0  0  0
 29 71  1  0  0  0
 29 72  1  0  0  0
 29 73  1  0  0  0
 30 31  1  0  0  0
 30 74  1  0  0  0
 31 32  1  0  0  0
 31 38  1  0  0  0
 31 75  1  0  0  0
 32 33  2  0  0  0
 32 76  1  0  0  0
 33 34  1  0  0  0
 33 35  1  0  0  0
 34 36  1  0  0  0
 34 79  1  0  0  0
 35 37  2  0  0  0
 35 77  1  0  0  0
 36 37  1  0  0  0
 36 78  1  0  0  0
 38 39  2  0  0  0
 38 40  1  0  0  0
M  CHG  1  40  -1
M  END
> <s_m_source_file>
../3aw0_ligand.sdf

> <i_m_source_file_index>
1

> <s_epik_input>
Tz1DKFtDSDNdKVtOSF1bQ0BASF0oW0NIMl1bT0hdKUMoPU8pW05IXVtDQEBIXShbQ0gzXSlDKD1PKVtOSF1bQ0BASF0oW0NIXShbQ0gzXSlbQ0gzXSlDKD1PKVtOSF1bQ0BASF0oW0NIMl1bQ0hdKFtDSDNdKVtDSDNdKUMoPU8pW05IXVtDQEhdKEMoPU8pW09IXSlbQ0gyXUMxPU5bQ0gyXU49W0NIXTE=

> <s_epik_cmdline>
J2VwaWtfYXBwJywgJy1pbWFlJywgJ2xpZ2FuZF9wcm8ubWFlJywgJy1vbWFlJywgJ2xpZ2FuZF9wcmVwLm1hZScsICctbXMnLCAnMScsICctcGgnLCAnNycsICctcGh0JywgJzAuNScsICctbnQn

> <r_lp_tautomer_probability>
1

> <r_epik_Ionization_Penalty>
  0.0000

> <r_epik_Ionization_Penalty_Charging>
  0.0000

> <r_epik_Ionization_Penalty_Neutral>
  0.0000

> <r_epik_State_Penalty>
 -0.0000

> <r_epik_Charging_Adjusted_Penalty>
1.61628647402055e-05

> <i_epik_Tot_Q>
-1

> <i_epik_Tot_abs_Q>
1

> <s_epik_Chemistry_Notes>
This compound has an imine and may undergo hydrolysis.

$$$$
