3ax5_ligand
                    3D
 Schrodinger Suite 2020-3.
176177  0  0  1  0            999 V2000
  -10.9570   37.2300    8.5180 N   0  3  0  0  0  0
  -10.4130   36.8250    9.8680 C   0  0  0  0  0  0
   -9.0010   37.3330   10.1170 C   0  0  0  0  0  0
   -8.2190   37.4570    9.1670 O   0  0  0  0  0  0
   -8.6510   37.6170   11.3770 N   0  0  0  0  0  0
   -7.3210   38.1480   11.6820 C   0  0  1  0  0  0
   -7.3290   39.1760   12.8200 C   0  0  0  0  0  0
   -6.3670   39.2840   13.5650 O   0  0  0  0  0  0
   -6.3040   37.0110   11.9540 C   0  0  0  0  0  0
   -6.5120   36.1750   13.5660 S   0  0  0  0  0  0
   -8.4070   39.9410   12.9560 N   0  0  0  0  0  0
   -8.4660   40.9810   13.9990 C   0  0  2  0  0  0
   -8.2120   40.4370   15.4120 C   0  0  0  0  0  0
   -7.6080   41.1040   16.2420 O   0  0  0  0  0  0
   -9.8100   41.7260   13.9080 C   0  0  0  0  0  0
  -10.4940   41.9430   15.2230 C   0  0  0  0  0  0
  -12.0140   41.6060   15.1410 C   0  0  0  0  0  0
  -12.6940   41.5970   16.4540 N   0  0  0  0  0  0
  -12.4490   42.4470   17.4690 C   0  0  0  0  0  0
  -11.5410   43.4260   17.3500 N   0  0  0  0  0  0
  -13.1340   42.3380   18.6070 N   0  0  0  0  0  0
   -8.7130   39.2310   15.6820 N   0  0  0  0  0  0
   -8.4260   38.5110   16.9330 C   0  0  2  0  0  0
   -6.9350   38.2660   17.1620 C   0  0  0  0  0  0
   -6.4610   38.5490   18.2460 O   0  0  0  0  0  0
   -9.2290   37.2060   17.0410 C   0  0  0  0  0  0
   -9.2570   36.5510   18.4140 C   0  0  0  0  0  0
   -9.3260   37.5500   19.6210 C   0  0  0  0  0  0
  -10.4300   35.4930   18.4690 C   0  0  0  0  0  0
   -6.1990   37.7950   16.1690 N   0  0  0  0  0  0
   -4.7410   37.6220   16.3350 C   0  0  2  0  0  0
   -4.0130   38.9190   16.7240 C   0  0  0  0  0  0
   -3.0940   38.8840   17.5490 O   0  0  0  0  0  0
   -4.0890   37.0800   15.0680 C   0  0  0  0  0  0
   -4.7820   35.4740   14.4620 S   0  0  0  0  0  0
   -4.4530   40.0180   16.0980 N   0  0  0  0  0  0
   -3.8840   41.3960   16.1950 C   0  0  2  0  0  0
   -4.1460   41.8650   17.6140 C   0  0  0  0  0  0
   -3.2620   42.3620   18.3360 O   0  0  0  0  0  0
   -4.6770   42.3260   15.2470 C   0  0  0  0  0  0
   -3.9350   43.1840   14.2270 C   0  0  0  0  0  0
   -3.9700   42.6020   12.7690 C   0  0  0  0  0  0
   -5.3070   42.7100   12.1520 N   0  0  0  0  0  0
   -5.6890   42.1510   10.9940 C   0  0  0  0  0  0
   -4.8380   41.4140   10.2760 N   0  0  0  0  0  0
   -6.9400   42.3290   10.5550 N   0  0  0  0  0  0
   -5.3930   41.6730   18.0250 N   0  0  0  0  0  0
   -5.7720   42.0250   19.3610 C   0  0  2  0  0  0
   -4.9600   41.2660   20.4060 C   0  0  0  0  0  0
   -4.5190   41.8570   21.4170 O   0  0  0  0  0  0
   -7.2440   41.7720   19.5390 C   0  0  0  0  0  0
   -7.8190   41.9390   20.9180 C   0  0  0  0  0  0
   -7.5520   43.3520   21.4550 C   0  0  0  0  0  0
   -9.2960   41.6530   20.7430 C   0  0  0  0  0  0
   -4.7420   39.9710   20.1660 N   0  0  0  0  0  0
   -3.9340   39.1620   21.0990 C   0  0  2  0  0  0
   -2.4770   39.6340   21.2120 C   0  0  0  0  0  0
   -1.9490   39.6690   22.3190 O   0  0  0  0  0  0
   -4.0170   37.6500   20.7790 C   0  0  0  0  0  0
   -5.4200   37.0740   20.9750 C   0  0  0  0  0  0
   -5.5190   35.6620   20.4530 C   0  0  0  0  0  0
   -5.8230   37.1060   22.4310 C   0  0  0  0  0  0
   -1.8420   40.0200   20.0930 N   0  0  0  0  0  0
   -0.4270   40.5210   20.1550 C   0  0  2  0  0  0
   -0.2370   41.7620   20.9600 C   0  0  0  0  0  0
    0.8020   41.9520   21.5570 O   0  0  0  0  0  0
    0.0990   40.8670   18.7670 C   0  0  0  0  0  0
   -0.2990   39.8440   17.9030 O   0  0  0  0  0  0
   -1.2080   42.6650   20.8620 N   0  0  0  0  0  0
   -1.1390   43.9890   21.4900 C   0  0  2  0  0  0
   -0.9780   43.8940   23.0220 C   0  0  0  0  0  0
   -1.8860   43.4610   23.7000 O   0  0  0  0  0  0
   -2.3690   44.7970   21.0920 C   0  0  0  0  0  0
   -2.4430   46.1540   21.7570 C   0  0  0  0  0  0
   -1.4050   47.0820   21.6280 C   0  0  0  0  0  0
   -3.5480   46.5060   22.5210 C   0  0  0  0  0  0
   -1.4520   48.3380   22.2390 C   0  0  0  0  0  0
   -3.6230   47.7620   23.0960 C   0  0  0  0  0  0
   -2.5590   48.6710   22.9640 C   0  0  0  0  0  0
   -2.6450   49.8920   23.5790 O   0  0  0  0  0  0
    0.2130   44.2330   23.5310 N   0  0  0  0  0  0
    0.6350   43.9520   24.9510 C   0  0  2  0  0  0
    2.0850   44.3350   25.3370 C   0  0  0  0  0  0
    2.6160   43.9110   26.4180 O   0  0  0  0  0  0
    0.3260   42.4210   25.3830 C   0  0  0  0  0  0
    2.7531   45.0788   24.5702 O   0  0  0  0  0  0
  -11.9763   36.8339    8.3996 H   0  0  0  0  0  0
  -10.3113   36.8236    7.7256 H   0  0  0  0  0  0
  -10.9794   38.3274    8.4459 H   0  0  0  0  0  0
  -11.0587   37.2314   10.6604 H   0  0  0  0  0  0
  -10.3906   35.7276    9.9401 H   0  0  0  0  0  0
   -9.3748   37.4475   12.1878 H   0  0  0  0  0  0
   -7.0528   38.6827   10.7589 H   0  0  0  0  0  0
   -6.4027   36.2375   11.1782 H   0  0  0  0  0  0
   -5.2831   37.4201   11.9360 H   0  0  0  0  0  0
   -9.2614   39.7914   12.2795 H   0  0  0  0  0  0
   -7.6310   41.6605   13.7730 H   0  0  0  0  0  0
   -9.6490   42.7198   13.4649 H   0  0  0  0  0  0
  -10.5055   41.1520   13.2781 H   0  0  0  0  0  0
  -10.0355   41.2966   15.9858 H   0  0  0  0  0  0
  -10.3873   42.9961   15.5225 H   0  0  0  0  0  0
  -12.5222   42.3542   14.5149 H   0  0  0  0  0  0
  -12.1449   40.6076   14.6983 H   0  0  0  0  0  0
  -13.4735   40.8500   16.6646 H   0  0  0  0  0  0
  -10.9656   43.5322   16.4185 H   0  0  0  0  0  0
  -11.3713   44.1231   18.1838 H   0  0  0  0  0  0
  -13.8833   41.5412   18.7237 H   0  0  0  0  0  0
   -9.3655   38.7755   14.9225 H   0  0  0  0  0  0
   -8.7658   39.2143   17.7075 H   0  0  0  0  0  0
  -10.2785   37.3980   16.7731 H   0  0  0  0  0  0
   -8.8064   36.4576   16.3545 H   0  0  0  0  0  0
   -8.2729   36.0679   18.5040 H   0  0  0  0  0  0
   -8.4968   38.2692   19.5495 H   0  0  0  0  0  0
   -9.2460   36.9908   20.5648 H   0  0  0  0  0  0
  -10.2836   38.0907   19.5951 H   0  0  0  0  0  0
  -10.3494   34.8113   17.6095 H   0  0  0  0  0  0
  -11.3972   36.0157   18.4330 H   0  0  0  0  0  0
  -10.3596   34.9158   19.4027 H   0  0  0  0  0  0
   -6.6790   37.5315   15.2150 H   0  0  0  0  0  0
   -4.6797   36.8923   17.1559 H   0  0  0  0  0  0
   -4.2140   37.8066   14.2517 H   0  0  0  0  0  0
   -3.0170   36.9135   15.2497 H   0  0  0  0  0  0
   -5.3274   39.8278   15.4583 H   0  0  0  0  0  0
   -2.8121   41.3821   15.9482 H   0  0  0  0  0  0
   -5.3682   41.7253   14.6377 H   0  0  0  0  0  0
   -5.2495   43.0534   15.8412 H   0  0  0  0  0  0
   -4.3886   44.1855   14.1911 H   0  0  0  0  0  0
   -2.8783   43.2705   14.5200 H   0  0  0  0  0  0
   -3.2586   43.1536   12.1369 H   0  0  0  0  0  0
   -3.6915   41.5381   12.7921 H   0  0  0  0  0  0
   -6.0970   43.2918   12.6495 H   0  0  0  0  0  0
   -3.8075   41.2627   10.6299 H   0  0  0  0  0  0
   -7.6474   42.9347   11.1404 H   0  0  0  0  0  0
   -7.2613   41.8697    9.6086 H   0  0  0  0  0  0
   -6.1363   41.2427   17.3377 H   0  0  0  0  0  0
   -5.5508   43.0988   19.4500 H   0  0  0  0  0  0
   -7.8146   42.4639   18.9021 H   0  0  0  0  0  0
   -7.4751   40.7353   19.2530 H   0  0  0  0  0  0
   -7.3642   41.2515   21.6463 H   0  0  0  0  0  0
   -6.4679   43.5047   21.5622 H   0  0  0  0  0  0
   -8.0376   43.4696   22.4350 H   0  0  0  0  0  0
   -7.9592   44.0942   20.7526 H   0  0  0  0  0  0
   -9.4285   40.6313   20.3575 H   0  0  0  0  0  0
   -9.7269   42.3723   20.0310 H   0  0  0  0  0  0
   -9.8053   41.7477   21.7134 H   0  0  0  0  0  0
   -5.1698   39.5076   19.2648 H   0  0  0  0  0  0
   -4.4153   39.3584   22.0684 H   0  0  0  0  0  0
   -3.7298   37.4808   19.7307 H   0  0  0  0  0  0
   -3.3335   37.0972   21.4402 H   0  0  0  0  0  0
   -6.1203   37.6989   20.4014 H   0  0  0  0  0  0
   -5.2252   35.6415   19.3932 H   0  0  0  0  0  0
   -6.5549   35.3058   20.5533 H   0  0  0  0  0  0
   -4.8491   35.0093   21.0320 H   0  0  0  0  0  0
   -5.7500   38.1364   22.8091 H   0  0  0  0  0  0
   -5.1533   36.4542   23.0112 H   0  0  0  0  0  0
   -6.8591   36.7507   22.5326 H   0  0  0  0  0  0
   -2.3650   39.9674   19.1267 H   0  0  0  0  0  0
    0.1056   39.6935   20.6465 H   0  0  0  0  0  0
   -0.3234   41.8301   18.4444 H   0  0  0  0  0  0
    1.1961   40.9400   18.7983 H   0  0  0  0  0  0
   -0.0263   39.8862   16.8382 H   0  0  0  0  0  0
   -2.0942   42.3796   20.2762 H   0  0  0  0  0  0
   -0.2366   44.4735   21.0888 H   0  0  0  0  0  0
   -2.3620   44.9639   20.0048 H   0  0  0  0  0  0
   -3.2776   44.2438   21.3722 H   0  0  0  0  0  0
   -0.5316   46.8174   21.0320 H   0  0  0  0  0  0
   -4.3578   45.7913   22.6679 H   0  0  0  0  0  0
   -0.6217   49.0370   22.1385 H   0  0  0  0  0  0
   -4.5135   48.0488   23.6554 H   0  0  0  0  0  0
   -1.8207   50.6143   23.4852 H   0  0  0  0  0  0
    0.9017   44.7466   22.8440 H   0  0  0  0  0  0
    0.0157   44.6988   25.4695 H   0  0  0  0  0  0
    3.6476   44.1956   26.6725 H   0  0  0  0  0  0
   -0.7059   42.1623   25.1034 H   0  0  0  0  0  0
    0.4486   42.3152   26.4710 H   0  0  0  0  0  0
    1.0256   41.7464   24.8678 H   0  0  0  0  0  0
  1  2  1  0  0  0
  1 87  1  0  0  0
  1 88  1  0  0  0
  1 89  1  0  0  0
  2  3  1  0  0  0
  2 90  1  0  0  0
  2 91  1  0  0  0
  3  4  2  0  0  0
  3  5  1  0  0  0
  5  6  1  0  0  0
  5 92  1  0  0  0
  6  7  1  0  0  0
  6  9  1  0  0  0
  6 93  1  0  0  0
  7  8  2  0  0  0
  7 11  1  0  0  0
  9 10  1  0  0  0
  9 94  1  0  0  0
  9 95  1  0  0  0
 10 35  1  0  0  0
 11 12  1  0  0  0
 11 96  1  0  0  0
 12 13  1  0  0  0
 12 15  1  0  0  0
 12 97  1  0  0  0
 13 14  2  0  0  0
 13 22  1  0  0  0
 15 16  1  0  0  0
 15 98  1  0  0  0
 15 99  1  0  0  0
 16 17  1  0  0  0
 16100  1  0  0  0
 16101  1  0  0  0
 17 18  1  0  0  0
 17102  1  0  0  0
 17103  1  0  0  0
 18 19  1  0  0  0
 18104  1  0  0  0
 19 20  1  0  0  0
 19 21  2  0  0  0
 20105  1  0  0  0
 20106  1  0  0  0
 21107  1  0  0  0
 22 23  1  0  0  0
 22108  1  0  0  0
 23 24  1  0  0  0
 23 26  1  0  0  0
 23109  1  0  0  0
 24 25  2  0  0  0
 24 30  1  0  0  0
 26 27  1  0  0  0
 26110  1  0  0  0
 26111  1  0  0  0
 27 28  1  0  0  0
 27 29  1  0  0  0
 27112  1  0  0  0
 28113  1  0  0  0
 28114  1  0  0  0
 28115  1  0  0  0
 29116  1  0  0  0
 29117  1  0  0  0
 29118  1  0  0  0
 30 31  1  0  0  0
 30119  1  0  0  0
 31 32  1  0  0  0
 31 34  1  0  0  0
 31120  1  0  0  0
 32 33  2  0  0  0
 32 36  1  0  0  0
 34 35  1  0  0  0
 34121  1  0  0  0
 34122  1  0  0  0
 36 37  1  0  0  0
 36123  1  0  0  0
 37 38  1  0  0  0
 37 40  1  0  0  0
 37124  1  0  0  0
 38 39  2  0  0  0
 38 47  1  0  0  0
 40 41  1  0  0  0
 40125  1  0  0  0
 40126  1  0  0  0
 41 42  1  0  0  0
 41127  1  0  0  0
 41128  1  0  0  0
 42 43  1  0  0  0
 42129  1  0  0  0
 42130  1  0  0  0
 43 44  1  0  0  0
 43131  1  0  0  0
 44 45  2  0  0  0
 44 46  1  0  0  0
 45132  1  0  0  0
 46133  1  0  0  0
 46134  1  0  0  0
 47 48  1  0  0  0
 47135  1  0  0  0
 48 49  1  0  0  0
 48 51  1  0  0  0
 48136  1  0  0  0
 49 50  2  0  0  0
 49 55  1  0  0  0
 51 52  1  0  0  0
 51137  1  0  0  0
 51138  1  0  0  0
 52 53  1  0  0  0
 52 54  1  0  0  0
 52139  1  0  0  0
 53140  1  0  0  0
 53141  1  0  0  0
 53142  1  0  0  0
 54143  1  0  0  0
 54144  1  0  0  0
 54145  1  0  0  0
 55 56  1  0  0  0
 55146  1  0  0  0
 56 57  1  0  0  0
 56 59  1  0  0  0
 56147  1  0  0  0
 57 58  2  0  0  0
 57 63  1  0  0  0
 59 60  1  0  0  0
 59148  1  0  0  0
 59149  1  0  0  0
 60 61  1  0  0  0
 60 62  1  0  0  0
 60150  1  0  0  0
 61151  1  0  0  0
 61152  1  0  0  0
 61153  1  0  0  0
 62154  1  0  0  0
 62155  1  0  0  0
 62156  1  0  0  0
 63 64  1  0  0  0
 63157  1  0  0  0
 64 65  1  0  0  0
 64 67  1  0  0  0
 64158  1  0  0  0
 65 66  2  0  0  0
 65 69  1  0  0  0
 67 68  1  0  0  0
 67159  1  0  0  0
 67160  1  0  0  0
 68161  1  0  0  0
 69 70  1  0  0  0
 69162  1  0  0  0
 70 71  1  0  0  0
 70 73  1  0  0  0
 70163  1  0  0  0
 71 72  2  0  0  0
 71 81  1  0  0  0
 73 74  1  0  0  0
 73164  1  0  0  0
 73165  1  0  0  0
 74 75  2  0  0  0
 74 76  1  0  0  0
 75 77  1  0  0  0
 75166  1  0  0  0
 76 78  2  0  0  0
 76167  1  0  0  0
 77 79  2  0  0  0
 77168  1  0  0  0
 78 79  1  0  0  0
 78169  1  0  0  0
 79 80  1  0  0  0
 80170  1  0  0  0
 81 82  1  0  0  0
 81171  1  0  0  0
 82 83  1  0  0  0
 82 85  1  0  0  0
 82172  1  0  0  0
 83 84  1  0  0  0
 83 86  2  0  0  0
 84173  1  0  0  0
 85174  1  0  0  0
 85175  1  0  0  0
 85176  1  0  0  0
M  CHG  1   1   1
M  END
> <s_m_source_file>
../3ax5_ligand.sdf

> <i_m_source_file_index>
1

> <s_epik_input>
W05IMytdW0NIMl1DKD1PKVtOSF1bQ0BIXTFDKD1PKVtOSF1bQ0BASF0oW0NIMl1bQ0gyXVtDSDJdW05IXS9DKFtOSDJdKT1OXFtIXSlDKD1PKVtOSF1bQ0BASF0oW0NIMl1bQ0hdKFtDSDNdKVtDSDNdKUMoPU8pW05IXVtDQEBIXShbQ0gyXVNTW0NIMl0xKUMoPU8pW05IXVtDQEBIXShbQ0gyXVtDSDJdW0NIMl1bTkhdL0MoPU5cW0hdKVtOSDJdKUMoPU8pW05IXVtDQEBIXShbQ0gyXVtDSF0oW0NIM10pW0NIM10pQyg9TylbTkhdW0NAQEhdKFtDSDJdW0NIXShbQ0gzXSlbQ0gzXSlDKD1PKVtOSF1bQ0BASF0oW0NIMl1bT0hdKUMoPU8pW05IXVtDQEhdKEMoPU8pW05IXVtDQEBIXShbQ0gzXSlDKD1PKVtPSF0pW0NIMl1jMltjSF1bY0hdYyhbT0hdKVtjSF1bY0hdMg==

> <s_epik_cmdline>
J2VwaWtfYXBwJywgJy1pbWFlJywgJ2xpZ2FuZF9wcm8ubWFlJywgJy1vbWFlJywgJ2xpZ2FuZF9wcmVwLm1hZScsICctbXMnLCAnMScsICctcGgnLCAnNycsICctcGh0JywgJzAuNScsICctbnQn

> <s_epik_pKa_notes>
Molecule size exceeds maximum supported for generating protonation states

> <s_epik_Chemistry_Notes>
This compound has an imine and may undergo hydrolysis.

$$$$
