3axk_ligand
                    3D
 Schrodinger Suite 2020-3.
 74 78  0  0  1  0            999 V2000
   31.0580   25.3080  -20.7640 P   0  0  2  0  0  0
   31.4210   23.8730  -20.6470 O   0  5  0  0  0  0
   32.1060   26.3320  -20.9540 O   0  0  0  0  0  0
   30.1050   25.6090  -19.5270 O   0  0  0  0  0  0
   29.5750   26.9380  -19.3560 C   0  0  0  0  0  0
   28.5180   26.8440  -18.2910 C   0  0  1  0  0  0
   27.6180   25.7300  -18.5670 O   0  0  0  0  0  0
   28.9930   26.5980  -16.8750 C   0  0  1  0  0  0
   29.4450   27.8190  -16.3340 O   0  0  0  0  0  0
   27.6780   26.1370  -16.2310 C   0  0  1  0  0  0
   26.7780   27.2140  -16.0220 O   0  0  0  0  0  0
   27.1060   25.2330  -17.3270 C   0  0  2  0  0  0
   27.4000   23.8050  -17.1640 N   0  0  0  0  0  0
   28.1100   22.9920  -18.0350 C   0  0  0  0  0  0
   28.3180   21.7820  -17.5500 N   0  0  0  0  0  0
   27.4870   21.7280  -16.4650 C   0  0  0  0  0  0
   27.2900   20.7350  -15.4670 C   0  0  0  0  0  0
   27.9820   19.5890  -15.4760 N   0  0  0  0  0  0
   26.4520   21.0400  -14.4270 N   0  0  0  0  0  0
   25.9290   22.2870  -14.3000 C   0  0  0  0  0  0
   26.0570   23.3070  -15.1850 N   0  0  0  0  0  0
   26.8770   22.9650  -16.2340 C   0  0  0  0  0  0
   29.9770   25.4030  -21.9620 O   0  0  0  0  0  0
   29.4520   24.5100  -23.1490 P   0  0  1  0  0  0
   28.7260   23.3320  -22.5830 O   0  5  0  0  0  0
   28.7310   25.4180  -24.0750 O   0  0  0  0  0  0
   30.7580   24.0560  -23.9450 O   0  0  0  0  0  0
   31.0280   22.6850  -24.2710 C   0  0  0  0  0  0
   30.6010   22.3760  -25.6780 C   0  0  1  0  0  0
   31.0910   21.0850  -26.1100 O   0  0  0  0  0  0
   29.1000   22.3700  -26.0010 C   0  0  1  0  0  0
   28.7920   22.9490  -27.2590 O   0  0  0  0  0  0
   28.7620   20.8890  -25.8740 C   0  0  1  0  0  0
   27.5600   20.6380  -26.5830 O   0  0  0  0  0  0
   30.0090   20.3180  -26.5890 C   0  0  2  0  0  0
   30.3060   18.8640  -26.3650 N   0  0  0  0  0  0
   31.3890   18.3620  -27.0740 C   0  0  0  0  0  0
   31.1970   17.2780  -27.9470 C   0  0  0  0  0  0
   32.3680   16.5450  -28.5320 C   0  0  0  0  0  0
   32.7890   15.5320  -27.9650 O   0  0  0  0  0  0
   33.0020   17.1220  -29.5600 N   0  0  0  0  0  0
   29.9180   16.6330  -27.9590 C   0  0  0  0  0  0
   28.9890   16.9320  -26.9360 C   0  0  0  0  0  0
   29.2740   17.9670  -26.0400 C   0  0  0  0  0  0
   26.6770   28.0950  -14.6720 P   0  0  0  0  0  0
   28.0480   28.6440  -14.3380 O   0  5  0  0  0  0
   25.6600   29.1190  -15.0970 O   0  0  0  0  0  0
   26.1560   27.1640  -13.6000 O   0  5  0  0  0  0
   30.3829   27.6181  -19.0483 H   0  0  0  0  0  0
   29.1447   27.2863  -20.3065 H   0  0  0  0  0  0
   28.0274   27.8268  -18.3492 H   0  0  0  0  0  0
   29.8640   25.9432  -16.7246 H   0  0  0  0  0  0
   30.3781   28.2713  -16.7011 H   0  0  0  0  0  0
   27.7818   25.7180  -15.2192 H   0  0  0  0  0  0
   26.0063   25.2545  -17.3422 H   0  0  0  0  0  0
   28.4589   23.3174  -19.0151 H   0  0  0  0  0  0
   28.6512   19.3572  -16.3177 H   0  0  0  0  0  0
   27.8814   18.8792  -14.6417 H   0  0  0  0  0  0
   25.3497   22.4878  -13.3988 H   0  0  0  0  0  0
   32.1068   22.4916  -24.1777 H   0  0  0  0  0  0
   30.4769   22.0287  -23.5814 H   0  0  0  0  0  0
   31.0877   23.1994  -26.2213 H   0  0  0  0  0  0
   28.4640   23.0365  -25.4000 H   0  0  0  0  0  0
   29.0019   24.0134  -27.4408 H   0  0  0  0  0  0
   28.5182   20.4695  -24.8868 H   0  0  0  0  0  0
   26.5997   20.9928  -26.1805 H   0  0  0  0  0  0
   29.9074   20.4073  -27.6806 H   0  0  0  0  0  0
   32.3895   18.8041  -26.9578 H   0  0  0  0  0  0
   32.5821   18.0242  -30.0287 H   0  0  0  0  0  0
   33.9429   16.6940  -29.9361 H   0  0  0  0  0  0
   29.3905   16.8822  -28.8915 H   0  0  0  0  0  0
   30.0561   15.5435  -27.8958 H   0  0  0  0  0  0
   28.0525   16.3631  -26.8393 H   0  0  0  0  0  0
   28.6962   18.0631  -25.1089 H   0  0  0  0  0  0
  1  2  1  0  0  0
  1  3  2  0  0  0
  1  4  1  0  0  0
  1 23  1  0  0  0
  4  5  1  0  0  0
  5  6  1  0  0  0
  5 49  1  0  0  0
  5 50  1  0  0  0
  6  7  1  0  0  0
  6  8  1  0  0  0
  6 51  1  0  0  0
  7 12  1  0  0  0
  8  9  1  0  0  0
  8 10  1  0  0  0
  8 52  1  0  0  0
  9 53  1  0  0  0
 10 11  1  0  0  0
 10 12  1  0  0  0
 10 54  1  0  0  0
 11 45  1  0  0  0
 12 13  1  0  0  0
 12 55  1  0  0  0
 13 14  1  0  0  0
 13 22  1  0  0  0
 14 15  2  0  0  0
 14 56  1  0  0  0
 15 16  1  0  0  0
 16 17  2  0  0  0
 16 22  1  0  0  0
 17 18  1  0  0  0
 17 19  1  0  0  0
 18 57  1  0  0  0
 18 58  1  0  0  0
 19 20  2  0  0  0
 20 21  1  0  0  0
 20 59  1  0  0  0
 21 22  2  0  0  0
 23 24  1  0  0  0
 24 25  1  0  0  0
 24 26  2  0  0  0
 24 27  1  0  0  0
 27 28  1  0  0  0
 28 29  1  0  0  0
 28 60  1  0  0  0
 28 61  1  0  0  0
 29 30  1  0  0  0
 29 31  1  0  0  0
 29 62  1  0  0  0
 30 35  1  0  0  0
 31 32  1  0  0  0
 31 33  1  0  0  0
 31 63  1  0  0  0
 32 64  1  0  0  0
 33 34  1  0  0  0
 33 35  1  0  0  0
 33 65  1  0  0  0
 34 66  1  0  0  0
 35 36  1  0  0  0
 35 67  1  0  0  0
 36 37  1  0  0  0
 36 44  1  0  0  0
 37 38  2  0  0  0
 37 68  1  0  0  0
 38 39  1  0  0  0
 38 42  1  0  0  0
 39 40  2  0  0  0
 39 41  1  0  0  0
 41 69  1  0  0  0
 41 70  1  0  0  0
 42 43  1  0  0  0
 42 71  1  0  0  0
 42 72  1  0  0  0
 43 44  2  0  0  0
 43 73  1  0  0  0
 44 74  1  0  0  0
 45 46  1  0  0  0
 45 47  2  0  0  0
 45 48  1  0  0  0
M  CHG  4   2  -1  25  -1  46  -1  48  -1
M  END
> <s_m_source_file>
../3axk_ligand.sdf

> <i_m_source_file_index>
1

> <s_epik_input>
W05IMl1jMW5bY0hdbmMoYzEyKW4oW2NIXW4yKVtDQEBIXShbQ0BASF0oW0NAQEhdM1tPSF0pT1AoPU8pKFtPSF0pW09IXSlPW0NAQEhdM1tDSDJdT1tQQEBdKD1PKShbT0hdKU9bUEBdKD1PKShbT0hdKU9bQ0gyXVtDQEhdNE9bQ0BIXShbQ0BIXShbT0hdKVtDQEBIXTRbT0hdKU41W0NIXT1DKEMoPU8pW05IMl0pW0NIMl1bQ0hdPVtDSF01

> <s_epik_cmdline>
J2VwaWtfYXBwJywgJy1pbWFlJywgJ2xpZ2FuZF9wcm8ubWFlJywgJy1vbWFlJywgJ2xpZ2FuZF9wcmVwLm1hZScsICctbXMnLCAnMScsICctcGgnLCAnNycsICctcGh0JywgJzAuNScsICctbnQn

> <r_lp_tautomer_probability>
0.999997216410988

> <r_epik_Ionization_Penalty>
  0.0693

> <r_epik_Ionization_Penalty_Charging>
  0.0687

> <r_epik_Ionization_Penalty_Neutral>
  0.0006

> <r_epik_State_Penalty>
  0.0596

> <r_epik_Charging_Adjusted_Penalty>
0.128322181235345

> <i_epik_Tot_Q>
-4

> <i_epik_Tot_abs_Q>
4

> <s_epik_Chemistry_Notes>
This compound has an imine and may undergo hydrolysis. This compound contains an acetal/aminal-like group ( X-CH(R)-Y where X, Y are N, S, or O) that may be acid/base labile, releasing an aldehyde.

$$$$
