3axm_ligand
                    3D
 Schrodinger Suite 2020-3.
 27 26  0  0  1  0            999 V2000
   -2.0550    0.9830   50.9610 C   0  0  0  0  0  0
   -1.5520    0.0390   52.0480 C   0  0  1  0  0  0
   -2.7110   -0.3690   52.9700 C   0  0  2  0  0  0
   -2.4490   -1.3450   54.1310 C   0  0  1  0  0  0
   -1.5900   -0.7120   55.2040 C   0  0  1  0  0  0
   -1.5840   -1.4930   56.5050 C   0  0  0  0  0  0
   -2.4400    2.0950   51.2840 O   0  5  0  0  0  0
   -2.0840    0.6280   49.8390 O   0  0  0  0  0  0
   -0.9510   -1.0640   51.3650 O   0  0  0  0  0  0
   -3.7680   -0.8980   52.1860 O   0  0  0  0  0  0
   -3.7380   -1.5630   54.7010 O   0  0  0  0  0  0
   -0.3050   -0.6580   54.6570 O   0  0  0  0  0  0
   -1.5670   -2.8610   56.2730 O   0  0  0  0  0  0
   -0.7770   -3.7820   57.2980 P   0  0  0  0  0  0
   -1.3940   -5.0570   56.9680 O   0  0  0  0  0  0
   -0.9480   -3.4070   58.7000 O   0  5  0  0  0  0
    0.6180   -3.6080   56.9140 O   0  5  0  0  0  0
   -0.7590    0.4628   52.6818 H   0  0  0  0  0  0
   -3.0243    0.5753   53.4391 H   0  0  0  0  0  0
   -1.9811   -2.2856   53.8051 H   0  0  0  0  0  0
   -1.9150    0.3111   55.4440 H   0  0  0  0  0  0
   -0.6905   -1.2264   57.0886 H   0  0  0  0  0  0
   -2.4866   -1.2479   57.0840 H   0  0  0  0  0  0
   -0.1102   -0.8926   50.6767 H   0  0  0  0  0  0
   -4.1190   -0.3536   51.2969 H   0  0  0  0  0  0
   -4.5363   -2.0192   54.0973 H   0  0  0  0  0  0
   -0.1325   -0.1268   53.7093 H   0  0  0  0  0  0
  1  2  1  0  0  0
  1  7  1  0  0  0
  1  8  2  0  0  0
  2  3  1  0  0  0
  2  9  1  0  0  0
  2 18  1  0  0  0
  3  4  1  0  0  0
  3 10  1  0  0  0
  3 19  1  0  0  0
  4  5  1  0  0  0
  4 11  1  0  0  0
  4 20  1  0  0  0
  5  6  1  0  0  0
  5 12  1  0  0  0
  5 21  1  0  0  0
  6 13  1  0  0  0
  6 22  1  0  0  0
  6 23  1  0  0  0
  9 24  1  0  0  0
 10 25  1  0  0  0
 11 26  1  0  0  0
 12 27  1  0  0  0
 13 14  1  0  0  0
 14 15  2  0  0  0
 14 16  1  0  0  0
 14 17  1  0  0  0
M  CHG  3   7  -1  16  -1  17  -1
M  END
> <s_m_source_file>
../3axm_ligand.sdf

> <i_m_source_file_index>
1

> <s_epik_input>
W09IXUMoPU8pW0NASF0oW09IXSlbQ0BASF0oW09IXSlbQ0BIXShbT0hdKVtDQEhdKFtPSF0pW0NIMl1PUCg9TykoW09IXSlbT0hd

> <s_epik_cmdline>
J2VwaWtfYXBwJywgJy1pbWFlJywgJ2xpZ2FuZF9wcm8ubWFlJywgJy1vbWFlJywgJ2xpZ2FuZF9wcmVwLm1hZScsICctbXMnLCAnMScsICctcGgnLCAnNycsICctcGh0JywgJzAuNScsICctbnQn

> <r_epik_Ionization_Penalty>
  0.1165

> <r_epik_Ionization_Penalty_Charging>
  0.1165

> <r_epik_Ionization_Penalty_Neutral>
  0.0000

> <r_epik_State_Penalty>
  0.1060

> <r_epik_Charging_Adjusted_Penalty>
0.222488398628737

> <i_epik_Tot_Q>
-3

> <i_epik_Tot_abs_Q>
3

$$$$
