3axz_ligand
                    3D
 Schrodinger Suite 2020-3.
 32 34  0  0  1  0            999 V2000
   44.3170    6.4750   11.1420 O   0  0  0  0  0  0
   43.0150    6.0440   11.5470 C   0  0  0  0  0  0
   42.9610    4.5150   11.5440 C   0  0  1  0  0  0
   43.3390    4.0240   10.2440 O   0  0  0  0  0  0
   43.9540    3.9250   12.5490 C   0  0  1  0  0  0
   43.5070    2.6620   13.0490 O   0  0  0  0  0  0
   45.1890    3.7470   11.6700 C   0  0  1  0  0  0
   46.1090    2.7990   12.2170 O   0  0  0  0  0  0
   44.5480    3.2550   10.3730 C   0  0  2  0  0  0
   45.4730    3.4530    9.2340 N   0  0  0  0  0  0
   45.8520    4.6280    8.7350 C   0  0  0  0  0  0
   46.7220    4.4330    7.7450 N   0  0  0  0  0  0
   46.8990    3.1220    7.6100 C   0  0  0  0  0  0
   47.6720    2.3300    6.7700 C   0  0  0  0  0  0
   48.4640    2.8800    5.8540 N   0  0  0  0  0  0
   47.6140    0.9980    6.9010 N   0  0  0  0  0  0
   46.8360    0.4360    7.8110 C   0  0  0  0  0  0
   46.0900    1.1580    8.6270 N   0  0  0  0  0  0
   46.0980    2.4960    8.5550 C   0  0  0  0  0  0
   44.5473    7.5490   11.0834 H   0  0  0  0  0  0
   42.8041    6.4167   12.5602 H   0  0  0  0  0  0
   42.2638    6.4391   10.8473 H   0  0  0  0  0  0
   41.9311    4.1912   11.7550 H   0  0  0  0  0  0
   44.0917    4.4966   13.4787 H   0  0  0  0  0  0
   42.6235    2.6106   13.7023 H   0  0  0  0  0  0
   45.8510    4.6209   11.5807 H   0  0  0  0  0  0
   46.6424    3.0265   13.1517 H   0  0  0  0  0  0
   44.2866    2.1867   10.3518 H   0  0  0  0  0  0
   45.5038    5.6004    9.0832 H   0  0  0  0  0  0
   48.5080    3.9742    5.7505 H   0  0  0  0  0  0
   49.0751    2.2407    5.1999 H   0  0  0  0  0  0
   46.8099   -0.6509    7.8894 H   0  0  0  0  0  0
  1  2  1  0  0  0
  1 20  1  0  0  0
  2  3  1  0  0  0
  2 21  1  0  0  0
  2 22  1  0  0  0
  3  4  1  0  0  0
  3  5  1  0  0  0
  3 23  1  0  0  0
  4  9  1  0  0  0
  5  6  1  0  0  0
  5  7  1  0  0  0
  5 24  1  0  0  0
  6 25  1  0  0  0
  7  8  1  0  0  0
  7  9  1  0  0  0
  7 26  1  0  0  0
  8 27  1  0  0  0
  9 10  1  0  0  0
  9 28  1  0  0  0
 10 11  1  0  0  0
 10 19  1  0  0  0
 11 12  2  0  0  0
 11 29  1  0  0  0
 12 13  1  0  0  0
 13 14  2  0  0  0
 13 19  1  0  0  0
 14 15  1  0  0  0
 14 16  1  0  0  0
 15 30  1  0  0  0
 15 31  1  0  0  0
 16 17  2  0  0  0
 17 18  1  0  0  0
 17 32  1  0  0  0
 18 19  2  0  0  0
M  END
> <s_m_source_file>
../3axz_ligand.sdf

> <i_m_source_file_index>
1

> <s_epik_input>
W09IXVtDSDJdW0NASF0xT1tDQEhdKFtDQEhdKFtPSF0pW0NAQEhdMVtPSF0pbihbY0hdbjIpYyhjMjMpbltjSF1uYzNbTkgyXQ==

> <s_epik_cmdline>
J2VwaWtfYXBwJywgJy1pbWFlJywgJ2xpZ2FuZF9wcm8ubWFlJywgJy1vbWFlJywgJ2xpZ2FuZF9wcmVwLm1hZScsICctbXMnLCAnMScsICctcGgnLCAnNycsICctcGh0JywgJzAuNScsICctbnQn

> <r_lp_tautomer_probability>
1

> <r_epik_Ionization_Penalty>
  0.0004

> <r_epik_Ionization_Penalty_Charging>
  0.0000

> <r_epik_Ionization_Penalty_Neutral>
  0.0004

> <r_epik_State_Penalty>
 -0.0000

> <r_epik_Charging_Adjusted_Penalty>
0

> <i_epik_Tot_Q>
0

> <i_epik_Tot_abs_Q>
0

> <s_epik_Chemistry_Notes>
This compound contains an acetal/aminal-like group ( X-CH(R)-Y where X, Y are N, S, or O) that may be acid/base labile, releasing an aldehyde.

$$$$
