3ay0_ligand
                    3D
 Schrodinger Suite 2020-3.
 32 34  0  0  1  0            999 V2000
  -53.1560   -6.8460  -39.0590 O   0  0  0  0  0  0
  -52.7630   -5.4900  -39.2840 C   0  0  0  0  0  0
  -53.9070   -4.7400  -39.9680 C   0  0  1  0  0  0
  -55.0600   -4.7130  -39.1090 O   0  0  0  0  0  0
  -53.4980   -3.2780  -40.1710 C   0  0  1  0  0  0
  -53.5710   -2.9250  -41.5540 O   0  0  0  0  0  0
  -54.5550   -2.5080  -39.3820 C   0  0  1  0  0  0
  -54.8440   -1.2400  -39.9760 O   0  0  0  0  0  0
  -55.7270   -3.4850  -39.4370 C   0  0  2  0  0  0
  -56.7810   -3.1250  -38.4610 N   0  0  0  0  0  0
  -56.6160   -2.9630  -37.1490 C   0  0  0  0  0  0
  -57.7800   -2.6640  -36.5780 N   0  0  0  0  0  0
  -58.7020   -2.6330  -37.5370 C   0  0  0  0  0  0
  -60.0680   -2.3880  -37.5570 C   0  0  0  0  0  0
  -60.7250   -2.1150  -36.4330 N   0  0  0  0  0  0
  -60.7200   -2.4420  -38.7260 N   0  0  0  0  0  0
  -60.0820   -2.7240  -39.8480 C   0  0  0  0  0  0
  -58.7830   -2.9630  -39.8670 N   0  0  0  0  0  0
  -58.0670   -2.9260  -38.7350 C   0  0  0  0  0  0
  -52.4609   -7.5468  -38.5735 H   0  0  0  0  0  0
  -52.5317   -5.0107  -38.3213 H   0  0  0  0  0  0
  -51.8713   -5.4687  -39.9278 H   0  0  0  0  0  0
  -54.1852   -5.2539  -40.8999 H   0  0  0  0  0  0
  -52.4554   -3.0483  -39.9061 H   0  0  0  0  0  0
  -52.8804   -3.3849  -42.2762 H   0  0  0  0  0  0
  -54.2717   -2.1721  -38.3736 H   0  0  0  0  0  0
  -54.0749   -0.4538  -39.9957 H   0  0  0  0  0  0
  -56.2759   -3.5612  -40.3872 H   0  0  0  0  0  0
  -55.6674   -3.0610  -36.6212 H   0  0  0  0  0  0
  -60.1839   -2.0721  -35.4762 H   0  0  0  0  0  0
  -61.8094   -1.9322  -36.4603 H   0  0  0  0  0  0
  -60.6421   -2.7604  -40.7824 H   0  0  0  0  0  0
  1  2  1  0  0  0
  1 20  1  0  0  0
  2  3  1  0  0  0
  2 21  1  0  0  0
  2 22  1  0  0  0
  3  4  1  0  0  0
  3  5  1  0  0  0
  3 23  1  0  0  0
  4  9  1  0  0  0
  5  6  1  0  0  0
  5  7  1  0  0  0
  5 24  1  0  0  0
  6 25  1  0  0  0
  7  8  1  0  0  0
  7  9  1  0  0  0
  7 26  1  0  0  0
  8 27  1  0  0  0
  9 10  1  0  0  0
  9 28  1  0  0  0
 10 11  1  0  0  0
 10 19  1  0  0  0
 11 12  2  0  0  0
 11 29  1  0  0  0
 12 13  1  0  0  0
 13 14  2  0  0  0
 13 19  1  0  0  0
 14 15  1  0  0  0
 14 16  1  0  0  0
 15 30  1  0  0  0
 15 31  1  0  0  0
 16 17  2  0  0  0
 17 18  1  0  0  0
 17 32  1  0  0  0
 18 19  2  0  0  0
M  END
> <s_m_source_file>
../3ay0_ligand.sdf

> <i_m_source_file_index>
1

> <s_epik_input>
W09IXVtDSDJdW0NASF0xT1tDQEhdKFtDQEhdKFtPSF0pW0NAQEhdMVtPSF0pbihbY0hdbjIpYyhjMjMpbltjSF1uYzNbTkgyXQ==

> <s_epik_cmdline>
J2VwaWtfYXBwJywgJy1pbWFlJywgJ2xpZ2FuZF9wcm8ubWFlJywgJy1vbWFlJywgJ2xpZ2FuZF9wcmVwLm1hZScsICctbXMnLCAnMScsICctcGgnLCAnNycsICctcGh0JywgJzAuNScsICctbnQn

> <r_lp_tautomer_probability>
1

> <r_epik_Ionization_Penalty>
  0.0004

> <r_epik_Ionization_Penalty_Charging>
  0.0000

> <r_epik_Ionization_Penalty_Neutral>
  0.0004

> <r_epik_State_Penalty>
 -0.0000

> <r_epik_Charging_Adjusted_Penalty>
0

> <i_epik_Tot_Q>
0

> <i_epik_Tot_abs_Q>
0

> <s_epik_Chemistry_Notes>
This compound contains an acetal/aminal-like group ( X-CH(R)-Y where X, Y are N, S, or O) that may be acid/base labile, releasing an aldehyde.

$$$$
