3ay9_ligand
                    3D
 Schrodinger Suite 2020-3.
 39 41  0  0  1  0            999 V2000
   -5.6660   11.7160  -17.9680 P   0  0  0  0  0  0
   -5.7690   11.6500  -19.4560 O   0  5  0  0  0  0
   -4.8660   10.5820  -17.3920 O   0  5  0  0  0  0
   -6.9550   11.9520  -17.2840 O   0  0  0  0  0  0
   -4.3680   13.8370  -16.3600 P   0  0  1  0  0  0
   -4.4660   12.9810  -15.1280 O   0  0  0  0  0  0
   -3.0770   14.5450  -16.7440 O   0  5  0  0  0  0
   -4.7770   13.0650  -17.7340 O   0  0  0  0  0  0
   -5.5300   14.9180  -16.1350 O   0  0  0  0  0  0
   -5.9020   15.7640  -17.2400 C   0  0  0  0  0  0
   -6.8620   16.8010  -16.7050 C   0  0  1  0  0  0
   -6.2560   17.4180  -15.5590 O   0  0  0  0  0  0
   -7.0950   17.8800  -17.7540 C   0  0  1  0  0  0
   -8.4950   18.1790  -17.7160 O   0  0  0  0  0  0
   -6.3120   19.0770  -17.2390 C   0  0  1  0  0  0
   -6.8430   20.3540  -17.6740 O   0  0  0  0  0  0
   -6.4660   18.8390  -15.7430 C   0  0  2  0  0  0
   -5.4950   19.5620  -14.9480 N   0  0  0  0  0  0
   -4.1440   19.5250  -15.0880 C   0  0  0  0  0  0
   -3.5540   20.3000  -14.1460 N   0  0  0  0  0  0
   -4.5410   20.8600  -13.4240 C   0  0  0  0  0  0
   -4.5960   21.8200  -12.2990 C   0  0  0  0  0  0
   -3.4420   22.3210  -11.7750 N   0  0  0  0  0  0
   -5.8250   22.1380  -11.8370 N   0  0  0  0  0  0
   -6.9670   21.6390  -12.3530 C   0  0  0  0  0  0
   -6.9980   20.7410  -13.3780 N   0  0  0  0  0  0
   -5.8200   20.3590  -13.9400 C   0  0  0  0  0  0
   -5.0028   16.2452  -17.6523 H   0  0  0  0  0  0
   -6.3837   15.1569  -18.0207 H   0  0  0  0  0  0
   -7.8079   16.3334  -16.3942 H   0  0  0  0  0  0
   -6.8464   17.6101  -18.7910 H   0  0  0  0  0  0
   -9.2268   17.4296  -18.0521 H   0  0  0  0  0  0
   -5.2862   19.1874  -17.6205 H   0  0  0  0  0  0
   -6.7893   20.6393  -18.7350 H   0  0  0  0  0  0
   -7.4426   19.1755  -15.3648 H   0  0  0  0  0  0
   -3.6115   18.9541  -15.8486 H   0  0  0  0  0  0
   -2.4711   22.0222  -12.1970 H   0  0  0  0  0  0
   -3.4814   23.0242  -10.9300 H   0  0  0  0  0  0
   -7.9143   21.9711  -11.9282 H   0  0  0  0  0  0
  1  2  1  0  0  0
  1  3  1  0  0  0
  1  4  2  0  0  0
  1  8  1  0  0  0
  5  6  2  0  0  0
  5  7  1  0  0  0
  5  8  1  0  0  0
  5  9  1  0  0  0
  9 10  1  0  0  0
 10 11  1  0  0  0
 10 28  1  0  0  0
 10 29  1  0  0  0
 11 12  1  0  0  0
 11 13  1  0  0  0
 11 30  1  0  0  0
 12 17  1  0  0  0
 13 14  1  0  0  0
 13 15  1  0  0  0
 13 31  1  0  0  0
 14 32  1  0  0  0
 15 16  1  0  0  0
 15 17  1  0  0  0
 15 33  1  0  0  0
 16 34  1  0  0  0
 17 18  1  0  0  0
 17 35  1  0  0  0
 18 19  1  0  0  0
 18 27  1  0  0  0
 19 20  2  0  0  0
 19 36  1  0  0  0
 20 21  1  0  0  0
 21 22  2  0  0  0
 21 27  1  0  0  0
 22 23  1  0  0  0
 22 24  1  0  0  0
 23 37  1  0  0  0
 23 38  1  0  0  0
 24 25  2  0  0  0
 25 26  1  0  0  0
 25 39  1  0  0  0
 26 27  2  0  0  0
M  CHG  3   2  -1   3  -1   7  -1
M  END
> <s_m_source_file>
../3ay9_ligand.sdf

> <i_m_source_file_index>
1

> <s_epik_input>
W09IXVAoPU8pKFtPSF0pT1tQQEBdKD1PKShbT0hdKU9bQ0gyXVtDQEhdMU9bQ0BIXShbQ0BIXShbT0hdKVtDQEBIXTFbT0hdKW4oW2NIXW4yKWMoYzIzKW5bY0hdbmMzW05IMl0=

> <s_epik_cmdline>
J2VwaWtfYXBwJywgJy1pbWFlJywgJ2xpZ2FuZF9wcm8ubWFlJywgJy1vbWFlJywgJ2xpZ2FuZF9wcmVwLm1hZScsICctbXMnLCAnMScsICctcGgnLCAnNycsICctcGh0JywgJzAuNScsICctbnQn

> <r_lp_tautomer_probability>
0.999997216410988

> <r_epik_Ionization_Penalty>
  0.1037

> <r_epik_Ionization_Penalty_Charging>
  0.1033

> <r_epik_Ionization_Penalty_Neutral>
  0.0004

> <r_epik_State_Penalty>
  0.0922

> <r_epik_Charging_Adjusted_Penalty>
0.19546844050481

> <i_epik_Tot_Q>
-3

> <i_epik_Tot_abs_Q>
3

> <s_epik_Chemistry_Notes>
This compound contains an acetal/aminal-like group ( X-CH(R)-Y where X, Y are N, S, or O) that may be acid/base labile, releasing an aldehyde.

$$$$
