3aya_ligand
                    3D
 Schrodinger Suite 2020-3.
 65 66  0  0  1  0            999 V2000
    7.1670   -2.5680  -38.8930 N   0  3  0  0  0  0
    6.3780   -3.0370  -40.0400 C   0  0  2  0  0  0
    6.1650   -1.8720  -41.0090 C   0  0  0  0  0  0
    7.1480   -1.5360  -41.7070 O   0  5  0  0  0  0
    5.0360   -3.5800  -39.5390 C   0  0  2  0  0  0
    4.4350   -2.6430  -38.6330 O   0  0  0  0  0  0
    5.2590   -4.9170  -38.8310 C   0  0  0  0  0  0
    5.0330   -1.3450  -41.0410 O   0  0  0  0  0  0
    2.1420   -2.9660  -39.0760 O   0  0  0  0  0  0
    3.2530   -2.0650  -39.2050 C   0  0  1  0  0  0
    2.9500   -0.7480  -38.4880 C   0  0  2  0  0  0
    4.1240    0.1310  -38.6040 N   0  0  0  0  0  0
    2.6610   -1.0040  -37.0080 C   0  0  1  0  0  0
    2.3020    0.2420  -36.3930 O   0  0  0  0  0  0
    1.5170   -2.0160  -36.9240 C   0  0  1  0  0  0
    0.3250   -1.4440  -37.4700 O   0  0  0  0  0  0
    1.8790   -3.2840  -37.7000 C   0  0  1  0  0  0
    0.7090   -4.2690  -37.6300 C   0  0  0  0  0  0
    1.0380   -5.4550  -38.3580 O   0  0  0  0  0  0
    4.0170    1.4380  -38.8190 C   0  0  0  0  0  0
    2.7890    2.0110  -38.9380 O   0  0  0  0  0  0
    5.1630    2.2180  -38.9290 C   0  0  0  0  0  0
    2.3250    0.1530  -34.9610 C   0  0  1  0  0  0
    2.6930    1.5390  -34.4260 C   0  0  1  0  0  0
    2.5930    1.5840  -32.9010 C   0  0  2  0  0  0
    1.2080    1.0930  -32.4800 C   0  0  2  0  0  0
    0.9720   -0.3060  -33.0530 C   0  0  1  0  0  0
   -0.3970   -0.8130  -32.5940 C   0  0  0  0  0  0
    4.0190    1.8860  -34.8320 O   0  0  0  0  0  0
    2.7800    2.9270  -32.4490 O   0  0  0  0  0  0
    0.2140    1.9850  -32.9920 O   0  0  0  0  0  0
    1.0310   -0.2590  -34.4880 O   0  0  0  0  0  0
   -0.5940   -2.1510  -33.0570 O   0  0  0  0  0  0
    8.1321   -2.1769  -39.2473 H   0  0  0  0  0  0
    7.3422   -3.4054  -38.2016 H   0  0  0  0  0  0
    6.6174   -1.7706  -38.3714 H   0  0  0  0  0  0
    6.9412   -3.8392  -40.5393 H   0  0  0  0  0  0
    4.3192   -3.6863  -40.3666 H   0  0  0  0  0  0
    5.7196   -5.6300  -39.5306 H   0  0  0  0  0  0
    4.2933   -5.3143  -38.4852 H   0  0  0  0  0  0
    5.9245   -4.7683  -37.9679 H   0  0  0  0  0  0
    3.4295   -1.9418  -40.2837 H   0  0  0  0  0  0
    2.0905   -0.2459  -38.9561 H   0  0  0  0  0  0
    5.1366   -0.2888  -38.5125 H   0  0  0  0  0  0
    3.5370   -1.3576  -36.4444 H   0  0  0  0  0  0
    1.2828   -2.2517  -35.8754 H   0  0  0  0  0  0
   -0.0903   -0.5216  -37.0379 H   0  0  0  0  0  0
    2.8091   -3.7245  -37.3115 H   0  0  0  0  0  0
    0.5099   -4.5277  -36.5796 H   0  0  0  0  0  0
   -0.1868   -3.8062  -38.0698 H   0  0  0  0  0  0
    0.3143   -6.2811  -38.4196 H   0  0  0  0  0  0
    6.0523    1.5824  -38.8057 H   0  0  0  0  0  0
    5.1552    2.9931  -38.1486 H   0  0  0  0  0  0
    5.1879    2.6954  -39.9197 H   0  0  0  0  0  0
    3.0271   -0.6335  -34.6473 H   0  0  0  0  0  0
    2.0363    2.2998  -34.8730 H   0  0  0  0  0  0
    3.3925    0.9964  -32.4262 H   0  0  0  0  0  0
    1.0954    1.1046  -31.3858 H   0  0  0  0  0  0
    1.7689   -1.0028  -32.7540 H   0  0  0  0  0  0
   -0.4447   -0.7962  -31.4952 H   0  0  0  0  0  0
   -1.1848   -0.1647  -33.0051 H   0  0  0  0  0  0
    4.2793    1.9070  -35.9006 H   0  0  0  0  0  0
    3.7234    3.4519  -32.6598 H   0  0  0  0  0  0
    0.2180    3.0434  -32.6923 H   0  0  0  0  0  0
   -1.5278   -2.6826  -32.8216 H   0  0  0  0  0  0
  1  2  1  0  0  0
  1 34  1  0  0  0
  1 35  1  0  0  0
  1 36  1  0  0  0
  2  3  1  0  0  0
  2  5  1  0  0  0
  2 37  1  0  0  0
  3  4  1  0  0  0
  3  8  2  0  0  0
  5  6  1  0  0  0
  5  7  1  0  0  0
  5 38  1  0  0  0
  6 10  1  0  0  0
  7 39  1  0  0  0
  7 40  1  0  0  0
  7 41  1  0  0  0
  9 10  1  0  0  0
  9 17  1  0  0  0
 10 11  1  0  0  0
 10 42  1  0  0  0
 11 12  1  0  0  0
 11 13  1  0  0  0
 11 43  1  0  0  0
 12 20  1  0  0  0
 12 44  1  0  0  0
 13 14  1  0  0  0
 13 15  1  0  0  0
 13 45  1  0  0  0
 14 23  1  0  0  0
 15 16  1  0  0  0
 15 17  1  0  0  0
 15 46  1  0  0  0
 16 47  1  0  0  0
 17 18  1  0  0  0
 17 48  1  0  0  0
 18 19  1  0  0  0
 18 49  1  0  0  0
 18 50  1  0  0  0
 19 51  1  0  0  0
 20 21  2  0  0  0
 20 22  1  0  0  0
 22 52  1  0  0  0
 22 53  1  0  0  0
 22 54  1  0  0  0
 23 24  1  0  0  0
 23 32  1  0  0  0
 23 55  1  0  0  0
 24 25  1  0  0  0
 24 29  1  0  0  0
 24 56  1  0  0  0
 25 26  1  0  0  0
 25 30  1  0  0  0
 25 57  1  0  0  0
 26 27  1  0  0  0
 26 31  1  0  0  0
 26 58  1  0  0  0
 27 28  1  0  0  0
 27 32  1  0  0  0
 27 59  1  0  0  0
 28 33  1  0  0  0
 28 60  1  0  0  0
 28 61  1  0  0  0
 29 62  1  0  0  0
 30 63  1  0  0  0
 31 64  1  0  0  0
 33 65  1  0  0  0
M  CHG  2   1   1   4  -1
M  END
> <s_m_source_file>
../3aya_ligand.sdf

> <i_m_source_file_index>
1

> <s_epik_input>
W09IXUMoPU8pW0NAQEhdKFtOSDMrXSlbQ0BASF0oW0NIM10pT1tDQEhdMU9bQ0BIXShbQ0gyXVtPSF0pW0NASF0oW09IXSlbQ0BASF0oW0NASF0xW05IXUMoPU8pW0NIM10pT1tDQEhdMltDQEhdKFtPSF0pW0NAQEhdKFtPSF0pW0NAQEhdKFtPSF0pW0NASF0oTzIpW0NIMl1bT0hd

> <s_epik_cmdline>
J2VwaWtfYXBwJywgJy1pbWFlJywgJ2xpZ2FuZF9wcm8ubWFlJywgJy1vbWFlJywgJ2xpZ2FuZF9wcmVwLm1hZScsICctbXMnLCAnMScsICctcGgnLCAnNycsICctcGh0JywgJzAuNScsICctbnQn

> <r_lp_tautomer_probability>
1

> <r_epik_Ionization_Penalty>
  0.0094

> <r_epik_Ionization_Penalty_Charging>
  0.0094

> <r_epik_Ionization_Penalty_Neutral>
  0.0000

> <r_epik_State_Penalty>
 -0.0000

> <r_epik_Charging_Adjusted_Penalty>
0.00937969448104163

> <i_epik_Tot_Q>
0

> <i_epik_Tot_abs_Q>
2

> <s_epik_Chemistry_Notes>
This compound contains an acetal/aminal-like group ( X-CH(R)-Y where X, Y are N, S, or O) that may be acid/base labile, releasing an aldehyde.

$$$$
