3ayc_ligand
                    3D
 Schrodinger Suite 2020-3.
129133  0  0  1  0            999 V2000
   19.3570   27.1410    7.6980 C   0  0  1  0  0  0
   19.1460   25.6750    7.3170 C   0  0  1  0  0  0
   19.0340   25.5140    5.8010 C   0  0  2  0  0  0
   17.9330   26.4450    5.2920 C   0  0  2  0  0  0
   18.2410   27.8760    5.7350 C   0  0  1  0  0  0
   17.1580   28.8370    5.2410 C   0  0  0  0  0  0
   20.2230   24.8850    7.8280 O   0  0  0  0  0  0
   18.6910   24.1600    5.4940 O   0  0  0  0  0  0
   16.6880   26.0320    5.8620 O   0  0  0  0  0  0
   18.2900   27.9430    7.1680 O   0  0  0  0  0  0
   17.4660   30.1560    5.7000 O   0  0  0  0  0  0
   21.1120   29.2830   11.6870 C   0  0  1  0  0  0
   20.3760   28.0840   11.0890 C   0  0  1  0  0  0
   20.0290   28.3440    9.6240 C   0  0  2  0  0  0
   19.2130   29.6350    9.5400 C   0  0  2  0  0  0
   19.9750   30.7730   10.2230 C   0  0  1  0  0  0
   19.1120   32.0360   10.1890 C   0  0  0  0  0  0
   20.7180   25.6920   11.4870 C   0  0  0  0  0  0
   21.7380   24.5530   11.5320 C   0  0  0  0  0  0
   21.2200   26.8830   11.1760 N   0  0  0  0  0  0
   19.3090   27.2060    9.1290 O   0  0  0  0  0  0
   17.9510   29.4500   10.1880 O   0  0  0  0  0  0
   20.2580   30.4340   11.5910 O   0  0  0  0  0  0
   19.8040   33.1090   10.8330 O   0  0  0  0  0  0
   19.5280   25.4860   11.7260 O   0  0  0  0  0  0
   22.9670   27.6700   15.6910 C   0  0  1  0  0  0
   23.3470   27.3090   14.2530 C   0  0  1  0  0  0
   23.6840   28.5170   13.3780 C   0  0  2  0  0  0
   22.5820   29.5540   13.5250 C   0  0  2  0  0  0
   22.4100   29.8770   15.0000 C   0  0  1  0  0  0
   21.3700   30.9910   15.1390 C   0  0  0  0  0  0
   24.4740   26.4280   14.2740 O   0  0  0  0  0  0
   23.6950   27.9960   12.0400 O   0  0  0  0  0  0
   21.3420   28.9890   13.0730 O   0  0  0  0  0  0
   21.9680   28.7030   15.7020 O   0  0  0  0  0  0
   21.1640   31.2910   16.5220 O   0  0  0  0  0  0
   20.7680   25.3990   19.3830 C   0  0  2  0  0  0
   20.8750   25.7960   17.9090 C   0  0  2  0  0  0
   22.2720   26.3350   17.5890 C   0  0  1  0  0  0
   23.2850   25.2920   18.0400 C   0  0  1  0  0  0
   24.7030   25.7850   17.7460 C   0  0  0  0  0  0
   21.8820   24.4100   19.7290 C   0  0  2  0  0  0
   21.8240   24.0840   21.1210 O   0  0  0  0  0  0
   19.5000   24.7720   19.5970 O   0  0  0  0  0  0
   19.8930   26.7890   17.6040 O   0  0  0  0  0  0
   22.3560   26.4590   16.1620 O   0  0  0  0  0  0
   23.1550   25.0110   19.4430 O   0  0  0  0  0  0
   24.9380   26.9980   18.4660 O   0  0  0  0  0  0
   24.3030   28.0990    9.7490 C   0  0  0  0  0  0
   24.6350   28.6070   11.1540 C   0  0  2  0  0  0
   26.0600   28.2040   11.5430 C   0  0  0  0  0  0
   27.0520   28.8730   10.5880 C   0  0  1  0  0  0
   26.8230   30.3850   10.5650 C   0  0  2  0  0  0
   25.3580   30.6470   10.2130 C   0  0  2  0  0  0
   25.0470   32.1440   10.1450 C   0  0  1  0  0  0
   23.5550   32.3480    9.8720 C   0  0  1  0  0  0
   23.2170   33.8280    9.6800 C   0  0  0  0  0  0
   28.7450   31.7430    9.8640 C   0  0  0  0  0  0
   29.5590   32.2620    8.6790 C   0  0  0  0  0  0
   27.7020   30.9910    9.5490 N   0  0  0  0  0  0
   24.7900   26.9960    9.4140 O   0  5  0  0  0  0
   23.5460   28.8050    9.0510 O   0  0  0  0  0  0
   28.3920   28.5900   10.9980 O   0  0  0  0  0  0
   24.5120   30.0330   11.1990 O   0  0  0  0  0  0
   25.3900   32.7570   11.3900 O   0  0  0  0  0  0
   23.1670   31.6030    8.7160 O   0  0  0  0  0  0
   21.8170   33.9660    9.4230 O   0  0  0  0  0  0
   29.0810   32.0130   11.0250 O   0  0  0  0  0  0
   20.3010   27.5674    7.3278 H   0  0  0  0  0  0
   18.2398   25.2781    7.7979 H   0  0  0  0  0  0
   19.9933   25.7027    5.2969 H   0  0  0  0  0  0
   17.8153   26.3826    4.2001 H   0  0  0  0  0  0
   19.2341   28.1742    5.3679 H   0  0  0  0  0  0
   17.1290   28.8228    4.1415 H   0  0  0  0  0  0
   16.1810   28.5236    5.6376 H   0  0  0  0  0  0
   20.4425   24.8858    8.9059 H   0  0  0  0  0  0
   19.3669   23.3421    5.7842 H   0  0  0  0  0  0
   16.2959   25.0251    5.6561 H   0  0  0  0  0  0
   16.8017   30.9955    5.4470 H   0  0  0  0  0  0
   22.0687   29.5236   11.2002 H   0  0  0  0  0  0
   19.4606   27.8925   11.6681 H   0  0  0  0  0  0
   20.9088   28.4232    8.9684 H   0  0  0  0  0  0
   18.9795   29.8847    8.4945 H   0  0  0  0  0  0
   20.9547   30.9292    9.7478 H   0  0  0  0  0  0
   18.9047   32.3104    9.1441 H   0  0  0  0  0  0
   18.1638   31.8464   10.7133 H   0  0  0  0  0  0
   22.7367   24.9454   11.2897 H   0  0  0  0  0  0
   21.4592   23.7819   10.7987 H   0  0  0  0  0  0
   21.7516   24.1126   12.5399 H   0  0  0  0  0  0
   22.3002   26.9546   10.9811 H   0  0  0  0  0  0
   17.2598   28.6711    9.8337 H   0  0  0  0  0  0
   19.3349   34.1014   10.9049 H   0  0  0  0  0  0
   23.7878   28.0297   16.3289 H   0  0  0  0  0  0
   22.5016   26.7724   13.7976 H   0  0  0  0  0  0
   24.6548   28.9875   13.5928 H   0  0  0  0  0  0
   22.7977   30.4439   12.9155 H   0  0  0  0  0  0
   23.3675   30.1570   15.4634 H   0  0  0  0  0  0
   21.7272   31.8929   14.6203 H   0  0  0  0  0  0
   20.4197   30.6633   14.6923 H   0  0  0  0  0  0
   24.4310   25.4937   14.8529 H   0  0  0  0  0  0
   20.4461   32.0715   16.8145 H   0  0  0  0  0  0
   20.8019   26.2787   20.0426 H   0  0  0  0  0  0
   20.6414   24.9352   17.2651 H   0  0  0  0  0  0
   22.4749   27.3209   18.0326 H   0  0  0  0  0  0
   23.0754   24.3356   17.5386 H   0  0  0  0  0  0
   25.4294   25.0217   18.0618 H   0  0  0  0  0  0
   24.8107   25.9695   16.6669 H   0  0  0  0  0  0
   21.8068   23.4695   19.1635 H   0  0  0  0  0  0
   20.9223   23.6118   21.5382 H   0  0  0  0  0  0
   18.5714   25.3283   19.4016 H   0  0  0  0  0  0
   18.8265   26.5774   17.7711 H   0  0  0  0  0  0
   25.9089   27.5082   18.3820 H   0  0  0  0  0  0
   26.2644   28.5288   12.5739 H   0  0  0  0  0  0
   26.1633   27.1109   11.4756 H   0  0  0  0  0  0
   26.9623   28.4508    9.5762 H   0  0  0  0  0  0
   27.0791   30.8470   11.5299 H   0  0  0  0  0  0
   25.1238   30.1749    9.2475 H   0  0  0  0  0  0
   25.6620   32.6431    9.3817 H   0  0  0  0  0  0
   22.9628   31.9375   10.7031 H   0  0  0  0  0  0
   23.4799   34.3853   10.5912 H   0  0  0  0  0  0
   23.7879   34.2270    8.8286 H   0  0  0  0  0  0
   29.1015   31.9161    7.7403 H   0  0  0  0  0  0
   30.5889   31.8816    8.7470 H   0  0  0  0  0  0
   29.5723   33.3618    8.6969 H   0  0  0  0  0  0
   27.5027   30.8254    8.4800 H   0  0  0  0  0  0
   28.7360   27.5478   11.0721 H   0  0  0  0  0  0
   26.4261   32.7144   11.7570 H   0  0  0  0  0  0
   23.3360   30.5167    8.6795 H   0  0  0  0  0  0
   21.3839   34.9635    9.2577 H   0  0  0  0  0  0
  1  2  1  0  0  0
  1 10  1  0  0  0
  1 21  1  0  0  0
  1 69  1  0  0  0
  2  3  1  0  0  0
  2  7  1  0  0  0
  2 70  1  0  0  0
  3  4  1  0  0  0
  3  8  1  0  0  0
  3 71  1  0  0  0
  4  5  1  0  0  0
  4  9  1  0  0  0
  4 72  1  0  0  0
  5  6  1  0  0  0
  5 10  1  0  0  0
  5 73  1  0  0  0
  6 11  1  0  0  0
  6 74  1  0  0  0
  6 75  1  0  0  0
  7 76  1  0  0  0
  8 77  1  0  0  0
  9 78  1  0  0  0
 11 79  1  0  0  0
 12 13  1  0  0  0
 12 23  1  0  0  0
 12 34  1  0  0  0
 12 80  1  0  0  0
 13 14  1  0  0  0
 13 20  1  0  0  0
 13 81  1  0  0  0
 14 15  1  0  0  0
 14 21  1  0  0  0
 14 82  1  0  0  0
 15 16  1  0  0  0
 15 22  1  0  0  0
 15 83  1  0  0  0
 16 17  1  0  0  0
 16 23  1  0  0  0
 16 84  1  0  0  0
 17 24  1  0  0  0
 17 85  1  0  0  0
 17 86  1  0  0  0
 18 19  1  0  0  0
 18 20  1  0  0  0
 18 25  2  0  0  0
 19 87  1  0  0  0
 19 88  1  0  0  0
 19 89  1  0  0  0
 20 90  1  0  0  0
 22 91  1  0  0  0
 24 92  1  0  0  0
 26 27  1  0  0  0
 26 35  1  0  0  0
 26 46  1  0  0  0
 26 93  1  0  0  0
 27 28  1  0  0  0
 27 32  1  0  0  0
 27 94  1  0  0  0
 28 29  1  0  0  0
 28 33  1  0  0  0
 28 95  1  0  0  0
 29 30  1  0  0  0
 29 34  1  0  0  0
 29 96  1  0  0  0
 30 31  1  0  0  0
 30 35  1  0  0  0
 30 97  1  0  0  0
 31 36  1  0  0  0
 31 98  1  0  0  0
 31 99  1  0  0  0
 32100  1  0  0  0
 33 50  1  0  0  0
 36101  1  0  0  0
 37 38  1  0  0  0
 37 42  1  0  0  0
 37 44  1  0  0  0
 37102  1  0  0  0
 38 39  1  0  0  0
 38 45  1  0  0  0
 38103  1  0  0  0
 39 40  1  0  0  0
 39 46  1  0  0  0
 39104  1  0  0  0
 40 41  1  0  0  0
 40 47  1  0  0  0
 40105  1  0  0  0
 41 48  1  0  0  0
 41106  1  0  0  0
 41107  1  0  0  0
 42 43  1  0  0  0
 42 47  1  0  0  0
 42108  1  0  0  0
 43109  1  0  0  0
 44110  1  0  0  0
 45111  1  0  0  0
 48112  1  0  0  0
 49 50  1  0  0  0
 49 61  1  0  0  0
 49 62  2  0  0  0
 50 51  1  0  0  0
 50 64  1  0  0  0
 51 52  1  0  0  0
 51113  1  0  0  0
 51114  1  0  0  0
 52 53  1  0  0  0
 52 63  1  0  0  0
 52115  1  0  0  0
 53 54  1  0  0  0
 53 60  1  0  0  0
 53116  1  0  0  0
 54 55  1  0  0  0
 54 64  1  0  0  0
 54117  1  0  0  0
 55 56  1  0  0  0
 55 65  1  0  0  0
 55118  1  0  0  0
 56 57  1  0  0  0
 56 66  1  0  0  0
 56119  1  0  0  0
 57 67  1  0  0  0
 57120  1  0  0  0
 57121  1  0  0  0
 58 59  1  0  0  0
 58 60  1  0  0  0
 58 68  2  0  0  0
 59122  1  0  0  0
 59123  1  0  0  0
 59124  1  0  0  0
 60125  1  0  0  0
 63126  1  0  0  0
 65127  1  0  0  0
 66128  1  0  0  0
 67129  1  0  0  0
M  CHG  1  61  -1
M  END
> <s_m_source_file>
../3ayc_ligand.sdf

> <i_m_source_file_index>
1

> <s_epik_input>
W09IXVtDSDJdW0NAQEhdKE8xKVtDQEhdKFtPSF0pW0NASF0oW09IXSlbQ0BASF0oW09IXSlbQ0BASF0xT1tDQEBIXShbQ0BASF0oW09IXSlbQ0BIXShPMilbQ0gyXVtPSF0pW0NAQEhdKFtOSF1DKD1PKVtDSDNdKVtDQEBIXTJPW0NAQEhdKFtDQEhdKE8zKVtDSDJdW09IXSlbQ0BASF0oW0NAQEhdKFtPSF0pW0NAQEhdM09bQ0BASF0oW0NASF0oW09IXSlbQ0BIXTRbT0hdKVtDQEBIXShbQ0gyXVtPSF0pT1tDQEhdNFtPSF0pT1tDQF01KEMoPU8pW09IXSlbQ0gyXVtDQEhdKFtPSF0pW0NAQEhdKFtOSF1DKD1PKVtDSDNdKVtDQEBIXShPNSlbQ0BIXShbT0hdKVtDQEhdKFtPSF0pW0NIMl1bT0hd

> <s_epik_cmdline>
J2VwaWtfYXBwJywgJy1pbWFlJywgJ2xpZ2FuZF9wcm8ubWFlJywgJy1vbWFlJywgJ2xpZ2FuZF9wcmVwLm1hZScsICctbXMnLCAnMScsICctcGgnLCAnNycsICctcGh0JywgJzAuNScsICctbnQn

> <r_lp_tautomer_probability>
1

> <r_epik_Ionization_Penalty>
  0.0000

> <r_epik_Ionization_Penalty_Charging>
  0.0000

> <r_epik_Ionization_Penalty_Neutral>
  0.0000

> <r_epik_State_Penalty>
 -0.0000

> <r_epik_Charging_Adjusted_Penalty>
9.88427715667134e-06

> <i_epik_Tot_Q>
-1

> <i_epik_Tot_abs_Q>
1

> <s_epik_Chemistry_Notes>
This compound contains an acetal/aminal-like group ( X-CH(R)-Y where X, Y are N, S, or O) that may be acid/base labile, releasing an aldehyde.

$$$$
