3ayd_ligand
                    3D
 Schrodinger Suite 2020-3.
 63 65  0  0  1  0            999 V2000
  -22.0540   19.4680   28.8190 C   0  0  0  0  0  0
  -23.0920   19.9870   28.0530 C   0  0  0  0  0  0
  -23.4370   19.3930   26.8440 C   0  0  0  0  0  0
  -22.7360   18.2790   26.3940 C   0  0  0  0  0  0
  -21.6800   17.7770   27.1480 C   0  0  0  0  0  0
  -21.3410   18.3650   28.3610 C   0  0  0  0  0  0
  -23.0400   17.6700   25.2160 O   0  0  0  0  0  0
  -21.8030   19.9560   30.0310 N   0  3  0  0  0  0
  -22.5520   21.0690   30.4980 O   0  0  0  0  0  0
  -20.8080   19.3270   30.8280 O   0  5  0  0  0  0
  -24.0030   19.2650   23.7290 O   0  0  0  0  0  0
  -24.2480   18.1540   24.6080 C   0  0  1  0  0  0
  -24.8520   17.0030   23.8210 C   0  0  2  0  0  0
  -25.0500   15.8450   24.7050 N   0  0  0  0  0  0
  -23.8740   16.5870   22.7370 C   0  0  1  0  0  0
  -24.4680   15.5020   22.0110 O   0  0  0  0  0  0
  -23.6050   17.7830   21.8360 C   0  0  1  0  0  0
  -24.8130   18.1800   21.1690 O   0  0  0  0  0  0
  -23.0760   18.9330   22.6820 C   0  0  1  0  0  0
  -22.9030   20.1680   21.7950 C   0  0  0  0  0  0
  -22.4530   21.2670   22.5920 O   0  0  0  0  0  0
  -26.1060   15.7320   25.5200 C   0  0  0  0  0  0
  -27.1170   16.6340   25.6470 O   0  0  0  0  0  0
  -26.1030   14.5500   26.4910 C   0  0  0  0  0  0
  -23.5020   14.7890   21.2270 C   0  0  1  0  0  0
  -24.0200   13.3720   21.0330 C   0  0  1  0  0  0
  -23.1230   12.6060   20.0760 C   0  0  2  0  0  0
  -23.0210   13.3860   18.7770 C   0  0  2  0  0  0
  -22.4830   14.7730   19.0880 C   0  0  1  0  0  0
  -22.3510   15.5870   17.7990 C   0  0  0  0  0  0
  -24.0670   12.6930   22.2960 O   0  0  0  0  0  0
  -23.7080   11.3200   19.8220 O   0  0  0  0  0  0
  -24.3260   13.5000   18.1920 O   0  0  0  0  0  0
  -23.3970   15.4540   19.9590 O   0  0  0  0  0  0
  -21.8610   16.8900   18.1250 O   0  0  0  0  0  0
  -23.6378   20.8636   28.4019 H   0  0  0  0  0  0
  -24.2554   19.7996   26.2499 H   0  0  0  0  0  0
  -21.1154   16.9179   26.7855 H   0  0  0  0  0  0
  -20.5182   17.9626   28.9520 H   0  0  0  0  0  0
  -24.8902   18.5504   25.4083 H   0  0  0  0  0  0
  -25.8268   17.3009   23.4075 H   0  0  0  0  0  0
  -24.3141   15.0274   24.7136 H   0  0  0  0  0  0
  -22.9228   16.2023   23.1334 H   0  0  0  0  0  0
  -22.9001   17.5220   21.0329 H   0  0  0  0  0  0
  -25.3366   17.4707   20.5111 H   0  0  0  0  0  0
  -22.1435   18.6299   23.1806 H   0  0  0  0  0  0
  -22.1614   19.9553   21.0109 H   0  0  0  0  0  0
  -23.8664   20.4227   21.3291 H   0  0  0  0  0  0
  -22.2715   22.2466   22.1257 H   0  0  0  0  0  0
  -25.2384   13.9038   26.2793 H   0  0  0  0  0  0
  -27.0312   13.9725   26.3685 H   0  0  0  0  0  0
  -26.0373   14.9238   27.5234 H   0  0  0  0  0  0
  -22.5152   14.8169   21.7122 H   0  0  0  0  0  0
  -25.0530   13.3931   20.6555 H   0  0  0  0  0  0
  -22.1279   12.4185   20.5058 H   0  0  0  0  0  0
  -22.3942   12.8659   18.0377 H   0  0  0  0  0  0
  -21.5225   14.6944   19.6184 H   0  0  0  0  0  0
  -21.6484   15.0842   17.1182 H   0  0  0  0  0  0
  -23.3353   15.6693   17.3149 H   0  0  0  0  0  0
  -24.6710   13.1031   23.1188 H   0  0  0  0  0  0
  -23.8615   10.6124   20.6501 H   0  0  0  0  0  0
  -24.8780   12.5950   17.8981 H   0  0  0  0  0  0
  -21.6969   17.6310   17.3288 H   0  0  0  0  0  0
  1  2  2  0  0  0
  1  6  1  0  0  0
  1  8  1  0  0  0
  2  3  1  0  0  0
  2 36  1  0  0  0
  3  4  2  0  0  0
  3 37  1  0  0  0
  4  5  1  0  0  0
  4  7  1  0  0  0
  5  6  2  0  0  0
  5 38  1  0  0  0
  6 39  1  0  0  0
  7 12  1  0  0  0
  8  9  2  0  0  0
  8 10  1  0  0  0
 11 12  1  0  0  0
 11 19  1  0  0  0
 12 13  1  0  0  0
 12 40  1  0  0  0
 13 14  1  0  0  0
 13 15  1  0  0  0
 13 41  1  0  0  0
 14 22  1  0  0  0
 14 42  1  0  0  0
 15 16  1  0  0  0
 15 17  1  0  0  0
 15 43  1  0  0  0
 16 25  1  0  0  0
 17 18  1  0  0  0
 17 19  1  0  0  0
 17 44  1  0  0  0
 18 45  1  0  0  0
 19 20  1  0  0  0
 19 46  1  0  0  0
 20 21  1  0  0  0
 20 47  1  0  0  0
 20 48  1  0  0  0
 21 49  1  0  0  0
 22 23  2  0  0  0
 22 24  1  0  0  0
 24 50  1  0  0  0
 24 51  1  0  0  0
 24 52  1  0  0  0
 25 26  1  0  0  0
 25 34  1  0  0  0
 25 53  1  0  0  0
 26 27  1  0  0  0
 26 31  1  0  0  0
 26 54  1  0  0  0
 27 28  1  0  0  0
 27 32  1  0  0  0
 27 55  1  0  0  0
 28 29  1  0  0  0
 28 33  1  0  0  0
 28 56  1  0  0  0
 29 30  1  0  0  0
 29 34  1  0  0  0
 29 57  1  0  0  0
 30 35  1  0  0  0
 30 58  1  0  0  0
 30 59  1  0  0  0
 31 60  1  0  0  0
 32 61  1  0  0  0
 33 62  1  0  0  0
 35 63  1  0  0  0
M  CHG  2   8   1  10  -1
M  END
> <s_m_source_file>
../3ayd_ligand.sdf

> <i_m_source_file_index>
1

> <s_epik_input>
Tz1bTitdKFtPLV0pYzFbY0hdW2NIXWMoW2NIXVtjSF0xKU9bQ0BIXTJPW0NASF0oW0NIMl1bT0hdKVtDQEhdKFtPSF0pW0NAQEhdKFtDQEhdMltOSF1DKD1PKVtDSDNdKU9bQ0BIXTNbQ0BIXShbT0hdKVtDQEBIXShbT0hdKVtDQEBIXShbT0hdKVtDQEhdKE8zKVtDSDJdW09IXQ==

> <s_epik_cmdline>
J2VwaWtfYXBwJywgJy1pbWFlJywgJ2xpZ2FuZF9wcm8ubWFlJywgJy1vbWFlJywgJ2xpZ2FuZF9wcmVwLm1hZScsICctbXMnLCAnMScsICctcGgnLCAnNycsICctcGh0JywgJzAuNScsICctbnQn

> <r_lp_tautomer_probability>
1

> <r_epik_Ionization_Penalty>
  0.0000

> <r_epik_Ionization_Penalty_Charging>
  0.0000

> <r_epik_Ionization_Penalty_Neutral>
  0.0000

> <r_epik_State_Penalty>
 -0.0000

> <r_epik_Charging_Adjusted_Penalty>
0

> <i_epik_Tot_Q>
0

> <i_epik_Tot_abs_Q>
2

> <s_epik_Chemistry_Notes>
This compound contains an acetal/aminal-like group ( X-CH(R)-Y where X, Y are N, S, or O) that may be acid/base labile, releasing an aldehyde.

$$$$
