3az9_ligand
                    3D
 Schrodinger Suite 2020-3.
 29 31  0  0  1  0            999 V2000
  -14.2410   33.6030   35.4290 C   0  0  0  0  0  0
  -13.0730   32.9290   35.7100 C   0  0  0  0  0  0
  -11.9970   32.8950   34.8370 C   0  0  0  0  0  0
  -12.1000   33.5370   33.6350 C   0  0  0  0  0  0
  -13.2640   34.2180   33.3300 C   0  0  0  0  0  0
  -14.3370   34.2630   34.2210 C   0  0  0  0  0  0
  -15.4960   34.9660   33.9300 O   0  0  0  0  0  0
  -15.4640   36.3350   34.0080 C   0  0  0  0  0  0
  -15.3760   37.1810   32.8920 C   0  0  0  0  0  0
  -15.3540   38.5690   33.0430 C   0  0  0  0  0  0
  -15.3990   39.1320   34.3060 C   0  0  0  0  0  0
  -15.4630   38.2760   35.3940 C   0  0  0  0  0  0
  -15.4880   36.8920   35.2430 C   0  0  0  0  0  0
  -15.5490   36.0490   36.2840 N   0  0  0  0  0  0
  -15.5930   36.5280   37.5300 C   0  0  0  0  0  0
  -15.5620   37.8990   37.7300 C   0  0  0  0  0  0
  -15.5070   38.7940   36.6620 C   0  0  0  0  0  0
  -15.3570   40.9310   34.5110 Cl  0  0  0  0  0  0
  -15.2530   33.6010   36.3610 O   0  0  0  0  0  0
  -10.6840   33.4510   32.5220 Cl  0  0  0  0  0  0
  -12.9915   32.3998   36.6594 H   0  0  0  0  0  0
  -11.0832   32.3646   35.1049 H   0  0  0  0  0  0
  -13.3453   34.7313   32.3719 H   0  0  0  0  0  0
  -15.3241   36.7485   31.8928 H   0  0  0  0  0  0
  -15.3012   39.2107   32.1635 H   0  0  0  0  0  0
  -15.6526   35.8482   38.3800 H   0  0  0  0  0  0
  -15.5811   38.2877   38.7482 H   0  0  0  0  0  0
  -15.4993   39.8709   36.8303 H   0  0  0  0  0  0
  -15.1261   33.0587   37.3096 H   0  0  0  0  0  0
  1  2  2  0  0  0
  1  6  1  0  0  0
  1 19  1  0  0  0
  2  3  1  0  0  0
  2 21  1  0  0  0
  3  4  2  0  0  0
  3 22  1  0  0  0
  4  5  1  0  0  0
  4 20  1  0  0  0
  5  6  2  0  0  0
  5 23  1  0  0  0
  6  7  1  0  0  0
  7  8  1  0  0  0
  8  9  2  0  0  0
  8 13  1  0  0  0
  9 10  1  0  0  0
  9 24  1  0  0  0
 10 11  2  0  0  0
 10 25  1  0  0  0
 11 12  1  0  0  0
 11 18  1  0  0  0
 12 13  2  0  0  0
 12 17  1  0  0  0
 13 14  1  0  0  0
 14 15  2  0  0  0
 15 16  1  0  0  0
 15 26  1  0  0  0
 16 17  2  0  0  0
 16 27  1  0  0  0
 17 28  1  0  0  0
 19 29  1  0  0  0
M  END
> <s_m_source_file>
../3az9_ligand.sdf

> <i_m_source_file_index>
1

> <s_epik_input>
W09IXWMxW2NIXVtjSF1jKENsKVtjSF1jMU9jKFtjSF1bY0hdYzJDbCljKGMyMyluW2NIXVtjSF1bY0hdMw==

> <s_epik_cmdline>
J2VwaWtfYXBwJywgJy1pbWFlJywgJ2xpZ2FuZF9wcm8ubWFlJywgJy1vbWFlJywgJ2xpZ2FuZF9wcmVwLm1hZScsICctbXMnLCAnMScsICctcGgnLCAnNycsICctcGh0JywgJzAuNScsICctbnQn

> <r_lp_tautomer_probability>
0.999999999999776

> <r_epik_Ionization_Penalty>
  0.0174

> <r_epik_Ionization_Penalty_Charging>
  0.0000

> <r_epik_Ionization_Penalty_Neutral>
  0.0174

> <r_epik_State_Penalty>
  0.0137

> <r_epik_Charging_Adjusted_Penalty>
0.0137435169568391

> <i_epik_Tot_Q>
0

> <i_epik_Tot_abs_Q>
0

$$$$
