3aza_ligand
                    3D
 Schrodinger Suite 2020-3.
 31 33  0  0  1  0            999 V2000
   -4.5750   27.8180   17.5800 C   0  0  0  0  0  0
   -3.8640   26.6140   17.6650 C   0  0  0  0  0  0
   -3.1720   26.1170   16.5610 C   0  0  0  0  0  0
   -3.1960   26.8440   15.3680 C   0  0  0  0  0  0
   -3.9060   28.0470   15.2860 C   0  0  0  0  0  0
   -4.5990   28.5400   16.3900 C   0  0  0  0  0  0
   -5.3800   29.8370   16.3410 C   0  0  0  0  0  0
   -5.0970   30.6300   15.1670 O   0  0  0  0  0  0
   -4.0810   31.5510   15.1800 C   0  0  0  0  0  0
   -3.2370   31.7130   14.0900 C   0  0  0  0  0  0
   -2.2130   32.6590   14.1250 C   0  0  0  0  0  0
   -2.0080   33.4410   15.2580 C   0  0  0  0  0  0
   -2.8590   33.2720   16.3430 C   0  0  0  0  0  0
   -3.8880   32.3330   16.3010 C   0  0  0  0  0  0
   -4.7180   32.1530   17.3480 N   0  0  0  0  0  0
   -4.5880   32.8690   18.4590 C   0  0  0  0  0  0
   -3.5760   33.8110   18.5400 C   0  0  0  0  0  0
   -2.6970   34.0290   17.4880 C   0  0  0  0  0  0
   -0.6770   34.6540   15.3160 Cl  0  0  0  0  0  0
   -5.1129   28.1919   18.4512 H   0  0  0  0  0  0
   -3.8515   26.0600   18.6036 H   0  0  0  0  0  0
   -2.6222   25.1782   16.6275 H   0  0  0  0  0  0
   -2.6584   26.4718   14.4959 H   0  0  0  0  0  0
   -3.9171   28.6041   14.3492 H   0  0  0  0  0  0
   -6.4576   29.6163   16.3400 H   0  0  0  0  0  0
   -5.1318   30.4480   17.2214 H   0  0  0  0  0  0
   -3.3754   31.0971   13.2014 H   0  0  0  0  0  0
   -1.5668   32.7873   13.2566 H   0  0  0  0  0  0
   -5.2691   32.7172   19.2964 H   0  0  0  0  0  0
   -3.4670   34.3961   19.4531 H   0  0  0  0  0  0
   -1.9043   34.7734   17.5625 H   0  0  0  0  0  0
  1  2  2  0  0  0
  1  6  1  0  0  0
  1 20  1  0  0  0
  2  3  1  0  0  0
  2 21  1  0  0  0
  3  4  2  0  0  0
  3 22  1  0  0  0
  4  5  1  0  0  0
  4 23  1  0  0  0
  5  6  2  0  0  0
  5 24  1  0  0  0
  6  7  1  0  0  0
  7  8  1  0  0  0
  7 25  1  0  0  0
  7 26  1  0  0  0
  8  9  1  0  0  0
  9 10  2  0  0  0
  9 14  1  0  0  0
 10 11  1  0  0  0
 10 27  1  0  0  0
 11 12  2  0  0  0
 11 28  1  0  0  0
 12 13  1  0  0  0
 12 19  1  0  0  0
 13 14  2  0  0  0
 13 18  1  0  0  0
 14 15  1  0  0  0
 15 16  2  0  0  0
 16 17  1  0  0  0
 16 29  1  0  0  0
 17 18  2  0  0  0
 17 30  1  0  0  0
 18 31  1  0  0  0
M  END
> <s_m_source_file>
../3aza_ligand.sdf

> <i_m_source_file_index>
1

> <s_epik_input>
W2NIXTFbY0hdW2NIXVtjSF1bY0hdYzFbQ0gyXU9jKFtjSF1bY0hdYzJDbCljKGMyMyluW2NIXVtjSF1bY0hdMw==

> <s_epik_cmdline>
J2VwaWtfYXBwJywgJy1pbWFlJywgJ2xpZ2FuZF9wcm8ubWFlJywgJy1vbWFlJywgJ2xpZ2FuZF9wcmVwLm1hZScsICctbXMnLCAnMScsICctcGgnLCAnNycsICctcGh0JywgJzAuNScsICctbnQn

> <r_lp_tautomer_probability>
1

> <r_epik_Ionization_Penalty>
  0.0015

> <r_epik_Ionization_Penalty_Charging>
  0.0000

> <r_epik_Ionization_Penalty_Neutral>
  0.0015

> <r_epik_State_Penalty>
 -0.0000

> <r_epik_Charging_Adjusted_Penalty>
0

> <i_epik_Tot_Q>
0

> <i_epik_Tot_abs_Q>
0

$$$$
