3azb_ligand
                    3D
 Schrodinger Suite 2020-3.
 31 33  0  0  1  0            999 V2000
   21.2490  -26.0430    7.6690 C   0  0  0  0  0  0
   21.3670  -27.3910    7.4160 C   0  0  0  0  0  0
   22.0570  -28.2110    8.3160 C   0  0  0  0  0  0
   22.6350  -27.7260    9.4750 C   0  0  0  0  0  0
   22.5150  -26.3750    9.7240 C   0  0  0  0  0  0
   21.8330  -25.5590    8.8300 C   0  0  0  0  0  0
   21.7150  -24.1360    9.1290 C   0  0  0  0  0  0
   21.0070  -23.2960    8.2010 O   0  0  0  0  0  0
   21.0000  -21.9670    8.4930 C   0  0  0  0  0  0
   22.1880  -21.2960    8.7830 C   0  0  0  0  0  0
   22.1880  -19.9340    9.0890 C   0  0  0  0  0  0
   20.9830  -19.2450    9.1110 C   0  0  0  0  0  0
   19.7990  -19.9240    8.8350 C   0  0  0  0  0  0
   19.8040  -21.2830    8.5280 C   0  0  0  0  0  0
   18.6680  -21.9550    8.2620 N   0  0  0  0  0  0
   17.5060  -21.3020    8.2880 C   0  0  0  0  0  0
   17.4470  -19.9440    8.5880 C   0  0  0  0  0  0
   18.6040  -19.2380    8.8610 C   0  0  0  0  0  0
   20.9480  -17.4890    9.4950 Cl  0  0  0  0  0  0
   23.5100  -28.8090   10.6290 Cl  0  0  0  0  0  0
   20.7176  -25.3823    6.9840 H   0  0  0  0  0  0
   20.9240  -27.8188    6.5166 H   0  0  0  0  0  0
   22.1423  -29.2749    8.0946 H   0  0  0  0  0  0
   22.9561  -25.9465   10.6240 H   0  0  0  0  0  0
   21.1874  -24.0048   10.0852 H   0  0  0  0  0  0
   22.7188  -23.6918    9.2002 H   0  0  0  0  0  0
   23.1305  -21.8434    8.7705 H   0  0  0  0  0  0
   23.1227  -19.4178    9.3080 H   0  0  0  0  0  0
   16.5845  -21.8418    8.0702 H   0  0  0  0  0  0
   16.4836  -19.4345    8.6078 H   0  0  0  0  0  0
   18.5720  -18.1727    9.0895 H   0  0  0  0  0  0
  1  2  2  0  0  0
  1  6  1  0  0  0
  1 21  1  0  0  0
  2  3  1  0  0  0
  2 22  1  0  0  0
  3  4  2  0  0  0
  3 23  1  0  0  0
  4  5  1  0  0  0
  4 20  1  0  0  0
  5  6  2  0  0  0
  5 24  1  0  0  0
  6  7  1  0  0  0
  7  8  1  0  0  0
  7 25  1  0  0  0
  7 26  1  0  0  0
  8  9  1  0  0  0
  9 10  2  0  0  0
  9 14  1  0  0  0
 10 11  1  0  0  0
 10 27  1  0  0  0
 11 12  2  0  0  0
 11 28  1  0  0  0
 12 13  1  0  0  0
 12 19  1  0  0  0
 13 14  2  0  0  0
 13 18  1  0  0  0
 14 15  1  0  0  0
 15 16  2  0  0  0
 16 17  1  0  0  0
 16 29  1  0  0  0
 17 18  2  0  0  0
 17 30  1  0  0  0
 18 31  1  0  0  0
M  END
> <s_m_source_file>
../3azb_ligand.sdf

> <i_m_source_file_index>
1

> <s_epik_input>
Q2xjMVtjSF1bY0hdW2NIXWMoW2NIXTEpW0NIMl1PYyhbY0hdW2NIXWMyQ2wpYyhjMjMpbltjSF1bY0hdW2NIXTM=

> <s_epik_cmdline>
J2VwaWtfYXBwJywgJy1pbWFlJywgJ2xpZ2FuZF9wcm8ubWFlJywgJy1vbWFlJywgJ2xpZ2FuZF9wcmVwLm1hZScsICctbXMnLCAnMScsICctcGgnLCAnNycsICctcGh0JywgJzAuNScsICctbnQn

> <r_lp_tautomer_probability>
1

> <r_epik_Ionization_Penalty>
  0.0015

> <r_epik_Ionization_Penalty_Charging>
  0.0000

> <r_epik_Ionization_Penalty_Neutral>
  0.0015

> <r_epik_State_Penalty>
 -0.0000

> <r_epik_Charging_Adjusted_Penalty>
0

> <i_epik_Tot_Q>
0

> <i_epik_Tot_abs_Q>
0

$$$$
