3b0w_ligand
                    3D
 Schrodinger Suite 2020-3.
119126  0  0  1  0            999 V2000
   25.4880   18.9970   -1.4820 C   0  0  0  0  0  0
   25.5040   19.4360   -2.9610 C   0  0  0  0  0  0
   26.5860   20.4940   -3.2030 C   0  0  2  0  0  0
   27.8720   19.9200   -2.9540 O   0  0  0  0  0  0
   26.3410   21.6990   -2.2700 C   0  0  0  0  0  0
   26.2840   21.3090   -0.7680 C   0  0  1  0  0  0
   25.9780   22.5680    0.0850 C   0  0  0  0  0  0
   24.5330   23.0700   -0.1130 C   0  0  0  0  0  0
   23.5000   21.9500    0.1490 C   0  0  2  0  0  0
   23.8060   20.7110   -0.7390 C   0  0  1  0  0  0
   25.2380   20.1850   -0.5190 C   0  0  1  0  0  0
   22.7430   19.5850   -0.5680 C   0  0  0  0  0  0
   21.3630   20.1500   -0.9110 C   0  0  1  0  0  0
   20.3770   19.1090   -0.8930 O   0  0  0  0  0  0
   20.9740   21.3030    0.0600 C   0  0  1  0  0  0
   22.0460   22.4370    0.0000 C   0  0  1  0  0  0
   21.8000   23.4240    1.0060 O   0  0  0  0  0  0
   21.7390   23.1450   -1.3380 C   0  0  0  0  0  0
   20.2000   23.1850   -1.3860 C   0  0  0  0  0  0
   19.7020   21.9640   -0.5630 C   0  0  2  0  0  0
   20.7700   20.7700    1.4860 C   0  0  0  0  0  0
   25.4200   19.6170    0.9020 C   0  0  0  0  0  0
   29.0030   20.6740   -3.4180 C   0  0  1  0  0  0
   33.5800   21.3390   -6.0770 C   0  0  2  0  0  0
   38.6700   19.7950   -6.4360 C   0  0  2  0  0  0
   18.6120   22.4290    0.3850 C   0  0  0  0  0  0
   17.3070   21.7190    0.7130 C   0  0  0  0  0  0
   16.5270   22.6590    1.5240 O   0  0  0  0  0  0
   18.5810   23.5790    1.0500 C   0  0  0  0  0  0
   17.3360   23.6900    1.8140 C   0  0  0  0  0  0
   17.0770   24.6100    2.5750 O   0  0  0  0  0  0
   30.2800   20.0070   -2.9150 C   0  0  0  0  0  0
   34.7390   22.3430   -6.0050 C   0  0  0  0  0  0
   39.7060   19.9740   -7.5620 C   0  0  0  0  0  0
   31.5360   20.6690   -3.5170 C   0  0  2  0  0  0
   31.7640   21.9650   -2.9650 O   0  0  0  0  0  0
   35.9100   21.7880   -6.8320 C   0  0  2  0  0  0
   35.5200   21.7590   -8.2110 O   0  0  0  0  0  0
   41.0840   20.3500   -6.9960 C   0  0  2  0  0  0
   41.6030   19.2410   -6.2510 O   0  0  0  0  0  0
   31.4530   20.8750   -5.0360 C   0  0  2  0  0  0
   32.4560   21.8480   -5.3540 O   0  0  0  0  0  0
   36.2950   20.3810   -6.3110 C   0  0  2  0  0  0
   37.3750   19.8050   -7.0690 O   0  0  0  0  0  0
   40.9640   21.5980   -6.0970 C   0  0  2  0  0  0
   42.2570   22.0020   -5.6170 O   0  0  0  0  0  0
   30.0950   21.4760   -5.4320 C   0  0  2  0  0  0
   29.0370   20.7100   -4.8550 O   0  0  0  0  0  0
   35.0560   19.4650   -6.3170 C   0  0  2  0  0  0
   34.0280   20.0940   -5.5340 O   0  0  0  0  0  0
   40.0170   21.2840   -4.9220 C   0  0  2  0  0  0
   38.7440   20.8280   -5.4180 O   0  0  0  0  0  0
   29.9510   21.5050   -6.9540 C   0  0  0  0  0  0
   35.4000   18.0940   -5.7270 C   0  0  0  0  0  0
   39.8100   22.5490   -4.0750 C   0  0  0  0  0  0
   24.6874   18.2587   -1.3273 H   0  0  0  0  0  0
   26.4574   18.5464   -1.2227 H   0  0  0  0  0  0
   25.7109   18.5647   -3.5998 H   0  0  0  0  0  0
   24.5256   19.8621   -3.2276 H   0  0  0  0  0  0
   26.6163   20.8098   -4.2562 H   0  0  0  0  0  0
   27.1546   22.4291   -2.3927 H   0  0  0  0  0  0
   25.3818   22.1724   -2.5266 H   0  0  0  0  0  0
   27.2641   20.9117   -0.4653 H   0  0  0  0  0  0
   26.1139   22.3309    1.1505 H   0  0  0  0  0  0
   26.6634   23.3797   -0.2003 H   0  0  0  0  0  0
   24.3332   23.8965    0.5848 H   0  0  0  0  0  0
   24.4062   23.4241   -1.1467 H   0  0  0  0  0  0
   23.5934   21.6513    1.2035 H   0  0  0  0  0  0
   23.7545   21.0486   -1.7846 H   0  0  0  0  0  0
   22.9814   18.7501   -1.2434 H   0  0  0  0  0  0
   22.7507   19.2284    0.4726 H   0  0  0  0  0  0
   21.3591   20.5042   -1.9524 H   0  0  0  0  0  0
   20.5049   18.2193   -1.5270 H   0  0  0  0  0  0
   21.9453   23.1754    2.0676 H   0  0  0  0  0  0
   22.1819   24.1519   -1.3301 H   0  0  0  0  0  0
   22.1667   22.5628   -2.1675 H   0  0  0  0  0  0
   19.8438   24.1280   -0.9457 H   0  0  0  0  0  0
   19.8639   23.1185   -2.4313 H   0  0  0  0  0  0
   19.1824   21.1808   -1.1345 H   0  0  0  0  0  0
   21.7078   20.3234    1.8481 H   0  0  0  0  0  0
   19.9778   20.0068    1.4823 H   0  0  0  0  0  0
   20.4783   21.5981    2.1487 H   0  0  0  0  0  0
   26.4508   19.2522    1.0218 H   0  0  0  0  0  0
   24.7165   18.7858    1.0575 H   0  0  0  0  0  0
   25.2226   20.4076    1.6409 H   0  0  0  0  0  0
   28.8686   21.7079   -3.0672 H   0  0  0  0  0  0
   33.2130   21.1353   -7.0938 H   0  0  0  0  0  0
   38.8112   18.8622   -5.8704 H   0  0  0  0  0  0
   16.7812   21.4686   -0.2202 H   0  0  0  0  0  0
   17.5220   20.7961    1.2717 H   0  0  0  0  0  0
   19.4230   24.2825    0.9717 H   0  0  0  0  0  0
   30.3315   20.0929   -1.8196 H   0  0  0  0  0  0
   30.2753   18.9445   -3.1996 H   0  0  0  0  0  0
   34.4124   23.3100   -6.4151 H   0  0  0  0  0  0
   35.0460   22.4741   -4.9569 H   0  0  0  0  0  0
   39.8028   19.0334   -8.1241 H   0  0  0  0  0  0
   39.3756   20.7743   -8.2405 H   0  0  0  0  0  0
   32.3848   20.0273   -3.2382 H   0  0  0  0  0  0
   31.8628   22.0896   -1.8766 H   0  0  0  0  0  0
   36.7902   22.4474   -6.8088 H   0  0  0  0  0  0
   35.2193   22.6882   -8.7172 H   0  0  0  0  0  0
   41.8139   20.5267   -7.7997 H   0  0  0  0  0  0
   41.7519   18.2689   -6.7437 H   0  0  0  0  0  0
   31.6388   19.9406   -5.5859 H   0  0  0  0  0  0
   36.7230   20.4479   -5.2999 H   0  0  0  0  0  0
   40.6127   22.4709   -6.6668 H   0  0  0  0  0  0
   43.0521   22.2624   -6.3312 H   0  0  0  0  0  0
   29.9770   22.4878   -5.0168 H   0  0  0  0  0  0
   34.6481   19.3371   -7.3305 H   0  0  0  0  0  0
   40.4101   20.4557   -4.3142 H   0  0  0  0  0  0
   30.7700   22.0970   -7.3886 H   0  0  0  0  0  0
   28.9866   21.9609   -7.2224 H   0  0  0  0  0  0
   29.9928   20.4780   -7.3459 H   0  0  0  0  0  0
   36.1870   17.6211   -6.3328 H   0  0  0  0  0  0
   34.5027   17.4578   -5.7303 H   0  0  0  0  0  0
   35.7574   18.2185   -4.6941 H   0  0  0  0  0  0
   40.7812   22.8989   -3.6952 H   0  0  0  0  0  0
   39.1465   22.3188   -3.2283 H   0  0  0  0  0  0
   39.3541   23.3349   -4.6951 H   0  0  0  0  0  0
  1  2  1  0  0  0
  1 11  1  0  0  0
  1 56  1  0  0  0
  1 57  1  0  0  0
  2  3  1  0  0  0
  2 58  1  0  0  0
  2 59  1  0  0  0
  3  4  1  0  0  0
  3  5  1  0  0  0
  3 60  1  0  0  0
  4 23  1  0  0  0
  5  6  1  0  0  0
  5 61  1  0  0  0
  5 62  1  0  0  0
  6  7  1  0  0  0
  6 11  1  0  0  0
  6 63  1  0  0  0
  7  8  1  0  0  0
  7 64  1  0  0  0
  7 65  1  0  0  0
  8  9  1  0  0  0
  8 66  1  0  0  0
  8 67  1  0  0  0
  9 10  1  0  0  0
  9 16  1  0  0  0
  9 68  1  0  0  0
 10 11  1  0  0  0
 10 12  1  0  0  0
 10 69  1  0  0  0
 11 22  1  0  0  0
 12 13  1  0  0  0
 12 70  1  0  0  0
 12 71  1  0  0  0
 13 14  1  0  0  0
 13 15  1  0  0  0
 13 72  1  0  0  0
 14 73  1  0  0  0
 15 16  1  0  0  0
 15 20  1  0  0  0
 15 21  1  0  0  0
 16 17  1  0  0  0
 16 18  1  0  0  0
 17 74  1  0  0  0
 18 19  1  0  0  0
 18 75  1  0  0  0
 18 76  1  0  0  0
 19 20  1  0  0  0
 19 77  1  0  0  0
 19 78  1  0  0  0
 20 26  1  0  0  0
 20 79  1  0  0  0
 21 80  1  0  0  0
 21 81  1  0  0  0
 21 82  1  0  0  0
 22 83  1  0  0  0
 22 84  1  0  0  0
 22 85  1  0  0  0
 23 32  1  0  0  0
 23 48  1  0  0  0
 23 86  1  0  0  0
 24 33  1  0  0  0
 24 42  1  0  0  0
 24 50  1  0  0  0
 24 87  1  0  0  0
 25 34  1  0  0  0
 25 44  1  0  0  0
 25 52  1  0  0  0
 25 88  1  0  0  0
 26 27  1  0  0  0
 26 29  2  0  0  0
 27 28  1  0  0  0
 27 89  1  0  0  0
 27 90  1  0  0  0
 28 30  1  0  0  0
 29 30  1  0  0  0
 29 91  1  0  0  0
 30 31  2  0  0  0
 32 35  1  0  0  0
 32 92  1  0  0  0
 32 93  1  0  0  0
 33 37  1  0  0  0
 33 94  1  0  0  0
 33 95  1  0  0  0
 34 39  1  0  0  0
 34 96  1  0  0  0
 34 97  1  0  0  0
 35 36  1  0  0  0
 35 41  1  0  0  0
 35 98  1  0  0  0
 36 99  1  0  0  0
 37 38  1  0  0  0
 37 43  1  0  0  0
 37100  1  0  0  0
 38101  1  0  0  0
 39 40  1  0  0  0
 39 45  1  0  0  0
 39102  1  0  0  0
 40103  1  0  0  0
 41 42  1  0  0  0
 41 47  1  0  0  0
 41104  1  0  0  0
 43 44  1  0  0  0
 43 49  1  0  0  0
 43105  1  0  0  0
 45 46  1  0  0  0
 45 51  1  0  0  0
 45106  1  0  0  0
 46107  1  0  0  0
 47 48  1  0  0  0
 47 53  1  0  0  0
 47108  1  0  0  0
 49 50  1  0  0  0
 49 54  1  0  0  0
 49109  1  0  0  0
 51 52  1  0  0  0
 51 55  1  0  0  0
 51110  1  0  0  0
 53111  1  0  0  0
 53112  1  0  0  0
 53113  1  0  0  0
 54114  1  0  0  0
 54115  1  0  0  0
 54116  1  0  0  0
 55117  1  0  0  0
 55118  1  0  0  0
 55119  1  0  0  0
M  END
> <s_m_source_file>
../3b0w_ligand.sdf

> <i_m_source_file_index>
1

> <s_epik_input>
TzFbQ0BIXShbQ0gzXSlbQ0BASF0oW09IXSlbQ0BASF0oW09IXSlbQ0gyXVtDQEBIXTFPW0NASF0oW0NASF0oTzIpW0NIM10pW0NAQEhdKFtPSF0pW0NIMl1bQ0BASF0yT1tDQEhdKFtDQEhdKE8zKVtDSDNdKVtDQEBIXShbT0hdKVtDSDJdW0NAQEhdM09bQ0BASF0oW0NIMl1bQ0gyXTQpW0NIMl1bQ0BIXShbQ0BdNDVbQ0gzXSlbQ0gyXVtDSDJdW0NAQEhdNltDQEBIXTVbQ0gyXVtDQEBIXShbT0hdKVtDQEBdNyhbQ0gzXSlbQ0BdNihbT0hdKVtDSDJdW0NIMl1bQ0BASF03Qzg9W0NIXUMoPU8pT1tDSDJdOA==

> <s_epik_cmdline>
J2VwaWtfYXBwJywgJy1pbWFlJywgJ2xpZ2FuZF9wcm8ubWFlJywgJy1vbWFlJywgJ2xpZ2FuZF9wcmVwLm1hZScsICctbXMnLCAnMScsICctcGgnLCAnNycsICctcGh0JywgJzAuNScsICctbnQn

> <r_lp_tautomer_probability>
1

> <r_epik_Ionization_Penalty>
  0.0000

> <r_epik_Ionization_Penalty_Charging>
  0.0000

> <r_epik_Ionization_Penalty_Neutral>
  0.0000

> <r_epik_State_Penalty>
 -0.0000

> <r_epik_Charging_Adjusted_Penalty>
0

> <i_epik_Tot_Q>
0

> <i_epik_Tot_abs_Q>
0

> <s_epik_Chemistry_Notes>
This compound has an ester and may undergo hydrolysis at high or low pH. This compound contains an acetal/aminal-like group ( X-CH(R)-Y where X, Y are N, S, or O) that may be acid/base labile, releasing an aldehyde.

$$$$
