3b1t_ligand
                    3D
 Schrodinger Suite 2020-3.
 43 43  0  0  1  0            999 V2000
  -26.2840   20.0440  -21.7230 C   0  0  0  0  0  0
  -25.5490   20.8160  -21.0650 O   0  5  0  0  0  0
  -27.3160   19.5380  -21.2270 O   0  0  0  0  0  0
  -21.7900   15.6230  -22.9010 N   0  0  0  0  0  0
  -23.4980    9.3500  -19.1690 N   0  3  0  0  0  0
  -21.4740   15.1510  -20.7480 O   0  0  0  0  0  0
  -23.6300   18.4700  -21.5370 O   0  0  0  0  0  0
  -26.1200   20.2460  -25.5110 C   0  0  0  0  0  0
  -26.4600   20.4860  -24.1740 C   0  0  0  0  0  0
  -25.2010   19.2500  -25.8240 C   0  0  0  0  0  0
  -25.8930   19.7280  -23.1440 C   0  0  0  0  0  0
  -24.6320   18.4910  -24.7960 C   0  0  0  0  0  0
  -23.7730   12.9910  -21.6690 C   0  0  0  0  0  0
  -23.9730   12.0980  -20.4370 C   0  0  0  0  0  0
  -24.5250   14.3220  -21.5910 C   0  0  0  0  0  0
  -24.3800    8.3370  -21.1750 C   0  0  0  0  0  0
  -24.2280   10.7500  -20.9310 N   0  0  0  0  0  0
  -24.3730   16.5400  -22.4320 N   0  0  0  0  0  0
  -22.2360   15.4490  -21.6650 C   0  0  0  0  0  0
  -24.0040    9.5520  -20.3780 C   0  0  0  0  0  0
  -24.2870   17.8790  -22.3950 C   0  0  0  0  0  0
  -24.9720   18.7150  -23.4550 C   0  0  0  0  0  0
  -23.7290   15.6330  -21.4640 C   0  0  2  0  0  0
  -20.7186   15.5057  -23.1207 H   0  0  0  0  0  0
  -22.4913   15.8847  -23.7070 H   0  0  0  0  0  0
  -23.3497    8.3247  -18.7991 H   0  0  0  0  0  0
  -26.5746   20.8386  -26.3049 H   0  0  0  0  0  0
  -27.1749   21.2727  -23.9330 H   0  0  0  0  0  0
  -24.9264   19.0624  -26.8620 H   0  0  0  0  0  0
  -23.9112   17.7113  -25.0424 H   0  0  0  0  0  0
  -22.7041   13.2244  -21.7830 H   0  0  0  0  0  0
  -24.1310   12.4641  -22.5658 H   0  0  0  0  0  0
  -23.0653   12.1212  -19.8161 H   0  0  0  0  0  0
  -24.8276   12.4675  -19.8511 H   0  0  0  0  0  0
  -25.1272   14.4568  -22.5016 H   0  0  0  0  0  0
  -25.1857   14.3189  -20.7115 H   0  0  0  0  0  0
  -24.1402    7.4315  -20.5983 H   0  0  0  0  0  0
  -23.8170    8.3297  -22.1200 H   0  0  0  0  0  0
  -25.4584    8.3594  -21.3908 H   0  0  0  0  0  0
  -24.6817   10.6042  -21.9224 H   0  0  0  0  0  0
  -24.9741   16.1280  -23.2560 H   0  0  0  0  0  0
  -23.7699   16.0872  -20.4630 H   0  0  0  0  0  0
  -23.2266   10.2077  -18.5360 H   0  0  0  0  0  0
  1  2  1  0  0  0
  1  3  2  0  0  0
  1 11  1  0  0  0
  4 19  1  0  0  0
  4 24  1  0  0  0
  4 25  1  0  0  0
  5 20  2  0  0  0
  5 26  1  0  0  0
  5 43  1  0  0  0
  6 19  2  0  0  0
  7 21  2  0  0  0
  8  9  2  0  0  0
  8 10  1  0  0  0
  8 27  1  0  0  0
  9 11  1  0  0  0
  9 28  1  0  0  0
 10 12  2  0  0  0
 10 29  1  0  0  0
 11 22  2  0  0  0
 12 22  1  0  0  0
 12 30  1  0  0  0
 13 14  1  0  0  0
 13 15  1  0  0  0
 13 31  1  0  0  0
 13 32  1  0  0  0
 14 17  1  0  0  0
 14 33  1  0  0  0
 14 34  1  0  0  0
 15 23  1  0  0  0
 15 35  1  0  0  0
 15 36  1  0  0  0
 16 20  1  0  0  0
 16 37  1  0  0  0
 16 38  1  0  0  0
 16 39  1  0  0  0
 17 20  1  0  0  0
 17 40  1  0  0  0
 18 21  1  0  0  0
 18 23  1  0  0  0
 18 41  1  0  0  0
 19 23  1  0  0  0
 21 22  1  0  0  0
 23 42  1  0  0  0
M  CHG  2   2  -1   5   1
M  END
> <s_m_source_file>
../3b1t_ligand.sdf

> <i_m_source_file_index>
1

> <s_epik_input>
W09IXUMoPU8pYzFbY0hdW2NIXVtjSF1bY0hdYzFDKD1PKVtOSF1bQ0BIXShDKD1PKVtOSDJdKVtDSDJdW0NIMl1bQ0gyXVtOSF1DKD1OXFtIXSlcW0NIM10=

> <s_epik_cmdline>
J2VwaWtfYXBwJywgJy1pbWFlJywgJ2xpZ2FuZF9wcm8ubWFlJywgJy1vbWFlJywgJ2xpZ2FuZF9wcmVwLm1hZScsICctbXMnLCAnMScsICctcGgnLCAnNycsICctcGh0JywgJzAuNScsICctbnQn

> <r_lp_tautomer_probability>
1

> <r_epik_Ionization_Penalty>
  0.0004

> <r_epik_Ionization_Penalty_Charging>
  0.0004

> <r_epik_Ionization_Penalty_Neutral>
  0.0000

> <r_epik_State_Penalty>
 -0.0000

> <r_epik_Charging_Adjusted_Penalty>
0.000439375192812401

> <i_epik_Tot_Q>
0

> <i_epik_Tot_abs_Q>
2

> <s_epik_Chemistry_Notes>
This compound has an imine and may undergo hydrolysis.

$$$$
