3b1u_ligand
                    3D
 Schrodinger Suite 2020-3.
 43 43  0  0  1  0            999 V2000
  -26.2830   19.8470  -21.9300 C   0  0  0  0  0  0
  -26.1150   20.9990  -21.4730 O   0  5  0  0  0  0
  -26.7750   18.9280  -21.2390 O   0  0  0  0  0  0
  -21.5490   15.7770  -22.7800 N   0  0  0  0  0  0
  -23.6430    9.4760  -19.4820 N   0  3  0  0  0  0
  -21.7530   15.5310  -20.5710 O   0  0  0  0  0  0
  -23.6250   18.3060  -21.7350 O   0  0  0  0  0  0
  -26.1440   20.1050  -25.6990 C   0  0  0  0  0  0
  -26.4820   20.3220  -24.3650 C   0  0  0  0  0  0
  -25.2020   19.1340  -26.0220 C   0  0  0  0  0  0
  -25.8840   19.5730  -23.3520 C   0  0  0  0  0  0
  -24.6040   18.3870  -25.0100 C   0  0  0  0  0  0
  -23.2380   12.9420  -21.9920 C   0  0  0  0  0  0
  -23.7790   12.1420  -20.8130 C   0  0  0  0  0  0
  -24.1380   14.1020  -22.4180 C   0  0  0  0  0  0
  -24.2900    8.4140  -21.5720 C   0  0  0  0  0  0
  -24.0430   10.8190  -21.3550 N   0  0  0  0  0  0
  -24.3580   16.4320  -22.7350 N   0  0  0  0  0  0
  -22.2640   15.5970  -21.6750 C   0  0  0  0  0  0
  -23.9670    9.6330  -20.7570 C   0  0  0  0  0  0
  -24.2540   17.7600  -22.6290 C   0  0  0  0  0  0
  -24.9380   18.6010  -23.6740 C   0  0  0  0  0  0
  -23.7590   15.4600  -21.8190 C   0  0  2  0  0  0
  -20.4558   15.8813  -22.7168 H   0  0  0  0  0  0
  -22.0502   15.8218  -23.7582 H   0  0  0  0  0  0
  -23.5975    8.4670  -19.0463 H   0  0  0  0  0  0
  -26.6156   20.6935  -26.4860 H   0  0  0  0  0  0
  -27.2197   21.0832  -24.1111 H   0  0  0  0  0  0
  -24.9327   18.9583  -27.0635 H   0  0  0  0  0  0
  -23.8664   17.6264  -25.2658 H   0  0  0  0  0  0
  -22.2596   13.3692  -21.7271 H   0  0  0  0  0  0
  -23.1253   12.2802  -22.8634 H   0  0  0  0  0  0
  -23.0247   12.1127  -20.0129 H   0  0  0  0  0  0
  -24.6954   12.6193  -20.4357 H   0  0  0  0  0  0
  -24.0980   14.2147  -23.5115 H   0  0  0  0  0  0
  -25.1732   13.8958  -22.1083 H   0  0  0  0  0  0
  -24.1839    7.5157  -20.9460 H   0  0  0  0  0  0
  -23.5990    8.3499  -22.4255 H   0  0  0  0  0  0
  -25.3237    8.4834  -21.9416 H   0  0  0  0  0  0
  -24.3547   10.7065  -22.4039 H   0  0  0  0  0  0
  -24.9504   16.0852  -23.5945 H   0  0  0  0  0  0
  -24.1416   15.6443  -20.8043 H   0  0  0  0  0  0
  -23.4195   10.3547  -18.8591 H   0  0  0  0  0  0
  1  2  1  0  0  0
  1  3  2  0  0  0
  1 11  1  0  0  0
  4 19  1  0  0  0
  4 24  1  0  0  0
  4 25  1  0  0  0
  5 20  2  0  0  0
  5 26  1  0  0  0
  5 43  1  0  0  0
  6 19  2  0  0  0
  7 21  2  0  0  0
  8  9  2  0  0  0
  8 10  1  0  0  0
  8 27  1  0  0  0
  9 11  1  0  0  0
  9 28  1  0  0  0
 10 12  2  0  0  0
 10 29  1  0  0  0
 11 22  2  0  0  0
 12 22  1  0  0  0
 12 30  1  0  0  0
 13 14  1  0  0  0
 13 15  1  0  0  0
 13 31  1  0  0  0
 13 32  1  0  0  0
 14 17  1  0  0  0
 14 33  1  0  0  0
 14 34  1  0  0  0
 15 23  1  0  0  0
 15 35  1  0  0  0
 15 36  1  0  0  0
 16 20  1  0  0  0
 16 37  1  0  0  0
 16 38  1  0  0  0
 16 39  1  0  0  0
 17 20  1  0  0  0
 17 40  1  0  0  0
 18 21  1  0  0  0
 18 23  1  0  0  0
 18 41  1  0  0  0
 19 23  1  0  0  0
 21 22  1  0  0  0
 23 42  1  0  0  0
M  CHG  2   2  -1   5   1
M  END
> <s_m_source_file>
../3b1u_ligand.sdf

> <i_m_source_file_index>
1

> <s_epik_input>
W09IXUMoPU8pYzFbY0hdW2NIXVtjSF1bY0hdYzFDKD1PKVtOSF1bQ0BIXShDKD1PKVtOSDJdKVtDSDJdW0NIMl1bQ0gyXVtOSF1DKD1OXFtIXSlcW0NIM10=

> <s_epik_cmdline>
J2VwaWtfYXBwJywgJy1pbWFlJywgJ2xpZ2FuZF9wcm8ubWFlJywgJy1vbWFlJywgJ2xpZ2FuZF9wcmVwLm1hZScsICctbXMnLCAnMScsICctcGgnLCAnNycsICctcGh0JywgJzAuNScsICctbnQn

> <r_lp_tautomer_probability>
1

> <r_epik_Ionization_Penalty>
  0.0004

> <r_epik_Ionization_Penalty_Charging>
  0.0004

> <r_epik_Ionization_Penalty_Neutral>
  0.0000

> <r_epik_State_Penalty>
 -0.0000

> <r_epik_Charging_Adjusted_Penalty>
0.000439375192812401

> <i_epik_Tot_Q>
0

> <i_epik_Tot_abs_Q>
2

> <s_epik_Chemistry_Notes>
This compound has an imine and may undergo hydrolysis.

$$$$
