3b24_ligand
                    3D
 Schrodinger Suite 2020-3.
 21 21  0  0  1  0            999 V2000
   33.1270   37.9480   51.7240 C   0  0  0  0  0  0
   32.4970   36.7920   52.5120 C   0  0  0  0  0  0
   33.6450   35.3630   52.4470 S   0  0  0  0  0  0
   33.2200   34.6180   50.9370 C   0  0  0  0  0  0
   34.2160   34.1190   50.2040 N   0  0  0  0  0  0
   31.9440   34.5230   50.5140 N   0  0  0  0  0  0
   31.6740   33.9270   49.3430 C   0  0  0  0  0  0
   30.2030   33.7930   48.8770 C   0  0  0  0  0  0
   32.6890   33.4320   48.5990 N   0  0  0  0  0  0
   33.9650   33.5690   49.0140 C   0  0  0  0  0  0
   34.9910   33.1870   48.2730 N   0  0  0  0  0  0
   32.4546   38.8182   51.7492 H   0  0  0  0  0  0
   33.2855   37.6371   50.6808 H   0  0  0  0  0  0
   34.0925   38.2173   52.1771 H   0  0  0  0  0  0
   32.3385   37.1029   53.5552 H   0  0  0  0  0  0
   31.5315   36.5226   52.0589 H   0  0  0  0  0  0
   29.5391   34.2583   49.6204 H   0  0  0  0  0  0
   29.9471   32.7283   48.7723 H   0  0  0  0  0  0
   30.0782   34.2972   47.9074 H   0  0  0  0  0  0
   36.0175   33.3155   48.6468 H   0  0  0  0  0  0
   34.8182   32.7406   47.2826 H   0  0  0  0  0  0
  1  2  1  0  0  0
  1 12  1  0  0  0
  1 13  1  0  0  0
  1 14  1  0  0  0
  2  3  1  0  0  0
  2 15  1  0  0  0
  2 16  1  0  0  0
  3  4  1  0  0  0
  4  5  2  0  0  0
  4  6  1  0  0  0
  5 10  1  0  0  0
  6  7  2  0  0  0
  7  8  1  0  0  0
  7  9  1  0  0  0
  8 17  1  0  0  0
  8 18  1  0  0  0
  8 19  1  0  0  0
  9 10  2  0  0  0
 10 11  1  0  0  0
 11 20  1  0  0  0
 11 21  1  0  0  0
M  END
> <s_m_source_file>
../3b24_ligand.sdf

> <i_m_source_file_index>
1

> <s_epik_input>
W0NIM11bQ0gyXVNjMW5jKFtOSDJdKW5jKG4xKVtDSDNd

> <s_epik_cmdline>
J2VwaWtfYXBwJywgJy1pbWFlJywgJ2xpZ2FuZF9wcm8ubWFlJywgJy1vbWFlJywgJ2xpZ2FuZF9wcmVwLm1hZScsICctbXMnLCAnMScsICctcGgnLCAnNycsICctcGh0JywgJzAuNScsICctbnQn

> <r_lp_tautomer_probability>
1

> <r_epik_Ionization_Penalty>
  0.0000

> <r_epik_Ionization_Penalty_Charging>
  0.0000

> <r_epik_Ionization_Penalty_Neutral>
  0.0000

> <r_epik_State_Penalty>
 -0.0000

> <r_epik_Charging_Adjusted_Penalty>
0

> <i_epik_Tot_Q>
0

> <i_epik_Tot_abs_Q>
0

$$$$
