3b25_ligand
                    3D
 Schrodinger Suite 2020-3.
 31 32  0  0  1  0            999 V2000
   63.7690   13.5020   25.2690 C   0  0  0  0  0  0
   63.1950   14.7200   24.9000 C   0  0  0  0  0  0
   62.1550   14.7630   23.9570 C   0  0  0  0  0  0
   61.5710   16.1120   23.5430 C   0  0  0  0  0  0
   61.6720   13.5830   23.3850 C   0  0  0  0  0  0
   62.2190   12.3600   23.8020 C   0  0  0  0  0  0
   63.2840   12.3250   24.7120 C   0  0  0  0  0  0
   64.0120   10.7840   25.1820 S   0  0  0  0  0  0
   63.1540    9.6790   24.6380 O   0  0  0  0  0  0
   64.0950   10.7180   26.6780 O   0  0  0  0  0  0
   65.6530   10.7280   24.5230 C   0  0  0  0  0  0
   66.6820   11.2610   25.2270 N   0  0  0  0  0  0
   65.8780   10.2000   23.2470 C   0  0  0  0  0  0
   67.1860   10.1630   22.7690 C   0  0  0  0  0  0
   67.4740    9.5680   21.3810 C   0  0  0  0  0  0
   68.1910   10.7140   23.4910 N   0  0  0  0  0  0
   67.9480   11.2170   24.7230 C   0  0  0  0  0  0
   68.9740   11.6660   25.4190 N   0  0  0  0  0  0
   64.5890   13.4746   25.9865 H   0  0  0  0  0  0
   63.5571   15.6456   25.3476 H   0  0  0  0  0  0
   62.0761   16.9161   24.0982 H   0  0  0  0  0  0
   60.4946   16.1305   23.7690 H   0  0  0  0  0  0
   61.7216   16.2610   22.4636 H   0  0  0  0  0  0
   60.8862   13.6121   22.6302 H   0  0  0  0  0  0
   61.8110   11.4268   23.4138 H   0  0  0  0  0  0
   65.0511    9.8272   22.6425 H   0  0  0  0  0  0
   66.5423    9.1706   20.9519 H   0  0  0  0  0  0
   68.2097    8.7558   21.4757 H   0  0  0  0  0  0
   67.8760   10.3519   20.7223 H   0  0  0  0  0  0
   68.8163   12.0824   26.4248 H   0  0  0  0  0  0
   69.9876   11.6241   24.9938 H   0  0  0  0  0  0
  1  2  2  0  0  0
  1  7  1  0  0  0
  1 19  1  0  0  0
  2  3  1  0  0  0
  2 20  1  0  0  0
  3  4  1  0  0  0
  3  5  2  0  0  0
  4 21  1  0  0  0
  4 22  1  0  0  0
  4 23  1  0  0  0
  5  6  1  0  0  0
  5 24  1  0  0  0
  6  7  2  0  0  0
  6 25  1  0  0  0
  7  8  1  0  0  0
  8  9  2  0  0  0
  8 10  2  0  0  0
  8 11  1  0  0  0
 11 12  2  0  0  0
 11 13  1  0  0  0
 12 17  1  0  0  0
 13 14  2  0  0  0
 13 26  1  0  0  0
 14 15  1  0  0  0
 14 16  1  0  0  0
 15 27  1  0  0  0
 15 28  1  0  0  0
 15 29  1  0  0  0
 16 17  2  0  0  0
 17 18  1  0  0  0
 18 30  1  0  0  0
 18 31  1  0  0  0
M  END
> <s_m_source_file>
../3b25_ligand.sdf

> <i_m_source_file_index>
1

> <s_epik_input>
W0NIM11jMVtjSF1bY0hdYyhbY0hdW2NIXTEpUyg9TykoPU8pYzJuYyhbTkgyXSluYyhbY0hdMilbQ0gzXQ==

> <s_epik_cmdline>
J2VwaWtfYXBwJywgJy1pbWFlJywgJ2xpZ2FuZF9wcm8ubWFlJywgJy1vbWFlJywgJ2xpZ2FuZF9wcmVwLm1hZScsICctbXMnLCAnMScsICctcGgnLCAnNycsICctcGh0JywgJzAuNScsICctbnQn

> <r_lp_tautomer_probability>
1

> <r_epik_Ionization_Penalty>
  0.0000

> <r_epik_Ionization_Penalty_Charging>
  0.0000

> <r_epik_Ionization_Penalty_Neutral>
  0.0000

> <r_epik_State_Penalty>
 -0.0000

> <r_epik_Charging_Adjusted_Penalty>
0

> <i_epik_Tot_Q>
0

> <i_epik_Tot_abs_Q>
0

$$$$
