3b28_ligand
                    3D
 Schrodinger Suite 2020-3.
 36 39  0  0  1  0            999 V2000
  -23.9080   23.2670  -22.9890 C   0  0  0  0  0  0
  -24.5700   23.9950  -24.0910 O   0  0  0  0  0  0
  -25.5380   23.0720  -24.6350 C   0  0  0  0  0  0
  -26.5460   22.6340  -23.6990 C   0  0  0  0  0  0
  -27.8780   22.3890  -24.0700 C   0  0  0  0  0  0
  -28.8340   22.0500  -23.0900 C   0  0  0  0  0  0
  -28.4580   21.9560  -21.7480 C   0  0  0  0  0  0
  -27.1320   22.1980  -21.3490 C   0  0  0  0  0  0
  -26.1830   22.5640  -22.3360 C   0  0  0  0  0  0
  -24.8500   22.8500  -21.9760 C   0  0  0  0  0  0
  -24.4670   22.7890  -20.6430 C   0  0  0  0  0  0
  -25.3820   22.4130  -19.6680 C   0  0  0  0  0  0
  -24.7470   22.2560  -18.0450 Cl  0  0  0  0  0  0
  -26.7200   22.1360  -19.9860 C   0  0  0  0  0  0
  -27.6260   21.7480  -18.9440 C   0  0  0  0  0  0
  -28.2540   20.5590  -18.9950 N   0  0  0  0  0  0
  -27.8410   22.5450  -17.8770 N   0  0  0  0  0  0
  -28.6480   22.1580  -16.8690 C   0  0  0  0  0  0
  -28.8040   22.9630  -15.8310 N   0  0  0  0  0  0
  -29.2520   20.9640  -16.9110 N   0  0  0  0  0  0
  -29.0880   20.2340  -17.9880 C   0  0  0  0  0  0
  -29.8700   18.6920  -18.0000 S   0  0  0  0  0  0
  -29.7550   18.1800  -19.7110 C   0  0  0  0  0  0
  -23.4119   22.3700  -23.3881 H   0  0  0  0  0  0
  -23.1598   23.9198  -22.5156 H   0  0  0  0  0  0
  -26.0679   23.5481  -25.4732 H   0  0  0  0  0  0
  -25.0224   22.1686  -24.9929 H   0  0  0  0  0  0
  -28.1735   22.4609  -25.1167 H   0  0  0  0  0  0
  -29.8675   21.8611  -23.3802 H   0  0  0  0  0  0
  -29.2041   21.6910  -20.9988 H   0  0  0  0  0  0
  -23.4440   23.0372  -20.3604 H   0  0  0  0  0  0
  -28.3004   23.9408  -15.8127 H   0  0  0  0  0  0
  -29.4373   22.6546  -14.9861 H   0  0  0  0  0  0
  -30.2297   17.1951  -19.8317 H   0  0  0  0  0  0
  -28.6967   18.1154  -20.0040 H   0  0  0  0  0  0
  -30.2679   18.9149  -20.3489 H   0  0  0  0  0  0
  1  2  1  0  0  0
  1 10  1  0  0  0
  1 24  1  0  0  0
  1 25  1  0  0  0
  2  3  1  0  0  0
  3  4  1  0  0  0
  3 26  1  0  0  0
  3 27  1  0  0  0
  4  5  2  0  0  0
  4  9  1  0  0  0
  5  6  1  0  0  0
  5 28  1  0  0  0
  6  7  2  0  0  0
  6 29  1  0  0  0
  7  8  1  0  0  0
  7 30  1  0  0  0
  8  9  2  0  0  0
  8 14  1  0  0  0
  9 10  1  0  0  0
 10 11  2  0  0  0
 11 12  1  0  0  0
 11 31  1  0  0  0
 12 13  1  0  0  0
 12 14  2  0  0  0
 14 15  1  0  0  0
 15 16  2  0  0  0
 15 17  1  0  0  0
 16 21  1  0  0  0
 17 18  2  0  0  0
 18 19  1  0  0  0
 18 20  1  0  0  0
 19 32  1  0  0  0
 19 33  1  0  0  0
 20 21  2  0  0  0
 21 22  1  0  0  0
 22 23  1  0  0  0
 23 34  1  0  0  0
 23 35  1  0  0  0
 23 36  1  0  0  0
M  END
> <s_m_source_file>
../3b28_ligand.sdf

> <i_m_source_file_index>
1

> <s_epik_input>
W0NIMl0xT1tDSDJdYzJbY0hdYyhDbCljKGMoYzJjMTMpW2NIXVtjSF1bY0hdMyktYzRuYyhTW0NIM10pbmMobjQpW05IMl0=

> <s_epik_cmdline>
J2VwaWtfYXBwJywgJy1pbWFlJywgJ2xpZ2FuZF9wcm8ubWFlJywgJy1vbWFlJywgJ2xpZ2FuZF9wcmVwLm1hZScsICctbXMnLCAnMScsICctcGgnLCAnNycsICctcGh0JywgJzAuNScsICctbnQn

> <r_lp_tautomer_probability>
1

> <r_epik_Ionization_Penalty>
  0.0000

> <r_epik_Ionization_Penalty_Charging>
  0.0000

> <r_epik_Ionization_Penalty_Neutral>
  0.0000

> <r_epik_State_Penalty>
 -0.0000

> <r_epik_Charging_Adjusted_Penalty>
0

> <i_epik_Tot_Q>
0

> <i_epik_Tot_abs_Q>
0

$$$$
