3b2t_ligand
                    3D
 Schrodinger Suite 2020-3.
 42 44  0  0  1  0            999 V2000
   26.8760  -22.2150  -31.7810 P   0  0  2  0  0  0
   27.1880  -20.8710  -31.2450 O   0  5  0  0  0  0
   27.2500  -23.4960  -31.1410 O   0  0  0  0  0  0
   26.5580  -22.3560  -33.5580 C   0  0  0  0  0  0
   24.7770  -22.6150  -29.9560 P   0  0  2  0  0  0
   23.6300  -21.7370  -29.6320 O   0  0  0  0  0  0
   25.9420  -22.6180  -29.0410 O   0  5  0  0  0  0
   25.3040  -22.2250  -31.4290 O   0  0  0  0  0  0
   24.2520  -24.1260  -30.1430 O   0  0  0  0  0  0
   25.1070  -25.2350  -29.8470 C   0  0  0  0  0  0
   24.4420  -26.5720  -30.1880 C   0  0  1  0  0  0
   23.1590  -26.6290  -29.5350 O   0  0  0  0  0  0
   24.1430  -26.6170  -31.6890 C   0  0  1  0  0  0
   23.9260  -27.9690  -32.1010 O   0  0  0  0  0  0
   22.8200  -25.8570  -31.7160 C   0  0  1  0  0  0
   22.1350  -26.1610  -32.9340 O   0  0  0  0  0  0
   22.1420  -26.5800  -30.5520 C   0  0  2  0  0  0
   20.9480  -25.8420  -30.0810 N   0  0  0  0  0  0
   20.9100  -24.5550  -29.7410 C   0  0  0  0  0  0
   19.6740  -24.2220  -29.3770 N   0  0  0  0  0  0
   18.9120  -25.3080  -29.4840 C   0  0  0  0  0  0
   17.5680  -25.5720  -29.2530 C   0  0  0  0  0  0
   16.7480  -24.6130  -28.8330 N   0  0  0  0  0  0
   17.1090  -26.8130  -29.4710 N   0  0  0  0  0  0
   17.9110  -27.7730  -29.8970 C   0  0  0  0  0  0
   19.1940  -27.5560  -30.1270 N   0  0  0  0  0  0
   19.7240  -26.3410  -29.9320 C   0  0  0  0  0  0
   27.5143  -22.3747  -34.1013 H   0  0  0  0  0  0
   25.9625  -21.4941  -33.8934 H   0  0  0  0  0  0
   26.0040  -23.2849  -33.7588 H   0  0  0  0  0  0
   26.0336  -25.1504  -30.4337 H   0  0  0  0  0  0
   25.3508  -25.2340  -28.7744 H   0  0  0  0  0  0
   25.0648  -27.4108  -29.8437 H   0  0  0  0  0  0
   24.9355  -26.2677  -32.3672 H   0  0  0  0  0  0
   24.7701  -28.6730  -32.1443 H   0  0  0  0  0  0
   22.8446  -24.7574  -31.6994 H   0  0  0  0  0  0
   22.4825  -25.7276  -33.8834 H   0  0  0  0  0  0
   21.7825  -27.5933  -30.7845 H   0  0  0  0  0  0
   21.7629  -23.8765  -29.7582 H   0  0  0  0  0  0
   17.1334  -23.5979  -28.6568 H   0  0  0  0  0  0
   15.6843  -24.8348  -28.6618 H   0  0  0  0  0  0
   17.5034  -28.7702  -30.0630 H   0  0  0  0  0  0
  1  2  1  0  0  0
  1  3  2  0  0  0
  1  4  1  0  0  0
  1  8  1  0  0  0
  4 28  1  0  0  0
  4 29  1  0  0  0
  4 30  1  0  0  0
  5  6  2  0  0  0
  5  7  1  0  0  0
  5  8  1  0  0  0
  5  9  1  0  0  0
  9 10  1  0  0  0
 10 11  1  0  0  0
 10 31  1  0  0  0
 10 32  1  0  0  0
 11 12  1  0  0  0
 11 13  1  0  0  0
 11 33  1  0  0  0
 12 17  1  0  0  0
 13 14  1  0  0  0
 13 15  1  0  0  0
 13 34  1  0  0  0
 14 35  1  0  0  0
 15 16  1  0  0  0
 15 17  1  0  0  0
 15 36  1  0  0  0
 16 37  1  0  0  0
 17 18  1  0  0  0
 17 38  1  0  0  0
 18 19  1  0  0  0
 18 27  1  0  0  0
 19 20  2  0  0  0
 19 39  1  0  0  0
 20 21  1  0  0  0
 21 22  2  0  0  0
 21 27  1  0  0  0
 22 23  1  0  0  0
 22 24  1  0  0  0
 23 40  1  0  0  0
 23 41  1  0  0  0
 24 25  2  0  0  0
 25 26  1  0  0  0
 25 42  1  0  0  0
 26 27  2  0  0  0
M  CHG  2   2  -1   7  -1
M  END
> <s_m_source_file>
../3b2t_ligand.sdf

> <i_m_source_file_index>
1

> <s_epik_input>
W09IXVtQQF0oPU8pKFtDSDNdKU9bUEBdKD1PKShbT0hdKU9bQ0gyXVtDQEhdMU9bQ0BIXShbQ0BIXShbT0hdKVtDQEBIXTFbT0hdKW4oW2NIXW4yKWMoYzIzKW5bY0hdbmMzW05IMl0=

> <s_epik_cmdline>
J2VwaWtfYXBwJywgJy1pbWFlJywgJ2xpZ2FuZF9wcm8ubWFlJywgJy1vbWFlJywgJ2xpZ2FuZF9wcmVwLm1hZScsICctbXMnLCAnMScsICctcGgnLCAnNycsICctcGh0JywgJzAuNScsICctbnQn

> <r_lp_tautomer_probability>
1

> <r_epik_Ionization_Penalty>
  0.0008

> <r_epik_Ionization_Penalty_Charging>
  0.0004

> <r_epik_Ionization_Penalty_Neutral>
  0.0004

> <r_epik_State_Penalty>
 -0.0000

> <r_epik_Charging_Adjusted_Penalty>
0.000369653098187408

> <i_epik_Tot_Q>
-2

> <i_epik_Tot_abs_Q>
2

> <s_epik_Chemistry_Notes>
This compound contains an acetal/aminal-like group ( X-CH(R)-Y where X, Y are N, S, or O) that may be acid/base labile, releasing an aldehyde.

$$$$
