3b2w_ligand
                    3D
 Schrodinger Suite 2020-3.
 75 79  0  0  1  0            999 V2000
   19.7580    3.5410   19.8200 C   0  0  0  0  0  0
   17.9380    1.4070   16.4560 C   0  0  0  0  0  0
   20.9130    4.8100   18.1490 C   0  0  0  0  0  0
   14.7510   -5.7290   14.2800 N   0  0  0  0  0  0
    7.6060   -8.7440   11.3190 C   0  0  0  0  0  0
    6.5610   -8.8180   10.3370 C   0  0  0  0  0  0
    6.9020   -8.7700    8.9420 C   0  0  0  0  0  0
    8.2740   -8.6490    8.5090 C   0  0  0  0  0  0
    9.2810   -8.5820    9.5520 C   0  0  0  0  0  0
   12.8290   -6.6190   13.1900 C   0  0  0  0  0  0
   13.9260   -6.7880   14.0710 C   0  0  0  0  0  0
    8.6800   -8.5810    7.0250 C   0  0  0  0  0  0
   14.1540   -8.0490   14.7320 C   0  0  0  0  0  0
   15.3390   -8.1580   15.6400 C   0  0  0  0  0  0
   16.4360   -3.4860   14.7090 C   0  0  0  0  0  0
   18.3240   -2.3820   14.0540 C   0  0  0  0  0  0
   15.2130   -2.5220   16.4890 C   0  0  0  0  0  0
   13.2950   -9.2120   14.5530 C   0  0  0  0  0  0
   11.9580   -7.7510   12.9840 C   0  0  0  0  0  0
   15.8140   -5.5530   13.4730 C   0  0  0  0  0  0
   20.4920    1.4520   16.0360 C   0  0  0  0  0  0
   19.0780   -0.2210   14.9330 C   0  0  0  0  0  0
   12.1750   -9.0510   13.6580 C   0  0  0  0  0  0
   10.8430   -7.5340   12.0170 C   0  0  0  0  0  0
    9.9160   -8.5310   11.9460 N   0  0  0  0  0  0
    8.9790   -8.6240   10.9480 C   0  0  0  0  0  0
    7.6230   -8.7210    6.2490 F   0  0  0  0  0  0
    9.5020   -9.6040    6.7670 F   0  0  0  0  0  0
    9.2900   -7.3990    6.7540 F   0  0  0  0  0  0
   18.6700   -3.3050   13.1440 N   0  0  0  0  0  0
   17.8930   -4.3660   12.9690 C   0  0  0  0  0  0
   16.7150   -4.4750   13.7660 C   0  0  0  0  0  0
   17.2330   -2.4520   14.8440 N   0  0  0  0  0  0
   19.1220   -1.3010   14.0840 N   0  0  0  0  0  0
   10.5520   -8.4690    9.2270 F   0  0  0  0  0  0
   16.0150   -6.2550   12.5000 O   0  0  0  0  0  0
   10.7770   -6.5320   11.3110 O   0  0  0  0  0  0
   15.3690   -3.5760   15.5370 O   0  0  0  0  0  0
   17.8560    0.3060   15.5740 C   0  0  0  0  0  0
   19.2670    1.9490   16.6610 C   0  0  0  0  0  0
   20.3850    0.3380   15.1480 C   0  0  0  0  0  0
   19.9790    4.9220   19.3120 N   0  3  0  0  0  0
   20.0920    4.2150   17.0130 C   0  0  0  0  0  0
   19.3620    3.0120   17.4910 N   0  0  0  0  0  0
   18.7520    2.9650   18.8430 C   0  0  0  0  0  0
   20.7108    2.9914   19.8143 H   0  0  0  0  0  0
   19.3670    3.5863   20.8472 H   0  0  0  0  0  0
   17.0594    1.8218   16.9500 H   0  0  0  0  0  0
   21.2928    5.8084   17.8863 H   0  0  0  0  0  0
   21.7558    4.1560   18.4172 H   0  0  0  0  0  0
   14.5470   -5.0266   15.1016 H   0  0  0  0  0  0
    7.3436   -8.7805   12.3763 H   0  0  0  0  0  0
    5.5199   -8.9096   10.6466 H   0  0  0  0  0  0
    6.1093   -8.8260    8.1960 H   0  0  0  0  0  0
   12.6497   -5.6690   12.6865 H   0  0  0  0  0  0
   15.8746   -7.1974   15.6608 H   0  0  0  0  0  0
   16.0125   -8.9455   15.2709 H   0  0  0  0  0  0
   15.0007   -8.4112   16.6556 H   0  0  0  0  0  0
   14.3165   -2.7082   17.0986 H   0  0  0  0  0  0
   15.1043   -1.5635   15.9603 H   0  0  0  0  0  0
   16.0981   -2.4829   17.1410 H   0  0  0  0  0  0
   13.4881  -10.1532   15.0677 H   0  0  0  0  0  0
   21.4563    1.9168   16.2412 H   0  0  0  0  0  0
   11.4925   -9.8818   13.4791 H   0  0  0  0  0  0
    9.8934   -9.3168   12.7154 H   0  0  0  0  0  0
   18.1475   -5.1326   12.2371 H   0  0  0  0  0  0
   19.9427   -1.2029   13.3582 H   0  0  0  0  0  0
   16.8902   -0.1548   15.3665 H   0  0  0  0  0  0
   21.2634   -0.0737   14.6510 H   0  0  0  0  0  0
   19.0176    5.3563   19.0005 H   0  0  0  0  0  0
   20.4194    5.5396   20.1086 H   0  0  0  0  0  0
   19.3667    4.9606   16.6552 H   0  0  0  0  0  0
   20.7609    3.9289   16.1879 H   0  0  0  0  0  0
   18.5213    1.9267   19.1237 H   0  0  0  0  0  0
   17.8305    3.5652   18.8690 H   0  0  0  0  0  0
  1 42  1  0  0  0
  1 45  1  0  0  0
  1 46  1  0  0  0
  1 47  1  0  0  0
  2 39  2  0  0  0
  2 40  1  0  0  0
  2 48  1  0  0  0
  3 42  1  0  0  0
  3 43  1  0  0  0
  3 49  1  0  0  0
  3 50  1  0  0  0
  4 11  1  0  0  0
  4 20  1  0  0  0
  4 51  1  0  0  0
  5  6  2  0  0  0
  5 26  1  0  0  0
  5 52  1  0  0  0
  6  7  1  0  0  0
  6 53  1  0  0  0
  7  8  2  0  0  0
  7 54  1  0  0  0
  8  9  1  0  0  0
  8 12  1  0  0  0
  9 26  2  0  0  0
  9 35  1  0  0  0
 10 11  2  0  0  0
 10 19  1  0  0  0
 10 55  1  0  0  0
 11 13  1  0  0  0
 12 27  1  0  0  0
 12 28  1  0  0  0
 12 29  1  0  0  0
 13 14  1  0  0  0
 13 18  2  0  0  0
 14 56  1  0  0  0
 14 57  1  0  0  0
 14 58  1  0  0  0
 15 32  2  0  0  0
 15 33  1  0  0  0
 15 38  1  0  0  0
 16 30  1  0  0  0
 16 33  2  0  0  0
 16 34  1  0  0  0
 17 38  1  0  0  0
 17 59  1  0  0  0
 17 60  1  0  0  0
 17 61  1  0  0  0
 18 23  1  0  0  0
 18 62  1  0  0  0
 19 23  2  0  0  0
 19 24  1  0  0  0
 20 32  1  0  0  0
 20 36  2  0  0  0
 21 40  2  0  0  0
 21 41  1  0  0  0
 21 63  1  0  0  0
 22 34  1  0  0  0
 22 39  1  0  0  0
 22 41  2  0  0  0
 23 64  1  0  0  0
 24 25  1  0  0  0
 24 37  2  0  0  0
 25 26  1  0  0  0
 25 65  1  0  0  0
 30 31  2  0  0  0
 31 32  1  0  0  0
 31 66  1  0  0  0
 34 67  1  0  0  0
 39 68  1  0  0  0
 40 44  1  0  0  0
 41 69  1  0  0  0
 42 70  1  0  0  0
 42 71  1  0  0  0
 43 44  1  0  0  0
 43 72  1  0  0  0
 43 73  1  0  0  0
 44 45  1  0  0  0
 45 74  1  0  0  0
 45 75  1  0  0  0
M  CHG  1  42   1
M  END
> <s_m_source_file>
../3b2w_ligand.sdf

> <i_m_source_file_index>
1

> <s_epik_input>
W0NIMl0xW0NIMl1bTkgyK11bQ0gyXVtDSDJdTjFjKFtjSF1bY0hdMilbY0hdW2NIXWMyW05IXWMobjMpbltjSF1jKGMzT1tDSDNdKUMoPU8pW05IXWM0W2NIXWMoW2NIXVtjSF1jNFtDSDNdKUMoPU8pW05IXWMoYzVGKVtjSF1bY0hdW2NIXWM1QyhGKShGKUY=

> <s_epik_cmdline>
J2VwaWtfYXBwJywgJy1pbWFlJywgJ2xpZ2FuZF9wcm8ubWFlJywgJy1vbWFlJywgJ2xpZ2FuZF9wcmVwLm1hZScsICctbXMnLCAnMScsICctcGgnLCAnNycsICctcGh0JywgJzAuNScsICctbnQn

> <r_lp_tautomer_probability>
1

> <r_epik_Ionization_Penalty>
  0.0169

> <r_epik_Ionization_Penalty_Charging>
  0.0086

> <r_epik_Ionization_Penalty_Neutral>
  0.0083

> <r_epik_State_Penalty>
 -0.0000

> <r_epik_Charging_Adjusted_Penalty>
0.00857161421072162

> <i_epik_Tot_Q>
1

> <i_epik_Tot_abs_Q>
1

$$$$
