3b3x_ligand
                    3D
 Schrodinger Suite 2020-3.
 20 19  0  0  1  0            999 V2000
   52.2260   45.7470  -18.0300 C   0  0  0  0  0  0
   50.7880   46.0730  -18.4720 C   0  0  0  0  0  0
   50.0200   47.1040  -17.6030 C   0  0  0  0  0  0
   50.6530   48.4980  -17.5640 C   0  0  0  0  0  0
   49.7930   49.6530  -18.1230 C   0  0  0  0  0  0
   49.9880   46.9750  -15.1810 O   0  5  0  0  0  0
   49.9220   46.3950  -16.2880 C   0  0  0  0  0  0
   49.7790   45.1720  -16.4100 O   0  0  0  0  0  0
   52.4630   45.4090  -16.8270 O   0  5  0  0  0  0
   53.1630   45.8180  -18.8850 O   0  0  0  0  0  0
   48.6510   47.3150  -18.0410 N   0  3  0  0  0  0
   49.5400   49.6980  -19.3480 O   0  0  0  0  0  0
   49.3730   50.5800  -17.3860 O   0  5  0  0  0  0
   50.8026   46.4869  -19.4911 H   0  0  0  0  0  0
   50.1829   45.1545  -18.4579 H   0  0  0  0  0  0
   50.8829   48.7673  -16.5225 H   0  0  0  0  0  0
   51.5804   48.4963  -18.1555 H   0  0  0  0  0  0
   48.6522   47.8360  -19.0098 H   0  0  0  0  0  0
   48.1180   47.9253  -17.2971 H   0  0  0  0  0  0
   48.1463   46.3434  -18.1478 H   0  0  0  0  0  0
  1  2  1  0  0  0
  1  9  1  0  0  0
  1 10  2  0  0  0
  2  3  1  0  0  0
  2 14  1  0  0  0
  2 15  1  0  0  0
  3  4  1  0  0  0
  3  7  1  0  0  0
  3 11  1  0  0  0
  4  5  1  0  0  0
  4 16  1  0  0  0
  4 17  1  0  0  0
  5 12  2  0  0  0
  5 13  1  0  0  0
  6  7  1  0  0  0
  7  8  2  0  0  0
 11 18  1  0  0  0
 11 19  1  0  0  0
 11 20  1  0  0  0
M  CHG  4   6  -1   9  -1  11   1  13  -1
M  END
> <s_m_source_file>
../3b3x_ligand.sdf

> <i_m_source_file_index>
1

> <s_epik_input>
W09IXUMoPU8pW0NIMl1DKFtOSDMrXSkoQyg9TylbT0hdKVtDSDJdQyg9TylbT0hd

> <s_epik_cmdline>
J2VwaWtfYXBwJywgJy1pbWFlJywgJ2xpZ2FuZF9wcm8ubWFlJywgJy1vbWFlJywgJ2xpZ2FuZF9wcmVwLm1hZScsICctbXMnLCAnMScsICctcGgnLCAnNycsICctcGh0JywgJzAuNScsICctbnQn

> <r_lp_tautomer_probability>
1

> <r_epik_Ionization_Penalty>
  0.0055

> <r_epik_Ionization_Penalty_Charging>
  0.0055

> <r_epik_Ionization_Penalty_Neutral>
  0.0000

> <r_epik_State_Penalty>
 -0.0000

> <r_epik_Charging_Adjusted_Penalty>
0.00548658448639282

> <i_epik_Tot_Q>
-2

> <i_epik_Tot_abs_Q>
4

$$$$
