3b4p_ligand
                    3D
 Schrodinger Suite 2020-3.
 32 33  0  0  1  0            999 V2000
   41.7840    0.0650   92.8670 C   0  0  0  0  0  0
   42.2500   -1.3750   92.7860 C   0  0  0  0  0  0
   41.1000   -2.2780   92.2790 C   0  0  0  0  0  0
   40.5000   -1.8310   91.0180 C   0  0  0  0  0  0
   40.2170   -0.3180   91.0040 C   0  0  0  0  0  0
   41.4200    0.5530   91.5720 C   0  0  0  0  0  0
   40.8630    1.9650   91.6760 N   0  0  0  0  0  0
   41.5550    2.9200   92.4130 C   0  0  0  0  0  0
   42.8640    3.1700   92.0240 C   0  0  0  0  0  0
   43.5890    4.1180   92.6800 C   0  0  0  0  0  0
   43.0420    4.8160   93.7290 C   0  0  0  0  0  0
   41.7200    4.6100   94.1170 C   0  0  0  0  0  0
   40.9560    3.6270   93.4680 C   0  0  0  0  0  0
   39.5210    3.3710   93.8690 C   0  0  0  0  0  0
   39.1530    3.8620   94.9270 O   0  5  0  0  0  0
   38.7870    2.7530   93.1230 O   0  0  0  0  0  0
   40.9089    0.1304   93.5302 H   0  0  0  0  0  0
   42.5951    0.6909   93.2675 H   0  0  0  0  0  0
   43.0991   -1.4470   92.0905 H   0  0  0  0  0  0
   42.5635   -1.7156   93.7838 H   0  0  0  0  0  0
   41.4797   -3.2971   92.1137 H   0  0  0  0  0  0
   40.2959   -2.3035   93.0291 H   0  0  0  0  0  0
   41.1843   -2.0553   90.1865 H   0  0  0  0  0  0
   39.5462   -2.3555   90.8595 H   0  0  0  0  0  0
   40.0295    0.0104   89.9710 H   0  0  0  0  0  0
   39.3329   -0.1046   91.6227 H   0  0  0  0  0  0
   42.3647    0.5171   91.0096 H   0  0  0  0  0  0
   39.9206    2.2231   91.1707 H   0  0  0  0  0  0
   43.3081    2.6118   91.1998 H   0  0  0  0  0  0
   44.6132    4.3249   92.3696 H   0  0  0  0  0  0
   43.6518    5.5424   94.2662 H   0  0  0  0  0  0
   41.2826    5.2067   94.9174 H   0  0  0  0  0  0
  1  2  1  0  0  0
  1  6  1  0  0  0
  1 17  1  0  0  0
  1 18  1  0  0  0
  2  3  1  0  0  0
  2 19  1  0  0  0
  2 20  1  0  0  0
  3  4  1  0  0  0
  3 21  1  0  0  0
  3 22  1  0  0  0
  4  5  1  0  0  0
  4 23  1  0  0  0
  4 24  1  0  0  0
  5  6  1  0  0  0
  5 25  1  0  0  0
  5 26  1  0  0  0
  6  7  1  0  0  0
  6 27  1  0  0  0
  7  8  1  0  0  0
  7 28  1  0  0  0
  8  9  2  0  0  0
  8 13  1  0  0  0
  9 10  1  0  0  0
  9 29  1  0  0  0
 10 11  2  0  0  0
 10 30  1  0  0  0
 11 12  1  0  0  0
 11 31  1  0  0  0
 12 13  2  0  0  0
 12 32  1  0  0  0
 13 14  1  0  0  0
 14 15  1  0  0  0
 14 16  2  0  0  0
M  CHG  1  15  -1
M  END
> <s_m_source_file>
../3b4p_ligand.sdf

> <i_m_source_file_index>
1

> <s_epik_input>
W0NIMl0xW0NIMl1bQ0gyXVtDSDJdW0NIMl1bQ0hdMVtOSF1jMltjSF1bY0hdW2NIXVtjSF1jMkMoPU8pW09IXQ==

> <s_epik_cmdline>
J2VwaWtfYXBwJywgJy1pbWFlJywgJ2xpZ2FuZF9wcm8ubWFlJywgJy1vbWFlJywgJ2xpZ2FuZF9wcmVwLm1hZScsICctbXMnLCAnMScsICctcGgnLCAnNycsICctcGh0JywgJzAuNScsICctbnQn

> <r_epik_Ionization_Penalty>
  0.0310

> <r_epik_Ionization_Penalty_Charging>
  0.0025

> <r_epik_Ionization_Penalty_Neutral>
  0.0285

> <r_epik_State_Penalty>
  0.0234

> <r_epik_Charging_Adjusted_Penalty>
0.0258831537443077

> <i_epik_Tot_Q>
-1

> <i_epik_Tot_abs_Q>
1

$$$$
