3b5j_ligand
                    3D
 Schrodinger Suite 2020-3.
 54 58  0  0  1  0            999 V2000
   23.5610    1.0270   29.1430 P   0  0  0  0  0  0
   23.4280    1.3440   27.6720 O   0  5  0  0  0  0
   24.0180   -0.3830   29.4250 O   0  5  0  0  0  0
   22.3400    1.3870   29.9520 O   0  0  0  0  0  0
   25.4100    3.2500   29.0560 P   0  0  1  0  0  0
   26.4710    2.8850   28.0370 O   0  5  0  0  0  0
   24.3280    4.2100   28.6580 O   0  0  0  0  0  0
   24.7710    1.9180   29.7050 O   0  0  0  0  0  0
   26.1500    3.8940   30.3310 O   0  0  0  0  0  0
   27.3760    3.3770   30.8510 C   0  0  0  0  0  0
   27.9060    4.3310   31.9140 C   0  0  1  0  0  0
   28.4360    5.5140   31.3010 O   0  0  0  0  0  0
   26.7360    4.7620   32.7780 C   0  0  1  0  0  0
   27.0490    4.7550   34.1670 O   0  0  0  0  0  0
   26.4470    6.2010   32.4130 C   0  0  1  0  0  0
   26.2550    6.8720   33.6470 O   0  0  0  0  0  0
   27.7140    6.6850   31.7250 C   0  0  2  0  0  0
   27.4740    7.6530   30.6190 N   0  0  0  0  0  0
   26.6700    7.5020   29.5520 C   0  0  0  0  0  0
   26.7400    8.6140   28.7870 N   0  0  0  0  0  0
   27.5890    9.4670   29.3850 C   0  0  0  0  0  0
   28.0440   10.7400   29.0670 C   0  0  0  0  0  0
   27.6090   11.3610   27.9390 N   0  0  0  0  0  0
   28.9260   11.3410   29.9010 N   0  0  0  0  0  0
   29.3600   10.7450   31.0250 C   0  0  0  0  0  0
   28.9390    9.5080   31.3420 N   0  0  0  0  0  0
   28.0540    8.8560   30.5400 C   0  0  0  0  0  0
   26.5540    5.9780   34.7330 C   0  0  2  0  0  0
   27.6390    6.6160   35.5940 C   0  0  0  0  0  0
   27.3900    7.0060   36.9040 C   0  0  0  0  0  0
   26.1560    6.8150   37.5060 C   0  0  0  0  0  0
   25.1200    6.2260   36.8040 C   0  0  0  0  0  0
   25.2470    5.7870   35.4920 C   0  5  0  0  0  0
   28.8980    6.8630   35.1330 N   0  3  0  0  0  0
   25.9670    7.2180   38.7870 N   0  3  0  0  0  0
   24.1150    5.2340   34.9570 N   0  3  0  0  0  0
   29.2960    6.5290   33.8500 O   0  0  0  0  0  0
   29.8480    7.4720   35.9460 O   0  5  0  0  0  0
   24.7380    7.0380   39.4180 O   0  0  0  0  0  0
   27.0140    7.8170   39.4800 O   0  5  0  0  0  0
   24.0310    4.7370   33.6580 O   0  0  0  0  0  0
   22.9710    5.1400   35.7500 O   0  5  0  0  0  0
   27.1968    2.3876   31.2970 H   0  0  0  0  0  0
   28.1097    3.2847   30.0367 H   0  0  0  0  0  0
   28.7259    3.8685   32.4830 H   0  0  0  0  0  0
   25.8975    4.0590   32.6656 H   0  0  0  0  0  0
   25.5457    6.3887   31.8110 H   0  0  0  0  0  0
   28.3581    7.2487   32.4159 H   0  0  0  0  0  0
   26.0601    6.6243   29.3384 H   0  0  0  0  0  0
   26.8924   10.8559   27.2746 H   0  0  0  0  0  0
   27.9735   12.3687   27.6905 H   0  0  0  0  0  0
   30.0560   11.2666   31.6820 H   0  0  0  0  0  0
   28.1849    7.4825   37.4965 H   0  0  0  0  0  0
   24.1398    6.0869   37.2835 H   0  0  0  0  0  0
  1  2  1  0  0  0
  1  3  1  0  0  0
  1  4  2  0  0  0
  1  8  1  0  0  0
  5  6  1  0  0  0
  5  7  2  0  0  0
  5  8  1  0  0  0
  5  9  1  0  0  0
  9 10  1  0  0  0
 10 11  1  0  0  0
 10 43  1  0  0  0
 10 44  1  0  0  0
 11 12  1  0  0  0
 11 13  1  0  0  0
 11 45  1  0  0  0
 12 17  1  0  0  0
 13 14  1  0  0  0
 13 15  1  0  0  0
 13 46  1  0  0  0
 14 28  1  0  0  0
 15 16  1  0  0  0
 15 17  1  0  0  0
 15 47  1  0  0  0
 16 28  1  0  0  0
 17 18  1  0  0  0
 17 48  1  0  0  0
 18 19  1  0  0  0
 18 27  1  0  0  0
 19 20  2  0  0  0
 19 49  1  0  0  0
 20 21  1  0  0  0
 21 22  2  0  0  0
 21 27  1  0  0  0
 22 23  1  0  0  0
 22 24  1  0  0  0
 23 50  1  0  0  0
 23 51  1  0  0  0
 24 25  2  0  0  0
 25 26  1  0  0  0
 25 52  1  0  0  0
 26 27  2  0  0  0
 28 29  1  0  0  0
 28 33  1  0  0  0
 29 30  2  0  0  0
 29 34  1  0  0  0
 30 31  1  0  0  0
 30 53  1  0  0  0
 31 32  2  0  0  0
 31 35  1  0  0  0
 32 33  1  0  0  0
 32 54  1  0  0  0
 33 36  1  0  0  0
 34 37  2  0  0  0
 34 38  1  0  0  0
 35 39  2  0  0  0
 35 40  1  0  0  0
 36 41  2  0  0  0
 36 42  1  0  0  0
M  CHG  8   2  -1   3  -1   6  -1  33  -1  34   1  35   1  36   1  38  -1
M  CHG  2  40  -1  42  -1
M  END
> <s_m_source_file>
../3b5j_ligand.sdf

> <i_m_source_file_index>
1

> <s_epik_input>
W09IXVAoPU8pKFtPSF0pT1tQQF0oPU8pKFtPSF0pT1tDSDJdW0NASF0xT1tDQEBIXShuKFtjSF1uMiljKGMyMyluW2NIXW5jM1tOSDJdKVtDQEhdKE80KVtDQEBIXTFPW0NAQF00NUMoW04rXSg9TylbTy1dKT1bQ0hdQyhbTitdKD1PKVtPLV0pPVtDSF1bQ0hdNVtOK10oPU8pW08tXQ==

> <s_epik_cmdline>
J2VwaWtfYXBwJywgJy1pbWFlJywgJ2xpZ2FuZF9wcm8ubWFlJywgJy1vbWFlJywgJ2xpZ2FuZF9wcmVwLm1hZScsICctbXMnLCAnMScsICctcGgnLCAnNycsICctcGh0JywgJzAuNScsICctbnQn

> <r_lp_tautomer_probability>
0.999997216410988

> <r_epik_Ionization_Penalty>
  0.1035

> <r_epik_Ionization_Penalty_Charging>
  0.1030

> <r_epik_Ionization_Penalty_Neutral>
  0.0005

> <r_epik_State_Penalty>
  0.0919

> <r_epik_Charging_Adjusted_Penalty>
0.194886299374804

> <i_epik_Tot_Q>
-4

> <i_epik_Tot_abs_Q>
10

> <s_epik_Chemistry_Notes>
This compound contains an acetal/aminal-like group ( X-CH(R)-Y where X, Y are N, S, or O) that may be acid/base labile, releasing an aldehyde.

$$$$
