3b78_ligand
                    3D
 Schrodinger Suite 2020-3.
 70 74  0  0  1  0            999 V2000
    3.7620   -5.3720   94.4750 P   0  0  2  0  0  0
    2.2870   -5.2010   94.7260 O   0  5  0  0  0  0
    4.6360   -5.8490   95.6040 O   0  0  0  0  0  0
    4.2930   -3.9290   93.9930 O   0  0  0  0  0  0
    3.4220   -3.2210   93.0910 C   0  0  0  0  0  0
    4.1230   -2.8800   91.7620 C   0  0  1  0  0  0
    4.6410   -1.5330   91.7140 O   0  0  0  0  0  0
    5.2890   -3.8210   91.3980 C   0  0  1  0  0  0
    4.8760   -4.7230   90.3630 O   0  0  0  0  0  0
    6.3130   -2.8830   90.7790 C   0  0  1  0  0  0
    6.7390   -3.3910   89.5120 O   0  0  0  0  0  0
    5.5290   -1.5840   90.5980 C   0  0  2  0  0  0
    6.3730   -0.3750   90.4680 N   0  0  0  0  0  0
    6.2380    0.5640   89.5310 C   0  0  0  0  0  0
    7.1600    1.5320   89.7260 N   0  0  0  0  0  0
    7.8710    1.1870   90.8200 C   0  0  0  0  0  0
    8.9290    1.7650   91.5060 C   0  0  0  0  0  0
    9.4530    2.9400   91.0760 N   0  0  0  0  0  0
    9.4190    1.1360   92.5980 N   0  0  0  0  0  0
    8.9060   -0.0220   93.0250 C   0  0  0  0  0  0
    7.8870   -0.6010   92.3850 N   0  0  0  0  0  0
    7.3530   -0.0100   91.2890 C   0  0  0  0  0  0
    3.9660   -6.3000   93.1750 O   0  0  0  0  0  0
    5.2140   -7.3020   92.9890 P   0  0  2  0  0  0
    6.2910   -7.0040   94.0040 O   0  5  0  0  0  0
    5.5610   -7.3820   91.5230 O   0  0  0  0  0  0
    4.5140   -8.6900   93.4000 O   0  0  0  0  0  0
    4.3640   -8.9310   94.7970 C   0  0  0  0  0  0
    4.2410  -10.4180   95.0850 C   0  0  1  0  0  0
    4.8310  -11.1980   94.0470 O   0  0  0  0  0  0
    4.9940  -10.7160   96.3640 C   0  0  1  0  0  0
    4.0690  -10.9040   97.4390 O   0  0  0  0  0  0
    5.8000  -11.9660   96.0730 C   0  0  1  0  0  0
    5.2630  -13.0810   96.7980 O   0  0  0  0  0  0
    5.6780  -12.2200   94.5790 C   0  0  2  0  0  0
    6.9890  -12.1140   93.9260 N   0  0  0  0  0  0
    7.1530  -11.2300   92.9300 C   0  0  0  0  0  0
    8.3740  -11.0990   92.2720 C   0  0  0  0  0  0
    8.5330  -10.1010   91.1580 C   0  0  0  0  0  0
    9.4720  -10.2110   90.3890 O   0  0  0  0  0  0
    7.6340   -9.1300   91.0200 N   0  0  0  0  0  0
    9.4360  -11.9110   92.6480 C   0  0  0  0  0  0
    9.2440  -12.8260   93.6770 C   0  0  0  0  0  0
    7.9990  -12.9150   94.2950 C   0  0  0  0  0  0
    2.5429   -3.8429   92.8664 H   0  0  0  0  0  0
    3.0958   -2.2804   93.5589 H   0  0  0  0  0  0
    3.3196   -2.9331   91.0125 H   0  0  0  0  0  0
    5.6459   -4.4492   92.2275 H   0  0  0  0  0  0
    4.1301   -5.5024   90.5780 H   0  0  0  0  0  0
    7.2524   -2.7831   91.3425 H   0  0  0  0  0  0
    7.3186   -4.3245   89.4604 H   0  0  0  0  0  0
    4.9402   -1.5530   89.6694 H   0  0  0  0  0  0
    5.4978    0.5524   88.7310 H   0  0  0  0  0  0
    9.0382    3.4339   90.1849 H   0  0  0  0  0  0
   10.2928    3.3990   91.6184 H   0  0  0  0  0  0
    9.3259   -0.5012   93.9094 H   0  0  0  0  0  0
    5.2416   -8.5401   95.3328 H   0  0  0  0  0  0
    3.4572   -8.4258   95.1610 H   0  0  0  0  0  0
    3.1820  -10.7135   95.1190 H   0  0  0  0  0  0
    5.6258   -9.8900   96.7226 H   0  0  0  0  0  0
    3.4186  -10.0755   97.7562 H   0  0  0  0  0  0
    6.8426  -11.8813   96.4132 H   0  0  0  0  0  0
    5.2658  -13.0746   97.8980 H   0  0  0  0  0  0
    5.2574  -13.2119   94.3572 H   0  0  0  0  0  0
    6.2995  -10.6016   92.6358 H   0  0  0  0  0  0
    6.7954   -9.0523   91.7276 H   0  0  0  0  0  0
    7.7294   -8.4049   90.1983 H   0  0  0  0  0  0
   10.4006  -11.8326   92.1465 H   0  0  0  0  0  0
   10.0680  -13.4773   94.0037 H   0  0  0  0  0  0
    7.8344  -13.6495   95.0971 H   0  0  0  0  0  0
  1  2  1  0  0  0
  1  3  2  0  0  0
  1  4  1  0  0  0
  1 23  1  0  0  0
  4  5  1  0  0  0
  5  6  1  0  0  0
  5 45  1  0  0  0
  5 46  1  0  0  0
  6  7  1  0  0  0
  6  8  1  0  0  0
  6 47  1  0  0  0
  7 12  1  0  0  0
  8  9  1  0  0  0
  8 10  1  0  0  0
  8 48  1  0  0  0
  9 49  1  0  0  0
 10 11  1  0  0  0
 10 12  1  0  0  0
 10 50  1  0  0  0
 11 51  1  0  0  0
 12 13  1  0  0  0
 12 52  1  0  0  0
 13 14  1  0  0  0
 13 22  1  0  0  0
 14 15  2  0  0  0
 14 53  1  0  0  0
 15 16  1  0  0  0
 16 17  1  0  0  0
 16 22  2  0  0  0
 17 18  1  0  0  0
 17 19  2  0  0  0
 18 54  1  0  0  0
 18 55  1  0  0  0
 19 20  1  0  0  0
 20 21  2  0  0  0
 20 56  1  0  0  0
 21 22  1  0  0  0
 23 24  1  0  0  0
 24 25  1  0  0  0
 24 26  2  0  0  0
 24 27  1  0  0  0
 27 28  1  0  0  0
 28 29  1  0  0  0
 28 57  1  0  0  0
 28 58  1  0  0  0
 29 30  1  0  0  0
 29 31  1  0  0  0
 29 59  1  0  0  0
 30 35  1  0  0  0
 31 32  1  0  0  0
 31 33  1  0  0  0
 31 60  1  0  0  0
 32 61  1  0  0  0
 33 34  1  0  0  0
 33 35  1  0  0  0
 33 62  1  0  0  0
 34 63  1  0  0  0
 35 36  1  0  0  0
 35 64  1  0  0  0
 36 37  1  0  0  0
 36 44  1  0  0  0
 37 38  2  0  0  0
 37 65  1  0  0  0
 38 39  1  0  0  0
 38 42  1  0  0  0
 39 40  2  0  0  0
 39 41  1  0  0  0
 41 66  1  0  0  0
 41 67  1  0  0  0
 42 43  1  0  0  0
 42 68  1  0  0  0
 43 44  2  0  0  0
 43 69  1  0  0  0
 44 70  1  0  0  0
M  CHG  2   2  -1  25  -1
M  END
> <s_m_source_file>
../3b78_ligand.sdf

> <i_m_source_file_index>
1

> <s_epik_input>
W05IMl1jMW5bY0hdbmMoYzEyKW4oW2NIXW4yKVtDQEBIXShbQ0BIXShbT0hdKVtDQEBIXTNbT0hdKU9bQ0BASF0zW0NIMl1PW1BAQF0oPU8pKFtPSF0pT1tQQEBdKD1PKShbT0hdKU9bQ0gyXVtDQEhdNE9bQ0BIXShbQ0BIXShbT0hdKVtDQEBIXTRbT0hdKU41W0NIXT1DKEMoPU8pW05IMl0pW0NIMl1bQ0hdPVtDSF01

> <s_epik_cmdline>
J2VwaWtfYXBwJywgJy1pbWFlJywgJ2xpZ2FuZF9wcm8ubWFlJywgJy1vbWFlJywgJ2xpZ2FuZF9wcmVwLm1hZScsICctbXMnLCAnMScsICctcGgnLCAnNycsICctcGh0JywgJzAuNScsICctbnQn

> <r_lp_tautomer_probability>
1

> <r_epik_Ionization_Penalty>
  0.0010

> <r_epik_Ionization_Penalty_Charging>
  0.0005

> <r_epik_Ionization_Penalty_Neutral>
  0.0005

> <r_epik_State_Penalty>
 -0.0000

> <r_epik_Charging_Adjusted_Penalty>
0.000545842572463949

> <i_epik_Tot_Q>
-2

> <i_epik_Tot_abs_Q>
2

> <s_epik_Chemistry_Notes>
This compound has an imine and may undergo hydrolysis. This compound contains an acetal/aminal-like group ( X-CH(R)-Y where X, Y are N, S, or O) that may be acid/base labile, releasing an aldehyde.

$$$$
