3b7r_ligand
                    3D
 Schrodinger Suite 2020-3.
 55 56  0  0  1  0            999 V2000
   32.8250    2.6140    0.8130 C   0  0  0  0  0  0
   34.2170    2.3640    1.4430 C   0  0  2  0  0  0
   34.1820    1.3220    2.4450 N   0  3  0  0  0  0
   34.9260    3.8990    2.2280 P   0  0  2  0  0  0
   36.3960    3.6750    2.6340 O   0  0  0  0  0  0
   34.0400    4.0820    3.5170 O   0  5  0  0  0  0
   34.5310    5.3200    1.1620 C   0  0  0  0  0  0
   34.7190    6.6990    1.7610 C   0  0  2  0  0  0
   34.4030    7.6590    0.6470 C   0  0  0  0  0  0
   35.0260    7.5960   -0.3910 O   0  0  0  0  0  0
   33.1880    8.2850    0.7060 N   0  0  0  0  0  0
   32.6930    9.0770   -0.3730 C   0  0  1  0  0  0
   31.4260    9.8110    0.0460 C   0  0  0  0  0  0
   33.7680   10.1380   -0.7670 C   0  0  0  0  0  0
   33.9410   10.2050   -2.0880 O   0  5  0  0  0  0
   34.3970   10.8460    0.0160 O   0  0  0  0  0  0
   36.1370    7.0320    2.2490 C   0  0  0  0  0  0
   36.2480    8.4320    2.8160 C   0  0  0  0  0  0
   36.3890    9.5610    1.9820 C   0  0  0  0  0  0
   36.3110   10.8720    2.4490 C   0  0  0  0  0  0
   36.1590   11.0730    3.8250 C   0  0  0  0  0  0
   35.9600    9.9610    4.6360 C   0  0  0  0  0  0
   36.0170    8.6500    4.1580 C   0  0  0  0  0  0
   36.0680   12.4610    4.3410 C   0  0  0  0  0  0
   35.2070   12.7980    5.4030 C   0  0  0  0  0  0
   35.1200   14.1300    5.8460 C   0  0  0  0  0  0
   35.8640   15.1660    5.2190 C   0  0  0  0  0  0
   36.7050   14.8250    4.1400 C   0  0  0  0  0  0
   36.7770   13.5090    3.6730 C   0  0  0  0  0  0
   32.4523    1.6810    0.3651 H   0  0  0  0  0  0
   32.9083    3.3867    0.0345 H   0  0  0  0  0  0
   32.1255    2.9519    1.5917 H   0  0  0  0  0  0
   34.7262    1.8371    0.6225 H   0  0  0  0  0  0
   33.7663    0.4037    2.0046 H   0  0  0  0  0  0
   33.5506    1.6435    3.2864 H   0  0  0  0  0  0
   35.2024    1.1262    2.8061 H   0  0  0  0  0  0
   35.1699    5.2957    0.2669 H   0  0  0  0  0  0
   33.4745    5.2693    0.8598 H   0  0  0  0  0  0
   34.0622    6.7608    2.6412 H   0  0  0  0  0  0
   32.5877    8.1637    1.6197 H   0  0  0  0  0  0
   32.4740    8.3521   -1.1709 H   0  0  0  0  0  0
   30.6546    9.0793    0.3280 H   0  0  0  0  0  0
   31.0621   10.4225   -0.7928 H   0  0  0  0  0  0
   31.6462   10.4613    0.9054 H   0  0  0  0  0  0
   36.4281    6.3249    3.0397 H   0  0  0  0  0  0
   36.8421    6.9527    1.4085 H   0  0  0  0  0  0
   36.5679    9.4000    0.9189 H   0  0  0  0  0  0
   36.3668   11.7163    1.7618 H   0  0  0  0  0  0
   35.7498   10.1200    5.6937 H   0  0  0  0  0  0
   35.8805    7.8089    4.8377 H   0  0  0  0  0  0
   34.6067   12.0250    5.8827 H   0  0  0  0  0  0
   34.4695   14.3724    6.6863 H   0  0  0  0  0  0
   35.7864   16.1973    5.5633 H   0  0  0  0  0  0
   37.3075   15.5981    3.6632 H   0  0  0  0  0  0
   37.3780   13.2797    2.7931 H   0  0  0  0  0  0
  1  2  1  0  0  0
  1 30  1  0  0  0
  1 31  1  0  0  0
  1 32  1  0  0  0
  2  3  1  0  0  0
  2  4  1  0  0  0
  2 33  1  0  0  0
  3 34  1  0  0  0
  3 35  1  0  0  0
  3 36  1  0  0  0
  4  5  2  0  0  0
  4  6  1  0  0  0
  4  7  1  0  0  0
  7  8  1  0  0  0
  7 37  1  0  0  0
  7 38  1  0  0  0
  8  9  1  0  0  0
  8 17  1  0  0  0
  8 39  1  0  0  0
  9 10  2  0  0  0
  9 11  1  0  0  0
 11 12  1  0  0  0
 11 40  1  0  0  0
 12 13  1  0  0  0
 12 14  1  0  0  0
 12 41  1  0  0  0
 13 42  1  0  0  0
 13 43  1  0  0  0
 13 44  1  0  0  0
 14 15  1  0  0  0
 14 16  2  0  0  0
 17 18  1  0  0  0
 17 45  1  0  0  0
 17 46  1  0  0  0
 18 19  2  0  0  0
 18 23  1  0  0  0
 19 20  1  0  0  0
 19 47  1  0  0  0
 20 21  2  0  0  0
 20 48  1  0  0  0
 21 22  1  0  0  0
 21 24  1  0  0  0
 22 23  2  0  0  0
 22 49  1  0  0  0
 23 50  1  0  0  0
 24 25  2  0  0  0
 24 29  1  0  0  0
 25 26  1  0  0  0
 25 51  1  0  0  0
 26 27  2  0  0  0
 26 52  1  0  0  0
 27 28  1  0  0  0
 27 53  1  0  0  0
 28 29  2  0  0  0
 28 54  1  0  0  0
 29 55  1  0  0  0
M  CHG  3   3   1   6  -1  15  -1
M  END
> <s_m_source_file>
../3b7r_ligand.sdf

> <i_m_source_file_index>
1

> <s_epik_input>
W09IXUMoPU8pW0NASF0oW0NIM10pW05IXUMoPU8pW0NAQEhdKFtDSDJdW1BAQF0oPU8pKFtPSF0pW0NASF0oW0NIM10pW05IMytdKVtDSDJdYzFbY0hdW2NIXWMoW2NIXVtjSF0xKS1jMltjSF1bY0hdW2NIXVtjSF1bY0hdMg==

> <s_epik_cmdline>
J2VwaWtfYXBwJywgJy1pbWFlJywgJ2xpZ2FuZF9wcm8ubWFlJywgJy1vbWFlJywgJ2xpZ2FuZF9wcmVwLm1hZScsICctbXMnLCAnMScsICctcGgnLCAnNycsICctcGh0JywgJzAuNScsICctbnQn

> <r_lp_tautomer_probability>
1

> <r_epik_Ionization_Penalty>
  0.0008

> <r_epik_Ionization_Penalty_Charging>
  0.0008

> <r_epik_Ionization_Penalty_Neutral>
  0.0000

> <r_epik_State_Penalty>
 -0.0000

> <r_epik_Charging_Adjusted_Penalty>
0.000752342700364909

> <i_epik_Tot_Q>
-1

> <i_epik_Tot_abs_Q>
3

$$$$
