3b7u_ligand
                    3D
 Schrodinger Suite 2020-3.
 38 38  0  0  1  0            999 V2000
   34.2250    4.1510    3.2940 O   0  0  0  0  0  0
   34.9880    4.2810    2.3510 C   0  0  0  0  0  0
   36.1930    3.7320    2.3050 N   0  0  0  0  0  0
   36.5650    3.1010    3.2900 O   0  0  0  0  0  0
   34.6280    5.1670    1.1870 C   0  0  0  0  0  0
   34.7120    6.6060    1.7070 C   0  0  2  0  0  0
   34.3180    7.5110    0.5820 C   0  0  0  0  0  0
   34.9820    7.5130   -0.4490 O   0  0  0  0  0  0
   33.2310    8.2680    0.7570 N   0  0  0  0  0  0
   32.7620    9.0820   -0.3280 C   0  0  1  0  0  0
   31.4610    9.7930    0.0080 C   0  0  0  0  0  0
   33.8560   10.0410   -0.7530 C   0  0  0  0  0  0
   34.0600   10.2010   -1.9530 O   0  0  0  0  0  0
   34.5630   10.5940    0.0960 O   0  5  0  0  0  0
   36.1550    6.9510    2.1610 C   0  0  0  0  0  0
   36.2490    8.3270    2.8280 C   0  0  0  0  0  0
   36.1310    8.4110    4.2070 C   0  0  0  0  0  0
   36.2230    9.6680    4.8300 C   0  0  0  0  0  0
   36.4050   10.8440    4.1220 C   0  0  0  0  0  0
   36.5470   10.7640    2.7260 C   0  0  0  0  0  0
   36.4720    9.5150    2.0890 C   0  0  0  0  0  0
   36.8526    3.8242    1.4295 H   0  0  0  0  0  0
   37.5580    2.6278    3.2972 H   0  0  0  0  0  0
   35.3398    5.0000    0.3652 H   0  0  0  0  0  0
   33.6103    4.9276    0.8449 H   0  0  0  0  0  0
   34.0247    6.7406    2.5552 H   0  0  0  0  0  0
   32.6969    8.2723    1.7186 H   0  0  0  0  0  0
   32.5468    8.3789   -1.1461 H   0  0  0  0  0  0
   30.7054    9.0523    0.3087 H   0  0  0  0  0  0
   31.1045   10.3423   -0.8758 H   0  0  0  0  0  0
   31.6317   10.4988    0.8342 H   0  0  0  0  0  0
   36.5007    6.1996    2.8862 H   0  0  0  0  0  0
   36.8237    6.9525    1.2876 H   0  0  0  0  0  0
   35.9686    7.5121    4.8017 H   0  0  0  0  0  0
   36.1479    9.7190    5.9162 H   0  0  0  0  0  0
   36.4373   11.8059    4.6336 H   0  0  0  0  0  0
   36.7147   11.6678    2.1403 H   0  0  0  0  0  0
   36.5874    9.4584    1.0066 H   0  0  0  0  0  0
  1  2  2  0  0  0
  2  3  1  0  0  0
  2  5  1  0  0  0
  3  4  1  0  0  0
  3 22  1  0  0  0
  4 23  1  0  0  0
  5  6  1  0  0  0
  5 24  1  0  0  0
  5 25  1  0  0  0
  6  7  1  0  0  0
  6 15  1  0  0  0
  6 26  1  0  0  0
  7  8  2  0  0  0
  7  9  1  0  0  0
  9 10  1  0  0  0
  9 27  1  0  0  0
 10 11  1  0  0  0
 10 12  1  0  0  0
 10 28  1  0  0  0
 11 29  1  0  0  0
 11 30  1  0  0  0
 11 31  1  0  0  0
 12 13  2  0  0  0
 12 14  1  0  0  0
 15 16  1  0  0  0
 15 32  1  0  0  0
 15 33  1  0  0  0
 16 17  2  0  0  0
 16 21  1  0  0  0
 17 18  1  0  0  0
 17 34  1  0  0  0
 18 19  2  0  0  0
 18 35  1  0  0  0
 19 20  1  0  0  0
 19 36  1  0  0  0
 20 21  2  0  0  0
 20 37  1  0  0  0
 21 38  1  0  0  0
M  CHG  1  14  -1
M  END
> <s_m_source_file>
../3b7u_ligand.sdf

> <i_m_source_file_index>
1

> <s_epik_input>
Tz1DKFtPSF0pW0NASF0oW0NIM10pW05IXUMoPU8pW0NAQEhdKFtDSDJdQyg9TylbTkhdW09IXSlbQ0gyXWMxW2NIXVtjSF1bY0hdW2NIXVtjSF0x

> <s_epik_cmdline>
J2VwaWtfYXBwJywgJy1pbWFlJywgJ2xpZ2FuZF9wcm8ubWFlJywgJy1vbWFlJywgJ2xpZ2FuZF9wcmVwLm1hZScsICctbXMnLCAnMScsICctcGgnLCAnNycsICctcGh0JywgJzAuNScsICctbnQn

> <r_lp_tautomer_probability>
1

> <r_epik_Ionization_Penalty>
  0.0058

> <r_epik_Ionization_Penalty_Charging>
  0.0002

> <r_epik_Ionization_Penalty_Neutral>
  0.0056

> <r_epik_State_Penalty>
 -0.0000

> <r_epik_Charging_Adjusted_Penalty>
0.000176823996324412

> <i_epik_Tot_Q>
-1

> <i_epik_Tot_abs_Q>
1

> <s_epik_Chemistry_Notes>
This compound has a N-S or N-O group and may undergo hydrolysis at high or low pH.

$$$$
