3b82_ligand
                    3D
 Schrodinger Suite 2020-3.
 70 74  0  0  1  0            999 V2000
    3.9580   -5.2490   94.2850 P   0  0  2  0  0  0
    2.5650   -4.9230   94.7560 O   0  0  0  0  0  0
    4.9940   -5.7210   95.2780 O   0  5  0  0  0  0
    4.4890   -3.9060   93.5710 O   0  0  0  0  0  0
    3.5710   -3.1380   92.7910 C   0  0  0  0  0  0
    4.1130   -2.8040   91.3970 C   0  0  1  0  0  0
    4.5330   -1.4380   91.2540 O   0  0  0  0  0  0
    5.2810   -3.6720   90.9280 C   0  0  1  0  0  0
    4.8600   -4.5390   89.8700 O   0  0  0  0  0  0
    6.3220   -2.7030   90.3970 C   0  0  1  0  0  0
    6.8670   -3.1440   89.1500 O   0  0  0  0  0  0
    5.5300   -1.4170   90.2250 C   0  0  2  0  0  0
    6.3980   -0.2030   90.1650 N   0  0  0  0  0  0
    6.2540    0.7700   89.2510 C   0  0  0  0  0  0
    7.1820    1.7240   89.4620 N   0  0  0  0  0  0
    7.9150    1.3460   90.5240 C   0  0  0  0  0  0
    8.9870    1.9410   91.1680 C   0  0  0  0  0  0
    9.4650    3.1310   90.7250 N   0  0  0  0  0  0
    9.5340    1.3140   92.2310 N   0  0  0  0  0  0
    9.0440    0.1360   92.6520 C   0  0  0  0  0  0
    8.0040   -0.4600   92.0450 N   0  0  0  0  0  0
    7.4140    0.1320   90.9760 C   0  0  0  0  0  0
    3.8810   -6.3540   93.1180 O   0  0  0  0  0  0
    5.1470   -7.3030   92.8100 P   0  0  2  0  0  0
    6.4150   -6.5320   93.0850 O   0  5  0  0  0  0
    4.9560   -7.9470   91.4610 O   0  0  0  0  0  0
    4.9080   -8.4120   93.9520 O   0  0  0  0  0  0
    3.8250   -9.3250   93.7900 C   0  0  0  0  0  0
    4.1160  -10.6410   94.4940 C   0  0  1  0  0  0
    4.9140  -11.4380   93.6190 O   0  0  0  0  0  0
    4.8690  -10.4730   95.7950 C   0  0  1  0  0  0
    3.9750  -10.7210   96.8800 O   0  0  0  0  0  0
    5.9340  -11.5500   95.7230 C   0  0  1  0  0  0
    5.6450  -12.5580   96.6980 O   0  0  0  0  0  0
    5.8840  -12.1830   94.3390 C   0  0  2  0  0  0
    7.1740  -12.0220   93.6590 N   0  0  0  0  0  0
    7.2810  -11.1450   92.6470 C   0  0  0  0  0  0
    8.4910  -10.9640   91.9780 C   0  0  0  0  0  0
    8.6100   -9.9830   90.8460 C   0  0  0  0  0  0
    9.5050  -10.1340   90.0310 O   0  0  0  0  0  0
    7.7360   -8.9830   90.7530 N   0  0  0  0  0  0
    9.5980  -11.7120   92.3570 C   0  0  0  0  0  0
    9.4640  -12.6160   93.4010 C   0  0  0  0  0  0
    8.2310  -12.7600   94.0330 C   0  0  0  0  0  0
    2.6366   -3.7039   92.6621 H   0  0  0  0  0  0
    3.3572   -2.1893   93.3051 H   0  0  0  0  0  0
    3.2389   -2.9411   90.7435 H   0  0  0  0  0  0
    5.6626   -4.3474   91.7079 H   0  0  0  0  0  0
    4.1041   -5.3147   90.0624 H   0  0  0  0  0  0
    7.2248   -2.6161   91.0194 H   0  0  0  0  0  0
    7.4684   -4.0641   89.1072 H   0  0  0  0  0  0
    4.9787   -1.3397   89.2763 H   0  0  0  0  0  0
    5.5031    0.7857   88.4611 H   0  0  0  0  0  0
    9.0010    3.6211   89.8563 H   0  0  0  0  0  0
   10.3165    3.6057   91.2345 H   0  0  0  0  0  0
    9.5040   -0.3509   93.5119 H   0  0  0  0  0  0
    2.9106   -8.8890   94.2187 H   0  0  0  0  0  0
    3.6696   -9.5233   92.7192 H   0  0  0  0  0  0
    3.1679  -11.1580   94.7032 H   0  0  0  0  0  0
    5.2622   -9.4643   95.9896 H   0  0  0  0  0  0
    3.1403  -10.0312   97.0736 H   0  0  0  0  0  0
    6.9303  -11.1498   95.9621 H   0  0  0  0  0  0
    5.6319  -12.3010   97.7675 H   0  0  0  0  0  0
    5.6269  -13.2525   94.3501 H   0  0  0  0  0  0
    6.3953  -10.5651   92.3483 H   0  0  0  0  0  0
    6.9407   -8.8759   91.5054 H   0  0  0  0  0  0
    7.8092   -8.2639   89.9238 H   0  0  0  0  0  0
   10.5526  -11.5914   91.8448 H   0  0  0  0  0  0
   10.3244  -13.2171   93.7303 H   0  0  0  0  0  0
    8.1136  -13.4863   94.8507 H   0  0  0  0  0  0
  1  2  2  0  0  0
  1  3  1  0  0  0
  1  4  1  0  0  0
  1 23  1  0  0  0
  4  5  1  0  0  0
  5  6  1  0  0  0
  5 45  1  0  0  0
  5 46  1  0  0  0
  6  7  1  0  0  0
  6  8  1  0  0  0
  6 47  1  0  0  0
  7 12  1  0  0  0
  8  9  1  0  0  0
  8 10  1  0  0  0
  8 48  1  0  0  0
  9 49  1  0  0  0
 10 11  1  0  0  0
 10 12  1  0  0  0
 10 50  1  0  0  0
 11 51  1  0  0  0
 12 13  1  0  0  0
 12 52  1  0  0  0
 13 14  1  0  0  0
 13 22  1  0  0  0
 14 15  2  0  0  0
 14 53  1  0  0  0
 15 16  1  0  0  0
 16 17  1  0  0  0
 16 22  2  0  0  0
 17 18  1  0  0  0
 17 19  2  0  0  0
 18 54  1  0  0  0
 18 55  1  0  0  0
 19 20  1  0  0  0
 20 21  2  0  0  0
 20 56  1  0  0  0
 21 22  1  0  0  0
 23 24  1  0  0  0
 24 25  1  0  0  0
 24 26  2  0  0  0
 24 27  1  0  0  0
 27 28  1  0  0  0
 28 29  1  0  0  0
 28 57  1  0  0  0
 28 58  1  0  0  0
 29 30  1  0  0  0
 29 31  1  0  0  0
 29 59  1  0  0  0
 30 35  1  0  0  0
 31 32  1  0  0  0
 31 33  1  0  0  0
 31 60  1  0  0  0
 32 61  1  0  0  0
 33 34  1  0  0  0
 33 35  1  0  0  0
 33 62  1  0  0  0
 34 63  1  0  0  0
 35 36  1  0  0  0
 35 64  1  0  0  0
 36 37  1  0  0  0
 36 44  1  0  0  0
 37 38  2  0  0  0
 37 65  1  0  0  0
 38 39  1  0  0  0
 38 42  1  0  0  0
 39 40  2  0  0  0
 39 41  1  0  0  0
 41 66  1  0  0  0
 41 67  1  0  0  0
 42 43  1  0  0  0
 42 68  1  0  0  0
 43 44  2  0  0  0
 43 69  1  0  0  0
 44 70  1  0  0  0
M  CHG  2   3  -1  25  -1
M  END
> <s_m_source_file>
../3b82_ligand.sdf

> <i_m_source_file_index>
1

> <s_epik_input>
W05IMl1jMW5bY0hdbmMoYzEyKW4oW2NIXW4yKVtDQEBIXShbQ0BIXShbT0hdKVtDQEBIXTNbT0hdKU9bQ0BASF0zW0NIMl1PW1BAXSg9TykoW09IXSlPW1BAQF0oPU8pKFtPSF0pT1tDSDJdW0NASF00T1tDQEhdKFtDQEhdKFtPSF0pW0NAQEhdNFtPSF0pTjVbQ0hdPUMoQyg9TylbTkgyXSlbQ0gyXVtDSF09W0NIXTU=

> <s_epik_cmdline>
J2VwaWtfYXBwJywgJy1pbWFlJywgJ2xpZ2FuZF9wcm8ubWFlJywgJy1vbWFlJywgJ2xpZ2FuZF9wcmVwLm1hZScsICctbXMnLCAnMScsICctcGgnLCAnNycsICctcGh0JywgJzAuNScsICctbnQn

> <r_lp_tautomer_probability>
1

> <r_epik_Ionization_Penalty>
  0.0010

> <r_epik_Ionization_Penalty_Charging>
  0.0005

> <r_epik_Ionization_Penalty_Neutral>
  0.0005

> <r_epik_State_Penalty>
 -0.0000

> <r_epik_Charging_Adjusted_Penalty>
0.000545842572463949

> <i_epik_Tot_Q>
-2

> <i_epik_Tot_abs_Q>
2

> <s_epik_Chemistry_Notes>
This compound has an imine and may undergo hydrolysis. This compound contains an acetal/aminal-like group ( X-CH(R)-Y where X, Y are N, S, or O) that may be acid/base labile, releasing an aldehyde.

$$$$
