3b8h_ligand
                    3D
 Schrodinger Suite 2020-3.
 70 74  0  0  1  0            999 V2000
    3.5920   -5.3490   94.8520 P   0  0  2  0  0  0
    2.1670   -5.0600   95.2540 O   0  0  0  0  0  0
    4.5770   -5.8150   95.8990 O   0  5  0  0  0  0
    4.1380   -3.9960   94.1880 O   0  0  0  0  0  0
    3.2550   -3.2870   93.3450 C   0  0  0  0  0  0
    3.8720   -2.9040   92.0110 C   0  0  1  0  0  0
    4.3750   -1.5660   91.9670 O   0  0  0  0  0  0
    5.0000   -3.8080   91.5450 C   0  0  1  0  0  0
    4.5610   -4.6010   90.4500 O   0  0  0  0  0  0
    6.0690   -2.8770   91.0350 C   0  0  1  0  0  0
    6.5670   -3.3490   89.7820 O   0  0  0  0  0  0
    5.2940   -1.5800   90.8780 C   0  0  2  0  0  0
    6.1480   -0.3740   90.7330 N   0  0  0  0  0  0
    6.0120    0.5470   89.7660 C   0  0  0  0  0  0
    6.9440    1.5070   89.9350 N   0  0  0  0  0  0
    7.6620    1.1800   91.0280 C   0  0  0  0  0  0
    8.7320    1.7760   91.6740 C   0  0  0  0  0  0
    9.2470    2.9380   91.1990 N   0  0  0  0  0  0
    9.2440    1.1820   92.7770 N   0  0  0  0  0  0
    8.7300    0.0350   93.2420 C   0  0  0  0  0  0
    7.6980   -0.5600   92.6340 N   0  0  0  0  0  0
    7.1470    0.0000   91.5330 C   0  0  0  0  0  0
    3.5960   -6.4100   93.6370 O   0  0  0  0  0  0
    4.8320   -7.4080   93.3430 P   0  0  2  0  0  0
    6.1420   -6.7110   93.6110 O   0  5  0  0  0  0
    4.5840   -8.0510   92.0060 O   0  0  0  0  0  0
    4.6070   -8.5110   94.4900 O   0  0  0  0  0  0
    3.4200   -9.2980   94.4940 C   0  0  0  0  0  0
    3.6990  -10.6640   95.1000 C   0  0  1  0  0  0
    4.4730  -11.4360   94.1840 O   0  0  0  0  0  0
    4.5020  -10.5830   96.3830 C   0  0  1  0  0  0
    3.6500  -10.6830   97.5270 O   0  0  0  0  0  0
    5.4460  -11.7640   96.3120 C   0  0  1  0  0  0
    4.9690  -12.8040   97.1740 O   0  0  0  0  0  0
    5.4050  -12.2640   94.8770 C   0  0  2  0  0  0
    6.7160  -12.1380   94.2290 N   0  0  0  0  0  0
    6.8700  -11.2820   93.2060 C   0  0  0  0  0  0
    8.0980  -11.1480   92.5600 C   0  0  0  0  0  0
    8.2530  -10.1820   91.4160 C   0  0  0  0  0  0
    9.1570  -10.3360   90.6130 O   0  0  0  0  0  0
    7.3840   -9.1840   91.2910 N   0  0  0  0  0  0
    9.1730  -11.9250   92.9740 C   0  0  0  0  0  0
    8.9880  -12.8100   94.0300 C   0  0  0  0  0  0
    7.7380  -12.9060   94.6360 C   0  0  0  0  0  0
    2.3716   -3.9076   93.1344 H   0  0  0  0  0  0
    2.9401   -2.3577   93.8423 H   0  0  0  0  0  0
    3.0190   -2.9469   91.3178 H   0  0  0  0  0  0
    5.3377   -4.5146   92.3174 H   0  0  0  0  0  0
    3.7754   -5.3566   90.5982 H   0  0  0  0  0  0
    6.9815   -2.8051   91.6451 H   0  0  0  0  0  0
    7.1498   -4.2809   89.7376 H   0  0  0  0  0  0
    4.6989   -1.5155   89.9551 H   0  0  0  0  0  0
    5.2669    0.5228   88.9708 H   0  0  0  0  0  0
    8.8158    3.4042   90.3008 H   0  0  0  0  0  0
   10.0957    3.4139   91.7121 H   0  0  0  0  0  0
    9.1613   -0.4217   94.1328 H   0  0  0  0  0  0
    2.6460   -8.7911   95.0889 H   0  0  0  0  0  0
    3.0626   -9.4278   93.4618 H   0  0  0  0  0  0
    2.7358  -11.1649   95.2773 H   0  0  0  0  0  0
    5.0064   -9.6169   96.5320 H   0  0  0  0  0  0
    2.9021   -9.9012   97.7258 H   0  0  0  0  0  0
    6.4594  -11.5152   96.6600 H   0  0  0  0  0  0
    4.9202  -12.6387   98.2604 H   0  0  0  0  0  0
    5.1003  -13.3188   94.8088 H   0  0  0  0  0  0
    6.0083  -10.6813   92.8795 H   0  0  0  0  0  0
    6.5755   -9.0633   92.0271 H   0  0  0  0  0  0
    7.4733   -8.4788   90.4515 H   0  0  0  0  0  0
   10.1415  -11.8423   92.4809 H   0  0  0  0  0  0
    9.8217  -13.4322   94.3874 H   0  0  0  0  0  0
    7.5791  -13.6181   95.4592 H   0  0  0  0  0  0
  1  2  2  0  0  0
  1  3  1  0  0  0
  1  4  1  0  0  0
  1 23  1  0  0  0
  4  5  1  0  0  0
  5  6  1  0  0  0
  5 45  1  0  0  0
  5 46  1  0  0  0
  6  7  1  0  0  0
  6  8  1  0  0  0
  6 47  1  0  0  0
  7 12  1  0  0  0
  8  9  1  0  0  0
  8 10  1  0  0  0
  8 48  1  0  0  0
  9 49  1  0  0  0
 10 11  1  0  0  0
 10 12  1  0  0  0
 10 50  1  0  0  0
 11 51  1  0  0  0
 12 13  1  0  0  0
 12 52  1  0  0  0
 13 14  1  0  0  0
 13 22  1  0  0  0
 14 15  2  0  0  0
 14 53  1  0  0  0
 15 16  1  0  0  0
 16 17  1  0  0  0
 16 22  2  0  0  0
 17 18  1  0  0  0
 17 19  2  0  0  0
 18 54  1  0  0  0
 18 55  1  0  0  0
 19 20  1  0  0  0
 20 21  2  0  0  0
 20 56  1  0  0  0
 21 22  1  0  0  0
 23 24  1  0  0  0
 24 25  1  0  0  0
 24 26  2  0  0  0
 24 27  1  0  0  0
 27 28  1  0  0  0
 28 29  1  0  0  0
 28 57  1  0  0  0
 28 58  1  0  0  0
 29 30  1  0  0  0
 29 31  1  0  0  0
 29 59  1  0  0  0
 30 35  1  0  0  0
 31 32  1  0  0  0
 31 33  1  0  0  0
 31 60  1  0  0  0
 32 61  1  0  0  0
 33 34  1  0  0  0
 33 35  1  0  0  0
 33 62  1  0  0  0
 34 63  1  0  0  0
 35 36  1  0  0  0
 35 64  1  0  0  0
 36 37  1  0  0  0
 36 44  1  0  0  0
 37 38  2  0  0  0
 37 65  1  0  0  0
 38 39  1  0  0  0
 38 42  1  0  0  0
 39 40  2  0  0  0
 39 41  1  0  0  0
 41 66  1  0  0  0
 41 67  1  0  0  0
 42 43  1  0  0  0
 42 68  1  0  0  0
 43 44  2  0  0  0
 43 69  1  0  0  0
 44 70  1  0  0  0
M  CHG  2   3  -1  25  -1
M  END
> <s_m_source_file>
../3b8h_ligand.sdf

> <i_m_source_file_index>
1

> <s_epik_input>
W05IMl1jMW5bY0hdbmMoYzEyKW4oW2NIXW4yKVtDQEBIXShbQ0BIXShbT0hdKVtDQEBIXTNbT0hdKU9bQ0BASF0zW0NIMl1PW1BAXSg9TykoW09IXSlPW1BAQF0oPU8pKFtPSF0pT1tDSDJdW0NASF00T1tDQEhdKFtDQEhdKFtPSF0pW0NAQEhdNFtPSF0pTjVbQ0hdPUMoQyg9TylbTkgyXSlbQ0gyXVtDSF09W0NIXTU=

> <s_epik_cmdline>
J2VwaWtfYXBwJywgJy1pbWFlJywgJ2xpZ2FuZF9wcm8ubWFlJywgJy1vbWFlJywgJ2xpZ2FuZF9wcmVwLm1hZScsICctbXMnLCAnMScsICctcGgnLCAnNycsICctcGh0JywgJzAuNScsICctbnQn

> <r_lp_tautomer_probability>
1

> <r_epik_Ionization_Penalty>
  0.0010

> <r_epik_Ionization_Penalty_Charging>
  0.0005

> <r_epik_Ionization_Penalty_Neutral>
  0.0005

> <r_epik_State_Penalty>
 -0.0000

> <r_epik_Charging_Adjusted_Penalty>
0.000545842572463949

> <i_epik_Tot_Q>
-2

> <i_epik_Tot_abs_Q>
2

> <s_epik_Chemistry_Notes>
This compound has an imine and may undergo hydrolysis. This compound contains an acetal/aminal-like group ( X-CH(R)-Y where X, Y are N, S, or O) that may be acid/base labile, releasing an aldehyde.

$$$$
