3b8q_ligand
                    3D
 Schrodinger Suite 2020-3.
 57 61  0  0  1  0            999 V2000
   38.1640   30.8980   14.4080 C   0  0  0  0  0  0
   36.7890   30.9680   14.0220 C   0  0  0  0  0  0
   36.2290   32.1870   13.5170 C   0  0  0  0  0  0
   37.0580   33.3860   13.3920 C   0  0  0  0  0  0
   38.4520   33.2890   13.8110 C   0  0  0  0  0  0
   38.9810   32.0690   14.3130 C   0  0  0  0  0  0
   34.8620   32.2130   13.1340 C   0  0  0  0  0  0
   34.2850   33.4020   12.6110 C   0  0  0  0  0  0
   35.0690   34.5780   12.4510 C   0  0  0  0  0  0
   36.4570   34.6100   12.8230 C   0  0  0  0  0  0
   38.6460   29.6540   14.8490 O   0  0  0  0  0  0
   39.3010   28.8990   13.8410 C   0  0  0  0  0  0
   40.0940   27.7880   14.2350 C   0  0  0  0  0  0
   40.8010   26.9730   13.2970 C   0  0  0  0  0  0
   40.6630   27.2810   11.9610 N   0  3  0  0  0  0
   39.8980   28.3410   11.5740 C   0  0  0  0  0  0
   39.2050   29.1680   12.4840 C   0  0  0  0  0  0
   40.2090   27.4990   15.5890 C   0  0  0  0  0  0
   40.9740   26.4310   16.0540 C   0  0  0  0  0  0
   41.6960   25.6140   15.1630 C   0  0  0  0  0  0
   41.5930   25.8800   13.7690 C   0  0  0  0  0  0
   40.9480   26.2870   17.4440 O   0  0  0  0  0  0
   41.9720   26.8800   18.1980 C   0  0  0  0  0  0
   42.4650   24.5670   15.7070 O   0  0  0  0  0  0
   43.7110   24.9600   16.3000 C   0  0  0  0  0  0
   37.2430   35.8540   12.5900 C   0  0  0  0  0  0
   36.5560   37.0230   12.4530 N   0  0  0  0  0  0
   37.1190   38.2650   12.1910 C   0  0  0  0  0  0
   36.8210   39.3750   13.0020 C   0  0  0  0  0  0
   37.4040   40.6300   12.7270 C   0  0  0  0  0  0
   38.3010   40.7660   11.6160 C   0  0  0  0  0  0
   38.6220   39.6820   10.7800 C   0  0  0  0  0  0
   38.0300   38.4250   11.0660 C   0  0  0  0  0  0
   39.0140   42.2980   11.2950 Cl  0  0  0  0  0  0
   38.4510   35.8190   12.4660 O   0  0  0  0  0  0
   36.1588   30.0833   14.1129 H   0  0  0  0  0  0
   39.0971   34.1646   13.7381 H   0  0  0  0  0  0
   40.0230   32.0248   14.6299 H   0  0  0  0  0  0
   34.2518   31.3163   13.2416 H   0  0  0  0  0  0
   33.2319   33.4128   12.3299 H   0  0  0  0  0  0
   34.6071   35.4744   12.0373 H   0  0  0  0  0  0
   39.8176   28.5607   10.5094 H   0  0  0  0  0  0
   38.6044   30.0042   12.1261 H   0  0  0  0  0  0
   39.6849   28.1268   16.3096 H   0  0  0  0  0  0
   42.1212   25.2466   13.0564 H   0  0  0  0  0  0
   41.8065   26.6753   19.2660 H   0  0  0  0  0  0
   41.9699   27.9668   18.0283 H   0  0  0  0  0  0
   42.9423   26.4627   17.8907 H   0  0  0  0  0  0
   44.2275   24.0710   16.6910 H   0  0  0  0  0  0
   43.5194   25.6644   17.1229 H   0  0  0  0  0  0
   44.3413   25.4459   15.5407 H   0  0  0  0  0  0
   35.4603   37.0317   12.5502 H   0  0  0  0  0  0
   36.1383   39.2653   13.8446 H   0  0  0  0  0  0
   37.1742   41.4909   13.3549 H   0  0  0  0  0  0
   39.3042   39.8037    9.9387 H   0  0  0  0  0  0
   38.2602   37.5667   10.4348 H   0  0  0  0  0  0
   41.1715   26.6703   11.2004 H   0  0  0  0  0  0
  1  2  2  0  0  0
  1  6  1  0  0  0
  1 11  1  0  0  0
  2  3  1  0  0  0
  2 36  1  0  0  0
  3  4  2  0  0  0
  3  7  1  0  0  0
  4  5  1  0  0  0
  4 10  1  0  0  0
  5  6  2  0  0  0
  5 37  1  0  0  0
  6 38  1  0  0  0
  7  8  2  0  0  0
  7 39  1  0  0  0
  8  9  1  0  0  0
  8 40  1  0  0  0
  9 10  2  0  0  0
  9 41  1  0  0  0
 10 26  1  0  0  0
 11 12  1  0  0  0
 12 13  2  0  0  0
 12 17  1  0  0  0
 13 14  1  0  0  0
 13 18  1  0  0  0
 14 15  2  0  0  0
 14 21  1  0  0  0
 15 16  1  0  0  0
 15 57  1  0  0  0
 16 17  2  0  0  0
 16 42  1  0  0  0
 17 43  1  0  0  0
 18 19  2  0  0  0
 18 44  1  0  0  0
 19 20  1  0  0  0
 19 22  1  0  0  0
 20 21  2  0  0  0
 20 24  1  0  0  0
 21 45  1  0  0  0
 22 23  1  0  0  0
 23 46  1  0  0  0
 23 47  1  0  0  0
 23 48  1  0  0  0
 24 25  1  0  0  0
 25 49  1  0  0  0
 25 50  1  0  0  0
 25 51  1  0  0  0
 26 27  1  0  0  0
 26 35  2  0  0  0
 27 28  1  0  0  0
 27 52  1  0  0  0
 28 29  2  0  0  0
 28 33  1  0  0  0
 29 30  1  0  0  0
 29 53  1  0  0  0
 30 31  2  0  0  0
 30 54  1  0  0  0
 31 32  1  0  0  0
 31 34  1  0  0  0
 32 33  2  0  0  0
 32 55  1  0  0  0
 33 56  1  0  0  0
M  CHG  1  15   1
M  END
> <s_m_source_file>
../3b8q_ligand.sdf

> <i_m_source_file_index>
1

> <s_epik_input>
W0NIM11PYyhbY0hdMSljKE9bQ0gzXSlbY0hdYyhjMTIpbltjSF1bY0hdYzJPYyhbY0hdMylbY0hdW2NIXWMoYzM0KWMoW2NIXVtjSF1bY0hdNClDKD1PKVtOSF1jNVtjSF1bY0hdYyhDbClbY0hdW2NIXTU=

> <s_epik_cmdline>
J2VwaWtfYXBwJywgJy1pbWFlJywgJ2xpZ2FuZF9wcm8ubWFlJywgJy1vbWFlJywgJ2xpZ2FuZF9wcmVwLm1hZScsICctbXMnLCAnMScsICctcGgnLCAnNycsICctcGh0JywgJzAuNScsICctbnQn

> <r_epik_Ionization_Penalty>
  0.0524

> <r_epik_Ionization_Penalty_Charging>
  0.0524

> <r_epik_Ionization_Penalty_Neutral>
  0.0000

> <r_epik_State_Penalty>
  0.0450

> <r_epik_Charging_Adjusted_Penalty>
0.0974348481336966

> <i_epik_Tot_Q>
1

> <i_epik_Tot_abs_Q>
1

$$$$
