3b8r_ligand
                    3D
 Schrodinger Suite 2020-3.
 54 58  0  0  1  0            999 V2000
    9.6630   -0.9740   57.7900 C   0  0  0  0  0  0
    8.2800   -0.9800   57.4030 C   0  0  0  0  0  0
    7.6460    0.2470   57.0080 C   0  0  0  0  0  0
    8.3930    1.5060   57.0020 C   0  0  0  0  0  0
    9.7940    1.4620   57.4040 C   0  0  0  0  0  0
   10.4050    0.2470   57.7900 C   0  0  0  0  0  0
    6.2790    0.2260   56.6280 C   0  0  0  0  0  0
    5.6380    1.4310   56.2390 C   0  0  0  0  0  0
    6.3430    2.6620   56.2200 C   0  0  0  0  0  0
    7.7130    2.7420   56.5880 C   0  0  0  0  0  0
   10.3100   -2.1490   58.1880 O   0  0  0  0  0  0
   10.9850   -2.9670   57.2490 C   0  0  0  0  0  0
   11.8120   -4.0190   57.7660 C   0  0  0  0  0  0
   12.5220   -4.8930   56.8690 C   0  0  0  0  0  0
   12.3780   -4.7020   55.5000 N   0  3  0  0  0  0
   11.5960   -3.7000   54.9880 C   0  0  0  0  0  0
   10.8780   -2.8110   55.8210 C   0  0  0  0  0  0
   11.9530   -4.2000   59.1780 C   0  0  0  0  0  0
   12.7810   -5.2430   59.7160 C   0  0  0  0  0  0
   13.4880   -6.1150   58.8180 C   0  0  0  0  0  0
   13.3340   -5.9210   57.4020 C   0  0  0  0  0  0
   12.8410   -5.3400   61.1450 O   0  0  0  0  0  0
   14.3000   -7.1330   59.3790 O   0  0  0  0  0  0
   14.7210   -8.2170   58.5470 C   0  0  0  0  0  0
   12.9530   -4.1590   61.9420 C   0  0  0  0  0  0
    8.3820    4.0670   56.5320 C   0  0  0  0  0  0
    7.5770    5.1570   56.8120 N   0  0  0  0  0  0
    8.0770    6.5130   56.8010 C   0  0  0  0  0  0
    9.5720    4.2070   56.2470 O   0  0  0  0  0  0
    8.0550    6.8510   55.3300 C   0  0  0  0  0  0
    7.2930    7.6450   56.3380 C   0  0  0  0  0  0
    7.7139   -1.9115   57.4090 H   0  0  0  0  0  0
   10.3799    2.3812   57.4069 H   0  0  0  0  0  0
   11.4527    0.2416   58.0906 H   0  0  0  0  0  0
    5.7235   -0.7118   56.6348 H   0  0  0  0  0  0
    4.5872    1.4104   55.9502 H   0  0  0  0  0  0
    5.8207    3.5689   55.9155 H   0  0  0  0  0  0
   11.5253   -3.5848   53.9064 H   0  0  0  0  0  0
   10.2570   -2.0247   55.3918 H   0  0  0  0  0  0
   11.4222   -3.5340   59.8583 H   0  0  0  0  0  0
   13.8595   -6.5870   56.7177 H   0  0  0  0  0  0
   15.3388   -8.9118   59.1348 H   0  0  0  0  0  0
   15.3101   -7.8253   57.7046 H   0  0  0  0  0  0
   13.8380   -8.7477   58.1615 H   0  0  0  0  0  0
   12.9846   -4.4363   63.0060 H   0  0  0  0  0  0
   12.0849   -3.5089   61.7582 H   0  0  0  0  0  0
   13.8757   -3.6228   61.6752 H   0  0  0  0  0  0
    6.5207    4.9622   57.0492 H   0  0  0  0  0  0
    8.6943    6.4591   57.7099 H   0  0  0  0  0  0
    9.0772    7.0726   54.9894 H   0  0  0  0  0  0
    7.6569    5.9964   54.7633 H   0  0  0  0  0  0
    6.2351    7.4881   56.5953 H   0  0  0  0  0  0
    7.6554    8.5643   56.8213 H   0  0  0  0  0  0
   12.8997   -5.3651   54.7943 H   0  0  0  0  0  0
  1  2  2  0  0  0
  1  6  1  0  0  0
  1 11  1  0  0  0
  2  3  1  0  0  0
  2 32  1  0  0  0
  3  4  2  0  0  0
  3  7  1  0  0  0
  4  5  1  0  0  0
  4 10  1  0  0  0
  5  6  2  0  0  0
  5 33  1  0  0  0
  6 34  1  0  0  0
  7  8  2  0  0  0
  7 35  1  0  0  0
  8  9  1  0  0  0
  8 36  1  0  0  0
  9 10  2  0  0  0
  9 37  1  0  0  0
 10 26  1  0  0  0
 11 12  1  0  0  0
 12 13  2  0  0  0
 12 17  1  0  0  0
 13 14  1  0  0  0
 13 18  1  0  0  0
 14 15  2  0  0  0
 14 21  1  0  0  0
 15 16  1  0  0  0
 15 54  1  0  0  0
 16 17  2  0  0  0
 16 38  1  0  0  0
 17 39  1  0  0  0
 18 19  2  0  0  0
 18 40  1  0  0  0
 19 20  1  0  0  0
 19 22  1  0  0  0
 20 21  2  0  0  0
 20 23  1  0  0  0
 21 41  1  0  0  0
 22 25  1  0  0  0
 23 24  1  0  0  0
 24 42  1  0  0  0
 24 43  1  0  0  0
 24 44  1  0  0  0
 25 45  1  0  0  0
 25 46  1  0  0  0
 25 47  1  0  0  0
 26 27  1  0  0  0
 26 29  2  0  0  0
 27 28  1  0  0  0
 27 48  1  0  0  0
 28 30  1  0  0  0
 28 31  1  0  0  0
 28 49  1  0  0  0
 30 31  1  0  0  0
 30 50  1  0  0  0
 30 51  1  0  0  0
 31 52  1  0  0  0
 31 53  1  0  0  0
M  CHG  1  15   1
M  END
> <s_m_source_file>
../3b8r_ligand.sdf

> <i_m_source_file_index>
1

> <s_epik_input>
W0NIMl0xW0NIMl1bQ0hdMVtOSF1DKD1PKWMoW2NIXVtjSF1bY0hdMiljKGMyMylbY0hdW2NIXWMoW2NIXTMpT2M0W2NIXVtjSF1uYyhjNDUpW2NIXWMoT1tDSDNdKWMoW2NIXTUpT1tDSDNd

> <s_epik_cmdline>
J2VwaWtfYXBwJywgJy1pbWFlJywgJ2xpZ2FuZF9wcm8ubWFlJywgJy1vbWFlJywgJ2xpZ2FuZF9wcmVwLm1hZScsICctbXMnLCAnMScsICctcGgnLCAnNycsICctcGh0JywgJzAuNScsICctbnQn

> <r_epik_Ionization_Penalty>
  0.0524

> <r_epik_Ionization_Penalty_Charging>
  0.0524

> <r_epik_Ionization_Penalty_Neutral>
  0.0000

> <r_epik_State_Penalty>
  0.0450

> <r_epik_Charging_Adjusted_Penalty>
0.0974348481336956

> <i_epik_Tot_Q>
1

> <i_epik_Tot_abs_Q>
1

$$$$
