3b92_ligand
                    3D
 Schrodinger Suite 2020-3.
 34 34  0  0  1  0            999 V2000
   -0.3850   60.4140   86.2240 C   0  0  0  0  0  0
   -0.6390   59.1310   85.7370 C   0  0  0  0  0  0
    1.2060   59.3620   84.1460 C   0  0  0  0  0  0
    1.4570   60.6490   84.6430 C   0  0  0  0  0  0
    0.6600   61.1780   85.6780 C   0  0  0  0  0  0
    0.8750   62.5030   86.0710 O   0  0  0  0  0  0
   -0.2580   63.2200   86.5630 C   0  0  0  0  0  0
   -3.0410   64.8880   83.7500 C   0  0  0  0  0  0
   -2.0160   64.2960   84.7230 C   0  0  0  0  0  0
   -1.2300   63.8330   85.4910 C   0  0  0  0  0  0
    0.1540   58.6160   84.7000 C   0  0  0  0  0  0
   -1.6420   56.8910   83.9960 O   0  0  0  0  0  0
    0.5820   56.8300   82.8780 O   0  0  0  0  0  0
   -0.2180   57.0230   84.0700 S   0  0  0  0  0  0
    0.3050   55.9790   85.4240 C   0  0  0  0  0  0
    1.6920   56.3580   85.9060 C   0  0  0  0  0  0
    2.7660   55.7160   85.0470 C   0  0  0  0  0  0
    4.3340   56.5520   85.3070 S   0  0  0  0  0  0
   -0.9972   60.8232   87.0277 H   0  0  0  0  0  0
   -1.4472   58.5335   86.1589 H   0  0  0  0  0  0
    1.8170   58.9483   83.3437 H   0  0  0  0  0  0
    2.2714   61.2424   84.2274 H   0  0  0  0  0  0
   -0.8775   62.5499   87.1772 H   0  0  0  0  0  0
    0.0824   64.0683   87.1751 H   0  0  0  0  0  0
   -2.5355   65.1795   82.8175 H   0  0  0  0  0  0
   -3.5099   65.7729   84.2050 H   0  0  0  0  0  0
   -3.8133   64.1365   83.5290 H   0  0  0  0  0  0
   -0.3988   56.0860   86.2625 H   0  0  0  0  0  0
    0.3236   54.9303   85.0925 H   0  0  0  0  0  0
    1.8110   57.4505   85.8582 H   0  0  0  0  0  0
    1.8245   56.0199   86.9443 H   0  0  0  0  0  0
    2.8695   54.6557   85.3210 H   0  0  0  0  0  0
    2.4834   55.7948   83.9869 H   0  0  0  0  0  0
    5.2310   56.2199   84.7638 H   0  0  0  0  0  0
  1  2  2  0  0  0
  1  5  1  0  0  0
  1 19  1  0  0  0
  2 11  1  0  0  0
  2 20  1  0  0  0
  3  4  1  0  0  0
  3 11  2  0  0  0
  3 21  1  0  0  0
  4  5  2  0  0  0
  4 22  1  0  0  0
  5  6  1  0  0  0
  6  7  1  0  0  0
  7 10  1  0  0  0
  7 23  1  0  0  0
  7 24  1  0  0  0
  8  9  1  0  0  0
  8 25  1  0  0  0
  8 26  1  0  0  0
  8 27  1  0  0  0
  9 10  3  0  0  0
 11 14  1  0  0  0
 12 14  2  0  0  0
 13 14  2  0  0  0
 14 15  1  0  0  0
 15 16  1  0  0  0
 15 28  1  0  0  0
 15 29  1  0  0  0
 16 17  1  0  0  0
 16 30  1  0  0  0
 16 31  1  0  0  0
 17 18  1  0  0  0
 17 32  1  0  0  0
 17 33  1  0  0  0
 18 34  1  0  0  0
M  END
> <s_m_source_file>
../3b92_ligand.sdf

> <i_m_source_file_index>
1

> <s_epik_input>
W0NIM11DI0NbQ0gyXU9jMVtjSF1bY0hdYyhbY0hdW2NIXTEpUyg9TykoPU8pW0NIMl1bQ0gyXVtDSDJdW1NIXQ==

> <s_epik_cmdline>
J2VwaWtfYXBwJywgJy1pbWFlJywgJ2xpZ2FuZF9wcm8ubWFlJywgJy1vbWFlJywgJ2xpZ2FuZF9wcmVwLm1hZScsICctbXMnLCAnMScsICctcGgnLCAnNycsICctcGh0JywgJzAuNScsICctbnQn

> <r_lp_tautomer_probability>
1

> <r_epik_Ionization_Penalty>
  0.0027

> <r_epik_Ionization_Penalty_Charging>
  0.0000

> <r_epik_Ionization_Penalty_Neutral>
  0.0027

> <r_epik_State_Penalty>
 -0.0000

> <r_epik_Charging_Adjusted_Penalty>
0

> <i_epik_Tot_Q>
0

> <i_epik_Tot_abs_Q>
0

$$$$
