3b95_ligand
                    3D
 Schrodinger Suite 2020-3.
 90 89  0  0  1  0            999 V2000
  -31.3100   -5.7920    7.1790 N   0  3  0  0  0  0
  -30.5920   -5.8900    8.4530 C   0  0  2  0  0  0
  -29.0660   -5.8740    8.2740 C   0  0  0  0  0  0
  -28.5050   -6.5890    7.4270 O   0  0  0  0  0  0
  -31.0200   -7.1630    9.2090 C   0  0  0  0  0  0
  -28.3940   -5.0490    9.0740 N   0  0  0  0  0  0
  -26.9420   -4.9560    8.9940 C   0  0  2  0  0  0
  -26.2820   -4.5730   10.3180 C   0  0  0  0  0  0
  -26.5860   -3.5310   10.9060 O   0  0  0  0  0  0
  -26.5310   -3.9610    7.8860 C   0  0  0  0  0  0
  -25.3960   -5.4500   10.7840 N   0  0  0  0  0  0
  -24.6250   -5.2210   11.9930 C   0  0  1  0  0  0
  -24.1850   -6.5670   12.5850 C   0  0  0  0  0  0
  -24.0260   -7.6860   11.5420 C   0  0  0  0  0  0
  -23.3040   -8.9160   12.0900 C   0  0  0  0  0  0
  -23.2320  -10.0260   11.0430 C   0  0  0  0  0  0
  -22.0860  -10.9220   11.2240 N   0  3  0  0  0  0
  -22.2300  -11.9920   10.2430 C   0  0  0  0  0  0
  -20.8750  -10.1830   10.8550 C   0  0  0  0  0  0
  -23.4120   -4.4230   11.4850 C   0  0  0  0  0  0
  -22.9830   -4.6070   10.3420 O   0  0  0  0  0  0
  -22.8700   -3.5250   12.3050 N   0  0  0  0  0  0
  -21.7140   -2.7250   11.8870 C   0  0  2  0  0  0
  -20.5070   -2.9130   12.8010 C   0  0  0  0  0  0
  -20.6500   -3.2120   13.9920 O   0  0  0  0  0  0
  -22.0900   -1.2330   11.8380 C   0  0  0  0  0  0
  -20.9620   -0.4120   11.5660 O   0  0  0  0  0  0
  -19.3200   -2.7300   12.2300 N   0  0  0  0  0  0
  -18.0770   -2.8520   12.9730 C   0  0  2  0  0  0
  -17.6040   -1.4910   13.4420 C   0  0  0  0  0  0
  -16.4050   -1.2900   13.6680 O   0  0  0  0  0  0
  -16.9710   -3.4530   12.1180 C   0  0  2  0  0  0
  -16.9490   -2.8100   10.8400 O   0  0  0  0  0  0
  -17.1820   -4.9180   11.9440 C   0  0  0  0  0  0
  -18.5350   -0.5480   13.5790 N   0  0  0  0  0  0
  -18.1390    0.7690   14.0260 C   0  0  0  0  0  0
  -19.1870    1.4660   14.8640 C   0  0  0  0  0  0
  -19.3640    2.6730   14.7240 O   0  0  0  0  0  0
  -19.8640    0.7070   15.7270 N   0  0  0  0  0  0
  -20.9200    1.2520   16.5750 C   0  0  0  0  0  0
  -20.5220    2.3410   17.5660 C   0  0  0  0  0  0
  -20.8755    2.2322   18.7705 O   0  0  0  0  0  0
  -19.8489    3.3358   17.1853 O   0  5  0  0  0  0
  -30.9956   -4.8802    6.6501 H   0  0  0  0  0  0
  -32.3924   -5.7501    7.3704 H   0  0  0  0  0  0
  -31.0808   -6.6722    6.5603 H   0  0  0  0  0  0
  -30.8895   -4.9825    8.9988 H   0  0  0  0  0  0
  -32.1130   -7.1660    9.3325 H   0  0  0  0  0  0
  -30.5391   -7.1811   10.1982 H   0  0  0  0  0  0
  -30.7133   -8.0504    8.6359 H   0  0  0  0  0  0
  -28.9453   -4.4340    9.8005 H   0  0  0  0  0  0
  -26.6367   -5.9858    8.7568 H   0  0  0  0  0  0
  -27.0121   -4.2474    6.9392 H   0  0  0  0  0  0
  -25.4381   -3.9806    7.7626 H   0  0  0  0  0  0
  -26.8501   -2.9466    8.1674 H   0  0  0  0  0  0
  -25.2594   -6.3798   10.2124 H   0  0  0  0  0  0
  -25.2213   -4.6957   12.7536 H   0  0  0  0  0  0
  -23.2121   -6.4475   13.0842 H   0  0  0  0  0  0
  -24.9328   -6.9081   13.3161 H   0  0  0  0  0  0
  -25.0191   -8.0086   11.1960 H   0  0  0  0  0  0
  -23.4441   -7.3107   10.6873 H   0  0  0  0  0  0
  -22.2794   -8.6406   12.3806 H   0  0  0  0  0  0
  -23.8445   -9.2971   12.9690 H   0  0  0  0  0  0
  -24.1433  -10.6397   11.0961 H   0  0  0  0  0  0
  -23.1481   -9.5800   10.0410 H   0  0  0  0  0  0
  -22.0328  -11.3024   12.2548 H   0  0  0  0  0  0
  -23.1291  -12.5823   10.4736 H   0  0  0  0  0  0
  -21.3445  -12.6436   10.2786 H   0  0  0  0  0  0
  -22.3250  -11.5569    9.2372 H   0  0  0  0  0  0
  -20.7173   -9.3590   11.5664 H   0  0  0  0  0  0
  -20.9898   -9.7744    9.8402 H   0  0  0  0  0  0
  -20.0093  -10.8611   10.8815 H   0  0  0  0  0  0
  -23.3007   -3.3871   13.3078 H   0  0  0  0  0  0
  -21.4616   -3.1165   10.8905 H   0  0  0  0  0  0
  -22.8353   -1.0685   11.0459 H   0  0  0  0  0  0
  -22.5120   -0.9292   12.8073 H   0  0  0  0  0  0
  -21.0792    0.6798   11.5012 H   0  0  0  0  0  0
  -19.2984   -2.4787   11.1593 H   0  0  0  0  0  0
  -18.3282   -3.5113   13.8169 H   0  0  0  0  0  0
  -15.9838   -3.2845   12.5731 H   0  0  0  0  0  0
  -16.8024   -1.7218   10.7743 H   0  0  0  0  0  0
  -17.1978   -5.4058   12.9298 H   0  0  0  0  0  0
  -16.3634   -5.3372   11.3406 H   0  0  0  0  0  0
  -18.1405   -5.0923   11.4332 H   0  0  0  0  0  0
  -19.5916   -0.7591   13.3577 H   0  0  0  0  0  0
  -17.2288    0.6900   14.6386 H   0  0  0  0  0  0
  -17.9392    1.4078   13.1531 H   0  0  0  0  0  0
  -19.6053   -0.3604   15.7883 H   0  0  0  0  0  0
  -21.7026    1.6990   15.9444 H   0  0  0  0  0  0
  -21.3553    0.4451   17.1828 H   0  0  0  0  0  0
  1  2  1  0  0  0
  1 44  1  0  0  0
  1 45  1  0  0  0
  1 46  1  0  0  0
  2  3  1  0  0  0
  2  5  1  0  0  0
  2 47  1  0  0  0
  3  4  2  0  0  0
  3  6  1  0  0  0
  5 48  1  0  0  0
  5 49  1  0  0  0
  5 50  1  0  0  0
  6  7  1  0  0  0
  6 51  1  0  0  0
  7  8  1  0  0  0
  7 10  1  0  0  0
  7 52  1  0  0  0
  8  9  2  0  0  0
  8 11  1  0  0  0
 10 53  1  0  0  0
 10 54  1  0  0  0
 10 55  1  0  0  0
 11 12  1  0  0  0
 11 56  1  0  0  0
 12 13  1  0  0  0
 12 20  1  0  0  0
 12 57  1  0  0  0
 13 14  1  0  0  0
 13 58  1  0  0  0
 13 59  1  0  0  0
 14 15  1  0  0  0
 14 60  1  0  0  0
 14 61  1  0  0  0
 15 16  1  0  0  0
 15 62  1  0  0  0
 15 63  1  0  0  0
 16 17  1  0  0  0
 16 64  1  0  0  0
 16 65  1  0  0  0
 17 18  1  0  0  0
 17 19  1  0  0  0
 17 66  1  0  0  0
 18 67  1  0  0  0
 18 68  1  0  0  0
 18 69  1  0  0  0
 19 70  1  0  0  0
 19 71  1  0  0  0
 19 72  1  0  0  0
 20 21  2  0  0  0
 20 22  1  0  0  0
 22 23  1  0  0  0
 22 73  1  0  0  0
 23 24  1  0  0  0
 23 26  1  0  0  0
 23 74  1  0  0  0
 24 25  2  0  0  0
 24 28  1  0  0  0
 26 27  1  0  0  0
 26 75  1  0  0  0
 26 76  1  0  0  0
 27 77  1  0  0  0
 28 29  1  0  0  0
 28 78  1  0  0  0
 29 30  1  0  0  0
 29 32  1  0  0  0
 29 79  1  0  0  0
 30 31  2  0  0  0
 30 35  1  0  0  0
 32 33  1  0  0  0
 32 34  1  0  0  0
 32 80  1  0  0  0
 33 81  1  0  0  0
 34 82  1  0  0  0
 34 83  1  0  0  0
 34 84  1  0  0  0
 35 36  1  0  0  0
 35 85  1  0  0  0
 36 37  1  0  0  0
 36 86  1  0  0  0
 36 87  1  0  0  0
 37 38  2  0  0  0
 37 39  1  0  0  0
 39 40  1  0  0  0
 39 88  1  0  0  0
 40 41  1  0  0  0
 40 89  1  0  0  0
 40 90  1  0  0  0
 41 42  2  0  0  0
 41 43  1  0  0  0
M  CHG  3   1   1  17   1  43  -1
M  END
> <s_m_source_file>
../3b95_ligand.sdf

> <i_m_source_file_index>
1

> <s_epik_input>
W05IMytdW0NAQEhdKFtDSDNdKUMoPU8pW05IXVtDQEBIXShbQ0gzXSlDKD1PKVtOSF1bQ0BASF0oW0NIMl1bQ0gyXVtDSDJdW0NIMl1bTkgrXShbQ0gzXSlbQ0gzXSlDKD1PKVtOSF1bQ0BASF0oW0NIMl1bT0hdKUMoPU8pW05IXVtDQEBIXShbQ0BIXShbT0hdKVtDSDNdKUMoPU8pW05IXVtDSDJdQyg9TylbTkhdW0NIMl1DKD1PKVtPSF0=

> <s_epik_cmdline>
J2VwaWtfYXBwJywgJy1pbWFlJywgJ2xpZ2FuZF9wcm8ubWFlJywgJy1vbWFlJywgJ2xpZ2FuZF9wcmVwLm1hZScsICctbXMnLCAnMScsICctcGgnLCAnNycsICctcGh0JywgJzAuNScsICctbnQn

> <r_epik_Ionization_Penalty>
  0.1258

> <r_epik_Ionization_Penalty_Charging>
  0.1257

> <r_epik_Ionization_Penalty_Neutral>
  0.0000

> <r_epik_State_Penalty>
  0.1134

> <r_epik_Charging_Adjusted_Penalty>
0.239168969982235

> <i_epik_Tot_Q>
1

> <i_epik_Tot_abs_Q>
3

$$$$
