3b9g_ligand
                    3D
 Schrodinger Suite 2020-3.
 33 35  0  0  1  0            999 V2000
   25.4280   21.5930    6.8840 O   0  0  0  0  0  0
   24.4720   20.6210    7.3160 C   0  0  0  0  0  0
   23.3680   21.3000    8.1480 C   0  0  1  0  0  0
   22.7820   22.4480    7.4260 N   0  0  1  0  0  0
   22.1970   20.3580    8.4330 C   0  0  1  0  0  0
   21.6420   20.6910    9.7160 O   0  0  0  0  0  0
   21.1720   20.6240    7.3180 C   0  0  1  0  0  0
   19.8300   20.6740    7.8510 O   0  0  0  0  0  0
   21.5510   21.9910    6.7300 C   0  0  2  0  0  0
   21.8190   21.8700    5.2170 C   0  0  0  0  0  0
   23.0230   21.8460    4.6510 C   0  0  0  0  0  0
   22.8750   21.7360    3.3320 N   0  3  0  0  0  0
   21.5770   21.7000    3.0380 C   0  0  0  0  0  0
   20.8980   21.5950    1.8340 C   0  0  0  0  0  0
   21.5240   21.5180    0.7790 O   0  0  0  0  0  0
   19.4980   21.5780    1.8490 N   0  0  0  0  0  0
   18.8320   21.6690    3.0870 C   0  0  0  0  0  0
   19.5140   21.7600    4.2210 N   0  0  0  0  0  0
   20.8570   21.7860    4.2240 C   0  0  0  0  0  0
   26.2902   21.2836    6.2750 H   0  0  0  0  0  0
   24.0178   20.1381    6.4382 H   0  0  0  0  0  0
   24.9744   19.8616    7.9332 H   0  0  0  0  0  0
   23.8458   21.6461    9.0764 H   0  0  0  0  0  0
   22.5334   23.2440    8.1433 H   0  0  0  0  0  0
   22.4784   19.2977    8.5135 H   0  0  0  0  0  0
   22.2448   20.5601   10.6268 H   0  0  0  0  0  0
   21.1284   19.8155    6.5734 H   0  0  0  0  0  0
   19.3887   19.7795    8.3148 H   0  0  0  0  0  0
   20.7507   22.7277    6.8936 H   0  0  0  0  0  0
   23.9259   21.9133    5.2757 H   0  0  0  0  0  0
   18.9388   21.4948    0.9054 H   0  0  0  0  0  0
   17.7423   21.6646    3.1134 H   0  0  0  0  0  0
   23.7606   21.6904    2.6811 H   0  0  0  0  0  0
  1  2  1  0  0  0
  1 20  1  0  0  0
  2  3  1  0  0  0
  2 21  1  0  0  0
  2 22  1  0  0  0
  3  4  1  0  0  0
  3  5  1  0  0  0
  3 23  1  0  0  0
  4  9  1  0  0  0
  4 24  1  0  0  0
  5  6  1  0  0  0
  5  7  1  0  0  0
  5 25  1  0  0  0
  6 26  1  0  0  0
  7  8  1  0  0  0
  7  9  1  0  0  0
  7 27  1  0  0  0
  8 28  1  0  0  0
  9 10  1  0  0  0
  9 29  1  0  0  0
 10 11  2  0  0  0
 10 19  1  0  0  0
 11 12  1  0  0  0
 11 30  1  0  0  0
 12 13  1  0  0  0
 12 33  1  0  0  0
 13 14  1  0  0  0
 13 19  2  0  0  0
 14 15  2  0  0  0
 14 16  1  0  0  0
 16 17  1  0  0  0
 16 31  1  0  0  0
 17 18  2  0  0  0
 17 32  1  0  0  0
 18 19  1  0  0  0
M  CHG  1  12   1
M  END
> <s_m_source_file>
../3b9g_ligand.sdf

> <i_m_source_file_index>
1

> <s_epik_input>
W09IXVtDSDJdW0NASF0xW05IMitdW0NASF0oW0NASF0oW09IXSlbQ0BASF0xW09IXSljKFtjSF1bbkhdMiljKGMyMyluW2NIXVtuSF1jMz1P

> <s_epik_cmdline>
J2VwaWtfYXBwJywgJy1pbWFlJywgJ2xpZ2FuZF9wcm8ubWFlJywgJy1vbWFlJywgJ2xpZ2FuZF9wcmVwLm1hZScsICctbXMnLCAnMScsICctcGgnLCAnNycsICctcGh0JywgJzAuNScsICctbnQn

> <r_epik_Ionization_Penalty>
  0.0679

> <r_epik_Ionization_Penalty_Charging>
  0.0000

> <r_epik_Ionization_Penalty_Neutral>
  0.0679

> <r_epik_State_Penalty>
  0.0590

> <r_epik_Charging_Adjusted_Penalty>
0.0590486943449857

> <i_epik_Tot_Q>
1

> <i_epik_Tot_abs_Q>
1

$$$$
