3b9s_ligand
                    3D
 Schrodinger Suite 2020-3.
 20 21  0  0  1  0            999 V2000
  -31.5230   19.6580  -15.1380 C   0  0  0  0  0  0
  -31.2420   20.1240  -13.9340 N   0  0  0  0  0  0
  -30.4410   19.4610  -13.1200 C   0  0  0  0  0  0
  -29.8740   18.2640  -13.5330 C   0  0  0  0  0  0
  -31.0150   18.5200  -15.5770 N   0  0  0  0  0  0
  -30.1900   17.8030  -14.8030 C   0  0  0  0  0  0
  -29.6820   16.5820  -15.2300 C   0  0  0  0  0  0
  -30.3780   15.8350  -16.1720 C   0  0  0  0  0  0
  -28.4670   16.1310  -14.7300 C   0  0  0  0  0  0
  -27.9400   14.9250  -15.1760 C   0  0  0  0  0  0
  -28.6370   14.1770  -16.1190 C   0  0  0  0  0  0
  -29.8540   14.6260  -16.6160 C   0  0  0  0  0  0
  -32.1906   20.2266  -15.7853 H   0  0  0  0  0  0
  -30.2258   19.8532  -12.1260 H   0  0  0  0  0  0
  -29.2027   17.7044  -12.8816 H   0  0  0  0  0  0
  -31.3304   16.1949  -16.5612 H   0  0  0  0  0  0
  -27.9281   16.7219  -13.9893 H   0  0  0  0  0  0
  -26.9859   14.5673  -14.7890 H   0  0  0  0  0  0
  -28.2251   13.2311  -16.4708 H   0  0  0  0  0  0
  -30.3965   14.0324  -17.3518 H   0  0  0  0  0  0
  1  2  2  0  0  0
  1  5  1  0  0  0
  1 13  1  0  0  0
  2  3  1  0  0  0
  3  4  2  0  0  0
  3 14  1  0  0  0
  4  6  1  0  0  0
  4 15  1  0  0  0
  5  6  2  0  0  0
  6  7  1  0  0  0
  7  8  2  0  0  0
  7  9  1  0  0  0
  8 12  1  0  0  0
  8 16  1  0  0  0
  9 10  2  0  0  0
  9 17  1  0  0  0
 10 11  1  0  0  0
 10 18  1  0  0  0
 11 12  2  0  0  0
 11 19  1  0  0  0
 12 20  1  0  0  0
M  END
> <s_m_source_file>
../3b9s_ligand.sdf

> <i_m_source_file_index>
1

> <s_epik_input>
bjFbY0hdbltjSF1bY0hdYzEtYzJbY0hdW2NIXVtjSF1bY0hdW2NIXTI=

> <s_epik_cmdline>
J2VwaWtfYXBwJywgJy1pbWFlJywgJ2xpZ2FuZF9wcm8ubWFlJywgJy1vbWFlJywgJ2xpZ2FuZF9wcmVwLm1hZScsICctbXMnLCAnMScsICctcGgnLCAnNycsICctcGh0JywgJzAuNScsICctbnQn

> <r_lp_tautomer_probability>
1

> <r_epik_Ionization_Penalty>
  0.0000

> <r_epik_Ionization_Penalty_Charging>
  0.0000

> <r_epik_Ionization_Penalty_Neutral>
  0.0000

> <r_epik_State_Penalty>
 -0.0000

> <r_epik_Charging_Adjusted_Penalty>
0

> <i_epik_Tot_Q>
0

> <i_epik_Tot_abs_Q>
0

$$$$
