3bar_ligand
                    3D
 Schrodinger Suite 2020-3.
 32 33  0  0  1  0            999 V2000
   23.7790    9.8500   13.4060 N   0  0  0  0  0  0
   23.7390    8.5750   12.9920 C   0  0  0  0  0  0
   22.6890    8.1670   12.3050 N   0  0  0  0  0  0
   21.7000    8.9620   11.9430 C   0  0  0  0  0  0
   21.7150   10.2990   12.3430 C   0  0  0  0  0  0
   22.7940   10.7570   13.0770 C   0  0  0  0  0  0
   24.6010    7.7340   13.2410 O   0  0  0  0  0  0
   20.8280    8.4630   11.2810 O   0  0  0  0  0  0
   24.9870   10.2450   14.0620 C   0  0  1  0  0  0
   25.4580    9.7060   15.3900 C   0  0  2  0  0  0
   24.8400   10.4230   16.3930 O   0  0  0  0  0  0
   26.9710    9.9550   15.2680 C   0  0  1  0  0  0
   27.1990    9.6570   13.7970 C   0  0  2  0  0  0
   27.2910   11.3140   15.5340 O   0  0  0  0  0  0
   26.0560   10.1010   13.1390 O   0  0  0  0  0  0
   27.6190    8.2020   13.4940 C   0  0  0  0  0  0
   28.9190    7.8820   13.8850 O   0  0  0  0  0  0
   29.6090    6.4390   13.8560 P   0  0  0  0  0  0
   30.4280    6.4970   14.9930 O   0  5  0  0  0  0
   28.5450    5.5270   13.9220 O   0  5  0  0  0  0
   30.3800    6.3690   12.7300 O   0  0  0  0  0  0
   22.6051    7.1126   12.0031 H   0  0  0  0  0  0
   20.8944   10.9675   12.0827 H   0  0  0  0  0  0
   22.8634   11.8002   13.3851 H   0  0  0  0  0  0
   24.6710   11.2712   14.3009 H   0  0  0  0  0  0
   25.1712    8.6880   15.6924 H   0  0  0  0  0  0
   23.7583   10.3141   16.5606 H   0  0  0  0  0  0
   27.6095    9.4177   15.9846 H   0  0  0  0  0  0
   28.0078   10.2634   13.3633 H   0  0  0  0  0  0
   27.1867   11.7143   16.5533 H   0  0  0  0  0  0
   26.9467    7.5090   14.0211 H   0  0  0  0  0  0
   27.5569    8.0204   12.4109 H   0  0  0  0  0  0
  1  2  1  0  0  0
  1  6  1  0  0  0
  1  9  1  0  0  0
  2  3  1  0  0  0
  2  7  2  0  0  0
  3  4  1  0  0  0
  3 22  1  0  0  0
  4  5  1  0  0  0
  4  8  2  0  0  0
  5  6  2  0  0  0
  5 23  1  0  0  0
  6 24  1  0  0  0
  9 10  1  0  0  0
  9 15  1  0  0  0
  9 25  1  0  0  0
 10 11  1  0  0  0
 10 12  1  0  0  0
 10 26  1  0  0  0
 11 27  1  0  0  0
 12 13  1  0  0  0
 12 14  1  0  0  0
 12 28  1  0  0  0
 13 15  1  0  0  0
 13 16  1  0  0  0
 13 29  1  0  0  0
 14 30  1  0  0  0
 16 17  1  0  0  0
 16 31  1  0  0  0
 16 32  1  0  0  0
 17 18  1  0  0  0
 18 19  1  0  0  0
 18 20  1  0  0  0
 18 21  2  0  0  0
M  CHG  2  19  -1  20  -1
M  END
> <s_m_source_file>
../3bar_ligand.sdf

> <i_m_source_file_index>
1

> <s_epik_input>
W2NIXTFbY0hdYyg9TylbbkhdYyg9TyluMVtDQEhdMltDQEhdKFtPSF0pW0NASF0oW09IXSlbQ0BIXShPMilbQ0gyXU9QKD1PKShbT0hdKVtPSF0=

> <s_epik_cmdline>
J2VwaWtfYXBwJywgJy1pbWFlJywgJ2xpZ2FuZF9wcm8ubWFlJywgJy1vbWFlJywgJ2xpZ2FuZF9wcmVwLm1hZScsICctbXMnLCAnMScsICctcGgnLCAnNycsICctcGh0JywgJzAuNScsICctbnQn

> <r_lp_tautomer_probability>
0.999537046341301

> <r_epik_Ionization_Penalty>
  0.1082

> <r_epik_Ionization_Penalty_Charging>
  0.1082

> <r_epik_Ionization_Penalty_Neutral>
  0.0000

> <r_epik_State_Penalty>
  0.0955

> <r_epik_Charging_Adjusted_Penalty>
0.203721441546161

> <i_epik_Tot_Q>
-2

> <i_epik_Tot_abs_Q>
2

> <s_epik_Chemistry_Notes>
This compound contains an acetal/aminal-like group ( X-CH(R)-Y where X, Y are N, S, or O) that may be acid/base labile, releasing an aldehyde.

$$$$
