3bb1_ligand
                    3D
 Schrodinger Suite 2020-3.
 46 48  0  0  1  0            999 V2000
   -0.7690   55.4090   40.6870 P   0  0  0  0  0  0
   -1.0110   54.7390   39.3630 O   0  5  0  0  0  0
   -2.1510   55.7400   41.2400 O   0  0  0  0  0  0
    0.1930   56.5400   40.6180 O   0  0  0  0  0  0
   -0.0870   54.1750   41.6390 N   0  0  1  0  0  0
   -0.1060   54.1980   43.2850 P   0  0  1  0  0  0
    0.9980   54.9000   43.9410 O   0  0  0  0  0  0
   -1.4690   54.5760   43.8030 O   0  5  0  0  0  0
    0.1760   52.6580   43.6590 O   0  0  0  0  0  0
   -1.0530   51.6310   43.9100 P   0  0  1  0  0  0
   -1.6910   51.8480   45.2410 O   0  5  0  0  0  0
   -1.8420   51.6730   42.6650 O   0  0  0  0  0  0
   -0.3040   50.2820   44.1050 O   0  0  0  0  0  0
    0.6480   49.9400   43.0920 C   0  0  0  0  0  0
    0.8640   48.4650   43.0600 C   0  0  1  0  0  0
    1.7860   48.2370   44.1470 O   0  0  0  0  0  0
   -0.3560   47.5900   43.3230 C   0  0  1  0  0  0
   -0.1490   46.3210   42.7030 O   0  0  0  0  0  0
   -0.3210   47.2870   44.7720 C   0  0  1  0  0  0
   -0.8350   46.0000   45.0570 O   0  0  0  0  0  0
    1.1970   47.3210   45.0520 C   0  0  2  0  0  0
    1.5780   47.7910   46.3620 N   0  0  0  0  0  0
    1.3700   49.0360   46.9160 C   0  0  0  0  0  0
    1.8330   49.1560   48.1320 N   0  0  0  0  0  0
    2.4120   47.9060   48.3460 C   0  0  0  0  0  0
    3.0950   47.4530   49.4930 C   0  0  0  0  0  0
    3.3450   48.0360   50.5680 O   0  0  0  0  0  0
    3.4820   46.1180   49.2960 N   0  3  0  0  0  0
    3.2880   45.3430   48.1970 C   0  0  0  0  0  0
    3.7680   44.0880   48.2490 N   0  0  0  0  0  0
    2.6780   45.7900   47.1210 N   0  0  0  0  0  0
    2.2570   47.0640   47.2950 C   0  0  0  0  0  0
   -2.7628   56.5189   40.7614 H   0  0  0  0  0  0
   -0.5830   53.2199   41.4115 H   0  0  0  0  0  0
    0.2740   50.2690   42.1113 H   0  0  0  0  0  0
    1.6053   50.4381   43.3053 H   0  0  0  0  0  0
    1.2358   48.1959   42.0603 H   0  0  0  0  0  0
   -1.2933   48.0369   42.9601 H   0  0  0  0  0  0
   -0.1265   46.2419   41.6061 H   0  0  0  0  0  0
   -0.9791   47.9322   45.3724 H   0  0  0  0  0  0
   -1.9056   45.7914   44.9145 H   0  0  0  0  0  0
    1.6087   46.3053   44.9581 H   0  0  0  0  0  0
    0.8658   49.8457   46.3884 H   0  0  0  0  0  0
    4.2756   43.7305   49.1570 H   0  0  0  0  0  0
    3.6531   43.4189   47.3835 H   0  0  0  0  0  0
    4.0120   45.5757   50.0928 H   0  0  0  0  0  0
  1  2  1  0  0  0
  1  3  1  0  0  0
  1  4  2  0  0  0
  1  5  1  0  0  0
  3 33  1  0  0  0
  5  6  1  0  0  0
  5 34  1  0  0  0
  6  7  2  0  0  0
  6  8  1  0  0  0
  6  9  1  0  0  0
  9 10  1  0  0  0
 10 11  1  0  0  0
 10 12  2  0  0  0
 10 13  1  0  0  0
 13 14  1  0  0  0
 14 15  1  0  0  0
 14 35  1  0  0  0
 14 36  1  0  0  0
 15 16  1  0  0  0
 15 17  1  0  0  0
 15 37  1  0  0  0
 16 21  1  0  0  0
 17 18  1  0  0  0
 17 19  1  0  0  0
 17 38  1  0  0  0
 18 39  1  0  0  0
 19 20  1  0  0  0
 19 21  1  0  0  0
 19 40  1  0  0  0
 20 41  1  0  0  0
 21 22  1  0  0  0
 21 42  1  0  0  0
 22 23  1  0  0  0
 22 32  1  0  0  0
 23 24  2  0  0  0
 23 43  1  0  0  0
 24 25  1  0  0  0
 25 26  1  0  0  0
 25 32  2  0  0  0
 26 27  2  0  0  0
 26 28  1  0  0  0
 28 29  1  0  0  0
 28 46  1  0  0  0
 29 30  1  0  0  0
 29 31  2  0  0  0
 30 44  1  0  0  0
 30 45  1  0  0  0
 31 32  1  0  0  0
M  CHG  4   2  -1   8  -1  11  -1  28   1
M  END
> <s_m_source_file>
../3bb1_ligand.sdf

> <i_m_source_file_index>
1

> <s_epik_input>
W09IXVAoPU8pKFtPSF0pW05IXVtQQEBdKD1PKShbT0hdKU9bUEBdKD1PKShbT0hdKU9bQ0gyXVtDQEhdMU9bQ0BIXShbQ0BIXShbT0hdKVtDQEBIXTFbT0hdKW4oW2NIXW4yKWMoYzIzKVtuSF1jKD1OXFtIXSlcW25IXWMzPU8=

> <s_epik_cmdline>
J2VwaWtfYXBwJywgJy1pbWFlJywgJ2xpZ2FuZF9wcm8ubWFlJywgJy1vbWFlJywgJ2xpZ2FuZF9wcmVwLm1hZScsICctbXMnLCAnMScsICctcGgnLCAnNycsICctcGh0JywgJzAuNScsICctbnQn

> <r_lp_tautomer_probability>
1

> <r_epik_Ionization_Penalty>
  2.8872

> <r_epik_Ionization_Penalty_Charging>
  2.3888

> <r_epik_Ionization_Penalty_Neutral>
  0.4985

> <r_epik_State_Penalty>
 -0.0000

> <r_epik_Charging_Adjusted_Penalty>
2.3887781483746

> <i_epik_Tot_Q>
-2

> <i_epik_Tot_abs_Q>
4

> <s_epik_Chemistry_Notes>
This compound has an imine and may undergo hydrolysis. This compound contains an acetal/aminal-like group ( X-CH(R)-Y where X, Y are N, S, or O) that may be acid/base labile, releasing an aldehyde.

$$$$
