3bbb_ligand
                    3D
 Schrodinger Suite 2020-3.
 64 69  0  0  1  0            999 V2000
  -18.7440  -22.2990   44.5820 O   0  0  0  0  0  0
  -18.8290  -22.5660   43.1850 C   0  0  0  0  0  0
  -19.1390  -21.3090   42.3880 C   0  0  1  0  0  0
  -19.5030  -21.6670   41.0320 O   0  0  0  0  0  0
  -20.2920  -20.4510   42.9170 C   0  0  1  0  0  0
  -19.7900  -19.2710   43.5700 O   0  0  0  0  0  0
  -21.1310  -20.1370   41.6730 C   0  0  0  0  0  0
  -20.2460  -20.5870   40.5110 C   0  0  2  0  0  0
  -20.9160  -21.0040   39.2690 N   0  0  0  0  0  0
  -20.3780  -21.8170   38.3080 C   0  0  0  0  0  0
  -21.1610  -22.0330   37.2770 N   0  0  0  0  0  0
  -22.3000  -21.3090   37.5760 C   0  0  0  0  0  0
  -23.5130  -21.1260   36.8790 C   0  0  0  0  0  0
  -23.7690  -21.6860   35.6960 N   0  0  0  0  0  0
  -24.4560  -20.3430   37.4420 N   0  0  0  0  0  0
  -24.1950  -19.7800   38.6290 C   0  0  0  0  0  0
  -23.0960  -19.8780   39.3800 N   0  0  0  0  0  0
  -22.1710  -20.6650   38.7970 C   0  0  0  0  0  0
  -20.3250  -18.8430   45.0240 P   0  0  2  0  0  0
  -20.8960  -17.4780   44.9120 O   0  0  0  0  0  0
  -19.2380  -19.0860   46.0090 O   0  5  0  0  0  0
  -21.5300  -19.8660   45.3000 O   0  0  0  0  0  0
  -22.8800  -19.3990   45.3830 C   0  0  0  0  0  0
  -23.8970  -20.5340   45.3850 C   0  0  1  0  0  0
  -23.8750  -21.2280   44.1070 O   0  0  0  0  0  0
  -23.6800  -21.6190   46.4360 C   0  0  1  0  0  0
  -24.9320  -22.0770   46.9420 O   0  0  0  0  0  0
  -22.9530  -22.7050   45.6530 C   0  0  0  0  0  0
  -23.6810  -22.6160   44.3160 C   0  0  2  0  0  0
  -22.9750  -23.1600   43.1560 N   0  0  0  0  0  0
  -21.6650  -23.5800   43.0770 C   0  0  0  0  0  0
  -21.3290  -24.0100   41.8910 N   0  0  0  0  0  0
  -22.4840  -23.8660   41.1340 C   0  0  0  0  0  0
  -22.7280  -24.1670   39.7700 C   0  0  0  0  0  0
  -21.9380  -24.6400   38.9420 O   0  0  0  0  0  0
  -24.0390  -23.8700   39.3950 N   0  3  0  0  0  0
  -24.9950  -23.3410   40.2350 C   0  0  0  0  0  0
  -26.2020  -23.1240   39.6960 N   0  0  0  0  0  0
  -24.7780  -23.0570   41.5160 N   0  0  0  0  0  0
  -23.5060  -23.3420   41.8970 C   0  0  0  0  0  0
  -18.5247  -23.1156   45.2857 H   0  0  0  0  0  0
  -17.8702  -22.9722   42.8303 H   0  0  0  0  0  0
  -19.6285  -23.2984   42.9996 H   0  0  0  0  0  0
  -18.2073  -20.7247   42.4112 H   0  0  0  0  0  0
  -20.8807  -20.9098   43.7250 H   0  0  0  0  0  0
  -22.0761  -20.6981   41.7170 H   0  0  0  0  0  0
  -21.3460  -19.0588   41.6383 H   0  0  0  0  0  0
  -19.6064  -19.7623   40.1636 H   0  0  0  0  0  0
  -19.3810  -22.2495   38.3921 H   0  0  0  0  0  0
  -23.0155  -22.3285   35.2170 H   0  0  0  0  0  0
  -24.7337  -21.5054   35.1992 H   0  0  0  0  0  0
  -24.9895  -19.1559   39.0380 H   0  0  0  0  0  0
  -23.0133  -18.8261   46.3125 H   0  0  0  0  0  0
  -23.0983  -18.7531   44.5198 H   0  0  0  0  0  0
  -24.8632  -20.0386   45.5612 H   0  0  0  0  0  0
  -23.1663  -21.3012   47.3553 H   0  0  0  0  0  0
  -25.5691  -21.3992   47.5291 H   0  0  0  0  0  0
  -21.8826  -22.4591   45.5924 H   0  0  0  0  0  0
  -23.0789  -23.6714   46.1631 H   0  0  0  0  0  0
  -24.6203  -23.1879   44.3402 H   0  0  0  0  0  0
  -20.9768  -23.5556   43.9219 H   0  0  0  0  0  0
  -26.3815  -23.3589   38.6365 H   0  0  0  0  0  0
  -27.0136  -22.7109   40.3129 H   0  0  0  0  0  0
  -24.3718  -24.0573   38.3634 H   0  0  0  0  0  0
  1  2  1  0  0  0
  1 41  1  0  0  0
  2  3  1  0  0  0
  2 42  1  0  0  0
  2 43  1  0  0  0
  3  4  1  0  0  0
  3  5  1  0  0  0
  3 44  1  0  0  0
  4  8  1  0  0  0
  5  6  1  0  0  0
  5  7  1  0  0  0
  5 45  1  0  0  0
  6 19  1  0  0  0
  7  8  1  0  0  0
  7 46  1  0  0  0
  7 47  1  0  0  0
  8  9  1  0  0  0
  8 48  1  0  0  0
  9 10  1  0  0  0
  9 18  1  0  0  0
 10 11  2  0  0  0
 10 49  1  0  0  0
 11 12  1  0  0  0
 12 13  1  0  0  0
 12 18  2  0  0  0
 13 14  1  0  0  0
 13 15  2  0  0  0
 14 50  1  0  0  0
 14 51  1  0  0  0
 15 16  1  0  0  0
 16 17  2  0  0  0
 16 52  1  0  0  0
 17 18  1  0  0  0
 19 20  2  0  0  0
 19 21  1  0  0  0
 19 22  1  0  0  0
 22 23  1  0  0  0
 23 24  1  0  0  0
 23 53  1  0  0  0
 23 54  1  0  0  0
 24 25  1  0  0  0
 24 26  1  0  0  0
 24 55  1  0  0  0
 25 29  1  0  0  0
 26 27  1  0  0  0
 26 28  1  0  0  0
 26 56  1  0  0  0
 27 57  1  0  0  0
 28 29  1  0  0  0
 28 58  1  0  0  0
 28 59  1  0  0  0
 29 30  1  0  0  0
 29 60  1  0  0  0
 30 31  1  0  0  0
 30 40  1  0  0  0
 31 32  2  0  0  0
 31 61  1  0  0  0
 32 33  1  0  0  0
 33 34  1  0  0  0
 33 40  2  0  0  0
 34 35  2  0  0  0
 34 36  1  0  0  0
 36 37  1  0  0  0
 36 64  1  0  0  0
 37 38  1  0  0  0
 37 39  2  0  0  0
 38 62  1  0  0  0
 38 63  1  0  0  0
 39 40  1  0  0  0
M  CHG  2  21  -1  36   1
M  END
> <s_m_source_file>
../3bbb_ligand.sdf

> <i_m_source_file_index>
1

> <s_epik_input>
W05IMl1jMW5bY0hdbmMoYzEyKW4oW2NIXW4yKVtDQEhdKE9bQ0BASF0zW0NIMl1bT0hdKVtDSDJdW0NAQEhdM09bUEBdKD1PKShbT0hdKU9bQ0gyXVtDQEhdNE9bQ0BIXShbQ0gyXVtDQEBIXTRbT0hdKW4oW2NIXW41KWMoYzU2KVtuSF1jKD1OXFtIXSlcW25IXWM2PU8=

> <s_epik_cmdline>
J2VwaWtfYXBwJywgJy1pbWFlJywgJ2xpZ2FuZF9wcm8ubWFlJywgJy1vbWFlJywgJ2xpZ2FuZF9wcmVwLm1hZScsICctbXMnLCAnMScsICctcGgnLCAnNycsICctcGh0JywgJzAuNScsICctbnQn

> <r_epik_Ionization_Penalty>
  2.3895

> <r_epik_Ionization_Penalty_Charging>
  2.3888

> <r_epik_Ionization_Penalty_Neutral>
  0.0007

> <r_epik_State_Penalty>
  0.1946

> <r_epik_Charging_Adjusted_Penalty>
2.5833832567959

> <i_epik_Tot_Q>
0

> <i_epik_Tot_abs_Q>
2

> <s_epik_Chemistry_Notes>
This compound has an imine and may undergo hydrolysis. This compound contains an acetal/aminal-like group ( X-CH(R)-Y where X, Y are N, S, or O) that may be acid/base labile, releasing an aldehyde.

$$$$
