3bc3_ligand
                    3D
 Schrodinger Suite 2020-3.
115119  0  0  1  0            999 V2000
  -19.7770    2.5430    4.2960 C   0  0  0  0  0  0
  -18.8430    2.6600    5.4050 C   0  0  0  0  0  0
  -20.1600    1.2510    3.6280 C   0  0  0  0  0  0
  -19.1430    0.6740    2.7160 C   0  0  0  0  0  0
  -19.4190   -0.5770    2.0430 C   0  0  0  0  0  0
  -21.3490   -5.2190    0.0380 C   0  0  0  0  0  0
  -21.2850   -3.8640    2.3180 C   0  0  0  0  0  0
  -20.9380   -2.6040    1.5190 C   0  0  3  0  0  0
  -21.4810   -5.1290    1.5710 C   0  0  0  0  0  0
  -20.8030   -2.6630   -0.0140 C   0  0  0  0  0  0
  -21.0100   -3.9680   -0.7360 C   0  0  0  0  0  0
  -15.5220    3.3360    5.7700 C   0  0  0  0  0  0
  -14.3370    0.9430    4.6470 C   0  0  0  0  0  0
  -14.9410    0.9710    2.1360 C   0  0  0  0  0  0
  -12.5930    2.5030    1.4730 C   0  0  0  0  0  0
  -16.3370    5.9160    7.8180 N   0  0  0  0  0  0
  -16.2390    7.2560    8.2240 C   0  0  2  0  0  0
  -15.0920    8.0890    7.4390 C   0  0  0  0  0  0
  -13.6880    7.4210    7.1130 C   0  0  0  0  0  0
  -12.6250    8.4090    7.3820 C   0  0  0  0  0  0
  -10.1880    7.7420    7.9240 C   0  0  0  0  0  0
  -18.9500    1.8650    6.3670 O   0  0  0  0  0  0
  -20.7280   -1.3210    2.2450 C   0  0  0  0  0  0
  -21.7880   -0.7310    3.1860 C   0  0  0  0  0  0
  -21.5070    0.5460    3.8750 C   0  0  0  0  0  0
  -17.7910    3.7880    5.2540 N   0  0  0  0  0  0
  -16.8070    3.9850    6.3200 C   0  0  2  0  0  0
  -16.8100    5.4700    6.4340 C   0  0  0  0  0  0
  -17.1540    6.2980    5.5330 O   0  0  0  0  0  0
  -15.5750    1.5710    5.7000 S   0  0  0  0  0  0
  -14.0480    1.3480    3.1700 C   0  0  0  0  0  0
  -12.8550    2.1290    2.8260 C   0  0  0  0  0  0
  -14.6820    1.3450    0.7760 C   0  0  0  0  0  0
  -13.5140    2.1070    0.4410 C   0  0  0  0  0  0
  -11.2760    8.1810    7.1760 N   0  0  0  0  0  0
  -10.0940    7.7680    9.2850 N   0  0  0  0  0  0
   -9.0780    7.2380    7.3160 N   0  0  0  0  0  0
  -15.7830    7.4850    9.5850 C   0  0  0  0  0  0
  -16.1190    8.5870   10.0860 O   0  0  0  0  0  0
  -15.0580    6.5590   10.1600 N   0  0  0  0  0  0
  -14.6020    6.8100   11.4340 C   0  0  2  0  0  0
  -13.2940    7.6730   11.3110 C   0  0  0  0  0  0
  -12.3800    7.2440   10.5650 O   0  0  0  0  0  0
  -14.2530    5.4690   12.2400 C   0  0  0  0  0  0
  -13.6980    5.7910   13.6630 C   0  0  0  0  0  0
  -14.6200    5.9290   14.8060 C   0  0  0  0  0  0
  -12.2180    5.9710   13.8760 C   0  0  0  0  0  0
  -14.0900    6.2380   16.1200 C   0  0  0  0  0  0
  -11.7070    6.2790   15.1850 C   0  0  0  0  0  0
  -12.6370    6.4130   16.3000 C   0  0  0  0  0  0
  -12.1450    6.7040   17.5120 O   0  0  0  0  0  0
  -13.5780   11.9030   11.5060 C   0  0  0  0  0  0
  -13.7100   12.5800   12.8730 C   0  0  0  0  0  0
  -14.7940   13.5590   13.0800 C   0  0  0  0  0  0
  -15.7320   13.8680   11.9690 C   0  0  0  0  0  0
  -15.5980   13.2090   10.6520 C   0  0  0  0  0  0
  -14.5280   12.2290   10.4090 C   0  0  0  0  0  0
  -12.4950   10.9050   11.2510 C   0  0  0  0  0  0
  -12.1210    9.8090   12.1760 C   0  0  0  0  0  0
  -13.3810    8.8870   12.1780 N   0  0  0  0  0  0
  -20.7608    2.9276    4.6031 H   0  0  0  0  0  0
  -19.4058    3.1268    3.4408 H   0  0  0  0  0  0
  -18.1955    1.1879    2.5539 H   0  0  0  0  0  0
  -18.6680   -0.9965    1.3736 H   0  0  0  0  0  0
  -20.5511   -5.9309   -0.2201 H   0  0  0  0  0  0
  -22.3009   -5.5633   -0.3924 H   0  0  0  0  0  0
  -21.3897   -3.8499    3.4129 H   0  0  0  0  0  0
  -19.8672   -2.8335    1.6221 H   0  0  0  0  0  0
  -21.7314   -6.0538    2.1115 H   0  0  0  0  0  0
  -21.5373   -1.9847   -0.4731 H   0  0  0  0  0  0
  -19.7877   -2.3554   -0.3048 H   0  0  0  0  0  0
  -20.0675   -4.1192   -1.2827 H   0  0  0  0  0  0
  -21.8172   -3.7488   -1.4505 H   0  0  0  0  0  0
  -15.3396    3.6943    4.7461 H   0  0  0  0  0  0
  -14.6704    3.6082    6.4109 H   0  0  0  0  0  0
  -13.3481    1.1332    5.0896 H   0  0  0  0  0  0
  -14.4792   -0.1402    4.5190 H   0  0  0  0  0  0
  -15.8324    0.3917    2.3766 H   0  0  0  0  0  0
  -11.7040    3.0828    1.2245 H   0  0  0  0  0  0
  -16.0643    5.1091    8.5141 H   0  0  0  0  0  0
  -17.3141    7.4546    8.1026 H   0  0  0  0  0  0
  -15.4705    8.3932    6.4520 H   0  0  0  0  0  0
  -14.8253    8.9835    8.0210 H   0  0  0  0  0  0
  -13.4260    6.4168    6.7484 H   0  0  0  0  0  0
  -12.8849    9.4038    7.7729 H   0  0  0  0  0  0
  -22.7351   -1.2470    3.3438 H   0  0  0  0  0  0
  -22.2435    0.9832    4.5492 H   0  0  0  0  0  0
  -17.7755    4.4352    4.3647 H   0  0  0  0  0  0
  -17.0046    3.5614    7.3157 H   0  0  0  0  0  0
  -12.1609    2.4271    3.6117 H   0  0  0  0  0  0
  -15.3778    1.0480   -0.0087 H   0  0  0  0  0  0
  -13.3241    2.3861   -0.5954 H   0  0  0  0  0  0
  -10.8323    8.3633    6.1861 H   0  0  0  0  0  0
  -10.9298    8.1545    9.8868 H   0  0  0  0  0  0
   -9.1824    7.4025    9.7804 H   0  0  0  0  0  0
   -9.0362    7.1668    6.2191 H   0  0  0  0  0  0
  -14.8097    5.6090    9.6642 H   0  0  0  0  0  0
  -15.4688    7.3361   11.8605 H   0  0  0  0  0  0
  -15.1622    4.8594   12.3486 H   0  0  0  0  0  0
  -13.4920    4.8973   11.6886 H   0  0  0  0  0  0
  -15.6929    5.7995   14.6639 H   0  0  0  0  0  0
  -11.5317    5.8676   13.0355 H   0  0  0  0  0  0
  -14.7631    6.3405   16.9712 H   0  0  0  0  0  0
  -10.6364    6.4108   15.3416 H   0  0  0  0  0  0
  -12.8246    6.8107   18.3704 H   0  0  0  0  0  0
  -13.0154   12.3428   13.6788 H   0  0  0  0  0  0
  -14.9067   14.0542   14.0445 H   0  0  0  0  0  0
  -16.5313   14.5919   12.1276 H   0  0  0  0  0  0
  -16.2990   13.4517    9.8533 H   0  0  0  0  0  0
  -14.4325   11.7472    9.4359 H   0  0  0  0  0  0
  -12.7214   10.3452   10.3316 H   0  0  0  0  0  0
  -11.5343   11.4281   11.1347 H   0  0  0  0  0  0
  -11.2270    9.2950   11.7930 H   0  0  0  0  0  0
  -11.9061   10.2261   13.1709 H   0  0  0  0  0  0
  -14.2546    9.1509   12.7921 H   0  0  0  0  0  0
  1  2  1  0  0  0
  1  3  1  0  0  0
  1 61  1  0  0  0
  1 62  1  0  0  0
  2 22  2  0  0  0
  2 26  1  0  0  0
  3  4  2  0  0  0
  3 25  1  0  0  0
  4  5  1  0  0  0
  4 63  1  0  0  0
  5 23  2  0  0  0
  5 64  1  0  0  0
  6  9  1  0  0  0
  6 11  1  0  0  0
  6 65  1  0  0  0
  6 66  1  0  0  0
  7  8  1  0  0  0
  7  9  2  0  0  0
  7 67  1  0  0  0
  8 10  1  0  0  0
  8 23  1  0  0  0
  8 68  1  0  0  0
  9 69  1  0  0  0
 10 11  1  0  0  0
 10 70  1  0  0  0
 10 71  1  0  0  0
 11 72  1  0  0  0
 11 73  1  0  0  0
 12 27  1  0  0  0
 12 30  1  0  0  0
 12 74  1  0  0  0
 12 75  1  0  0  0
 13 30  1  0  0  0
 13 31  1  0  0  0
 13 76  1  0  0  0
 13 77  1  0  0  0
 14 31  2  0  0  0
 14 33  1  0  0  0
 14 78  1  0  0  0
 15 32  2  0  0  0
 15 34  1  0  0  0
 15 79  1  0  0  0
 16 17  1  0  0  0
 16 28  1  0  0  0
 16 80  1  0  0  0
 17 18  1  0  0  0
 17 38  1  0  0  0
 17 81  1  0  0  0
 18 19  1  0  0  0
 18 82  1  0  0  0
 18 83  1  0  0  0
 19 20  2  0  0  0
 19 84  1  0  0  0
 20 35  1  0  0  0
 20 85  1  0  0  0
 21 35  1  0  0  0
 21 36  1  0  0  0
 21 37  2  0  0  0
 23 24  1  0  0  0
 24 25  2  0  0  0
 24 86  1  0  0  0
 25 87  1  0  0  0
 26 27  1  0  0  0
 26 88  1  0  0  0
 27 28  1  0  0  0
 27 89  1  0  0  0
 28 29  2  0  0  0
 31 32  1  0  0  0
 32 90  1  0  0  0
 33 34  2  0  0  0
 33 91  1  0  0  0
 34 92  1  0  0  0
 35 93  1  0  0  0
 36 94  1  0  0  0
 36 95  1  0  0  0
 37 96  1  0  0  0
 38 39  2  0  0  0
 38 40  1  0  0  0
 40 41  1  0  0  0
 40 97  1  0  0  0
 41 42  1  0  0  0
 41 44  1  0  0  0
 41 98  1  0  0  0
 42 43  2  0  0  0
 42 60  1  0  0  0
 44 45  1  0  0  0
 44 99  1  0  0  0
 44100  1  0  0  0
 45 46  2  0  0  0
 45 47  1  0  0  0
 46 48  1  0  0  0
 46101  1  0  0  0
 47 49  2  0  0  0
 47102  1  0  0  0
 48 50  2  0  0  0
 48103  1  0  0  0
 49 50  1  0  0  0
 49104  1  0  0  0
 50 51  1  0  0  0
 51105  1  0  0  0
 52 53  2  0  0  0
 52 57  1  0  0  0
 52 58  1  0  0  0
 53 54  1  0  0  0
 53106  1  0  0  0
 54 55  2  0  0  0
 54107  1  0  0  0
 55 56  1  0  0  0
 55108  1  0  0  0
 56 57  2  0  0  0
 56109  1  0  0  0
 57110  1  0  0  0
 58 59  1  0  0  0
 58111  1  0  0  0
 58112  1  0  0  0
 59 60  1  0  0  0
 59113  1  0  0  0
 59114  1  0  0  0
 60115  1  0  0  0
M  END
> <s_m_source_file>
../3bc3_ligand.sdf

> <i_m_source_file_index>
1

> <s_epik_input>
W0NIMl0xW0NIMl1bQ0gyXVtDSF09W0NIXVtDSF0xYyhbY0hdW2NIXTIpW2NIXVtjSF1jMltDSDJdQyg9TylbTkhdW0NAQEhdKFtDSDJdU1tDSDJdYzNbY0hdW2NIXVtjSF1bY0hdW2NIXTMpQyg9TylbTkhdW0NASF0oW0NIMl0vW0NIXT1bQ0hdL1tOSF0vQyhbTkgyXSk9TlxbSF0pQyg9TylbTkhdW0NAQEhdKFtDSDJdYzRbY0hdW2NIXWMoW09IXSlbY0hdW2NIXTQpQyg9TylbTkhdW0NIMl1bQ0gyXWM1W2NIXVtjSF1bY0hdW2NIXVtjSF01

> <s_epik_cmdline>
J2VwaWtfYXBwJywgJy1pbWFlJywgJ2xpZ2FuZF9wcm8ubWFlJywgJy1vbWFlJywgJ2xpZ2FuZF9wcmVwLm1hZScsICctbXMnLCAnMScsICctcGgnLCAnNycsICctcGh0JywgJzAuNScsICctbnQn

> <r_lp_tautomer_probability>
1

> <r_epik_Ionization_Penalty>
  0.0009

> <r_epik_Ionization_Penalty_Charging>
  0.0000

> <r_epik_Ionization_Penalty_Neutral>
  0.0009

> <r_epik_State_Penalty>
 -0.0000

> <r_epik_Charging_Adjusted_Penalty>
9.11831233342992e-08

> <i_epik_Tot_Q>
0

> <i_epik_Tot_abs_Q>
0

> <s_epik_Chemistry_Notes>
This compound has an imine and may undergo hydrolysis.

$$$$
