3bc4_ligand
                    3D
 Schrodinger Suite 2020-3.
 33 34  0  0  1  0            999 V2000
    6.0100    6.0100    0.0000 N   0  3  0  0  0  0
    7.1890    7.9650   -0.5420 C   0  0  0  0  0  0
    5.7790    7.3850   -0.4520 C   0  0  0  0  0  0
    8.5560    7.7540   -4.1180 C   0  0  0  0  0  0
    8.0530    8.2520   -2.7680 C   0  0  0  0  0  0
   12.3980    9.2940   -2.6080 C   0  0  0  0  0  0
   11.2140   10.4630   -4.9830 C   0  0  0  0  0  0
    9.3020    8.8590   -4.8970 C   0  0  0  0  0  0
    9.4100   10.6120   -6.6840 C   0  0  0  0  0  0
    7.6930    7.4250   -1.7700 O   0  0  0  0  0  0
    8.7250    9.4870   -6.0140 C   0  0  0  0  0  0
   10.6360   11.0610   -6.2040 C   0  0  0  0  0  0
   10.5320    9.4430   -4.2820 C   0  0  0  0  0  0
   11.1810    8.8030   -3.1100 C   0  0  0  0  0  0
   13.0610   10.4180   -3.3060 C   0  0  0  0  0  0
   12.4960   10.9910   -4.4490 C   0  0  0  0  0  0
    7.9750    9.4520   -2.5810 O   0  0  0  0  0  0
    5.0458    5.4903    0.1006 H   0  0  0  0  0  0
    6.5217    6.0252    0.9736 H   0  0  0  0  0  0
    6.6358    5.4827   -0.7350 H   0  0  0  0  0  0
    7.1332    9.0635   -0.5586 H   0  0  0  0  0  0
    7.7752    7.6408    0.3305 H   0  0  0  0  0  0
    5.2673    7.3698   -1.4256 H   0  0  0  0  0  0
    5.1531    7.9123    0.2830 H   0  0  0  0  0  0
    9.2486    6.9134   -3.9639 H   0  0  0  0  0  0
    7.7029    7.4193   -4.7264 H   0  0  0  0  0  0
   12.8471    8.8536   -1.7178 H   0  0  0  0  0  0
    8.9556   11.0889   -7.5524 H   0  0  0  0  0  0
    7.7623    9.1407   -6.3900 H   0  0  0  0  0  0
   11.1699   11.8535   -6.7284 H   0  0  0  0  0  0
   10.7086    7.9436   -2.6342 H   0  0  0  0  0  0
   14.0050   10.8053   -2.9227 H   0  0  0  0  0  0
   12.9944   11.8227   -4.9470 H   0  0  0  0  0  0
  1  3  1  0  0  0
  1 18  1  0  0  0
  1 19  1  0  0  0
  1 20  1  0  0  0
  2  3  1  0  0  0
  2 10  1  0  0  0
  2 21  1  0  0  0
  2 22  1  0  0  0
  3 23  1  0  0  0
  3 24  1  0  0  0
  4  5  1  0  0  0
  4  8  1  0  0  0
  4 25  1  0  0  0
  4 26  1  0  0  0
  5 10  1  0  0  0
  5 17  2  0  0  0
  6 14  2  0  0  0
  6 15  1  0  0  0
  6 27  1  0  0  0
  7 12  1  0  0  0
  7 13  2  0  0  0
  7 16  1  0  0  0
  8 11  2  0  0  0
  8 13  1  0  0  0
  9 11  1  0  0  0
  9 12  2  0  0  0
  9 28  1  0  0  0
 11 29  1  0  0  0
 12 30  1  0  0  0
 13 14  1  0  0  0
 14 31  1  0  0  0
 15 16  2  0  0  0
 15 32  1  0  0  0
 16 33  1  0  0  0
M  CHG  1   1   1
M  END
> <s_m_source_file>
../3bc4_ligand.sdf

> <i_m_source_file_index>
1

> <s_epik_input>
W05IMytdW0NIMl1bQ0gyXU9DKD1PKVtDSDJdYyhbY0hdW2NIXVtjSF0xKWMoYzEyKVtjSF1bY0hdW2NIXVtjSF0y

> <s_epik_cmdline>
J2VwaWtfYXBwJywgJy1pbWFlJywgJ2xpZ2FuZF9wcm8ubWFlJywgJy1vbWFlJywgJ2xpZ2FuZF9wcmVwLm1hZScsICctbXMnLCAnMScsICctcGgnLCAnNycsICctcGh0JywgJzAuNScsICctbnQn

> <r_epik_Ionization_Penalty>
  0.0111

> <r_epik_Ionization_Penalty_Charging>
  0.0111

> <r_epik_Ionization_Penalty_Neutral>
  0.0000

> <r_epik_State_Penalty>
  0.0085

> <r_epik_Charging_Adjusted_Penalty>
0.0196767355351197

> <i_epik_Tot_Q>
1

> <i_epik_Tot_abs_Q>
1

> <s_epik_Chemistry_Notes>
This compound has an ester and may undergo hydrolysis at high or low pH.

$$$$
