3bc5_ligand
                    3D
 Schrodinger Suite 2020-3.
 62 66  0  0  1  0            999 V2000
   56.4570   24.0590    5.4510 C   0  0  0  0  0  0
   54.6030   29.4830    5.9670 C   0  0  0  0  0  0
   54.9270   28.1340    5.8480 C   0  0  0  0  0  0
   56.2230   27.6890    6.1180 C   0  0  0  0  0  0
   55.5810   30.3980    6.3670 C   0  0  0  0  0  0
   56.8940   30.0130    6.6450 C   0  0  0  0  0  0
   57.1540   28.6490    6.5090 C   0  0  0  0  0  0
   58.0150   30.9630    7.0740 C   0  0  0  0  0  0
   59.1470   30.9070    6.0820 C   0  0  0  0  0  0
   59.3350   31.5310    4.8460 C   0  0  0  0  0  0
   57.2960   23.4690   -1.0830 C   0  0  0  0  0  0
   57.3250   23.6660    0.3020 C   0  0  0  0  0  0
   58.5230   32.5040    4.0220 C   0  0  0  0  0  0
   62.4000   28.4650    5.9840 C   0  0  0  0  0  0
   59.8980   24.3010    5.7600 C   0  0  0  0  0  0
   58.9900   24.1130    4.5590 C   0  0  0  0  0  0
   57.5990   24.0270    4.4460 C   0  0  0  0  0  0
   57.3810   23.8720    3.1140 N   0  0  0  0  0  0
   58.5590   23.8800    2.4520 C   0  0  0  0  0  0
   59.4840   24.0190    3.3570 O   0  0  0  0  0  0
   58.5600   23.7010    0.9690 C   0  0  0  0  0  0
   59.7740   23.5270    0.2760 C   0  0  0  0  0  0
   59.7420   23.3280   -1.1080 C   0  0  0  0  0  0
   58.5150   23.3070   -1.7800 C   0  0  0  0  0  0
   55.8010   25.4240    5.5060 C   0  0  0  0  0  0
   56.6730   26.4410    6.0430 O   0  0  0  0  0  0
   60.5070   31.0880    4.3750 N   0  0  0  0  0  0
   61.0840   30.2480    5.2290 N   0  0  0  0  0  0
   60.2440   30.1440    6.2410 N   0  0  0  0  0  0
   62.2280   29.5410    5.1190 C   0  0  0  0  0  0
   63.1510   29.8350    4.1090 C   0  0  0  0  0  0
   64.2950   29.0470    4.0070 C   0  0  0  0  0  0
   64.4960   27.9790    4.8800 C   0  0  0  0  0  0
   63.5510   27.6900    5.8680 C   0  0  0  0  0  0
   58.4980   33.8690    4.6700 C   0  0  0  0  0  0
   57.6330   34.6820    4.3830 O   0  0  0  0  0  0
   59.4140   34.2460    5.5710 O   0  5  0  0  0  0
   55.6954   23.3189    5.1642 H   0  0  0  0  0  0
   56.8431   23.8186    6.4526 H   0  0  0  0  0  0
   53.5909   29.8240    5.7491 H   0  0  0  0  0  0
   54.1630   27.4195    5.5416 H   0  0  0  0  0  0
   55.3091   31.4490    6.4654 H   0  0  0  0  0  0
   58.1660   28.3072    6.7259 H   0  0  0  0  0  0
   57.6264   31.9910    7.1213 H   0  0  0  0  0  0
   58.3880   30.6660    8.0653 H   0  0  0  0  0  0
   56.3463   23.4408   -1.6172 H   0  0  0  0  0  0
   56.3963   23.7913    0.8586 H   0  0  0  0  0  0
   58.9676   32.5961    3.0201 H   0  0  0  0  0  0
   57.4903   32.1360    3.9324 H   0  0  0  0  0  0
   61.6480   28.2331    6.7382 H   0  0  0  0  0  0
   59.2894   24.3569    6.6746 H   0  0  0  0  0  0
   60.4716   25.2324    5.6437 H   0  0  0  0  0  0
   60.5912   23.4500    5.8323 H   0  0  0  0  0  0
   60.7239   23.5471    0.8103 H   0  0  0  0  0  0
   60.6706   23.1896   -1.6617 H   0  0  0  0  0  0
   58.4988   23.1631   -2.8603 H   0  0  0  0  0  0
   55.5099   25.7321    4.4909 H   0  0  0  0  0  0
   54.9070   25.3757    6.1450 H   0  0  0  0  0  0
   62.9788   30.6608    3.4187 H   0  0  0  0  0  0
   65.0376   29.2668    3.2399 H   0  0  0  0  0  0
   65.3937   27.3670    4.7916 H   0  0  0  0  0  0
   63.7153   26.8556    6.5498 H   0  0  0  0  0  0
  1 17  1  0  0  0
  1 25  1  0  0  0
  1 38  1  0  0  0
  1 39  1  0  0  0
  2  3  2  0  0  0
  2  5  1  0  0  0
  2 40  1  0  0  0
  3  4  1  0  0  0
  3 41  1  0  0  0
  4  7  2  0  0  0
  4 26  1  0  0  0
  5  6  2  0  0  0
  5 42  1  0  0  0
  6  7  1  0  0  0
  6  8  1  0  0  0
  7 43  1  0  0  0
  8  9  1  0  0  0
  8 44  1  0  0  0
  8 45  1  0  0  0
  9 10  1  0  0  0
  9 29  2  0  0  0
 10 13  1  0  0  0
 10 27  2  0  0  0
 11 12  2  0  0  0
 11 24  1  0  0  0
 11 46  1  0  0  0
 12 21  1  0  0  0
 12 47  1  0  0  0
 13 35  1  0  0  0
 13 48  1  0  0  0
 13 49  1  0  0  0
 14 30  2  0  0  0
 14 34  1  0  0  0
 14 50  1  0  0  0
 15 16  1  0  0  0
 15 51  1  0  0  0
 15 52  1  0  0  0
 15 53  1  0  0  0
 16 17  2  0  0  0
 16 20  1  0  0  0
 17 18  1  0  0  0
 18 19  2  0  0  0
 19 20  1  0  0  0
 19 21  1  0  0  0
 21 22  2  0  0  0
 22 23  1  0  0  0
 22 54  1  0  0  0
 23 24  2  0  0  0
 23 55  1  0  0  0
 24 56  1  0  0  0
 25 26  1  0  0  0
 25 57  1  0  0  0
 25 58  1  0  0  0
 27 28  1  0  0  0
 28 29  1  0  0  0
 28 30  1  0  0  0
 30 31  1  0  0  0
 31 32  2  0  0  0
 31 59  1  0  0  0
 32 33  1  0  0  0
 32 60  1  0  0  0
 33 34  2  0  0  0
 33 61  1  0  0  0
 34 62  1  0  0  0
 35 36  2  0  0  0
 35 37  1  0  0  0
M  CHG  1  37  -1
M  END
> <s_m_source_file>
../3bc5_ligand.sdf

> <i_m_source_file_index>
1

> <s_epik_input>
W2NIXTFbY0hdW2NIXVtjSF1bY0hdYzEtYyhvMiluYyhjMltDSDNdKVtDSDJdW0NIMl1PYzNbY0hdW2NIXVtjSF1jKFtjSF0zKVtDSDJdYzRjKFtDSDJdQyg9TylbT0hdKW5uKG40KS1jNVtjSF1bY0hdW2NIXVtjSF1bY0hdNQ==

> <s_epik_cmdline>
J2VwaWtfYXBwJywgJy1pbWFlJywgJ2xpZ2FuZF9wcm8ubWFlJywgJy1vbWFlJywgJ2xpZ2FuZF9wcmVwLm1hZScsICctbXMnLCAnMScsICctcGgnLCAnNycsICctcGh0JywgJzAuNScsICctbnQn

> <r_lp_tautomer_probability>
1

> <r_epik_Ionization_Penalty>
  0.0001

> <r_epik_Ionization_Penalty_Charging>
  0.0001

> <r_epik_Ionization_Penalty_Neutral>
  0.0000

> <r_epik_State_Penalty>
 -0.0000

> <r_epik_Charging_Adjusted_Penalty>
0.000134471000814261

> <i_epik_Tot_Q>
-1

> <i_epik_Tot_abs_Q>
1

$$$$
