3bcn_ligand
                    3D
 Schrodinger Suite 2020-3.
 54 53  0  0  1  0            999 V2000
    1.1740   -8.6320   22.3530 C   0  0  0  0  0  0
    1.7820   -8.5140   21.2080 O   0  5  0  0  0  0
    1.2860   -9.6220   23.0690 O   0  0  0  0  0  0
    0.3120   -7.4730   22.7650 C   0  0  0  0  0  0
   -1.0960   -7.8990   23.1800 C   0  0  2  0  0  0
   -1.8670   -8.8310   22.4130 O   0  0  0  0  0  0
   -1.8320   -6.7020   23.7500 C   0  0  0  0  0  0
   -2.0740   -6.6030   24.9620 O   0  0  0  0  0  0
   -2.1640   -5.7930   22.8350 N   0  0  0  0  0  0
   -2.9030   -4.5760   23.1380 C   0  0  1  0  0  0
   -2.2520   -3.3850   22.4290 C   0  0  0  0  0  0
   -1.6420   -2.2600   23.2690 C   0  0  0  0  0  0
   -2.4820   -1.0090   23.0950 C   0  0  0  0  0  0
   -1.5660   -2.6640   24.7320 C   0  0  0  0  0  0
   -4.3540   -4.7190   22.6770 C   0  0  0  0  0  0
   -4.9590   -3.7650   22.1760 O   0  0  0  0  0  0
   -4.9040   -5.9160   22.8550 N   0  0  0  0  0  0
   -6.3190   -6.1970   22.6590 C   0  0  0  0  0  0
   -6.8290   -7.2840   23.5830 C   0  0  0  0  0  0
   -7.4250   -8.4460   22.7900 C   0  0  0  0  0  0
   -8.1720   -7.9670   21.5430 C   0  0  0  0  0  0
   -8.1010   -8.9270   20.4390 N   0  0  0  0  0  0
   -9.1230   -9.6890   20.0460 C   0  0  0  0  0  0
   -9.9940   -9.9390   21.0230 N   0  3  0  0  0  0
   -9.3350  -10.1980   18.8270 N   0  0  0  0  0  0
    0.7733   -6.9592   23.6213 H   0  0  0  0  0  0
    0.2159   -6.7704   21.9241 H   0  0  0  0  0  0
   -0.9787   -8.7178   23.9052 H   0  0  0  0  0  0
   -1.3832   -9.7171   21.9764 H   0  0  0  0  0  0
   -1.8481   -6.0019   21.8023 H   0  0  0  0  0  0
   -2.8578   -4.4507   24.2299 H   0  0  0  0  0  0
   -1.4211   -3.7409   21.8022 H   0  0  0  0  0  0
   -2.9985   -2.8817   21.7970 H   0  0  0  0  0  0
   -0.6152   -2.0523   22.9335 H   0  0  0  0  0  0
   -2.5208   -0.7387   22.0294 H   0  0  0  0  0  0
   -2.0329   -0.1834   23.6666 H   0  0  0  0  0  0
   -3.5014   -1.1977   23.4628 H   0  0  0  0  0  0
   -0.9526   -3.5718   24.8303 H   0  0  0  0  0  0
   -2.5794   -2.8635   25.1104 H   0  0  0  0  0  0
   -1.1110   -1.8491   25.3142 H   0  0  0  0  0  0
   -4.2220   -6.7199   23.1690 H   0  0  0  0  0  0
   -6.9041   -5.2860   22.8532 H   0  0  0  0  0  0
   -6.4873   -6.5270   21.6232 H   0  0  0  0  0  0
   -5.9978   -7.6653   24.1944 H   0  0  0  0  0  0
   -7.6082   -6.8707   24.2404 H   0  0  0  0  0  0
   -6.6190   -9.1221   22.4686 H   0  0  0  0  0  0
   -8.1347   -8.9971   23.4245 H   0  0  0  0  0  0
   -9.2332   -7.8127   21.7880 H   0  0  0  0  0  0
   -7.7346   -7.0197   21.1948 H   0  0  0  0  0  0
   -7.1628   -9.0523   19.8786 H   0  0  0  0  0  0
   -9.8271   -9.5243   22.0281 H   0  0  0  0  0  0
   -8.6209   -9.9964   18.0150 H   0  0  0  0  0  0
  -10.2234  -10.8181   18.6368 H   0  0  0  0  0  0
  -10.8799  -10.5601   20.8244 H   0  0  0  0  0  0
  1  2  1  0  0  0
  1  3  2  0  0  0
  1  4  1  0  0  0
  4  5  1  0  0  0
  4 26  1  0  0  0
  4 27  1  0  0  0
  5  6  1  0  0  0
  5  7  1  0  0  0
  5 28  1  0  0  0
  6 29  1  0  0  0
  7  8  2  0  0  0
  7  9  1  0  0  0
  9 10  1  0  0  0
  9 30  1  0  0  0
 10 11  1  0  0  0
 10 15  1  0  0  0
 10 31  1  0  0  0
 11 12  1  0  0  0
 11 32  1  0  0  0
 11 33  1  0  0  0
 12 13  1  0  0  0
 12 14  1  0  0  0
 12 34  1  0  0  0
 13 35  1  0  0  0
 13 36  1  0  0  0
 13 37  1  0  0  0
 14 38  1  0  0  0
 14 39  1  0  0  0
 14 40  1  0  0  0
 15 16  2  0  0  0
 15 17  1  0  0  0
 17 18  1  0  0  0
 17 41  1  0  0  0
 18 19  1  0  0  0
 18 42  1  0  0  0
 18 43  1  0  0  0
 19 20  1  0  0  0
 19 44  1  0  0  0
 19 45  1  0  0  0
 20 21  1  0  0  0
 20 46  1  0  0  0
 20 47  1  0  0  0
 21 22  1  0  0  0
 21 48  1  0  0  0
 21 49  1  0  0  0
 22 23  1  0  0  0
 22 50  1  0  0  0
 23 24  2  0  0  0
 23 25  1  0  0  0
 24 51  1  0  0  0
 24 54  1  0  0  0
 25 52  1  0  0  0
 25 53  1  0  0  0
M  CHG  2   2  -1  24   1
M  END
> <s_m_source_file>
../3bcn_ligand.sdf

> <i_m_source_file_index>
1

> <s_epik_input>
W09IXUMoPU8pW0NIMl1bQ0BIXShbT0hdKUMoPU8pW05IXVtDQEBIXShbQ0gyXVtDSF0oW0NIM10pW0NIM10pQyg9TylbTkhdW0NIMl1bQ0gyXVtDSDJdW0NIMl1bTkhdL0MoPU5cW0hdKVtOSDJd

> <s_epik_cmdline>
J2VwaWtfYXBwJywgJy1pbWFlJywgJ2xpZ2FuZF9wcm8ubWFlJywgJy1vbWFlJywgJ2xpZ2FuZF9wcmVwLm1hZScsICctbXMnLCAnMScsICctcGgnLCAnNycsICctcGh0JywgJzAuNScsICctbnQn

> <r_lp_tautomer_probability>
1

> <r_epik_Ionization_Penalty>
  0.0056

> <r_epik_Ionization_Penalty_Charging>
  0.0056

> <r_epik_Ionization_Penalty_Neutral>
  0.0000

> <r_epik_State_Penalty>
 -0.0000

> <r_epik_Charging_Adjusted_Penalty>
0.00564749306387142

> <i_epik_Tot_Q>
0

> <i_epik_Tot_abs_Q>
2

> <s_epik_Chemistry_Notes>
This compound has an imine and may undergo hydrolysis.

$$$$
