3bcs_ligand
                    3D
 Schrodinger Suite 2020-3.
 33 34  0  0  1  0            999 V2000
   34.2110   23.6060   28.7830 N   0  0  0  0  0  0
   32.3890   24.2570   29.9950 O   0  0  0  0  0  0
   33.6170   24.2610   29.8630 C   0  0  0  0  0  0
   34.4340   24.9320   30.7800 N   0  0  0  0  0  0
   35.8250   24.9440   30.6240 C   0  0  0  0  0  0
   36.5020   25.5480   31.4480 O   0  0  0  0  0  0
   36.4300   24.2780   29.5560 C   0  0  0  0  0  0
   35.6150   23.6100   28.6380 C   0  0  0  0  0  0
   33.3260   22.9020   27.8180 C   0  0  2  0  0  0
   33.3120   21.4810   28.1060 O   0  0  0  0  0  0
   32.2360   20.8510   27.3610 C   0  0  2  0  0  0
   32.1660   19.3840   27.8020 C   0  0  0  0  0  0
   33.2990   18.6750   27.3010 O   0  0  0  0  0  0
   32.4090   21.0040   25.8270 C   0  0  1  0  0  0
   31.2510   20.4900   25.1550 O   0  0  0  0  0  0
   32.6490   22.4660   25.4170 C   0  0  2  0  0  0
   33.0940   22.5160   24.0620 O   0  0  0  0  0  0
   33.6990   23.1260   26.3350 C   0  0  1  0  0  0
   33.8330   24.5270   26.0520 O   0  0  0  0  0  0
   33.9844   25.4579   31.6352 H   0  0  0  0  0  0
   37.5139   24.2791   29.4409 H   0  0  0  0  0  0
   36.0700   23.0847   27.7983 H   0  0  0  0  0  0
   32.3182   23.3014   28.0043 H   0  0  0  0  0  0
   31.3141   21.3858   27.6331 H   0  0  0  0  0  0
   32.1602   19.3313   28.9007 H   0  0  0  0  0  0
   31.2466   18.9262   27.4081 H   0  0  0  0  0  0
   33.4178   17.6034   27.5191 H   0  0  0  0  0  0
   33.2520   20.3897   25.4777 H   0  0  0  0  0  0
   30.9285   19.4530   25.3301 H   0  0  0  0  0  0
   31.7056   23.0313   25.4373 H   0  0  0  0  0  0
   32.4702   22.0904   23.2622 H   0  0  0  0  0  0
   34.6995   22.7247   26.1161 H   0  0  0  0  0  0
   34.5455   25.1382   26.6253 H   0  0  0  0  0  0
  1  3  1  0  0  0
  1  8  1  0  0  0
  1  9  1  0  0  0
  2  3  2  0  0  0
  3  4  1  0  0  0
  4  5  1  0  0  0
  4 20  1  0  0  0
  5  6  2  0  0  0
  5  7  1  0  0  0
  7  8  2  0  0  0
  7 21  1  0  0  0
  8 22  1  0  0  0
  9 10  1  0  0  0
  9 18  1  0  0  0
  9 23  1  0  0  0
 10 11  1  0  0  0
 11 12  1  0  0  0
 11 14  1  0  0  0
 11 24  1  0  0  0
 12 13  1  0  0  0
 12 25  1  0  0  0
 12 26  1  0  0  0
 13 27  1  0  0  0
 14 15  1  0  0  0
 14 16  1  0  0  0
 14 28  1  0  0  0
 15 29  1  0  0  0
 16 17  1  0  0  0
 16 18  1  0  0  0
 16 30  1  0  0  0
 17 31  1  0  0  0
 18 19  1  0  0  0
 18 32  1  0  0  0
 19 33  1  0  0  0
M  END
> <s_m_source_file>
../3bcs_ligand.sdf

> <i_m_source_file_index>
1

> <s_epik_input>
W2NIXTFbY0hdYyg9TylbbkhdYyg9TyluMVtDQEBIXTJPW0NASF0oW0NIMl1bT0hdKVtDQEBIXShbT0hdKVtDQEhdKFtPSF0pW0NASF0yW09IXQ==

> <s_epik_cmdline>
J2VwaWtfYXBwJywgJy1pbWFlJywgJ2xpZ2FuZF9wcm8ubWFlJywgJy1vbWFlJywgJ2xpZ2FuZF9wcmVwLm1hZScsICctbXMnLCAnMScsICctcGgnLCAnNycsICctcGh0JywgJzAuNScsICctbnQn

> <r_lp_tautomer_probability>
1

> <r_epik_Ionization_Penalty>
  0.0043

> <r_epik_Ionization_Penalty_Charging>
  0.0043

> <r_epik_Ionization_Penalty_Neutral>
  0.0000

> <r_epik_State_Penalty>
 -0.0000

> <r_epik_Charging_Adjusted_Penalty>
0.00429016282176997

> <i_epik_Tot_Q>
0

> <i_epik_Tot_abs_Q>
0

> <s_epik_Chemistry_Notes>
This compound contains an acetal/aminal-like group ( X-CH(R)-Y where X, Y are N, S, or O) that may be acid/base labile, releasing an aldehyde.

$$$$
