3bea_ligand
                    3D
 Schrodinger Suite 2020-3.
 70 75  0  0  1  0            999 V2000
   -0.5690   33.6610    5.6790 C   0  0  0  0  0  0
    0.3430   33.7460    6.8970 C   0  0  1  0  0  0
    1.4550   32.6540    6.8310 C   0  0  0  0  0  0
    2.9600   34.1300    8.1160 C   0  0  0  0  0  0
    1.8420   35.2100    8.1720 C   0  0  1  0  0  0
    2.4490   36.6100    8.2460 C   0  0  0  0  0  0
    3.2600   31.7420    8.2360 C   0  0  0  0  0  0
    3.7950   30.9080    7.1950 C   0  0  0  0  0  0
    4.7320   29.8660    7.4770 C   0  0  0  0  0  0
    5.1830   29.6120    8.8070 C   0  0  0  0  0  0
    4.6570   30.4290    9.8370 C   0  0  0  0  0  0
    3.7230   31.4650    9.5610 C   0  0  0  0  0  0
    6.6290   27.4980    8.5580 C   0  0  0  0  0  0
    7.8760   25.5360    8.5080 C   0  0  0  0  0  0
    7.5860   25.3150    7.1600 C   0  0  0  0  0  0
    8.0990   24.1450    6.4060 C   0  0  0  0  0  0
    7.7150   24.0200    4.9530 C   0  0  0  0  0  0
    6.9250   25.0020    4.4450 C   0  0  0  0  0  0
    5.6200   27.0930    4.4410 C   0  0  0  0  0  0
    4.2130   27.2460    4.6980 C   0  0  0  0  0  0
    3.4350   28.2240    3.9970 C   0  0  0  0  0  0
    4.0690   29.0400    3.0390 C   0  0  0  0  0  0
    3.4660   30.1210    2.1920 C   0  0  0  0  0  0
    4.5360   30.2890    1.0980 C   0  0  0  0  0  0
    5.8870   29.8780    1.7150 C   0  0  0  0  0  0
    5.4500   28.9040    2.7670 C   0  0  0  0  0  0
    6.2340   27.9480    3.4500 C   0  0  0  0  0  0
    6.7710   26.2820    6.5430 C   0  0  0  0  0  0
    8.1400   22.9190    4.0410 C   0  0  0  0  0  0
    2.3280   32.7860    8.0300 N   0  0  0  0  0  0
    7.4100   26.6090    9.2130 N   0  0  0  0  0  0
    6.4280   26.1280    5.1340 N   0  0  0  0  0  0
    6.3090   27.3510    7.2530 N   0  0  0  0  0  0
    6.0860   28.6030    9.1810 N   0  0  0  0  0  0
    0.9400   35.1250    6.9740 N   0  3  0  0  0  0
    8.9490   21.9600    4.5810 N   0  0  0  0  0  0
    8.8120   23.3170    6.9720 O   0  0  0  0  0  0
    7.8000   22.8600    2.8600 O   0  0  0  0  0  0
   -1.0077   32.6540    5.6190 H   0  0  0  0  0  0
    0.0153   33.8613    4.7688 H   0  0  0  0  0  0
   -1.3729   34.4063    5.7701 H   0  0  0  0  0  0
   -0.2573   33.5939    7.8061 H   0  0  0  0  0  0
    0.9897   31.6573    6.8163 H   0  0  0  0  0  0
    2.0521   32.7934    5.9177 H   0  0  0  0  0  0
    3.5913   34.3013    7.2316 H   0  0  0  0  0  0
    3.5768   34.1933    9.0246 H   0  0  0  0  0  0
    1.2210   35.0327    9.0624 H   0  0  0  0  0  0
    3.1106   36.6769    9.1222 H   0  0  0  0  0  0
    1.6441   37.3543    8.3366 H   0  0  0  0  0  0
    3.0293   36.8068    7.3325 H   0  0  0  0  0  0
    3.4785   31.0741    6.1653 H   0  0  0  0  0  0
    5.1100   29.2526    6.6591 H   0  0  0  0  0  0
    4.9756   30.2598   10.8656 H   0  0  0  0  0  0
    3.3470   32.0687   10.3870 H   0  0  0  0  0  0
    8.5078   24.8138    9.0250 H   0  0  0  0  0  0
    6.6462   24.9100    3.3953 H   0  0  0  0  0  0
    3.7307   26.6075    5.4381 H   0  0  0  0  0  0
    2.3701   28.3349    4.2015 H   0  0  0  0  0  0
    2.4950   29.7822    1.8017 H   0  0  0  0  0  0
    3.3210   31.0258    2.8006 H   0  0  0  0  0  0
    4.2894   29.6439    0.2418 H   0  0  0  0  0  0
    4.5636   31.3387    0.7702 H   0  0  0  0  0  0
    6.5218   29.4251    0.9391 H   0  0  0  0  0  0
    6.3880   30.7669    2.1259 H   0  0  0  0  0  0
    7.2977   27.8553    3.2308 H   0  0  0  0  0  0
    6.5226   28.6022   10.1907 H   0  0  0  0  0  0
    1.5206   35.3246    6.0613 H   0  0  0  0  0  0
    0.1347   35.8686    7.0662 H   0  0  0  0  0  0
    9.2466   22.0229    5.6381 H   0  0  0  0  0  0
    9.3029   21.1248    3.9588 H   0  0  0  0  0  0
  1  2  1  0  0  0
  1 39  1  0  0  0
  1 40  1  0  0  0
  1 41  1  0  0  0
  2  3  1  0  0  0
  2 35  1  0  0  0
  2 42  1  0  0  0
  3 30  1  0  0  0
  3 43  1  0  0  0
  3 44  1  0  0  0
  4  5  1  0  0  0
  4 30  1  0  0  0
  4 45  1  0  0  0
  4 46  1  0  0  0
  5  6  1  0  0  0
  5 35  1  0  0  0
  5 47  1  0  0  0
  6 48  1  0  0  0
  6 49  1  0  0  0
  6 50  1  0  0  0
  7  8  2  0  0  0
  7 12  1  0  0  0
  7 30  1  0  0  0
  8  9  1  0  0  0
  8 51  1  0  0  0
  9 10  2  0  0  0
  9 52  1  0  0  0
 10 11  1  0  0  0
 10 34  1  0  0  0
 11 12  2  0  0  0
 11 53  1  0  0  0
 12 54  1  0  0  0
 13 31  1  0  0  0
 13 33  2  0  0  0
 13 34  1  0  0  0
 14 15  1  0  0  0
 14 31  2  0  0  0
 14 55  1  0  0  0
 15 16  1  0  0  0
 15 28  2  0  0  0
 16 17  1  0  0  0
 16 37  2  0  0  0
 17 18  2  0  0  0
 17 29  1  0  0  0
 18 32  1  0  0  0
 18 56  1  0  0  0
 19 20  2  0  0  0
 19 27  1  0  0  0
 19 32  1  0  0  0
 20 21  1  0  0  0
 20 57  1  0  0  0
 21 22  2  0  0  0
 21 58  1  0  0  0
 22 23  1  0  0  0
 22 26  1  0  0  0
 23 24  1  0  0  0
 23 59  1  0  0  0
 23 60  1  0  0  0
 24 25  1  0  0  0
 24 61  1  0  0  0
 24 62  1  0  0  0
 25 26  1  0  0  0
 25 63  1  0  0  0
 25 64  1  0  0  0
 26 27  2  0  0  0
 27 65  1  0  0  0
 28 32  1  0  0  0
 28 33  1  0  0  0
 29 36  1  0  0  0
 29 38  2  0  0  0
 34 66  1  0  0  0
 35 67  1  0  0  0
 35 68  1  0  0  0
 36 69  1  0  0  0
 36 70  1  0  0  0
M  CHG  1  35   1
M  END
> <s_m_source_file>
../3bea_ligand.sdf

> <i_m_source_file_index>
1

> <s_epik_input>
W0NIM11bQ0BIXTFbQ0gyXU4oW0NIMl1bQ0BASF0oW0NIM10pW05IMitdMSljMltjSF1bY0hdYyhbY0hdW2NIXTIpW05IXWMobltjSF0zKW5jKGMzNCluKFtjSF1jKGM0PU8pQyg9TylbTkgyXSktYyhbY0hdW2NIXTUpW2NIXWMoYzU2KVtDSDJdW0NIMl1bQ0gyXTY=

> <s_epik_cmdline>
J2VwaWtfYXBwJywgJy1pbWFlJywgJ2xpZ2FuZF9wcm8ubWFlJywgJy1vbWFlJywgJ2xpZ2FuZF9wcmVwLm1hZScsICctbXMnLCAnMScsICctcGgnLCAnNycsICctcGh0JywgJzAuNScsICctbnQn

> <r_lp_tautomer_probability>
1

> <r_epik_Ionization_Penalty>
  0.0100

> <r_epik_Ionization_Penalty_Charging>
  0.0086

> <r_epik_Ionization_Penalty_Neutral>
  0.0014

> <r_epik_State_Penalty>
 -0.0000

> <r_epik_Charging_Adjusted_Penalty>
0.0085716402649871

> <i_epik_Tot_Q>
1

> <i_epik_Tot_abs_Q>
1

> <s_epik_Chemistry_Notes>
This compound has an imine and may undergo hydrolysis.

$$$$
