3bel_ligand
                    3D
 Schrodinger Suite 2020-3.
 54 57  0  0  1  0            999 V2000
   16.2990   37.4260   96.8340 C   0  0  0  0  0  0
   14.9610   37.3430   96.2990 C   0  0  0  0  0  0
   14.1390   38.4860   96.2120 C   0  0  0  0  0  0
   13.6390   32.6540   86.7070 N   0  0  0  0  0  0
   17.1620   36.1640   96.9160 C   0  0  0  0  0  0
   15.4530   33.3690   95.6360 C   0  0  0  0  0  0
   16.4760   34.1520   92.0150 C   0  0  0  0  0  0
   17.2310   35.3030   92.3670 C   0  0  0  0  0  0
   17.3560   35.7340   93.7050 C   0  0  0  0  0  0
   16.6890   34.9690   94.7050 C   0  0  0  0  0  0
   15.9390   33.8240   94.3990 C   0  0  0  0  0  0
   15.8280   33.4070   93.0430 C   0  0  0  0  0  0
   12.8970   34.1310   89.8140 C   0  0  0  0  0  0
   15.1670   33.6350   89.9000 C   0  0  0  0  0  0
   16.3330   32.5230   87.9850 C   0  0  0  0  0  0
   18.3720   31.9620   85.1860 C   0  0  0  0  0  0
   19.9100   31.8560   85.2010 C   0  0  0  0  0  0
   21.8320   31.8250   83.8940 C   0  0  0  0  0  0
   14.6110   39.7530   96.6510 C   0  0  0  0  0  0
   15.9310   39.8620   97.1820 C   0  0  0  0  0  0
   16.7710   38.7010   97.2720 C   0  0  0  0  0  0
   12.9030   38.3620   95.7080 F   0  0  0  0  0  0
   16.5820   35.1030   96.0790 N   0  0  0  0  0  0
   15.8300   34.1290   96.6580 N   0  0  0  0  0  0
   16.3180   33.7180   90.6900 N   0  0  0  0  0  0
   12.7520   33.6300   88.5560 N   0  0  0  0  0  0
   14.0450   34.1580   90.5010 N   0  0  0  0  0  0
   15.1190   33.0870   88.6170 C   0  0  0  0  0  0
   13.8530   33.1220   87.9740 C   0  0  0  0  0  0
   16.6570   32.6170   86.7330 N   0  0  0  0  0  0
   17.8930   31.9180   86.5560 O   0  0  0  0  0  0
   20.4030   31.9070   83.8520 O   0  0  0  0  0  0
   14.5794   36.3811   95.9565 H   0  0  0  0  0  0
   12.6342   32.7089   86.2628 H   0  0  0  0  0  0
   14.4717   32.2227   86.1320 H   0  0  0  0  0  0
   18.1779   36.3908   96.5604 H   0  0  0  0  0  0
   17.2074   35.8179   97.9592 H   0  0  0  0  0  0
   14.8294   32.4818   95.7460 H   0  0  0  0  0  0
   17.7285   35.8700   91.5802 H   0  0  0  0  0  0
   17.9399   36.6174   93.9633 H   0  0  0  0  0  0
   15.2482   32.5191   92.7908 H   0  0  0  0  0  0
   12.0107   34.5411   90.2980 H   0  0  0  0  0  0
   16.9890   31.9834   88.6839 H   0  0  0  0  0  0
   18.0744   32.9104   84.7148 H   0  0  0  0  0  0
   17.9520   31.1211   84.6146 H   0  0  0  0  0  0
   20.3296   32.6931   85.7782 H   0  0  0  0  0  0
   20.2075   30.9045   85.6660 H   0  0  0  0  0  0
   22.2316   31.8623   82.8698 H   0  0  0  0  0  0
   22.1312   30.8796   84.3701 H   0  0  0  0  0  0
   22.2308   32.6701   84.4743 H   0  0  0  0  0  0
   13.9709   40.6326   96.5827 H   0  0  0  0  0  0
   16.3026   40.8293   97.5202 H   0  0  0  0  0  0
   17.7782   38.7935   97.6783 H   0  0  0  0  0  0
   17.1910   33.3735   90.1163 H   0  0  0  0  0  0
  1  2  2  0  0  0
  1  5  1  0  0  0
  1 21  1  0  0  0
  2  3  1  0  0  0
  2 33  1  0  0  0
  3 19  2  0  0  0
  3 22  1  0  0  0
  4 29  1  0  0  0
  4 34  1  0  0  0
  4 35  1  0  0  0
  5 23  1  0  0  0
  5 36  1  0  0  0
  5 37  1  0  0  0
  6 11  1  0  0  0
  6 24  2  0  0  0
  6 38  1  0  0  0
  7  8  1  0  0  0
  7 12  2  0  0  0
  7 25  1  0  0  0
  8  9  2  0  0  0
  8 39  1  0  0  0
  9 10  1  0  0  0
  9 40  1  0  0  0
 10 11  2  0  0  0
 10 23  1  0  0  0
 11 12  1  0  0  0
 12 41  1  0  0  0
 13 26  2  0  0  0
 13 27  1  0  0  0
 13 42  1  0  0  0
 14 25  1  0  0  0
 14 27  2  0  0  0
 14 28  1  0  0  0
 15 28  1  0  0  0
 15 30  2  0  0  0
 15 43  1  0  0  0
 16 17  1  0  0  0
 16 31  1  0  0  0
 16 44  1  0  0  0
 16 45  1  0  0  0
 17 32  1  0  0  0
 17 46  1  0  0  0
 17 47  1  0  0  0
 18 32  1  0  0  0
 18 48  1  0  0  0
 18 49  1  0  0  0
 18 50  1  0  0  0
 19 20  1  0  0  0
 19 51  1  0  0  0
 20 21  2  0  0  0
 20 52  1  0  0  0
 21 53  1  0  0  0
 23 24  1  0  0  0
 25 54  1  0  0  0
 26 29  1  0  0  0
 28 29  2  0  0  0
 30 31  1  0  0  0
M  END
> <s_m_source_file>
../3bel_ligand.sdf

> <i_m_source_file_index>
1

> <s_epik_input>
W2NIXTFbY0hdW2NIXWMoRilbY0hdYzFbQ0gyXW4ybltjSF1jKGMyMylbY0hdYyhbY0hdW2NIXTMpW05IXWM0bltjSF1uYyhbTkgyXSljNC9bQ0hdPU4vT1tDSDJdW0NIMl1PW0NIM10=

> <s_epik_cmdline>
J2VwaWtfYXBwJywgJy1pbWFlJywgJ2xpZ2FuZF9wcm8ubWFlJywgJy1vbWFlJywgJ2xpZ2FuZF9wcmVwLm1hZScsICctbXMnLCAnMScsICctcGgnLCAnNycsICctcGh0JywgJzAuNScsICctbnQn

> <r_lp_tautomer_probability>
1

> <r_epik_Ionization_Penalty>
  0.0012

> <r_epik_Ionization_Penalty_Charging>
  0.0000

> <r_epik_Ionization_Penalty_Neutral>
  0.0012

> <r_epik_State_Penalty>
 -0.0000

> <r_epik_Charging_Adjusted_Penalty>
0

> <i_epik_Tot_Q>
0

> <i_epik_Tot_abs_Q>
0

> <s_epik_Chemistry_Notes>
This compound has an imine and may undergo hydrolysis.

$$$$
