3bet_ligand
                    3D
 Schrodinger Suite 2020-3.
 56 59  0  0  1  0            999 V2000
   -4.4080    2.6770   14.5810 C   0  0  0  0  0  0
   -6.8790    1.2400   16.3670 O   0  0  0  0  0  0
   -4.5970    1.6080   17.2620 O   0  0  0  0  0  0
   -5.1710    3.8760   14.6790 C   0  0  0  0  0  0
   -4.5390    5.0890   14.3360 C   0  0  0  0  0  0
   -3.1680    5.1750   13.8930 C   0  0  0  0  0  0
   -5.4840    0.9790   16.3420 S   0  0  0  0  0  0
   -5.2610   -0.5800   16.3840 N   0  0  0  0  0  0
   -5.0280    1.4330   14.8830 O   0  0  0  0  0  0
   -2.4330    3.9510   13.8200 C   0  0  0  0  0  0
   -3.0490    2.7230   14.1560 C   0  0  0  0  0  0
   -6.4900    3.9680   15.0750 O   0  0  0  0  0  0
   -6.8080    4.3590   16.4060 C   0  0  0  0  0  0
   -2.5450    6.5110   13.4940 C   0  0  2  0  0  0
   -0.9610    6.4820   13.5260 C   0  0  1  0  0  0
   -0.4680    5.2600   12.7240 C   0  0  0  0  0  0
   -0.9740    3.9310   13.3540 C   0  0  0  0  0  0
   -3.1340    7.6950   14.3210 C   0  0  0  0  0  0
   -2.5530    9.0820   13.9080 C   0  0  0  0  0  0
   -1.0300    9.1110   13.8770 C   0  0  2  0  0  0
   -0.5160    7.8900   13.0240 C   0  0  1  0  0  0
   -0.5070    9.1600   15.3370 C   0  0  0  0  0  0
   -0.3620   10.1910   12.9460 C   0  0  2  0  0  0
    1.0720    9.7350   12.8200 C   0  0  0  0  0  0
    0.9990    8.2010   12.8830 C   0  0  0  0  0  0
   -0.3800   11.5900   13.5030 C   0  0  0  0  0  0
   -1.6340   12.3280   13.1810 C   0  0  0  0  0  0
   -2.6060   12.8820   12.9830 N   0  0  0  0  0  0
   -5.1165    6.0106   14.4093 H   0  0  0  0  0  0
   -5.5572   -0.9663   17.3704 H   0  0  0  0  0  0
   -4.1986   -0.8033   16.2066 H   0  0  0  0  0  0
   -2.4757    1.7984   14.0888 H   0  0  0  0  0  0
   -7.9006    4.3750   16.5323 H   0  0  0  0  0  0
   -6.4017    5.3626   16.6003 H   0  0  0  0  0  0
   -6.3675    3.6416   17.1140 H   0  0  0  0  0  0
   -2.8540    6.6613   12.4491 H   0  0  0  0  0  0
   -0.4871    6.3243   14.5061 H   0  0  0  0  0  0
   -0.8427    5.3235   11.6917 H   0  0  0  0  0  0
    0.6319    5.2470   12.7147 H   0  0  0  0  0  0
   -0.3182    3.7185   14.2112 H   0  0  0  0  0  0
   -0.8437    3.1502   12.5902 H   0  0  0  0  0  0
   -4.2239    7.7356   14.1781 H   0  0  0  0  0  0
   -2.9094    7.5450   15.3873 H   0  0  0  0  0  0
   -2.9103    9.3441   12.9012 H   0  0  0  0  0  0
   -2.8848    9.8469   14.6255 H   0  0  0  0  0  0
   -0.9721    7.7883   12.0282 H   0  0  0  0  0  0
   -1.0104    8.3845   15.9330 H   0  0  0  0  0  0
   -0.7181   10.1493   15.7691 H   0  0  0  0  0  0
    0.5783    8.9809   15.3439 H   0  0  0  0  0  0
   -0.8895   10.2876   11.9856 H   0  0  0  0  0  0
    1.4855   10.0858   11.8630 H   0  0  0  0  0  0
    1.6632   10.1507   13.6493 H   0  0  0  0  0  0
    1.5382    7.7998   13.7538 H   0  0  0  0  0  0
    1.3854    7.7336   11.9653 H   0  0  0  0  0  0
   -0.2876   11.5497   14.5984 H   0  0  0  0  0  0
    0.4614   12.1620   13.0848 H   0  0  0  0  0  0
  1  4  2  0  0  0
  1  9  1  0  0  0
  1 11  1  0  0  0
  2  7  2  0  0  0
  3  7  2  0  0  0
  4  5  1  0  0  0
  4 12  1  0  0  0
  5  6  2  0  0  0
  5 29  1  0  0  0
  6 10  1  0  0  0
  6 14  1  0  0  0
  7  8  1  0  0  0
  7  9  1  0  0  0
  8 30  1  0  0  0
  8 31  1  0  0  0
 10 11  2  0  0  0
 10 17  1  0  0  0
 11 32  1  0  0  0
 12 13  1  0  0  0
 13 33  1  0  0  0
 13 34  1  0  0  0
 13 35  1  0  0  0
 14 15  1  0  0  0
 14 18  1  0  0  0
 14 36  1  0  0  0
 15 16  1  0  0  0
 15 21  1  0  0  0
 15 37  1  0  0  0
 16 17  1  0  0  0
 16 38  1  0  0  0
 16 39  1  0  0  0
 17 40  1  0  0  0
 17 41  1  0  0  0
 18 19  1  0  0  0
 18 42  1  0  0  0
 18 43  1  0  0  0
 19 20  1  0  0  0
 19 44  1  0  0  0
 19 45  1  0  0  0
 20 21  1  0  0  0
 20 22  1  0  0  0
 20 23  1  0  0  0
 21 25  1  0  0  0
 21 46  1  0  0  0
 22 47  1  0  0  0
 22 48  1  0  0  0
 22 49  1  0  0  0
 23 24  1  0  0  0
 23 26  1  0  0  0
 23 50  1  0  0  0
 24 25  1  0  0  0
 24 51  1  0  0  0
 24 52  1  0  0  0
 25 53  1  0  0  0
 25 54  1  0  0  0
 26 27  1  0  0  0
 26 55  1  0  0  0
 26 56  1  0  0  0
 27 28  3  0  0  0
M  END
> <s_m_source_file>
../3bet_ligand.sdf

> <i_m_source_file_index>
1

> <s_epik_input>
Tz1TKD1PKShbTkgyXSlPYyhjKFtjSF0xKU9bQ0gzXSlbY0hdYyhbQ0gyXVtDSDJdMiljMVtDQEBIXShbQ0gyXVtDSDJdMylbQ0BASF0yW0NAQEhdKFtDQF0zNFtDSDNdKVtDSDJdW0NIMl1bQ0BASF00W0NIMl1DI04=

> <s_epik_cmdline>
J2VwaWtfYXBwJywgJy1pbWFlJywgJ2xpZ2FuZF9wcm8ubWFlJywgJy1vbWFlJywgJ2xpZ2FuZF9wcmVwLm1hZScsICctbXMnLCAnMScsICctcGgnLCAnNycsICctcGh0JywgJzAuNScsICctbnQn

> <r_epik_Ionization_Penalty>
  0.0188

> <r_epik_Ionization_Penalty_Charging>
  0.0000

> <r_epik_Ionization_Penalty_Neutral>
  0.0188

> <r_epik_State_Penalty>
  0.0150

> <r_epik_Charging_Adjusted_Penalty>
0.0149733226904327

> <i_epik_Tot_Q>
0

> <i_epik_Tot_abs_Q>
0

$$$$
