3bex_ligand
                    3D
 Schrodinger Suite 2020-3.
 31 30  0  0  1  0            999 V2000
    3.7490   13.6700   18.2660 O   0  0  0  0  0  0
    4.5470   12.5230   16.2990 C   0  0  0  0  0  0
    4.3430   13.8310   17.0230 C   0  0  0  0  0  0
    5.3890   11.6250   17.1540 C   0  0  0  0  0  0
    5.2270   12.7970   14.9760 C   0  0  0  0  0  0
    3.1870   11.9050   16.0200 C   0  0  1  0  0  0
    2.4120   12.7940   15.2560 O   0  0  0  0  0  0
    3.1500   10.5570   15.3360 C   0  0  0  0  0  0
    3.3850    9.5210   16.0300 O   0  0  0  0  0  0
    2.8950   10.4820   14.1180 N   0  0  0  0  0  0
    2.7530    9.2730   13.3530 C   0  0  0  0  0  0
    3.4880    9.4070   12.0210 C   0  0  0  0  0  0
    3.0250   10.5080   11.1050 C   0  0  0  0  0  0
    2.3810   11.4360   11.5100 O   0  0  0  0  0  0
    3.3820   10.4150    9.9400 O   0  5  0  0  0  0
    3.5451   14.5483   18.8961 H   0  0  0  0  0  0
    3.7062   14.4686   16.3921 H   0  0  0  0  0  0
    5.3283   14.3043   17.1460 H   0  0  0  0  0  0
    6.3638   12.1008   17.3365 H   0  0  0  0  0  0
    5.5403   10.6648   16.6392 H   0  0  0  0  0  0
    4.8808   11.4504   18.1138 H   0  0  0  0  0  0
    6.2149   13.2454   15.1575 H   0  0  0  0  0  0
    4.6121   13.4914   14.3846 H   0  0  0  0  0  0
    5.3484   11.8534   14.4238 H   0  0  0  0  0  0
    2.7236   11.7705   17.0085 H   0  0  0  0  0  0
    2.3011   13.8409   15.5750 H   0  0  0  0  0  0
    2.7767   11.4598   13.6283 H   0  0  0  0  0  0
    3.1783    8.4300   13.9173 H   0  0  0  0  0  0
    1.6866    9.0843   13.1600 H   0  0  0  0  0  0
    4.5543    9.6013   12.2086 H   0  0  0  0  0  0
    3.3806    8.4745   11.4475 H   0  0  0  0  0  0
  1  3  1  0  0  0
  1 16  1  0  0  0
  2  3  1  0  0  0
  2  4  1  0  0  0
  2  5  1  0  0  0
  2  6  1  0  0  0
  3 17  1  0  0  0
  3 18  1  0  0  0
  4 19  1  0  0  0
  4 20  1  0  0  0
  4 21  1  0  0  0
  5 22  1  0  0  0
  5 23  1  0  0  0
  5 24  1  0  0  0
  6  7  1  0  0  0
  6  8  1  0  0  0
  6 25  1  0  0  0
  7 26  1  0  0  0
  8  9  2  0  0  0
  8 10  1  0  0  0
 10 11  1  0  0  0
 10 27  1  0  0  0
 11 12  1  0  0  0
 11 28  1  0  0  0
 11 29  1  0  0  0
 12 13  1  0  0  0
 12 30  1  0  0  0
 12 31  1  0  0  0
 13 14  2  0  0  0
 13 15  1  0  0  0
M  CHG  1  15  -1
M  END
> <s_m_source_file>
../3bex_ligand.sdf

> <i_m_source_file_index>
1

> <s_epik_input>
W09IXVtDSDJdQyhbQ0gzXSkoW0NIM10pW0NAQEhdKFtPSF0pQyg9TylbTkhdW0NIMl1bQ0gyXUMoPU8pW09IXQ==

> <s_epik_cmdline>
J2VwaWtfYXBwJywgJy1pbWFlJywgJ2xpZ2FuZF9wcm8ubWFlJywgJy1vbWFlJywgJ2xpZ2FuZF9wcmVwLm1hZScsICctbXMnLCAnMScsICctcGgnLCAnNycsICctcGh0JywgJzAuNScsICctbnQn

> <r_lp_tautomer_probability>
1

> <r_epik_Ionization_Penalty>
  0.0020

> <r_epik_Ionization_Penalty_Charging>
  0.0020

> <r_epik_Ionization_Penalty_Neutral>
  0.0000

> <r_epik_State_Penalty>
 -0.0000

> <r_epik_Charging_Adjusted_Penalty>
0.00195938622328302

> <i_epik_Tot_Q>
-1

> <i_epik_Tot_abs_Q>
1

$$$$
