3bf1_ligand
                    3D
 Schrodinger Suite 2020-3.
 39 41  0  0  1  0            999 V2000
    4.0940   15.7490   24.2380 P   0  0  0  0  0  0
    4.2600   15.2290   22.8310 O   0  0  0  0  0  0
    2.8110   16.5190   24.4500 O   0  5  0  0  0  0
    4.4090   14.7240   25.3090 O   0  5  0  0  0  0
    5.6210   17.6790   25.7150 P   0  0  2  0  0  0
    4.4830   17.5230   26.6930 O   0  0  0  0  0  0
    6.0960   19.0640   25.3410 O   0  5  0  0  0  0
    5.2430   16.8900   24.3510 O   0  0  0  0  0  0
    6.8820   16.8350   26.2610 O   0  0  0  0  0  0
    8.2060   17.3630   26.2400 C   0  0  0  0  0  0
    8.4760   18.0270   27.5840 C   0  0  1  0  0  0
    8.8030   17.0340   28.5570 O   0  0  0  0  0  0
    9.6460   18.9900   27.5270 C   0  0  1  0  0  0
    9.2220   20.2150   28.1400 O   0  0  0  0  0  0
   10.7670   18.3080   28.3050 C   0  0  1  0  0  0
   11.5430   19.2400   29.0740 O   0  0  0  0  0  0
   10.0590   17.2880   29.1880 C   0  0  2  0  0  0
   10.7970   16.0040   29.2820 N   0  0  0  0  0  0
   10.6940   14.9900   28.3980 C   0  0  0  0  0  0
   11.4820   13.9430   28.7460 N   0  0  0  0  0  0
   12.1060   14.2780   29.8880 C   0  0  0  0  0  0
   13.0870   13.6220   30.7890 C   0  0  0  0  0  0
   13.5560   12.3750   30.5200 N   0  0  0  0  0  0
   13.4970   14.3180   31.8740 N   0  0  0  0  0  0
   13.0430   15.5600   32.1390 C   0  0  0  0  0  0
   12.1540   16.2160   31.3650 N   0  0  0  0  0  0
   11.6540   15.6390   30.2410 C   0  0  0  0  0  0
    8.9236   16.5466   26.0711 H   0  0  0  0  0  0
    8.2934   18.1016   25.4295 H   0  0  0  0  0  0
    7.5598   18.5452   27.9036 H   0  0  0  0  0  0
    9.9753   19.2824   26.5190 H   0  0  0  0  0  0
    8.4183   20.8100   27.6817 H   0  0  0  0  0  0
   11.5434   17.8700   27.6606 H   0  0  0  0  0  0
   12.1094   20.0347   28.5664 H   0  0  0  0  0  0
    9.9218   17.6620   30.2133 H   0  0  0  0  0  0
   10.0566   15.0100   27.5140 H   0  0  0  0  0  0
   13.2028   11.8348   29.6292 H   0  0  0  0  0  0
   14.2888   11.9059   31.1931 H   0  0  0  0  0  0
   13.4163   16.0632   33.0309 H   0  0  0  0  0  0
  1  2  2  0  0  0
  1  3  1  0  0  0
  1  4  1  0  0  0
  1  8  1  0  0  0
  5  6  2  0  0  0
  5  7  1  0  0  0
  5  8  1  0  0  0
  5  9  1  0  0  0
  9 10  1  0  0  0
 10 11  1  0  0  0
 10 28  1  0  0  0
 10 29  1  0  0  0
 11 12  1  0  0  0
 11 13  1  0  0  0
 11 30  1  0  0  0
 12 17  1  0  0  0
 13 14  1  0  0  0
 13 15  1  0  0  0
 13 31  1  0  0  0
 14 32  1  0  0  0
 15 16  1  0  0  0
 15 17  1  0  0  0
 15 33  1  0  0  0
 16 34  1  0  0  0
 17 18  1  0  0  0
 17 35  1  0  0  0
 18 19  1  0  0  0
 18 27  1  0  0  0
 19 20  2  0  0  0
 19 36  1  0  0  0
 20 21  1  0  0  0
 21 22  2  0  0  0
 21 27  1  0  0  0
 22 23  1  0  0  0
 22 24  1  0  0  0
 23 37  1  0  0  0
 23 38  1  0  0  0
 24 25  2  0  0  0
 25 26  1  0  0  0
 25 39  1  0  0  0
 26 27  2  0  0  0
M  CHG  3   3  -1   4  -1   7  -1
M  END
> <s_m_source_file>
../3bf1_ligand.sdf

> <i_m_source_file_index>
1

> <s_epik_input>
Tz1QKFtPSF0pKFtPSF0pT1tQQF0oPU8pKFtPSF0pT1tDSDJdW0NASF0xT1tDQEhdKFtDQEhdKFtPSF0pW0NAQEhdMVtPSF0pbihbY0hdbjIpYyhjMjMpbltjSF1uYzNbTkgyXQ==

> <s_epik_cmdline>
J2VwaWtfYXBwJywgJy1pbWFlJywgJ2xpZ2FuZF9wcm8ubWFlJywgJy1vbWFlJywgJ2xpZ2FuZF9wcmVwLm1hZScsICctbXMnLCAnMScsICctcGgnLCAnNycsICctcGh0JywgJzAuNScsICctbnQn

> <r_lp_tautomer_probability>
0.999997216410988

> <r_epik_Ionization_Penalty>
  0.1037

> <r_epik_Ionization_Penalty_Charging>
  0.1033

> <r_epik_Ionization_Penalty_Neutral>
  0.0004

> <r_epik_State_Penalty>
  0.0922

> <r_epik_Charging_Adjusted_Penalty>
0.19546844050481

> <i_epik_Tot_Q>
-3

> <i_epik_Tot_abs_Q>
3

> <s_epik_Chemistry_Notes>
This compound contains an acetal/aminal-like group ( X-CH(R)-Y where X, Y are N, S, or O) that may be acid/base labile, releasing an aldehyde.

$$$$
