3bft_ligand
                    3D
 Schrodinger Suite 2020-3.
 20 20  0  0  1  0            999 V2000
  -11.6930   27.1040   40.2530 C   0  0  0  0  0  0
  -11.5500   25.9660   41.2070 C   0  0  0  0  0  0
  -11.2920   24.8240   40.5660 N   0  0  0  0  0  0
  -11.6940   26.1750   42.7000 C   0  0  0  0  0  0
  -10.3180   26.4110   43.3730 C   0  0  1  0  0  0
  -11.9510   28.2885   40.8000 O   0  0  0  0  0  0
  -11.2456   27.4687   45.3608 O   0  0  0  0  0  0
  -10.4690   26.6390   44.9170 C   0  0  0  0  0  0
   -9.6600   25.8090   45.5694 O   0  0  0  0  0  0
  -11.5470   26.7820   38.9290 N   0  0  0  0  0  0
   -9.2920   25.2620   43.1590 N   0  3  0  0  0  0
  -11.2190   25.0550   38.8120 S   0  0  0  0  0  0
  -12.3296   27.0529   42.8877 H   0  0  0  0  0  0
  -12.1556   25.2847   43.1520 H   0  0  0  0  0  0
   -9.9304   27.3062   42.8647 H   0  0  0  0  0  0
   -9.6279   25.8231   46.6688 H   0  0  0  0  0  0
   -9.1655   25.0794   42.0817 H   0  0  0  0  0  0
   -9.6600   24.3466   43.6454 H   0  0  0  0  0  0
   -8.3249   25.5474   43.5986 H   0  0  0  0  0  0
  -11.6416   27.5623   38.1595 H   0  0  0  0  0  0
  1  2  1  0  0  0
  1  6  2  0  0  0
  1 10  1  0  0  0
  2  3  2  0  0  0
  2  4  1  0  0  0
  3 12  1  0  0  0
  4  5  1  0  0  0
  4 13  1  0  0  0
  4 14  1  0  0  0
  5  8  1  0  0  0
  5 11  1  0  0  0
  5 15  1  0  0  0
  7  8  2  0  0  0
  8  9  1  0  0  0
  9 16  1  0  0  0
 10 12  1  0  0  0
 10 20  1  0  0  0
 11 17  1  0  0  0
 11 18  1  0  0  0
 11 19  1  0  0  0
M  CHG  1  11   1
M  END
> <s_m_source_file>
../3bft_ligand.sdf

> <i_m_source_file_index>
1

> <s_epik_input>
W25IXTFzbmMoYzE9TylbQ0gyXVtDQEhdKFtOSDMrXSlDKD1PKVtPSF0=

> <s_epik_cmdline>
J2VwaWtfYXBwJywgJy1pbWFlJywgJ2xpZ2FuZF9wcm8ubWFlJywgJy1vbWFlJywgJ2xpZ2FuZF9wcmVwLm1hZScsICctbXMnLCAnMScsICctcGgnLCAnNycsICctcGh0JywgJzAuNScsICctbnQn

> <r_lp_tautomer_probability>
1

> <r_epik_Ionization_Penalty>
 17.7882

> <r_epik_Ionization_Penalty_Charging>
 10.7969

> <r_epik_Ionization_Penalty_Neutral>
  6.9913

> <r_epik_State_Penalty>
 -0.0000

> <r_epik_Charging_Adjusted_Penalty>
10.7969250518293

> <i_epik_Tot_Q>
1

> <i_epik_Tot_abs_Q>
1

$$$$
