3bg8_ligand
                    3D
 Schrodinger Suite 2020-3.
 26 25  0  0  1  0            999 V2000
   50.5930   24.8570   11.6280 C   0  0  0  0  0  0
   50.6080   24.7300   10.4260 O   0  0  0  0  0  0
   51.0020   23.8640   12.4520 N   0  0  0  0  0  0
   51.4800   22.6030   11.8750 C   0  0  0  0  0  0
   50.3110   21.7560   11.3590 C   0  0  0  0  0  0
   49.3640   21.4900   12.5340 C   0  0  0  0  0  0
   48.1690   20.6280   12.1230 C   0  0  0  0  0  0
   48.5680   19.2220   12.0290 N   0  0  0  0  0  0
   47.6950   18.2860   11.5050 C   0  0  0  0  0  0
   46.3850   18.6010   11.2230 N   0  0  0  0  0  0
   48.1090   17.0770   11.2580 N   0  3  0  0  0  0
   50.2408   25.7972   12.0774 H   0  0  0  0  0  0
   50.9785   23.9953   13.5439 H   0  0  0  0  0  0
   52.1574   22.8175   11.0353 H   0  0  0  0  0  0
   52.0188   22.0291   12.6433 H   0  0  0  0  0  0
   49.7846   22.3036   10.5633 H   0  0  0  0  0  0
   50.6951   20.8064   10.9582 H   0  0  0  0  0  0
   49.9086   20.9641   13.3320 H   0  0  0  0  0  0
   48.9811   22.4462   12.9201 H   0  0  0  0  0  0
   47.3707   20.7263   12.8734 H   0  0  0  0  0  0
   47.7951   20.9623   11.1440 H   0  0  0  0  0  0
   49.5638   18.9085   12.3755 H   0  0  0  0  0  0
   46.0082   19.6152   11.4217 H   0  0  0  0  0  0
   45.7150   17.8386   10.7990 H   0  0  0  0  0  0
   49.1509   16.7976   11.4735 H   0  0  0  0  0  0
   47.4170   16.3346   10.8337 H   0  0  0  0  0  0
  1  2  2  0  0  0
  1  3  1  0  0  0
  1 12  1  0  0  0
  3  4  1  0  0  0
  3 13  1  0  0  0
  4  5  1  0  0  0
  4 14  1  0  0  0
  4 15  1  0  0  0
  5  6  1  0  0  0
  5 16  1  0  0  0
  5 17  1  0  0  0
  6  7  1  0  0  0
  6 18  1  0  0  0
  6 19  1  0  0  0
  7  8  1  0  0  0
  7 20  1  0  0  0
  7 21  1  0  0  0
  8  9  1  0  0  0
  8 22  1  0  0  0
  9 10  1  0  0  0
  9 11  2  0  0  0
 10 23  1  0  0  0
 10 24  1  0  0  0
 11 25  1  0  0  0
 11 26  1  0  0  0
M  CHG  1  11   1
M  END
> <s_m_source_file>
../3bg8_ligand.sdf

> <i_m_source_file_index>
1

> <s_epik_input>
Tz1bQ0hdW05IXVtDSDJdW0NIMl1bQ0gyXVtDSDJdW05IXS9DKFtOSDJdKT1OXFtIXQ==

> <s_epik_cmdline>
J2VwaWtfYXBwJywgJy1pbWFlJywgJ2xpZ2FuZF9wcm8ubWFlJywgJy1vbWFlJywgJ2xpZ2FuZF9wcmVwLm1hZScsICctbXMnLCAnMScsICctcGgnLCAnNycsICctcGh0JywgJzAuNScsICctbnQn

> <r_lp_tautomer_probability>
1

> <r_epik_Ionization_Penalty>
  0.0000

> <r_epik_Ionization_Penalty_Charging>
  0.0000

> <r_epik_Ionization_Penalty_Neutral>
  0.0000

> <r_epik_State_Penalty>
 -0.0000

> <r_epik_Charging_Adjusted_Penalty>
2.1948611735503e-06

> <i_epik_Tot_Q>
1

> <i_epik_Tot_abs_Q>
1

> <s_epik_Chemistry_Notes>
This compound has an imine and may undergo hydrolysis.

$$$$
