3bgc_ligand
                    3D
 Schrodinger Suite 2020-3.
 77 80  0  0  1  0            999 V2000
  -13.3820   18.9010  -17.8500 N   0  3  0  0  0  0
  -14.2520   19.9470  -18.4590 C   0  0  0  0  0  0
  -14.8450   20.9590  -17.4680 C   0  0  0  0  0  0
   -8.7430   18.9390  -17.9890 C   0  0  0  0  0  0
   -8.4930   18.5970  -20.4970 C   0  0  0  0  0  0
   -9.8200   20.9900  -21.0350 C   0  0  0  0  0  0
   -8.1500   17.2640  -15.0420 C   0  0  0  0  0  0
  -16.1350   20.4060  -13.2470 C   0  0  0  0  0  0
  -12.1640   18.6730  -18.6780 C   0  0  0  0  0  0
  -11.0850   17.8590  -17.9090 C   0  0  0  0  0  0
   -9.9890   18.6150  -17.3040 N   0  0  3  0  0  0
  -15.7270   21.2150  -14.3070 C   0  0  0  0  0  0
  -13.4870   21.2080  -13.4320 C   0  0  0  0  0  0
  -13.9010   20.4540  -12.3350 C   0  0  0  0  0  0
  -15.2500   20.1080  -12.2040 C   0  0  0  0  0  0
  -13.8740   22.4580  -15.5850 C   0  0  0  0  0  0
  -13.9590   21.9910  -16.9630 N   0  0  3  0  0  0
   -7.7200   16.0600  -14.4590 C   0  0  0  0  0  0
   -9.5100   17.5760  -14.9800 C   0  0  0  0  0  0
   -9.5870   20.5950  -19.7150 C   0  0  0  0  0  0
   -8.9500   19.3840  -19.4380 C   0  0  0  0  0  0
   -8.6900   19.0040  -21.8130 C   0  0  0  0  0  0
  -10.1040   19.1010  -15.7120 S   0  0  0  0  0  0
   -9.1370   20.1340  -15.4550 O   0  0  0  0  0  0
  -11.4960   19.2250  -15.4010 O   0  0  0  0  0  0
  -10.4610   16.7560  -14.3650 C   0  0  0  0  0  0
  -10.0180   15.5740  -13.7700 C   0  0  0  0  0  0
   -8.6730   15.2170  -13.8630 C   0  0  0  0  0  0
   -8.2860   13.9910  -13.2910 N   0  0  0  0  0  0
   -9.3170   20.2210  -22.0850 C   0  0  0  0  0  0
  -12.9500   22.7540  -18.0350 S   0  0  0  0  0  0
  -12.1450   21.7670  -18.7190 O   0  0  0  0  0  0
  -12.3010   23.7860  -17.2520 O   0  0  0  0  0  0
  -14.0640   23.5050  -19.1970 C   0  0  0  0  0  0
  -14.8730   24.5730  -18.7900 C   0  0  0  0  0  0
  -15.7500   25.1620  -19.7010 C   0  0  0  0  0  0
  -15.8240   24.6960  -21.0150 C   0  0  0  0  0  0
  -16.7480   25.2980  -21.8970 N   0  0  0  0  0  0
  -15.0050   23.6430  -21.4250 C   0  0  0  0  0  0
  -14.1210   23.0480  -20.5140 C   0  0  0  0  0  0
  -14.3890   21.6180  -14.4270 C   0  0  0  0  0  0
  -13.0709   19.2224  -16.8450 H   0  0  0  0  0  0
  -13.9410   17.9565  -17.7763 H   0  0  0  0  0  0
  -13.6704   20.5274  -19.1903 H   0  0  0  0  0  0
  -15.1029   19.4673  -18.9649 H   0  0  0  0  0  0
  -15.6778   21.4956  -17.9461 H   0  0  0  0  0  0
  -15.2138   20.4279  -16.5781 H   0  0  0  0  0  0
   -8.2356   19.7586  -17.4590 H   0  0  0  0  0  0
   -8.0914   18.0529  -18.0035 H   0  0  0  0  0  0
   -7.9788   17.6581  -20.2916 H   0  0  0  0  0  0
  -10.3918   21.8943  -21.2433 H   0  0  0  0  0  0
   -7.4425   17.9353  -15.5287 H   0  0  0  0  0  0
  -17.1479   20.0037  -13.2304 H   0  0  0  0  0  0
  -12.4366   18.1134  -19.5849 H   0  0  0  0  0  0
  -11.7273   19.6417  -18.9624 H   0  0  0  0  0  0
  -11.5594   17.3122  -17.0808 H   0  0  0  0  0  0
  -10.6074   17.1437  -18.5947 H   0  0  0  0  0  0
  -16.4559   21.5377  -15.0504 H   0  0  0  0  0  0
  -12.4368   21.4863  -13.5196 H   0  0  0  0  0  0
  -13.1779   20.1360  -11.5839 H   0  0  0  0  0  0
  -15.6076   19.6127  -11.3013 H   0  0  0  0  0  0
  -12.8202   22.6294  -15.3203 H   0  0  0  0  0  0
  -14.4357   23.3981  -15.4811 H   0  0  0  0  0  0
   -6.6654   15.7848  -14.4690 H   0  0  0  0  0  0
   -9.9054   21.2380  -18.8945 H   0  0  0  0  0  0
   -8.3537   18.3706  -22.6338 H   0  0  0  0  0  0
  -11.5155   17.0314  -14.3508 H   0  0  0  0  0  0
  -10.7193   14.9333  -13.2355 H   0  0  0  0  0  0
   -7.2355   13.6683  -13.3403 H   0  0  0  0  0  0
   -9.0339   13.3553  -12.7946 H   0  0  0  0  0  0
   -9.4133   20.5692  -23.1134 H   0  0  0  0  0  0
  -14.8177   24.9424  -17.7660 H   0  0  0  0  0  0
  -16.3819   25.9919  -19.3847 H   0  0  0  0  0  0
  -17.3818   26.1266  -21.5481 H   0  0  0  0  0  0
  -16.8340   24.9383  -22.9330 H   0  0  0  0  0  0
  -15.0526   23.2834  -22.4529 H   0  0  0  0  0  0
  -13.4781   22.2282  -20.8346 H   0  0  0  0  0  0
  1  2  1  0  0  0
  1  9  1  0  0  0
  1 42  1  0  0  0
  1 43  1  0  0  0
  2  3  1  0  0  0
  2 44  1  0  0  0
  2 45  1  0  0  0
  3 17  1  0  0  0
  3 46  1  0  0  0
  3 47  1  0  0  0
  4 11  1  0  0  0
  4 21  1  0  0  0
  4 48  1  0  0  0
  4 49  1  0  0  0
  5 21  2  0  0  0
  5 22  1  0  0  0
  5 50  1  0  0  0
  6 20  2  0  0  0
  6 30  1  0  0  0
  6 51  1  0  0  0
  7 18  2  0  0  0
  7 19  1  0  0  0
  7 52  1  0  0  0
  8 12  2  0  0  0
  8 15  1  0  0  0
  8 53  1  0  0  0
  9 10  1  0  0  0
  9 54  1  0  0  0
  9 55  1  0  0  0
 10 11  1  0  0  0
 10 56  1  0  0  0
 10 57  1  0  0  0
 11 23  1  0  0  0
 12 41  1  0  0  0
 12 58  1  0  0  0
 13 14  1  0  0  0
 13 41  2  0  0  0
 13 59  1  0  0  0
 14 15  2  0  0  0
 14 60  1  0  0  0
 15 61  1  0  0  0
 16 17  1  0  0  0
 16 41  1  0  0  0
 16 62  1  0  0  0
 16 63  1  0  0  0
 17 31  1  0  0  0
 18 28  1  0  0  0
 18 64  1  0  0  0
 19 23  1  0  0  0
 19 26  2  0  0  0
 20 21  1  0  0  0
 20 65  1  0  0  0
 22 30  2  0  0  0
 22 66  1  0  0  0
 23 24  2  0  0  0
 23 25  2  0  0  0
 26 27  1  0  0  0
 26 67  1  0  0  0
 27 28  2  0  0  0
 27 68  1  0  0  0
 28 29  1  0  0  0
 29 69  1  0  0  0
 29 70  1  0  0  0
 30 71  1  0  0  0
 31 32  2  0  0  0
 31 33  2  0  0  0
 31 34  1  0  0  0
 34 35  2  0  0  0
 34 40  1  0  0  0
 35 36  1  0  0  0
 35 72  1  0  0  0
 36 37  2  0  0  0
 36 73  1  0  0  0
 37 38  1  0  0  0
 37 39  1  0  0  0
 38 74  1  0  0  0
 38 75  1  0  0  0
 39 40  2  0  0  0
 39 76  1  0  0  0
 40 77  1  0  0  0
M  CHG  1   1   1
M  END
> <s_m_source_file>
../3bgc_ligand.sdf

> <i_m_source_file_index>
1

> <s_epik_input>
W2NIXTFbY0hdW2NIXVtjSF1bY0hdYzFbQ0gyXU4oUyg9TykoPU8pYzJbY0hdW2NIXWMoW05IMl0pW2NIXVtjSF0yKVtDSDJdW0NIMl1bTkgyK11bQ0gyXVtDSDJdTihbQ0gyXWMzW2NIXVtjSF1bY0hdW2NIXVtjSF0zKVMoPU8pKD1PKWM0W2NIXVtjSF1jKFtOSDJdKVtjSF1bY0hdNA==

> <s_epik_cmdline>
J2VwaWtfYXBwJywgJy1pbWFlJywgJ2xpZ2FuZF9wcm8ubWFlJywgJy1vbWFlJywgJ2xpZ2FuZF9wcmVwLm1hZScsICctbXMnLCAnMScsICctcGgnLCAnNycsICctcGh0JywgJzAuNScsICctbnQn

> <r_epik_Ionization_Penalty>
  0.0587

> <r_epik_Ionization_Penalty_Charging>
  0.0587

> <r_epik_Ionization_Penalty_Neutral>
  0.0000

> <r_epik_State_Penalty>
  0.0507

> <r_epik_Charging_Adjusted_Penalty>
0.109391504038679

> <i_epik_Tot_Q>
1

> <i_epik_Tot_abs_Q>
1

$$$$
