3bgl_ligand
                    3D
 Schrodinger Suite 2020-3.
 77 80  0  0  1  0            999 V2000
    3.5320    6.3320  -11.8520 N   0  0  0  0  0  0
    0.5930    6.7530  -15.5360 N   0  0  0  0  0  0
    3.2870    5.1110  -12.3100 C   0  0  0  0  0  0
    2.6960    8.6620  -11.9900 C   0  0  0  0  0  0
    4.6720    6.6130  -10.9710 C   0  0  0  0  0  0
    4.2520    6.6630   -9.5220 C   0  0  0  0  0  0
    5.0850    6.1690   -7.2390 C   0  0  0  0  0  0
    1.4040    9.1500  -11.3240 C   0  0  0  0  0  0
    5.5120    2.0760  -12.4930 C   0  0  0  0  0  0
    1.7930    7.3120  -16.1590 C   0  0  0  0  0  0
    2.0200    6.6010  -17.4920 C   0  0  0  0  0  0
    3.4430    3.0970  -10.9510 C   0  0  0  0  0  0
   -0.0260    2.1260  -13.9490 C   0  0  0  0  0  0
    3.9920    1.8660  -10.6230 C   0  0  0  0  0  0
   -0.6260    6.6820  -16.3520 C   0  0  0  0  0  0
    0.5390    1.7080  -15.1450 C   0  0  0  0  0  0
   -0.7840    6.3690  -13.6010 O   0  0  0  0  0  0
    0.4110    7.0330  -14.0530 S   0  0  0  0  0  0
    0.2650    8.4510  -13.9000 O   0  0  0  0  0  0
   -0.2590    6.0000  -17.6670 C   0  0  0  0  0  0
    0.8370    6.6730  -18.2880 O   0  0  0  0  0  0
    1.7200    6.4860  -13.1760 C   0  0  0  0  0  0
    2.0980    5.1660  -13.1560 C   0  0  0  0  0  0
    1.5300    3.9720  -13.8440 C   0  0  0  0  0  0
    0.4730    3.2530  -13.2980 C   0  0  0  0  0  0
    1.6080    2.4170  -15.6900 C   0  0  0  0  0  0
    2.1090    3.5430  -15.0340 C   0  0  0  0  0  0
    2.6220    7.2140  -12.3540 C   0  0  0  0  0  0
    3.1040    9.4910  -13.1890 C   0  0  0  0  0  0
    3.9250    3.8070  -12.0490 C   0  0  0  0  0  0
    5.0240    1.3630  -11.4000 C   0  0  0  0  0  0
    5.5450    0.1770  -11.0800 F   0  0  0  0  0  0
    4.9660    3.3130  -12.8200 C   0  0  0  0  0  0
    5.4850    6.6240   -8.6300 C   0  0  2  0  0  0
    6.0470    7.9190   -8.5640 O   0  0  0  0  0  0
    4.9460    4.6550   -7.1820 C   0  0  1  0  0  0
    6.2040    4.0640   -7.4530 O   0  0  0  0  0  0
    4.4590    4.2280   -5.8020 C   0  0  0  0  0  0
    3.9800    2.7930   -5.8530 C   0  0  0  0  0  0
    2.9190    2.5100   -6.3990 O   0  0  0  0  0  0
    4.7200    1.8340   -5.3020 O   0  5  0  0  0  0
    3.4950    8.7713  -11.2419 H   0  0  0  0  0  0
    5.4286    5.8230  -11.0871 H   0  0  0  0  0  0
    5.1122    7.5846  -11.2396 H   0  0  0  0  0  0
    3.6945    7.5924   -9.3337 H   0  0  0  0  0  0
    3.6105    5.7984   -9.2961 H   0  0  0  0  0  0
    5.8532    6.4810   -6.5161 H   0  0  0  0  0  0
    4.1205    6.6231   -6.9679 H   0  0  0  0  0  0
    1.1684    8.5052  -10.4645 H   0  0  0  0  0  0
    0.5789    9.1089  -12.0504 H   0  0  0  0  0  0
    1.5379   10.1860  -10.9793 H   0  0  0  0  0  0
    6.3232    1.6637  -13.0931 H   0  0  0  0  0  0
    1.6508    8.3898  -16.3268 H   0  0  0  0  0  0
    2.6571    7.1549  -15.4967 H   0  0  0  0  0  0
    2.8490    7.0849  -18.0291 H   0  0  0  0  0  0
    2.2694    5.5458  -17.3069 H   0  0  0  0  0  0
    2.6334    3.5096  -10.3490 H   0  0  0  0  0  0
   -0.8606    1.5729  -13.5181 H   0  0  0  0  0  0
    3.6178    1.3031   -9.7678 H   0  0  0  0  0  0
   -1.3914    6.1000  -15.8178 H   0  0  0  0  0  0
   -1.0023    7.6987  -16.5383 H   0  0  0  0  0  0
    0.1484    0.8284  -15.6566 H   0  0  0  0  0  0
    0.0263    4.9558  -17.4713 H   0  0  0  0  0  0
   -1.1243    6.0226  -18.3458 H   0  0  0  0  0  0
    0.0313    3.5727  -12.3542 H   0  0  0  0  0  0
    2.0537    2.0918  -16.6301 H   0  0  0  0  0  0
    2.9549    4.0867  -15.4548 H   0  0  0  0  0  0
    3.1529   10.5517  -12.9018 H   0  0  0  0  0  0
    2.3640    9.3624  -13.9926 H   0  0  0  0  0  0
    4.0916    9.1613  -13.5438 H   0  0  0  0  0  0
    5.3493    3.8830  -13.6663 H   0  0  0  0  0  0
    6.2723    5.9778   -9.0454 H   0  0  0  0  0  0
    6.3969    8.4141   -9.4818 H   0  0  0  0  0  0
    4.2682    4.2855   -7.9656 H   0  0  0  0  0  0
    6.7101    4.2620   -8.4094 H   0  0  0  0  0  0
    5.2844    4.3120   -5.0797 H   0  0  0  0  0  0
    3.6296    4.8789   -5.4882 H   0  0  0  0  0  0
  1  3  1  0  0  0
  1  5  1  0  0  0
  1 28  1  0  0  0
  2 10  1  0  0  0
  2 15  1  0  0  0
  2 18  1  0  0  0
  3 23  2  0  0  0
  3 30  1  0  0  0
  4  8  1  0  0  0
  4 28  1  0  0  0
  4 29  1  0  0  0
  4 42  1  0  0  0
  5  6  1  0  0  0
  5 43  1  0  0  0
  5 44  1  0  0  0
  6 34  1  0  0  0
  6 45  1  0  0  0
  6 46  1  0  0  0
  7 34  1  0  0  0
  7 36  1  0  0  0
  7 47  1  0  0  0
  7 48  1  0  0  0
  8 49  1  0  0  0
  8 50  1  0  0  0
  8 51  1  0  0  0
  9 31  2  0  0  0
  9 33  1  0  0  0
  9 52  1  0  0  0
 10 11  1  0  0  0
 10 53  1  0  0  0
 10 54  1  0  0  0
 11 21  1  0  0  0
 11 55  1  0  0  0
 11 56  1  0  0  0
 12 14  2  0  0  0
 12 30  1  0  0  0
 12 57  1  0  0  0
 13 16  2  0  0  0
 13 25  1  0  0  0
 13 58  1  0  0  0
 14 31  1  0  0  0
 14 59  1  0  0  0
 15 20  1  0  0  0
 15 60  1  0  0  0
 15 61  1  0  0  0
 16 26  1  0  0  0
 16 62  1  0  0  0
 17 18  2  0  0  0
 18 19  2  0  0  0
 18 22  1  0  0  0
 20 21  1  0  0  0
 20 63  1  0  0  0
 20 64  1  0  0  0
 22 23  1  0  0  0
 22 28  2  0  0  0
 23 24  1  0  0  0
 24 25  2  0  0  0
 24 27  1  0  0  0
 25 65  1  0  0  0
 26 27  2  0  0  0
 26 66  1  0  0  0
 27 67  1  0  0  0
 29 68  1  0  0  0
 29 69  1  0  0  0
 29 70  1  0  0  0
 30 33  2  0  0  0
 31 32  1  0  0  0
 33 71  1  0  0  0
 34 35  1  0  0  0
 34 72  1  0  0  0
 35 73  1  0  0  0
 36 37  1  0  0  0
 36 38  1  0  0  0
 36 74  1  0  0  0
 37 75  1  0  0  0
 38 39  1  0  0  0
 38 76  1  0  0  0
 38 77  1  0  0  0
 39 40  2  0  0  0
 39 41  1  0  0  0
M  CHG  1  41  -1
M  END
> <s_m_source_file>
../3bgl_ligand.sdf

> <i_m_source_file_index>
1

> <s_epik_input>
Tz1DKFtPSF0pW0NIMl1bQ0BIXShbT0hdKVtDSDJdW0NASF0oW09IXSlbQ0gyXVtDSDJdbjFjKC1jMltjSF1bY0hdYyhGKVtjSF1bY0hdMiljKC1jM1tjSF1bY0hdW2NIXVtjSF1bY0hdMyljKGMxW0NIXShbQ0gzXSlbQ0gzXSlTKD1PKSg9TylONFtDSDJdW0NIMl1PW0NIMl1bQ0gyXTQ=

> <s_epik_cmdline>
J2VwaWtfYXBwJywgJy1pbWFlJywgJ2xpZ2FuZF9wcm8ubWFlJywgJy1vbWFlJywgJ2xpZ2FuZF9wcmVwLm1hZScsICctbXMnLCAnMScsICctcGgnLCAnNycsICctcGh0JywgJzAuNScsICctbnQn

> <r_lp_tautomer_probability>
1

> <r_epik_Ionization_Penalty>
  0.0031

> <r_epik_Ionization_Penalty_Charging>
  0.0031

> <r_epik_Ionization_Penalty_Neutral>
  0.0000

> <r_epik_State_Penalty>
 -0.0000

> <r_epik_Charging_Adjusted_Penalty>
0.00306949515068905

> <i_epik_Tot_Q>
-1

> <i_epik_Tot_abs_Q>
1

$$$$
