3bgm_ligand
                    3D
 Schrodinger Suite 2020-3.
144143  0  0  1  0            999 V2000
   26.1850  -37.9470   -5.3770 N   0  3  0  0  0  0
   27.6220  -37.9690   -5.0050 C   0  0  2  0  0  0
   28.5630  -37.6530   -6.1740 C   0  0  0  0  0  0
   28.5110  -38.3240   -7.2100 O   0  0  0  0  0  0
   27.9770  -39.3430   -4.4180 C   0  0  0  0  0  0
   29.3850  -39.3940   -3.8800 C   0  0  0  0  0  0
   29.7720  -40.7720   -3.3110 C   0  0  0  0  0  0
   31.1880  -40.8020   -2.9310 N   0  0  0  0  0  0
   31.6400  -41.1870   -1.7370 C   0  0  0  0  0  0
   30.7740  -41.6070   -0.8120 N   0  3  0  0  0  0
   32.9570  -41.1740   -1.4790 N   0  0  0  0  0  0
   29.4300  -36.6460   -6.0060 N   0  0  0  0  0  0
   30.3840  -36.2210   -7.0420 C   0  0  2  0  0  0
   31.5130  -37.2350   -7.2540 C   0  0  0  0  0  0
   31.8850  -37.9750   -6.3350 O   0  0  0  0  0  0
   31.0360  -34.8850   -6.6560 C   0  0  0  0  0  0
   30.1110  -33.7270   -6.6680 C   0  0  0  0  0  0
   30.7300  -32.5580   -5.9630 C   0  0  0  0  0  0
   31.3380  -31.6770   -6.6100 O   0  0  0  0  0  0
   30.6630  -32.5550   -4.6360 N   0  0  0  0  0  0
   32.0810  -37.2110   -8.4540 N   0  0  0  0  0  0
   33.3100  -37.9770   -8.7620 C   0  0  2  0  0  0
   34.5060  -37.4930   -7.9510 C   0  0  0  0  0  0
   34.6250  -36.2930   -7.6720 O   0  0  0  0  0  0
   33.6360  -37.8720  -10.2510 C   0  0  0  0  0  0
   35.3920  -38.4290   -7.6020 N   0  0  0  0  0  0
   36.5500  -38.1350   -6.7610 C   0  0  1  0  0  0
   36.7250  -39.1870   -5.6570 C   0  0  0  0  0  0
   35.5790  -39.2020   -4.8190 O   0  0  0  0  0  0
   37.8280  -38.0160   -7.5830 C   0  0  0  0  0  0
   38.7830  -38.7960   -7.4130 O   0  0  0  0  0  0
   35.8380  -39.3120   -3.2420 P   0  0  0  0  0  0
   34.4240  -39.1200   -2.5330 O   0  0  0  0  0  0
   36.8930  -38.2000   -2.7540 O   0  5  0  0  0  0
   36.4390  -40.7680   -2.9390 O   0  5  0  0  0  0
   37.8430  -37.0420   -8.4790 N   0  0  0  0  0  0
   39.0390  -36.7680   -9.2840 C   0  0  2  0  0  0
   39.1720  -35.2930   -9.5870 C   0  0  0  0  0  0
   38.1780  -34.5810   -9.6710 O   0  0  0  0  0  0
   39.0360  -37.5910  -10.5770 C   0  0  0  0  0  0
   37.7130  -37.8880  -11.2940 C   0  0  0  0  0  0
   37.1950  -36.7160  -12.1230 C   0  0  0  0  0  0
   37.8600  -39.1330  -12.1740 C   0  0  0  0  0  0
   40.4060  -34.8340   -9.7420 N   0  0  0  0  0  0
   40.6280  -33.4590  -10.1380 C   0  0  2  0  0  0
   41.2390  -33.4890  -11.5190 C   0  0  0  0  0  0
   42.2270  -34.1900  -11.7480 O   0  0  0  0  0  0
   41.5580  -32.7450   -9.1600 C   0  0  0  0  0  0
   42.4080  -31.8470   -9.8690 O   0  0  0  0  0  0
   40.6390  -32.7610  -12.4500 N   0  0  0  0  0  0
   41.2010  -32.6830  -13.7960 C   0  0  2  0  0  0
   41.1950  -31.2580  -14.3230 C   0  0  0  0  0  0
   40.2710  -30.4900  -14.0510 O   0  0  0  0  0  0
   40.5430  -33.6690  -14.8040 C   0  0  2  0  0  0
   39.0350  -33.4520  -14.8900 C   0  0  0  0  0  0
   40.8970  -35.1350  -14.4610 C   0  0  0  0  0  0
   38.2830  -34.5460  -15.6660 C   0  0  0  0  0  0
   42.2560  -30.9110  -15.0520 N   0  0  0  0  0  0
   42.4160  -29.5970  -15.6510 C   0  0  2  0  0  0
   42.6400  -29.8000  -17.1430 C   0  0  0  0  0  0
   43.2730  -30.7850  -17.5410 O   0  0  0  0  0  0
   43.6320  -28.8780  -15.0670 C   0  0  0  0  0  0
   43.6370  -28.8790  -13.6520 O   0  0  0  0  0  0
   42.1480  -28.8640  -17.9490 N   0  0  0  0  0  0
   42.2710  -28.9540  -19.4110 C   0  0  2  0  0  0
   43.7090  -28.6790  -19.8520 C   0  0  0  0  0  0
   44.0650  -28.9490  -21.0180 O   0  5  0  0  0  0
   41.2930  -27.9770  -20.1540 C   0  0  0  0  0  0
   39.8350  -28.2600  -19.7260 C   0  0  0  0  0  0
   41.6730  -26.5020  -19.9270 C   0  0  0  0  0  0
   44.5220  -28.1540  -19.0680 O   0  0  0  0  0  0
   25.9302  -36.9630   -5.7975 H   0  0  0  0  0  0
   25.5719  -38.1336   -4.4830 H   0  0  0  0  0  0
   25.9882  -38.7281   -6.1261 H   0  0  0  0  0  0
   27.7316  -37.1638   -4.2636 H   0  0  0  0  0  0
   27.2898  -39.5774   -3.5917 H   0  0  0  0  0  0
   27.8851  -40.1108   -5.2003 H   0  0  0  0  0  0
   30.0946  -39.1583   -4.6868 H   0  0  0  0  0  0
   29.4945  -38.6589   -3.0691 H   0  0  0  0  0  0
   29.1623  -40.9854   -2.4207 H   0  0  0  0  0  0
   29.5935  -41.5461   -4.0718 H   0  0  0  0  0  0
   31.9580  -40.4932   -3.6533 H   0  0  0  0  0  0
   29.6960  -41.6147   -1.0310 H   0  0  0  0  0  0
   33.6644  -40.8265   -2.2464 H   0  0  0  0  0  0
   33.3291  -41.5108   -0.5002 H   0  0  0  0  0  0
   29.4055  -36.1288   -5.0355 H   0  0  0  0  0  0
   29.7648  -36.1439   -7.9479 H   0  0  0  0  0  0
   31.4461  -34.9578   -5.6379 H   0  0  0  0  0  0
   31.8472  -34.6552   -7.3625 H   0  0  0  0  0  0
   29.8918  -33.4436   -7.7080 H   0  0  0  0  0  0
   29.1756  -33.9996   -6.1573 H   0  0  0  0  0  0
   30.1161  -33.3521   -4.1111 H   0  0  0  0  0  0
   31.1545  -31.7554   -4.0623 H   0  0  0  0  0  0
   31.6072  -36.5950   -9.2325 H   0  0  0  0  0  0
   33.0854  -39.0158   -8.4783 H   0  0  0  0  0  0
   32.7750  -38.2205  -10.8403 H   0  0  0  0  0  0
   34.5130  -38.4955  -10.4792 H   0  0  0  0  0  0
   33.8546  -36.8244  -10.5055 H   0  0  0  0  0  0
   35.2259  -39.4518   -7.9713 H   0  0  0  0  0  0
   36.3149  -37.1571   -6.3155 H   0  0  0  0  0  0
   36.8541  -40.1795   -6.1134 H   0  0  0  0  0  0
   37.6122  -38.9422   -5.0546 H   0  0  0  0  0  0
   36.9372  -36.4328   -8.6148 H   0  0  0  0  0  0
   39.8886  -37.0693   -8.6536 H   0  0  0  0  0  0
   39.6421  -37.0790  -11.3389 H   0  0  0  0  0  0
   39.4603  -38.5864  -10.3791 H   0  0  0  0  0  0
   36.9613  -38.0649  -10.5107 H   0  0  0  0  0  0
   37.0938  -35.8289  -11.4805 H   0  0  0  0  0  0
   36.2143  -36.9737  -12.5495 H   0  0  0  0  0  0
   37.9035  -36.5008  -12.9364 H   0  0  0  0  0  0
   38.2336  -39.9699  -11.5657 H   0  0  0  0  0  0
   38.5706  -38.9251  -12.9876 H   0  0  0  0  0  0
   36.8814  -39.3980  -12.6007 H   0  0  0  0  0  0
   41.2629  -35.5016   -9.5687 H   0  0  0  0  0  0
   39.6536  -32.9485  -10.1328 H   0  0  0  0  0  0
   40.9591  -32.1794   -8.4310 H   0  0  0  0  0  0
   42.1739  -33.4874   -8.6313 H   0  0  0  0  0  0
   43.1480  -31.2434   -9.3230 H   0  0  0  0  0  0
   39.7156  -32.2148  -12.2070 H   0  0  0  0  0  0
   42.2449  -32.9904  -13.6351 H   0  0  0  0  0  0
   40.9372  -33.4600  -15.8094 H   0  0  0  0  0  0
   38.6099  -33.4261  -13.8758 H   0  0  0  0  0  0
   38.8302  -32.4980  -15.3978 H   0  0  0  0  0  0
   41.9902  -35.2457  -14.4093 H   0  0  0  0  0  0
   40.4975  -35.8006  -15.2403 H   0  0  0  0  0  0
   40.4551  -35.4012  -13.4895 H   0  0  0  0  0  0
   37.2081  -34.3129  -15.6795 H   0  0  0  0  0  0
   38.4413  -35.5179  -15.1758 H   0  0  0  0  0  0
   38.6617  -34.5897  -16.6978 H   0  0  0  0  0  0
   43.0332  -31.6770  -15.1906 H   0  0  0  0  0  0
   41.5015  -29.0269  -15.4302 H   0  0  0  0  0  0
   44.5514  -29.3762  -15.4083 H   0  0  0  0  0  0
   43.6357  -27.8309  -15.4040 H   0  0  0  0  0  0
   44.4585  -28.3937  -13.1046 H   0  0  0  0  0  0
   41.6370  -28.0038  -17.4920 H   0  0  0  0  0  0
   42.0083  -30.0000  -19.6277 H   0  0  0  0  0  0
   41.3706  -28.1438  -21.2385 H   0  0  0  0  0  0
   39.6003  -29.3201  -19.9022 H   0  0  0  0  0  0
   39.1514  -27.6304  -20.3144 H   0  0  0  0  0  0
   39.7157  -28.0309  -18.6568 H   0  0  0  0  0  0
   42.7142  -26.3390  -20.2421 H   0  0  0  0  0  0
   41.5703  -26.2570  -18.8596 H   0  0  0  0  0  0
   41.0059  -25.8565  -20.5172 H   0  0  0  0  0  0
   31.1383  -41.9454    0.1692 H   0  0  0  0  0  0
  1  2  1  0  0  0
  1 72  1  0  0  0
  1 73  1  0  0  0
  1 74  1  0  0  0
  2  3  1  0  0  0
  2  5  1  0  0  0
  2 75  1  0  0  0
  3  4  2  0  0  0
  3 12  1  0  0  0
  5  6  1  0  0  0
  5 76  1  0  0  0
  5 77  1  0  0  0
  6  7  1  0  0  0
  6 78  1  0  0  0
  6 79  1  0  0  0
  7  8  1  0  0  0
  7 80  1  0  0  0
  7 81  1  0  0  0
  8  9  1  0  0  0
  8 82  1  0  0  0
  9 10  2  0  0  0
  9 11  1  0  0  0
 10 83  1  0  0  0
 10144  1  0  0  0
 11 84  1  0  0  0
 11 85  1  0  0  0
 12 13  1  0  0  0
 12 86  1  0  0  0
 13 14  1  0  0  0
 13 16  1  0  0  0
 13 87  1  0  0  0
 14 15  2  0  0  0
 14 21  1  0  0  0
 16 17  1  0  0  0
 16 88  1  0  0  0
 16 89  1  0  0  0
 17 18  1  0  0  0
 17 90  1  0  0  0
 17 91  1  0  0  0
 18 19  2  0  0  0
 18 20  1  0  0  0
 20 92  1  0  0  0
 20 93  1  0  0  0
 21 22  1  0  0  0
 21 94  1  0  0  0
 22 23  1  0  0  0
 22 25  1  0  0  0
 22 95  1  0  0  0
 23 24  2  0  0  0
 23 26  1  0  0  0
 25 96  1  0  0  0
 25 97  1  0  0  0
 25 98  1  0  0  0
 26 27  1  0  0  0
 26 99  1  0  0  0
 27 28  1  0  0  0
 27 30  1  0  0  0
 27100  1  0  0  0
 28 29  1  0  0  0
 28101  1  0  0  0
 28102  1  0  0  0
 29 32  1  0  0  0
 30 31  2  0  0  0
 30 36  1  0  0  0
 32 33  2  0  0  0
 32 34  1  0  0  0
 32 35  1  0  0  0
 36 37  1  0  0  0
 36103  1  0  0  0
 37 38  1  0  0  0
 37 40  1  0  0  0
 37104  1  0  0  0
 38 39  2  0  0  0
 38 44  1  0  0  0
 40 41  1  0  0  0
 40105  1  0  0  0
 40106  1  0  0  0
 41 42  1  0  0  0
 41 43  1  0  0  0
 41107  1  0  0  0
 42108  1  0  0  0
 42109  1  0  0  0
 42110  1  0  0  0
 43111  1  0  0  0
 43112  1  0  0  0
 43113  1  0  0  0
 44 45  1  0  0  0
 44114  1  0  0  0
 45 46  1  0  0  0
 45 48  1  0  0  0
 45115  1  0  0  0
 46 47  2  0  0  0
 46 50  1  0  0  0
 48 49  1  0  0  0
 48116  1  0  0  0
 48117  1  0  0  0
 49118  1  0  0  0
 50 51  1  0  0  0
 50119  1  0  0  0
 51 52  1  0  0  0
 51 54  1  0  0  0
 51120  1  0  0  0
 52 53  2  0  0  0
 52 58  1  0  0  0
 54 55  1  0  0  0
 54 56  1  0  0  0
 54121  1  0  0  0
 55 57  1  0  0  0
 55122  1  0  0  0
 55123  1  0  0  0
 56124  1  0  0  0
 56125  1  0  0  0
 56126  1  0  0  0
 57127  1  0  0  0
 57128  1  0  0  0
 57129  1  0  0  0
 58 59  1  0  0  0
 58130  1  0  0  0
 59 60  1  0  0  0
 59 62  1  0  0  0
 59131  1  0  0  0
 60 61  2  0  0  0
 60 64  1  0  0  0
 62 63  1  0  0  0
 62132  1  0  0  0
 62133  1  0  0  0
 63134  1  0  0  0
 64 65  1  0  0  0
 64135  1  0  0  0
 65 66  1  0  0  0
 65 68  1  0  0  0
 65136  1  0  0  0
 66 67  1  0  0  0
 66 71  2  0  0  0
 68 69  1  0  0  0
 68 70  1  0  0  0
 68137  1  0  0  0
 69138  1  0  0  0
 69139  1  0  0  0
 69140  1  0  0  0
 70141  1  0  0  0
 70142  1  0  0  0
 70143  1  0  0  0
M  CHG  5   1   1  10   1  34  -1  35  -1  67  -1
M  END
> <s_m_source_file>
../3bgm_ligand.sdf

> <i_m_source_file_index>
1

> <s_epik_input>
W0hdL049QyhbTkgyXSlcW05IXVtDSDJdW0NIMl1bQ0gyXVtDQEhdKFtOSDMrXSlDKD1PKVtOSF1bQ0BASF0oW0NIMl1bQ0gyXUMoPU8pW05IMl0pQyg9TylbTkhdW0NAQEhdKFtDSDNdKUMoPU8pW05IXVtDQEBIXShbQ0gyXU9QKD1PKShbT0hdKVtPSF0pQyg9TylbTkhdW0NAQEhdKFtDSDJdW0NIXShbQ0gzXSlbQ0gzXSlDKD1PKVtOSF1bQ0BASF0oW0NIMl1bT0hdKUMoPU8pW05IXVtDQEBIXShbQ0BASF0oW0NIM10pW0NIMl1bQ0gzXSlDKD1PKVtOSF1bQ0BASF0oW0NIMl1bT0hdKUMoPU8pW05IXVtDQEhdKEMoPU8pW09IXSlbQ0hdKFtDSDNdKVtDSDNd

> <s_epik_cmdline>
J2VwaWtfYXBwJywgJy1pbWFlJywgJ2xpZ2FuZF9wcm8ubWFlJywgJy1vbWFlJywgJ2xpZ2FuZF9wcmVwLm1hZScsICctbXMnLCAnMScsICctcGgnLCAnNycsICctcGh0JywgJzAuNScsICctbnQn

> <r_epik_Ionization_Penalty>
  0.2282

> <r_epik_Ionization_Penalty_Charging>
  0.2282

> <r_epik_Ionization_Penalty_Neutral>
  0.0000

> <r_epik_State_Penalty>
  0.1932

> <r_epik_Charging_Adjusted_Penalty>
0.421443596262696

> <i_epik_Tot_Q>
-1

> <i_epik_Tot_abs_Q>
5

> <s_epik_Chemistry_Notes>
This compound has an imine and may undergo hydrolysis.

$$$$
