3bh8_ligand
                    3D
 Schrodinger Suite 2020-3.
166166  0  0  1  0            999 V2000
  -25.1590  -37.8150    5.5060 N   0  3  0  0  0  0
  -26.5700  -37.7610    4.9850 C   0  0  2  0  0  0
  -27.5550  -37.4800    6.0970 C   0  0  0  0  0  0
  -27.5630  -38.1750    7.1180 O   0  0  0  0  0  0
  -26.9220  -39.0700    4.2510 C   0  0  0  0  0  0
  -28.3580  -39.1410    3.6830 C   0  0  0  0  0  0
  -28.6070  -40.5290    3.0710 C   0  0  0  0  0  0
  -29.9930  -40.5860    2.5770 N   0  0  0  0  0  0
  -30.3710  -40.9720    1.3620 C   0  0  0  0  0  0
  -29.4730  -41.3930    0.4690 N   0  0  0  0  0  0
  -31.6740  -40.9620    1.0510 N   0  0  0  0  0  0
  -28.3970  -36.4610    5.8940 N   0  0  0  0  0  0
  -29.3880  -36.0550    6.9060 C   0  0  2  0  0  0
  -30.5430  -37.0660    7.0570 C   0  0  0  0  0  0
  -30.9050  -37.7550    6.0990 O   0  0  0  0  0  0
  -30.0000  -34.7140    6.5200 C   0  0  0  0  0  0
  -29.1450  -33.5110    6.7900 C   0  0  0  0  0  0
  -29.6980  -32.3030    6.1140 C   0  0  0  0  0  0
  -30.3060  -31.4570    6.7610 O   0  0  0  0  0  0
  -29.5620  -32.2430    4.7990 N   0  0  0  0  0  0
  -31.1350  -37.1080    8.2450 N   0  0  0  0  0  0
  -32.3860  -37.9000    8.4560 C   0  0  2  0  0  0
  -33.5410  -37.4540    7.5430 C   0  0  0  0  0  0
  -33.7470  -36.2430    7.3100 O   0  0  0  0  0  0
  -32.8180  -37.8160    9.9290 C   0  0  0  0  0  0
  -34.2880  -38.4330    7.0330 N   0  0  0  0  0  0
  -35.4890  -38.1320    6.2400 C   0  0  1  0  0  0
  -35.6530  -39.1380    5.1080 C   0  0  0  0  0  0
  -34.4560  -39.1740    4.3560 O   0  0  0  0  0  0
  -36.7260  -38.1150    7.1210 C   0  0  0  0  0  0
  -37.6230  -38.9570    6.9700 O   0  0  0  0  0  0
  -34.6320  -39.0170    2.7830 P   0  0  0  0  0  0
  -33.1690  -38.7950    2.1660 O   0  0  0  0  0  0
  -35.6680  -37.8490    2.3870 O   0  0  0  0  0  0
  -35.2630  -40.3770    2.2560 O   0  0  0  0  0  0
  -36.7430  -37.1720    8.0460 N   0  0  0  0  0  0
  -37.7780  -37.0840    9.0790 C   0  0  2  0  0  0
  -38.1830  -35.6230    9.1900 C   0  0  0  0  0  0
  -37.3230  -34.7580    9.3310 O   0  0  0  0  0  0
  -37.2230  -37.5800   10.4450 C   0  0  2  0  0  0
  -36.7980  -39.0500   10.3500 C   0  0  0  0  0  0
  -38.2410  -37.3340   11.5970 C   0  0  0  0  0  0
  -35.9820  -39.5730   11.5550 C   0  0  0  0  0  0
  -39.4770  -35.3470    9.0860 N   0  0  0  0  0  0
  -40.0060  -34.0360    9.4450 C   0  0  2  0  0  0
  -40.4080  -34.1080   10.9240 C   0  0  0  0  0  0
  -41.2400  -34.9190   11.2990 O   0  0  0  0  0  0
  -41.1860  -33.6450    8.5400 C   0  0  0  0  0  0
  -40.8210  -32.7920    7.3120 C   0  0  0  0  0  0
  -40.8230  -33.5890    6.0120 C   0  0  0  0  0  0
  -41.6260  -34.5520    5.8950 O   0  0  0  0  0  0
  -40.0200  -33.2510    5.1050 O   0  0  0  0  0  0
  -39.7710  -33.3080   11.7760 N   0  0  0  0  0  0
  -40.0910  -33.3430   13.2050 C   0  0  2  0  0  0
  -41.3770  -32.5550   13.4830 C   0  0  0  0  0  0
  -41.6830  -31.6120   12.7490 O   0  0  0  0  0  0
  -38.9110  -32.8430   14.0440 C   0  0  0  0  0  0
  -37.8240  -33.9150   14.2000 C   0  0  0  0  0  0
  -36.8330  -33.8800   13.0290 C   0  0  0  0  0  0
  -37.1210  -33.7620   15.5260 C   0  0  0  0  0  0
  -42.1560  -32.9550   14.5090 N   0  0  0  0  0  0
  -43.3930  -32.2210   14.7580 C   0  0  2  0  0  0
  -43.0650  -30.8690   15.3580 C   0  0  0  0  0  0
  -41.9280  -30.6470   15.7940 O   0  0  0  0  0  0
  -44.1350  -33.0900   15.7910 C   0  0  0  0  0  0
  -43.3820  -34.3780   15.8530 C   0  0  0  0  0  0
  -41.9740  -34.0480   15.4780 C   0  0  0  0  0  0
  -44.0440  -29.9680   15.3490 N   0  0  0  0  0  0
  -43.9060  -28.6970   16.0440 C   0  0  2  0  0  0
  -43.5500  -28.9560   17.5040 C   0  0  0  0  0  0
  -44.0070  -29.9290   18.1020 O   0  0  0  0  0  0
  -45.2160  -27.9020   15.9630 C   0  0  0  0  0  0
  -45.2810  -27.1830   14.7470 O   0  0  0  0  0  0
  -42.7390  -28.0760   18.0740 N   0  0  0  0  0  0
  -42.4860  -28.1230   19.5000 C   0  0  2  0  0  0
  -43.6880  -27.6630   20.3140 C   0  0  0  0  0  0
  -43.7030  -27.8490   21.5340 O   0  0  0  0  0  0
  -41.2740  -27.2900   19.8420 C   0  0  0  0  0  0
  -39.9670  -27.9640   19.4620 C   0  0  0  0  0  0
  -38.6870  -26.9030   20.0610 S   0  0  0  0  0  0
  -39.4820  -26.3550   21.5410 C   0  0  0  0  0  0
  -44.6500  -27.1200   19.7660 O   0  0  0  0  0  0
  -24.9240  -36.8747    6.0263 H   0  0  0  0  0  0
  -24.4629  -37.9529    4.6655 H   0  0  0  0  0  0
  -25.0589  -38.6569    6.2069 H   0  0  0  0  0  0
  -26.6278  -36.9161    4.2830 H   0  0  0  0  0  0
  -26.2410  -39.2066    3.3980 H   0  0  0  0  0  0
  -26.8171  -39.9183    4.9434 H   0  0  0  0  0  0
  -29.0816  -38.9650    4.4926 H   0  0  0  0  0  0
  -28.4833  -38.3727    2.9058 H   0  0  0  0  0  0
  -27.9069  -40.6937    2.2387 H   0  0  0  0  0  0
  -28.4521  -41.3014    3.8387 H   0  0  0  0  0  0
  -30.8240  -40.2928    3.2354 H   0  0  0  0  0  0
  -28.4035  -41.4005    0.7261 H   0  0  0  0  0  0
  -32.4128  -40.6147    1.7883 H   0  0  0  0  0  0
  -32.0051  -41.3011    0.0584 H   0  0  0  0  0  0
  -28.3344  -35.9208    4.9378 H   0  0  0  0  0  0
  -28.8076  -35.9982    7.8387 H   0  0  0  0  0  0
  -30.2145  -34.7058    5.4411 H   0  0  0  0  0  0
  -30.9341  -34.5623    7.0807 H   0  0  0  0  0  0
  -29.1071  -33.3238    7.8733 H   0  0  0  0  0  0
  -28.1275  -33.6923    6.4134 H   0  0  0  0  0  0
  -29.0061  -33.0292    4.2671 H   0  0  0  0  0  0
  -30.0048  -31.4069    4.2378 H   0  0  0  0  0  0
  -30.6909  -36.5482    9.0812 H   0  0  0  0  0  0
  -32.1235  -38.9328    8.1833 H   0  0  0  0  0  0
  -31.9865  -38.1365   10.5738 H   0  0  0  0  0  0
  -33.6848  -38.4726   10.0949 H   0  0  0  0  0  0
  -33.0918  -36.7788   10.1722 H   0  0  0  0  0  0
  -33.9951  -39.4780    7.2125 H   0  0  0  0  0  0
  -35.3334  -37.1281    5.8182 H   0  0  0  0  0  0
  -35.8597  -40.1331    5.5289 H   0  0  0  0  0  0
  -36.4900  -38.8314    4.4634 H   0  0  0  0  0  0
  -32.5910  -37.8972    2.4304 H   0  0  0  0  0  0
  -35.4461  -36.8043    2.6505 H   0  0  0  0  0  0
  -35.9307  -36.4308    8.0167 H   0  0  0  0  0  0
  -38.6246  -37.7106    8.7618 H   0  0  0  0  0  0
  -36.3171  -37.0056   10.6888 H   0  0  0  0  0  0
  -37.6923  -39.6861   10.2750 H   0  0  0  0  0  0
  -36.1702  -39.1933    9.4582 H   0  0  0  0  0  0
  -38.5140  -36.2687   11.6238 H   0  0  0  0  0  0
  -37.7852  -37.6200   12.5564 H   0  0  0  0  0  0
  -39.1431  -37.9395   11.4247 H   0  0  0  0  0  0
  -35.7263  -40.6306   11.3934 H   0  0  0  0  0  0
  -36.5807  -39.4766   12.4728 H   0  0  0  0  0  0
  -35.0586  -38.9838   11.6560 H   0  0  0  0  0  0
  -40.1548  -36.1322    8.7199 H   0  0  0  0  0  0
  -39.2140  -33.2899    9.2833 H   0  0  0  0  0  0
  -41.6696  -34.5547    8.1546 H   0  0  0  0  0  0
  -41.9148  -33.0599    9.1201 H   0  0  0  0  0  0
  -41.5489  -31.9744    7.2041 H   0  0  0  0  0  0
  -39.8135  -32.3708    7.4444 H   0  0  0  0  0  0
  -41.6460  -35.1418    4.9667 H   0  0  0  0  0  0
  -39.0005  -32.6179   11.4017 H   0  0  0  0  0  0
  -40.2621  -34.4006   13.4544 H   0  0  0  0  0  0
  -38.4612  -31.9650   13.5575 H   0  0  0  0  0  0
  -39.2662  -32.5645   15.0471 H   0  0  0  0  0  0
  -38.3014  -34.9060   14.2008 H   0  0  0  0  0  0
  -37.3805  -33.9941   12.0818 H   0  0  0  0  0  0
  -36.1099  -34.7021   13.1359 H   0  0  0  0  0  0
  -36.2982  -32.9188   13.0299 H   0  0  0  0  0  0
  -37.8613  -33.7918   16.3391 H   0  0  0  0  0  0
  -36.5887  -32.7997   15.5499 H   0  0  0  0  0  0
  -36.4005  -34.5830   15.6559 H   0  0  0  0  0  0
  -43.9485  -32.0516   13.8238 H   0  0  0  0  0  0
  -44.1358  -32.5804   16.7658 H   0  0  0  0  0  0
  -45.1717  -33.2489   15.4595 H   0  0  0  0  0  0
  -43.4371  -34.7862   16.8730 H   0  0  0  0  0  0
  -43.8244  -35.0957   15.1465 H   0  0  0  0  0  0
  -41.4522  -34.8857   14.9921 H   0  0  0  0  0  0
  -41.3769  -33.6881   16.3288 H   0  0  0  0  0  0
  -44.9706  -30.1985   14.8029 H   0  0  0  0  0  0
  -43.0963  -28.1520   15.5368 H   0  0  0  0  0  0
  -46.0690  -28.5945   16.0161 H   0  0  0  0  0  0
  -45.2669  -27.1926   16.8021 H   0  0  0  0  0  0
  -46.1575  -26.5567   14.5245 H   0  0  0  0  0  0
  -42.2564  -27.3054   17.4549 H   0  0  0  0  0  0
  -42.2935  -29.1847   19.7139 H   0  0  0  0  0  0
  -44.5671  -27.5200   22.1299 H   0  0  0  0  0  0
  -41.3248  -26.3312   19.3053 H   0  0  0  0  0  0
  -41.2516  -27.1028   20.9257 H   0  0  0  0  0  0
  -39.9158  -28.9567   19.9332 H   0  0  0  0  0  0
  -39.9154  -28.0740   18.3687 H   0  0  0  0  0  0
  -38.8198  -25.6589   22.0767 H   0  0  0  0  0  0
  -39.6995  -27.2215   22.1828 H   0  0  0  0  0  0
  -40.4215  -25.8435   21.2847 H   0  0  0  0  0  0
  1  2  1  0  0  0
  1 83  1  0  0  0
  1 84  1  0  0  0
  1 85  1  0  0  0
  2  3  1  0  0  0
  2  5  1  0  0  0
  2 86  1  0  0  0
  3  4  2  0  0  0
  3 12  1  0  0  0
  5  6  1  0  0  0
  5 87  1  0  0  0
  5 88  1  0  0  0
  6  7  1  0  0  0
  6 89  1  0  0  0
  6 90  1  0  0  0
  7  8  1  0  0  0
  7 91  1  0  0  0
  7 92  1  0  0  0
  8  9  1  0  0  0
  8 93  1  0  0  0
  9 10  2  0  0  0
  9 11  1  0  0  0
 10 94  1  0  0  0
 11 95  1  0  0  0
 11 96  1  0  0  0
 12 13  1  0  0  0
 12 97  1  0  0  0
 13 14  1  0  0  0
 13 16  1  0  0  0
 13 98  1  0  0  0
 14 15  2  0  0  0
 14 21  1  0  0  0
 16 17  1  0  0  0
 16 99  1  0  0  0
 16100  1  0  0  0
 17 18  1  0  0  0
 17101  1  0  0  0
 17102  1  0  0  0
 18 19  2  0  0  0
 18 20  1  0  0  0
 20103  1  0  0  0
 20104  1  0  0  0
 21 22  1  0  0  0
 21105  1  0  0  0
 22 23  1  0  0  0
 22 25  1  0  0  0
 22106  1  0  0  0
 23 24  2  0  0  0
 23 26  1  0  0  0
 25107  1  0  0  0
 25108  1  0  0  0
 25109  1  0  0  0
 26 27  1  0  0  0
 26110  1  0  0  0
 27 28  1  0  0  0
 27 30  1  0  0  0
 27111  1  0  0  0
 28 29  1  0  0  0
 28112  1  0  0  0
 28113  1  0  0  0
 29 32  1  0  0  0
 30 31  2  0  0  0
 30 36  1  0  0  0
 32 33  1  0  0  0
 32 34  1  0  0  0
 32 35  2  0  0  0
 33114  1  0  0  0
 34115  1  0  0  0
 36 37  1  0  0  0
 36116  1  0  0  0
 37 38  1  0  0  0
 37 40  1  0  0  0
 37117  1  0  0  0
 38 39  2  0  0  0
 38 44  1  0  0  0
 40 41  1  0  0  0
 40 42  1  0  0  0
 40118  1  0  0  0
 41 43  1  0  0  0
 41119  1  0  0  0
 41120  1  0  0  0
 42121  1  0  0  0
 42122  1  0  0  0
 42123  1  0  0  0
 43124  1  0  0  0
 43125  1  0  0  0
 43126  1  0  0  0
 44 45  1  0  0  0
 44127  1  0  0  0
 45 46  1  0  0  0
 45 48  1  0  0  0
 45128  1  0  0  0
 46 47  2  0  0  0
 46 53  1  0  0  0
 48 49  1  0  0  0
 48129  1  0  0  0
 48130  1  0  0  0
 49 50  1  0  0  0
 49131  1  0  0  0
 49132  1  0  0  0
 50 51  1  0  0  0
 50 52  2  0  0  0
 51133  1  0  0  0
 53 54  1  0  0  0
 53134  1  0  0  0
 54 55  1  0  0  0
 54 57  1  0  0  0
 54135  1  0  0  0
 55 56  2  0  0  0
 55 61  1  0  0  0
 57 58  1  0  0  0
 57136  1  0  0  0
 57137  1  0  0  0
 58 59  1  0  0  0
 58 60  1  0  0  0
 58138  1  0  0  0
 59139  1  0  0  0
 59140  1  0  0  0
 59141  1  0  0  0
 60142  1  0  0  0
 60143  1  0  0  0
 60144  1  0  0  0
 61 62  1  0  0  0
 61 67  1  0  0  0
 62 63  1  0  0  0
 62 65  1  0  0  0
 62145  1  0  0  0
 63 64  2  0  0  0
 63 68  1  0  0  0
 65 66  1  0  0  0
 65146  1  0  0  0
 65147  1  0  0  0
 66 67  1  0  0  0
 66148  1  0  0  0
 66149  1  0  0  0
 67150  1  0  0  0
 67151  1  0  0  0
 68 69  1  0  0  0
 68152  1  0  0  0
 69 70  1  0  0  0
 69 72  1  0  0  0
 69153  1  0  0  0
 70 71  2  0  0  0
 70 74  1  0  0  0
 72 73  1  0  0  0
 72154  1  0  0  0
 72155  1  0  0  0
 73156  1  0  0  0
 74 75  1  0  0  0
 74157  1  0  0  0
 75 76  1  0  0  0
 75 78  1  0  0  0
 75158  1  0  0  0
 76 77  1  0  0  0
 76 82  2  0  0  0
 77159  1  0  0  0
 78 79  1  0  0  0
 78160  1  0  0  0
 78161  1  0  0  0
 79 80  1  0  0  0
 79162  1  0  0  0
 79163  1  0  0  0
 80 81  1  0  0  0
 81164  1  0  0  0
 81165  1  0  0  0
 81166  1  0  0  0
M  CHG  1   1   1
M  END
> <s_m_source_file>
../3bh8_ligand.sdf

> <i_m_source_file_index>
1

> <s_epik_input>
W0hdL049QyhbTkgyXSlcW05IXVtDSDJdW0NIMl1bQ0gyXVtDQEhdKFtOSDMrXSlDKD1PKVtOSF1bQ0BASF0oW0NIMl1bQ0gyXUMoPU8pW05IMl0pQyg9TylbTkhdW0NAQEhdKFtDSDNdKUMoPU8pW05IXVtDQEBIXShbQ0gyXU9QKD1PKShbT0hdKVtPSF0pQyg9TylbTkhdW0NAQEhdKFtDQEBIXShbQ0gzXSlbQ0gyXVtDSDNdKUMoPU8pW05IXVtDQEBIXShbQ0gyXVtDSDJdQyg9TylbT0hdKUMoPU8pW05IXVtDQEBIXShbQ0gyXVtDSF0oW0NIM10pW0NIM10pQyg9TylOMVtDQEBIXShbQ0gyXVtDSDJdW0NIMl0xKUMoPU8pW05IXVtDQEBIXShbQ0gyXVtPSF0pQyg9TylbTkhdW0NASF0oQyg9TylbT0hdKVtDSDJdW0NIMl1TW0NIM10=

> <s_epik_cmdline>
J2VwaWtfYXBwJywgJy1pbWFlJywgJ2xpZ2FuZF9wcm8ubWFlJywgJy1vbWFlJywgJ2xpZ2FuZF9wcmVwLm1hZScsICctbXMnLCAnMScsICctcGgnLCAnNycsICctcGh0JywgJzAuNScsICctbnQn

> <s_epik_pKa_notes>
Molecule size exceeds maximum supported for generating protonation states

> <s_epik_Chemistry_Notes>
This compound has an imine and may undergo hydrolysis.

$$$$
