3bh9_ligand
                    3D
 Schrodinger Suite 2020-3.
168169  0  0  1  0            999 V2000
  -25.5860  -37.5680    5.7020 N   0  3  0  0  0  0
  -26.9120  -37.3830    5.1240 C   0  0  2  0  0  0
  -27.9460  -37.0770    6.2020 C   0  0  0  0  0  0
  -27.7700  -37.4410    7.3650 O   0  0  0  0  0  0
  -27.3290  -38.6230    4.3310 C   0  0  0  0  0  0
  -28.7570  -38.5770    3.8120 C   0  0  0  0  0  0
  -29.2480  -39.9610    3.4220 C   0  0  0  0  0  0
  -30.5100  -39.9080    2.6900 N   0  0  0  0  0  0
  -30.6120  -40.0050    1.3690 C   0  0  0  0  0  0
  -29.5240  -40.1610    0.6270 N   0  0  0  0  0  0
  -31.8030  -39.9470    0.7880 N   0  0  0  0  0  0
  -29.0250  -36.4080    5.8090 N   0  0  0  0  0  0
  -29.8650  -35.6840    6.7550 C   0  0  2  0  0  0
  -31.1300  -36.4710    7.0830 C   0  0  0  0  0  0
  -31.7250  -37.1000    6.2080 O   0  0  0  0  0  0
  -30.2600  -34.2980    6.2140 C   0  0  2  0  0  0
  -30.1040  -33.3160    7.2460 O   0  0  0  0  0  0
  -31.7050  -34.3030    5.7390 C   0  0  0  0  0  0
  -31.5340  -36.4310    8.3480 N   0  0  0  0  0  0
  -32.7560  -37.0970    8.7830 C   0  0  2  0  0  0
  -33.9070  -36.8200    7.8220 C   0  0  0  0  0  0
  -34.1770  -35.6700    7.4760 O   0  0  0  0  0  0
  -33.1340  -36.6530   10.1970 C   0  0  0  0  0  0
  -34.3390  -37.3700   10.7630 C   0  0  0  0  0  0
  -34.4250  -38.7560   10.7330 C   0  0  0  0  0  0
  -35.3910  -36.6610   11.3280 C   0  0  0  0  0  0
  -35.5240  -39.4150   11.2490 C   0  0  0  0  0  0
  -36.4950  -37.3120   11.8460 C   0  0  0  0  0  0
  -36.5560  -38.6890   11.8040 C   0  0  0  0  0  0
  -37.6530  -39.3410   12.3190 O   0  0  0  0  0  0
  -34.5820  -37.8820    7.3930 N   0  0  0  0  0  0
  -35.7260  -37.7530    6.4590 C   0  0  1  0  0  0
  -35.8320  -38.9600    5.5380 C   0  0  0  0  0  0
  -34.6930  -38.9640    4.7330 O   0  0  0  0  0  0
  -37.0670  -37.4570    7.1040 C   0  0  0  0  0  0
  -38.1030  -37.3800    6.4090 O   0  0  0  0  0  0
  -34.9230  -39.2170    3.1710 P   0  0  0  0  0  0
  -33.5210  -38.9120    2.4880 O   0  0  0  0  0  0
  -36.1190  -38.2880    2.6570 O   0  0  0  0  0  0
  -35.2790  -40.7730    2.9940 O   0  0  0  0  0  0
  -37.0540  -37.2920    8.4220 N   0  0  0  0  0  0
  -38.2020  -36.7040    9.1240 C   0  0  0  0  0  0
  -39.3030  -37.7390    9.2610 C   0  0  0  0  0  0
  -39.0270  -38.9530    9.2320 O   0  0  0  0  0  0
  -40.5550  -37.2740    9.4470 N   0  0  0  0  0  0
  -40.9660  -35.8430    9.5690 C   0  0  2  0  0  0
  -40.3680  -35.1230   10.7850 C   0  0  0  0  0  0
  -40.0840  -35.7660   11.7960 O   0  0  0  0  0  0
  -42.4910  -35.9280    9.7610 C   0  0  0  0  0  0
  -42.7460  -37.3580   10.2610 C   0  0  0  0  0  0
  -41.7010  -38.2010    9.5700 C   0  0  0  0  0  0
  -40.1730  -33.8080   10.6910 N   0  0  0  0  0  0
  -39.7030  -33.0290   11.8460 C   0  0  2  0  0  0
  -40.8780  -32.6140   12.7480 C   0  0  0  0  0  0
  -41.5530  -31.6260   12.4740 O   0  0  0  0  0  0
  -38.9390  -31.7690   11.4160 C   0  0  0  0  0  0
  -37.6360  -31.9710   10.6260 C   0  0  0  0  0  0
  -36.5630  -33.2860   11.2340 S   0  0  0  0  0  0
  -36.2480  -32.8350   12.9400 C   0  0  0  0  0  0
  -41.0850  -33.3380   13.8420 N   0  0  0  0  0  0
  -42.2320  -33.0580   14.7140 C   0  0  2  0  0  0
  -42.0540  -31.7380   15.4660 C   0  0  0  0  0  0
  -40.9870  -31.4910   16.0110 O   0  0  0  0  0  0
  -42.4350  -34.2040   15.6920 C   0  0  0  0  0  0
  -43.3370  -35.2920   15.1290 C   0  0  0  0  0  0
  -43.1150  -35.7880   14.0030 O   0  0  0  0  0  0
  -44.3470  -35.6820   15.9020 N   0  0  0  0  0  0
  -43.0920  -30.8960   15.4830 N   0  0  0  0  0  0
  -43.0530  -29.5950   16.1820 C   0  0  2  0  0  0
  -42.9730  -29.7680   17.6900 C   0  0  0  0  0  0
  -43.5220  -30.7430   18.2330 O   0  0  0  0  0  0
  -44.3300  -28.8010   15.8710 C   0  0  0  0  0  0
  -44.2430  -27.8930   14.6520 C   0  0  0  0  0  0
  -44.0020  -28.6530   13.3860 C   0  0  0  0  0  0
  -44.2990  -27.7700   12.1830 C   0  0  0  0  0  0
  -44.0240  -28.5030   10.9200 N   0  3  0  0  0  0
  -42.3650  -28.8030   18.3860 N   0  0  0  0  0  0
  -42.3320  -28.8570   19.8540 C   0  0  2  0  0  0
  -43.6990  -28.5450   20.4660 C   0  0  0  0  0  0
  -43.9320  -28.8510   21.6510 O   0  0  0  0  0  0
  -41.2300  -27.9590   20.4790 C   0  0  0  0  0  0
  -39.8740  -28.3250   19.8970 C   0  0  0  0  0  0
  -41.5320  -26.4510   20.2950 C   0  0  0  0  0  0
  -44.5660  -27.9870   19.7740 O   0  0  0  0  0  0
  -25.3037  -36.6677    6.2675 H   0  0  0  0  0  0
  -24.8559  -37.7395    4.8973 H   0  0  0  0  0  0
  -25.5982  -38.4363    6.3772 H   0  0  0  0  0  0
  -26.8151  -36.5153    4.4548 H   0  0  0  0  0  0
  -26.6707  -38.7379    3.4572 H   0  0  0  0  0  0
  -27.2462  -39.5131    4.9720 H   0  0  0  0  0  0
  -29.4191  -38.1788    4.5950 H   0  0  0  0  0  0
  -28.8044  -37.9266    2.9261 H   0  0  0  0  0  0
  -28.4992  -40.4483    2.7803 H   0  0  0  0  0  0
  -29.4022  -40.5644    4.3287 H   0  0  0  0  0  0
  -31.4570  -39.7804    3.2349 H   0  0  0  0  0  0
  -28.5345  -40.2096    1.1051 H   0  0  0  0  0  0
  -32.7078  -39.8177    1.4000 H   0  0  0  0  0  0
  -31.8859  -40.0282   -0.3059 H   0  0  0  0  0  0
  -29.2779  -36.4100    4.7385 H   0  0  0  0  0  0
  -29.2321  -35.5875    7.6495 H   0  0  0  0  0  0
  -29.5928  -33.9927    5.3945 H   0  0  0  0  0  0
  -29.1216  -33.1644    7.7170 H   0  0  0  0  0  0
  -31.8279  -35.0560    4.9466 H   0  0  0  0  0  0
  -31.9646  -33.3096    5.3443 H   0  0  0  0  0  0
  -32.3674  -34.5470    6.5826 H   0  0  0  0  0  0
  -30.9208  -35.8776    9.0744 H   0  0  0  0  0  0
  -32.5183  -38.1709    8.7691 H   0  0  0  0  0  0
  -32.2920  -36.8438   10.8786 H   0  0  0  0  0  0
  -33.3668  -35.5779   10.1938 H   0  0  0  0  0  0
  -33.6112  -39.3337   10.2947 H   0  0  0  0  0  0
  -35.3454  -35.5725   11.3636 H   0  0  0  0  0  0
  -35.5748  -40.5034   11.2174 H   0  0  0  0  0  0
  -37.3125  -36.7402   12.2851 H   0  0  0  0  0  0
  -37.7051  -40.4393   12.2872 H   0  0  0  0  0  0
  -34.2719  -38.8755    7.7490 H   0  0  0  0  0  0
  -35.4630  -36.8504    5.8879 H   0  0  0  0  0  0
  -35.8832  -39.8783    6.1414 H   0  0  0  0  0  0
  -36.7404  -38.8738    4.9237 H   0  0  0  0  0  0
  -36.0275  -37.1932    2.7116 H   0  0  0  0  0  0
  -34.5549  -41.5414    3.3025 H   0  0  0  0  0  0
  -36.1641  -37.6041    8.9882 H   0  0  0  0  0  0
  -37.8886  -36.3707   10.1243 H   0  0  0  0  0  0
  -38.5798  -35.8434    8.5524 H   0  0  0  0  0  0
  -40.6108  -35.2951    8.6838 H   0  0  0  0  0  0
  -42.8103  -35.1761   10.4977 H   0  0  0  0  0  0
  -42.9927  -35.7368    8.8009 H   0  0  0  0  0  0
  -42.6363  -37.3889   11.3551 H   0  0  0  0  0  0
  -43.7654  -37.6663    9.9859 H   0  0  0  0  0  0
  -42.0164  -38.5289    8.5685 H   0  0  0  0  0  0
  -41.4022  -39.0764   10.1653 H   0  0  0  0  0  0
  -40.3688  -33.3060    9.7320 H   0  0  0  0  0  0
  -39.0254  -33.7181   12.3713 H   0  0  0  0  0  0
  -39.5815  -31.1535   10.7691 H   0  0  0  0  0  0
  -38.6546  -31.1906   12.3073 H   0  0  0  0  0  0
  -37.8753  -32.2209    9.5818 H   0  0  0  0  0  0
  -37.0425  -31.0453   10.6547 H   0  0  0  0  0  0
  -35.5929  -33.5875   13.4032 H   0  0  0  0  0  0
  -37.2001  -32.7899   13.4891 H   0  0  0  0  0  0
  -35.7578  -31.8509   12.9746 H   0  0  0  0  0  0
  -40.3894  -34.1524   14.0927 H   0  0  0  0  0  0
  -43.1033  -32.9757   14.0477 H   0  0  0  0  0  0
  -41.4623  -34.6585   15.9312 H   0  0  0  0  0  0
  -42.8977  -33.8218   16.6138 H   0  0  0  0  0  0
  -44.4996  -35.2136   16.8855 H   0  0  0  0  0  0
  -45.0296  -36.4729   15.5577 H   0  0  0  0  0  0
  -44.0017  -31.2058   14.9478 H   0  0  0  0  0  0
  -42.1442  -29.0950   15.8158 H   0  0  0  0  0  0
  -45.1596  -29.4990   15.6850 H   0  0  0  0  0  0
  -44.5784  -28.1561   16.7268 H   0  0  0  0  0  0
  -45.1866  -27.3390   14.5394 H   0  0  0  0  0  0
  -43.4138  -27.1821   14.7827 H   0  0  0  0  0  0
  -42.9512  -28.9760   13.3466 H   0  0  0  0  0  0
  -44.6582  -29.5354   13.3575 H   0  0  0  0  0  0
  -45.3575  -27.4712   12.1999 H   0  0  0  0  0  0
  -43.6641  -26.8726   12.2212 H   0  0  0  0  0  0
  -44.2438  -27.8506   10.0621 H   0  0  0  0  0  0
  -44.6590  -29.3998   10.8708 H   0  0  0  0  0  0
  -42.9656  -28.8012   10.8922 H   0  0  0  0  0  0
  -41.8879  -27.9657   17.8556 H   0  0  0  0  0  0
  -42.0835  -29.9111   20.0466 H   0  0  0  0  0  0
  -44.9139  -28.6279   22.0938 H   0  0  0  0  0  0
  -41.1926  -28.1489   21.5618 H   0  0  0  0  0  0
  -39.6901  -29.3996   20.0434 H   0  0  0  0  0  0
  -39.0886  -27.7460   20.4050 H   0  0  0  0  0  0
  -39.8622  -28.0942   18.8216 H   0  0  0  0  0  0
  -42.5174  -26.2192   20.7255 H   0  0  0  0  0  0
  -41.5333  -26.2055   19.2227 H   0  0  0  0  0  0
  -40.7598  -25.8574   20.8061 H   0  0  0  0  0  0
  1  2  1  0  0  0
  1 85  1  0  0  0
  1 86  1  0  0  0
  1 87  1  0  0  0
  2  3  1  0  0  0
  2  5  1  0  0  0
  2 88  1  0  0  0
  3  4  2  0  0  0
  3 12  1  0  0  0
  5  6  1  0  0  0
  5 89  1  0  0  0
  5 90  1  0  0  0
  6  7  1  0  0  0
  6 91  1  0  0  0
  6 92  1  0  0  0
  7  8  1  0  0  0
  7 93  1  0  0  0
  7 94  1  0  0  0
  8  9  1  0  0  0
  8 95  1  0  0  0
  9 10  2  0  0  0
  9 11  1  0  0  0
 10 96  1  0  0  0
 11 97  1  0  0  0
 11 98  1  0  0  0
 12 13  1  0  0  0
 12 99  1  0  0  0
 13 14  1  0  0  0
 13 16  1  0  0  0
 13100  1  0  0  0
 14 15  2  0  0  0
 14 19  1  0  0  0
 16 17  1  0  0  0
 16 18  1  0  0  0
 16101  1  0  0  0
 17102  1  0  0  0
 18103  1  0  0  0
 18104  1  0  0  0
 18105  1  0  0  0
 19 20  1  0  0  0
 19106  1  0  0  0
 20 21  1  0  0  0
 20 23  1  0  0  0
 20107  1  0  0  0
 21 22  2  0  0  0
 21 31  1  0  0  0
 23 24  1  0  0  0
 23108  1  0  0  0
 23109  1  0  0  0
 24 25  2  0  0  0
 24 26  1  0  0  0
 25 27  1  0  0  0
 25110  1  0  0  0
 26 28  2  0  0  0
 26111  1  0  0  0
 27 29  2  0  0  0
 27112  1  0  0  0
 28 29  1  0  0  0
 28113  1  0  0  0
 29 30  1  0  0  0
 30114  1  0  0  0
 31 32  1  0  0  0
 31115  1  0  0  0
 32 33  1  0  0  0
 32 35  1  0  0  0
 32116  1  0  0  0
 33 34  1  0  0  0
 33117  1  0  0  0
 33118  1  0  0  0
 34 37  1  0  0  0
 35 36  2  0  0  0
 35 41  1  0  0  0
 37 38  2  0  0  0
 37 39  1  0  0  0
 37 40  1  0  0  0
 39119  1  0  0  0
 40120  1  0  0  0
 41 42  1  0  0  0
 41121  1  0  0  0
 42 43  1  0  0  0
 42122  1  0  0  0
 42123  1  0  0  0
 43 44  2  0  0  0
 43 45  1  0  0  0
 45 46  1  0  0  0
 45 51  1  0  0  0
 46 47  1  0  0  0
 46 49  1  0  0  0
 46124  1  0  0  0
 47 48  2  0  0  0
 47 52  1  0  0  0
 49 50  1  0  0  0
 49125  1  0  0  0
 49126  1  0  0  0
 50 51  1  0  0  0
 50127  1  0  0  0
 50128  1  0  0  0
 51129  1  0  0  0
 51130  1  0  0  0
 52 53  1  0  0  0
 52131  1  0  0  0
 53 54  1  0  0  0
 53 56  1  0  0  0
 53132  1  0  0  0
 54 55  2  0  0  0
 54 60  1  0  0  0
 56 57  1  0  0  0
 56133  1  0  0  0
 56134  1  0  0  0
 57 58  1  0  0  0
 57135  1  0  0  0
 57136  1  0  0  0
 58 59  1  0  0  0
 59137  1  0  0  0
 59138  1  0  0  0
 59139  1  0  0  0
 60 61  1  0  0  0
 60140  1  0  0  0
 61 62  1  0  0  0
 61 64  1  0  0  0
 61141  1  0  0  0
 62 63  2  0  0  0
 62 68  1  0  0  0
 64 65  1  0  0  0
 64142  1  0  0  0
 64143  1  0  0  0
 65 66  2  0  0  0
 65 67  1  0  0  0
 67144  1  0  0  0
 67145  1  0  0  0
 68 69  1  0  0  0
 68146  1  0  0  0
 69 70  1  0  0  0
 69 72  1  0  0  0
 69147  1  0  0  0
 70 71  2  0  0  0
 70 77  1  0  0  0
 72 73  1  0  0  0
 72148  1  0  0  0
 72149  1  0  0  0
 73 74  1  0  0  0
 73150  1  0  0  0
 73151  1  0  0  0
 74 75  1  0  0  0
 74152  1  0  0  0
 74153  1  0  0  0
 75 76  1  0  0  0
 75154  1  0  0  0
 75155  1  0  0  0
 76156  1  0  0  0
 76157  1  0  0  0
 76158  1  0  0  0
 77 78  1  0  0  0
 77159  1  0  0  0
 78 79  1  0  0  0
 78 81  1  0  0  0
 78160  1  0  0  0
 79 80  1  0  0  0
 79 84  2  0  0  0
 80161  1  0  0  0
 81 82  1  0  0  0
 81 83  1  0  0  0
 81162  1  0  0  0
 82163  1  0  0  0
 82164  1  0  0  0
 82165  1  0  0  0
 83166  1  0  0  0
 83167  1  0  0  0
 83168  1  0  0  0
M  CHG  2   1   1  76   1
M  END
> <s_m_source_file>
../3bh9_ligand.sdf

> <i_m_source_file_index>
1

> <s_epik_input>
W0hdL049QyhbTkgyXSlcW05IXVtDSDJdW0NIMl1bQ0gyXVtDQEhdKFtOSDMrXSlDKD1PKVtOSF1bQ0BASF0oW0NASF0oW09IXSlbQ0gzXSlDKD1PKVtOSF1bQ0BASF0oW0NIMl1jMVtjSF1bY0hdYyhbT0hdKVtjSF1bY0hdMSlDKD1PKVtOSF1bQ0BASF0oW0NIMl1PUCg9TykoW09IXSlbT0hdKUMoPU8pW05IXVtDSDJdQyg9TylOMltDQEBIXShbQ0gyXVtDSDJdW0NIMl0yKUMoPU8pW05IXVtDQEBIXShbQ0gyXVtDSDJdU1tDSDNdKUMoPU8pW05IXVtDQEBIXShbQ0gyXUMoPU8pW05IMl0pQyg9TylbTkhdW0NASF0oQyg9TylbTkhdW0NASF0oQyg9TylbT0hdKVtDSF0oW0NIM10pW0NIM10pW0NIMl1bQ0gyXVtDSDJdW0NIMl1bTkgzK10=

> <s_epik_cmdline>
J2VwaWtfYXBwJywgJy1pbWFlJywgJ2xpZ2FuZF9wcm8ubWFlJywgJy1vbWFlJywgJ2xpZ2FuZF9wcmVwLm1hZScsICctbXMnLCAnMScsICctcGgnLCAnNycsICctcGh0JywgJzAuNScsICctbnQn

> <s_epik_pKa_notes>
Molecule size exceeds maximum supported for generating protonation states

> <s_epik_Chemistry_Notes>
This compound has an imine and may undergo hydrolysis.

$$$$
