3bhb_ligand
                    3D
 Schrodinger Suite 2020-3.
177177  0  0  1  0            999 V2000
    0.9580   -1.4250   35.3010 N   0  3  0  0  0  0
    0.8610   -2.7270   36.0230 C   0  0  2  0  0  0
    0.1270   -3.7370   35.1500 C   0  0  0  0  0  0
   -0.8600   -3.3980   34.4940 O   0  0  0  0  0  0
    0.1390   -2.5560   37.3720 C   0  0  0  0  0  0
    0.1000   -3.8250   38.2390 C   0  0  0  0  0  0
    0.0200   -3.5590   39.7470 C   0  0  0  0  0  0
   -1.3770   -3.1640   40.2240 C   0  0  0  0  0  0
   -2.4620   -4.1440   39.9600 N   0  3  0  0  0  0
    0.6340   -4.9700   35.1390 N   0  0  0  0  0  0
    0.0410   -6.0600   34.3650 C   0  0  2  0  0  0
   -1.2780   -6.5430   34.9540 C   0  0  0  0  0  0
   -1.5640   -6.3350   36.1410 O   0  0  0  0  0  0
    0.9830   -7.2600   34.2910 C   0  0  0  0  0  0
    2.2290   -7.0820   33.4530 C   0  0  0  0  0  0
    3.0800   -8.6450   33.1940 S   0  0  0  0  0  0
    3.6100   -8.9290   34.7520 C   0  0  0  0  0  0
   -2.0640   -7.2010   34.1000 N   0  0  0  0  0  0
   -3.3580   -7.7820   34.4570 C   0  0  2  0  0  0
   -3.0960   -8.9140   35.4350 C   0  0  0  0  0  0
   -2.2440   -9.7690   35.1850 O   0  0  0  0  0  0
   -4.0440   -8.3340   33.1940 C   0  0  0  0  0  0
   -5.5570   -8.5280   33.3530 C   0  0  0  0  0  0
   -6.0750   -8.6000   34.4940 O   0  0  0  0  0  0
   -6.2390   -8.5860   32.3050 O   0  0  0  0  0  0
   -3.8150   -8.8860   36.5540 N   0  0  0  0  0  0
   -3.6750   -9.9080   37.5810 C   0  0  1  0  0  0
   -3.9320   -9.3010   38.9620 C   0  0  0  0  0  0
   -2.7430   -8.6310   39.3610 O   0  0  0  0  0  0
   -4.4800  -11.1880   37.3080 C   0  0  0  0  0  0
   -4.3670  -12.1710   38.0460 O   0  0  0  0  0  0
   -2.9680   -7.6220   40.5990 P   0  0  0  0  0  0
   -4.0380   -6.4880   40.1960 O   0  0  0  0  0  0
   -1.5630   -6.9230   40.9650 O   0  0  0  0  0  0
   -3.5080   -8.4400   41.8750 O   0  0  0  0  0  0
   -5.2350  -11.1820   36.2040 N   0  0  0  0  0  0
   -6.0160  -12.3440   35.7640 C   0  0  2  0  0  0
   -5.0790  -13.1640   34.8640 C   0  0  0  0  0  0
   -4.7150  -12.7380   33.7630 O   0  0  0  0  0  0
   -7.2880  -11.9250   35.0090 C   0  0  0  0  0  0
   -8.1830  -13.0850   34.6360 C   0  0  0  0  0  0
   -8.8640  -13.8150   35.6300 C   0  0  0  0  0  0
   -8.2980  -13.4930   33.2960 C   0  0  0  0  0  0
   -9.6490  -14.9500   35.2950 C   0  0  0  0  0  0
   -9.0780  -14.6240   32.9360 C   0  0  0  0  0  0
   -9.7550  -15.3570   33.9390 C   0  0  0  0  0  0
   -4.6900  -14.3340   35.3630 N   0  0  0  0  0  0
   -3.7480  -15.2220   34.6850 C   0  0  2  0  0  0
   -4.3230  -16.5230   34.1340 C   0  0  0  0  0  0
   -3.6250  -17.2400   33.4190 O   0  0  0  0  0  0
   -2.6100  -15.5750   35.6620 C   0  0  0  0  0  0
   -1.9770  -14.4660   36.5140 C   0  0  0  0  0  0
   -1.0860  -15.0510   37.6000 C   0  0  0  0  0  0
   -1.2210  -13.4960   35.6250 C   0  0  0  0  0  0
   -5.5810  -16.8210   34.4550 N   0  0  0  0  0  0
   -6.2210  -18.0720   34.0320 C   0  0  2  0  0  0
   -6.7930  -18.0760   32.6040 C   0  0  0  0  0  0
   -8.0090  -18.1820   32.3980 O   0  0  0  0  0  0
   -7.2770  -18.4960   35.0720 C   0  0  0  0  0  0
   -6.6980  -18.6240   36.4810 C   0  0  0  0  0  0
   -5.5890  -19.1890   36.6410 O   0  0  0  0  0  0
   -7.3490  -18.1440   37.4320 O   0  0  0  0  0  0
   -5.8810  -17.9900   31.6300 N   0  0  0  0  0  0
   -6.1940  -17.9610   30.1940 C   0  0  2  0  0  0
   -5.2490  -18.8440   29.3850 C   0  0  0  0  0  0
   -4.0890  -18.4880   29.1780 O   0  0  0  0  0  0
   -6.0400  -16.5470   29.6410 C   0  0  0  0  0  0
   -7.2190  -15.6540   29.7750 C   0  0  0  0  0  0
   -6.8090  -14.0290   29.1370 S   0  0  0  0  0  0
   -5.9140  -13.4190   30.5560 C   0  0  0  0  0  0
   -5.7570  -19.9720   28.8990 N   0  0  0  0  0  0
   -4.9650  -20.8900   28.0820 C   0  0  2  0  0  0
   -5.6630  -21.0590   26.7390 C   0  0  0  0  0  0
   -6.8900  -21.1300   26.6860 O   0  0  0  0  0  0
   -4.8220  -22.2520   28.7660 C   0  0  0  0  0  0
   -3.8830  -22.2750   29.9740 C   0  0  0  0  0  0
   -3.8670  -23.6250   30.6720 C   0  0  0  0  0  0
   -3.5870  -24.6510   30.0540 O   0  0  0  0  0  0
   -4.1630  -23.6280   31.9670 N   0  0  0  0  0  0
   -4.8830  -21.1080   25.6600 N   0  0  0  0  0  0
   -5.4310  -21.2760   24.3130 C   0  0  2  0  0  0
   -6.0390  -22.6660   24.0500 C   0  0  0  0  0  0
   -6.8900  -22.7560   23.1400 O   0  0  0  0  0  0
   -4.3790  -20.9450   23.2430 C   0  0  0  0  0  0
   -3.8030  -19.5220   23.1600 C   0  0  0  0  0  0
   -2.6820  -19.5000   22.1470 C   0  0  0  0  0  0
   -4.8360  -18.4840   22.8030 C   0  0  0  0  0  0
   -5.6980  -23.6360   24.7750 O   0  0  0  0  0  0
    1.4768   -1.5749   34.3427 H   0  0  0  0  0  0
    1.5214   -0.7066   35.9145 H   0  0  0  0  0  0
   -0.0527   -1.0336   35.1135 H   0  0  0  0  0  0
    1.8873   -3.0766   36.2088 H   0  0  0  0  0  0
    0.6464   -1.7797   37.9636 H   0  0  0  0  0  0
   -0.9047   -2.2578   37.1941 H   0  0  0  0  0  0
   -0.7825   -4.4248   37.9716 H   0  0  0  0  0  0
    1.0113   -4.4160   38.0652 H   0  0  0  0  0  0
    0.3102   -4.4673   40.2954 H   0  0  0  0  0  0
    0.7022   -2.7375   40.0111 H   0  0  0  0  0  0
   -1.3633   -3.0128   41.3135 H   0  0  0  0  0  0
   -1.6836   -2.2312   39.7282 H   0  0  0  0  0  0
   -3.4137   -3.7503   40.3464 H   0  0  0  0  0  0
   -2.2277   -5.0945   40.4617 H   0  0  0  0  0  0
   -2.5479   -4.3128   38.8764 H   0  0  0  0  0  0
    1.5347   -5.1515   35.7438 H   0  0  0  0  0  0
   -0.1246   -5.6055   33.3771 H   0  0  0  0  0  0
    1.3323   -7.5149   35.3025 H   0  0  0  0  0  0
    0.4487   -8.1196   33.8602 H   0  0  0  0  0  0
    1.9546   -6.6688   32.4712 H   0  0  0  0  0  0
    2.9176   -6.3915   33.9619 H   0  0  0  0  0  0
    4.1692   -9.8758   34.7822 H   0  0  0  0  0  0
    2.7444   -8.9927   35.4278 H   0  0  0  0  0  0
    4.2654   -8.1056   35.0721 H   0  0  0  0  0  0
   -1.6844   -7.2937   33.0717 H   0  0  0  0  0  0
   -3.9776   -6.9965   34.9142 H   0  0  0  0  0  0
   -3.8881   -7.6367   32.3576 H   0  0  0  0  0  0
   -3.6119   -9.3133   32.9403 H   0  0  0  0  0  0
   -7.1613   -8.7392   34.5971 H   0  0  0  0  0  0
   -4.5303   -8.0618   36.6921 H   0  0  0  0  0  0
   -2.6208  -10.2141   37.5100 H   0  0  0  0  0  0
   -4.7710   -8.5922   38.9006 H   0  0  0  0  0  0
   -4.1799  -10.1018   39.6742 H   0  0  0  0  0  0
   -3.8404   -5.8243   39.3413 H   0  0  0  0  0  0
   -1.0377   -6.3167   40.2123 H   0  0  0  0  0  0
   -5.2544  -10.2520   35.6169 H   0  0  0  0  0  0
   -6.3428  -12.9015   36.6542 H   0  0  0  0  0  0
   -7.8799  -11.2436   35.6378 H   0  0  0  0  0  0
   -7.0089  -11.4135   34.0760 H   0  0  0  0  0  0
   -8.7872  -13.5040   36.6719 H   0  0  0  0  0  0
   -7.7793  -12.9314   32.5191 H   0  0  0  0  0  0
  -10.1679  -15.5063   36.0756 H   0  0  0  0  0  0
   -9.1547  -14.9260   31.8915 H   0  0  0  0  0  0
  -10.3537  -16.2280   33.6726 H   0  0  0  0  0  0
   -5.1145  -14.6221   36.3360 H   0  0  0  0  0  0
   -3.4494  -14.6185   33.8152 H   0  0  0  0  0  0
   -2.9722  -16.3090   36.3969 H   0  0  0  0  0  0
   -1.7655  -16.0029   35.1020 H   0  0  0  0  0  0
   -2.7694  -13.9002   37.0259 H   0  0  0  0  0  0
   -1.6714  -15.7463   38.2195 H   0  0  0  0  0  0
   -0.6948  -14.2388   38.2303 H   0  0  0  0  0  0
   -0.2477  -15.5908   37.1352 H   0  0  0  0  0  0
   -1.8997  -13.0979   34.8564 H   0  0  0  0  0  0
   -0.3841  -14.0195   35.1396 H   0  0  0  0  0  0
   -0.8311  -12.6675   36.2346 H   0  0  0  0  0  0
   -6.1427  -16.0923   35.0579 H   0  0  0  0  0  0
   -5.3761  -18.7758   34.0021 H   0  0  0  0  0  0
   -8.0811  -17.7461   35.1047 H   0  0  0  0  0  0
   -7.6976  -19.4726   34.7903 H   0  0  0  0  0  0
   -5.1622  -19.2871   37.6501 H   0  0  0  0  0  0
   -4.8348  -17.9394   31.9660 H   0  0  0  0  0  0
   -7.2292  -18.3290   30.1397 H   0  0  0  0  0  0
   -5.2152  -16.0377   30.1610 H   0  0  0  0  0  0
   -5.8198  -16.5963   28.5644 H   0  0  0  0  0  0
   -8.0618  -16.0713   29.2044 H   0  0  0  0  0  0
   -7.4988  -15.5728   30.8357 H   0  0  0  0  0  0
   -5.5650  -12.3950   30.3569 H   0  0  0  0  0  0
   -5.0490  -14.0698   30.7514 H   0  0  0  0  0  0
   -6.5766  -13.4163   31.4340 H   0  0  0  0  0  0
   -6.8070  -20.2061   29.1284 H   0  0  0  0  0  0
   -3.9695  -20.4369   27.9652 H   0  0  0  0  0  0
   -5.8061  -22.5865   29.1262 H   0  0  0  0  0  0
   -4.4267  -22.9840   28.0464 H   0  0  0  0  0  0
   -2.8574  -22.0511   29.6455 H   0  0  0  0  0  0
   -4.2071  -21.5194   30.7048 H   0  0  0  0  0  0
   -4.4072  -22.6848   32.4775 H   0  0  0  0  0  0
   -4.1639  -24.5737   32.5288 H   0  0  0  0  0  0
   -3.7962  -21.0178   25.8044 H   0  0  0  0  0  0
   -6.2493  -20.5410   24.3015 H   0  0  0  0  0  0
   -3.4964  -21.5857   23.3860 H   0  0  0  0  0  0
   -4.8034  -21.1233   22.2440 H   0  0  0  0  0  0
   -3.4259  -19.2415   24.1545 H   0  0  0  0  0  0
   -1.9321  -20.2594   22.4134 H   0  0  0  0  0  0
   -2.2114  -18.5058   22.1425 H   0  0  0  0  0  0
   -3.0865  -19.7188   21.1477 H   0  0  0  0  0  0
   -5.6486  -18.5054   23.5440 H   0  0  0  0  0  0
   -5.2441  -18.7011   21.8048 H   0  0  0  0  0  0
   -4.3690  -17.4880   22.7996 H   0  0  0  0  0  0
   -6.1259  -24.6334   24.5962 H   0  0  0  0  0  0
  1  2  1  0  0  0
  1 89  1  0  0  0
  1 90  1  0  0  0
  1 91  1  0  0  0
  2  3  1  0  0  0
  2  5  1  0  0  0
  2 92  1  0  0  0
  3  4  2  0  0  0
  3 10  1  0  0  0
  5  6  1  0  0  0
  5 93  1  0  0  0
  5 94  1  0  0  0
  6  7  1  0  0  0
  6 95  1  0  0  0
  6 96  1  0  0  0
  7  8  1  0  0  0
  7 97  1  0  0  0
  7 98  1  0  0  0
  8  9  1  0  0  0
  8 99  1  0  0  0
  8100  1  0  0  0
  9101  1  0  0  0
  9102  1  0  0  0
  9103  1  0  0  0
 10 11  1  0  0  0
 10104  1  0  0  0
 11 12  1  0  0  0
 11 14  1  0  0  0
 11105  1  0  0  0
 12 13  2  0  0  0
 12 18  1  0  0  0
 14 15  1  0  0  0
 14106  1  0  0  0
 14107  1  0  0  0
 15 16  1  0  0  0
 15108  1  0  0  0
 15109  1  0  0  0
 16 17  1  0  0  0
 17110  1  0  0  0
 17111  1  0  0  0
 17112  1  0  0  0
 18 19  1  0  0  0
 18113  1  0  0  0
 19 20  1  0  0  0
 19 22  1  0  0  0
 19114  1  0  0  0
 20 21  2  0  0  0
 20 26  1  0  0  0
 22 23  1  0  0  0
 22115  1  0  0  0
 22116  1  0  0  0
 23 24  1  0  0  0
 23 25  2  0  0  0
 24117  1  0  0  0
 26 27  1  0  0  0
 26118  1  0  0  0
 27 28  1  0  0  0
 27 30  1  0  0  0
 27119  1  0  0  0
 28 29  1  0  0  0
 28120  1  0  0  0
 28121  1  0  0  0
 29 32  1  0  0  0
 30 31  2  0  0  0
 30 36  1  0  0  0
 32 33  1  0  0  0
 32 34  1  0  0  0
 32 35  2  0  0  0
 33122  1  0  0  0
 34123  1  0  0  0
 36 37  1  0  0  0
 36124  1  0  0  0
 37 38  1  0  0  0
 37 40  1  0  0  0
 37125  1  0  0  0
 38 39  2  0  0  0
 38 47  1  0  0  0
 40 41  1  0  0  0
 40126  1  0  0  0
 40127  1  0  0  0
 41 42  2  0  0  0
 41 43  1  0  0  0
 42 44  1  0  0  0
 42128  1  0  0  0
 43 45  2  0  0  0
 43129  1  0  0  0
 44 46  2  0  0  0
 44130  1  0  0  0
 45 46  1  0  0  0
 45131  1  0  0  0
 46132  1  0  0  0
 47 48  1  0  0  0
 47133  1  0  0  0
 48 49  1  0  0  0
 48 51  1  0  0  0
 48134  1  0  0  0
 49 50  2  0  0  0
 49 55  1  0  0  0
 51 52  1  0  0  0
 51135  1  0  0  0
 51136  1  0  0  0
 52 53  1  0  0  0
 52 54  1  0  0  0
 52137  1  0  0  0
 53138  1  0  0  0
 53139  1  0  0  0
 53140  1  0  0  0
 54141  1  0  0  0
 54142  1  0  0  0
 54143  1  0  0  0
 55 56  1  0  0  0
 55144  1  0  0  0
 56 57  1  0  0  0
 56 59  1  0  0  0
 56145  1  0  0  0
 57 58  2  0  0  0
 57 63  1  0  0  0
 59 60  1  0  0  0
 59146  1  0  0  0
 59147  1  0  0  0
 60 61  1  0  0  0
 60 62  2  0  0  0
 61148  1  0  0  0
 63 64  1  0  0  0
 63149  1  0  0  0
 64 65  1  0  0  0
 64 67  1  0  0  0
 64150  1  0  0  0
 65 66  2  0  0  0
 65 71  1  0  0  0
 67 68  1  0  0  0
 67151  1  0  0  0
 67152  1  0  0  0
 68 69  1  0  0  0
 68153  1  0  0  0
 68154  1  0  0  0
 69 70  1  0  0  0
 70155  1  0  0  0
 70156  1  0  0  0
 70157  1  0  0  0
 71 72  1  0  0  0
 71158  1  0  0  0
 72 73  1  0  0  0
 72 75  1  0  0  0
 72159  1  0  0  0
 73 74  2  0  0  0
 73 80  1  0  0  0
 75 76  1  0  0  0
 75160  1  0  0  0
 75161  1  0  0  0
 76 77  1  0  0  0
 76162  1  0  0  0
 76163  1  0  0  0
 77 78  2  0  0  0
 77 79  1  0  0  0
 79164  1  0  0  0
 79165  1  0  0  0
 80 81  1  0  0  0
 80166  1  0  0  0
 81 82  1  0  0  0
 81 84  1  0  0  0
 81167  1  0  0  0
 82 83  2  0  0  0
 82 88  1  0  0  0
 84 85  1  0  0  0
 84168  1  0  0  0
 84169  1  0  0  0
 85 86  1  0  0  0
 85 87  1  0  0  0
 85170  1  0  0  0
 86171  1  0  0  0
 86172  1  0  0  0
 86173  1  0  0  0
 87174  1  0  0  0
 87175  1  0  0  0
 87176  1  0  0  0
 88177  1  0  0  0
M  CHG  2   1   1   9   1
M  END
> <s_m_source_file>
../3bhb_ligand.sdf

> <i_m_source_file_index>
1

> <s_epik_input>
W05IMytdW0NIMl1bQ0gyXVtDSDJdW0NIMl1bQ0BIXShbTkgzK10pQyg9TylbTkhdW0NAQEhdKFtDSDJdW0NIMl1TW0NIM10pQyg9TylbTkhdW0NAQEhdKFtDSDJdQyg9TylbT0hdKUMoPU8pW05IXVtDQEBIXShbQ0gyXU9QKD1PKShbT0hdKVtPSF0pQyg9TylbTkhdW0NAQEhdKFtDSDJdYzFbY0hdW2NIXVtjSF1bY0hdW2NIXTEpQyg9TylbTkhdW0NAQEhdKFtDSDJdW0NIXShbQ0gzXSlbQ0gzXSlDKD1PKVtOSF1bQ0BASF0oW0NIMl1DKD1PKVtPSF0pQyg9TylbTkhdW0NAQEhdKFtDSDJdW0NIMl1TW0NIM10pQyg9TylbTkhdW0NAQEhdKFtDSDJdW0NIMl1DKD1PKVtOSDJdKUMoPU8pW05IXVtDQEhdKEMoPU8pW09IXSlbQ0gyXVtDSF0oW0NIM10pW0NIM10=

> <s_epik_cmdline>
J2VwaWtfYXBwJywgJy1pbWFlJywgJ2xpZ2FuZF9wcm8ubWFlJywgJy1vbWFlJywgJ2xpZ2FuZF9wcmVwLm1hZScsICctbXMnLCAnMScsICctcGgnLCAnNycsICctcGh0JywgJzAuNScsICctbnQn

> <s_epik_pKa_notes>
Molecule size exceeds maximum supported for generating protonation states

$$$$
