3bhx_ligand
                    3D
 Schrodinger Suite 2020-3.
 29 28  0  0  1  0            999 V2000
   19.6910   46.9650   46.2160 O   0  0  0  0  0  0
   19.8820   46.9110   44.9880 C   0  0  0  0  0  0
   20.4650   47.8730   44.4470 O   0  5  0  0  0  0
   19.3970   45.7670   44.0590 C   0  0  0  0  0  0
   18.6770   44.7510   44.8520 C   0  0  0  0  0  0
   17.5140   43.8580   43.8400 P   0  0  1  0  0  0
   18.2360   42.9430   42.8000 O   0  5  0  0  0  0
   16.7070   43.0670   44.7860 O   0  0  0  0  0  0
   16.3170   44.9200   42.9990 C   0  0  0  0  0  0
   15.9010   44.4150   41.5800 C   0  0  2  0  0  0
   17.0720   44.5110   40.5970 C   0  0  0  0  0  0
   17.9830   45.3720   40.7240 O   0  0  0  0  0  0
   17.0940   43.6960   39.5810 O   0  5  0  0  0  0
   14.6720   45.1840   40.9650 C   0  0  0  0  0  0
   14.9820   46.6890   41.0340 C   0  0  0  0  0  0
   13.9080   47.5000   40.3570 C   0  0  0  0  0  0
   13.1300   46.9540   39.5330 O   0  5  0  0  0  0
   13.9030   48.7330   40.5890 O   0  0  0  0  0  0
   18.7215   46.1774   43.2940 H   0  0  0  0  0  0
   20.2642   45.2994   43.5697 H   0  0  0  0  0  0
   19.3988   44.0363   45.2743 H   0  0  0  0  0  0
   18.1287   45.2439   45.6683 H   0  0  0  0  0  0
   15.3986   44.9856   43.6009 H   0  0  0  0  0  0
   16.7446   45.9255   42.8718 H   0  0  0  0  0  0
   15.6251   43.3591   41.7180 H   0  0  0  0  0  0
   14.5283   44.8700   39.9206 H   0  0  0  0  0  0
   13.7667   44.9523   41.5454 H   0  0  0  0  0  0
   15.0462   47.0022   42.0865 H   0  0  0  0  0  0
   15.9404   46.8893   40.5327 H   0  0  0  0  0  0
  1  2  2  0  0  0
  2  3  1  0  0  0
  2  4  1  0  0  0
  4  5  1  0  0  0
  4 19  1  0  0  0
  4 20  1  0  0  0
  5  6  1  0  0  0
  5 21  1  0  0  0
  5 22  1  0  0  0
  6  7  1  0  0  0
  6  8  2  0  0  0
  6  9  1  0  0  0
  9 10  1  0  0  0
  9 23  1  0  0  0
  9 24  1  0  0  0
 10 11  1  0  0  0
 10 14  1  0  0  0
 10 25  1  0  0  0
 11 12  2  0  0  0
 11 13  1  0  0  0
 14 15  1  0  0  0
 14 26  1  0  0  0
 14 27  1  0  0  0
 15 16  1  0  0  0
 15 28  1  0  0  0
 15 29  1  0  0  0
 16 17  1  0  0  0
 16 18  2  0  0  0
M  CHG  4   3  -1   7  -1  13  -1  17  -1
M  END
> <s_m_source_file>
../3bhx_ligand.sdf

> <i_m_source_file_index>
1

> <s_epik_input>
Tz1DKFtPSF0pW0NIMl1bQ0gyXVtQQF0oPU8pKFtPSF0pW0NIMl1bQ0BIXShDKD1PKVtPSF0pW0NIMl1bQ0gyXUMoPU8pW09IXQ==

> <s_epik_cmdline>
J2VwaWtfYXBwJywgJy1pbWFlJywgJ2xpZ2FuZF9wcm8ubWFlJywgJy1vbWFlJywgJ2xpZ2FuZF9wcmVwLm1hZScsICctbXMnLCAnMScsICctcGgnLCAnNycsICctcGh0JywgJzAuNScsICctbnQn

> <r_lp_tautomer_probability>
1

> <r_epik_Ionization_Penalty>
  0.0145

> <r_epik_Ionization_Penalty_Charging>
  0.0145

> <r_epik_Ionization_Penalty_Neutral>
  0.0000

> <r_epik_State_Penalty>
 -0.0000

> <r_epik_Charging_Adjusted_Penalty>
0.0144853074689409

> <i_epik_Tot_Q>
-4

> <i_epik_Tot_abs_Q>
4

$$$$
