3bi0_ligand
                    3D
 Schrodinger Suite 2020-3.
 35 34  0  0  1  0            999 V2000
   20.6530   46.6800   44.2620 C   0  0  2  0  0  0
   18.8110   44.9500   44.6870 C   0  0  0  0  0  0
   20.4040   47.0840   45.6850 C   0  0  0  0  0  0
   19.5020   45.8290   43.6730 C   0  0  0  0  0  0
   16.3820   45.1160   42.9370 C   0  0  0  0  0  0
   20.9880   46.4780   46.5960 O   0  5  0  0  0  0
   13.0800   47.1290   39.5810 O   0  5  0  0  0  0
   13.9210   47.6830   40.3260 C   0  0  0  0  0  0
   13.8880   48.9150   40.5370 O   0  0  0  0  0  0
   15.0220   46.8980   41.0680 C   0  0  0  0  0  0
   14.7730   45.3950   40.9220 C   0  0  0  0  0  0
   15.9580   44.5710   41.5140 C   0  0  1  0  0  0
   17.0890   44.6320   40.4990 C   0  0  0  0  0  0
   17.0920   43.8530   39.4850 O   0  5  0  0  0  0
   17.9720   45.4820   40.6520 O   0  0  0  0  0  0
   17.5820   43.9970   43.7870 P   0  0  1  0  0  0
   18.2850   43.1170   42.6950 O   0  5  0  0  0  0
   16.7770   43.2200   44.7730 O   0  0  0  0  0  0
   21.8660   45.8660   44.3100 N   0  3  0  0  0  0
   19.6350   47.9720   45.9510 O   0  0  0  0  0  0
   20.7857   47.5748   43.6361 H   0  0  0  0  0  0
   19.5498   44.2880   45.1624 H   0  0  0  0  0  0
   18.3353   45.5790   45.4539 H   0  0  0  0  0  0
   18.7377   46.4932   43.2432 H   0  0  0  0  0  0
   19.8986   45.1696   42.8869 H   0  0  0  0  0  0
   16.8560   46.1024   42.8255 H   0  0  0  0  0  0
   15.4907   45.2076   43.5751 H   0  0  0  0  0  0
   16.0033   47.1480   40.6385 H   0  0  0  0  0  0
   15.0091   47.1674   42.1344 H   0  0  0  0  0  0
   13.8518   45.1222   41.4577 H   0  0  0  0  0  0
   14.6660   45.1428   39.8567 H   0  0  0  0  0  0
   15.6846   43.5142   41.6500 H   0  0  0  0  0  0
   22.6911   46.4618   44.7275 H   0  0  0  0  0  0
   22.1282   45.5384   43.2932 H   0  0  0  0  0  0
   21.6916   44.9852   44.9455 H   0  0  0  0  0  0
  1  3  1  0  0  0
  1  4  1  0  0  0
  1 19  1  0  0  0
  1 21  1  0  0  0
  2  4  1  0  0  0
  2 16  1  0  0  0
  2 22  1  0  0  0
  2 23  1  0  0  0
  3  6  1  0  0  0
  3 20  2  0  0  0
  4 24  1  0  0  0
  4 25  1  0  0  0
  5 12  1  0  0  0
  5 16  1  0  0  0
  5 26  1  0  0  0
  5 27  1  0  0  0
  7  8  1  0  0  0
  8  9  2  0  0  0
  8 10  1  0  0  0
 10 11  1  0  0  0
 10 28  1  0  0  0
 10 29  1  0  0  0
 11 12  1  0  0  0
 11 30  1  0  0  0
 11 31  1  0  0  0
 12 13  1  0  0  0
 12 32  1  0  0  0
 13 14  1  0  0  0
 13 15  2  0  0  0
 16 17  1  0  0  0
 16 18  2  0  0  0
 19 33  1  0  0  0
 19 34  1  0  0  0
 19 35  1  0  0  0
M  CHG  5   6  -1   7  -1  14  -1  17  -1  19   1
M  END
> <s_m_source_file>
../3bi0_ligand.sdf

> <i_m_source_file_index>
1

> <s_epik_input>
W09IXUMoPU8pW0NAQEhdKFtOSDMrXSlbQ0gyXVtDSDJdW1BAXSg9TykoW09IXSlbQ0gyXVtDQEhdKEMoPU8pW09IXSlbQ0gyXVtDSDJdQyg9TylbT0hd

> <s_epik_cmdline>
J2VwaWtfYXBwJywgJy1pbWFlJywgJ2xpZ2FuZF9wcm8ubWFlJywgJy1vbWFlJywgJ2xpZ2FuZF9wcmVwLm1hZScsICctbXMnLCAnMScsICctcGgnLCAnNycsICctcGh0JywgJzAuNScsICctbnQn

> <r_lp_tautomer_probability>
1

> <r_epik_Ionization_Penalty>
  0.0107

> <r_epik_Ionization_Penalty_Charging>
  0.0107

> <r_epik_Ionization_Penalty_Neutral>
  0.0000

> <r_epik_State_Penalty>
 -0.0000

> <r_epik_Charging_Adjusted_Penalty>
0.0107446611525793

> <i_epik_Tot_Q>
-3

> <i_epik_Tot_abs_Q>
5

$$$$
