3bi1_ligand
                    3D
 Schrodinger Suite 2020-3.
 70 72  0  0  1  0            999 V2000
   34.2870   47.8420   41.9620 N   0  0  0  0  0  0
   30.8330   50.0980   42.0170 C   0  0  0  0  0  0
   32.3270   52.0560   42.3300 N   0  0  0  0  0  0
   28.3790   48.8650   41.7450 C   0  0  0  0  0  0
   29.4890   48.0690   41.7160 N   0  0  0  0  0  0
   27.3250   51.2900   41.9690 C   0  0  0  0  0  0
   26.2570   50.4800   39.9740 C   0  0  0  0  0  0
   24.0100   49.8790   44.2200 C   0  0  0  0  0  0
   25.1340   50.2800   42.1130 C   0  0  0  0  0  0
   24.4920   49.1620   41.5850 C   0  0  0  0  0  0
   23.6220   48.3990   42.3640 C   0  0  0  0  0  0
   22.5150   47.8310   44.4990 C   0  0  0  0  0  0
   20.8340   46.1060   44.8200 C   0  0  1  0  0  0
   20.3330   46.5440   46.1740 C   0  0  0  0  0  0
   33.1390   48.5660   41.9850 C   0  0  0  0  0  0
   22.8960   47.6840   45.7910 O   0  0  0  0  0  0
   31.9080   47.9280   41.8470 N   0  0  0  0  0  0
   20.2930   45.8210   47.2240 O   0  5  0  0  0  0
   19.8940   47.6670   46.1770 O   0  0  0  0  0  0
   18.2180   42.9710   42.8430 O   0  0  0  0  0  0
   17.5280   43.9150   43.8490 P   0  0  2  0  0  0
   16.6730   42.9150   44.8820 O   0  5  0  0  0  0
   16.3960   44.9670   43.0390 C   0  0  0  0  0  0
   15.9190   44.5150   41.6250 C   0  0  2  0  0  0
   17.0740   44.5710   40.5990 C   0  0  0  0  0  0
   17.9560   45.4590   40.6960 O   0  0  0  0  0  0
   17.0570   43.7570   39.6210 O   0  5  0  0  0  0
   14.6710   45.2830   41.1080 C   0  0  0  0  0  0
   14.9460   46.7600   41.0570 C   0  0  0  0  0  0
   13.8150   47.5440   40.3990 C   0  0  0  0  0  0
   13.0670   46.9940   39.5250 O   0  5  0  0  0  0
   13.7220   48.7800   40.6690 O   0  0  0  0  0  0
   18.6980   44.8480   44.7160 C   0  0  0  0  0  0
   19.6740   45.6400   43.8960 C   0  0  0  0  0  0
   21.5870   47.0920   44.0150 N   0  0  0  0  0  0
   23.3700   48.7530   43.6730 C   0  0  0  0  0  0
   24.8670   50.6570   43.4350 C   0  0  0  0  0  0
   26.0160   51.0620   41.2970 N   0  0  0  0  0  0
   28.4810   50.2750   41.8950 C   0  0  0  0  0  0
   29.7150   50.8320   42.0270 N   0  0  0  0  0  0
   30.7240   48.6210   41.8570 C   0  0  0  0  0  0
   32.1900   50.7110   42.1700 C   0  0  0  0  0  0
   33.2730   49.9070   42.1530 N   0  0  0  0  0  0
   34.2465   46.7508   41.8291 H   0  0  0  0  0  0
   35.2578   48.3465   42.0763 H   0  0  0  0  0  0
   31.4367   52.7019   42.3423 H   0  0  0  0  0  0
   33.3280   52.4968   42.4470 H   0  0  0  0  0  0
   27.3935   48.4089   41.6511 H   0  0  0  0  0  0
   27.7851   52.2076   41.5737 H   0  0  0  0  0  0
   27.1674   51.3962   43.0525 H   0  0  0  0  0  0
   26.9388   51.1301   39.4061 H   0  0  0  0  0  0
   25.3029   50.3888   39.4342 H   0  0  0  0  0  0
   26.7102   49.4842   40.0885 H   0  0  0  0  0  0
   23.8372   50.1472   45.2622 H   0  0  0  0  0  0
   24.6722   48.8793   40.5478 H   0  0  0  0  0  0
   23.1396   47.5199   41.9367 H   0  0  0  0  0  0
   21.5619   45.3380   45.1206 H   0  0  0  0  0  0
   15.4850   45.0636   43.6478 H   0  0  0  0  0  0
   16.8514   45.9587   42.9007 H   0  0  0  0  0  0
   15.6035   43.4666   41.7310 H   0  0  0  0  0  0
   14.4170   44.9316   40.0971 H   0  0  0  0  0  0
   13.8223   45.1006   41.7836 H   0  0  0  0  0  0
   15.0736   47.1447   42.0796 H   0  0  0  0  0  0
   15.8643   46.9423   40.4794 H   0  0  0  0  0  0
   18.1826   45.5804   45.3547 H   0  0  0  0  0  0
   19.3082   44.1806   45.3423 H   0  0  0  0  0  0
   19.1736   46.5192   43.4639 H   0  0  0  0  0  0
   20.0785   45.0139   43.0870 H   0  0  0  0  0  0
   21.3599   47.2177   42.9461 H   0  0  0  0  0  0
   25.3257   51.5541   43.8509 H   0  0  0  0  0  0
  1 15  1  0  0  0
  1 44  1  0  0  0
  1 45  1  0  0  0
  2 40  2  0  0  0
  2 41  1  0  0  0
  2 42  1  0  0  0
  3 42  1  0  0  0
  3 46  1  0  0  0
  3 47  1  0  0  0
  4  5  1  0  0  0
  4 39  2  0  0  0
  4 48  1  0  0  0
  5 41  2  0  0  0
  6 38  1  0  0  0
  6 39  1  0  0  0
  6 49  1  0  0  0
  6 50  1  0  0  0
  7 38  1  0  0  0
  7 51  1  0  0  0
  7 52  1  0  0  0
  7 53  1  0  0  0
  8 36  2  0  0  0
  8 37  1  0  0  0
  8 54  1  0  0  0
  9 10  1  0  0  0
  9 37  2  0  0  0
  9 38  1  0  0  0
 10 11  2  0  0  0
 10 55  1  0  0  0
 11 36  1  0  0  0
 11 56  1  0  0  0
 12 16  2  0  0  0
 12 35  1  0  0  0
 12 36  1  0  0  0
 13 14  1  0  0  0
 13 34  1  0  0  0
 13 35  1  0  0  0
 13 57  1  0  0  0
 14 18  1  0  0  0
 14 19  2  0  0  0
 15 17  2  0  0  0
 15 43  1  0  0  0
 17 41  1  0  0  0
 20 21  2  0  0  0
 21 22  1  0  0  0
 21 23  1  0  0  0
 21 33  1  0  0  0
 23 24  1  0  0  0
 23 58  1  0  0  0
 23 59  1  0  0  0
 24 25  1  0  0  0
 24 28  1  0  0  0
 24 60  1  0  0  0
 25 26  2  0  0  0
 25 27  1  0  0  0
 28 29  1  0  0  0
 28 61  1  0  0  0
 28 62  1  0  0  0
 29 30  1  0  0  0
 29 63  1  0  0  0
 29 64  1  0  0  0
 30 31  1  0  0  0
 30 32  2  0  0  0
 33 34  1  0  0  0
 33 65  1  0  0  0
 33 66  1  0  0  0
 34 67  1  0  0  0
 34 68  1  0  0  0
 35 69  1  0  0  0
 37 70  1  0  0  0
 39 40  1  0  0  0
 42 43  2  0  0  0
M  CHG  4  18  -1  22  -1  27  -1  31  -1
M  END
> <s_m_source_file>
../3bi1_ligand.sdf

> <i_m_source_file_index>
1

> <s_epik_input>
W05IMl1jMW5jKFtOSDJdKW5jKGMxMiluW2NIXWMobjIpW0NIMl1OKFtDSDNdKWMzW2NIXVtjSF1jKFtjSF1bY0hdMylDKD1PKVtOSF1bQ0BASF0oQyg9TylbT0hdKVtDSDJdW0NIMl1bUEBAXSg9TykoW09IXSlbQ0gyXVtDQEhdKEMoPU8pW09IXSlbQ0gyXVtDSDJdQyg9TylbT0hd

> <s_epik_cmdline>
J2VwaWtfYXBwJywgJy1pbWFlJywgJ2xpZ2FuZF9wcm8ubWFlJywgJy1vbWFlJywgJ2xpZ2FuZF9wcmVwLm1hZScsICctbXMnLCAnMScsICctcGgnLCAnNycsICctcGh0JywgJzAuNScsICctbnQn

> <r_epik_Ionization_Penalty>
  0.0884

> <r_epik_Ionization_Penalty_Charging>
  0.0102

> <r_epik_Ionization_Penalty_Neutral>
  0.0782

> <r_epik_State_Penalty>
  0.0653

> <r_epik_Charging_Adjusted_Penalty>
0.0755233546475848

> <i_epik_Tot_Q>
-4

> <i_epik_Tot_abs_Q>
4

$$$$
