3bim_ligand
                    3D
 Schrodinger Suite 2020-3.
251255  0  0  1  0            999 V2000
  -73.9560  -31.6160  -50.4850 N   0  3  0  0  0  0
  -74.0790  -31.0080  -49.1230 C   0  0  2  0  0  0
  -73.8900  -32.0490  -48.0210 C   0  0  0  0  0  0
  -74.4650  -33.1400  -48.0890 O   0  0  0  0  0  0
  -75.4340  -30.2940  -48.9860 C   0  0  0  0  0  0
  -75.6340  -29.4670  -47.7070 C   0  0  0  0  0  0
  -77.0950  -29.0440  -47.5710 C   0  0  0  0  0  0
  -77.9670  -30.1730  -47.2170 N   0  0  0  0  0  0
  -78.6540  -30.9250  -48.0830 C   0  0  0  0  0  0
  -79.4040  -31.9250  -47.6380 N   0  0  0  0  0  0
  -78.5960  -30.6890  -49.3900 N   0  0  0  0  0  0
  -73.0800  -31.7080  -47.0160 N   0  0  0  0  0  0
  -72.8560  -32.5890  -45.8560 C   0  0  2  0  0  0
  -72.1320  -31.8740  -44.7000 C   0  0  0  0  0  0
  -71.1680  -31.1260  -44.9280 O   0  0  0  0  0  0
  -72.0900  -33.8650  -46.2710 C   0  0  0  0  0  0
  -72.3510  -34.9420  -45.3510 O   0  0  0  0  0  0
  -72.6020  -32.1230  -43.4710 N   0  0  0  0  0  0
  -72.0420  -31.5010  -42.2490 C   0  0  2  0  0  0
  -70.7320  -32.1500  -41.7540 C   0  0  0  0  0  0
  -70.7420  -33.2590  -41.2160 O   0  0  0  0  0  0
  -73.1050  -31.3930  -41.1210 C   0  0  0  0  0  0
  -74.3690  -32.2870  -41.2710 C   0  0  0  0  0  0
  -74.3140  -33.6120  -40.4810 C   0  0  0  0  0  0
  -75.3460  -34.3210  -40.4360 O   0  0  0  0  0  0
  -73.2550  -33.9530  -39.9040 O   0  0  0  0  0  0
  -69.6100  -31.4580  -41.9490 N   0  0  0  0  0  0
  -68.2980  -31.9560  -41.5090 C   0  0  2  0  0  0
  -67.7200  -31.1590  -40.3140 C   0  0  0  0  0  0
  -68.0640  -29.9890  -40.1030 O   0  0  0  0  0  0
  -67.2780  -32.0530  -42.7020 C   0  0  2  0  0  0
  -65.8460  -32.3930  -42.2280 C   0  0  0  0  0  0
  -67.2800  -30.7730  -43.5410 C   0  0  0  0  0  0
  -65.6140  -33.8620  -41.8060 C   0  0  0  0  0  0
  -66.8370  -31.8100  -39.5530 N   0  0  0  0  0  0
  -66.2920  -31.2770  -38.3100 C   0  0  2  0  0  0
  -64.8430  -30.8040  -38.4590 C   0  0  0  0  0  0
  -64.0110  -31.5360  -38.9910 O   0  0  0  0  0  0
  -66.4020  -32.3550  -37.2010 C   0  0  2  0  0  0
  -67.8340  -32.3740  -36.6250 C   0  0  0  0  0  0
  -65.3240  -32.1520  -36.1280 C   0  0  0  0  0  0
  -68.1810  -33.5740  -35.7540 C   0  0  0  0  0  0
  -64.5560  -29.5790  -37.9940 N   0  0  0  0  0  0
  -63.1800  -29.0390  -37.9240 C   0  0  2  0  0  0
  -62.7020  -28.7090  -36.5010 C   0  0  0  0  0  0
  -63.4200  -28.0970  -35.7080 O   0  0  0  0  0  0
  -63.0180  -27.8010  -38.7890 C   0  0  0  0  0  0
  -61.7980  -27.1640  -38.4740 O   0  0  0  0  0  0
  -61.4620  -29.1030  -36.2170 N   0  0  0  0  0  0
  -60.8600  -29.0320  -34.8910 C   0  0  2  0  0  0
  -59.9300  -27.8460  -34.8710 C   0  0  0  0  0  0
  -59.1600  -27.6550  -33.9200 O   0  0  0  0  0  0
  -60.0500  -30.3200  -34.6040 C   0  0  2  0  0  0
  -60.9460  -31.4320  -34.5560 O   0  0  0  0  0  0
  -59.2920  -30.2460  -33.2680 C   0  0  0  0  0  0
  -59.9980  -27.0540  -35.9320 N   0  0  0  0  0  0
  -59.1350  -25.9010  -36.0720 C   0  0  2  0  0  0
  -59.3470  -24.8520  -34.9350 C   0  0  0  0  0  0
  -60.4840  -24.4220  -34.6680 O   0  0  0  0  0  0
  -59.3410  -25.2890  -37.4410 C   0  0  0  0  0  0
  -58.2590  -24.4780  -34.2270 N   0  0  0  0  0  0
  -58.3410  -23.3390  -33.3010 C   0  0  2  0  0  0
  -58.3650  -22.0120  -34.0620 C   0  0  0  0  0  0
  -57.8700  -21.9370  -35.1910 O   0  0  0  0  0  0
  -57.0570  -23.4300  -32.4760 C   0  0  0  0  0  0
  -56.2340  -24.5080  -33.0810 C   0  0  0  0  0  0
  -56.9230  -25.0960  -34.2560 C   0  0  0  0  0  0
  -58.9500  -20.9890  -33.4380 N   0  0  0  0  0  0
  -58.9930  -19.6370  -33.9850 C   0  0  2  0  0  0
  -57.5950  -19.0280  -33.9840 C   0  0  0  0  0  0
  -56.8580  -19.1740  -33.0070 O   0  0  0  0  0  0
  -59.9430  -18.7790  -33.1250 C   0  0  0  0  0  0
  -59.6790  -17.3860  -33.2310 O   0  0  0  0  0  0
  -57.2250  -18.3510  -35.0680 N   0  0  0  0  0  0
  -55.9540  -17.6180  -35.1330 C   0  0  2  0  0  0
  -56.0110  -16.3330  -34.3160 C   0  0  0  0  0  0
  -54.9720  -15.7400  -33.9650 O   0  0  0  0  0  0
  -55.6270  -17.2720  -36.5840 C   0  0  0  0  0  0
  -56.7500  -16.6650  -37.2510 O   0  0  0  0  0  0
  -57.2300  -15.8940  -34.0100 N   0  0  0  0  0  0
  -57.4120  -14.6520  -33.2670 C   0  0  2  0  0  0
  -57.4830  -14.8390  -31.7610 C   0  0  0  0  0  0
  -58.4480  -15.4300  -31.2560 O   0  0  0  0  0  0
  -58.6530  -13.8870  -33.7450 C   0  0  0  0  0  0
  -58.8340  -12.6670  -32.9440 C   0  0  0  0  0  0
  -59.9630  -12.2880  -32.2980 C   0  0  0  0  0  0
  -57.8280  -11.6750  -32.6260 C   0  0  0  0  0  0
  -59.7430  -11.1080  -31.6210 N   0  0  0  0  0  0
  -58.4440  -10.7120  -31.7920 C   0  0  0  0  0  0
  -56.4790  -11.5080  -32.9700 C   0  0  0  0  0  0
  -57.7680   -9.5880  -31.2980 C   0  0  0  0  0  0
  -55.7980  -10.3840  -32.4870 C   0  0  0  0  0  0
  -56.4560   -9.4280  -31.6670 C   0  0  0  0  0  0
  -56.4830  -14.3140  -31.0510 N   0  0  0  0  0  0
  -56.4570  -14.3690  -29.5900 C   0  0  2  0  0  0
  -56.2210  -12.9460  -29.0680 C   0  0  0  0  0  0
  -55.2740  -12.2660  -29.4680 O   0  0  0  0  0  0
  -55.3830  -15.3860  -29.0190 C   0  0  0  0  0  0
  -55.4120  -15.4150  -27.4970 C   0  0  0  0  0  0
  -55.5620  -16.8300  -29.5660 C   0  0  0  0  0  0
  -57.1210  -12.4800  -28.2090 N   0  0  0  0  0  0
  -57.0390  -11.1240  -27.6880 C   0  0  2  0  0  0
  -55.8330  -11.0800  -26.7690 C   0  0  0  0  0  0
  -55.7000  -11.9220  -25.8600 O   0  0  0  0  0  0
  -58.3440  -10.6960  -26.9180 C   0  0  0  0  0  0
  -58.1770   -9.3680  -26.2380 C   0  0  0  0  0  0
  -59.5180  -10.6400  -27.8530 C   0  0  0  0  0  0
  -54.9330  -10.1270  -27.0120 N   0  0  0  0  0  0
  -53.7530   -9.9340  -26.1850 C   0  0  2  0  0  0
  -54.0720   -9.7030  -24.6770 C   0  0  0  0  0  0
  -55.2390   -9.4920  -24.2930 O   0  0  0  0  0  0
  -53.1220   -8.6850  -26.8010 C   0  0  0  0  0  0
  -53.6010   -8.6690  -28.2220 C   0  0  0  0  0  0
  -54.9920   -9.1750  -28.1340 C   0  0  0  0  0  0
  -53.0410   -9.7480  -23.8230 N   0  0  0  0  0  0
  -53.1780   -9.3160  -22.4090 C   0  0  0  0  0  0
  -52.2810   -8.1420  -21.9360 C   0  0  0  0  0  0
  -52.3000   -7.8080  -20.7170 O   0  0  0  0  0  0
  -51.5390   -7.4680  -22.8830 N   0  0  0  0  0  0
  -50.3310   -6.6630  -22.5560 C   0  0  2  0  0  0
  -50.5760   -5.3840  -21.7350 C   0  0  0  0  0  0
  -51.6930   -4.8600  -21.5730 O   0  0  0  0  0  0
  -49.7420   -6.3050  -23.9480 C   0  0  0  0  0  0
  -50.9310   -6.2470  -24.8640 C   0  0  0  0  0  0
  -51.8490   -7.3680  -24.3330 C   0  0  0  0  0  0
  -49.5960   -4.8450  -21.2090 O   0  0  0  0  0  0
  -72.9843  -32.1240  -50.5734 H   0  0  0  0  0  0
  -74.0273  -30.8259  -51.2470 H   0  0  0  0  0  0
  -74.7659  -32.3449  -50.6356 H   0  0  0  0  0  0
  -73.2631  -30.2766  -49.0268 H   0  0  0  0  0  0
  -75.5666  -29.5951  -49.8250 H   0  0  0  0  0  0
  -76.2436  -31.0386  -48.9975 H   0  0  0  0  0  0
  -75.3526  -30.0712  -46.8319 H   0  0  0  0  0  0
  -75.0026  -28.5673  -47.7496 H   0  0  0  0  0  0
  -77.1842  -28.2820  -46.7827 H   0  0  0  0  0  0
  -77.4462  -28.6263  -48.5261 H   0  0  0  0  0  0
  -78.0953  -30.4594  -46.1627 H   0  0  0  0  0  0
  -79.4613  -32.1317  -46.5591 H   0  0  0  0  0  0
  -77.9783  -29.8633  -49.7729 H   0  0  0  0  0  0
  -79.1657  -31.3194  -50.0885 H   0  0  0  0  0  0
  -72.5720  -30.7340  -47.0731 H   0  0  0  0  0  0
  -73.8715  -32.8457  -45.5199 H   0  0  0  0  0  0
  -72.4098  -34.1737  -47.2772 H   0  0  0  0  0  0
  -71.0096  -33.6585  -46.2769 H   0  0  0  0  0  0
  -71.8794  -35.9237  -45.5054 H   0  0  0  0  0  0
  -73.4441  -32.8265  -43.3937 H   0  0  0  0  0  0
  -71.7708  -30.4932  -42.5965 H   0  0  0  0  0  0
  -72.6498  -31.6748  -40.1601 H   0  0  0  0  0  0
  -73.4738  -30.3583  -41.0626 H   0  0  0  0  0  0
  -75.2516  -31.7373  -40.9120 H   0  0  0  0  0  0
  -74.5074  -32.5516  -42.3297 H   0  0  0  0  0  0
  -73.2149  -34.8970  -39.3408 H   0  0  0  0  0  0
  -69.6870  -30.4853  -42.4569 H   0  0  0  0  0  0
  -68.5387  -32.9641  -41.1404 H   0  0  0  0  0  0
  -67.6027  -32.8743  -43.3578 H   0  0  0  0  0  0
  -65.1327  -32.1878  -43.0398 H   0  0  0  0  0  0
  -65.5932  -31.7760  -41.3531 H   0  0  0  0  0  0
  -68.3066  -30.5500  -43.8672 H   0  0  0  0  0  0
  -66.6370  -30.9115  -44.4227 H   0  0  0  0  0  0
  -66.8978  -29.9375  -42.9361 H   0  0  0  0  0  0
  -64.5687  -33.9917  -41.4889 H   0  0  0  0  0  0
  -65.8238  -34.5257  -42.6578 H   0  0  0  0  0  0
  -66.2844  -34.1139  -40.9710 H   0  0  0  0  0  0
  -66.5228  -32.8016  -39.9108 H   0  0  0  0  0  0
  -66.9087  -30.3931  -38.0902 H   0  0  0  0  0  0
  -66.2095  -33.3507  -37.6271 H   0  0  0  0  0  0
  -67.9888  -31.4836  -35.9980 H   0  0  0  0  0  0
  -68.5613  -32.3722  -37.4503 H   0  0  0  0  0  0
  -64.3313  -32.1482  -36.6018 H   0  0  0  0  0  0
  -65.3774  -32.9706  -35.3952 H   0  0  0  0  0  0
  -65.4906  -31.1917  -35.6179 H   0  0  0  0  0  0
  -69.2188  -33.4828  -35.4008 H   0  0  0  0  0  0
  -67.5012  -33.6086  -34.8899 H   0  0  0  0  0  0
  -68.0736  -34.4973  -36.3422 H   0  0  0  0  0  0
  -65.4048  -28.9672  -37.6546 H   0  0  0  0  0  0
  -62.5826  -29.8734  -38.3201 H   0  0  0  0  0  0
  -63.0166  -28.0924  -39.8497 H   0  0  0  0  0  0
  -63.8525  -27.1097  -38.5998 H   0  0  0  0  0  0
  -61.5055  -26.2442  -39.0016 H   0  0  0  0  0  0
  -60.8836  -29.5028  -37.0629 H   0  0  0  0  0  0
  -61.6743  -28.9082  -34.1619 H   0  0  0  0  0  0
  -59.3412  -30.5069  -35.4242 H   0  0  0  0  0  0
  -61.5861  -31.6603  -35.4209 H   0  0  0  0  0  0
  -58.5966  -29.3940  -33.2877 H   0  0  0  0  0  0
  -58.7268  -31.1772  -33.1151 H   0  0  0  0  0  0
  -60.0105  -30.1139  -32.4456 H   0  0  0  0  0  0
  -60.7319  -27.2902  -36.7166 H   0  0  0  0  0  0
  -58.1147  -26.3056  -35.9987 H   0  0  0  0  0  0
  -59.1835  -26.0564  -38.2132 H   0  0  0  0  0  0
  -58.6231  -24.4685  -37.5876 H   0  0  0  0  0  0
  -60.3661  -24.8973  -37.5170 H   0  0  0  0  0  0
  -59.2648  -23.4058  -32.7076 H   0  0  0  0  0  0
  -56.6854  -22.8814  -31.5980 H   0  0  0  0  0  0
  -55.2572  -24.7646  -32.6451 H   0  0  0  0  0  0
  -57.0226  -26.1885  -34.1757 H   0  0  0  0  0  0
  -56.4219  -24.8420  -35.2017 H   0  0  0  0  0  0
  -59.4151  -21.2035  -32.4645 H   0  0  0  0  0  0
  -59.3541  -19.7216  -35.0206 H   0  0  0  0  0  0
  -60.9815  -18.9485  -33.4456 H   0  0  0  0  0  0
  -59.8352  -19.0608  -32.0672 H   0  0  0  0  0  0
  -60.2886  -16.6661  -32.6653 H   0  0  0  0  0  0
  -57.9046  -18.3513  -35.9330 H   0  0  0  0  0  0
  -55.1999  -18.2945  -34.7044 H   0  0  0  0  0  0
  -54.7840  -16.5659  -36.6115 H   0  0  0  0  0  0
  -55.3550  -18.1890  -37.1273 H   0  0  0  0  0  0
  -56.6649  -16.3602  -38.3045 H   0  0  0  0  0  0
  -58.1061  -16.4802  -34.3245 H   0  0  0  0  0  0
  -56.4853  -14.1074  -33.5007 H   0  0  0  0  0  0
  -58.5281  -13.6096  -34.8021 H   0  0  0  0  0  0
  -59.5420  -14.5256  -33.6361 H   0  0  0  0  0  0
  -60.9056  -12.8353  -32.3117 H   0  0  0  0  0  0
  -55.9711  -12.2380  -33.6003 H   0  0  0  0  0  0
  -58.2649   -8.8692  -30.6464 H   0  0  0  0  0  0
  -54.7484  -10.2403  -32.7436 H   0  0  0  0  0  0
  -55.9078   -8.5504  -31.3244 H   0  0  0  0  0  0
  -55.6611  -13.8287  -31.5978 H   0  0  0  0  0  0
  -57.4566  -14.7279  -29.3035 H   0  0  0  0  0  0
  -54.3895  -15.0326  -29.3321 H   0  0  0  0  0  0
  -55.2854  -14.3938  -27.1084 H   0  0  0  0  0  0
  -54.5952  -16.0521  -27.1268 H   0  0  0  0  0  0
  -56.3763  -15.8201  -27.1563 H   0  0  0  0  0  0
  -55.5413  -16.8107  -30.6656 H   0  0  0  0  0  0
  -56.5262  -17.2345  -29.2245 H   0  0  0  0  0  0
  -54.7452  -17.4665  -29.1950 H   0  0  0  0  0  0
  -57.9404  -13.1422  -27.8925 H   0  0  0  0  0  0
  -56.9041  -10.4652  -28.5585 H   0  0  0  0  0  0
  -58.5728  -11.4299  -26.1312 H   0  0  0  0  0  0
  -57.3167   -9.4119  -25.5540 H   0  0  0  0  0  0
  -59.0872   -9.1311  -25.6676 H   0  0  0  0  0  0
  -58.0048   -8.5880  -26.9942 H   0  0  0  0  0  0
  -59.6379  -11.6141  -28.3497 H   0  0  0  0  0  0
  -59.3467   -9.8608  -28.6104 H   0  0  0  0  0  0
  -60.4292  -10.4040  -27.2837 H   0  0  0  0  0  0
  -53.1385  -10.8452  -26.2310 H   0  0  0  0  0  0
  -53.4576   -7.7945  -26.2493 H   0  0  0  0  0  0
  -52.0262   -8.7610  -26.7427 H   0  0  0  0  0  0
  -53.5565   -7.6416  -28.6124 H   0  0  0  0  0  0
  -52.9594   -9.3213  -28.8326 H   0  0  0  0  0  0
  -55.3067   -9.7027  -29.0464 H   0  0  0  0  0  0
  -55.7157   -8.3796  -27.9024 H   0  0  0  0  0  0
  -52.0735  -10.1172  -24.1940 H   0  0  0  0  0  0
  -54.2117   -8.9885  -22.2242 H   0  0  0  0  0  0
  -52.9354  -10.1575  -21.7434 H   0  0  0  0  0  0
  -49.6967   -7.2738  -21.8968 H   0  0  0  0  0  0
  -51.7888   -3.9441  -20.9714 H   0  0  0  0  0  0
  -49.2249   -5.3359  -23.8891 H   0  0  0  0  0  0
  -49.0281   -7.0834  -24.2553 H   0  0  0  0  0  0
  -51.3993   -5.2541  -24.7945 H   0  0  0  0  0  0
  -50.6055   -6.4273  -25.8992 H   0  0  0  0  0  0
  -51.6364   -8.3308  -24.8206 H   0  0  0  0  0  0
  -52.9120   -7.1174  -24.4643 H   0  0  0  0  0  0
  1  2  1  0  0  0
  1127  1  0  0  0
  1128  1  0  0  0
  1129  1  0  0  0
  2  3  1  0  0  0
  2  5  1  0  0  0
  2130  1  0  0  0
  3  4  2  0  0  0
  3 12  1  0  0  0
  5  6  1  0  0  0
  5131  1  0  0  0
  5132  1  0  0  0
  6  7  1  0  0  0
  6133  1  0  0  0
  6134  1  0  0  0
  7  8  1  0  0  0
  7135  1  0  0  0
  7136  1  0  0  0
  8  9  1  0  0  0
  8137  1  0  0  0
  9 10  2  0  0  0
  9 11  1  0  0  0
 10138  1  0  0  0
 11139  1  0  0  0
 11140  1  0  0  0
 12 13  1  0  0  0
 12141  1  0  0  0
 13 14  1  0  0  0
 13 16  1  0  0  0
 13142  1  0  0  0
 14 15  2  0  0  0
 14 18  1  0  0  0
 16 17  1  0  0  0
 16143  1  0  0  0
 16144  1  0  0  0
 17145  1  0  0  0
 18 19  1  0  0  0
 18146  1  0  0  0
 19 20  1  0  0  0
 19 22  1  0  0  0
 19147  1  0  0  0
 20 21  2  0  0  0
 20 27  1  0  0  0
 22 23  1  0  0  0
 22148  1  0  0  0
 22149  1  0  0  0
 23 24  1  0  0  0
 23150  1  0  0  0
 23151  1  0  0  0
 24 25  2  0  0  0
 24 26  1  0  0  0
 26152  1  0  0  0
 27 28  1  0  0  0
 27153  1  0  0  0
 28 29  1  0  0  0
 28 31  1  0  0  0
 28154  1  0  0  0
 29 30  2  0  0  0
 29 35  1  0  0  0
 31 32  1  0  0  0
 31 33  1  0  0  0
 31155  1  0  0  0
 32 34  1  0  0  0
 32156  1  0  0  0
 32157  1  0  0  0
 33158  1  0  0  0
 33159  1  0  0  0
 33160  1  0  0  0
 34161  1  0  0  0
 34162  1  0  0  0
 34163  1  0  0  0
 35 36  1  0  0  0
 35164  1  0  0  0
 36 37  1  0  0  0
 36 39  1  0  0  0
 36165  1  0  0  0
 37 38  2  0  0  0
 37 43  1  0  0  0
 39 40  1  0  0  0
 39 41  1  0  0  0
 39166  1  0  0  0
 40 42  1  0  0  0
 40167  1  0  0  0
 40168  1  0  0  0
 41169  1  0  0  0
 41170  1  0  0  0
 41171  1  0  0  0
 42172  1  0  0  0
 42173  1  0  0  0
 42174  1  0  0  0
 43 44  1  0  0  0
 43175  1  0  0  0
 44 45  1  0  0  0
 44 47  1  0  0  0
 44176  1  0  0  0
 45 46  2  0  0  0
 45 49  1  0  0  0
 47 48  1  0  0  0
 47177  1  0  0  0
 47178  1  0  0  0
 48179  1  0  0  0
 49 50  1  0  0  0
 49180  1  0  0  0
 50 51  1  0  0  0
 50 53  1  0  0  0
 50181  1  0  0  0
 51 52  2  0  0  0
 51 56  1  0  0  0
 53 54  1  0  0  0
 53 55  1  0  0  0
 53182  1  0  0  0
 54183  1  0  0  0
 55184  1  0  0  0
 55185  1  0  0  0
 55186  1  0  0  0
 56 57  1  0  0  0
 56187  1  0  0  0
 57 58  1  0  0  0
 57 60  1  0  0  0
 57188  1  0  0  0
 58 59  2  0  0  0
 58 61  1  0  0  0
 60189  1  0  0  0
 60190  1  0  0  0
 60191  1  0  0  0
 61 62  1  0  0  0
 61 67  1  0  0  0
 62 63  1  0  0  0
 62 65  1  0  0  0
 62192  1  0  0  0
 63 64  2  0  0  0
 63 68  1  0  0  0
 65 66  2  0  0  0
 65193  1  0  0  0
 66 67  1  0  0  0
 66194  1  0  0  0
 67195  1  0  0  0
 67196  1  0  0  0
 68 69  1  0  0  0
 68197  1  0  0  0
 69 70  1  0  0  0
 69 72  1  0  0  0
 69198  1  0  0  0
 70 71  2  0  0  0
 70 74  1  0  0  0
 72 73  1  0  0  0
 72199  1  0  0  0
 72200  1  0  0  0
 73201  1  0  0  0
 74 75  1  0  0  0
 74202  1  0  0  0
 75 76  1  0  0  0
 75 78  1  0  0  0
 75203  1  0  0  0
 76 77  2  0  0  0
 76 80  1  0  0  0
 78 79  1  0  0  0
 78204  1  0  0  0
 78205  1  0  0  0
 79206  1  0  0  0
 80 81  1  0  0  0
 80207  1  0  0  0
 81 82  1  0  0  0
 81 84  1  0  0  0
 81208  1  0  0  0
 82 83  2  0  0  0
 82 94  1  0  0  0
 84 85  1  0  0  0
 84209  1  0  0  0
 84210  1  0  0  0
 85 86  2  0  0  0
 85 87  1  0  0  0
 86 88  1  0  0  0
 86211  1  0  0  0
 87 89  2  0  0  0
 87 90  1  0  0  0
 88 89  1  0  0  0
 89 91  1  0  0  0
 90 92  2  0  0  0
 90212  1  0  0  0
 91 93  2  0  0  0
 91213  1  0  0  0
 92 93  1  0  0  0
 92214  1  0  0  0
 93215  1  0  0  0
 94 95  1  0  0  0
 94216  1  0  0  0
 95 96  1  0  0  0
 95 98  1  0  0  0
 95217  1  0  0  0
 96 97  2  0  0  0
 96101  1  0  0  0
 98 99  1  0  0  0
 98100  1  0  0  0
 98218  1  0  0  0
 99219  1  0  0  0
 99220  1  0  0  0
 99221  1  0  0  0
100222  1  0  0  0
100223  1  0  0  0
100224  1  0  0  0
101102  1  0  0  0
101225  1  0  0  0
102103  1  0  0  0
102105  1  0  0  0
102226  1  0  0  0
103104  2  0  0  0
103108  1  0  0  0
105106  1  0  0  0
105107  1  0  0  0
105227  1  0  0  0
106228  1  0  0  0
106229  1  0  0  0
106230  1  0  0  0
107231  1  0  0  0
107232  1  0  0  0
107233  1  0  0  0
108109  1  0  0  0
108114  1  0  0  0
109110  1  0  0  0
109112  1  0  0  0
109234  1  0  0  0
110111  2  0  0  0
110115  1  0  0  0
112113  1  0  0  0
112235  1  0  0  0
112236  1  0  0  0
113114  1  0  0  0
113237  1  0  0  0
113238  1  0  0  0
114239  1  0  0  0
114240  1  0  0  0
115116  1  0  0  0
115241  1  0  0  0
116117  1  0  0  0
116242  1  0  0  0
116243  1  0  0  0
117118  2  0  0  0
117119  1  0  0  0
119120  1  0  0  0
119125  1  0  0  0
120121  1  0  0  0
120123  1  0  0  0
120244  1  0  0  0
121122  1  0  0  0
121126  2  0  0  0
122245  1  0  0  0
123124  1  0  0  0
123246  1  0  0  0
123247  1  0  0  0
124125  1  0  0  0
124248  1  0  0  0
124249  1  0  0  0
125250  1  0  0  0
125251  1  0  0  0
M  CHG  1   1   1
M  END
> <s_m_source_file>
../3bim_ligand.sdf

> <i_m_source_file_index>
1

> <s_epik_input>
W0hdL049QyhbTkgyXSlcW05IXVtDSDJdW0NIMl1bQ0gyXVtDQEhdKFtOSDMrXSlDKD1PKVtOSF1bQ0BASF0oW0NIMl1bT0hdKUMoPU8pW05IXVtDQEBIXShbQ0gyXVtDSDJdQyg9TylbT0hdKUMoPU8pW05IXVtDQEBIXShbQ0BASF0oW0NIM10pW0NIMl1bQ0gzXSlDKD1PKVtOSF1bQ0BASF0oW0NAQEhdKFtDSDNdKVtDSDJdW0NIM10pQyg9TylbTkhdW0NAQEhdKFtDSDJdW09IXSlDKD1PKVtOSF1bQ0BASF0oW0NASF0oW09IXSlbQ0gzXSlDKD1PKVtOSF1bQ0BASF0oW0NIM10pQyg9TylOMVtDQEBIXShbQ0hdPVtDSF1bQ0gyXTEpQyg9TylbTkhdW0NAQEhdKFtDSDJdW09IXSlDKD1PKVtOSF1bQ0BASF0oW0NIMl1bT0hdKUMoPU8pW05IXVtDQEBIXShbQ0gyXWMyW2NIXVtuSF1jKGMyMylbY0hdW2NIXVtjSF1bY0hdMylDKD1PKVtOSF1bQ0BASF0oW0NIXShbQ0gzXSlbQ0gzXSlDKD1PKVtOSF1bQ0BASF0oW0NIXShbQ0gzXSlbQ0gzXSlDKD1PKU40W0NAQEhdKFtDSDJdW0NIMl1bQ0gyXTQpQyg9TylbTkhdW0NIMl1DKD1PKU41W0NASF0oQyg9TylbT0hdKVtDSDJdW0NIMl1bQ0gyXTU=

> <s_epik_cmdline>
J2VwaWtfYXBwJywgJy1pbWFlJywgJ2xpZ2FuZF9wcm8ubWFlJywgJy1vbWFlJywgJ2xpZ2FuZF9wcmVwLm1hZScsICctbXMnLCAnMScsICctcGgnLCAnNycsICctcGh0JywgJzAuNScsICctbnQn

> <s_epik_pKa_notes>
Molecule size exceeds maximum supported for generating protonation states

> <s_epik_Chemistry_Notes>
This compound has an imine and may undergo hydrolysis.

$$$$
