3bjc_ligand
                    3D
 Schrodinger Suite 2020-3.
 45 47  0  0  1  0            999 V2000
   43.6480   10.7090   50.4750 C   0  0  0  0  0  0
   43.8720   12.0090   49.6990 C   0  0  0  0  0  0
   42.6780   12.9520   49.8560 C   0  0  0  0  0  0
   43.1360   14.4090   49.9560 C   0  0  0  0  0  0
   43.6790   15.1740   48.9320 C   0  0  0  0  0  0
   43.9690   14.9360   47.6450 N   0  0  0  0  0  0
   43.0740   15.1880   51.0340 N   0  0  0  0  0  0
   43.5060   16.3120   50.7730 N   0  0  0  0  0  0
   43.5380   17.4270   51.7460 C   0  0  0  0  0  0
   43.9090   16.4160   49.5090 C   0  0  0  0  0  0
   44.4550   17.4350   48.7400 C   0  0  0  0  0  0
   44.6600   18.5520   49.2130 O   0  0  0  0  0  0
   44.7540   17.1670   47.3990 N   0  0  0  0  0  0
   44.4950   15.8960   46.8710 C   0  0  0  0  0  0
   44.7640   15.6430   45.5300 C   0  0  0  0  0  0
   43.9400   15.0500   44.6610 C   0  0  0  0  0  0
   44.3960   14.9670   43.4120 C   0  0  0  0  0  0
   43.5100   14.3180   42.0510 S   0  0  0  0  0  0
   42.0470   14.2860   42.3800 O   0  0  0  0  0  0
   43.9960   12.9290   41.7640 O   0  0  0  0  0  0
   43.7590   15.2740   40.7560 N   0  0  0  0  0  0
   45.9560   15.6630   43.3050 S   0  0  0  0  0  0
   45.9660   16.0660   44.9700 C   0  0  0  0  0  0
   46.9700   16.6990   45.6350 O   0  0  0  0  0  0
   47.8670   17.3150   44.6980 C   0  0  0  0  0  0
   49.1340   17.7480   45.4380 C   0  0  0  0  0  0
   44.5192   10.0501   50.3457 H   0  0  0  0  0  0
   42.7474   10.2051   50.0941 H   0  0  0  0  0  0
   43.5163   10.9375   51.5429 H   0  0  0  0  0  0
   44.7726   12.5129   50.0799 H   0  0  0  0  0  0
   44.0037   11.7805   48.6311 H   0  0  0  0  0  0
   42.0140   12.8510   48.9849 H   0  0  0  0  0  0
   42.1245   12.6937   50.7708 H   0  0  0  0  0  0
   43.1521   17.0788   52.7154 H   0  0  0  0  0  0
   42.9122   18.2532   51.3775 H   0  0  0  0  0  0
   44.5735   17.7775   51.8681 H   0  0  0  0  0  0
   45.1903   17.9530   46.7651 H   0  0  0  0  0  0
   42.9643   14.6619   44.9533 H   0  0  0  0  0  0
   43.2056   14.8744   39.8934 H   0  0  0  0  0  0
   44.8334   15.3014   40.5216 H   0  0  0  0  0  0
   48.1250   16.5935   43.9088 H   0  0  0  0  0  0
   47.3806   18.1928   44.2475 H   0  0  0  0  0  0
   49.8289   18.2217   44.7290 H   0  0  0  0  0  0
   49.6142   16.8672   45.8892 H   0  0  0  0  0  0
   48.8698   18.4665   46.2279 H   0  0  0  0  0  0
  1  2  1  0  0  0
  1 27  1  0  0  0
  1 28  1  0  0  0
  1 29  1  0  0  0
  2  3  1  0  0  0
  2 30  1  0  0  0
  2 31  1  0  0  0
  3  4  1  0  0  0
  3 32  1  0  0  0
  3 33  1  0  0  0
  4  5  1  0  0  0
  4  7  2  0  0  0
  5  6  1  0  0  0
  5 10  2  0  0  0
  6 14  2  0  0  0
  7  8  1  0  0  0
  8  9  1  0  0  0
  8 10  1  0  0  0
  9 34  1  0  0  0
  9 35  1  0  0  0
  9 36  1  0  0  0
 10 11  1  0  0  0
 11 12  2  0  0  0
 11 13  1  0  0  0
 13 14  1  0  0  0
 13 37  1  0  0  0
 14 15  1  0  0  0
 15 16  1  0  0  0
 15 23  2  0  0  0
 16 17  2  0  0  0
 16 38  1  0  0  0
 17 18  1  0  0  0
 17 22  1  0  0  0
 18 19  2  0  0  0
 18 20  2  0  0  0
 18 21  1  0  0  0
 21 39  1  0  0  0
 21 40  1  0  0  0
 22 23  1  0  0  0
 23 24  1  0  0  0
 24 25  1  0  0  0
 25 26  1  0  0  0
 25 41  1  0  0  0
 25 42  1  0  0  0
 26 43  1  0  0  0
 26 44  1  0  0  0
 26 45  1  0  0  0
M  END
> <s_m_source_file>
../3bjc_ligand.sdf

> <i_m_source_file_index>
1

> <s_epik_input>
W0NIM11bQ0gyXVtDSDJdYzFubihbQ0gzXSljKGMxMiljKD1PKVtuSF1jKG4yKS1jM1tjSF1jKFMoPU8pKD1PKVtOSDJdKXNjM09bQ0gyXVtDSDNd

> <s_epik_cmdline>
J2VwaWtfYXBwJywgJy1pbWFlJywgJ2xpZ2FuZF9wcm8ubWFlJywgJy1vbWFlJywgJ2xpZ2FuZF9wcmVwLm1hZScsICctbXMnLCAnMScsICctcGgnLCAnNycsICctcGh0JywgJzAuNScsICctbnQn

> <r_lp_tautomer_probability>
1

> <r_epik_Ionization_Penalty>
  0.0040

> <r_epik_Ionization_Penalty_Charging>
  0.0000

> <r_epik_Ionization_Penalty_Neutral>
  0.0040

> <r_epik_State_Penalty>
 -0.0000

> <r_epik_Charging_Adjusted_Penalty>
5.60284298770917e-11

> <i_epik_Tot_Q>
0

> <i_epik_Tot_abs_Q>
0

$$$$
