3bjm_ligand
                    3D
 Schrodinger Suite 2020-3.
 51 55  0  0  1  0            999 V2000
   66.4430   72.4150   71.0990 C   0  0  1  0  0  0
   65.8870   72.6960   69.6490 C   0  0  1  0  0  0
   67.9470   72.1390   71.0210 C   0  0  0  0  0  0
   68.5590   71.9600   72.4190 C   0  0  1  0  0  0
   66.8160   73.4630   73.4040 C   0  0  2  0  0  0
   66.3870   70.9400   73.2330 C   0  0  1  0  0  0
   68.3050   73.2490   73.2460 C   0  0  0  0  0  0
   67.9120   70.6940   73.0810 C   0  0  0  0  0  0
   66.2290   72.2230   74.1350 C   0  0  0  0  0  0
   68.6380   72.0130   66.1540 C   0  0  1  0  0  0
   68.9990   71.9700   67.6110 C   0  0  0  0  0  0
   67.7240   71.0410   65.4460 C   0  0  0  0  0  0
   67.5180   69.1910   67.0900 C   0  0  0  0  0  0
   67.0210   68.7270   68.2460 N   0  0  0  0  0  0
   66.2290   73.6910   71.9760 C   0  0  0  0  0  0
   65.7800   71.2180   71.8150 C   0  0  0  0  0  0
   65.9280   71.5530   68.6130 C   0  0  0  0  0  0
   64.5150   73.1010   69.6690 N   0  3  0  0  0  0
   66.8880   71.5120   67.6940 N   0  0  0  0  0  0
   65.0540   70.6980   68.6370 O   0  0  0  0  0  0
   69.9580   71.8640   72.2920 O   0  0  0  0  0  0
   67.7520   72.6200   67.1480 C   0  0  2  0  0  0
   66.8640   70.5240   66.5700 C   0  0  1  0  0  0
   66.5176   73.5252   69.2958 H   0  0  0  0  0  0
   68.1215   71.2190   70.4438 H   0  0  0  0  0  0
   68.4495   72.9831   70.5261 H   0  0  0  0  0  0
   66.5892   74.3459   74.0197 H   0  0  0  0  0  0
   65.8832   70.0682   73.6759 H   0  0  0  0  0  0
   68.7674   73.1448   74.2387 H   0  0  0  0  0  0
   68.7457   74.1117   72.7250 H   0  0  0  0  0  0
   68.0880   69.8159   72.4423 H   0  0  0  0  0  0
   68.3646   70.5252   74.0693 H   0  0  0  0  0  0
   66.7661   72.0675   75.0823 H   0  0  0  0  0  0
   65.1617   72.3905   74.3419 H   0  0  0  0  0  0
   69.3272   72.2084   65.3192 H   0  0  0  0  0  0
   69.0843   70.9228   67.9368 H   0  0  0  0  0  0
   69.9604   72.4816   67.7658 H   0  0  0  0  0  0
   67.1461   71.5747   64.6771 H   0  0  0  0  0  0
   68.3253   70.2519   64.9709 H   0  0  0  0  0  0
   68.3218   68.7110   66.5126 H   0  0  0  0  0  0
   66.2146   69.2737   68.7568 H   0  0  0  0  0  0
   66.7378   74.5468   71.5084 H   0  0  0  0  0  0
   65.1529   73.9039   72.0572 H   0  0  0  0  0  0
   64.7060   71.4173   71.9445 H   0  0  0  0  0  0
   65.9139   70.3090   71.2102 H   0  0  0  0  0  0
   64.3858   73.9230   70.3885 H   0  0  0  0  0  0
   63.8857   72.2497   69.9679 H   0  0  0  0  0  0
   64.2186   73.4417   68.6660 H   0  0  0  0  0  0
   70.5274   72.6905   71.8418 H   0  0  0  0  0  0
   67.2319   73.5893   67.1419 H   0  0  0  0  0  0
   67.4197   67.7998   68.6833 H   0  0  0  0  0  0
  1  2  1  0  0  0
  1  3  1  0  0  0
  1 15  1  0  0  0
  1 16  1  0  0  0
  2 17  1  0  0  0
  2 18  1  0  0  0
  2 24  1  0  0  0
  3  4  1  0  0  0
  3 25  1  0  0  0
  3 26  1  0  0  0
  4  7  1  0  0  0
  4  8  1  0  0  0
  4 21  1  0  0  0
  5  7  1  0  0  0
  5  9  1  0  0  0
  5 15  1  0  0  0
  5 27  1  0  0  0
  6  8  1  0  0  0
  6  9  1  0  0  0
  6 16  1  0  0  0
  6 28  1  0  0  0
  7 29  1  0  0  0
  7 30  1  0  0  0
  8 31  1  0  0  0
  8 32  1  0  0  0
  9 33  1  0  0  0
  9 34  1  0  0  0
 10 11  1  0  0  0
 10 12  1  0  0  0
 10 22  1  0  0  0
 10 35  1  0  0  0
 11 22  1  0  0  0
 11 36  1  0  0  0
 11 37  1  0  0  0
 12 23  1  0  0  0
 12 38  1  0  0  0
 12 39  1  0  0  0
 13 14  1  0  0  0
 13 23  2  0  0  0
 13 40  1  0  0  0
 14 41  1  0  0  0
 14 51  1  0  0  0
 15 42  1  0  0  0
 15 43  1  0  0  0
 16 44  1  0  0  0
 16 45  1  0  0  0
 17 19  1  0  0  0
 17 20  2  0  0  0
 18 46  1  0  0  0
 18 47  1  0  0  0
 18 48  1  0  0  0
 19 22  1  0  0  0
 19 23  1  0  0  0
 21 49  1  0  0  0
 22 50  1  0  0  0
M  CHG  1  18   1
M  END
> <s_m_source_file>
../3bjm_ligand.sdf

> <i_m_source_file_index>
1

> <s_epik_input>
W0hdL049W0NIXVxbQ0BIXShbQ0gyXTEpTihbQ0BIXShbQ0BIXTEyKVtDSDJdMilDKD1PKVtDQEBIXShbTkgzK10pW0NAQF0zNFtDSDJdW0NAQF01KFtPSF0pW0NIMl1bQ0BASF0oW0NIMl0zKVtDSDJdW0NASF0oW0NIMl01KVtDSDJdNA==

> <s_epik_cmdline>
J2VwaWtfYXBwJywgJy1pbWFlJywgJ2xpZ2FuZF9wcm8ubWFlJywgJy1vbWFlJywgJ2xpZ2FuZF9wcmVwLm1hZScsICctbXMnLCAnMScsICctcGgnLCAnNycsICctcGh0JywgJzAuNScsICctbnQn

> <r_lp_tautomer_probability>
7e-06

> <r_epik_Ionization_Penalty>
  0.0775

> <r_epik_Ionization_Penalty_Charging>
  0.0775

> <r_epik_Ionization_Penalty_Neutral>
  0.0000

> <r_epik_State_Penalty>
  0.0685

> <r_epik_Charging_Adjusted_Penalty>
0.14598696305897

> <i_epik_Tot_Q>
1

> <i_epik_Tot_abs_Q>
1

> <s_epik_Chemistry_Notes>
This compound has an imine and may undergo hydrolysis.

$$$$
