3bl1_ligand
                    3D
 Schrodinger Suite 2020-3.
 40 42  0  0  1  0            999 V2000
   -7.4680    0.9160   16.9850 O   0  0  0  0  0  0
   -6.0510    1.1250   16.9110 S   0  0  0  0  0  0
   -5.4540   -0.0630   16.3530 N   0  0  0  0  0  0
   -5.5830    1.3070   18.4150 O   0  0  0  0  0  0
   -5.7000    2.3410   15.8520 C   0  0  0  0  0  0
   -5.1880    2.1110   14.5560 C   0  0  0  0  0  0
   -5.9060    3.6720   16.1680 C   0  0  0  0  0  0
   -6.5720    4.0520   17.7680 Cl  0  0  0  0  0  0
   -5.6290    4.7030   15.2590 C   0  0  0  0  0  0
   -5.1040    4.4400   13.9930 C   0  0  0  0  0  0
   -4.8610    3.1260   13.6170 C   0  0  0  0  0  0
   -4.3490    2.7160   12.2300 C   0  0  0  0  0  0
   -4.5670    1.5470   11.9120 O   0  0  0  0  0  0
   -3.7590    3.3710   11.2130 N   0  0  0  0  0  0
   -3.2420    4.6440   10.8640 N   0  0  0  0  0  0
   -2.0030    4.7160   10.0830 C   0  0  1  0  0  0
   -2.1770    4.0750    8.7110 C   0  0  0  0  0  0
   -3.7830    5.9120   11.1120 C   0  0  0  0  0  0
   -2.9520    6.8640   10.5830 C   0  0  0  0  0  0
   -1.7470    6.2290    9.9230 C   0  0  0  0  0  0
   -4.9710    6.2670   11.7600 C   0  0  0  0  0  0
   -5.2920    7.6300   11.8680 C   0  0  0  0  0  0
   -4.4250    8.5990   11.3250 C   0  0  0  0  0  0
   -3.2340    8.2310   10.6730 C   0  0  0  0  0  0
   -5.6521   -0.9186   17.0153 H   0  0  0  0  0  0
   -4.3679    0.0828   16.2572 H   0  0  0  0  0  0
   -5.0318    1.0757   14.2529 H   0  0  0  0  0  0
   -5.8285    5.7348   15.5482 H   0  0  0  0  0  0
   -4.8869    5.2582   13.3063 H   0  0  0  0  0  0
   -3.7255    2.5458   10.4865 H   0  0  0  0  0  0
   -1.2049    4.1641   10.6011 H   0  0  0  0  0  0
   -2.3592    2.9968    8.8305 H   0  0  0  0  0  0
   -1.2647    4.2290    8.1160 H   0  0  0  0  0  0
   -3.0327    4.5367    8.1965 H   0  0  0  0  0  0
   -0.8056    6.4967   10.4250 H   0  0  0  0  0  0
   -1.6760    6.4778    8.8539 H   0  0  0  0  0  0
   -5.6318    5.5039   12.1713 H   0  0  0  0  0  0
   -6.2092    7.9374   12.3704 H   0  0  0  0  0  0
   -4.6822    9.6546   11.4119 H   0  0  0  0  0  0
   -2.5599    8.9791   10.2558 H   0  0  0  0  0  0
  1  2  2  0  0  0
  2  3  1  0  0  0
  2  4  2  0  0  0
  2  5  1  0  0  0
  3 25  1  0  0  0
  3 26  1  0  0  0
  5  6  2  0  0  0
  5  7  1  0  0  0
  6 11  1  0  0  0
  6 27  1  0  0  0
  7  8  1  0  0  0
  7  9  2  0  0  0
  9 10  1  0  0  0
  9 28  1  0  0  0
 10 11  2  0  0  0
 10 29  1  0  0  0
 11 12  1  0  0  0
 12 13  2  0  0  0
 12 14  1  0  0  0
 14 15  1  0  0  0
 14 30  1  0  0  0
 15 16  1  0  0  0
 15 18  1  0  0  0
 16 17  1  0  0  0
 16 20  1  0  0  0
 16 31  1  0  0  0
 17 32  1  0  0  0
 17 33  1  0  0  0
 17 34  1  0  0  0
 18 19  2  0  0  0
 18 21  1  0  0  0
 19 20  1  0  0  0
 19 24  1  0  0  0
 20 35  1  0  0  0
 20 36  1  0  0  0
 21 22  2  0  0  0
 21 37  1  0  0  0
 22 23  1  0  0  0
 22 38  1  0  0  0
 23 24  2  0  0  0
 23 39  1  0  0  0
 24 40  1  0  0  0
M  END
> <s_m_source_file>
../3bl1_ligand.sdf

> <i_m_source_file_index>
1

> <s_epik_input>
Tz1TKD1PKShbTkgyXSljMVtjSF1jKFtjSF1bY0hdYzFDbClDKD1PKVtOSF1OMltDQEBIXShbQ0gzXSlbQ0gyXWMoYzIzKVtjSF1bY0hdW2NIXVtjSF0z

> <s_epik_cmdline>
J2VwaWtfYXBwJywgJy1pbWFlJywgJ2xpZ2FuZF9wcm8ubWFlJywgJy1vbWFlJywgJ2xpZ2FuZF9wcmVwLm1hZScsICctbXMnLCAnMScsICctcGgnLCAnNycsICctcGh0JywgJzAuNScsICctbnQn

> <r_lp_tautomer_probability>
1

> <r_epik_Ionization_Penalty>
  0.0035

> <r_epik_Ionization_Penalty_Charging>
  0.0000

> <r_epik_Ionization_Penalty_Neutral>
  0.0035

> <r_epik_State_Penalty>
 -0.0000

> <r_epik_Charging_Adjusted_Penalty>
0

> <i_epik_Tot_Q>
0

> <i_epik_Tot_abs_Q>
0

$$$$
