3bl2_ligand
                    3D
 Schrodinger Suite 2020-3.
320320  0  0  1  0            999 V2000
  -12.2890    3.4400   29.9030 N   0  3  0  0  0  0
  -12.2940    4.6110   28.9790 C   0  0  2  0  0  0
  -11.1740    4.4800   27.9560 C   0  0  0  0  0  0
  -10.1500    3.8440   28.2120 O   0  0  0  0  0  0
  -12.0890    5.9480   29.7430 C   0  0  2  0  0  0
  -13.0970    6.0890   30.7500 O   0  0  0  0  0  0
  -12.1790    7.1360   28.7860 C   0  0  0  0  0  0
  -11.3870    5.0840   26.7930 N   0  0  0  0  0  0
  -10.4010    5.0700   25.7220 C   0  0  2  0  0  0
   -9.2370    5.9540   26.1480 C   0  0  0  0  0  0
   -8.1040    5.7900   25.6970 O   0  0  0  0  0  0
  -11.0450    5.5840   24.4220 C   0  0  0  0  0  0
  -10.0970    6.2350   23.4150 C   0  0  0  0  0  0
   -9.6610    7.9430   23.8560 S   0  0  0  0  0  0
  -11.1500    8.8100   23.3430 C   0  0  0  0  0  0
   -9.5340    6.8850   27.0430 N   0  0  0  0  0  0
   -8.5400    7.8140   27.5480 C   0  0  2  0  0  0
   -7.5520    7.1280   28.4800 C   0  0  0  0  0  0
   -6.3730    7.4700   28.5040 O   0  0  0  0  0  0
   -9.2470    8.9630   28.2560 C   0  0  0  0  0  0
  -10.1890    9.6990   27.3220 C   0  0  0  0  0  0
  -10.9270   10.8290   27.9960 C   0  0  0  0  0  0
  -11.5680   11.6200   27.2670 O   0  0  0  0  0  0
  -10.8710   10.9200   29.2450 O   0  0  0  0  0  0
   -8.0320    6.1600   29.2490 N   0  0  0  0  0  0
   -7.1540    5.4300   30.1480 C   0  0  2  0  0  0
   -6.2250    4.5500   29.3220 C   0  0  0  0  0  0
   -5.0160    4.5100   29.5610 O   0  0  0  0  0  0
   -7.9710    4.5710   31.1090 C   0  0  0  0  0  0
   -8.7060    5.3980   32.1390 C   0  0  0  0  0  0
   -8.0910    6.1450   32.9060 O   0  0  0  0  0  0
  -10.0290    5.2710   32.1680 N   0  0  0  0  0  0
   -6.7940    3.8480   28.3460 N   0  0  0  0  0  0
   -6.0090    2.9820   27.4800 C   0  0  2  0  0  0
   -4.9170    3.8140   26.8320 C   0  0  0  0  0  0
   -3.7940    3.3540   26.6340 O   0  0  0  0  0  0
   -6.8880    2.3840   26.3840 C   0  0  0  0  0  0
   -6.1000    1.6360   25.3060 C   0  0  0  0  0  0
   -5.4610    0.4030   25.9150 C   0  0  0  0  0  0
   -7.0230    1.2540   24.1610 C   0  0  0  0  0  0
   -5.2730    5.0470   26.4980 N   0  0  0  0  0  0
   -4.3500    5.9700   25.8650 C   0  0  2  0  0  0
   -3.1620    6.2900   26.7700 C   0  0  0  0  0  0
   -2.0320    6.4280   26.2960 O   0  0  0  0  0  0
   -5.0810    7.2570   25.4940 C   0  0  0  0  0  0
   -4.2240    8.1230   24.7750 O   0  0  0  0  0  0
   -3.4080    6.4080   28.0710 N   0  0  0  0  0  0
   -2.3200    6.7130   28.9950 C   0  0  2  0  0  0
   -1.4360    5.4850   29.1570 C   0  0  0  0  0  0
   -0.2090    5.5870   29.1870 O   0  0  0  0  0  0
   -2.8670    7.1380   30.3560 C   0  0  0  0  0  0
   -1.8630    7.9070   31.2000 C   0  0  0  0  0  0
   -2.3460    8.0440   32.6370 C   0  0  0  0  0  0
   -1.4430    8.8680   33.4420 N   0  0  0  0  0  0
   -1.4760    8.9500   34.7700 C   0  0  0  0  0  0
   -2.3680    8.2570   35.4670 N   0  0  0  0  0  0
   -0.6110    9.7290   35.4030 N   0  0  0  0  0  0
   -2.0730    4.3220   29.2470 N   0  0  0  0  0  0
   -1.3630    3.0560   29.4000 C   0  0  2  0  0  0
   -0.4780    2.7350   28.1850 C   0  0  0  0  0  0
    0.6430    2.2200   28.3320 O   0  0  0  0  0  0
   -2.3740    1.9280   29.6430 C   0  0  0  0  0  0
   -3.1860    2.1070   30.9320 C   0  0  0  0  0  0
   -3.9670    0.8460   31.3160 C   0  0  0  0  0  0
   -4.4770    0.9320   32.6860 N   0  0  0  0  0  0
   -5.0710   -0.0610   33.3460 C   0  0  0  0  0  0
   -5.2450   -1.2420   32.7700 N   0  0  0  0  0  0
   -5.4910    0.1250   34.5910 N   0  0  0  0  0  0
   -0.9800    3.0480   26.9910 N   0  0  0  0  0  0
   -0.2360    2.8100   25.7630 C   0  0  2  0  0  0
    0.9500    3.7630   25.6720 C   0  0  0  0  0  0
    2.0030    3.4010   25.1480 O   0  0  0  0  0  0
   -1.1480    2.9880   24.5380 C   0  0  0  0  0  0
   -2.2070    1.9020   24.2870 C   0  0  0  0  0  0
   -3.1620    2.3750   23.1950 C   0  0  0  0  0  0
   -1.5350    0.5800   23.8960 C   0  0  0  0  0  0
    0.7790    4.9840   26.1770 N   0  0  0  0  0  0
    1.8640    5.9650   26.1600 C   0  0  2  0  0  0
    2.9310    5.5600   27.1590 C   0  0  0  0  0  0
    4.1250    5.6900   26.8880 O   0  0  0  0  0  0
    1.3410    7.3700   26.4800 C   0  0  0  0  0  0
    0.7530    8.0590   25.2600 C   0  0  0  0  0  0
    0.2030    9.4340   25.5650 C   0  0  0  0  0  0
   -1.1780    9.3550   26.1730 C   0  0  0  0  0  0
   -1.9280   10.6260   25.9190 N   0  3  0  0  0  0
    2.4970    5.0620   28.3120 N   0  0  0  0  0  0
    3.4240    4.6110   29.3390 C   0  0  2  0  0  0
    4.2440    3.4530   28.7940 C   0  0  0  0  0  0
    5.4690    3.4010   28.9660 O   0  0  0  0  0  0
    2.6740    4.1210   30.5940 C   0  0  0  0  0  0
    3.6200    3.3580   31.4990 C   0  0  0  0  0  0
    2.0680    5.3160   31.3330 C   0  0  0  0  0  0
    3.5530    2.5300   28.1320 N   0  0  0  0  0  0
    4.1920    1.3550   27.5570 C   0  0  2  0  0  0
    5.1110    1.7470   26.3980 C   0  0  0  0  0  0
    6.2210    1.2260   26.2740 O   0  0  0  0  0  0
    3.1410    0.3320   27.0500 C   0  0  2  0  0  0
    2.1970    0.0530   28.0940 O   0  0  0  0  0  0
    3.8290   -0.9830   26.6270 C   0  0  0  0  0  0
    4.6500    2.6690   25.5580 N   0  0  0  0  0  0
    5.4530    3.0990   24.4280 C   0  0  0  0  0  0
    6.7200    3.7870   24.8840 C   0  0  0  0  0  0
    7.7940    3.5780   24.3120 O   0  0  0  0  0  0
    6.6040    4.6140   25.9190 N   0  0  0  0  0  0
    7.7640    5.3190   26.4430 C   0  0  2  0  0  0
    8.7480    4.3520   27.0970 C   0  0  0  0  0  0
    9.9660    4.4900   26.9410 O   0  0  0  0  0  0
    7.3300    6.3920   27.4420 C   0  0  0  0  0  0
    6.4190    7.4420   26.8130 C   0  0  0  0  0  0
    6.5820    7.7190   25.6030 O   0  0  0  0  0  0
    5.5500    7.9960   27.5290 O   0  0  0  0  0  0
    8.2220    3.3690   27.8200 N   0  0  0  0  0  0
    9.0720    2.3850   28.4830 C   0  0  2  0  0  0
    9.5500    1.3240   27.5040 C   0  0  0  0  0  0
   10.4650    0.5670   27.8090 O   0  0  0  0  0  0
    8.3160    1.6880   29.6180 C   0  0  0  0  0  0
    7.8600    2.5440   30.8000 C   0  0  0  0  0  0
    7.1360    1.6580   31.7910 C   0  0  0  0  0  0
    9.0590    3.2220   31.4610 C   0  0  0  0  0  0
    8.9180    1.2650   26.3360 N   0  0  0  0  0  0
    9.2780    0.2820   25.3220 C   0  0  2  0  0  0
   10.6600    0.5660   24.7560 C   0  0  0  0  0  0
   11.4950   -0.3310   24.6520 O   0  0  0  0  0  0
    8.2610    0.2940   24.1800 C   0  0  0  0  0  0
    8.5290   -0.7390   23.1220 C   0  0  0  0  0  0
    8.0330   -2.0330   23.2520 C   0  0  0  0  0  0
    9.2970   -0.4250   22.0010 C   0  0  0  0  0  0
    8.2950   -3.0000   22.2860 C   0  0  0  0  0  0
    9.5670   -1.3840   21.0290 C   0  0  0  0  0  0
    9.0630   -2.6780   21.1730 C   0  0  0  0  0  0
   10.8850    1.8190   24.3730 N   0  0  0  0  0  0
   12.1660    2.2350   23.8100 C   0  0  2  0  0  0
   13.3000    1.9300   24.7860 C   0  0  0  0  0  0
   14.4680    1.8540   24.4000 O   0  0  0  0  0  0
   12.1410    3.7360   23.4990 C   0  0  0  0  0  0
   11.0820    4.1040   22.4730 C   0  0  0  0  0  0
   11.2000    3.6840   21.3030 O   0  0  0  0  0  0
   10.1250    4.8150   22.8380 O   0  0  0  0  0  0
   12.9380    1.7540   26.0520 N   0  0  0  0  0  0
   13.8990    1.4630   27.1040 C   0  0  2  0  0  0
   13.9760   -0.0440   27.3590 C   0  0  0  0  0  0
   14.7300   -0.7660   26.7040 O   0  0  0  0  0  0
   13.4880    2.1680   28.4160 C   0  0  2  0  0  0
   13.2050    3.6470   28.1430 C   0  0  0  0  0  0
   14.5870    2.0200   29.4560 C   0  0  0  0  0  0
   12.6880    4.4020   29.3490 C   0  0  0  0  0  0
   13.1770   -0.4920   28.3210 N   0  0  0  0  0  0
   13.0820   -1.8870   28.7350 C   0  0  2  0  0  0
   12.9750   -2.8900   27.5830 C   0  0  0  0  0  0
   13.7940   -3.8340   27.5410 O   0  0  0  0  0  0
   11.8800   -2.0190   29.6680 C   0  0  0  0  0  0
   11.4170   -3.4230   29.9540 C   0  0  0  0  0  0
   10.0420   -3.3620   31.1230 S   0  0  0  0  0  0
    8.8760   -2.2940   30.2570 C   0  0  0  0  0  0
   12.0690   -2.7320   26.7420 O   0  0  0  0  0  0
  -12.4365    2.5160   29.3247 H   0  0  0  0  0  0
  -13.1023    3.5477   30.6358 H   0  0  0  0  0  0
  -11.3245    3.3928   30.4299 H   0  0  0  0  0  0
  -13.2776    4.5851   28.4872 H   0  0  0  0  0  0
  -11.1243    5.9539   30.2716 H   0  0  0  0  0  0
  -13.1965    5.3289   31.5388 H   0  0  0  0  0  0
  -11.4085    7.0385   28.0070 H   0  0  0  0  0  0
  -12.0194    8.0699   29.3449 H   0  0  0  0  0  0
  -13.1740    7.1547   28.3173 H   0  0  0  0  0  0
  -12.3446    5.6066   26.6522 H   0  0  0  0  0  0
  -10.0592    4.0345   25.5775 H   0  0  0  0  0  0
  -11.5228    4.7460   23.8933 H   0  0  0  0  0  0
  -11.8021    6.3445   24.6636 H   0  0  0  0  0  0
   -9.1642    5.6544   23.3612 H   0  0  0  0  0  0
  -10.5733    6.2562   22.4237 H   0  0  0  0  0  0
  -11.0384    9.8845   23.5503 H   0  0  0  0  0  0
  -12.0134    8.4168   23.8997 H   0  0  0  0  0  0
  -11.3092    8.6591   22.2651 H   0  0  0  0  0  0
  -10.5719    6.9405   27.4032 H   0  0  0  0  0  0
   -7.9873    8.1752   26.6682 H   0  0  0  0  0  0
   -9.8323    8.5690   29.0999 H   0  0  0  0  0  0
   -8.4999    9.6784   28.6302 H   0  0  0  0  0  0
   -9.6163   10.1268   26.4860 H   0  0  0  0  0  0
  -10.9400    8.9970   26.9307 H   0  0  0  0  0  0
  -11.4000   11.7345   29.7614 H   0  0  0  0  0  0
   -9.1025    5.9110   29.2032 H   0  0  0  0  0  0
   -6.5844    6.1803   30.7161 H   0  0  0  0  0  0
   -8.7165    3.9942   30.5419 H   0  0  0  0  0  0
   -7.3017    3.8803   31.6429 H   0  0  0  0  0  0
  -10.5319    4.5921   31.4636 H   0  0  0  0  0  0
  -10.6208    5.8448   32.8964 H   0  0  0  0  0  0
   -7.8811    3.9321   28.2004 H   0  0  0  0  0  0
   -5.5948    2.1855   28.1157 H   0  0  0  0  0  0
   -7.5944    1.6685   26.8301 H   0  0  0  0  0  0
   -7.4475    3.1879   25.8833 H   0  0  0  0  0  0
   -5.3040    2.2798   24.9036 H   0  0  0  0  0  0
   -4.7984    0.7030   26.7402 H   0  0  0  0  0  0
   -4.8751   -0.1235   25.1472 H   0  0  0  0  0  0
   -6.2460   -0.2649   26.2994 H   0  0  0  0  0  0
   -7.4744    2.1623   23.7353 H   0  0  0  0  0  0
   -7.8168    0.5909   24.5355 H   0  0  0  0  0  0
   -6.4459    0.7323   23.3833 H   0  0  0  0  0  0
   -6.3041    5.3626   26.7152 H   0  0  0  0  0  0
   -3.9917    5.4441   24.9677 H   0  0  0  0  0  0
   -5.9529    7.0160   24.8681 H   0  0  0  0  0  0
   -5.4164    7.7653   26.4100 H   0  0  0  0  0  0
   -4.5933    9.0997   24.4289 H   0  0  0  0  0  0
   -4.4317    6.2758   28.4512 H   0  0  0  0  0  0
   -1.7567    7.5441   28.5457 H   0  0  0  0  0  0
   -3.7427    7.7880   30.2125 H   0  0  0  0  0  0
   -3.1624    6.2457   30.9274 H   0  0  0  0  0  0
   -0.9008    7.3739   31.2016 H   0  0  0  0  0  0
   -1.7239    8.9133   30.7782 H   0  0  0  0  0  0
   -3.3404    8.5141   32.6463 H   0  0  0  0  0  0
   -2.4069    7.0480   33.0999 H   0  0  0  0  0  0
   -0.6692    9.4766   32.9511 H   0  0  0  0  0  0
   -3.0887    7.6086   34.9473 H   0  0  0  0  0  0
   -2.3865    8.3311   36.5643 H   0  0  0  0  0  0
    0.1307   10.3058   34.8310 H   0  0  0  0  0  0
   -3.1720    4.3344   29.2027 H   0  0  0  0  0  0
   -0.7124    3.1984   30.2755 H   0  0  0  0  0  0
   -3.0866    1.8877   28.8060 H   0  0  0  0  0  0
   -1.8417    0.9683   29.7179 H   0  0  0  0  0  0
   -2.5067    2.3496   31.7625 H   0  0  0  0  0  0
   -3.9094    2.9250   30.7991 H   0  0  0  0  0  0
   -4.8198    0.7206   30.6326 H   0  0  0  0  0  0
   -3.3067   -0.0307   31.2431 H   0  0  0  0  0  0
   -4.3825    1.8716   33.2501 H   0  0  0  0  0  0
   -4.9006   -1.4069   31.7384 H   0  0  0  0  0  0
   -5.3516    1.1012   35.0784 H   0  0  0  0  0  0
   -5.9786   -0.6970   35.1356 H   0  0  0  0  0  0
   -1.9833    3.4970   26.9480 H   0  0  0  0  0  0
    0.1205    1.7715   25.8298 H   0  0  0  0  0  0
   -1.7092    3.9293   24.6324 H   0  0  0  0  0  0
   -0.5347    3.0168   23.6253 H   0  0  0  0  0  0
   -2.7856    1.7253   25.2057 H   0  0  0  0  0  0
   -3.6287    3.3228   23.5014 H   0  0  0  0  0  0
   -3.9426    1.6163   23.0367 H   0  0  0  0  0  0
   -2.6032    2.5269   22.2598 H   0  0  0  0  0  0
   -0.8537    0.2634   24.6994 H   0  0  0  0  0  0
   -0.9650    0.7196   22.9656 H   0  0  0  0  0  0
   -2.3044   -0.1910   23.7425 H   0  0  0  0  0  0
   -0.1961    5.2498   26.6113 H   0  0  0  0  0  0
    2.2768    5.9505   25.1405 H   0  0  0  0  0  0
    0.5537    7.3027   27.2453 H   0  0  0  0  0  0
    2.1666    7.9915   26.8570 H   0  0  0  0  0  0
    1.5326    8.1740   24.4925 H   0  0  0  0  0  0
   -0.0710    7.4516   24.8574 H   0  0  0  0  0  0
    0.8681    9.9454   26.2764 H   0  0  0  0  0  0
    0.1414   10.0188   24.6354 H   0  0  0  0  0  0
   -1.7290    8.5157   25.7236 H   0  0  0  0  0  0
   -1.0924    9.1981   27.2584 H   0  0  0  0  0  0
   -2.9306   10.5557   26.3661 H   0  0  0  0  0  0
   -2.0205   10.7867   24.8347 H   0  0  0  0  0  0
   -1.3838   11.4691   26.3696 H   0  0  0  0  0  0
    1.4123    4.9943   28.4820 H   0  0  0  0  0  0
    4.0500    5.4854   29.5706 H   0  0  0  0  0  0
    1.8637    3.4356   30.3048 H   0  0  0  0  0  0
    4.0442    2.5045   30.9499 H   0  0  0  0  0  0
    3.0703    2.9915   32.3785 H   0  0  0  0  0  0
    4.4322    4.0241   31.8255 H   0  0  0  0  0  0
    1.3855    5.8556   30.6599 H   0  0  0  0  0  0
    2.8724    5.9920   31.6587 H   0  0  0  0  0  0
    1.5105    4.9594   32.2116 H   0  0  0  0  0  0
    2.4677    2.6737   28.0248 H   0  0  0  0  0  0
    4.7800    0.9402   28.3890 H   0  0  0  0  0  0
    2.5555    0.7526   26.2192 H   0  0  0  0  0  0
    1.6026    0.8692   28.5306 H   0  0  0  0  0  0
    4.5544   -0.7762   25.8264 H   0  0  0  0  0  0
    3.0716   -1.6919   26.2614 H   0  0  0  0  0  0
    4.3514   -1.4181   27.4917 H   0  0  0  0  0  0
    3.6542    3.1062   25.7232 H   0  0  0  0  0  0
    5.7291    2.2245   23.8205 H   0  0  0  0  0  0
    4.8738    3.8041   23.8137 H   0  0  0  0  0  0
    5.6161    4.7620   26.3796 H   0  0  0  0  0  0
    8.2378    5.7843   25.5661 H   0  0  0  0  0  0
    6.7816    5.9208   28.2710 H   0  0  0  0  0  0
    8.2185    6.9070   27.8361 H   0  0  0  0  0  0
    4.8829    8.7557   27.0955 H   0  0  0  0  0  0
    7.1280    3.3037   27.9148 H   0  0  0  0  0  0
    9.9225    2.9686   28.8653 H   0  0  0  0  0  0
    7.3972    1.2320   29.2207 H   0  0  0  0  0  0
    8.9531    0.9061   30.0570 H   0  0  0  0  0  0
    7.1726    3.3296   30.4530 H   0  0  0  0  0  0
    6.2776    1.1799   31.2965 H   0  0  0  0  0  0
    6.7804    2.2667   32.6354 H   0  0  0  0  0  0
    7.8239    0.8836   32.1612 H   0  0  0  0  0  0
    9.5707    3.8602   30.7256 H   0  0  0  0  0  0
    9.7565    2.4554   31.8296 H   0  0  0  0  0  0
    8.7130    3.8385   32.3037 H   0  0  0  0  0  0
    8.1058    1.9814   26.1436 H   0  0  0  0  0  0
    9.2742   -0.6848   25.8466 H   0  0  0  0  0  0
    7.2560    0.0981   24.5820 H   0  0  0  0  0  0
    8.2737    1.2777   23.6880 H   0  0  0  0  0  0
    7.4309   -2.2927   24.1227 H   0  0  0  0  0  0
    9.6910    0.5846   21.8845 H   0  0  0  0  0  0
    7.8985   -4.0087   22.4020 H   0  0  0  0  0  0
   10.1698   -1.1256   20.1584 H   0  0  0  0  0  0
    9.2711   -3.4333   20.4152 H   0  0  0  0  0  0
   10.0722    2.5508   24.4905 H   0  0  0  0  0  0
   12.2952    1.6493   22.8879 H   0  0  0  0  0  0
   11.9275    4.2978   24.4203 H   0  0  0  0  0  0
   13.1186    4.0441   23.0999 H   0  0  0  0  0  0
   10.4428    3.9407   20.5475 H   0  0  0  0  0  0
   11.8676    1.8355   26.2920 H   0  0  0  0  0  0
   14.8587    1.8417   26.7224 H   0  0  0  0  0  0
   12.5769    1.7032   28.8207 H   0  0  0  0  0  0
   14.1314    4.1438   27.8189 H   0  0  0  0  0  0
   12.4456    3.7351   27.3521 H   0  0  0  0  0  0
   14.7768    0.9521   29.6394 H   0  0  0  0  0  0
   14.2725    2.5027   30.3930 H   0  0  0  0  0  0
   15.5068    2.4980   29.0880 H   0  0  0  0  0  0
   12.5092    5.4522   29.0751 H   0  0  0  0  0  0
   13.4325    4.3555   30.1575 H   0  0  0  0  0  0
   11.7467    3.9468   29.6907 H   0  0  0  0  0  0
   12.5597    0.2720   28.8163 H   0  0  0  0  0  0
   14.0402   -2.0922   29.2346 H   0  0  0  0  0  0
   13.7427   -4.5708   26.7258 H   0  0  0  0  0  0
   12.1225   -1.5729   30.6438 H   0  0  0  0  0  0
   11.0168   -1.4962   29.2302 H   0  0  0  0  0  0
   11.0875   -3.8982   29.0182 H   0  0  0  0  0  0
   12.2464   -4.0016   30.3868 H   0  0  0  0  0  0
    7.9706   -2.1674   30.8688 H   0  0  0  0  0  0
    8.6064   -2.7508   29.2933 H   0  0  0  0  0  0
    9.3395   -1.3122   30.0805 H   0  0  0  0  0  0
  1  2  1  0  0  0
  1156  1  0  0  0
  1157  1  0  0  0
  1158  1  0  0  0
  2  3  1  0  0  0
  2  5  1  0  0  0
  2159  1  0  0  0
  3  4  2  0  0  0
  3  8  1  0  0  0
  5  6  1  0  0  0
  5  7  1  0  0  0
  5160  1  0  0  0
  6161  1  0  0  0
  7162  1  0  0  0
  7163  1  0  0  0
  7164  1  0  0  0
  8  9  1  0  0  0
  8165  1  0  0  0
  9 10  1  0  0  0
  9 12  1  0  0  0
  9166  1  0  0  0
 10 11  2  0  0  0
 10 16  1  0  0  0
 12 13  1  0  0  0
 12167  1  0  0  0
 12168  1  0  0  0
 13 14  1  0  0  0
 13169  1  0  0  0
 13170  1  0  0  0
 14 15  1  0  0  0
 15171  1  0  0  0
 15172  1  0  0  0
 15173  1  0  0  0
 16 17  1  0  0  0
 16174  1  0  0  0
 17 18  1  0  0  0
 17 20  1  0  0  0
 17175  1  0  0  0
 18 19  2  0  0  0
 18 25  1  0  0  0
 20 21  1  0  0  0
 20176  1  0  0  0
 20177  1  0  0  0
 21 22  1  0  0  0
 21178  1  0  0  0
 21179  1  0  0  0
 22 23  2  0  0  0
 22 24  1  0  0  0
 24180  1  0  0  0
 25 26  1  0  0  0
 25181  1  0  0  0
 26 27  1  0  0  0
 26 29  1  0  0  0
 26182  1  0  0  0
 27 28  2  0  0  0
 27 33  1  0  0  0
 29 30  1  0  0  0
 29183  1  0  0  0
 29184  1  0  0  0
 30 31  2  0  0  0
 30 32  1  0  0  0
 32185  1  0  0  0
 32186  1  0  0  0
 33 34  1  0  0  0
 33187  1  0  0  0
 34 35  1  0  0  0
 34 37  1  0  0  0
 34188  1  0  0  0
 35 36  2  0  0  0
 35 41  1  0  0  0
 37 38  1  0  0  0
 37189  1  0  0  0
 37190  1  0  0  0
 38 39  1  0  0  0
 38 40  1  0  0  0
 38191  1  0  0  0
 39192  1  0  0  0
 39193  1  0  0  0
 39194  1  0  0  0
 40195  1  0  0  0
 40196  1  0  0  0
 40197  1  0  0  0
 41 42  1  0  0  0
 41198  1  0  0  0
 42 43  1  0  0  0
 42 45  1  0  0  0
 42199  1  0  0  0
 43 44  2  0  0  0
 43 47  1  0  0  0
 45 46  1  0  0  0
 45200  1  0  0  0
 45201  1  0  0  0
 46202  1  0  0  0
 47 48  1  0  0  0
 47203  1  0  0  0
 48 49  1  0  0  0
 48 51  1  0  0  0
 48204  1  0  0  0
 49 50  2  0  0  0
 49 58  1  0  0  0
 51 52  1  0  0  0
 51205  1  0  0  0
 51206  1  0  0  0
 52 53  1  0  0  0
 52207  1  0  0  0
 52208  1  0  0  0
 53 54  1  0  0  0
 53209  1  0  0  0
 53210  1  0  0  0
 54 55  1  0  0  0
 54211  1  0  0  0
 55 56  1  0  0  0
 55 57  2  0  0  0
 56212  1  0  0  0
 56213  1  0  0  0
 57214  1  0  0  0
 58 59  1  0  0  0
 58215  1  0  0  0
 59 60  1  0  0  0
 59 62  1  0  0  0
 59216  1  0  0  0
 60 61  2  0  0  0
 60 69  1  0  0  0
 62 63  1  0  0  0
 62217  1  0  0  0
 62218  1  0  0  0
 63 64  1  0  0  0
 63219  1  0  0  0
 63220  1  0  0  0
 64 65  1  0  0  0
 64221  1  0  0  0
 64222  1  0  0  0
 65 66  1  0  0  0
 65223  1  0  0  0
 66 67  2  0  0  0
 66 68  1  0  0  0
 67224  1  0  0  0
 68225  1  0  0  0
 68226  1  0  0  0
 69 70  1  0  0  0
 69227  1  0  0  0
 70 71  1  0  0  0
 70 73  1  0  0  0
 70228  1  0  0  0
 71 72  2  0  0  0
 71 77  1  0  0  0
 73 74  1  0  0  0
 73229  1  0  0  0
 73230  1  0  0  0
 74 75  1  0  0  0
 74 76  1  0  0  0
 74231  1  0  0  0
 75232  1  0  0  0
 75233  1  0  0  0
 75234  1  0  0  0
 76235  1  0  0  0
 76236  1  0  0  0
 76237  1  0  0  0
 77 78  1  0  0  0
 77238  1  0  0  0
 78 79  1  0  0  0
 78 81  1  0  0  0
 78239  1  0  0  0
 79 80  2  0  0  0
 79 86  1  0  0  0
 81 82  1  0  0  0
 81240  1  0  0  0
 81241  1  0  0  0
 82 83  1  0  0  0
 82242  1  0  0  0
 82243  1  0  0  0
 83 84  1  0  0  0
 83244  1  0  0  0
 83245  1  0  0  0
 84 85  1  0  0  0
 84246  1  0  0  0
 84247  1  0  0  0
 85248  1  0  0  0
 85249  1  0  0  0
 85250  1  0  0  0
 86 87  1  0  0  0
 86251  1  0  0  0
 87 88  1  0  0  0
 87 90  1  0  0  0
 87252  1  0  0  0
 88 89  2  0  0  0
 88 93  1  0  0  0
 90 91  1  0  0  0
 90 92  1  0  0  0
 90253  1  0  0  0
 91254  1  0  0  0
 91255  1  0  0  0
 91256  1  0  0  0
 92257  1  0  0  0
 92258  1  0  0  0
 92259  1  0  0  0
 93 94  1  0  0  0
 93260  1  0  0  0
 94 95  1  0  0  0
 94 97  1  0  0  0
 94261  1  0  0  0
 95 96  2  0  0  0
 95100  1  0  0  0
 97 98  1  0  0  0
 97 99  1  0  0  0
 97262  1  0  0  0
 98263  1  0  0  0
 99264  1  0  0  0
 99265  1  0  0  0
 99266  1  0  0  0
100101  1  0  0  0
100267  1  0  0  0
101102  1  0  0  0
101268  1  0  0  0
101269  1  0  0  0
102103  2  0  0  0
102104  1  0  0  0
104105  1  0  0  0
104270  1  0  0  0
105106  1  0  0  0
105108  1  0  0  0
105271  1  0  0  0
106107  2  0  0  0
106112  1  0  0  0
108109  1  0  0  0
108272  1  0  0  0
108273  1  0  0  0
109110  2  0  0  0
109111  1  0  0  0
111274  1  0  0  0
112113  1  0  0  0
112275  1  0  0  0
113114  1  0  0  0
113116  1  0  0  0
113276  1  0  0  0
114115  2  0  0  0
114120  1  0  0  0
116117  1  0  0  0
116277  1  0  0  0
116278  1  0  0  0
117118  1  0  0  0
117119  1  0  0  0
117279  1  0  0  0
118280  1  0  0  0
118281  1  0  0  0
118282  1  0  0  0
119283  1  0  0  0
119284  1  0  0  0
119285  1  0  0  0
120121  1  0  0  0
120286  1  0  0  0
121122  1  0  0  0
121124  1  0  0  0
121287  1  0  0  0
122123  2  0  0  0
122131  1  0  0  0
124125  1  0  0  0
124288  1  0  0  0
124289  1  0  0  0
125126  2  0  0  0
125127  1  0  0  0
126128  1  0  0  0
126290  1  0  0  0
127129  2  0  0  0
127291  1  0  0  0
128130  2  0  0  0
128292  1  0  0  0
129130  1  0  0  0
129293  1  0  0  0
130294  1  0  0  0
131132  1  0  0  0
131295  1  0  0  0
132133  1  0  0  0
132135  1  0  0  0
132296  1  0  0  0
133134  2  0  0  0
133139  1  0  0  0
135136  1  0  0  0
135297  1  0  0  0
135298  1  0  0  0
136137  1  0  0  0
136138  2  0  0  0
137299  1  0  0  0
139140  1  0  0  0
139300  1  0  0  0
140141  1  0  0  0
140143  1  0  0  0
140301  1  0  0  0
141142  2  0  0  0
141147  1  0  0  0
143144  1  0  0  0
143145  1  0  0  0
143302  1  0  0  0
144146  1  0  0  0
144303  1  0  0  0
144304  1  0  0  0
145305  1  0  0  0
145306  1  0  0  0
145307  1  0  0  0
146308  1  0  0  0
146309  1  0  0  0
146310  1  0  0  0
147148  1  0  0  0
147311  1  0  0  0
148149  1  0  0  0
148151  1  0  0  0
148312  1  0  0  0
149150  1  0  0  0
149155  2  0  0  0
150313  1  0  0  0
151152  1  0  0  0
151314  1  0  0  0
151315  1  0  0  0
152153  1  0  0  0
152316  1  0  0  0
152317  1  0  0  0
153154  1  0  0  0
154318  1  0  0  0
154319  1  0  0  0
154320  1  0  0  0
M  CHG  2   1   1  85   1
M  END
> <s_m_source_file>
../3bl2_ligand.sdf

> <i_m_source_file_index>
1

> <s_epik_input>
W09IXVtDQEhdKFtDSDNdKVtDQEhdKFtOSDMrXSlDKD1PKVtOSF1bQ0BASF0oW0NIMl1bQ0gyXVNbQ0gzXSlDKD1PKVtOSF1bQ0BASF0oW0NIMl1bQ0gyXUMoPU8pW09IXSlDKD1PKVtOSF1bQ0BASF0oW0NIMl1DKD1PKVtOSDJdKUMoPU8pW05IXVtDQEBIXShbQ0gyXVtDSF0oW0NIM10pW0NIM10pQyg9TylbTkhdW0NAQEhdKFtDSDJdW09IXSlDKD1PKVtOSF1bQ0BASF0oW0NIMl1bQ0gyXVtDSDJdW05IXS9DKFtOSDJdKT1OXFtIXSlDKD1PKVtOSF1bQ0BASF0oW0NIMl1bQ0gyXVtDSDJdW05IXS9DKD1OXFtIXSlbTkgyXSlDKD1PKVtOSF1bQ0BASF0oW0NIMl1bQ0hdKFtDSDNdKVtDSDNdKUMoPU8pW05IXVtDQEBIXShbQ0gyXVtDSDJdW0NIMl1bQ0gyXVtOSDMrXSlDKD1PKVtOSF1bQ0BASF0oW0NIXShbQ0gzXSlbQ0gzXSlDKD1PKVtOSF1bQ0BASF0oW0NASF0oW09IXSlbQ0gzXSlDKD1PKVtOSF1bQ0gyXUMoPU8pW05IXVtDQEBIXShbQ0gyXUMoPU8pW09IXSlDKD1PKVtOSF1bQ0BASF0oW0NIMl1bQ0hdKFtDSDNdKVtDSDNdKUMoPU8pW05IXVtDQEBIXShbQ0gyXWMxW2NIXVtjSF1bY0hdW2NIXVtjSF0xKUMoPU8pW05IXVtDQEBIXShbQ0gyXUMoPU8pW09IXSlDKD1PKVtOSF1bQ0BASF0oW0NAQEhdKFtDSDNdKVtDSDJdW0NIM10pQyg9TylbTkhdW0NASF0oQyg9TylbT0hdKVtDSDJdW0NIMl1TW0NIM10=

> <s_epik_cmdline>
J2VwaWtfYXBwJywgJy1pbWFlJywgJ2xpZ2FuZF9wcm8ubWFlJywgJy1vbWFlJywgJ2xpZ2FuZF9wcmVwLm1hZScsICctbXMnLCAnMScsICctcGgnLCAnNycsICctcGh0JywgJzAuNScsICctbnQn

> <s_epik_pKa_notes>
Molecule size exceeds maximum supported for generating protonation states

> <s_epik_Chemistry_Notes>
This compound has an imine and may undergo hydrolysis.

$$$$
