3bl7_ligand
                    3D
 Schrodinger Suite 2020-3.
 54 57  0  0  1  0            999 V2000
    7.8920   -3.6710   17.4080 F   0  0  0  0  0  0
    8.8480   -2.7290   17.4260 C   0  0  0  0  0  0
   10.1800   -3.1080   17.2790 C   0  0  0  0  0  0
   11.1830   -2.1440   17.2910 C   0  0  0  0  0  0
   10.8730   -0.7920   17.4470 C   0  0  0  0  0  0
    9.5500   -0.3640   17.6020 C   0  0  0  0  0  0
    8.5040   -1.2860   17.6170 C   0  0  0  0  0  0
    7.0700   -0.7960   17.7580 C   0  0  0  0  0  0
    6.3590   -1.0270   19.0270 N   0  3  2  0  0  0
    6.7170   -2.0790   19.9790 C   0  0  0  0  0  0
    5.7510   -2.0080   21.1740 C   0  0  0  0  0  0
    5.6670   -0.6070   21.7940 C   0  0  1  0  0  0
    5.3660    0.4310   20.7050 C   0  0  0  0  0  0
    5.2050   -0.1730   19.3120 C   0  0  0  0  0  0
    4.6790   -0.5730   22.9800 C   0  0  0  0  0  0
    3.5770    0.3710   22.9480 O   0  0  0  0  0  0
    3.0010    0.8600   24.1070 C   0  0  0  0  0  0
    1.9820    1.9480   24.0660 C   0  0  0  0  0  0
    1.5010    2.5870   22.8130 C   0  0  0  0  0  0
    1.9620    2.2250   21.5980 N   0  0  0  0  0  0
    0.5870    3.5620   22.9030 N   0  0  0  0  0  0
    0.0860    3.9740   24.0990 C   0  0  0  0  0  0
   -0.8390    4.9540   24.0940 N   0  0  0  0  0  0
    0.4580    3.4310   25.2880 N   0  3  0  0  0  0
    1.3810    2.4480   25.3400 C   0  0  0  0  0  0
    1.7720    1.8950   26.5440 C   0  0  0  0  0  0
    2.7330    0.8840   26.5450 C   0  0  0  0  0  0
    3.3300    0.3840   25.3720 C   0  0  0  0  0  0
   10.4367   -4.1600   17.1545 H   0  0  0  0  0  0
   12.2235   -2.4482   17.1772 H   0  0  0  0  0  0
   11.6768   -0.0558   17.4481 H   0  0  0  0  0  0
    9.3352    0.6989   17.7119 H   0  0  0  0  0  0
    7.0399    0.2948   17.6192 H   0  0  0  0  0  0
    6.4406   -1.2800   16.9967 H   0  0  0  0  0  0
    7.3266   -1.4026   19.3913 H   0  0  0  0  0  0
    6.6352   -3.0604   19.4889 H   0  0  0  0  0  0
    7.7505   -1.9260   20.3230 H   0  0  0  0  0  0
    4.7397   -2.2892   20.8451 H   0  0  0  0  0  0
    6.0873   -2.7013   21.9590 H   0  0  0  0  0  0
    6.6458   -0.3398   22.2188 H   0  0  0  0  0  0
    4.4290    0.9542   20.9462 H   0  0  0  0  0  0
    6.1895    1.1585   20.6541 H   0  0  0  0  0  0
    5.1499    0.6308   18.5631 H   0  0  0  0  0  0
    4.2849   -0.7746   19.2725 H   0  0  0  0  0  0
    4.1979   -1.5567   23.0847 H   0  0  0  0  0  0
    5.2239   -0.3311   23.9044 H   0  0  0  0  0  0
    2.7127    1.4258   21.5103 H   0  0  0  0  0  0
    1.5872    2.7291   20.6950 H   0  0  0  0  0  0
   -1.1547    5.4075   23.1429 H   0  0  0  0  0  0
   -1.2784    5.3004   25.0411 H   0  0  0  0  0  0
    1.3357    2.2438   27.4800 H   0  0  0  0  0  0
    3.0370    0.4598   27.5019 H   0  0  0  0  0  0
    4.0772   -0.4049   25.4583 H   0  0  0  0  0  0
    0.0054    3.7923   26.2232 H   0  0  0  0  0  0
  1  2  1  0  0  0
  2  3  2  0  0  0
  2  7  1  0  0  0
  3  4  1  0  0  0
  3 29  1  0  0  0
  4  5  2  0  0  0
  4 30  1  0  0  0
  5  6  1  0  0  0
  5 31  1  0  0  0
  6  7  2  0  0  0
  6 32  1  0  0  0
  7  8  1  0  0  0
  8  9  1  0  0  0
  8 33  1  0  0  0
  8 34  1  0  0  0
  9 10  1  0  0  0
  9 14  1  0  0  0
  9 35  1  0  0  0
 10 11  1  0  0  0
 10 36  1  0  0  0
 10 37  1  0  0  0
 11 12  1  0  0  0
 11 38  1  0  0  0
 11 39  1  0  0  0
 12 13  1  0  0  0
 12 15  1  0  0  0
 12 40  1  0  0  0
 13 14  1  0  0  0
 13 41  1  0  0  0
 13 42  1  0  0  0
 14 43  1  0  0  0
 14 44  1  0  0  0
 15 16  1  0  0  0
 15 45  1  0  0  0
 15 46  1  0  0  0
 16 17  1  0  0  0
 17 18  2  0  0  0
 17 28  1  0  0  0
 18 19  1  0  0  0
 18 25  1  0  0  0
 19 20  1  0  0  0
 19 21  2  0  0  0
 20 47  1  0  0  0
 20 48  1  0  0  0
 21 22  1  0  0  0
 22 23  1  0  0  0
 22 24  2  0  0  0
 23 49  1  0  0  0
 23 50  1  0  0  0
 24 25  1  0  0  0
 24 54  1  0  0  0
 25 26  2  0  0  0
 26 27  1  0  0  0
 26 51  1  0  0  0
 27 28  2  0  0  0
 27 52  1  0  0  0
 28 53  1  0  0  0
M  CHG  2   9   1  24   1
M  END
> <s_m_source_file>
../3bl7_ligand.sdf

> <i_m_source_file_index>
1

> <s_epik_input>
RmMxW2NIXVtjSF1bY0hdW2NIXWMxW0NIMl1bTkBASCtdMltDSDJdW0NIMl1bQ0BASF0oW0NIMl1bQ0gyXTIpW0NIMl1PYzNbY0hdW2NIXVtjSF1jKGMzNCluYyhbTkgyXSluYzRbTkgyXQ==

> <s_epik_cmdline>
J2VwaWtfYXBwJywgJy1pbWFlJywgJ2xpZ2FuZF9wcm8ubWFlJywgJy1vbWFlJywgJ2xpZ2FuZF9wcmVwLm1hZScsICctbXMnLCAnMScsICctcGgnLCAnNycsICctcGh0JywgJzAuNScsICctbnQn

> <r_epik_Ionization_Penalty>
  0.0236

> <r_epik_Ionization_Penalty_Charging>
  0.0235

> <r_epik_Ionization_Penalty_Neutral>
  0.0000

> <r_epik_State_Penalty>
  0.0364

> <r_epik_Charging_Adjusted_Penalty>
0.059886712475632

> <i_epik_Tot_Q>
2

> <i_epik_Tot_abs_Q>
2

$$$$
