3bl9_ligand
                    3D
 Schrodinger Suite 2020-3.
 54 57  0  0  1  0            999 V2000
    4.2120    6.2910  -11.2340 C   0  0  0  0  0  0
    3.0050    7.0990  -11.3970 C   0  0  0  0  0  0
    3.1170    8.4780  -11.3010 C   0  0  0  0  0  0
    4.3480    9.0930  -11.0900 C   0  0  0  0  0  0
    5.5230    8.3640  -10.9520 C   0  0  0  0  0  0
    5.4770    6.9880  -11.0160 C   0  0  0  0  0  0
    1.6780    6.3940  -11.5910 C   0  0  0  0  0  0
    0.5370    4.9820  -13.2250 C   0  0  0  0  0  0
    0.6320    7.1580  -15.2080 C   0  0  0  0  0  0
    1.3300    7.4010  -13.8580 C   0  0  0  0  0  0
   -2.0690    4.9610  -16.5950 O   0  0  0  0  0  0
   -2.5570    4.5350  -17.8110 C   0  0  0  0  0  0
   -2.1800    5.1270  -19.0130 C   0  0  0  0  0  0
   -2.7330    4.6890  -20.2310 C   0  0  0  0  0  0
   -3.6370    3.6550  -20.2910 C   0  0  0  0  0  0
   -4.0570    3.0100  -19.1560 C   0  0  0  0  0  0
   -4.0260    2.7350  -16.6340 C   0  0  0  0  0  0
   -5.3060    1.3740  -18.0760 C   0  0  0  0  0  0
    4.1770    4.5060  -11.3720 Cl  0  0  0  0  0  0
    6.9260    5.9900  -10.8370 Cl  0  0  0  0  0  0
    1.2150    6.2550  -12.9560 N   0  3  1  0  0  0
   -0.5230    6.1630  -15.1770 C   0  0  2  0  0  0
    0.0090    4.8450  -14.6510 C   0  0  0  0  0  0
   -1.0080    5.9080  -16.5960 C   0  0  0  0  0  0
   -3.5320    3.4390  -17.8370 C   0  0  0  0  0  0
   -3.6110    3.0390  -15.3840 N   0  0  0  0  0  0
   -4.8780    1.7190  -16.8220 N   0  0  0  0  0  0
   -6.1910    0.3720  -18.1810 N   0  0  0  0  0  0
   -4.9390    2.0060  -19.2100 N   0  3  0  0  0  0
    2.2221    9.0935  -11.3927 H   0  0  0  0  0  0
    4.3916   10.1805  -11.0312 H   0  0  0  0  0  0
    6.4724    8.8758  -10.7946 H   0  0  0  0  0  0
    1.7438    5.3718  -11.1899 H   0  0  0  0  0  0
    0.8884    6.9460  -11.0601 H   0  0  0  0  0  0
    1.2381    4.1509  -13.0586 H   0  0  0  0  0  0
   -0.3247    4.8756  -12.5496 H   0  0  0  0  0  0
    0.2167    8.1055  -15.5818 H   0  0  0  0  0  0
    1.3611    6.7661  -15.9325 H   0  0  0  0  0  0
    2.3997    7.5934  -14.0277 H   0  0  0  0  0  0
    0.8753    8.2708  -13.3614 H   0  0  0  0  0  0
   -1.4503    5.9367  -19.0111 H   0  0  0  0  0  0
   -2.4354    5.1848  -21.1549 H   0  0  0  0  0  0
   -4.0274    3.3418  -21.2593 H   0  0  0  0  0  0
    1.7182    6.1946  -13.9323 H   0  0  0  0  0  0
   -1.3379    6.5549  -14.5506 H   0  0  0  0  0  0
    0.8216    4.5095  -15.3122 H   0  0  0  0  0  0
   -0.8074    4.1081  -14.6705 H   0  0  0  0  0  0
   -0.1715    5.5207  -17.1962 H   0  0  0  0  0  0
   -1.3623    6.8551  -17.0290 H   0  0  0  0  0  0
   -2.9112    3.8726  -15.2243 H   0  0  0  0  0  0
   -3.9730    2.4528  -14.5265 H   0  0  0  0  0  0
   -6.5174   -0.1701  -17.2812 H   0  0  0  0  0  0
   -6.5906    0.0921  -19.1669 H   0  0  0  0  0  0
   -5.3629    1.6978  -20.1771 H   0  0  0  0  0  0
  1  2  2  0  0  0
  1  6  1  0  0  0
  1 19  1  0  0  0
  2  3  1  0  0  0
  2  7  1  0  0  0
  3  4  2  0  0  0
  3 30  1  0  0  0
  4  5  1  0  0  0
  4 31  1  0  0  0
  5  6  2  0  0  0
  5 32  1  0  0  0
  6 20  1  0  0  0
  7 21  1  0  0  0
  7 33  1  0  0  0
  7 34  1  0  0  0
  8 21  1  0  0  0
  8 23  1  0  0  0
  8 35  1  0  0  0
  8 36  1  0  0  0
  9 10  1  0  0  0
  9 22  1  0  0  0
  9 37  1  0  0  0
  9 38  1  0  0  0
 10 21  1  0  0  0
 10 39  1  0  0  0
 10 40  1  0  0  0
 11 12  1  0  0  0
 11 24  1  0  0  0
 12 13  2  0  0  0
 12 25  1  0  0  0
 13 14  1  0  0  0
 13 41  1  0  0  0
 14 15  2  0  0  0
 14 42  1  0  0  0
 15 16  1  0  0  0
 15 43  1  0  0  0
 16 25  2  0  0  0
 16 29  1  0  0  0
 17 25  1  0  0  0
 17 26  1  0  0  0
 17 27  2  0  0  0
 18 27  1  0  0  0
 18 28  1  0  0  0
 18 29  2  0  0  0
 21 44  1  0  0  0
 22 23  1  0  0  0
 22 24  1  0  0  0
 22 45  1  0  0  0
 23 46  1  0  0  0
 23 47  1  0  0  0
 24 48  1  0  0  0
 24 49  1  0  0  0
 26 50  1  0  0  0
 26 51  1  0  0  0
 28 52  1  0  0  0
 28 53  1  0  0  0
 29 54  1  0  0  0
M  CHG  2  21   1  29   1
M  END
> <s_m_source_file>
../3bl9_ligand.sdf

> <i_m_source_file_index>
1

> <s_epik_input>
Q2xjMVtjSF1bY0hdW2NIXWMoYzFDbClbQ0gyXVtOQEgrXTJbQ0gyXVtDSDJdW0NAQEhdKFtDSDJdW0NIMl0yKVtDSDJdT2MoW2NIXVtjSF1bY0hdMyljKGMzNCljKFtOSDJdKW5jKG40KVtOSDJd

> <s_epik_cmdline>
J2VwaWtfYXBwJywgJy1pbWFlJywgJ2xpZ2FuZF9wcm8ubWFlJywgJy1vbWFlJywgJ2xpZ2FuZF9wcmVwLm1hZScsICctbXMnLCAnMScsICctcGgnLCAnNycsICctcGh0JywgJzAuNScsICctbnQn

> <r_lp_tautomer_probability>
1

> <r_epik_Ionization_Penalty>
  0.0260

> <r_epik_Ionization_Penalty_Charging>
  0.0260

> <r_epik_Ionization_Penalty_Neutral>
  0.0000

> <r_epik_State_Penalty>
 -0.0000

> <r_epik_Charging_Adjusted_Penalty>
0.0259500478110587

> <i_epik_Tot_Q>
2

> <i_epik_Tot_abs_Q>
2

$$$$
