3bla_ligand
                    3D
 Schrodinger Suite 2020-3.
 38 40  0  0  1  0            999 V2000
    5.2650   -0.0070   22.5200 C   0  0  0  0  0  0
    3.7140   -0.0930   20.6220 C   0  0  0  0  0  0
    3.8360    0.0260   22.1340 C   0  0  2  0  0  0
    7.9520   -0.1080   23.2770 C   0  0  0  0  0  0
    7.4030    1.0770   22.8080 C   0  0  0  0  0  0
    6.0620    1.1340   22.4290 C   0  0  0  0  0  0
    0.3140    4.3310   22.9700 N   0  0  0  0  0  0
    2.7870    1.5540   23.7860 C   0  0  0  0  0  0
    2.6910    1.3010   26.2000 C   0  0  0  0  0  0
    1.7320    2.3060   26.3370 C   0  0  0  0  0  0
    1.7730    2.6290   23.8940 C   0  0  0  0  0  0
    1.2330    3.3770   22.7330 C   0  0  0  0  0  0
    5.8170   -1.1980   22.9900 C   0  0  0  0  0  0
    3.2160    0.9260   24.9630 C   0  0  0  0  0  0
    8.4420    2.5340   22.6950 Cl  0  0  0  0  0  0
    7.1630   -1.2530   23.3570 C   0  0  0  0  0  0
    3.2550    1.2590   22.5320 O   0  0  0  0  0  0
    1.2460    2.9930   25.2270 C   0  0  0  0  0  0
    0.3100    3.9740   25.3150 N   0  3  0  0  0  0
    1.6140    3.1680   21.4550 N   0  0  0  0  0  0
   -0.1340    4.6170   24.2080 C   0  0  0  0  0  0
   -1.0590    5.5900   24.2900 N   0  0  0  0  0  0
    4.1590   -1.0433   20.2919 H   0  0  0  0  0  0
    4.2429    0.7450   20.1444 H   0  0  0  0  0  0
    2.6520   -0.0667   20.3367 H   0  0  0  0  0  0
    3.3007   -0.7711   22.6708 H   0  0  0  0  0  0
    8.9979   -0.1427   23.5820 H   0  0  0  0  0  0
    5.6376    2.0686   22.0623 H   0  0  0  0  0  0
    3.0437    0.7888   27.0952 H   0  0  0  0  0  0
    1.3572    2.5574   27.3292 H   0  0  0  0  0  0
    5.1953   -2.0896   23.0712 H   0  0  0  0  0  0
    3.9667    0.1374   24.9116 H   0  0  0  0  0  0
    7.5957   -2.1907   23.7056 H   0  0  0  0  0  0
    1.1685    3.7628   20.6440 H   0  0  0  0  0  0
    2.3700    2.4029   21.2246 H   0  0  0  0  0  0
   -1.4048    6.0984   23.3779 H   0  0  0  0  0  0
   -1.4697    5.8773   25.2692 H   0  0  0  0  0  0
   -0.0993    4.2572   26.2959 H   0  0  0  0  0  0
  1  3  1  0  0  0
  1  6  2  0  0  0
  1 13  1  0  0  0
  2  3  1  0  0  0
  2 23  1  0  0  0
  2 24  1  0  0  0
  2 25  1  0  0  0
  3 17  1  0  0  0
  3 26  1  0  0  0
  4  5  2  0  0  0
  4 16  1  0  0  0
  4 27  1  0  0  0
  5  6  1  0  0  0
  5 15  1  0  0  0
  6 28  1  0  0  0
  7 12  2  0  0  0
  7 21  1  0  0  0
  8 11  2  0  0  0
  8 14  1  0  0  0
  8 17  1  0  0  0
  9 10  1  0  0  0
  9 14  2  0  0  0
  9 29  1  0  0  0
 10 18  2  0  0  0
 10 30  1  0  0  0
 11 12  1  0  0  0
 11 18  1  0  0  0
 12 20  1  0  0  0
 13 16  2  0  0  0
 13 31  1  0  0  0
 14 32  1  0  0  0
 16 33  1  0  0  0
 18 19  1  0  0  0
 19 21  2  0  0  0
 19 38  1  0  0  0
 20 34  1  0  0  0
 20 35  1  0  0  0
 21 22  1  0  0  0
 22 36  1  0  0  0
 22 37  1  0  0  0
M  CHG  1  19   1
M  END
> <s_m_source_file>
../3bla_ligand.sdf

> <i_m_source_file_index>
1

> <s_epik_input>
W2NIXTFbY0hdW2NIXWMoQ2wpW2NIXWMxW0NASF0oW0NIM10pT2MyW2NIXVtjSF1bY0hdYyhjMjMpbmMoW05IMl0pbmMzW05IMl0=

> <s_epik_cmdline>
J2VwaWtfYXBwJywgJy1pbWFlJywgJ2xpZ2FuZF9wcm8ubWFlJywgJy1vbWFlJywgJ2xpZ2FuZF9wcmVwLm1hZScsICctbXMnLCAnMScsICctcGgnLCAnNycsICctcGh0JywgJzAuNScsICctbnQn

> <r_epik_Ionization_Penalty>
  0.0120

> <r_epik_Ionization_Penalty_Charging>
  0.0119

> <r_epik_Ionization_Penalty_Neutral>
  0.0000

> <r_epik_State_Penalty>
  0.0332

> <r_epik_Charging_Adjusted_Penalty>
0.0451135449149035

> <i_epik_Tot_Q>
1

> <i_epik_Tot_abs_Q>
1

$$$$
