3bls_ligand
                    3D
 Schrodinger Suite 2020-3.
 18 18  0  0  1  0            999 V2000
   25.9850    5.0530   17.2460 B   0  0  0  0  0  0
   24.8500    4.0710   16.6920 O   0  0  0  0  0  0
   25.8890    6.5390   16.4900 O   0  0  0  0  0  0
   25.6670    5.3220   18.8640 C   0  0  0  0  0  0
   24.5100    4.7770   19.4230 C   0  0  0  0  0  0
   24.1640    5.0260   20.7530 C   0  0  0  0  0  0
   24.9780    5.8940   21.4860 C   0  0  0  0  0  0
   26.1200    6.4690   20.9190 C   0  0  0  0  0  0
   26.4510    6.2120   19.5910 C   0  0  0  0  0  0
   23.0300    4.4630   21.2920 N   0  0  0  0  0  0
   24.7696    3.0465   17.0844 H   0  0  0  0  0  0
   26.5988    7.3370   16.7534 H   0  0  0  0  0  0
   23.8654    4.1462   18.8110 H   0  0  0  0  0  0
   24.7181    6.1271   22.5186 H   0  0  0  0  0  0
   26.7539    7.1214   21.5195 H   0  0  0  0  0  0
   27.3095    6.6997   19.1292 H   0  0  0  0  0  0
   22.4120    3.7837   20.6864 H   0  0  0  0  0  0
   22.7414    4.6922   22.3284 H   0  0  0  0  0  0
  1  4  1  0  0  0
  1  2  1  0  0  0
  1  3  1  0  0  0
  2 11  1  0  0  0
  3 12  1  0  0  0
  4  5  2  0  0  0
  4  9  1  0  0  0
  5  6  1  0  0  0
  5 13  1  0  0  0
  6 10  1  0  0  0
  6  7  2  0  0  0
  7  8  1  0  0  0
  7 14  1  0  0  0
  8  9  2  0  0  0
  8 15  1  0  0  0
  9 16  1  0  0  0
 10 17  1  0  0  0
 10 18  1  0  0  0
M  END
> <s_m_source_file>
../3bls_ligand.sdf

> <i_m_source_file_index>
1

> <s_epik_input>
W09IXUIoW09IXSljMVtjSF1jKFtOSDJdKVtjSF1bY0hdW2NIXTE=

> <s_epik_cmdline>
J2VwaWtfYXBwJywgJy1pbWFlJywgJ2xpZ2FuZF9wcm8ubWFlJywgJy1vbWFlJywgJ2xpZ2FuZF9wcmVwLm1hZScsICctbXMnLCAnMScsICctcGgnLCAnNycsICctcGh0JywgJzAuNScsICctbnQn

> <r_lp_tautomer_probability>
1

> <r_epik_Ionization_Penalty>
  0.0024

> <r_epik_Ionization_Penalty_Charging>
  0.0000

> <r_epik_Ionization_Penalty_Neutral>
  0.0024

> <r_epik_State_Penalty>
 -0.0000

> <r_epik_Charging_Adjusted_Penalty>
0

> <i_epik_Tot_Q>
0

> <i_epik_Tot_abs_Q>
0

> <s_epik_Chemistry_Notes>
This compound contains a Lewis acid (boronic acid) which adds nucleophiles to form tetrahedral complexes, lowering the experimental pKa

$$$$
