3blu_ligand
                    3D
 Schrodinger Suite 2020-3.
 21 21  0  0  1  0            999 V2000
   18.0480   35.1940   73.2850 S   0  0  0  0  0  0
   17.2400   36.3440   73.0290 O   0  0  0  0  0  0
   17.9250   34.3040   72.1610 O   0  0  0  0  0  0
   17.5530   34.5340   74.4340 C   0  0  0  0  0  0
   19.6790   35.7470   73.4340 C   0  0  0  0  0  0
   20.3170   36.4480   72.3610 C   0  0  0  0  0  0
   21.6640   36.9300   72.4590 C   0  0  0  0  0  0
   22.4170   36.7170   73.6500 C   0  0  0  0  0  0
   21.8020   36.0170   74.7350 C   0  0  0  0  0  0
   20.4490   35.5380   74.6200 C   0  0  0  0  0  0
   15.8330   34.2340   74.3700 C   0  0  0  0  0  0
   18.0554   33.5616   74.5432 H   0  0  0  0  0  0
   17.7493   35.1501   75.3239 H   0  0  0  0  0  0
   19.7608   36.6209   71.4397 H   0  0  0  0  0  0
   22.1134   37.4610   71.6198 H   0  0  0  0  0  0
   23.4413   37.0804   73.7324 H   0  0  0  0  0  0
   22.3610   35.8450   75.6548 H   0  0  0  0  0  0
   20.0012   35.0031   75.4575 H   0  0  0  0  0  0
   15.5158   33.7209   75.2898 H   0  0  0  0  0  0
   15.6032   33.6018   73.4996 H   0  0  0  0  0  0
   15.2971   35.1904   74.2802 H   0  0  0  0  0  0
  1  2  2  0  0  0
  1  3  2  0  0  0
  1  4  1  0  0  0
  1  5  1  0  0  0
  4 11  1  0  0  0
  4 12  1  0  0  0
  4 13  1  0  0  0
  5  6  2  0  0  0
  5 10  1  0  0  0
  6  7  1  0  0  0
  6 14  1  0  0  0
  7  8  2  0  0  0
  7 15  1  0  0  0
  8  9  1  0  0  0
  8 16  1  0  0  0
  9 10  2  0  0  0
  9 17  1  0  0  0
 10 18  1  0  0  0
 11 19  1  0  0  0
 11 20  1  0  0  0
 11 21  1  0  0  0
M  END
> <s_m_source_file>
../3blu_ligand.sdf

> <i_m_source_file_index>
1

> <s_epik_input>
W0NIM11bQ0gyXVMoPU8pKD1PKWMxW2NIXVtjSF1bY0hdW2NIXVtjSF0x

> <s_epik_cmdline>
J2VwaWtfYXBwJywgJy1pbWFlJywgJ2xpZ2FuZF9wcm8ubWFlJywgJy1vbWFlJywgJ2xpZ2FuZF9wcmVwLm1hZScsICctbXMnLCAnMScsICctcGgnLCAnNycsICctcGh0JywgJzAuNScsICctbnQn

> <r_lp_tautomer_probability>
1

> <r_epik_Ionization_Penalty>
  0.0000

> <r_epik_Ionization_Penalty_Charging>
  0.0000

> <r_epik_Ionization_Penalty_Neutral>
  0.0000

> <r_epik_State_Penalty>
 -0.0000

> <r_epik_Charging_Adjusted_Penalty>
0

> <i_epik_Tot_Q>
0

> <i_epik_Tot_abs_Q>
0

$$$$
