3bm9_ligand
                    3D
 Schrodinger Suite 2020-3.
 26 28  0  0  1  0            999 V2000
   -0.8720   37.4730   26.8170 C   0  0  0  0  0  0
   -0.2700   36.4180   26.1150 C   0  0  0  0  0  0
    0.8750   35.8090   26.6640 C   0  0  0  0  0  0
    1.3600   36.2740   27.8710 C   0  0  0  0  0  0
    0.7990   37.3110   28.5980 C   0  0  0  0  0  0
   -0.3370   37.8990   28.0340 C   0  0  0  0  0  0
   -0.9210   38.9260   28.7280 O   0  0  0  0  0  0
    2.4600   35.5520   28.2130 O   0  0  0  0  0  0
    2.7160   34.5960   27.2420 N   0  0  0  0  0  0
    1.7630   34.7520   26.3140 C   0  0  0  0  0  0
    1.6880   33.9470   25.1060 C   0  0  0  0  0  0
    0.4470   33.4380   24.7130 C   0  0  0  0  0  0
    0.3660   32.6710   23.5520 C   0  0  0  0  0  0
    1.4830   32.4040   22.7820 C   0  0  0  0  0  0
    2.7200   32.9080   23.1580 C   0  0  0  0  0  0
    2.8140   33.6780   24.3190 C   0  0  0  0  0  0
    4.0380   34.1470   24.7000 O   0  0  0  0  0  0
    1.3900   31.6780   21.6280 O   0  5  0  0  0  0
   -1.2840   31.9270   23.0210 Br  0  0  0  0  0  0
   -1.7586   37.9607   26.4117 H   0  0  0  0  0  0
   -0.6800   36.0768   25.1644 H   0  0  0  0  0  0
    1.2159   37.6466   29.5476 H   0  0  0  0  0  0
   -1.8171   39.4217   28.3263 H   0  0  0  0  0  0
   -0.4452   33.6381   25.3063 H   0  0  0  0  0  0
    3.6056   32.7057   22.5556 H   0  0  0  0  0  0
    4.1346   34.7555   25.6113 H   0  0  0  0  0  0
  1  2  1  0  0  0
  1  6  2  0  0  0
  1 20  1  0  0  0
  2  3  2  0  0  0
  2 21  1  0  0  0
  3  4  1  0  0  0
  3 10  1  0  0  0
  4  5  2  0  0  0
  4  8  1  0  0  0
  5  6  1  0  0  0
  5 22  1  0  0  0
  6  7  1  0  0  0
  7 23  1  0  0  0
  8  9  1  0  0  0
  9 10  2  0  0  0
 10 11  1  0  0  0
 11 12  2  0  0  0
 11 16  1  0  0  0
 12 13  1  0  0  0
 12 24  1  0  0  0
 13 14  2  0  0  0
 13 19  1  0  0  0
 14 15  1  0  0  0
 14 18  1  0  0  0
 15 16  2  0  0  0
 15 25  1  0  0  0
 16 17  1  0  0  0
 17 26  1  0  0  0
M  CHG  1  18  -1
M  END
> <s_m_source_file>
../3bm9_ligand.sdf

> <i_m_source_file_index>
1

> <s_epik_input>
W2NIXTFbY0hdYyhbT0hdKVtjSF1jKGMxMilvbmMyLWMzW2NIXWMoQnIpYyhbT0hdKVtjSF1jM1tPSF0=

> <s_epik_cmdline>
J2VwaWtfYXBwJywgJy1pbWFlJywgJ2xpZ2FuZF9wcm8ubWFlJywgJy1vbWFlJywgJ2xpZ2FuZF9wcmVwLm1hZScsICctbXMnLCAnMScsICctcGgnLCAnNycsICctcGh0JywgJzAuNScsICctbnQn

> <r_lp_tautomer_probability>
1

> <r_epik_Ionization_Penalty>
  0.3300

> <r_epik_Ionization_Penalty_Charging>
  0.2642

> <r_epik_Ionization_Penalty_Neutral>
  0.0659

> <r_epik_State_Penalty>
 -0.0000

> <r_epik_Charging_Adjusted_Penalty>
0.264162226893138

> <i_epik_Tot_Q>
-1

> <i_epik_Tot_abs_Q>
1

$$$$
