3bmn_ligand
                    3D
 Schrodinger Suite 2020-3.
 22 23  0  0  1  0            999 V2000
   11.9420  -13.8900   13.5380 C   0  0  0  0  0  0
   12.0640  -13.1830   14.8920 C   0  0  0  0  0  0
   11.4950  -12.4260   13.6930 C   0  0  0  0  0  0
   10.0550  -12.1400   13.8110 N   0  0  0  0  0  0
    9.6710  -10.9340   14.2630 C   0  0  0  0  0  0
   10.5990   -9.9690   14.3640 N   0  0  0  0  0  0
    8.4050  -10.6490   14.6240 N   0  0  0  0  0  0
    8.1120   -9.4080   15.0620 C   0  0  0  0  0  0
    6.8650   -9.1300   15.4200 N   0  0  0  0  0  0
    9.0280   -8.4370   15.1610 N   0  0  0  0  0  0
   10.2810   -8.7450   14.8060 C   0  0  0  0  0  0
   11.2640   -7.8680   14.8760 N   0  0  0  0  0  0
   12.9380  -14.2154   13.2032 H   0  0  0  0  0  0
   11.2850  -14.7664   13.6398 H   0  0  0  0  0  0
   11.4654  -13.7210   15.6418 H   0  0  0  0  0  0
   13.1184  -13.1701   15.2052 H   0  0  0  0  0  0
   11.6981  -11.4992   13.1364 H   0  0  0  0  0  0
    9.3173  -12.9066   13.5315 H   0  0  0  0  0  0
    6.0873   -9.9049   15.3512 H   0  0  0  0  0  0
    6.6089   -8.1246   15.7856 H   0  0  0  0  0  0
   12.2818   -8.1575   14.5754 H   0  0  0  0  0  0
   11.0659   -6.8473   15.2350 H   0  0  0  0  0  0
  1  2  1  0  0  0
  1  3  1  0  0  0
  1 13  1  0  0  0
  1 14  1  0  0  0
  2  3  1  0  0  0
  2 15  1  0  0  0
  2 16  1  0  0  0
  3  4  1  0  0  0
  3 17  1  0  0  0
  4  5  1  0  0  0
  4 18  1  0  0  0
  5  6  2  0  0  0
  5  7  1  0  0  0
  6 11  1  0  0  0
  7  8  2  0  0  0
  8  9  1  0  0  0
  8 10  1  0  0  0
  9 19  1  0  0  0
  9 20  1  0  0  0
 10 11  2  0  0  0
 11 12  1  0  0  0
 12 21  1  0  0  0
 12 22  1  0  0  0
M  END
> <s_m_source_file>
../3bmn_ligand.sdf

> <i_m_source_file_index>
1

> <s_epik_input>
W0NIMl0xW0NIMl1bQ0hdMVtOSF1jMm5jKFtOSDJdKW5jKG4yKVtOSDJd

> <s_epik_cmdline>
J2VwaWtfYXBwJywgJy1pbWFlJywgJ2xpZ2FuZF9wcm8ubWFlJywgJy1vbWFlJywgJ2xpZ2FuZF9wcmVwLm1hZScsICctbXMnLCAnMScsICctcGgnLCAnNycsICctcGh0JywgJzAuNScsICctbnQn

> <r_lp_tautomer_probability>
1

> <r_epik_Ionization_Penalty>
  0.0046

> <r_epik_Ionization_Penalty_Charging>
  0.0000

> <r_epik_Ionization_Penalty_Neutral>
  0.0046

> <r_epik_State_Penalty>
 -0.0000

> <r_epik_Charging_Adjusted_Penalty>
0

> <i_epik_Tot_Q>
0

> <i_epik_Tot_abs_Q>
0

$$$$
