3bmo_ligand
                    3D
 Schrodinger Suite 2020-3.
 29 30  0  0  1  0            999 V2000
    9.3380  -11.2350   14.0190 C   0  0  0  0  0  0
    8.1230  -10.7930   14.4520 C   0  0  0  0  0  0
    8.0710   -9.4580   14.9370 C   0  0  0  0  0  0
    9.2300   -8.7130   14.9500 N   0  0  0  0  0  0
   10.4770  -10.5070   14.0560 N   0  3  0  0  0  0
    7.7880  -14.2000   15.1570 C   0  0  0  0  0  0
    6.6020  -14.8180   15.5290 C   0  0  0  0  0  0
    5.5120  -14.7990   14.6520 C   0  0  0  0  0  0
    4.1730  -15.4310   15.0310 C   0  0  0  0  0  0
    5.6180  -14.1980   13.4090 C   0  0  0  0  0  0
    6.8150  -13.5970   13.0370 C   0  0  0  0  0  0
    7.8950  -13.5860   13.9190 C   0  0  0  0  0  0
    9.3700  -12.8680   13.4000 S   0  0  0  0  0  0
   10.4160   -9.2160   14.5310 C   0  0  0  0  0  0
   11.5130   -8.4350   14.5930 N   0  0  0  0  0  0
    6.9340   -8.8900   15.3900 N   0  0  0  0  0  0
    7.2386  -11.4296   14.4275 H   0  0  0  0  0  0
    8.6373  -14.1976   15.8402 H   0  0  0  0  0  0
    6.5206  -15.3139   16.4962 H   0  0  0  0  0  0
    4.2445  -15.8645   16.0394 H   0  0  0  0  0  0
    3.9235  -16.2222   14.3086 H   0  0  0  0  0  0
    3.3874  -14.6612   15.0177 H   0  0  0  0  0  0
    4.7681  -14.1962   12.7265 H   0  0  0  0  0  0
    6.9095  -13.1339   12.0548 H   0  0  0  0  0  0
   11.4354   -7.4071   14.9770 H   0  0  0  0  0  0
   12.4858   -8.8256   14.2596 H   0  0  0  0  0  0
    5.9951   -9.4632   15.3904 H   0  0  0  0  0  0
    6.9460   -7.8538   15.7590 H   0  0  0  0  0  0
   11.4236  -10.9488   13.7113 H   0  0  0  0  0  0
  1  2  2  0  0  0
  1  5  1  0  0  0
  1 13  1  0  0  0
  2  3  1  0  0  0
  2 17  1  0  0  0
  3  4  2  0  0  0
  3 16  1  0  0  0
  4 14  1  0  0  0
  5 14  2  0  0  0
  5 29  1  0  0  0
  6  7  2  0  0  0
  6 12  1  0  0  0
  6 18  1  0  0  0
  7  8  1  0  0  0
  7 19  1  0  0  0
  8  9  1  0  0  0
  8 10  2  0  0  0
  9 20  1  0  0  0
  9 21  1  0  0  0
  9 22  1  0  0  0
 10 11  1  0  0  0
 10 23  1  0  0  0
 11 12  2  0  0  0
 11 24  1  0  0  0
 12 13  1  0  0  0
 14 15  1  0  0  0
 15 25  1  0  0  0
 15 26  1  0  0  0
 16 27  1  0  0  0
 16 28  1  0  0  0
M  CHG  1   5   1
M  END
> <s_m_source_file>
../3bmo_ligand.sdf

> <i_m_source_file_index>
1

> <s_epik_input>
bjFjKFtOSDJdKW5jKFtOSDJdKVtjSF1jMVNjKFtjSF1bY0hdMilbY0hdW2NIXWMyW0NIM10=

> <s_epik_cmdline>
J2VwaWtfYXBwJywgJy1pbWFlJywgJ2xpZ2FuZF9wcm8ubWFlJywgJy1vbWFlJywgJ2xpZ2FuZF9wcmVwLm1hZScsICctbXMnLCAnMScsICctcGgnLCAnNycsICctcGh0JywgJzAuNScsICctbnQn

> <r_lp_tautomer_probability>
0.575010577011949

> <r_epik_Ionization_Penalty>
  0.0288

> <r_epik_Ionization_Penalty_Charging>
  0.0287

> <r_epik_Ionization_Penalty_Neutral>
  0.0000

> <r_epik_State_Penalty>
  0.2795

> <r_epik_Charging_Adjusted_Penalty>
0.308250078664137

> <i_epik_Tot_Q>
1

> <i_epik_Tot_abs_Q>
1

$$$$
