3bmq_ligand
                    3D
 Schrodinger Suite 2020-3.
 29 30  0  0  1  0            999 V2000
    9.3070  -11.3280   14.0270 C   0  0  0  0  0  0
    8.1110  -10.8210   14.4490 C   0  0  0  0  0  0
    8.1080   -9.4950   14.9060 C   0  0  0  0  0  0
    9.2770   -8.7820   14.9720 N   0  0  0  0  0  0
   10.4860  -10.6150   14.0970 N   0  3  0  0  0  0
    7.2280  -14.3560   15.3140 C   0  0  0  0  0  0
    6.5010  -15.0500   16.2840 C   0  0  0  0  0  0
    5.1740  -15.4270   16.0390 C   0  0  0  0  0  0
    4.5770  -15.0920   14.8280 C   0  0  0  0  0  0
    5.3100  -14.4130   13.8470 C   0  0  0  0  0  0
    6.6140  -14.0060   14.1000 C   0  0  0  0  0  0
    7.4210  -13.2560   13.0320 C   0  0  0  0  0  0
    9.1800  -13.0210   13.4020 S   0  0  0  0  0  0
   10.4580   -9.3000   14.5580 C   0  0  0  0  0  0
   11.5780   -8.5380   14.6450 N   0  0  0  0  0  0
    6.9480   -9.0070   15.3590 N   0  0  0  0  0  0
    7.2003  -11.4197   14.4314 H   0  0  0  0  0  0
    8.2681  -14.0870   15.4984 H   0  0  0  0  0  0
    6.9685  -15.2996   17.2365 H   0  0  0  0  0  0
    4.6128  -15.9794   16.7927 H   0  0  0  0  0  0
    3.5365  -15.3586   14.6424 H   0  0  0  0  0  0
    4.8548  -14.2025   12.8792 H   0  0  0  0  0  0
    7.3757  -13.8094   12.0824 H   0  0  0  0  0  0
    6.9974  -12.2507   12.8911 H   0  0  0  0  0  0
   11.5124   -7.5040   15.0144 H   0  0  0  0  0  0
   12.5512   -8.9545   14.3461 H   0  0  0  0  0  0
    6.0317   -9.6114   15.2875 H   0  0  0  0  0  0
    6.9103   -8.0013   15.8030 H   0  0  0  0  0  0
   11.4322  -11.0853   13.7911 H   0  0  0  0  0  0
  1  2  2  0  0  0
  1  5  1  0  0  0
  1 13  1  0  0  0
  2  3  1  0  0  0
  2 17  1  0  0  0
  3  4  2  0  0  0
  3 16  1  0  0  0
  4 14  1  0  0  0
  5 14  2  0  0  0
  5 29  1  0  0  0
  6  7  2  0  0  0
  6 11  1  0  0  0
  6 18  1  0  0  0
  7  8  1  0  0  0
  7 19  1  0  0  0
  8  9  2  0  0  0
  8 20  1  0  0  0
  9 10  1  0  0  0
  9 21  1  0  0  0
 10 11  2  0  0  0
 10 22  1  0  0  0
 11 12  1  0  0  0
 12 13  1  0  0  0
 12 23  1  0  0  0
 12 24  1  0  0  0
 14 15  1  0  0  0
 15 25  1  0  0  0
 15 26  1  0  0  0
 16 27  1  0  0  0
 16 28  1  0  0  0
M  CHG  1   5   1
M  END
> <s_m_source_file>
../3bmq_ligand.sdf

> <i_m_source_file_index>
1

> <s_epik_input>
bjFjKFtOSDJdKW5jKFtOSDJdKVtjSF1jMVNbQ0gyXWMyW2NIXVtjSF1bY0hdW2NIXVtjSF0y

> <s_epik_cmdline>
J2VwaWtfYXBwJywgJy1pbWFlJywgJ2xpZ2FuZF9wcm8ubWFlJywgJy1vbWFlJywgJ2xpZ2FuZF9wcmVwLm1hZScsICctbXMnLCAnMScsICctcGgnLCAnNycsICctcGh0JywgJzAuNScsICctbnQn

> <r_lp_tautomer_probability>
0.575010577011949

> <r_epik_Ionization_Penalty>
  0.3032

> <r_epik_Ionization_Penalty_Charging>
  0.3032

> <r_epik_Ionization_Penalty_Neutral>
  0.0000

> <r_epik_State_Penalty>
  0.5158

> <r_epik_Charging_Adjusted_Penalty>
0.818974114044621

> <i_epik_Tot_Q>
1

> <i_epik_Tot_abs_Q>
1

$$$$
