3bmy_ligand
                    3D
 Schrodinger Suite 2020-3.
 47 50  0  0  1  0            999 V2000
   -0.4850    4.5650   21.9250 C   0  0  0  0  0  0
    0.5220    5.3270   22.5790 C   0  0  0  0  0  0
    1.8270    5.1250   22.1290 C   0  0  0  0  0  0
    2.1590    4.2460   21.1210 C   0  0  0  0  0  0
    1.1510    3.5140   20.5020 C   0  0  0  0  0  0
   -0.1740    3.6530   20.8940 C   0  0  0  0  0  0
   -1.0830    2.8710   20.2320 N   0  0  0  0  0  0
   -0.7560    1.5420   19.6840 C   0  0  0  0  0  0
   -1.3900    1.2910   18.3290 C   0  0  0  0  0  0
   -0.6190    1.9400   17.2350 N   0  3  0  0  0  0
   -1.3690    1.9210   15.9050 C   0  0  0  0  0  0
   -0.4980    2.5780   14.8400 C   0  0  0  0  0  0
   -0.1870    3.9180   15.1990 O   0  0  0  0  0  0
    0.5700    3.9580   16.4120 C   0  0  0  0  0  0
   -0.2000    3.3940   17.5500 C   0  0  0  0  0  0
    3.5570    4.3440   20.9910 C   0  0  0  0  0  0
    4.0630    5.2240   21.8760 N   0  0  0  0  0  0
    2.9650    5.7120   22.5900 O   0  0  0  0  0  0
    4.3700    3.6220   20.0190 C   0  0  0  0  0  0
    4.0200    2.2960   19.6970 C   0  0  0  0  0  0
    4.7540    1.5790   18.7640 C   0  0  0  0  0  0
    5.8560    2.1680   18.1410 C   0  0  0  0  0  0
    6.2200    3.4910   18.4440 C   0  0  0  0  0  0
    5.4730    4.2090   19.3860 C   0  0  0  0  0  0
    5.8090    5.4970   19.6780 O   0  0  0  0  0  0
    6.6010    1.4940   17.2060 O   0  5  0  0  0  0
    4.2800   -0.0360   18.4130 Cl  0  0  0  0  0  0
   -1.5247    4.6887   22.2281 H   0  0  0  0  0  0
    0.2886    6.0258   23.3823 H   0  0  0  0  0  0
    1.4045    2.8222   19.6987 H   0  0  0  0  0  0
   -2.0984    3.2784   20.1178 H   0  0  0  0  0  0
    0.3340    1.4521   19.5661 H   0  0  0  0  0  0
   -1.1159    0.7629   20.3721 H   0  0  0  0  0  0
   -1.4241    0.2088   18.1350 H   0  0  0  0  0  0
   -2.4122    1.6972   18.3215 H   0  0  0  0  0  0
    0.2750    1.3023   17.1709 H   0  0  0  0  0  0
   -1.5844    0.8805   15.6204 H   0  0  0  0  0  0
   -2.3132    2.4758   16.0085 H   0  0  0  0  0  0
    0.4395    2.0127   14.7331 H   0  0  0  0  0  0
   -1.0344    2.5834   13.8797 H   0  0  0  0  0  0
    1.4916    3.3702   16.2886 H   0  0  0  0  0  0
    0.8290    5.0006   16.6484 H   0  0  0  0  0  0
   -1.0983    4.0062   17.7182 H   0  0  0  0  0  0
    0.4272    3.4073   18.4536 H   0  0  0  0  0  0
    3.1646    1.8293   20.1855 H   0  0  0  0  0  0
    7.0750    3.9536   17.9509 H   0  0  0  0  0  0
    5.2243    6.0638   20.4175 H   0  0  0  0  0  0
  1  2  2  0  0  0
  1  6  1  0  0  0
  1 28  1  0  0  0
  2  3  1  0  0  0
  2 29  1  0  0  0
  3  4  2  0  0  0
  3 18  1  0  0  0
  4  5  1  0  0  0
  4 16  1  0  0  0
  5  6  2  0  0  0
  5 30  1  0  0  0
  6  7  1  0  0  0
  7  8  1  0  0  0
  7 31  1  0  0  0
  8  9  1  0  0  0
  8 32  1  0  0  0
  8 33  1  0  0  0
  9 10  1  0  0  0
  9 34  1  0  0  0
  9 35  1  0  0  0
 10 11  1  0  0  0
 10 15  1  0  0  0
 10 36  1  0  0  0
 11 12  1  0  0  0
 11 37  1  0  0  0
 11 38  1  0  0  0
 12 13  1  0  0  0
 12 39  1  0  0  0
 12 40  1  0  0  0
 13 14  1  0  0  0
 14 15  1  0  0  0
 14 41  1  0  0  0
 14 42  1  0  0  0
 15 43  1  0  0  0
 15 44  1  0  0  0
 16 17  2  0  0  0
 16 19  1  0  0  0
 17 18  1  0  0  0
 19 20  2  0  0  0
 19 24  1  0  0  0
 20 21  1  0  0  0
 20 45  1  0  0  0
 21 22  2  0  0  0
 21 27  1  0  0  0
 22 23  1  0  0  0
 22 26  1  0  0  0
 23 24  2  0  0  0
 23 46  1  0  0  0
 24 25  1  0  0  0
 25 47  1  0  0  0
M  CHG  2  10   1  26  -1
M  END
> <s_m_source_file>
../3bmy_ligand.sdf

> <i_m_source_file_index>
1

> <s_epik_input>
W0NIMl0xW0NIMl1PW0NIMl1bQ0gyXVtOSCtdMVtDSDJdW0NIMl1bTkhdYyhbY0hdW2NIXTIpW2NIXWMoYzIzKWMobm8zKS1jNFtjSF1jKENsKWMoW09IXSlbY0hdYzRbT0hd

> <s_epik_cmdline>
J2VwaWtfYXBwJywgJy1pbWFlJywgJ2xpZ2FuZF9wcm8ubWFlJywgJy1vbWFlJywgJ2xpZ2FuZF9wcmVwLm1hZScsICctbXMnLCAnMScsICctcGgnLCAnNycsICctcGh0JywgJzAuNScsICctbnQn

> <r_lp_tautomer_probability>
1

> <r_epik_Ionization_Penalty>
  0.3867

> <r_epik_Ionization_Penalty_Charging>
  0.3847

> <r_epik_Ionization_Penalty_Neutral>
  0.0020

> <r_epik_State_Penalty>
 -0.0000

> <r_epik_Charging_Adjusted_Penalty>
0.384656989315102

> <i_epik_Tot_Q>
0

> <i_epik_Tot_abs_Q>
2

$$$$
