3bpr_ligand
                    3D
 Schrodinger Suite 2020-3.
 43 45  0  0  1  0            999 V2000
   17.4720   17.7280   55.0390 C   0  0  0  0  0  0
   18.6150   17.1260   55.5510 C   0  0  0  0  0  0
   19.5170   16.0920   54.5270 Cl  0  0  0  0  0  0
   19.0330   17.3230   56.8650 C   0  0  0  0  0  0
   18.2760   18.1460   57.6910 C   0  0  0  0  0  0
   17.1300   18.7620   57.1800 C   0  0  0  0  0  0
   16.7020   18.5560   55.8550 C   0  0  0  0  0  0
   15.5790   19.1690   55.4110 N   0  0  0  0  0  0
   14.7240   18.6680   54.5020 C   0  0  0  0  0  0
   14.9140   17.4630   53.9200 N   0  0  0  0  0  0
   13.6100   19.4060   54.1170 C   0  0  0  0  0  0
   13.1510   20.5970   54.4920 N   0  0  0  0  0  0
   12.0250   20.8210   53.8120 C   0  0  0  0  0  0
   11.7910   19.7830   53.0070 N   0  0  0  0  0  0
   10.6190   19.7150   52.1220 C   0  0  0  0  0  0
   11.0050   19.3280   50.6800 C   0  0  0  0  0  0
    9.5940   18.7580   52.7300 C   0  0  0  0  0  0
   12.7410   18.8760   53.1560 C   0  0  0  0  0  0
   12.9780   17.6630   52.6160 N   0  0  0  0  0  0
   14.0740   16.9520   52.9850 C   0  0  0  0  0  0
   14.3270   15.7380   52.4450 N   0  0  0  0  0  0
   15.6080   15.0060   52.6530 C   0  0  0  0  0  0
   15.4510   13.7720   53.5860 C   0  0  0  0  0  0
   14.1110   13.2310   53.5810 O   0  0  0  0  0  0
   17.1786   17.5537   54.0038 H   0  0  0  0  0  0
   19.9365   16.8410   57.2385 H   0  0  0  0  0  0
   18.5732   18.3093   58.7269 H   0  0  0  0  0  0
   16.5508   19.4212   57.8266 H   0  0  0  0  0  0
   15.3038   20.1609   55.7988 H   0  0  0  0  0  0
   11.3979   21.7082   53.8999 H   0  0  0  0  0  0
   10.1953   20.7293   52.0815 H   0  0  0  0  0  0
   11.7420   20.0467   50.2923 H   0  0  0  0  0  0
   10.1079   19.3435   50.0436 H   0  0  0  0  0  0
   11.4404   18.3178   50.6755 H   0  0  0  0  0  0
    9.3552   19.0791   53.7546 H   0  0  0  0  0  0
   10.0108   17.7403   52.7524 H   0  0  0  0  0  0
    8.6783   18.7659   52.1205 H   0  0  0  0  0  0
   13.5330   15.2926   51.8276 H   0  0  0  0  0  0
   15.9878   14.6491   51.6843 H   0  0  0  0  0  0
   16.3463   15.6814   53.1100 H   0  0  0  0  0  0
   16.1354   12.9755   53.2587 H   0  0  0  0  0  0
   15.6921   14.0608   54.6197 H   0  0  0  0  0  0
   13.8692   12.3550   54.2008 H   0  0  0  0  0  0
  1  2  2  0  0  0
  1  7  1  0  0  0
  1 25  1  0  0  0
  2  3  1  0  0  0
  2  4  1  0  0  0
  4  5  2  0  0  0
  4 26  1  0  0  0
  5  6  1  0  0  0
  5 27  1  0  0  0
  6  7  2  0  0  0
  6 28  1  0  0  0
  7  8  1  0  0  0
  8  9  1  0  0  0
  8 29  1  0  0  0
  9 10  1  0  0  0
  9 11  2  0  0  0
 10 20  2  0  0  0
 11 12  1  0  0  0
 11 18  1  0  0  0
 12 13  2  0  0  0
 13 14  1  0  0  0
 13 30  1  0  0  0
 14 15  1  0  0  0
 14 18  1  0  0  0
 15 16  1  0  0  0
 15 17  1  0  0  0
 15 31  1  0  0  0
 16 32  1  0  0  0
 16 33  1  0  0  0
 16 34  1  0  0  0
 17 35  1  0  0  0
 17 36  1  0  0  0
 17 37  1  0  0  0
 18 19  2  0  0  0
 19 20  1  0  0  0
 20 21  1  0  0  0
 21 22  1  0  0  0
 21 38  1  0  0  0
 22 23  1  0  0  0
 22 39  1  0  0  0
 22 40  1  0  0  0
 23 24  1  0  0  0
 23 41  1  0  0  0
 23 42  1  0  0  0
 24 43  1  0  0  0
M  END
> <s_m_source_file>
../3bpr_ligand.sdf

> <i_m_source_file_index>
1

> <s_epik_input>
Q2xjMVtjSF1jKFtjSF1bY0hdW2NIXTEpW05IXWMybmMoW05IXVtDSDJdW0NIMl1bT0hdKW5jKGMyMyluKFtjSF1uMylbQ0hdKFtDSDNdKVtDSDNd

> <s_epik_cmdline>
J2VwaWtfYXBwJywgJy1pbWFlJywgJ2xpZ2FuZF9wcm8ubWFlJywgJy1vbWFlJywgJ2xpZ2FuZF9wcmVwLm1hZScsICctbXMnLCAnMScsICctcGgnLCAnNycsICctcGh0JywgJzAuNScsICctbnQn

> <r_lp_tautomer_probability>
1

> <r_epik_Ionization_Penalty>
  0.0019

> <r_epik_Ionization_Penalty_Charging>
  0.0000

> <r_epik_Ionization_Penalty_Neutral>
  0.0019

> <r_epik_State_Penalty>
 -0.0000

> <r_epik_Charging_Adjusted_Penalty>
0

> <i_epik_Tot_Q>
0

> <i_epik_Tot_abs_Q>
0

$$$$
