3bqn_ligand
                    3D
 Schrodinger Suite 2020-3.
 61 64  0  0  1  0            999 V2000
  -16.4800   14.1720   -6.0020 F   0  0  0  0  0  0
  -17.7030   14.6230   -5.7750 C   0  0  0  0  0  0
  -18.5800   13.8670   -6.3770 F   0  0  0  0  0  0
  -17.8700   14.4780   -4.4710 F   0  0  0  0  0  0
  -17.7770   16.0890   -6.1920 C   0  0  0  0  0  0
  -17.0390   16.5820   -7.2980 C   0  0  0  0  0  0
  -16.2440   15.6510   -8.1910 C   0  0  0  0  0  0
  -15.0300   15.3760   -7.7680 F   0  0  0  0  0  0
  -16.9400   14.5360   -8.3230 F   0  0  0  0  0  0
  -16.1880   16.1090   -9.4230 F   0  0  0  0  0  0
  -18.5370   16.9850   -5.4240 C   0  0  0  0  0  0
  -19.4660   16.4980   -4.0820 S   0  0  0  0  0  0
  -20.3990   17.8290   -3.5760 C   0  0  0  0  0  0
  -21.4770   18.2930   -4.3330 C   0  0  0  0  0  0
  -21.8030   17.6580   -5.5100 O   0  0  0  0  0  0
  -23.0700   17.8350   -6.1600 C   0  0  0  0  0  0
  -22.9720   18.9430   -7.1870 C   0  0  0  0  0  0
  -21.7480   19.2700   -7.7660 C   0  0  0  0  0  0
  -21.6960   20.2970   -8.7080 C   0  0  0  0  0  0
  -22.8710   20.9690   -9.0510 C   0  0  0  0  0  0
  -24.0360   20.6300   -8.4770 N   0  0  0  0  0  0
  -24.1150   19.6460   -7.5650 C   0  0  0  0  0  0
  -22.2140   19.3960   -3.8910 C   0  0  0  0  0  0
  -21.8700   20.0360   -2.7040 C   0  0  0  0  0  0
  -20.7930   19.5720   -1.9520 C   0  0  0  0  0  0
  -20.0600   18.4700   -2.3890 C   0  0  0  0  0  0
  -18.5800   18.3390   -5.7660 C   0  0  0  0  0  0
  -17.8710   18.8190   -6.8580 C   0  0  0  0  0  0
  -17.1120   17.9480   -7.6350 C   0  0  0  0  0  0
  -16.3410   18.4940   -8.7910 C   0  0  0  0  0  0
  -15.9980   19.7810   -8.9150 C   0  0  0  0  0  0
  -15.1820   20.2170  -10.0710 C   0  0  0  0  0  0
  -14.4270   19.4050  -10.5810 O   0  0  0  0  0  0
  -15.2430   21.4760  -10.5150 N   0  0  0  0  0  0
  -16.0540   22.5330   -9.9050 C   0  0  0  0  0  0
  -15.0780   23.6440   -9.5100 C   0  0  0  0  0  0
  -14.2470   24.0100  -10.6240 O   0  0  0  0  0  0
  -13.4870   22.9190  -11.1400 C   0  0  0  0  0  0
  -14.4670   21.8870  -11.6850 C   0  0  0  0  0  0
  -23.3584   16.8996   -6.6619 H   0  0  0  0  0  0
  -23.8320   18.0999   -5.4122 H   0  0  0  0  0  0
  -20.8431   18.7304   -7.4866 H   0  0  0  0  0  0
  -20.7486   20.5721   -9.1714 H   0  0  0  0  0  0
  -22.8420   21.7719   -9.7876 H   0  0  0  0  0  0
  -25.0776   19.3963   -7.1186 H   0  0  0  0  0  0
  -23.0597   19.7553   -4.4773 H   0  0  0  0  0  0
  -22.4423   20.8988   -2.3633 H   0  0  0  0  0  0
  -20.5234   20.0711   -1.0212 H   0  0  0  0  0  0
  -19.2180   18.1091   -1.7984 H   0  0  0  0  0  0
  -19.1778   19.0267   -5.1677 H   0  0  0  0  0  0
  -17.9083   19.8793   -7.1078 H   0  0  0  0  0  0
  -16.0535   17.7708   -9.5684 H   0  0  0  0  0  0
  -16.3221   20.5118   -8.1594 H   0  0  0  0  0  0
  -16.7927   22.8957  -10.6349 H   0  0  0  0  0  0
  -16.5758   22.1322   -9.0235 H   0  0  0  0  0  0
  -15.6431   24.5290   -9.1822 H   0  0  0  0  0  0
  -14.4365   23.2934   -8.6881 H   0  0  0  0  0  0
  -12.8262   23.2794  -11.9421 H   0  0  0  0  0  0
  -12.8800   22.4812  -10.3338 H   0  0  0  0  0  0
  -13.9520   21.0124  -12.1091 H   0  0  0  0  0  0
  -15.1417   22.3169  -12.4400 H   0  0  0  0  0  0
  1  2  1  0  0  0
  2  3  1  0  0  0
  2  4  1  0  0  0
  2  5  1  0  0  0
  5  6  2  0  0  0
  5 11  1  0  0  0
  6  7  1  0  0  0
  6 29  1  0  0  0
  7  8  1  0  0  0
  7  9  1  0  0  0
  7 10  1  0  0  0
 11 12  1  0  0  0
 11 27  2  0  0  0
 12 13  1  0  0  0
 13 14  2  0  0  0
 13 26  1  0  0  0
 14 15  1  0  0  0
 14 23  1  0  0  0
 15 16  1  0  0  0
 16 17  1  0  0  0
 16 40  1  0  0  0
 16 41  1  0  0  0
 17 18  2  0  0  0
 17 22  1  0  0  0
 18 19  1  0  0  0
 18 42  1  0  0  0
 19 20  2  0  0  0
 19 43  1  0  0  0
 20 21  1  0  0  0
 20 44  1  0  0  0
 21 22  2  0  0  0
 22 45  1  0  0  0
 23 24  2  0  0  0
 23 46  1  0  0  0
 24 25  1  0  0  0
 24 47  1  0  0  0
 25 26  2  0  0  0
 25 48  1  0  0  0
 26 49  1  0  0  0
 27 28  1  0  0  0
 27 50  1  0  0  0
 28 29  2  0  0  0
 28 51  1  0  0  0
 29 30  1  0  0  0
 30 31  2  0  0  0
 30 52  1  0  0  0
 31 32  1  0  0  0
 31 53  1  0  0  0
 32 33  2  0  0  0
 32 34  1  0  0  0
 34 35  1  0  0  0
 34 39  1  0  0  0
 35 36  1  0  0  0
 35 54  1  0  0  0
 35 55  1  0  0  0
 36 37  1  0  0  0
 36 56  1  0  0  0
 36 57  1  0  0  0
 37 38  1  0  0  0
 38 39  1  0  0  0
 38 58  1  0  0  0
 38 59  1  0  0  0
 39 60  1  0  0  0
 39 61  1  0  0  0
M  END
> <s_m_source_file>
../3bqn_ligand.sdf

> <i_m_source_file_index>
1

> <s_epik_input>
W0NIMl0xW0NIMl1PW0NIMl1bQ0gyXU4xQyg9TylcW0NIXT1bQ0hdXGMoYyhDKEYpKEYpRiljMkMoRikoRilGKVtjSF1bY0hdYzJTYzNjKFtjSF1bY0hdW2NIXVtjSF0zKU9bQ0gyXWM0W2NIXVtjSF1bY0hdbltjSF00

> <s_epik_cmdline>
J2VwaWtfYXBwJywgJy1pbWFlJywgJ2xpZ2FuZF9wcm8ubWFlJywgJy1vbWFlJywgJ2xpZ2FuZF9wcmVwLm1hZScsICctbXMnLCAnMScsICctcGgnLCAnNycsICctcGh0JywgJzAuNScsICctbnQn

> <r_lp_tautomer_probability>
1

> <r_epik_Ionization_Penalty>
  0.0047

> <r_epik_Ionization_Penalty_Charging>
  0.0000

> <r_epik_Ionization_Penalty_Neutral>
  0.0047

> <r_epik_State_Penalty>
 -0.0000

> <r_epik_Charging_Adjusted_Penalty>
0

> <i_epik_Tot_Q>
0

> <i_epik_Tot_abs_Q>
0

$$$$
