3bra_ligand
                    3D
 Schrodinger Suite 2020-3.
 22 22  0  0  1  0            999 V2000
  -18.4440   39.8950   92.6820 C   0  0  0  0  0  0
  -21.8120   41.5980   93.2790 C   0  0  0  0  0  0
  -21.9140   39.3190   94.1160 C   0  0  0  0  0  0
  -17.6160   39.3770   93.8710 C   0  0  0  0  0  0
  -22.5150   40.5600   93.8940 C   0  0  0  0  0  0
  -23.8170   40.7520   94.2940 O   0  0  0  0  0  0
  -20.5950   39.1180   93.7170 C   0  0  0  0  0  0
  -20.4890   41.3790   92.8820 C   0  0  0  0  0  0
  -19.8750   40.1400   93.1030 C   0  0  0  0  0  0
  -16.1700   39.2890   93.5490 N   0  3  0  0  0  0
  -18.0115   40.8384   92.3173 H   0  0  0  0  0  0
  -18.4312   39.1491   91.8736 H   0  0  0  0  0  0
  -22.2872   42.5644   93.1109 H   0  0  0  0  0  0
  -22.4719   38.5156   94.5969 H   0  0  0  0  0  0
  -17.7354   40.0590   94.7258 H   0  0  0  0  0  0
  -17.9659   38.3726   94.1516 H   0  0  0  0  0  0
  -24.3061   41.7230   94.1271 H   0  0  0  0  0  0
  -20.1213   38.1511   93.8869 H   0  0  0  0  0  0
  -19.9310   42.1796   92.3964 H   0  0  0  0  0  0
  -15.6212   38.9154   94.4260 H   0  0  0  0  0  0
  -15.7933   40.2864   93.2782 H   0  0  0  0  0  0
  -16.0238   38.6000   92.7041 H   0  0  0  0  0  0
  1  4  1  0  0  0
  1  9  1  0  0  0
  1 11  1  0  0  0
  1 12  1  0  0  0
  2  5  2  0  0  0
  2  8  1  0  0  0
  2 13  1  0  0  0
  3  5  1  0  0  0
  3  7  2  0  0  0
  3 14  1  0  0  0
  4 10  1  0  0  0
  4 15  1  0  0  0
  4 16  1  0  0  0
  5  6  1  0  0  0
  6 17  1  0  0  0
  7  9  1  0  0  0
  7 18  1  0  0  0
  8  9  2  0  0  0
  8 19  1  0  0  0
 10 20  1  0  0  0
 10 21  1  0  0  0
 10 22  1  0  0  0
M  CHG  1  10   1
M  END
> <s_m_source_file>
../3bra_ligand.sdf

> <i_m_source_file_index>
1

> <s_epik_input>
W05IMytdW0NIMl1bQ0gyXWMoW2NIXVtjSF0xKVtjSF1bY0hdYzFbT0hd

> <s_epik_cmdline>
J2VwaWtfYXBwJywgJy1pbWFlJywgJ2xpZ2FuZF9wcm8ubWFlJywgJy1vbWFlJywgJ2xpZ2FuZF9wcmVwLm1hZScsICctbXMnLCAnMScsICctcGgnLCAnNycsICctcGh0JywgJzAuNScsICctbnQn

> <r_lp_tautomer_probability>
1

> <r_epik_Ionization_Penalty>
  0.0033

> <r_epik_Ionization_Penalty_Charging>
  0.0013

> <r_epik_Ionization_Penalty_Neutral>
  0.0020

> <r_epik_State_Penalty>
 -0.0000

> <r_epik_Charging_Adjusted_Penalty>
0.00128551736278069

> <i_epik_Tot_Q>
1

> <i_epik_Tot_abs_Q>
1

$$$$
