3brn_ligand
                    3D
 Schrodinger Suite 2020-3.
 25 26  0  0  1  0            999 V2000
   -8.1260   31.7850  -10.8480 O   0  0  0  0  0  0
   -8.0610   33.1320  -10.5860 C   0  0  0  0  0  0
   -7.0470   33.5720   -9.7390 C   0  0  0  0  0  0
   -6.8510   34.9390   -9.5270 C   0  0  0  0  0  0
   -7.7470   35.8060  -10.1340 C   0  0  0  0  0  0
   -7.9200   37.1520  -10.1210 N   0  0  0  0  0  0
   -8.9580   37.4780  -10.9270 C   0  0  0  0  0  0
   -9.4980   36.3040  -11.4540 C   0  0  3  0  0  0
   -8.7390   35.2600  -10.9310 C   0  0  0  0  0  0
   -8.8800   33.9750  -11.1400 C   0  0  0  0  0  0
  -10.6950   36.2090  -12.3680 C   0  0  0  0  0  0
  -11.8650   35.5100  -11.6480 C   0  0  0  0  0  0
  -12.9430   35.2870  -12.6170 N   0  3  0  0  0  0
   -7.4187   31.0957  -10.3636 H   0  0  0  0  0  0
   -6.4039   32.8473   -9.2396 H   0  0  0  0  0  0
   -6.0302   35.3076   -8.9118 H   0  0  0  0  0  0
   -9.2364   38.5331  -11.0656 H   0  0  0  0  0  0
   -9.6850   33.6123  -11.7792 H   0  0  0  0  0  0
  -11.0099   37.2199  -12.6661 H   0  0  0  0  0  0
  -10.4273   35.6293  -13.2637 H   0  0  0  0  0  0
  -11.5222   34.5475  -11.2405 H   0  0  0  0  0  0
  -12.2246   36.1484  -10.8275 H   0  0  0  0  0  0
  -13.7870   34.7881  -12.1182 H   0  0  0  0  0  0
  -12.5741   34.6524  -13.4362 H   0  0  0  0  0  0
  -13.2764   36.2533  -13.0233 H   0  0  0  0  0  0
  1  2  1  0  0  0
  1 14  1  0  0  0
  2  3  2  0  0  0
  2 10  1  0  0  0
  3  4  1  0  0  0
  3 15  1  0  0  0
  4  5  2  0  0  0
  4 16  1  0  0  0
  5  6  1  0  0  0
  5  9  1  0  0  0
  6  7  2  0  0  0
  7  8  1  0  0  0
  7 17  1  0  0  0
  8  9  1  0  0  0
  8 11  1  0  0  0
  9 10  2  0  0  0
 10 18  1  0  0  0
 11 12  1  0  0  0
 11 19  1  0  0  0
 11 20  1  0  0  0
 12 13  1  0  0  0
 12 21  1  0  0  0
 12 22  1  0  0  0
 13 23  1  0  0  0
 13 24  1  0  0  0
 13 25  1  0  0  0
M  CHG  1  13   1
M  END
> <s_m_source_file>
../3brn_ligand.sdf

> <i_m_source_file_index>
1

> <s_epik_input>
W2NIXTFbY0hdYyhbT0hdKVtjSF1jKGMxMilbQ0hdKFtDSF09TjIpW0NIMl1bQ0gyXVtOSDMrXQ==

> <s_epik_cmdline>
J2VwaWtfYXBwJywgJy1pbWFlJywgJ2xpZ2FuZF9wcm8ubWFlJywgJy1vbWFlJywgJ2xpZ2FuZF9wcmVwLm1hZScsICctbXMnLCAnMScsICctcGgnLCAnNycsICctcGh0JywgJzAuNScsICctbnQn

> <r_lp_tautomer_probability>
1

> <r_epik_Ionization_Penalty>
  0.0357

> <r_epik_Ionization_Penalty_Charging>
  0.0017

> <r_epik_Ionization_Penalty_Neutral>
  0.0341

> <r_epik_State_Penalty>
 -0.0000

> <r_epik_Charging_Adjusted_Penalty>
0.00165985898237849

> <i_epik_Tot_Q>
1

> <i_epik_Tot_abs_Q>
1

> <s_epik_Chemistry_Notes>
This compound has an imine and may undergo hydrolysis.

$$$$
