3bsc_ligand
                    3D
 Schrodinger Suite 2020-3.
 56 59  0  0  1  0            999 V2000
   95.4380    5.6880   59.2740 O   0  0  0  0  0  0
   96.1770    6.8860   58.9730 S   0  0  0  0  0  0
   97.6190    6.8960   59.0780 O   0  0  0  0  0  0
   95.5770    8.1840   59.9980 C   0  0  0  0  0  0
   95.7690    8.0720   61.3900 C   0  0  0  0  0  0
   95.3260    9.0850   62.2440 C   0  0  0  0  0  0
   95.4950    8.9880   63.6040 O   0  0  0  0  0  0
   96.7880    9.2010   64.1730 C   0  0  0  0  0  0
   94.6850   10.1950   61.6850 C   0  0  0  0  0  0
   95.7390    7.4020   57.4290 N   0  0  0  0  0  0
   95.0410    8.6010   57.1500 C   0  0  0  0  0  0
   94.7070    9.4800   58.0480 N   0  0  0  0  0  0
   94.9380    9.2900   59.4240 C   0  0  0  0  0  0
   94.4940   10.2970   60.2970 C   0  0  0  0  0  0
   94.8680    8.8500   55.7000 C   0  0  0  0  0  0
   95.7230    8.2840   54.8090 C   0  0  0  0  0  0
   96.6970    7.3850   55.1870 O   0  5  0  0  0  0
   93.8700    9.8430   55.1790 C   0  0  0  0  0  0
   93.0860   10.4120   55.9440 O   0  0  0  0  0  0
   93.8510   10.0620   53.8060 N   0  0  0  0  0  0
   92.9100   10.9690   53.1840 C   0  0  0  0  0  0
   91.9370   10.2190   52.2880 C   0  0  0  0  0  0
   90.8340    9.5250   53.0970 C   0  0  0  0  0  0
   90.3680   10.4040   54.2570 C   0  0  0  0  0  0
   89.6560    9.1740   52.1870 C   0  0  0  0  0  0
   94.6900    9.4590   52.9140 N   0  0  0  0  0  0
   95.5620    8.6180   53.3660 C   0  0  0  0  0  0
   96.5220    7.9760   52.4230 C   0  0  0  0  0  0
   96.7600    6.6040   52.4010 C   0  0  0  0  0  0
   97.7030    6.0800   51.5140 C   0  0  0  0  0  0
   97.2550    8.8090   51.5800 C   0  0  0  0  0  0
   98.1960    8.2850   50.6930 C   0  0  0  0  0  0
   98.4260    6.9120   50.6630 C   0  0  0  0  0  0
   96.2645    7.1925   61.8012 H   0  0  0  0  0  0
   96.7318    9.0833   65.2652 H   0  0  0  0  0  0
   97.1322   10.2173   63.9309 H   0  0  0  0  0  0
   97.4955    8.4664   63.7609 H   0  0  0  0  0  0
   94.3282   10.9931   62.3360 H   0  0  0  0  0  0
   93.9916   11.1744   59.8896 H   0  0  0  0  0  0
   92.3376   11.4943   53.9627 H   0  0  0  0  0  0
   93.4567   11.7025   52.5732 H   0  0  0  0  0  0
   91.4612   10.9250   51.5915 H   0  0  0  0  0  0
   92.4808    9.4516   51.7176 H   0  0  0  0  0  0
   91.2448    8.5971   53.5215 H   0  0  0  0  0  0
   91.2262   10.6469   54.9008 H   0  0  0  0  0  0
   89.6101    9.8647   54.8442 H   0  0  0  0  0  0
   89.9322   11.3331   53.8609 H   0  0  0  0  0  0
   90.0083    8.5419   51.3585 H   0  0  0  0  0  0
   89.2173   10.0980   51.7824 H   0  0  0  0  0  0
   88.8952    8.6296   52.7656 H   0  0  0  0  0  0
   96.2130    5.9424   53.0727 H   0  0  0  0  0  0
   97.8756    5.0041   51.4875 H   0  0  0  0  0  0
   97.0908    9.8860   51.6140 H   0  0  0  0  0  0
   98.7485    8.9474   50.0266 H   0  0  0  0  0  0
   99.1648    6.4926   49.9801 H   0  0  0  0  0  0
   94.2222   10.4196   57.7444 H   0  0  0  0  0  0
  1  2  2  0  0  0
  2  3  2  0  0  0
  2  4  1  0  0  0
  2 10  1  0  0  0
  4  5  2  0  0  0
  4 13  1  0  0  0
  5  6  1  0  0  0
  5 34  1  0  0  0
  6  7  1  0  0  0
  6  9  2  0  0  0
  7  8  1  0  0  0
  8 35  1  0  0  0
  8 36  1  0  0  0
  8 37  1  0  0  0
  9 14  1  0  0  0
  9 38  1  0  0  0
 10 11  2  0  0  0
 11 12  1  0  0  0
 11 15  1  0  0  0
 12 13  1  0  0  0
 12 56  1  0  0  0
 13 14  2  0  0  0
 14 39  1  0  0  0
 15 16  2  0  0  0
 15 18  1  0  0  0
 16 17  1  0  0  0
 16 27  1  0  0  0
 18 19  2  0  0  0
 18 20  1  0  0  0
 20 21  1  0  0  0
 20 26  1  0  0  0
 21 22  1  0  0  0
 21 40  1  0  0  0
 21 41  1  0  0  0
 22 23  1  0  0  0
 22 42  1  0  0  0
 22 43  1  0  0  0
 23 24  1  0  0  0
 23 25  1  0  0  0
 23 44  1  0  0  0
 24 45  1  0  0  0
 24 46  1  0  0  0
 24 47  1  0  0  0
 25 48  1  0  0  0
 25 49  1  0  0  0
 25 50  1  0  0  0
 26 27  2  0  0  0
 27 28  1  0  0  0
 28 29  2  0  0  0
 28 31  1  0  0  0
 29 30  1  0  0  0
 29 51  1  0  0  0
 30 33  2  0  0  0
 30 52  1  0  0  0
 31 32  2  0  0  0
 31 53  1  0  0  0
 32 33  1  0  0  0
 32 54  1  0  0  0
 33 55  1  0  0  0
M  CHG  1  17  -1
M  END
> <s_m_source_file>
../3bsc_ligand.sdf

> <i_m_source_file_index>
1

> <s_epik_input>
W0NIM11PYyhbY0hdMSlbY0hdW2NIXWMoYzEyKU49QyhbTkhdUzIoPU8pPU8pYzNjKFtPSF0pYyhubihjMz1PKVtDSDJdW0NIMl1bQ0hdKFtDSDNdKVtDSDNdKS1jNFtjSF1bY0hdW2NIXVtjSF1bY0hdNA==

> <s_epik_cmdline>
J2VwaWtfYXBwJywgJy1pbWFlJywgJ2xpZ2FuZF9wcm8ubWFlJywgJy1vbWFlJywgJ2xpZ2FuZF9wcmVwLm1hZScsICctbXMnLCAnMScsICctcGgnLCAnNycsICctcGh0JywgJzAuNScsICctbnQn

> <r_lp_tautomer_probability>
1

> <r_epik_Ionization_Penalty>
  0.0010

> <r_epik_Ionization_Penalty_Charging>
  0.0000

> <r_epik_Ionization_Penalty_Neutral>
  0.0010

> <r_epik_State_Penalty>
 -0.0000

> <r_epik_Charging_Adjusted_Penalty>
6.71332510023308e-06

> <i_epik_Tot_Q>
-1

> <i_epik_Tot_abs_Q>
1

> <s_epik_Chemistry_Notes>
This compound has an imine and may undergo hydrolysis.

$$$$
