3bt9_ligand
                    3D
 Schrodinger Suite 2020-3.
 77 80  0  0  1  0            999 V2000
  -71.4790  -49.7460    7.1730 C   0  0  0  0  0  0
  -71.5780  -51.0210    6.5230 C   0  0  0  0  0  0
  -72.7470  -51.8230    6.7060 C   0  0  0  0  0  0
  -73.8150  -51.3510    7.5340 C   0  0  0  0  0  0
  -72.5330  -49.2010    8.0320 C   0  0  0  0  0  0
  -73.7420  -50.0570    8.2050 C   0  0  0  0  0  0
  -74.8340  -49.6050    9.0350 C   0  0  0  0  0  0
  -74.7740  -48.3450    9.6930 C   0  0  0  0  0  0
  -73.6950  -47.4420    9.6160 C   0  0  3  0  0  0
  -72.5060  -47.8060    8.7890 N   0  0  0  0  0  0
  -62.4470  -45.3570    0.7260 C   0  0  0  0  0  0
  -62.6870  -45.0190    2.1640 C   0  0  0  0  0  0
  -61.4380  -45.0510    3.1990 N   0  0  0  0  0  0
  -60.1070  -45.4480    2.4650 C   0  0  0  0  0  0
  -60.0370  -45.7420    1.0990 C   0  0  0  0  0  0
  -61.1290  -45.7180    0.2390 C   0  0  3  0  0  0
  -63.5530  -45.3340   -0.2020 C   0  0  0  0  0  0
  -64.8830  -44.9860    0.1910 C   0  0  0  0  0  0
  -65.1470  -44.6510    1.5480 C   0  0  0  0  0  0
  -64.0800  -44.6680    2.4960 C   0  0  0  0  0  0
  -61.2780  -45.0800    4.8050 C   0  0  0  0  0  0
  -62.7070  -45.1660    5.2910 C   0  0  0  0  0  0
  -62.8990  -45.1990    6.8060 C   0  0  0  0  0  0
  -64.3800  -45.3410    6.8990 C   0  0  0  0  0  0
  -65.0680  -45.3840    8.2440 C   0  0  0  0  0  0
  -66.5330  -45.5660    7.8070 C   0  0  0  0  0  0
  -67.5730  -45.6160    8.8930 C   0  0  0  0  0  0
  -68.9720  -45.8580    8.2810 C   0  0  0  0  0  0
  -70.0250  -46.9520    7.9960 C   0  0  0  0  0  0
  -71.3440  -46.7460    8.7890 C   0  0  0  0  0  0
  -73.8900  -46.1440   10.4350 C   0  0  0  0  0  0
  -58.7530  -45.5520    3.1750 C   0  0  0  0  0  0
  -76.0410  -50.3550    9.2680 N   0  0  0  0  0  0
  -60.6980  -46.0770   -1.1020 N   0  3  0  0  0  0
  -70.5763  -49.1544    7.0204 H   0  0  0  0  0  0
  -70.7642  -51.3772    5.8914 H   0  0  0  0  0  0
  -72.8251  -52.7932    6.2154 H   0  0  0  0  0  0
  -74.7016  -51.9712    7.6662 H   0  0  0  0  0  0
  -75.6139  -48.0115   10.3203 H   0  0  0  0  0  0
  -73.2322  -47.9203   10.4918 H   0  0  0  0  0  0
  -59.0732  -46.0131    0.6434 H   0  0  0  0  0  0
  -60.9247  -44.6619    0.0091 H   0  0  0  0  0  0
  -63.3665  -45.5924   -1.2444 H   0  0  0  0  0  0
  -65.6883  -44.9775   -0.5435 H   0  0  0  0  0  0
  -66.1561  -44.3834    1.8614 H   0  0  0  0  0  0
  -64.3091  -44.4054    3.5288 H   0  0  0  0  0  0
  -60.6795  -45.9552    5.0981 H   0  0  0  0  0  0
  -60.7732  -44.1618    5.1399 H   0  0  0  0  0  0
  -63.2699  -44.2921    4.9312 H   0  0  0  0  0  0
  -63.1710  -46.0855    4.9046 H   0  0  0  0  0  0
  -62.3478  -46.0528    7.2269 H   0  0  0  0  0  0
  -62.5182  -44.2647    7.2443 H   0  0  0  0  0  0
  -64.8623  -44.4943    6.3886 H   0  0  0  0  0  0
  -64.6889  -46.2819    6.4202 H   0  0  0  0  0  0
  -64.6736  -46.2267    8.8308 H   0  0  0  0  0  0
  -64.8806  -44.4430    8.7820 H   0  0  0  0  0  0
  -66.8280  -44.7298    7.1560 H   0  0  0  0  0  0
  -66.6367  -46.5130    7.2571 H   0  0  0  0  0  0
  -67.3376  -46.4349    9.5887 H   0  0  0  0  0  0
  -67.5790  -44.6612    9.4392 H   0  0  0  0  0  0
  -69.7177  -45.2568    8.8218 H   0  0  0  0  0  0
  -68.9641  -45.5652    7.2207 H   0  0  0  0  0  0
  -70.2754  -46.9497    6.9249 H   0  0  0  0  0  0
  -69.6175  -47.9348    8.2752 H   0  0  0  0  0  0
  -71.7179  -45.7921    8.3887 H   0  0  0  0  0  0
  -70.9844  -46.5962    9.8177 H   0  0  0  0  0  0
  -74.8689  -46.1702   10.9360 H   0  0  0  0  0  0
  -73.8459  -45.2754    9.7615 H   0  0  0  0  0  0
  -73.0938  -46.0636   11.1897 H   0  0  0  0  0  0
  -58.8782  -45.3096    4.2406 H   0  0  0  0  0  0
  -58.0446  -44.8449    2.7189 H   0  0  0  0  0  0
  -58.3643  -46.5762    3.0751 H   0  0  0  0  0  0
  -76.1749  -51.3411    8.7994 H   0  0  0  0  0  0
  -76.8291  -49.9418    9.9146 H   0  0  0  0  0  0
  -61.5622  -46.0579   -1.7823 H   0  0  0  0  0  0
  -60.2636  -47.0875   -1.0893 H   0  0  0  0  0  0
  -59.9421  -45.3572   -1.4492 H   0  0  0  0  0  0
  1  2  2  0  0  0
  1  5  1  0  0  0
  1 35  1  0  0  0
  2  3  1  0  0  0
  2 36  1  0  0  0
  3  4  2  0  0  0
  3 37  1  0  0  0
  4  6  1  0  0  0
  4 38  1  0  0  0
  5  6  2  0  0  0
  5 10  1  0  0  0
  6  7  1  0  0  0
  7  8  2  0  0  0
  7 33  1  0  0  0
  8  9  1  0  0  0
  8 39  1  0  0  0
  9 10  1  0  0  0
  9 31  1  0  0  0
  9 40  1  0  0  0
 10 30  1  0  0  0
 11 12  2  0  0  0
 11 16  1  0  0  0
 11 17  1  0  0  0
 12 13  1  0  0  0
 12 20  1  0  0  0
 13 14  1  0  0  0
 13 21  1  0  0  0
 14 15  2  0  0  0
 14 32  1  0  0  0
 15 16  1  0  0  0
 15 41  1  0  0  0
 16 34  1  0  0  0
 16 42  1  0  0  0
 17 18  2  0  0  0
 17 43  1  0  0  0
 18 19  1  0  0  0
 18 44  1  0  0  0
 19 20  2  0  0  0
 19 45  1  0  0  0
 20 46  1  0  0  0
 21 22  1  0  0  0
 21 47  1  0  0  0
 21 48  1  0  0  0
 22 23  1  0  0  0
 22 49  1  0  0  0
 22 50  1  0  0  0
 23 24  1  0  0  0
 23 51  1  0  0  0
 23 52  1  0  0  0
 24 25  1  0  0  0
 24 53  1  0  0  0
 24 54  1  0  0  0
 25 26  1  0  0  0
 25 55  1  0  0  0
 25 56  1  0  0  0
 26 27  1  0  0  0
 26 57  1  0  0  0
 26 58  1  0  0  0
 27 28  1  0  0  0
 27 59  1  0  0  0
 27 60  1  0  0  0
 28 29  1  0  0  0
 28 61  1  0  0  0
 28 62  1  0  0  0
 29 30  1  0  0  0
 29 63  1  0  0  0
 29 64  1  0  0  0
 30 65  1  0  0  0
 30 66  1  0  0  0
 31 67  1  0  0  0
 31 68  1  0  0  0
 31 69  1  0  0  0
 32 70  1  0  0  0
 32 71  1  0  0  0
 32 72  1  0  0  0
 33 73  1  0  0  0
 33 74  1  0  0  0
 34 75  1  0  0  0
 34 76  1  0  0  0
 34 77  1  0  0  0
M  CHG  1  34   1
M  END
> <s_m_source_file>
../3bt9_ligand.sdf

> <i_m_source_file_index>
1

> <s_epik_input>
W2NIXTFbY0hdW2NIXVtjSF1jKGMxMilDKFtOSDJdKT1bQ0hdW0NIXShbQ0gzXSlOMltDSDJdW0NIMl1bQ0gyXVtDSDJdW0NIMl1bQ0gyXVtDSDJdW0NIMl1bQ0gyXVtDSDJdTihDKFtDSDNdKT1bQ0hdW0NIXTNbTkgzK10pYyhjMzQpW2NIXVtjSF1bY0hdW2NIXTQ=

> <s_epik_cmdline>
J2VwaWtfYXBwJywgJy1pbWFlJywgJ2xpZ2FuZF9wcm8ubWFlJywgJy1vbWFlJywgJ2xpZ2FuZF9wcmVwLm1hZScsICctbXMnLCAnMScsICctcGgnLCAnNycsICctcGh0JywgJzAuNScsICctbnQn

> <r_lp_tautomer_probability>
1

> <r_epik_Ionization_Penalty>
  0.0856

> <r_epik_Ionization_Penalty_Charging>
  0.0752

> <r_epik_Ionization_Penalty_Neutral>
  0.0104

> <r_epik_State_Penalty>
 -0.0000

> <r_epik_Charging_Adjusted_Penalty>
0.0752078879603938

> <i_epik_Tot_Q>
1

> <i_epik_Tot_abs_Q>
1

> <s_epik_Chemistry_Notes>
This compound has an imine and may undergo hydrolysis.

$$$$
