3btc_ligand
                    3D
 Schrodinger Suite 2020-3.
 51 53  0  0  1  0            999 V2000
  -70.1990  -46.1460    5.5050 C   0  0  0  0  0  0
  -70.7100  -47.5280    5.8090 C   0  0  0  0  0  0
  -70.8520  -48.0000    7.1700 C   0  0  0  0  0  0
  -71.3170  -49.2820    7.4660 C   0  0  0  0  0  0
  -71.6830  -50.1810    6.4230 C   0  0  0  0  0  0
  -71.5610  -49.7500    5.0630 C   0  0  0  0  0  0
  -71.0960  -48.4620    4.7640 C   0  0  0  0  0  0
  -68.9750  -45.9460    4.6850 C   0  0  0  0  0  0
  -68.0300  -47.0390    4.4270 C   0  0  0  0  0  0
  -66.8980  -46.9060    3.6510 C   0  0  0  0  0  0
  -66.5390  -45.6410    3.0850 C   0  0  0  0  0  0
  -67.4600  -44.5270    3.3150 C   0  0  0  0  0  0
  -68.6050  -44.6850    4.1050 C   0  0  0  0  0  0
  -70.9620  -45.0260    6.0770 C   0  0  0  0  0  0
  -70.3560  -44.0770    6.9810 C   0  0  0  0  0  0
  -71.0750  -43.0340    7.5550 C   0  0  0  0  0  0
  -72.4320  -42.8530    7.2810 C   0  0  0  0  0  0
  -73.0660  -43.7760    6.3760 C   0  0  0  0  0  0
  -72.3520  -44.8210    5.7990 C   0  0  0  0  0  0
  -65.0540  -44.1790    1.6750 C   0  0  0  0  0  0
  -64.4380  -46.5950    1.9930 C   0  0  0  0  0  0
  -73.3680  -41.7070    9.2830 C   0  0  0  0  0  0
  -73.7540  -40.7890    7.0680 C   0  0  0  0  0  0
  -65.4100  -45.5080    2.2910 N   0  0  0  0  0  0
  -73.1370  -41.8420    7.8530 N   0  0  0  0  0  0
  -69.5839  -46.1729    6.4166 H   0  0  0  0  0  0
  -70.5872  -47.3326    7.9901 H   0  0  0  0  0  0
  -71.4011  -49.5988    8.5056 H   0  0  0  0  0  0
  -72.0499  -51.1805    6.6565 H   0  0  0  0  0  0
  -71.8318  -50.4286    4.2542 H   0  0  0  0  0  0
  -71.0219  -48.1528    3.7214 H   0  0  0  0  0  0
  -68.2348  -48.0116    4.8745 H   0  0  0  0  0  0
  -66.2679  -47.7759    3.4660 H   0  0  0  0  0  0
  -67.2508  -43.5573    2.8633 H   0  0  0  0  0  0
  -69.2400  -43.8179    4.2869 H   0  0  0  0  0  0
  -69.2981  -44.1817    7.2219 H   0  0  0  0  0  0
  -70.5695  -42.3449    8.2315 H   0  0  0  0  0  0
  -74.1229  -43.6539    6.1391 H   0  0  0  0  0  0
  -72.8634  -45.5012    5.1179 H   0  0  0  0  0  0
  -65.8186  -43.4346    1.9419 H   0  0  0  0  0  0
  -65.0090  -44.2823    0.5808 H   0  0  0  0  0  0
  -64.0746  -43.8503    2.0528 H   0  0  0  0  0  0
  -64.7693  -47.5258    2.4765 H   0  0  0  0  0  0
  -63.4460  -46.3152    2.3772 H   0  0  0  0  0  0
  -64.3804  -46.7472    0.9051 H   0  0  0  0  0  0
  -72.8746  -42.5345    9.8138 H   0  0  0  0  0  0
  -74.4491  -41.7352    9.4840 H   0  0  0  0  0  0
  -72.9550  -40.7492    9.6323 H   0  0  0  0  0  0
  -73.5398  -40.9532    6.0016 H   0  0  0  0  0  0
  -73.3479  -39.8148    7.3778 H   0  0  0  0  0  0
  -74.8420  -40.8008    7.2295 H   0  0  0  0  0  0
  1  2  1  0  0  0
  1  8  1  0  0  0
  1 14  1  0  0  0
  1 26  1  0  0  0
  2  3  2  0  0  0
  2  7  1  0  0  0
  3  4  1  0  0  0
  3 27  1  0  0  0
  4  5  2  0  0  0
  4 28  1  0  0  0
  5  6  1  0  0  0
  5 29  1  0  0  0
  6  7  2  0  0  0
  6 30  1  0  0  0
  7 31  1  0  0  0
  8  9  2  0  0  0
  8 13  1  0  0  0
  9 10  1  0  0  0
  9 32  1  0  0  0
 10 11  2  0  0  0
 10 33  1  0  0  0
 11 12  1  0  0  0
 11 24  1  0  0  0
 12 13  2  0  0  0
 12 34  1  0  0  0
 13 35  1  0  0  0
 14 15  2  0  0  0
 14 19  1  0  0  0
 15 16  1  0  0  0
 15 36  1  0  0  0
 16 17  2  0  0  0
 16 37  1  0  0  0
 17 18  1  0  0  0
 17 25  1  0  0  0
 18 19  2  0  0  0
 18 38  1  0  0  0
 19 39  1  0  0  0
 20 24  1  0  0  0
 20 40  1  0  0  0
 20 41  1  0  0  0
 20 42  1  0  0  0
 21 24  1  0  0  0
 21 43  1  0  0  0
 21 44  1  0  0  0
 21 45  1  0  0  0
 22 25  1  0  0  0
 22 46  1  0  0  0
 22 47  1  0  0  0
 22 48  1  0  0  0
 23 25  1  0  0  0
 23 49  1  0  0  0
 23 50  1  0  0  0
 23 51  1  0  0  0
M  END
> <s_m_source_file>
../3btc_ligand.sdf

> <i_m_source_file_index>
1

> <s_epik_input>
W2NIXTFbY0hdYyhOKFtDSDNdKVtDSDNdKVtjSF1bY0hdYzFbQ0hdKGMyW2NIXVtjSF1bY0hdW2NIXVtjSF0yKWMzW2NIXVtjSF1jKFtjSF1bY0hdMylOKFtDSDNdKVtDSDNd

> <s_epik_cmdline>
J2VwaWtfYXBwJywgJy1pbWFlJywgJ2xpZ2FuZF9wcm8ubWFlJywgJy1vbWFlJywgJ2xpZ2FuZF9wcmVwLm1hZScsICctbXMnLCAnMScsICctcGgnLCAnNycsICctcGh0JywgJzAuNScsICctbnQn

> <r_epik_Ionization_Penalty>
  0.0174

> <r_epik_Ionization_Penalty_Charging>
  0.0000

> <r_epik_Ionization_Penalty_Neutral>
  0.0174

> <r_epik_State_Penalty>
  0.0137

> <r_epik_Charging_Adjusted_Penalty>
0.013747697456229

> <i_epik_Tot_Q>
0

> <i_epik_Tot_abs_Q>
0

$$$$
