3btj_ligand
                    3D
 Schrodinger Suite 2020-3.
 77 80  0  0  1  0            999 V2000
  -71.4650  -50.6010    7.7690 C   0  0  0  0  0  0
  -71.7190  -51.7530    6.9500 C   0  0  0  0  0  0
  -73.0510  -52.2530    6.8240 C   0  0  0  0  0  0
  -74.1240  -51.5980    7.5140 C   0  0  0  0  0  0
  -72.5170  -49.8890    8.4970 C   0  0  0  0  0  0
  -73.8920  -50.4240    8.3460 C   0  0  0  0  0  0
  -74.9950  -49.7870    9.0270 C   0  0  0  0  0  0
  -74.7900  -48.6390    9.8420 C   0  0  0  0  0  0
  -73.5350  -48.0330   10.0700 C   0  0  3  0  0  0
  -72.3250  -48.6190    9.4180 N   0  0  0  0  0  0
  -62.5020  -45.4990    1.1680 C   0  0  0  0  0  0
  -62.8040  -45.4990    2.6280 C   0  0  0  0  0  0
  -61.5710  -45.4230    3.6760 N   0  0  0  0  0  0
  -60.1910  -45.3530    2.9320 C   0  0  0  0  0  0
  -60.0630  -45.3620    1.5450 C   0  0  0  0  0  0
  -61.1360  -45.4300    0.6700 C   0  0  3  0  0  0
  -63.5910  -45.5690    0.2180 C   0  0  0  0  0  0
  -64.9640  -45.6360    0.6130 C   0  0  0  0  0  0
  -65.2880  -45.6350    1.9920 C   0  0  0  0  0  0
  -64.2340  -45.5670    2.9600 C   0  0  0  0  0  0
  -61.4080  -45.5430    5.2820 C   0  0  0  0  0  0
  -62.8160  -45.8250    5.7710 C   0  0  0  0  0  0
  -62.9270  -45.9870    7.2830 C   0  0  0  0  0  0
  -64.3700  -46.2850    7.5100 C   0  0  0  0  0  0
  -64.8170  -46.5110    8.9360 C   0  0  0  0  0  0
  -66.3170  -46.8060    8.8010 C   0  0  0  0  0  0
  -67.0350  -47.0750   10.0990 C   0  0  0  0  0  0
  -68.5070  -47.3620    9.8310 C   0  0  0  0  0  0
  -69.5850  -48.2880    9.2460 C   0  0  0  0  0  0
  -70.9840  -47.8770    9.7650 C   0  0  0  0  0  0
  -73.5650  -46.7910   11.0080 C   0  0  0  0  0  0
  -58.8440  -45.2750    3.6590 C   0  0  0  0  0  0
  -76.3600  -50.2320    8.9480 N   0  0  0  0  0  0
  -60.6430  -45.4170   -0.6930 N   0  3  0  0  0  0
  -70.4401  -50.2394    7.8526 H   0  0  0  0  0  0
  -70.8985  -52.2439    6.4266 H   0  0  0  0  0  0
  -73.2510  -53.1284    6.2062 H   0  0  0  0  0  0
  -75.1371  -51.9874    7.4139 H   0  0  0  0  0  0
  -75.6439  -48.1626   10.3458 H   0  0  0  0  0  0
  -73.3795  -48.6836   10.9433 H   0  0  0  0  0  0
  -59.0653  -45.3134    1.0844 H   0  0  0  0  0  0
  -61.1958  -44.3317    0.6580 H   0  0  0  0  0  0
  -63.3545  -45.5708   -0.8460 H   0  0  0  0  0  0
  -65.7520  -45.6872   -0.1384 H   0  0  0  0  0  0
  -66.3284  -45.6854    2.3133 H   0  0  0  0  0  0
  -64.5115  -45.5656    4.0141 H   0  0  0  0  0  0
  -60.7138  -46.3625    5.5199 H   0  0  0  0  0  0
  -61.0109  -44.5983    5.6819 H   0  0  0  0  0  0
  -63.4770  -44.9938    5.4844 H   0  0  0  0  0  0
  -63.1819  -46.7578    5.3170 H   0  0  0  0  0  0
  -62.2772  -46.8113    7.6121 H   0  0  0  0  0  0
  -62.6143  -45.0545    7.7756 H   0  0  0  0  0  0
  -64.9798  -45.4465    7.1424 H   0  0  0  0  0  0
  -64.6444  -47.2027    6.9692 H   0  0  0  0  0  0
  -64.2613  -47.3581    9.3645 H   0  0  0  0  0  0
  -64.6208  -45.6059    9.5296 H   0  0  0  0  0  0
  -66.8197  -45.9448    8.3366 H   0  0  0  0  0  0
  -66.4603  -47.6971    8.1722 H   0  0  0  0  0  0
  -66.5813  -47.9455   10.5954 H   0  0  0  0  0  0
  -66.9514  -46.1949   10.7535 H   0  0  0  0  0  0
  -69.0503  -47.4133   10.7861 H   0  0  0  0  0  0
  -68.9304  -46.5580    9.2111 H   0  0  0  0  0  0
  -69.5735  -48.2164    8.1484 H   0  0  0  0  0  0
  -69.3802  -49.3257    9.5479 H   0  0  0  0  0  0
  -71.0431  -46.8334    9.4223 H   0  0  0  0  0  0
  -70.8248  -47.8971   10.8532 H   0  0  0  0  0  0
  -74.5989  -46.6010   11.3318 H   0  0  0  0  0  0
  -73.1832  -45.9131   10.4663 H   0  0  0  0  0  0
  -72.9341  -46.9814   11.8887 H   0  0  0  0  0  0
  -59.0136  -45.2715    4.7458 H   0  0  0  0  0  0
  -58.3223  -44.3518    3.3663 H   0  0  0  0  0  0
  -58.2294  -46.1456    3.3866 H   0  0  0  0  0  0
  -76.6171  -51.1127    8.3412 H   0  0  0  0  0  0
  -77.1471  -49.6917    9.4944 H   0  0  0  0  0  0
  -61.4919  -45.4709   -1.3905 H   0  0  0  0  0  0
  -59.9822  -46.2819   -0.8522 H   0  0  0  0  0  0
  -60.0808  -44.4884   -0.8707 H   0  0  0  0  0  0
  1  2  2  0  0  0
  1  5  1  0  0  0
  1 35  1  0  0  0
  2  3  1  0  0  0
  2 36  1  0  0  0
  3  4  2  0  0  0
  3 37  1  0  0  0
  4  6  1  0  0  0
  4 38  1  0  0  0
  5  6  2  0  0  0
  5 10  1  0  0  0
  6  7  1  0  0  0
  7  8  2  0  0  0
  7 33  1  0  0  0
  8  9  1  0  0  0
  8 39  1  0  0  0
  9 10  1  0  0  0
  9 31  1  0  0  0
  9 40  1  0  0  0
 10 30  1  0  0  0
 11 12  2  0  0  0
 11 16  1  0  0  0
 11 17  1  0  0  0
 12 13  1  0  0  0
 12 20  1  0  0  0
 13 14  1  0  0  0
 13 21  1  0  0  0
 14 15  2  0  0  0
 14 32  1  0  0  0
 15 16  1  0  0  0
 15 41  1  0  0  0
 16 34  1  0  0  0
 16 42  1  0  0  0
 17 18  2  0  0  0
 17 43  1  0  0  0
 18 19  1  0  0  0
 18 44  1  0  0  0
 19 20  2  0  0  0
 19 45  1  0  0  0
 20 46  1  0  0  0
 21 22  1  0  0  0
 21 47  1  0  0  0
 21 48  1  0  0  0
 22 23  1  0  0  0
 22 49  1  0  0  0
 22 50  1  0  0  0
 23 24  1  0  0  0
 23 51  1  0  0  0
 23 52  1  0  0  0
 24 25  1  0  0  0
 24 53  1  0  0  0
 24 54  1  0  0  0
 25 26  1  0  0  0
 25 55  1  0  0  0
 25 56  1  0  0  0
 26 27  1  0  0  0
 26 57  1  0  0  0
 26 58  1  0  0  0
 27 28  1  0  0  0
 27 59  1  0  0  0
 27 60  1  0  0  0
 28 29  1  0  0  0
 28 61  1  0  0  0
 28 62  1  0  0  0
 29 30  1  0  0  0
 29 63  1  0  0  0
 29 64  1  0  0  0
 30 65  1  0  0  0
 30 66  1  0  0  0
 31 67  1  0  0  0
 31 68  1  0  0  0
 31 69  1  0  0  0
 32 70  1  0  0  0
 32 71  1  0  0  0
 32 72  1  0  0  0
 33 73  1  0  0  0
 33 74  1  0  0  0
 34 75  1  0  0  0
 34 76  1  0  0  0
 34 77  1  0  0  0
M  CHG  1  34   1
M  END
> <s_m_source_file>
../3btj_ligand.sdf

> <i_m_source_file_index>
1

> <s_epik_input>
W2NIXTFbY0hdW2NIXVtjSF1jKGMxMilDKFtOSDJdKT1bQ0hdW0NIXShbQ0gzXSlOMltDSDJdW0NIMl1bQ0gyXVtDSDJdW0NIMl1bQ0gyXVtDSDJdW0NIMl1bQ0gyXVtDSDJdTihDKFtDSDNdKT1bQ0hdW0NIXTNbTkgzK10pYyhjMzQpW2NIXVtjSF1bY0hdW2NIXTQ=

> <s_epik_cmdline>
J2VwaWtfYXBwJywgJy1pbWFlJywgJ2xpZ2FuZF9wcm8ubWFlJywgJy1vbWFlJywgJ2xpZ2FuZF9wcmVwLm1hZScsICctbXMnLCAnMScsICctcGgnLCAnNycsICctcGh0JywgJzAuNScsICctbnQn

> <r_lp_tautomer_probability>
1

> <r_epik_Ionization_Penalty>
  0.0856

> <r_epik_Ionization_Penalty_Charging>
  0.0752

> <r_epik_Ionization_Penalty_Neutral>
  0.0104

> <r_epik_State_Penalty>
 -0.0000

> <r_epik_Charging_Adjusted_Penalty>
0.0752078879603938

> <i_epik_Tot_Q>
1

> <i_epik_Tot_abs_Q>
1

> <s_epik_Chemistry_Notes>
This compound has an imine and may undergo hydrolysis.

$$$$
