3btl_ligand
                    3D
 Schrodinger Suite 2020-3.
 51 53  0  0  1  0            999 V2000
  -70.3360  -46.3280    5.9500 C   0  0  0  0  0  0
  -70.8320  -47.7320    6.2580 C   0  0  0  0  0  0
  -70.9740  -48.2340    7.6350 C   0  0  0  0  0  0
  -71.4300  -49.5870    7.9170 C   0  0  0  0  0  0
  -71.7780  -50.5120    6.8150 C   0  0  0  0  0  0
  -71.6530  -50.0260    5.4390 C   0  0  0  0  0  0
  -71.1990  -48.6720    5.1800 C   0  0  0  0  0  0
  -69.0870  -46.0890    5.0500 C   0  0  0  0  0  0
  -68.0730  -47.2160    4.8340 C   0  0  0  0  0  0
  -66.8930  -47.1060    4.0080 C   0  0  0  0  0  0
  -66.5950  -45.8090    3.3100 C   0  0  0  0  0  0
  -67.5770  -44.6260    3.5040 C   0  0  0  0  0  0
  -68.7750  -44.7810    4.3580 C   0  0  0  0  0  0
  -71.0700  -45.2170    6.5850 C   0  0  0  0  0  0
  -70.3530  -44.2860    7.4750 C   0  0  0  0  0  0
  -71.0390  -43.2050    8.1100 C   0  0  0  0  0  0
  -72.4410  -43.0150    7.8630 C   0  0  0  0  0  0
  -73.1760  -43.9220    7.0000 C   0  0  0  0  0  0
  -72.4970  -44.9870    6.3750 C   0  0  0  0  0  0
  -65.1430  -44.3950    1.7150 C   0  0  0  0  0  0
  -64.4760  -46.8640    2.1970 C   0  0  0  0  0  0
  -73.2940  -41.8310    9.9060 C   0  0  0  0  0  0
  -73.7290  -40.9430    7.5320 C   0  0  0  0  0  0
  -65.4560  -45.7130    2.4590 N   0  0  0  0  0  0
  -73.0910  -42.0000    8.4210 N   0  0  0  0  0  0
  -70.6279  -45.4983    5.2893 H   0  0  0  0  0  0
  -70.7306  -47.5733    8.4670 H   0  0  0  0  0  0
  -71.5162  -49.9227    8.9504 H   0  0  0  0  0  0
  -72.1179  -51.5268    7.0218 H   0  0  0  0  0  0
  -71.9019  -50.6838    4.6062 H   0  0  0  0  0  0
  -71.1259  -48.3348    4.1461 H   0  0  0  0  0  0
  -68.2539  -48.1656    5.3377 H   0  0  0  0  0  0
  -66.2233  -47.9581    3.8918 H   0  0  0  0  0  0
  -67.3840  -43.6745    3.0085 H   0  0  0  0  0  0
  -69.4477  -43.9338    4.4914 H   0  0  0  0  0  0
  -69.2862  -44.4238    7.6510 H   0  0  0  0  0  0
  -70.5023  -42.5299    8.7766 H   0  0  0  0  0  0
  -74.2444  -43.7804    6.8368 H   0  0  0  0  0  0
  -73.0513  -45.6567    5.7175 H   0  0  0  0  0  0
  -65.9013  -43.6404    1.9710 H   0  0  0  0  0  0
  -65.1561  -44.5745    0.6298 H   0  0  0  0  0  0
  -64.1488  -44.0320    2.0146 H   0  0  0  0  0  0
  -64.7881  -47.7491    2.7708 H   0  0  0  0  0  0
  -63.4650  -46.5628    2.5086 H   0  0  0  0  0  0
  -64.4723  -47.1053    1.1238 H   0  0  0  0  0  0
  -72.7902  -42.6498   10.4405 H   0  0  0  0  0  0
  -74.3700  -41.8518   10.1337 H   0  0  0  0  0  0
  -72.8699  -40.8681   10.2268 H   0  0  0  0  0  0
  -73.5135  -41.1718    6.4779 H   0  0  0  0  0  0
  -73.3173  -39.9546    7.7843 H   0  0  0  0  0  0
  -74.8174  -40.9384    7.6912 H   0  0  0  0  0  0
  1  2  1  0  0  0
  1  8  1  0  0  0
  1 14  1  0  0  0
  1 26  1  0  0  0
  2  3  2  0  0  0
  2  7  1  0  0  0
  3  4  1  0  0  0
  3 27  1  0  0  0
  4  5  2  0  0  0
  4 28  1  0  0  0
  5  6  1  0  0  0
  5 29  1  0  0  0
  6  7  2  0  0  0
  6 30  1  0  0  0
  7 31  1  0  0  0
  8  9  2  0  0  0
  8 13  1  0  0  0
  9 10  1  0  0  0
  9 32  1  0  0  0
 10 11  2  0  0  0
 10 33  1  0  0  0
 11 12  1  0  0  0
 11 24  1  0  0  0
 12 13  2  0  0  0
 12 34  1  0  0  0
 13 35  1  0  0  0
 14 15  2  0  0  0
 14 19  1  0  0  0
 15 16  1  0  0  0
 15 36  1  0  0  0
 16 17  2  0  0  0
 16 37  1  0  0  0
 17 18  1  0  0  0
 17 25  1  0  0  0
 18 19  2  0  0  0
 18 38  1  0  0  0
 19 39  1  0  0  0
 20 24  1  0  0  0
 20 40  1  0  0  0
 20 41  1  0  0  0
 20 42  1  0  0  0
 21 24  1  0  0  0
 21 43  1  0  0  0
 21 44  1  0  0  0
 21 45  1  0  0  0
 22 25  1  0  0  0
 22 46  1  0  0  0
 22 47  1  0  0  0
 22 48  1  0  0  0
 23 25  1  0  0  0
 23 49  1  0  0  0
 23 50  1  0  0  0
 23 51  1  0  0  0
M  END
> <s_m_source_file>
../3btl_ligand.sdf

> <i_m_source_file_index>
1

> <s_epik_input>
W2NIXTFbY0hdYyhOKFtDSDNdKVtDSDNdKVtjSF1bY0hdYzFbQ0hdKGMyW2NIXVtjSF1bY0hdW2NIXVtjSF0yKWMzW2NIXVtjSF1jKFtjSF1bY0hdMylOKFtDSDNdKVtDSDNd

> <s_epik_cmdline>
J2VwaWtfYXBwJywgJy1pbWFlJywgJ2xpZ2FuZF9wcm8ubWFlJywgJy1vbWFlJywgJ2xpZ2FuZF9wcmVwLm1hZScsICctbXMnLCAnMScsICctcGgnLCAnNycsICctcGh0JywgJzAuNScsICctbnQn

> <r_epik_Ionization_Penalty>
  0.0174

> <r_epik_Ionization_Penalty_Charging>
  0.0000

> <r_epik_Ionization_Penalty_Neutral>
  0.0174

> <r_epik_State_Penalty>
  0.0137

> <r_epik_Charging_Adjusted_Penalty>
0.013747697456229

> <i_epik_Tot_Q>
0

> <i_epik_Tot_abs_Q>
0

$$$$
