3btr_ligand
                    3D
 Schrodinger Suite 2020-3.
238237  0  0  1  0            999 V2000
   21.5930   80.0350   65.2080 N   0  3  0  0  0  0
   22.8170   80.6590   64.6260 C   0  0  2  0  0  0
   23.3070   79.8200   63.4500 C   0  0  0  0  0  0
   23.6790   78.6650   63.6200 O   0  0  0  0  0  0
   23.9290   80.7650   65.6790 C   0  0  0  0  0  0
   23.4590   81.2330   67.0560 C   0  0  0  0  0  0
   24.5420   81.1490   68.1230 C   0  0  0  0  0  0
   25.5630   80.4590   67.9070 O   0  0  0  0  0  0
   24.3610   81.7750   69.1900 O   0  0  0  0  0  0
   23.2870   80.3940   62.2550 N   0  0  0  0  0  0
   23.8560   79.7380   61.0840 C   0  0  2  0  0  0
   25.2260   80.3340   60.8270 C   0  0  0  0  0  0
   25.6430   81.2860   61.4900 O   0  0  0  0  0  0
   22.9560   79.9180   59.8640 C   0  0  0  0  0  0
   25.9220   79.7670   59.8560 N   0  0  0  0  0  0
   27.2570   80.2140   59.5180 C   0  0  0  0  0  0
   28.0720   78.9960   59.1940 C   0  0  0  0  0  0
   28.8010   78.4850   60.0440 O   0  0  0  0  0  0
   27.9110   78.5240   57.9600 N   0  0  0  0  0  0
   28.6820   77.4000   57.4490 C   0  0  2  0  0  0
   29.9500   77.9490   56.8150 C   0  0  0  0  0  0
   29.8970   78.8620   55.9910 O   0  0  0  0  0  0
   27.8510   76.5740   56.4510 C   0  0  0  0  0  0
   26.8070   75.6880   57.1380 C   0  0  0  0  0  0
   27.3970   74.0650   57.6910 S   0  0  0  0  0  0
   29.1920   74.2150   57.5920 C   0  0  0  0  0  0
   31.0880   77.3950   57.2240 N   0  0  0  0  0  0
   32.3850   77.8560   56.7580 C   0  0  2  0  0  0
   32.5360   77.5420   55.2780 C   0  0  0  0  0  0
   33.2830   78.2160   54.5710 O   0  0  0  0  0  0
   33.5460   77.1720   57.5260 C   0  0  2  0  0  0
   33.0550   76.5460   58.7160 O   0  0  0  0  0  0
   34.5810   78.1870   57.9050 C   0  0  0  0  0  0
   31.8020   76.5270   54.8170 N   0  0  0  0  0  0
   32.1020   75.8710   53.5590 C   0  0  2  0  0  0
   33.5830   75.4770   53.7150 C   0  0  0  0  0  0
   34.0790   75.4130   54.8510 O   0  0  0  0  0  0
   31.7520   76.7780   52.3600 C   0  0  0  0  0  0
   30.2570   77.1810   52.3160 C   0  0  0  0  0  0
   29.9750   78.1960   51.2080 C   0  0  0  0  0  0
   29.3380   75.9600   52.1740 C   0  0  0  0  0  0
   34.3030   75.1710   52.6490 N   0  0  0  0  0  0
   35.6550   74.6680   52.8690 C   0  0  0  0  0  0
   36.6950   75.7640   52.8940 C   0  0  0  0  0  0
   37.7910   75.5370   52.4290 O   0  0  0  0  0  0
   36.3770   76.9390   53.4440 N   0  0  0  0  0  0
   37.1450   78.1760   53.1510 C   0  0  2  0  0  0
   38.5540   78.1890   53.7410 C   0  0  0  0  0  0
   38.7200   77.8870   54.9120 O   0  0  0  0  0  0
   36.3820   79.4170   53.6150 C   0  0  0  0  0  0
   39.5510   78.5550   52.9250 N   0  0  0  0  0  0
   40.9500   78.6610   53.3860 C   0  0  2  0  0  0
   41.0960   79.7830   54.3960 C   0  0  0  0  0  0
   41.7330   79.6000   55.4260 O   0  0  0  0  0  0
   41.9380   78.8830   52.2240 C   0  0  0  0  0  0
   41.8310   77.8230   51.1580 C   0  0  0  0  0  0
   43.0920   77.5780   50.3130 C   0  0  0  0  0  0
   42.7850   76.5330   49.3220 N   0  0  0  0  0  0
   43.4630   76.2740   48.2000 C   0  0  0  0  0  0
   44.5510   76.9650   47.8560 N   0  0  0  0  0  0
   43.0380   75.2960   47.4040 N   0  0  0  0  0  0
   40.4950   80.9370   54.1070 N   0  0  0  0  0  0
   40.5580   82.0830   55.0100 C   0  0  2  0  0  0
   39.1640   82.6710   55.2860 C   0  0  0  0  0  0
   38.2580   82.6140   54.4440 O   0  0  0  0  0  0
   41.5250   83.1420   54.4460 C   0  0  0  0  0  0
   43.0040   82.7050   54.4640 C   0  0  0  0  0  0
   43.8820   83.5400   53.5390 C   0  0  0  0  0  0
   45.3620   83.1160   53.6440 C   0  0  0  0  0  0
   46.2900   83.7610   52.6450 N   0  3  0  0  0  0
   39.0000   83.2000   56.4930 N   0  0  0  0  0  0
   37.7380   83.7990   56.9500 C   0  0  2  0  0  0
   38.0230   85.1780   57.5090 C   0  0  0  0  0  0
   38.8440   85.3240   58.4080 O   0  0  0  0  0  0
   37.0510   82.9560   58.0410 C   0  0  0  0  0  0
   36.2950   81.6760   57.6510 C   0  0  0  0  0  0
   35.5470   81.1420   58.8940 C   0  0  0  0  0  0
   35.3280   81.9040   56.4730 C   0  0  0  0  0  0
   37.3510   86.1770   56.9500 N   0  0  0  0  0  0
   37.4080   87.5500   57.4300 C   0  0  2  0  0  0
   36.3430   87.6840   58.5090 C   0  0  0  0  0  0
   35.2250   87.2020   58.3240 O   0  0  0  0  0  0
   37.1240   88.4780   56.2530 C   0  0  0  0  0  0
   36.9160   89.9530   56.5460 C   0  0  0  0  0  0
   36.6390   90.6430   55.2080 C   0  0  0  0  0  0
   36.3360   92.1210   55.3140 C   0  0  0  0  0  0
   35.6740   92.5860   54.0360 N   0  3  0  0  0  0
   36.6820   88.3060   59.6360 N   0  0  0  0  0  0
   35.6910   88.5090   60.7090 C   0  0  2  0  0  0
   34.8860   89.8000   60.5040 C   0  0  0  0  0  0
   35.4160   90.9050   60.6650 O   0  0  0  0  0  0
   36.3430   88.5260   62.0900 C   0  0  0  0  0  0
   35.3110   88.6890   63.1810 C   0  0  0  0  0  0
   35.8580   88.5170   64.5730 C   0  0  0  0  0  0
   34.7140   88.5910   65.6010 C   0  0  0  0  0  0
   35.1800   88.9200   66.9720 N   0  3  0  0  0  0
   33.6070   89.6560   60.1580 N   0  0  0  0  0  0
   32.7500   90.8140   59.9070 C   0  0  2  0  0  0
   32.3340   91.4770   61.2220 C   0  0  0  0  0  0
   32.3170   90.8330   62.2830 O   0  0  0  0  0  0
   31.5130   90.4280   59.0790 C   0  0  0  0  0  0
   31.7340   90.0220   57.6120 C   0  0  0  0  0  0
   30.3960   89.7790   56.9200 C   0  0  0  0  0  0
   32.5620   91.0480   56.8260 C   0  0  0  0  0  0
   32.0060   92.7690   61.1370 N   0  0  0  0  0  0
   31.6810   93.5890   62.3160 C   0  0  0  0  0  0
   30.4590   93.1150   63.0970 C   0  0  0  0  0  0
   30.5390   92.8450   64.3040 O   0  0  0  0  0  0
   29.2909   92.9897   62.4735 O   0  0  0  0  0  0
   21.2404   80.6407   66.0559 H   0  0  0  0  0  0
   21.8298   79.0189   65.5566 H   0  0  0  0  0  0
   20.8064   79.9854   64.4406 H   0  0  0  0  0  0
   22.5363   81.6665   64.2852 H   0  0  0  0  0  0
   24.3960   79.7790   65.8196 H   0  0  0  0  0  0
   24.6881   81.4851   65.3395 H   0  0  0  0  0  0
   23.1344   82.2823   66.9955 H   0  0  0  0  0  0
   22.6175   80.6074   67.3884 H   0  0  0  0  0  0
   26.3522   80.3906   68.6702 H   0  0  0  0  0  0
   22.8272   81.3887   62.1591 H   0  0  0  0  0  0
   23.9302   78.6647   61.3133 H   0  0  0  0  0  0
   21.9681   79.4800   60.0693 H   0  0  0  0  0  0
   23.4079   79.4133   58.9973 H   0  0  0  0  0  0
   22.8436   80.9904   59.6463 H   0  0  0  0  0  0
   25.4628   78.9364   59.2999 H   0  0  0  0  0  0
   27.2093   80.8869   58.6491 H   0  0  0  0  0  0
   27.6917   80.7508   60.3741 H   0  0  0  0  0  0
   27.1636   79.0148   57.3194 H   0  0  0  0  0  0
   28.9364   76.7549   58.3029 H   0  0  0  0  0  0
   27.3188   77.2520   55.7675 H   0  0  0  0  0  0
   28.5185   75.9191   55.8717 H   0  0  0  0  0  0
   26.4246   76.1992   58.0337 H   0  0  0  0  0  0
   25.9762   75.4944   56.4435 H   0  0  0  0  0  0
   29.6570   73.2704   57.9107 H   0  0  0  0  0  0
   29.5287   75.0297   58.2499 H   0  0  0  0  0  0
   29.4848   74.4363   56.5550 H   0  0  0  0  0  0
   31.0249   76.5614   57.9389 H   0  0  0  0  0  0
   32.3738   78.9406   56.9409 H   0  0  0  0  0  0
   34.0063   76.3714   56.9284 H   0  0  0  0  0  0
   32.2826   75.7658   58.6484 H   0  0  0  0  0  0
   34.9657   78.6749   56.9973 H   0  0  0  0  0  0
   35.4079   77.6883   58.4318 H   0  0  0  0  0  0
   34.1291   78.9429   58.5641 H   0  0  0  0  0  0
   30.9474   76.1908   55.4225 H   0  0  0  0  0  0
   31.4717   74.9844   53.3959 H   0  0  0  0  0  0
   32.3441   77.7034   52.4152 H   0  0  0  0  0  0
   31.9818   76.2510   51.4222 H   0  0  0  0  0  0
   30.0231   77.6655   53.2755 H   0  0  0  0  0  0
   30.6421   79.0626   51.3262 H   0  0  0  0  0  0
   28.9282   78.5276   51.2723 H   0  0  0  0  0  0
   30.1519   77.7280   50.2284 H   0  0  0  0  0  0
   29.5552   75.2420   52.9786 H   0  0  0  0  0  0
   29.5119   75.4816   51.1988 H   0  0  0  0  0  0
   28.2882   76.2813   52.2428 H   0  0  0  0  0  0
   33.9178   75.2833   51.6248 H   0  0  0  0  0  0
   35.6985   74.1437   53.8350 H   0  0  0  0  0  0
   35.9229   73.9711   52.0612 H   0  0  0  0  0  0
   35.5190   76.9742   54.1314 H   0  0  0  0  0  0
   37.2442   78.1622   52.0556 H   0  0  0  0  0  0
   35.3681   79.4047   53.1886 H   0  0  0  0  0  0
   36.9110   80.3203   53.2771 H   0  0  0  0  0  0
   36.3180   79.4188   54.7131 H   0  0  0  0  0  0
   39.2982   78.7803   51.8784 H   0  0  0  0  0  0
   41.1572   77.6929   53.8654 H   0  0  0  0  0  0
   41.7367   79.8562   51.7524 H   0  0  0  0  0  0
   42.9678   78.8689   52.6105 H   0  0  0  0  0  0
   41.5868   76.8572   51.6245 H   0  0  0  0  0  0
   41.0383   78.0973   50.4464 H   0  0  0  0  0  0
   43.3788   78.5098   49.8037 H   0  0  0  0  0  0
   43.9135   77.2497   50.9668 H   0  0  0  0  0  0
   41.9202   75.8699   49.4719 H   0  0  0  0  0  0
   44.9148   77.7764   48.5035 H   0  0  0  0  0  0
   45.0844   76.7234   46.9248 H   0  0  0  0  0  0
   42.1424   74.7171   47.6739 H   0  0  0  0  0  0
   39.9408   81.0129   53.1598 H   0  0  0  0  0  0
   40.9480   81.6842   55.9581 H   0  0  0  0  0  0
   41.2611   83.3597   53.4006 H   0  0  0  0  0  0
   41.4489   84.0629   55.0428 H   0  0  0  0  0  0
   43.4033   82.8045   55.4841 H   0  0  0  0  0  0
   43.0804   81.6563   54.1411 H   0  0  0  0  0  0
   43.5508   83.4053   52.4987 H   0  0  0  0  0  0
   43.8001   84.6016   53.8153 H   0  0  0  0  0  0
   45.7478   83.3753   54.6409 H   0  0  0  0  0  0
   45.4441   82.0299   53.4902 H   0  0  0  0  0  0
   47.3141   83.3928   52.8051 H   0  0  0  0  0  0
   46.2682   84.8529   52.7761 H   0  0  0  0  0  0
   45.9644   83.5076   51.6253 H   0  0  0  0  0  0
   39.8713   83.1742   57.1639 H   0  0  0  0  0  0
   37.0953   83.8461   56.0585 H   0  0  0  0  0  0
   37.8027   82.6134   58.7673 H   0  0  0  0  0  0
   36.2957   83.5679   58.5560 H   0  0  0  0  0  0
   37.0273   80.9323   57.3036 H   0  0  0  0  0  0
   36.2627   80.9899   59.7153 H   0  0  0  0  0  0
   35.0628   80.1855   58.6477 H   0  0  0  0  0  0
   34.7832   81.8706   59.2034 H   0  0  0  0  0  0
   35.8891   82.2830   55.6061 H   0  0  0  0  0  0
   34.5625   82.6385   56.7639 H   0  0  0  0  0  0
   34.8421   80.9533   56.2082 H   0  0  0  0  0  0
   36.7268   85.9239   56.0803 H   0  0  0  0  0  0
   38.4047   87.7705   57.8398 H   0  0  0  0  0  0
   37.9660   88.4419   55.5461 H   0  0  0  0  0  0
   36.2041   88.1540   55.7443 H   0  0  0  0  0  0
   36.0623   90.0743   57.2290 H   0  0  0  0  0  0
   37.8219   90.3651   57.0146 H   0  0  0  0  0  0
   37.5186   90.5434   54.5551 H   0  0  0  0  0  0
   35.7694   90.1725   54.7259 H   0  0  0  0  0  0
   35.6609   92.2968   56.1645 H   0  0  0  0  0  0
   37.2724   92.6772   55.4681 H   0  0  0  0  0  0
   35.4516   93.6609   54.1084 H   0  0  0  0  0  0
   34.7387   92.0275   53.8833 H   0  0  0  0  0  0
   36.3503   92.4078   53.1869 H   0  0  0  0  0  0
   37.7123   88.6699   59.7628 H   0  0  0  0  0  0
   35.0281   87.6349   60.6275 H   0  0  0  0  0  0
   36.8795   87.5798   62.2538 H   0  0  0  0  0  0
   37.0521   89.3648   62.1504 H   0  0  0  0  0  0
   34.8755   89.6976   63.1260 H   0  0  0  0  0  0
   34.5170   87.9392   63.0497 H   0  0  0  0  0  0
   36.3543   87.5387   64.6536 H   0  0  0  0  0  0
   36.5851   89.3154   64.7825 H   0  0  0  0  0  0
   33.9983   89.3693   65.2977 H   0  0  0  0  0  0
   34.2006   87.6193   65.6489 H   0  0  0  0  0  0
   34.3173   88.9570   67.6535 H   0  0  0  0  0  0
   35.6828   89.8983   66.9635 H   0  0  0  0  0  0
   35.8851   88.1484   67.3146 H   0  0  0  0  0  0
   33.1991   88.6389   60.0625 H   0  0  0  0  0  0
   33.3763   91.5072   59.3263 H   0  0  0  0  0  0
   31.0140   89.5658   59.5455 H   0  0  0  0  0  0
   30.8166   91.2787   59.0417 H   0  0  0  0  0  0
   32.3101   89.0850   57.6207 H   0  0  0  0  0  0
   29.8147   89.0425   57.4942 H   0  0  0  0  0  0
   30.5728   89.3953   55.9044 H   0  0  0  0  0  0
   29.8360   90.7240   56.8626 H   0  0  0  0  0  0
   33.5224   91.2125   57.3365 H   0  0  0  0  0  0
   32.0100   91.9977   56.7683 H   0  0  0  0  0  0
   32.7469   90.6690   55.8100 H   0  0  0  0  0  0
   31.9846   93.2170   60.1326 H   0  0  0  0  0  0
   32.5309   93.5801   63.0143 H   0  0  0  0  0  0
   31.4776   94.6225   61.9991 H   0  0  0  0  0  0
   28.4048   92.6486   63.0289 H   0  0  0  0  0  0
  1  2  1  0  0  0
  1110  1  0  0  0
  1111  1  0  0  0
  1112  1  0  0  0
  2  5  1  0  0  0
  2  3  1  0  0  0
  2113  1  0  0  0
  3  4  2  0  0  0
  3 10  1  0  0  0
  5  6  1  0  0  0
  5114  1  0  0  0
  5115  1  0  0  0
  6  7  1  0  0  0
  6116  1  0  0  0
  6117  1  0  0  0
  7  9  2  0  0  0
  7  8  1  0  0  0
  8118  1  0  0  0
 10 11  1  0  0  0
 10119  1  0  0  0
 11 14  1  0  0  0
 11 12  1  0  0  0
 11120  1  0  0  0
 12 13  2  0  0  0
 12 15  1  0  0  0
 14121  1  0  0  0
 14122  1  0  0  0
 14123  1  0  0  0
 15 16  1  0  0  0
 15124  1  0  0  0
 16 17  1  0  0  0
 16125  1  0  0  0
 16126  1  0  0  0
 17 18  2  0  0  0
 17 19  1  0  0  0
 19 20  1  0  0  0
 19127  1  0  0  0
 20 23  1  0  0  0
 20 21  1  0  0  0
 20128  1  0  0  0
 21 22  2  0  0  0
 21 27  1  0  0  0
 23 24  1  0  0  0
 23129  1  0  0  0
 23130  1  0  0  0
 24 25  1  0  0  0
 24131  1  0  0  0
 24132  1  0  0  0
 25 26  1  0  0  0
 26133  1  0  0  0
 26134  1  0  0  0
 26135  1  0  0  0
 27 28  1  0  0  0
 27136  1  0  0  0
 28 31  1  0  0  0
 28 29  1  0  0  0
 28137  1  0  0  0
 29 30  2  0  0  0
 29 34  1  0  0  0
 31 33  1  0  0  0
 31 32  1  0  0  0
 31138  1  0  0  0
 32139  1  0  0  0
 33140  1  0  0  0
 33141  1  0  0  0
 33142  1  0  0  0
 34 35  1  0  0  0
 34143  1  0  0  0
 35 38  1  0  0  0
 35 36  1  0  0  0
 35144  1  0  0  0
 36 37  2  0  0  0
 36 42  1  0  0  0
 38 39  1  0  0  0
 38145  1  0  0  0
 38146  1  0  0  0
 39 40  1  0  0  0
 39 41  1  0  0  0
 39147  1  0  0  0
 40148  1  0  0  0
 40149  1  0  0  0
 40150  1  0  0  0
 41151  1  0  0  0
 41152  1  0  0  0
 41153  1  0  0  0
 42 43  1  0  0  0
 42154  1  0  0  0
 43 44  1  0  0  0
 43155  1  0  0  0
 43156  1  0  0  0
 44 45  2  0  0  0
 44 46  1  0  0  0
 46 47  1  0  0  0
 46157  1  0  0  0
 47 50  1  0  0  0
 47 48  1  0  0  0
 47158  1  0  0  0
 48 49  2  0  0  0
 48 51  1  0  0  0
 50159  1  0  0  0
 50160  1  0  0  0
 50161  1  0  0  0
 51 52  1  0  0  0
 51162  1  0  0  0
 52 55  1  0  0  0
 52 53  1  0  0  0
 52163  1  0  0  0
 53 54  2  0  0  0
 53 62  1  0  0  0
 55 56  1  0  0  0
 55164  1  0  0  0
 55165  1  0  0  0
 56 57  1  0  0  0
 56166  1  0  0  0
 56167  1  0  0  0
 57 58  1  0  0  0
 57168  1  0  0  0
 57169  1  0  0  0
 58 59  1  0  0  0
 58170  1  0  0  0
 59 61  2  0  0  0
 59 60  1  0  0  0
 60171  1  0  0  0
 60172  1  0  0  0
 61173  1  0  0  0
 62 63  1  0  0  0
 62174  1  0  0  0
 63 66  1  0  0  0
 63 64  1  0  0  0
 63175  1  0  0  0
 64 65  2  0  0  0
 64 71  1  0  0  0
 66 67  1  0  0  0
 66176  1  0  0  0
 66177  1  0  0  0
 67 68  1  0  0  0
 67178  1  0  0  0
 67179  1  0  0  0
 68 69  1  0  0  0
 68180  1  0  0  0
 68181  1  0  0  0
 69 70  1  0  0  0
 69182  1  0  0  0
 69183  1  0  0  0
 70184  1  0  0  0
 70185  1  0  0  0
 70186  1  0  0  0
 71 72  1  0  0  0
 71187  1  0  0  0
 72 75  1  0  0  0
 72 73  1  0  0  0
 72188  1  0  0  0
 73 74  2  0  0  0
 73 79  1  0  0  0
 75 76  1  0  0  0
 75189  1  0  0  0
 75190  1  0  0  0
 76 77  1  0  0  0
 76 78  1  0  0  0
 76191  1  0  0  0
 77192  1  0  0  0
 77193  1  0  0  0
 77194  1  0  0  0
 78195  1  0  0  0
 78196  1  0  0  0
 78197  1  0  0  0
 79 80  1  0  0  0
 79198  1  0  0  0
 80 83  1  0  0  0
 80 81  1  0  0  0
 80199  1  0  0  0
 81 82  2  0  0  0
 81 88  1  0  0  0
 83 84  1  0  0  0
 83200  1  0  0  0
 83201  1  0  0  0
 84 85  1  0  0  0
 84202  1  0  0  0
 84203  1  0  0  0
 85 86  1  0  0  0
 85204  1  0  0  0
 85205  1  0  0  0
 86 87  1  0  0  0
 86206  1  0  0  0
 86207  1  0  0  0
 87208  1  0  0  0
 87209  1  0  0  0
 87210  1  0  0  0
 88 89  1  0  0  0
 88211  1  0  0  0
 89 92  1  0  0  0
 89 90  1  0  0  0
 89212  1  0  0  0
 90 91  2  0  0  0
 90 97  1  0  0  0
 92 93  1  0  0  0
 92213  1  0  0  0
 92214  1  0  0  0
 93 94  1  0  0  0
 93215  1  0  0  0
 93216  1  0  0  0
 94 95  1  0  0  0
 94217  1  0  0  0
 94218  1  0  0  0
 95 96  1  0  0  0
 95219  1  0  0  0
 95220  1  0  0  0
 96221  1  0  0  0
 96222  1  0  0  0
 96223  1  0  0  0
 97 98  1  0  0  0
 97224  1  0  0  0
 98101  1  0  0  0
 98 99  1  0  0  0
 98225  1  0  0  0
 99100  2  0  0  0
 99105  1  0  0  0
101102  1  0  0  0
101226  1  0  0  0
101227  1  0  0  0
102103  1  0  0  0
102104  1  0  0  0
102228  1  0  0  0
103229  1  0  0  0
103230  1  0  0  0
103231  1  0  0  0
104232  1  0  0  0
104233  1  0  0  0
104234  1  0  0  0
105106  1  0  0  0
105235  1  0  0  0
106107  1  0  0  0
106236  1  0  0  0
106237  1  0  0  0
107108  2  0  0  0
107109  1  0  0  0
109238  1  0  0  0
M  CHG  4   1   1  70   1  87   1  96   1
M  END
> <s_m_source_file>
../3btr_ligand.sdf

> <i_m_source_file_index>
1

> <s_epik_input>
W09IXUMoPU8pW0NIMl1bQ0gyXVtDQEhdKFtOSDMrXSlDKD1PKVtOSF1bQ0BASF0oW0NIM10pQyg9TylbTkhdW0NIMl1DKD1PKVtOSF1bQ0BASF0oW0NIMl1bQ0gyXVNbQ0gzXSlDKD1PKVtOSF1bQ0BASF0oW0NASF0oW09IXSlbQ0gzXSlDKD1PKVtOSF1bQ0BASF0oW0NIMl1bQ0hdKFtDSDNdKVtDSDNdKUMoPU8pW05IXVtDSDJdQyg9TylbTkhdW0NAQEhdKFtDSDNdKUMoPU8pW05IXVtDQEBIXShbQ0gyXVtDSDJdW0NIMl1bTkhdL0MoW05IMl0pPU5cW0hdKUMoPU8pW05IXVtDQEBIXShbQ0gyXVtDSDJdW0NIMl1bQ0gyXVtOSDMrXSlDKD1PKVtOSF1bQ0BASF0oW0NIMl1bQ0hdKFtDSDNdKVtDSDNdKUMoPU8pW05IXVtDQEBIXShbQ0gyXVtDSDJdW0NIMl1bQ0gyXVtOSDMrXSlDKD1PKVtOSF1bQ0BASF0oW0NIMl1bQ0gyXVtDSDJdW0NIMl1bTkgzK10pQyg9TylbTkhdW0NAQEhdKFtDSDJdW0NIXShbQ0gzXSlbQ0gzXSlDKD1PKVtOSF1bQ0gyXUMoPU8pW09IXQ==

> <s_epik_cmdline>
J2VwaWtfYXBwJywgJy1pbWFlJywgJ2xpZ2FuZF9wcm8ubWFlJywgJy1vbWFlJywgJ2xpZ2FuZF9wcmVwLm1hZScsICctbXMnLCAnMScsICctcGgnLCAnNycsICctcGh0JywgJzAuNScsICctbnQn

> <s_epik_pKa_notes>
Molecule size exceeds maximum supported for generating protonation states

> <s_epik_Chemistry_Notes>
This compound has an imine and may undergo hydrolysis.

$$$$
