3bu6_ligand
                    3D
 Schrodinger Suite 2020-3.
224228  0  0  1  0            999 V2000
   -4.9750    3.8910   24.1130 N   0  3  0  0  0  0
   -5.0180    5.3670   24.3490 C   0  0  2  0  0  0
   -5.2260    5.7240   25.8190 C   0  0  0  0  0  0
   -5.1100    6.8970   26.2100 O   0  0  0  0  0  0
   -6.1130    5.9990   23.4880 C   0  0  0  0  0  0
   -5.9230    5.7280   22.0120 C   0  0  0  0  0  0
   -6.6540    4.7240   21.3670 C   0  0  0  0  0  0
   -5.0000    6.4610   21.2610 C   0  0  0  0  0  0
   -6.4820    4.4700   20.0070 C   0  0  0  0  0  0
   -4.8190    6.2060   19.8950 C   0  0  0  0  0  0
   -5.5610    5.2080   19.2800 C   0  0  0  0  0  0
   -5.3920    4.9590   17.9300 O   0  0  0  0  0  0
   -5.5340    4.7060   26.6270 N   0  0  0  0  0  0
   -5.6740    4.8770   28.0690 C   0  0  2  0  0  0
   -4.3280    5.2040   28.7360 C   0  0  0  0  0  0
   -3.3200    4.5310   28.4690 O   0  0  0  0  0  0
   -6.3230    3.6350   28.6940 C   0  0  0  0  0  0
   -7.7920    3.4780   28.3060 C   0  0  0  0  0  0
   -8.5090    4.4600   28.1290 O   0  0  0  0  0  0
   -8.2470    2.2360   28.1920 N   0  0  0  0  0  0
   -4.2900    6.2770   29.5570 N   0  0  0  0  0  0
   -3.0900    6.5880   30.3340 C   0  0  2  0  0  0
   -3.0000    5.7290   31.5930 C   0  0  0  0  0  0
   -4.0340    5.3740   32.1760 O   0  0  0  0  0  0
   -3.2870    8.0630   30.6990 C   0  0  0  0  0  0
   -4.7650    8.2220   30.7820 C   0  0  0  0  0  0
   -5.3620    7.2730   29.7710 C   0  0  0  0  0  0
   -1.7740    5.3890   31.9980 N   0  0  0  0  0  0
   -1.5450    4.5950   33.2110 C   0  0  2  0  0  0
   -0.5560    5.2930   34.1470 C   0  0  0  0  0  0
    0.6290    4.9380   34.1900 O   0  0  0  0  0  0
   -1.0910    3.1660   32.8630 C   0  0  0  0  0  0
   -2.1630    2.3540   32.1730 C   0  0  0  0  0  0
   -3.1170    1.6510   32.9110 C   0  0  0  0  0  0
   -2.2370    2.3090   30.7830 C   0  0  0  0  0  0
   -4.1120    0.9170   32.2810 C   0  0  0  0  0  0
   -3.2220    1.5810   30.1380 C   0  0  0  0  0  0
   -4.1540    0.8880   30.8850 C   0  0  0  0  0  0
   -5.1280    0.1720   30.2370 O   0  0  0  0  0  0
   -1.0390    6.3100   34.8920 N   0  0  0  0  0  0
   -0.1780    7.0980   35.7800 C   0  0  2  0  0  0
    0.5920    6.2560   36.8100 C   0  0  0  0  0  0
    1.7080    6.6190   37.1850 O   0  0  0  0  0  0
   -1.1660    8.0550   36.4780 C   0  0  0  0  0  0
   -2.5270    7.4460   36.2650 C   0  0  0  0  0  0
   -2.4400    6.7770   34.9360 C   0  0  0  0  0  0
    0.0140    5.1350   37.2340 N   0  0  0  0  0  0
    0.6520    4.2610   38.2190 C   0  0  2  0  0  0
    1.8580    3.4770   37.6540 C   0  0  0  0  0  0
    2.6250    2.8970   38.4150 O   0  0  0  0  0  0
   -0.3890    3.3290   38.8490 C   0  0  0  0  0  0
   -1.5710    4.1140   39.4560 C   0  0  0  0  0  0
   -2.6170    3.2480   40.1390 C   0  0  0  0  0  0
   -2.5220    1.9980   40.0580 O   0  0  0  0  0  0
   -3.5440    3.8270   40.7690 O   0  0  0  0  0  0
    2.0130    3.4830   36.3250 N   0  0  0  0  0  0
    3.1270    2.8170   35.6340 C   0  0  2  0  0  0
    4.4060    3.6640   35.6030 C   0  0  0  0  0  0
    5.4280    3.2540   35.0330 O   0  0  0  0  0  0
    2.7210    2.4430   34.1970 C   0  0  0  0  0  0
    1.7200    1.2900   34.1440 C   0  0  0  0  0  0
    1.2590    0.8350   35.2050 O   0  0  0  0  0  0
    1.4020    0.8210   33.0330 O   0  0  0  0  0  0
    4.3440    4.8410   36.2180 N   0  0  0  0  0  0
    5.5090    5.7060   36.3360 C   0  0  2  0  0  0
    5.7930    5.9970   37.8040 C   0  0  0  0  0  0
    4.8750    6.0320   38.6280 O   0  0  0  0  0  0
    5.3540    6.9790   35.4860 C   0  0  0  0  0  0
    5.1520    6.6780   34.0150 C   0  0  0  0  0  0
    3.8750    6.4610   33.4910 C   0  0  0  0  0  0
    6.2450    6.5580   33.1560 C   0  0  0  0  0  0
    3.6950    6.1580   32.1400 C   0  0  0  0  0  0
    6.0740    6.2580   31.8080 C   0  0  0  0  0  0
    4.8010    6.0610   31.3020 C   0  0  0  0  0  0
    4.6840    5.7630   30.0900 O   0  0  0  0  0  0
    3.6640    6.4860   29.0830 P   0  0  0  0  0  0
    4.0010    6.0370   27.7180 O   0  0  0  0  0  0
    3.7980    8.0180   29.1850 O   0  0  0  0  0  0
    2.2100    6.0540   29.3660 O   0  0  0  0  0  0
    7.0690    6.1830   38.1200 N   0  0  0  0  0  0
    7.4890    6.6020   39.4580 C   0  0  0  0  0  0
    8.5510    7.6810   39.3830 C   0  0  0  0  0  0
    9.3150    7.7400   38.4210 O   0  0  0  0  0  0
    8.5890    8.5500   40.3920 N   0  0  0  0  0  0
    9.6480    9.5470   40.5060 C   0  0  2  0  0  0
   10.8890    8.8860   41.0760 C   0  0  0  0  0  0
   10.9550    8.6010   42.2720 O   0  0  0  0  0  0
    9.2100   10.7010   41.4100 C   0  0  0  0  0  0
    8.1220   11.5440   40.7900 C   0  0  0  0  0  0
    8.3820   12.1990   39.7600 O   0  0  0  0  0  0
    7.0100   11.5580   41.3450 O   0  0  0  0  0  0
   11.8590    8.6090   40.2140 N   0  0  0  0  0  0
   13.1050    7.9760   40.6460 C   0  0  2  0  0  0
   14.3000    8.7050   40.0550 C   0  0  0  0  0  0
   14.1390    9.5680   39.1900 O   0  0  0  0  0  0
   13.1810    6.4690   40.2460 C   0  0  2  0  0  0
   12.9310    6.2860   38.7380 C   0  0  0  0  0  0
   12.2310    5.6300   41.0980 C   0  0  0  0  0  0
   13.6050    5.0710   38.1660 C   0  0  0  0  0  0
   15.4920    8.3540   40.5350 N   0  0  0  0  0  0
   16.7440    8.8480   39.9720 C   0  0  2  0  0  0
   17.5150    7.6980   39.3330 C   0  0  0  0  0  0
   17.6580    6.6400   39.9420 O   0  0  0  0  0  0
   17.5900    9.5100   41.0650 C   0  0  0  0  0  0
   18.8980   10.0980   40.5700 C   0  0  0  0  0  0
   19.6790   10.8190   41.6520 C   0  0  0  0  0  0
   19.1210   11.0850   42.7400 O   0  0  0  0  0  0
   20.8620   11.1300   41.4050 O   0  0  0  0  0  0
   17.9910    7.9130   38.1060 N   0  0  0  0  0  0
   18.8070    6.9310   37.3810 C   0  0  2  0  0  0
   20.1670    7.5340   37.0190 C   0  0  0  0  0  0
   20.3740    8.7450   37.1710 O   0  0  0  0  0  0
   18.0970    6.3940   36.0930 C   0  0  2  0  0  0
   17.9370    7.5040   35.0450 C   0  0  0  0  0  0
   16.7550    5.7460   36.4420 C   0  0  0  0  0  0
   17.4390    7.0200   33.6600 C   0  0  0  0  0  0
   21.0930    6.6940   36.5590 N   0  0  0  0  0  0
   22.4180    7.1600   36.1480 C   0  0  0  0  0  0
   23.3150    7.5990   37.2970 C   0  0  0  0  0  0
   23.4900    6.8710   38.2780 O   0  0  0  0  0  0
   23.9183    8.7831   37.2428 O   0  0  0  0  0  0
   -4.1859    3.4431   24.7349 H   0  0  0  0  0  0
   -4.7609    3.6954   23.0519 H   0  0  0  0  0  0
   -5.9465    3.4488   24.3786 H   0  0  0  0  0  0
   -4.0290    5.7493   24.0562 H   0  0  0  0  0  0
   -7.0916    5.5919   23.7824 H   0  0  0  0  0  0
   -6.1105    7.0893   23.6337 H   0  0  0  0  0  0
   -7.3693    4.1311   21.9370 H   0  0  0  0  0  0
   -4.4128    7.2418   21.7444 H   0  0  0  0  0  0
   -7.0698    3.6937   19.5171 H   0  0  0  0  0  0
   -4.0996    6.7882   19.3192 H   0  0  0  0  0  0
   -5.9785    4.1685   17.4389 H   0  0  0  0  0  0
   -5.6832    3.7149   26.1736 H   0  0  0  0  0  0
   -6.3415    5.7431   28.1886 H   0  0  0  0  0  0
   -5.7883    2.7340   28.3589 H   0  0  0  0  0  0
   -6.2703    3.7062   29.7904 H   0  0  0  0  0  0
   -7.5705    1.3849   28.3591 H   0  0  0  0  0  0
   -9.3005    2.0580   27.9305 H   0  0  0  0  0  0
   -2.1841    6.3766   29.7469 H   0  0  0  0  0  0
   -2.7940    8.2719   31.6599 H   0  0  0  0  0  0
   -2.8462    8.6967   29.9153 H   0  0  0  0  0  0
   -5.1039    7.9740   31.7987 H   0  0  0  0  0  0
   -5.0355    9.2624   30.5489 H   0  0  0  0  0  0
   -5.5964    7.7699   28.8180 H   0  0  0  0  0  0
   -6.2616    6.7674   30.1518 H   0  0  0  0  0  0
   -0.9203    5.7236   31.3904 H   0  0  0  0  0  0
   -2.5220    4.5443   33.7140 H   0  0  0  0  0  0
   -0.2223    3.2110   32.1896 H   0  0  0  0  0  0
   -0.8129    2.6348   33.7852 H   0  0  0  0  0  0
   -3.0797    1.6791   34.0000 H   0  0  0  0  0  0
   -1.5046    2.8580   30.1911 H   0  0  0  0  0  0
   -4.8507    0.3706   32.8674 H   0  0  0  0  0  0
   -3.2616    1.5550   29.0490 H   0  0  0  0  0  0
   -5.8782   -0.3857   30.8167 H   0  0  0  0  0  0
    0.6008    7.5837   35.1737 H   0  0  0  0  0  0
   -0.9173    8.1228   37.5474 H   0  0  0  0  0  0
   -1.0946    9.0530   36.0210 H   0  0  0  0  0  0
   -2.7372    6.7271   37.0706 H   0  0  0  0  0  0
   -3.2891    8.2392   36.2734 H   0  0  0  0  0  0
   -2.6221    7.4693   34.1008 H   0  0  0  0  0  0
   -3.1170    5.9141   34.8513 H   0  0  0  0  0  0
   -0.9716    4.8723   36.8223 H   0  0  0  0  0  0
    1.0421    4.9554   38.9777 H   0  0  0  0  0  0
   -0.7853    2.6491   38.0804 H   0  0  0  0  0  0
    0.0823    2.7414   39.6506 H   0  0  0  0  0  0
   -1.1938    4.8175   40.2129 H   0  0  0  0  0  0
   -2.0870    4.6725   38.6612 H   0  0  0  0  0  0
   -4.3189    3.2332   41.2759 H   0  0  0  0  0  0
    1.2503    4.0233   35.7450 H   0  0  0  0  0  0
    3.3164    1.9219   36.2446 H   0  0  0  0  0  0
    2.2569    3.3127   33.7090 H   0  0  0  0  0  0
    3.6138    2.1383   33.6313 H   0  0  0  0  0  0
    0.6831   -0.0093   32.9719 H   0  0  0  0  0  0
    3.3799    5.1558   36.6439 H   0  0  0  0  0  0
    6.3556    5.1348   35.9274 H   0  0  0  0  0  0
    4.4813    7.5497   35.8363 H   0  0  0  0  0  0
    6.2590    7.5968   35.5825 H   0  0  0  0  0  0
    3.0068    6.5293   34.1464 H   0  0  0  0  0  0
    7.2517    6.7020   33.5483 H   0  0  0  0  0  0
    2.6922    5.9982   31.7437 H   0  0  0  0  0  0
    6.9408    6.1783   31.1520 H   0  0  0  0  0  0
    4.7726    8.4976   29.0116 H   0  0  0  0  0  0
    1.9367    4.9890   29.3347 H   0  0  0  0  0  0
    7.8212    6.0113   37.3360 H   0  0  0  0  0  0
    6.6222    6.9987   40.0069 H   0  0  0  0  0  0
    7.9022    5.7385   39.9998 H   0  0  0  0  0  0
    7.7944    8.5024   41.1512 H   0  0  0  0  0  0
    9.8392    9.9234   39.4903 H   0  0  0  0  0  0
    8.8255   10.2981   42.3586 H   0  0  0  0  0  0
   10.0706   11.3557   41.6118 H   0  0  0  0  0  0
    7.6039   12.8198   39.2920 H   0  0  0  0  0  0
   11.7110    8.8657   39.1547 H   0  0  0  0  0  0
   13.0858    8.0875   41.7402 H   0  0  0  0  0  0
   14.1916    6.0849   40.4488 H   0  0  0  0  0  0
   11.8513    6.1822   38.5553 H   0  0  0  0  0  0
   13.3123    7.1628   38.1940 H   0  0  0  0  0  0
   12.4502    5.7960   42.1631 H   0  0  0  0  0  0
   12.3663    4.5652   40.8575 H   0  0  0  0  0  0
   11.1924    5.9245   40.8871 H   0  0  0  0  0  0
   13.3853    5.0021   37.0904 H   0  0  0  0  0  0
   13.2310    4.1705   38.6751 H   0  0  0  0  0  0
   14.6921    5.1510   38.3138 H   0  0  0  0  0  0
   15.5085    7.6629   41.3906 H   0  0  0  0  0  0
   16.4690    9.5878   39.2058 H   0  0  0  0  0  0
   17.0199   10.3320   41.5225 H   0  0  0  0  0  0
   17.8421    8.7658   41.8348 H   0  0  0  0  0  0
   19.5379    9.2926   40.1804 H   0  0  0  0  0  0
   18.6939   10.8239   39.7692 H   0  0  0  0  0  0
   19.6789   11.6076   43.5309 H   0  0  0  0  0  0
   17.7468    8.8780   37.6379 H   0  0  0  0  0  0
   18.9367    6.1120   38.1038 H   0  0  0  0  0  0
   18.7174    5.6115   35.6316 H   0  0  0  0  0  0
   17.2074    8.2448   35.4040 H   0  0  0  0  0  0
   18.9073    7.9952   34.8800 H   0  0  0  0  0  0
   16.9126    4.9585   37.1936 H   0  0  0  0  0  0
   16.3141    5.3051   35.5358 H   0  0  0  0  0  0
   16.0739    6.5088   36.8474 H   0  0  0  0  0  0
   17.3555    7.8801   32.9793 H   0  0  0  0  0  0
   16.4540    6.5430   33.7707 H   0  0  0  0  0  0
   18.1539    6.2933   33.2467 H   0  0  0  0  0  0
   20.8406    5.6254   36.4921 H   0  0  0  0  0  0
   22.9445    6.3502   35.6216 H   0  0  0  0  0  0
   22.3106    8.0247   35.4766 H   0  0  0  0  0  0
   24.5680    9.1077   38.0689 H   0  0  0  0  0  0
  1  2  1  0  0  0
  1122  1  0  0  0
  1123  1  0  0  0
  1124  1  0  0  0
  2  3  1  0  0  0
  2  5  1  0  0  0
  2125  1  0  0  0
  3  4  2  0  0  0
  3 13  1  0  0  0
  5  6  1  0  0  0
  5126  1  0  0  0
  5127  1  0  0  0
  6  7  2  0  0  0
  6  8  1  0  0  0
  7  9  1  0  0  0
  7128  1  0  0  0
  8 10  2  0  0  0
  8129  1  0  0  0
  9 11  2  0  0  0
  9130  1  0  0  0
 10 11  1  0  0  0
 10131  1  0  0  0
 11 12  1  0  0  0
 12132  1  0  0  0
 13 14  1  0  0  0
 13133  1  0  0  0
 14 15  1  0  0  0
 14 17  1  0  0  0
 14134  1  0  0  0
 15 16  2  0  0  0
 15 21  1  0  0  0
 17 18  1  0  0  0
 17135  1  0  0  0
 17136  1  0  0  0
 18 19  2  0  0  0
 18 20  1  0  0  0
 20137  1  0  0  0
 20138  1  0  0  0
 21 22  1  0  0  0
 21 27  1  0  0  0
 22 23  1  0  0  0
 22 25  1  0  0  0
 22139  1  0  0  0
 23 24  2  0  0  0
 23 28  1  0  0  0
 25 26  1  0  0  0
 25140  1  0  0  0
 25141  1  0  0  0
 26 27  1  0  0  0
 26142  1  0  0  0
 26143  1  0  0  0
 27144  1  0  0  0
 27145  1  0  0  0
 28 29  1  0  0  0
 28146  1  0  0  0
 29 30  1  0  0  0
 29 32  1  0  0  0
 29147  1  0  0  0
 30 31  2  0  0  0
 30 40  1  0  0  0
 32 33  1  0  0  0
 32148  1  0  0  0
 32149  1  0  0  0
 33 34  2  0  0  0
 33 35  1  0  0  0
 34 36  1  0  0  0
 34150  1  0  0  0
 35 37  2  0  0  0
 35151  1  0  0  0
 36 38  2  0  0  0
 36152  1  0  0  0
 37 38  1  0  0  0
 37153  1  0  0  0
 38 39  1  0  0  0
 39154  1  0  0  0
 40 41  1  0  0  0
 40 46  1  0  0  0
 41 42  1  0  0  0
 41 44  1  0  0  0
 41155  1  0  0  0
 42 43  2  0  0  0
 42 47  1  0  0  0
 44 45  1  0  0  0
 44156  1  0  0  0
 44157  1  0  0  0
 45 46  1  0  0  0
 45158  1  0  0  0
 45159  1  0  0  0
 46160  1  0  0  0
 46161  1  0  0  0
 47 48  1  0  0  0
 47162  1  0  0  0
 48 49  1  0  0  0
 48 51  1  0  0  0
 48163  1  0  0  0
 49 50  2  0  0  0
 49 56  1  0  0  0
 51 52  1  0  0  0
 51164  1  0  0  0
 51165  1  0  0  0
 52 53  1  0  0  0
 52166  1  0  0  0
 52167  1  0  0  0
 53 54  2  0  0  0
 53 55  1  0  0  0
 55168  1  0  0  0
 56 57  1  0  0  0
 56169  1  0  0  0
 57 58  1  0  0  0
 57 60  1  0  0  0
 57170  1  0  0  0
 58 59  2  0  0  0
 58 64  1  0  0  0
 60 61  1  0  0  0
 60171  1  0  0  0
 60172  1  0  0  0
 61 62  2  0  0  0
 61 63  1  0  0  0
 63173  1  0  0  0
 64 65  1  0  0  0
 64174  1  0  0  0
 65 66  1  0  0  0
 65 68  1  0  0  0
 65175  1  0  0  0
 66 67  2  0  0  0
 66 80  1  0  0  0
 68 69  1  0  0  0
 68176  1  0  0  0
 68177  1  0  0  0
 69 70  2  0  0  0
 69 71  1  0  0  0
 70 72  1  0  0  0
 70178  1  0  0  0
 71 73  2  0  0  0
 71179  1  0  0  0
 72 74  2  0  0  0
 72180  1  0  0  0
 73 74  1  0  0  0
 73181  1  0  0  0
 74 75  1  0  0  0
 75 76  1  0  0  0
 76 77  2  0  0  0
 76 78  1  0  0  0
 76 79  1  0  0  0
 78182  1  0  0  0
 79183  1  0  0  0
 80 81  1  0  0  0
 80184  1  0  0  0
 81 82  1  0  0  0
 81185  1  0  0  0
 81186  1  0  0  0
 82 83  2  0  0  0
 82 84  1  0  0  0
 84 85  1  0  0  0
 84187  1  0  0  0
 85 86  1  0  0  0
 85 88  1  0  0  0
 85188  1  0  0  0
 86 87  2  0  0  0
 86 92  1  0  0  0
 88 89  1  0  0  0
 88189  1  0  0  0
 88190  1  0  0  0
 89 90  1  0  0  0
 89 91  2  0  0  0
 90191  1  0  0  0
 92 93  1  0  0  0
 92192  1  0  0  0
 93 94  1  0  0  0
 93 96  1  0  0  0
 93193  1  0  0  0
 94 95  2  0  0  0
 94100  1  0  0  0
 96 97  1  0  0  0
 96 98  1  0  0  0
 96194  1  0  0  0
 97 99  1  0  0  0
 97195  1  0  0  0
 97196  1  0  0  0
 98197  1  0  0  0
 98198  1  0  0  0
 98199  1  0  0  0
 99200  1  0  0  0
 99201  1  0  0  0
 99202  1  0  0  0
100101  1  0  0  0
100203  1  0  0  0
101102  1  0  0  0
101104  1  0  0  0
101204  1  0  0  0
102103  2  0  0  0
102109  1  0  0  0
104105  1  0  0  0
104205  1  0  0  0
104206  1  0  0  0
105106  1  0  0  0
105207  1  0  0  0
105208  1  0  0  0
106107  1  0  0  0
106108  2  0  0  0
107209  1  0  0  0
109110  1  0  0  0
109210  1  0  0  0
110111  1  0  0  0
110113  1  0  0  0
110211  1  0  0  0
111112  2  0  0  0
111117  1  0  0  0
113114  1  0  0  0
113115  1  0  0  0
113212  1  0  0  0
114116  1  0  0  0
114213  1  0  0  0
114214  1  0  0  0
115215  1  0  0  0
115216  1  0  0  0
115217  1  0  0  0
116218  1  0  0  0
116219  1  0  0  0
116220  1  0  0  0
117118  1  0  0  0
117221  1  0  0  0
118119  1  0  0  0
118222  1  0  0  0
118223  1  0  0  0
119120  2  0  0  0
119121  1  0  0  0
121224  1  0  0  0
M  CHG  1   1   1
M  END
> <s_m_source_file>
../3bu6_ligand.sdf

> <i_m_source_file_index>
1

> <s_epik_input>
W2NIXTFbY0hdYyhbT0hdKVtjSF1bY0hdYzFbQ0gyXVtDQEhdKFtOSDMrXSlDKD1PKVtOSF1bQ0BASF0oW0NIMl1DKD1PKVtOSDJdKUMoPU8pTjJbQ0BASF0oW0NIMl1bQ0gyXVtDSDJdMilDKD1PKVtOSF1bQ0BASF0oW0NIMl1jM1tjSF1bY0hdYyhbT0hdKVtjSF1bY0hdMylDKD1PKU40W0NAQEhdKFtDSDJdW0NIMl1bQ0gyXTQpQyg9TylbTkhdW0NAQEhdKFtDSDJdW0NIMl1DKD1PKVtPSF0pQyg9TylbTkhdW0NAQEhdKFtDSDJdQyg9TylbT0hdKUMoPU8pW05IXVtDQEBIXShbQ0gyXWM1W2NIXVtjSF1jKFtjSF1bY0hdNSlPUCg9TykoW09IXSlbT0hdKUMoPU8pW05IXVtDSDJdQyg9TylbTkhdW0NAQEhdKFtDSDJdQyg9TylbT0hdKUMoPU8pW05IXVtDQEBIXShbQ0BASF0oW0NIM10pW0NIMl1bQ0gzXSlDKD1PKVtOSF1bQ0BASF0oW0NIMl1bQ0gyXUMoPU8pW09IXSlDKD1PKVtOSF1bQ0BASF0oW0NAQEhdKFtDSDNdKVtDSDJdW0NIM10pQyg9TylbTkhdW0NIMl1DKD1PKVtPSF0=

> <s_epik_cmdline>
J2VwaWtfYXBwJywgJy1pbWFlJywgJ2xpZ2FuZF9wcm8ubWFlJywgJy1vbWFlJywgJ2xpZ2FuZF9wcmVwLm1hZScsICctbXMnLCAnMScsICctcGgnLCAnNycsICctcGh0JywgJzAuNScsICctbnQn

> <s_epik_pKa_notes>
Molecule size exceeds maximum supported for generating protonation states

$$$$
