3bu8_ligand
                    3D
 Schrodinger Suite 2020-3.
248249  0  0  1  0            999 V2000
  -11.3250   23.4420  -16.7590 N   0  3  0  0  0  0
  -12.5460   23.0510  -17.5170 C   0  0  2  0  0  0
  -13.8010   22.9080  -16.6630 C   0  0  0  0  0  0
  -14.1180   21.8170  -16.1890 O   0  0  0  0  0  0
  -12.3200   21.7270  -18.2580 C   0  0  0  0  0  0
  -11.2750   21.8340  -19.2080 O   0  0  0  0  0  0
  -14.5100   24.0030  -16.4340 N   0  0  0  0  0  0
  -15.7550   23.8800  -15.7060 C   0  0  2  0  0  0
  -16.6980   23.6150  -16.8910 C   0  0  0  0  0  0
  -17.7080   24.2930  -17.0660 O   0  0  0  0  0  0
  -16.0970   25.1930  -14.9730 C   0  0  0  0  0  0
  -15.2700   25.4390  -13.7150 C   0  0  0  0  0  0
  -14.9820   26.7420  -13.2960 C   0  0  0  0  0  0
  -14.7890   24.3730  -12.9510 C   0  0  0  0  0  0
  -14.2280   26.9800  -12.1390 C   0  0  0  0  0  0
  -14.0320   24.6000  -11.7900 C   0  0  0  0  0  0
  -13.7520   25.9050  -11.3860 C   0  0  0  0  0  0
  -16.3340   22.6230  -17.7110 N   0  0  0  0  0  0
  -17.1070   22.2820  -18.9010 C   0  0  2  0  0  0
  -18.5230   21.7670  -18.6660 C   0  0  0  0  0  0
  -18.7510   20.8190  -17.9080 O   0  0  0  0  0  0
  -16.3440   21.2890  -19.8070 C   0  0  0  0  0  0
  -16.1600   19.9020  -19.1780 C   0  0  0  0  0  0
  -15.4420   19.7410  -18.1930 O   0  0  0  0  0  0
  -16.8060   18.8950  -19.7650 N   0  0  0  0  0  0
  -19.4650   22.4160  -19.3440 N   0  0  0  0  0  0
  -20.8760   22.0770  -19.2710 C   0  0  2  0  0  0
  -21.2350   20.9990  -20.2880 C   0  0  0  0  0  0
  -22.0670   20.1340  -20.0200 O   0  0  0  0  0  0
  -21.7280   23.3100  -19.5620 C   0  0  0  0  0  0
  -21.3930   24.5750  -18.7810 C   0  0  0  0  0  0
  -22.3580   25.6860  -19.1790 C   0  0  0  0  0  0
  -21.4720   24.2910  -17.2920 C   0  0  0  0  0  0
  -20.6050   21.0630  -21.4570 N   0  0  0  0  0  0
  -20.8790   20.1100  -22.5210 C   0  0  2  0  0  0
  -19.8330   19.0100  -22.5710 C   0  0  0  0  0  0
  -18.7520   19.1360  -22.0000 O   0  0  0  0  0  0
  -20.9450   20.8360  -23.8830 C   0  0  0  0  0  0
  -20.1510   17.9070  -23.2560 N   0  0  0  0  0  0
  -19.2220   16.7800  -23.3770 C   0  0  2  0  0  0
  -17.9290   17.2070  -24.0740 C   0  0  0  0  0  0
  -17.9270   18.1580  -24.8570 O   0  0  0  0  0  0
  -20.0080   15.7730  -24.2170 C   0  0  0  0  0  0
  -21.4350   16.0940  -23.8910 C   0  0  0  0  0  0
  -21.4460   17.5930  -23.8840 C   0  0  0  0  0  0
  -16.8370   16.5070  -23.7890 N   0  0  0  0  0  0
  -15.5620   16.8050  -24.4270 C   0  0  2  0  0  0
  -15.4630   15.9690  -25.7030 C   0  0  0  0  0  0
  -14.7720   16.3430  -26.6510 O   0  0  0  0  0  0
  -14.4010   16.4450  -23.5040 C   0  0  0  0  0  0
  -14.2920   17.1880  -22.1710 C   0  0  0  0  0  0
  -13.1790   16.5550  -21.3370 C   0  0  0  0  0  0
  -14.0190   18.6700  -22.4170 C   0  0  0  0  0  0
  -16.1580   14.8360  -25.7120 N   0  0  0  0  0  0
  -16.1360   13.9510  -26.8620 C   0  0  0  0  0  0
  -16.9260   12.6790  -26.6140 C   0  0  0  0  0  0
  -17.8190   12.6530  -25.7630 O   0  0  0  0  0  0
  -16.5980   11.6150  -27.3420 N   0  0  0  0  0  0
  -17.3150   10.3550  -27.1850 C   0  0  2  0  0  0
  -16.5700    9.3090  -26.3720 C   0  0  0  0  0  0
  -15.3430    9.3280  -26.2630 O   0  0  0  0  0  0
  -17.6520    9.7480  -28.5500 C   0  0  0  0  0  0
  -16.4780    9.0430  -29.2190 C   0  0  0  0  0  0
  -16.8630    8.4580  -30.5740 C   0  0  0  0  0  0
  -15.7380    8.5120  -31.5030 N   0  0  0  0  0  0
  -15.8200    8.2420  -32.8030 C   0  0  0  0  0  0
  -16.9820    7.8910  -33.3390 N   0  0  0  0  0  0
  -14.7400    8.3460  -33.5710 N   0  0  0  0  0  0
  -17.3480    8.3930  -25.8110 N   0  0  0  0  0  0
  -16.8440    7.2810  -25.0190 C   0  0  2  0  0  0
  -17.0540    6.0270  -25.8580 C   0  0  0  0  0  0
  -17.9250    6.0020  -26.7290 O   0  0  0  0  0  0
  -17.6620    7.1380  -23.7380 C   0  0  0  0  0  0
  -16.9040    7.3960  -22.4730 C   0  0  0  0  0  0
  -17.7470    7.0650  -21.2590 C   0  0  0  0  0  0
  -18.4870    5.8220  -21.4560 N   0  0  0  0  0  0
  -18.1020    4.6240  -21.0270 C   0  0  0  0  0  0
  -16.9680    4.4820  -20.3560 N   0  0  0  0  0  0
  -18.8560    3.5600  -21.2790 N   0  0  0  0  0  0
  -16.2650    4.9890  -25.6110 N   0  0  0  0  0  0
  -16.4690    3.7570  -26.3510 C   0  0  2  0  0  0
  -17.3820    2.9070  -25.4810 C   0  0  0  0  0  0
  -16.9720    2.4340  -24.4170 O   0  0  0  0  0  0
  -15.1570    3.0040  -26.5900 C   0  0  0  0  0  0
  -15.1870    2.1180  -27.8410 C   0  0  0  0  0  0
  -16.4970    1.3300  -27.9810 C   0  0  0  0  0  0
  -16.7850    0.9780  -29.3740 N   0  0  0  0  0  0
  -17.5590    1.6920  -30.1920 C   0  0  0  0  0  0
  -18.1430    2.8070  -29.7640 N   0  0  0  0  0  0
  -17.7380    1.3000  -31.4490 N   0  0  0  0  0  0
  -18.6280    2.7410  -25.9150 N   0  0  0  0  0  0
  -19.5840    1.9250  -25.1740 C   0  0  2  0  0  0
  -18.9740    0.5250  -25.1380 C   0  0  0  0  0  0
  -18.1210    0.2100  -25.9660 O   0  0  0  0  0  0
  -20.9450    1.8630  -25.9010 C   0  0  0  0  0  0
  -21.5120    3.2580  -26.0620 C   0  0  0  0  0  0
  -20.7750    1.2080  -27.2670 C   0  0  0  0  0  0
  -19.3840   -0.3110  -24.1890 N   0  0  0  0  0  0
  -18.8320   -1.6580  -24.1200 C   0  0  2  0  0  0
  -19.9240   -2.7210  -24.1860 C   0  0  0  0  0  0
  -19.6690   -3.9170  -24.0270 O   0  0  0  0  0  0
  -17.9420   -1.8130  -22.8700 C   0  0  0  0  0  0
  -18.5270   -1.3300  -21.5510 C   0  0  0  0  0  0
  -19.4590   -2.3530  -20.9250 C   0  0  0  0  0  0
  -19.2680   -2.7800  -19.7800 O   0  0  0  0  0  0
  -20.4770   -2.7550  -21.6780 N   0  0  0  0  0  0
  -21.1380   -2.2550  -24.4660 N   0  0  0  0  0  0
  -22.3400   -3.0860  -24.6010 C   0  0  2  0  0  0
  -22.2040   -4.5360  -25.0730 C   0  0  0  0  0  0
  -22.1760   -5.4910  -24.2890 O   0  0  0  0  0  0
  -23.3190   -2.4150  -25.5710 C   0  0  0  0  0  0
  -23.6750   -1.1210  -25.1350 O   0  0  0  0  0  0
  -22.1870   -4.6540  -26.3950 N   0  0  0  0  0  0
  -22.1250   -5.9090  -27.1280 C   0  0  2  0  0  0
  -22.2290   -5.4480  -28.5850 C   0  0  0  0  0  0
  -23.3170   -5.5760  -29.1910 O   0  0  0  0  0  0
  -23.3230   -6.8040  -26.7460 C   0  0  0  0  0  0
  -23.8260   -7.7520  -27.8450 C   0  0  0  0  0  0
  -23.0390   -9.0400  -27.9520 C   0  0  0  0  0  0
  -21.8290   -9.0700  -27.7180 O   0  0  0  0  0  0
  -23.7250  -10.1160  -28.3290 N   0  0  0  0  0  0
  -21.1753   -4.9177  -29.1994 O   0  0  0  0  0  0
  -10.4736   23.5212  -17.4509 H   0  0  0  0  0  0
  -11.1076   22.6803  -15.9958 H   0  0  0  0  0  0
  -11.4921   24.4133  -16.2705 H   0  0  0  0  0  0
  -12.6971   23.8979  -18.2025 H   0  0  0  0  0  0
  -12.0528   20.9428  -17.5344 H   0  0  0  0  0  0
  -13.2415   21.4403  -18.7858 H   0  0  0  0  0  0
  -10.9960   20.9630  -19.8192 H   0  0  0  0  0  0
  -14.1723   24.9899  -16.7833 H   0  0  0  0  0  0
  -15.7285   23.1054  -14.9254 H   0  0  0  0  0  0
  -15.9223   26.0451  -15.6464 H   0  0  0  0  0  0
  -17.1536   25.1779  -14.6674 H   0  0  0  0  0  0
  -15.3501   27.5862  -13.8790 H   0  0  0  0  0  0
  -15.0043   23.3502  -13.2604 H   0  0  0  0  0  0
  -14.0136   28.0023  -11.8276 H   0  0  0  0  0  0
  -13.6637   23.7570  -11.2053 H   0  0  0  0  0  0
  -13.1640   26.0850  -10.4861 H   0  0  0  0  0  0
  -15.4226   22.0577  -17.4665 H   0  0  0  0  0  0
  -17.2099   23.2827  -19.3460 H   0  0  0  0  0  0
  -16.8966   21.1524  -20.7482 H   0  0  0  0  0  0
  -15.3418   21.6869  -20.0246 H   0  0  0  0  0  0
  -17.4381   19.0855  -20.6448 H   0  0  0  0  0  0
  -16.7071   17.8733  -19.3697 H   0  0  0  0  0  0
  -19.1312   23.2461  -19.9839 H   0  0  0  0  0  0
  -21.0246   21.7099  -18.2448 H   0  0  0  0  0  0
  -21.6307   23.5806  -20.6237 H   0  0  0  0  0  0
  -22.7815   23.0897  -19.3349 H   0  0  0  0  0  0
  -20.3679   24.9006  -19.0114 H   0  0  0  0  0  0
  -22.2793   25.8699  -20.2607 H   0  0  0  0  0  0
  -22.1044   26.6056  -18.6313 H   0  0  0  0  0  0
  -23.3866   25.3841  -18.9323 H   0  0  0  0  0  0
  -20.7667   23.4872  -17.0341 H   0  0  0  0  0  0
  -22.4943   23.9793  -17.0319 H   0  0  0  0  0  0
  -21.2122   25.2008  -16.7309 H   0  0  0  0  0  0
  -19.8620   21.8596  -21.6100 H   0  0  0  0  0  0
  -21.8474   19.6629  -22.2523 H   0  0  0  0  0  0
  -21.7044   21.6306  -23.8385 H   0  0  0  0  0  0
  -21.2136   20.1157  -24.6698 H   0  0  0  0  0  0
  -19.9640   21.2786  -24.1105 H   0  0  0  0  0  0
  -18.9274   16.3981  -22.3884 H   0  0  0  0  0  0
  -19.7755   15.9230  -25.2816 H   0  0  0  0  0  0
  -19.7283   14.7511  -23.9211 H   0  0  0  0  0  0
  -22.0922   15.6687  -24.6637 H   0  0  0  0  0  0
  -21.6934   15.6634  -22.9123 H   0  0  0  0  0  0
  -22.2601   18.0148  -23.2763 H   0  0  0  0  0  0
  -21.4790   18.0281  -24.8937 H   0  0  0  0  0  0
  -16.9077   15.6895  -23.0564 H   0  0  0  0  0  0
  -15.5512   17.8855  -24.6331 H   0  0  0  0  0  0
  -14.4627   15.3801  -23.2355 H   0  0  0  0  0  0
  -13.4489   16.6385  -24.0198 H   0  0  0  0  0  0
  -15.2397   17.1093  -21.6181 H   0  0  0  0  0  0
  -13.4020   15.4899  -21.1761 H   0  0  0  0  0  0
  -13.1126   17.0666  -20.3655 H   0  0  0  0  0  0
  -12.2213   16.6528  -21.8691 H   0  0  0  0  0  0
  -14.8345   19.0982  -23.0183 H   0  0  0  0  0  0
  -13.0672   18.7828  -22.9568 H   0  0  0  0  0  0
  -13.9586   19.1966  -21.4531 H   0  0  0  0  0  0
  -16.7571   14.5737  -24.8275 H   0  0  0  0  0  0
  -16.5758   14.4655  -27.7291 H   0  0  0  0  0  0
  -15.0968   13.6716  -27.0898 H   0  0  0  0  0  0
  -15.7759   11.6932  -28.0687 H   0  0  0  0  0  0
  -18.2074   10.6668  -26.6226 H   0  0  0  0  0  0
  -18.4542    9.0046  -28.4327 H   0  0  0  0  0  0
  -17.9860   10.5433  -29.2326 H   0  0  0  0  0  0
  -15.6592    9.7610  -29.3739 H   0  0  0  0  0  0
  -16.1287    8.2217  -28.5760 H   0  0  0  0  0  0
  -17.1670    7.4085  -30.4472 H   0  0  0  0  0  0
  -17.6994    9.0334  -30.9975 H   0  0  0  0  0  0
  -14.7379    8.7913  -31.1400 H   0  0  0  0  0  0
  -17.8765    7.8045  -32.7047 H   0  0  0  0  0  0
  -13.7761    8.6369  -33.1280 H   0  0  0  0  0  0
  -14.8102    8.1412  -34.6495 H   0  0  0  0  0  0
  -18.4301    8.5079  -25.9717 H   0  0  0  0  0  0
  -15.7888    7.4773  -24.7779 H   0  0  0  0  0  0
  -18.4988    7.8518  -23.7557 H   0  0  0  0  0  0
  -18.0556    6.1133  -23.6667 H   0  0  0  0  0  0
  -15.9982    6.7721  -22.4546 H   0  0  0  0  0  0
  -16.6191    8.4574  -22.4262 H   0  0  0  0  0  0
  -17.0954    6.9509  -20.3802 H   0  0  0  0  0  0
  -18.4661    7.8778  -21.0792 H   0  0  0  0  0  0
  -19.4445    5.8318  -21.9973 H   0  0  0  0  0  0
  -16.3402    5.3602  -20.1449 H   0  0  0  0  0  0
  -19.7981    3.6728  -21.8356 H   0  0  0  0  0  0
  -18.5384    2.5660  -20.9311 H   0  0  0  0  0  0
  -15.4655    5.0524  -24.8581 H   0  0  0  0  0  0
  -16.8989    4.0215  -27.3284 H   0  0  0  0  0  0
  -14.3370    3.7266  -26.7148 H   0  0  0  0  0  0
  -14.9450    2.3541  -25.7282 H   0  0  0  0  0  0
  -15.0751    2.7455  -28.7375 H   0  0  0  0  0  0
  -14.3617    1.3922  -27.7962 H   0  0  0  0  0  0
  -16.4282    0.3983  -27.4004 H   0  0  0  0  0  0
  -17.3324    1.9372  -27.6023 H   0  0  0  0  0  0
  -16.3503    0.0676  -29.8124 H   0  0  0  0  0  0
  -18.0001    3.1388  -28.7250 H   0  0  0  0  0  0
  -18.7691    3.3978  -30.4489 H   0  0  0  0  0  0
  -17.2585    0.3787  -31.8114 H   0  0  0  0  0  0
  -18.9331    3.2322  -26.8507 H   0  0  0  0  0  0
  -19.7263    2.3735  -24.1797 H   0  0  0  0  0  0
  -21.6579    1.2699  -25.3094 H   0  0  0  0  0  0
  -21.6309    3.7220  -25.0718 H   0  0  0  0  0  0
  -22.4911    3.2006  -26.5600 H   0  0  0  0  0  0
  -20.8258    3.8646  -26.6712 H   0  0  0  0  0  0
  -20.3630    0.1961  -27.1397 H   0  0  0  0  0  0
  -20.0870    1.8097  -27.8791 H   0  0  0  0  0  0
  -21.7523    1.1456  -27.7679 H   0  0  0  0  0  0
  -20.1384    0.0124  -23.4567 H   0  0  0  0  0  0
  -18.2186   -1.7629  -25.0271 H   0  0  0  0  0  0
  -17.7032   -2.8762  -22.7195 H   0  0  0  0  0  0
  -17.0109   -1.2443  -23.0100 H   0  0  0  0  0  0
  -17.7121   -1.1312  -20.8394 H   0  0  0  0  0  0
  -19.0995   -0.4061  -21.7202 H   0  0  0  0  0  0
  -20.6065   -2.3469  -22.6912 H   0  0  0  0  0  0
  -21.1904   -3.4960  -21.2882 H   0  0  0  0  0  0
  -21.2051   -1.1651  -24.5986 H   0  0  0  0  0  0
  -22.6311   -3.1282  -23.5411 H   0  0  0  0  0  0
  -22.8523   -2.3314  -26.5636 H   0  0  0  0  0  0
  -24.2341   -3.0208  -25.6459 H   0  0  0  0  0  0
  -24.3730   -0.5130  -25.7293 H   0  0  0  0  0  0
  -22.2243   -3.6996  -26.9407 H   0  0  0  0  0  0
  -21.2036   -6.4636  -26.8970 H   0  0  0  0  0  0
  -23.0473   -7.4412  -25.8928 H   0  0  0  0  0  0
  -24.1796   -6.1717  -26.4696 H   0  0  0  0  0  0
  -24.8720   -8.0258  -27.6426 H   0  0  0  0  0  0
  -23.7610   -7.2490  -28.8211 H   0  0  0  0  0  0
  -24.8044  -10.0388  -28.5265 H   0  0  0  0  0  0
  -23.2127  -11.0827  -28.4432 H   0  0  0  0  0  0
  -21.2568   -4.5887  -30.2459 H   0  0  0  0  0  0
  1  2  1  0  0  0
  1123  1  0  0  0
  1124  1  0  0  0
  1125  1  0  0  0
  2  5  1  0  0  0
  2  3  1  0  0  0
  2126  1  0  0  0
  3  4  2  0  0  0
  3  7  1  0  0  0
  5  6  1  0  0  0
  5127  1  0  0  0
  5128  1  0  0  0
  6129  1  0  0  0
  7  8  1  0  0  0
  7130  1  0  0  0
  8 11  1  0  0  0
  8  9  1  0  0  0
  8131  1  0  0  0
  9 10  2  0  0  0
  9 18  1  0  0  0
 11 12  1  0  0  0
 11132  1  0  0  0
 11133  1  0  0  0
 12 13  2  0  0  0
 12 14  1  0  0  0
 13 15  1  0  0  0
 13134  1  0  0  0
 14 16  2  0  0  0
 14135  1  0  0  0
 15 17  2  0  0  0
 15136  1  0  0  0
 16 17  1  0  0  0
 16137  1  0  0  0
 17138  1  0  0  0
 18 19  1  0  0  0
 18139  1  0  0  0
 19 22  1  0  0  0
 19 20  1  0  0  0
 19140  1  0  0  0
 20 21  2  0  0  0
 20 26  1  0  0  0
 22 23  1  0  0  0
 22141  1  0  0  0
 22142  1  0  0  0
 23 25  1  0  0  0
 23 24  2  0  0  0
 25143  1  0  0  0
 25144  1  0  0  0
 26 27  1  0  0  0
 26145  1  0  0  0
 27 30  1  0  0  0
 27 28  1  0  0  0
 27146  1  0  0  0
 28 29  2  0  0  0
 28 34  1  0  0  0
 30 31  1  0  0  0
 30147  1  0  0  0
 30148  1  0  0  0
 31 32  1  0  0  0
 31 33  1  0  0  0
 31149  1  0  0  0
 32150  1  0  0  0
 32151  1  0  0  0
 32152  1  0  0  0
 33153  1  0  0  0
 33154  1  0  0  0
 33155  1  0  0  0
 34 35  1  0  0  0
 34156  1  0  0  0
 35 38  1  0  0  0
 35 36  1  0  0  0
 35157  1  0  0  0
 36 37  2  0  0  0
 36 39  1  0  0  0
 38158  1  0  0  0
 38159  1  0  0  0
 38160  1  0  0  0
 39 40  1  0  0  0
 39 45  1  0  0  0
 40 41  1  0  0  0
 40 43  1  0  0  0
 40161  1  0  0  0
 41 42  2  0  0  0
 41 46  1  0  0  0
 43 44  1  0  0  0
 43162  1  0  0  0
 43163  1  0  0  0
 44 45  1  0  0  0
 44164  1  0  0  0
 44165  1  0  0  0
 45166  1  0  0  0
 45167  1  0  0  0
 46 47  1  0  0  0
 46168  1  0  0  0
 47 50  1  0  0  0
 47 48  1  0  0  0
 47169  1  0  0  0
 48 49  2  0  0  0
 48 54  1  0  0  0
 50 51  1  0  0  0
 50170  1  0  0  0
 50171  1  0  0  0
 51 52  1  0  0  0
 51 53  1  0  0  0
 51172  1  0  0  0
 52173  1  0  0  0
 52174  1  0  0  0
 52175  1  0  0  0
 53176  1  0  0  0
 53177  1  0  0  0
 53178  1  0  0  0
 54 55  1  0  0  0
 54179  1  0  0  0
 55 56  1  0  0  0
 55180  1  0  0  0
 55181  1  0  0  0
 56 57  2  0  0  0
 56 58  1  0  0  0
 58 59  1  0  0  0
 58182  1  0  0  0
 59 62  1  0  0  0
 59 60  1  0  0  0
 59183  1  0  0  0
 60 61  2  0  0  0
 60 69  1  0  0  0
 62 63  1  0  0  0
 62184  1  0  0  0
 62185  1  0  0  0
 63 64  1  0  0  0
 63186  1  0  0  0
 63187  1  0  0  0
 64 65  1  0  0  0
 64188  1  0  0  0
 64189  1  0  0  0
 65 66  1  0  0  0
 65190  1  0  0  0
 66 68  1  0  0  0
 66 67  2  0  0  0
 67191  1  0  0  0
 68192  1  0  0  0
 68193  1  0  0  0
 69 70  1  0  0  0
 69194  1  0  0  0
 70 73  1  0  0  0
 70 71  1  0  0  0
 70195  1  0  0  0
 71 72  2  0  0  0
 71 80  1  0  0  0
 73 74  1  0  0  0
 73196  1  0  0  0
 73197  1  0  0  0
 74 75  1  0  0  0
 74198  1  0  0  0
 74199  1  0  0  0
 75 76  1  0  0  0
 75200  1  0  0  0
 75201  1  0  0  0
 76 77  1  0  0  0
 76202  1  0  0  0
 77 79  1  0  0  0
 77 78  2  0  0  0
 78203  1  0  0  0
 79204  1  0  0  0
 79205  1  0  0  0
 80 81  1  0  0  0
 80206  1  0  0  0
 81 84  1  0  0  0
 81 82  1  0  0  0
 81207  1  0  0  0
 82 83  2  0  0  0
 82 91  1  0  0  0
 84 85  1  0  0  0
 84208  1  0  0  0
 84209  1  0  0  0
 85 86  1  0  0  0
 85210  1  0  0  0
 85211  1  0  0  0
 86 87  1  0  0  0
 86212  1  0  0  0
 86213  1  0  0  0
 87 88  1  0  0  0
 87214  1  0  0  0
 88 90  2  0  0  0
 88 89  1  0  0  0
 89215  1  0  0  0
 89216  1  0  0  0
 90217  1  0  0  0
 91 92  1  0  0  0
 91218  1  0  0  0
 92 95  1  0  0  0
 92 93  1  0  0  0
 92219  1  0  0  0
 93 94  2  0  0  0
 93 98  1  0  0  0
 95 97  1  0  0  0
 95 96  1  0  0  0
 95220  1  0  0  0
 96221  1  0  0  0
 96222  1  0  0  0
 96223  1  0  0  0
 97224  1  0  0  0
 97225  1  0  0  0
 97226  1  0  0  0
 98 99  1  0  0  0
 98227  1  0  0  0
 99102  1  0  0  0
 99100  1  0  0  0
 99228  1  0  0  0
100101  2  0  0  0
100107  1  0  0  0
102103  1  0  0  0
102229  1  0  0  0
102230  1  0  0  0
103104  1  0  0  0
103231  1  0  0  0
103232  1  0  0  0
104106  1  0  0  0
104105  2  0  0  0
106233  1  0  0  0
106234  1  0  0  0
107108  1  0  0  0
107235  1  0  0  0
108111  1  0  0  0
108109  1  0  0  0
108236  1  0  0  0
109110  2  0  0  0
109113  1  0  0  0
111112  1  0  0  0
111237  1  0  0  0
111238  1  0  0  0
112239  1  0  0  0
113114  1  0  0  0
113240  1  0  0  0
114117  1  0  0  0
114115  1  0  0  0
114241  1  0  0  0
115116  2  0  0  0
115122  1  0  0  0
117118  1  0  0  0
117242  1  0  0  0
117243  1  0  0  0
118119  1  0  0  0
118244  1  0  0  0
118245  1  0  0  0
119121  1  0  0  0
119120  2  0  0  0
121246  1  0  0  0
121247  1  0  0  0
122248  1  0  0  0
M  CHG  1   1   1
M  END
> <s_m_source_file>
../3bu8_ligand.sdf

> <i_m_source_file_index>
1

> <s_epik_input>
W2NIXTFbY0hdW2NIXVtjSF1bY0hdYzFbQ0gyXVtDQEhdKFtOSF1DKD1PKVtDQEBIXShbTkgzK10pW0NIMl1bT0hdKUMoPU8pW05IXVtDQEBIXShbQ0gyXUMoPU8pW05IMl0pQyg9TylbTkhdW0NAQEhdKFtDSDJdW0NIXShbQ0gzXSlbQ0gzXSlDKD1PKVtOSF1bQ0BASF0oW0NIM10pQyg9TylOMltDQEBIXShbQ0gyXVtDSDJdW0NIMl0yKUMoPU8pW05IXVtDQEBIXShbQ0gyXVtDSF0oW0NIM10pW0NIM10pQyg9TylbTkhdW0NIMl1DKD1PKVtOSF1bQ0BASF0oW0NIMl1bQ0gyXVtDSDJdW05IXS9DKD1OXFtIXSlbTkgyXSlDKD1PKVtOSF1bQ0BASF0oW0NIMl1bQ0gyXVtDSDJdW05IXS9DKD1OXFtIXSlbTkgyXSlDKD1PKVtOSF1bQ0BASF0oW0NIMl1bQ0gyXVtDSDJdW05IXS9DKFtOSDJdKT1OXFtIXSlDKD1PKVtOSF1bQ0BASF0oW0NIXShbQ0gzXSlbQ0gzXSlDKD1PKVtOSF1bQ0BASF0oW0NIMl1bQ0gyXUMoPU8pW05IMl0pQyg9TylbTkhdW0NAQEhdKFtDSDJdW09IXSlDKD1PKVtOSF1bQ0BIXShDKD1PKVtPSF0pW0NIMl1bQ0gyXUMoPU8pW05IMl0=

> <s_epik_cmdline>
J2VwaWtfYXBwJywgJy1pbWFlJywgJ2xpZ2FuZF9wcm8ubWFlJywgJy1vbWFlJywgJ2xpZ2FuZF9wcmVwLm1hZScsICctbXMnLCAnMScsICctcGgnLCAnNycsICctcGh0JywgJzAuNScsICctbnQn

> <s_epik_pKa_notes>
Molecule size exceeds maximum supported for generating protonation states

> <s_epik_Chemistry_Notes>
This compound has an imine and may undergo hydrolysis.

$$$$
