3bug_ligand
                    3D
 Schrodinger Suite 2020-3.
 28 28  0  0  1  0            999 V2000
  -21.8880   42.5680   89.8670 C   0  0  0  0  0  0
  -18.9760   40.4590   91.1360 C   0  0  0  0  0  0
  -20.9740   39.8150   92.3530 C   0  0  0  0  0  0
  -21.9620   42.2620   88.3660 C   0  0  0  0  0  0
  -17.5030   40.2880   90.8800 C   0  0  0  0  0  0
  -15.4220   39.9580   92.2110 N   0  3  0  0  0  0
  -23.0310   40.8860   91.8710 O   0  0  0  0  0  0
  -21.6890   40.7550   91.6160 C   0  0  0  0  0  0
  -19.6090   39.6690   92.1070 C   0  0  0  0  0  0
  -16.6670   40.7980   92.0590 C   0  0  0  0  0  0
  -19.7080   41.4010   90.4010 C   0  0  0  0  0  0
  -21.0780   41.5560   90.6360 C   0  0  0  0  0  0
  -21.4218   43.5528   90.0179 H   0  0  0  0  0  0
  -22.9032   42.5742   90.2905 H   0  0  0  0  0  0
  -21.4711   39.2052   93.1074 H   0  0  0  0  0  0
  -22.5641   43.0335   87.8638 H   0  0  0  0  0  0
  -22.4282   41.2772   88.2151 H   0  0  0  0  0  0
  -20.9468   42.2558   87.9426 H   0  0  0  0  0  0
  -17.2785   39.2218   90.7286 H   0  0  0  0  0  0
  -17.2190   40.8538   89.9804 H   0  0  0  0  0  0
  -14.8290   40.3314   93.0589 H   0  0  0  0  0  0
  -14.8237   40.0192   91.2900 H   0  0  0  0  0  0
  -15.7061   38.9113   92.3949 H   0  0  0  0  0  0
  -23.5089   40.2589   92.6381 H   0  0  0  0  0  0
  -19.0313   38.9375   92.6720 H   0  0  0  0  0  0
  -16.3780   41.8439   91.8783 H   0  0  0  0  0  0
  -17.2603   40.7360   92.9832 H   0  0  0  0  0  0
  -19.2107   42.0118   89.6475 H   0  0  0  0  0  0
  1  4  1  0  0  0
  1 12  1  0  0  0
  1 13  1  0  0  0
  1 14  1  0  0  0
  2  5  1  0  0  0
  2  9  2  0  0  0
  2 11  1  0  0  0
  3  8  2  0  0  0
  3  9  1  0  0  0
  3 15  1  0  0  0
  4 16  1  0  0  0
  4 17  1  0  0  0
  4 18  1  0  0  0
  5 10  1  0  0  0
  5 19  1  0  0  0
  5 20  1  0  0  0
  6 10  1  0  0  0
  6 21  1  0  0  0
  6 22  1  0  0  0
  6 23  1  0  0  0
  7  8  1  0  0  0
  7 24  1  0  0  0
  8 12  1  0  0  0
  9 25  1  0  0  0
 10 26  1  0  0  0
 10 27  1  0  0  0
 11 12  2  0  0  0
 11 28  1  0  0  0
M  CHG  1   6   1
M  END
> <s_m_source_file>
../3bug_ligand.sdf

> <i_m_source_file_index>
1

> <s_epik_input>
W0NIM11bQ0gyXWMoW2NIXTEpYyhbT0hdKVtjSF1bY0hdYzFbQ0gyXVtDSDJdW05IMytd

> <s_epik_cmdline>
J2VwaWtfYXBwJywgJy1pbWFlJywgJ2xpZ2FuZF9wcm8ubWFlJywgJy1vbWFlJywgJ2xpZ2FuZF9wcmVwLm1hZScsICctbXMnLCAnMScsICctcGgnLCAnNycsICctcGh0JywgJzAuNScsICctbnQn

> <r_lp_tautomer_probability>
1

> <r_epik_Ionization_Penalty>
  0.0021

> <r_epik_Ionization_Penalty_Charging>
  0.0013

> <r_epik_Ionization_Penalty_Neutral>
  0.0009

> <r_epik_State_Penalty>
 -0.0000

> <r_epik_Charging_Adjusted_Penalty>
0.00128551736278069

> <i_epik_Tot_Q>
1

> <i_epik_Tot_abs_Q>
1

$$$$
