3buh_ligand
                    3D
 Schrodinger Suite 2020-3.
 38 39  0  0  1  0            999 V2000
  -22.2320   40.0130   93.2330 C   0  0  0  0  0  0
  -21.8980   43.1020   91.8040 C   0  0  0  0  0  0
  -21.9500   41.4290   89.8230 C   0  0  0  0  0  0
  -19.5630   39.3770   92.7550 C   0  0  0  0  0  0
  -21.6010   39.0620   94.0430 C   0  0  0  0  0  0
  -22.4100   44.1760   90.8400 C   0  0  0  0  0  0
  -18.1160   39.0400   92.4780 C   0  0  0  0  0  0
  -17.2610   38.9800   93.7530 C   0  0  0  0  0  0
  -23.5460   40.3090   93.4930 O   0  0  0  0  0  0
  -20.2640   38.7460   93.7930 C   0  0  0  0  0  0
  -15.8360   38.7100   93.4430 N   0  3  0  0  0  0
  -20.2120   40.3290   91.9570 C   0  0  0  0  0  0
  -21.5540   40.6580   92.1840 C   0  0  0  0  0  0
  -22.2550   41.6830   91.3190 C   0  0  0  0  0  0
  -21.7170   43.9680   89.4910 C   0  0  0  0  0  0
  -22.1550   42.6290   88.8820 C   0  0  0  0  0  0
  -20.8035   43.1745   91.8859 H   0  0  0  0  0  0
  -22.3506   43.2530   92.7951 H   0  0  0  0  0  0
  -20.8984   41.1268   89.7094 H   0  0  0  0  0  0
  -22.6042   40.6290   89.4461 H   0  0  0  0  0  0
  -22.1434   38.5767   94.8544 H   0  0  0  0  0  0
  -23.4998   44.0778   90.7269 H   0  0  0  0  0  0
  -22.1713   45.1722   91.2406 H   0  0  0  0  0  0
  -18.0558   38.0570   91.9879 H   0  0  0  0  0  0
  -17.6809   39.8056   91.8188 H   0  0  0  0  0  0
  -17.3247   39.9419   94.2828 H   0  0  0  0  0  0
  -17.6324   38.1765   94.4061 H   0  0  0  0  0  0
  -24.0719   39.8014   94.3151 H   0  0  0  0  0  0
  -19.7605   38.0020   94.4103 H   0  0  0  0  0  0
  -15.2577   38.6745   94.3781 H   0  0  0  0  0  0
  -15.4429   39.5104   92.7989 H   0  0  0  0  0  0
  -15.7506   37.7449   92.9221 H   0  0  0  0  0  0
  -19.6660   40.8187   91.1507 H   0  0  0  0  0  0
  -23.3431   41.5712   91.4356 H   0  0  0  0  0  0
  -21.9916   44.7852   88.8079 H   0  0  0  0  0  0
  -20.6266   43.9621   89.6360 H   0  0  0  0  0  0
  -21.5694   42.4786   87.9631 H   0  0  0  0  0  0
  -23.2214   42.7170   88.6269 H   0  0  0  0  0  0
  1  5  2  0  0  0
  1  9  1  0  0  0
  1 13  1  0  0  0
  2  6  1  0  0  0
  2 14  1  0  0  0
  2 17  1  0  0  0
  2 18  1  0  0  0
  3 14  1  0  0  0
  3 16  1  0  0  0
  3 19  1  0  0  0
  3 20  1  0  0  0
  4  7  1  0  0  0
  4 10  2  0  0  0
  4 12  1  0  0  0
  5 10  1  0  0  0
  5 21  1  0  0  0
  6 15  1  0  0  0
  6 22  1  0  0  0
  6 23  1  0  0  0
  7  8  1  0  0  0
  7 24  1  0  0  0
  7 25  1  0  0  0
  8 11  1  0  0  0
  8 26  1  0  0  0
  8 27  1  0  0  0
  9 28  1  0  0  0
 10 29  1  0  0  0
 11 30  1  0  0  0
 11 31  1  0  0  0
 11 32  1  0  0  0
 12 13  2  0  0  0
 12 33  1  0  0  0
 13 14  1  0  0  0
 14 34  1  0  0  0
 15 16  1  0  0  0
 15 35  1  0  0  0
 15 36  1  0  0  0
 16 37  1  0  0  0
 16 38  1  0  0  0
M  CHG  1  11   1
M  END
> <s_m_source_file>
../3buh_ligand.sdf

> <i_m_source_file_index>
1

> <s_epik_input>
W09IXWMxW2NIXVtjSF1jKFtDSDJdW0NIMl1bTkgzK10pW2NIXWMxW0NIXTJbQ0gyXVtDSDJdW0NIMl1bQ0gyXVtDSDJdMg==

> <s_epik_cmdline>
J2VwaWtfYXBwJywgJy1pbWFlJywgJ2xpZ2FuZF9wcm8ubWFlJywgJy1vbWFlJywgJ2xpZ2FuZF9wcmVwLm1hZScsICctbXMnLCAnMScsICctcGgnLCAnNycsICctcGh0JywgJzAuNScsICctbnQn

> <r_lp_tautomer_probability>
1

> <r_epik_Ionization_Penalty>
  0.0020

> <r_epik_Ionization_Penalty_Charging>
  0.0013

> <r_epik_Ionization_Penalty_Neutral>
  0.0007

> <r_epik_State_Penalty>
 -0.0000

> <r_epik_Charging_Adjusted_Penalty>
0.00128551736278069

> <i_epik_Tot_Q>
1

> <i_epik_Tot_abs_Q>
1

$$$$
