3bum_ligand
                    3D
 Schrodinger Suite 2020-3.
134135  0  0  1  0            999 V2000
   64.5380   39.0290   -1.8620 N   0  3  0  0  0  0
   65.0240   38.9280   -3.2370 C   0  0  2  0  0  0
   64.6130   40.1060   -4.1050 C   0  0  0  0  0  0
   63.4600   40.5400   -4.0590 O   0  0  0  0  0  0
   64.5110   37.6510   -3.9260 C   0  0  2  0  0  0
   64.8770   36.5080   -3.1380 O   0  0  0  0  0  0
   65.1250   37.5150   -5.3290 C   0  0  0  0  0  0
   65.5470   40.6330   -4.8870 N   0  0  0  0  0  0
   65.2080   41.7460   -5.7540 C   0  0  2  0  0  0
   64.5470   41.2550   -7.0420 C   0  0  0  0  0  0
   64.7710   40.1190   -7.4690 O   0  0  0  0  0  0
   66.4500   42.5900   -6.0610 C   0  0  0  0  0  0
   67.0530   43.2390   -4.8030 C   0  0  0  0  0  0
   66.3510   43.9160   -4.0460 O   0  0  0  0  0  0
   68.3590   43.0410   -4.5910 N   0  0  0  0  0  0
   63.7120   42.0810   -7.6560 N   0  0  0  0  0  0
   63.0490   41.6190   -8.8460 C   0  0  2  0  0  0
   63.8210   41.7080  -10.1560 C   0  0  0  0  0  0
   64.0690   42.8000  -10.6690 O   0  0  0  0  0  0
   61.7090   42.3280   -9.0560 C   0  0  0  0  0  0
   61.3350   42.3310  -10.5510 C   0  0  0  0  0  0
   59.9210   41.8920  -10.8610 C   0  0  0  0  0  0
   59.6090   40.6750  -10.8250 O   0  5  0  0  0  0
   59.1020   42.7770  -11.1700 O   0  0  0  0  0  0
   64.1870   40.5460  -10.6840 N   0  0  0  0  0  0
   64.8360   40.4570  -11.9690 C   0  0  2  0  0  0
   63.8390   39.9580  -12.9930 C   0  0  0  0  0  0
   63.2020   38.9280  -12.7780 O   0  0  0  0  0  0
   66.0330   39.5210  -11.9070 C   0  0  0  0  0  0
   67.1470   40.1450  -11.1150 C   0  0  0  0  0  0
   67.8830   41.2210  -11.6580 C   0  0  0  0  0  0
   67.4550   39.6510   -9.8130 C   0  0  0  0  0  0
   68.9130   41.7980  -10.9040 C   0  0  0  0  0  0
   68.4880   40.2150   -9.0320 C   0  0  0  0  0  0
   69.2040   41.2980   -9.6120 C   0  0  0  0  0  0
   70.2510   41.9030   -8.8370 O   0  0  0  0  0  0
   70.8120   41.3990   -7.3840 P   0  0  0  0  0  0
   69.7190   41.4490   -6.4270 O   0  0  0  0  0  0
   71.9120   42.3160   -6.9700 O   0  5  0  0  0  0
   71.3150   39.9790   -7.4880 O   0  5  0  0  0  0
   63.6950   40.6880  -14.0940 N   0  0  0  0  0  0
   62.7250   40.3290  -15.1010 C   0  0  2  0  0  0
   63.3110   39.8400  -16.4300 C   0  0  0  0  0  0
   64.4690   40.0690  -16.7240 O   0  0  0  0  0  0
   61.7760   41.5300  -15.3700 C   0  0  2  0  0  0
   62.5430   42.7360  -15.5040 O   0  0  0  0  0  0
   60.8150   41.7050  -14.2160 C   0  0  0  0  0  0
   62.4960   39.1540  -17.2180 N   0  0  0  0  0  0
   62.9230   38.6580  -18.5120 C   0  0  2  0  0  0
   63.5940   39.7210  -19.3950 C   0  0  0  0  0  0
   63.2220   40.9000  -19.3560 O   0  0  0  0  0  0
   61.7220   38.0680  -19.2590 C   0  0  0  0  0  0
   60.4340   38.8860  -19.1190 C   0  0  0  0  0  0
   59.2510   38.2120  -19.7900 C   0  0  0  0  0  0
   59.2650   36.9630  -19.8700 O   0  0  0  0  0  0
   58.3080   38.9180  -20.2250 O   0  5  0  0  0  0
   64.5810   39.3030  -20.1810 N   0  0  0  0  0  0
   65.2650   40.2390  -21.0450 C   0  0  0  0  0  0
   64.3010   40.8960  -22.0150 C   0  0  0  0  0  0
   63.3440   40.2560  -22.4880 O   0  0  0  0  0  0
   64.5340   42.1780  -22.3420 N   0  0  0  0  0  0
   63.6970   42.9540  -23.2610 C   0  0  2  0  0  0
   63.5710   42.2780  -24.6230 C   0  0  0  0  0  0
   64.5770   41.9410  -25.2470 O   0  0  0  0  0  0
   64.4290   44.2970  -23.3710 C   0  0  0  0  0  0
   65.3020   44.3480  -22.1590 C   0  0  0  0  0  0
   65.7270   42.9440  -21.9400 C   0  0  0  0  0  0
   62.3200   42.0930  -25.0410 N   0  0  0  0  0  0
   61.9140   41.4860  -26.3050 C   0  0  2  0  0  0
   62.6180   40.2000  -26.7710 C   0  0  0  0  0  0
   63.8090   39.9880  -26.5330 O   0  0  0  0  0  0
   61.9440   42.5540  -27.4140 C   0  0  2  0  0  0
   60.7840   43.3830  -27.2710 O   0  0  0  0  0  0
   61.9420   41.9340  -28.7890 C   0  0  0  0  0  0
   61.9226   39.2917  -27.4494 O   0  5  0  0  0  0
   64.9241   39.9513   -1.4035 H   0  0  0  0  0  0
   64.8860   38.1593   -1.2853 H   0  0  0  0  0  0
   63.4382   39.0524   -1.8626 H   0  0  0  0  0  0
   66.1149   38.9265   -3.0962 H   0  0  0  0  0  0
   63.4124   37.6525   -3.9805 H   0  0  0  0  0  0
   64.5299   36.4232   -2.0976 H   0  0  0  0  0  0
   64.8474   38.3887   -5.9370 H   0  0  0  0  0  0
   64.7464   36.5999   -5.8078 H   0  0  0  0  0  0
   66.2204   37.4592   -5.2460 H   0  0  0  0  0  0
   66.5715   40.2325   -4.8813 H   0  0  0  0  0  0
   64.4840   42.3441   -5.1811 H   0  0  0  0  0  0
   67.2233   41.9528   -6.5148 H   0  0  0  0  0  0
   66.1821   43.3958   -6.7602 H   0  0  0  0  0  0
   68.9438   42.4296   -5.2940 H   0  0  0  0  0  0
   68.8480   43.4896   -3.7137 H   0  0  0  0  0  0
   63.5201   43.0962   -7.2784 H   0  0  0  0  0  0
   62.9690   40.5577   -8.5680 H   0  0  0  0  0  0
   60.9244   41.8041   -8.4903 H   0  0  0  0  0  0
   61.7844   43.3669   -8.7023 H   0  0  0  0  0  0
   61.4427   43.3489  -10.9538 H   0  0  0  0  0  0
   62.0022   41.6480  -11.0973 H   0  0  0  0  0  0
   63.9802   39.6321  -10.1078 H   0  0  0  0  0  0
   65.1754   41.4744  -12.2132 H   0  0  0  0  0  0
   65.7363   38.5777  -11.4251 H   0  0  0  0  0  0
   66.3907   39.3151  -12.9266 H   0  0  0  0  0  0
   67.6519   41.5988  -12.6540 H   0  0  0  0  0  0
   66.8790   38.8176   -9.4107 H   0  0  0  0  0  0
   69.4886   42.6294  -11.3109 H   0  0  0  0  0  0
   68.7241   39.8395   -8.0363 H   0  0  0  0  0  0
   64.3280   41.5770  -14.2322 H   0  0  0  0  0  0
   62.2360   39.4663  -14.6249 H   0  0  0  0  0  0
   61.2240   41.3984  -16.3124 H   0  0  0  0  0  0
   63.3064   42.8176  -16.2917 H   0  0  0  0  0  0
   60.2161   40.7902  -14.0956 H   0  0  0  0  0  0
   60.1481   42.5557  -14.4200 H   0  0  0  0  0  0
   61.3816   41.8964  -13.2928 H   0  0  0  0  0  0
   61.4710   38.9638  -16.8670 H   0  0  0  0  0  0
   63.6735   37.8981  -18.2485 H   0  0  0  0  0  0
   61.9518   38.0078  -20.3331 H   0  0  0  0  0  0
   61.5088   37.0604  -18.8726 H   0  0  0  0  0  0
   60.1949   39.0138  -18.0529 H   0  0  0  0  0  0
   60.5740   39.8729  -19.5842 H   0  0  0  0  0  0
   64.8773   38.2437  -20.1737 H   0  0  0  0  0  0
   65.7376   41.0230  -20.4351 H   0  0  0  0  0  0
   66.0366   39.7086  -21.6224 H   0  0  0  0  0  0
   62.6724   43.0314  -22.8683 H   0  0  0  0  0  0
   65.0164   44.3193  -24.3008 H   0  0  0  0  0  0
   63.6941   45.1154  -23.3818 H   0  0  0  0  0  0
   66.1600   45.0085  -22.3527 H   0  0  0  0  0  0
   64.7247   44.7371  -21.3074 H   0  0  0  0  0  0
   65.9623   42.7302  -20.8869 H   0  0  0  0  0  0
   66.5792   42.6541  -22.5723 H   0  0  0  0  0  0
   61.5580   42.4477  -24.3314 H   0  0  0  0  0  0
   60.9060   41.1420  -26.0300 H   0  0  0  0  0  0
   62.8333   43.1949  -27.3222 H   0  0  0  0  0  0
   60.6076   43.9245  -26.3299 H   0  0  0  0  0  0
   62.8306   41.2961  -28.9048 H   0  0  0  0  0  0
   61.9593   42.7286  -29.5495 H   0  0  0  0  0  0
   61.0346   41.3252  -28.9154 H   0  0  0  0  0  0
  1  2  1  0  0  0
  1 76  1  0  0  0
  1 77  1  0  0  0
  1 78  1  0  0  0
  2  3  1  0  0  0
  2  5  1  0  0  0
  2 79  1  0  0  0
  3  4  2  0  0  0
  3  8  1  0  0  0
  5  6  1  0  0  0
  5  7  1  0  0  0
  5 80  1  0  0  0
  6 81  1  0  0  0
  7 82  1  0  0  0
  7 83  1  0  0  0
  7 84  1  0  0  0
  8  9  1  0  0  0
  8 85  1  0  0  0
  9 10  1  0  0  0
  9 12  1  0  0  0
  9 86  1  0  0  0
 10 11  2  0  0  0
 10 16  1  0  0  0
 12 13  1  0  0  0
 12 87  1  0  0  0
 12 88  1  0  0  0
 13 14  2  0  0  0
 13 15  1  0  0  0
 15 89  1  0  0  0
 15 90  1  0  0  0
 16 17  1  0  0  0
 16 91  1  0  0  0
 17 18  1  0  0  0
 17 20  1  0  0  0
 17 92  1  0  0  0
 18 19  2  0  0  0
 18 25  1  0  0  0
 20 21  1  0  0  0
 20 93  1  0  0  0
 20 94  1  0  0  0
 21 22  1  0  0  0
 21 95  1  0  0  0
 21 96  1  0  0  0
 22 23  1  0  0  0
 22 24  2  0  0  0
 25 26  1  0  0  0
 25 97  1  0  0  0
 26 27  1  0  0  0
 26 29  1  0  0  0
 26 98  1  0  0  0
 27 28  2  0  0  0
 27 41  1  0  0  0
 29 30  1  0  0  0
 29 99  1  0  0  0
 29100  1  0  0  0
 30 31  2  0  0  0
 30 32  1  0  0  0
 31 33  1  0  0  0
 31101  1  0  0  0
 32 34  2  0  0  0
 32102  1  0  0  0
 33 35  2  0  0  0
 33103  1  0  0  0
 34 35  1  0  0  0
 34104  1  0  0  0
 35 36  1  0  0  0
 36 37  1  0  0  0
 37 38  2  0  0  0
 37 39  1  0  0  0
 37 40  1  0  0  0
 41 42  1  0  0  0
 41105  1  0  0  0
 42 43  1  0  0  0
 42 45  1  0  0  0
 42106  1  0  0  0
 43 44  2  0  0  0
 43 48  1  0  0  0
 45 46  1  0  0  0
 45 47  1  0  0  0
 45107  1  0  0  0
 46108  1  0  0  0
 47109  1  0  0  0
 47110  1  0  0  0
 47111  1  0  0  0
 48 49  1  0  0  0
 48112  1  0  0  0
 49 50  1  0  0  0
 49 52  1  0  0  0
 49113  1  0  0  0
 50 51  2  0  0  0
 50 57  1  0  0  0
 52 53  1  0  0  0
 52114  1  0  0  0
 52115  1  0  0  0
 53 54  1  0  0  0
 53116  1  0  0  0
 53117  1  0  0  0
 54 55  2  0  0  0
 54 56  1  0  0  0
 57 58  1  0  0  0
 57118  1  0  0  0
 58 59  1  0  0  0
 58119  1  0  0  0
 58120  1  0  0  0
 59 60  2  0  0  0
 59 61  1  0  0  0
 61 62  1  0  0  0
 61 67  1  0  0  0
 62 63  1  0  0  0
 62 65  1  0  0  0
 62121  1  0  0  0
 63 64  2  0  0  0
 63 68  1  0  0  0
 65 66  1  0  0  0
 65122  1  0  0  0
 65123  1  0  0  0
 66 67  1  0  0  0
 66124  1  0  0  0
 66125  1  0  0  0
 67126  1  0  0  0
 67127  1  0  0  0
 68 69  1  0  0  0
 68128  1  0  0  0
 69 70  1  0  0  0
 69 72  1  0  0  0
 69129  1  0  0  0
 70 71  2  0  0  0
 70 75  1  0  0  0
 72 73  1  0  0  0
 72 74  1  0  0  0
 72130  1  0  0  0
 73131  1  0  0  0
 74132  1  0  0  0
 74133  1  0  0  0
 74134  1  0  0  0
M  CHG  6   1   1  23  -1  39  -1  40  -1  56  -1  75  -1
M  END
> <s_m_source_file>
../3bum_ligand.sdf

> <i_m_source_file_index>
1

> <s_epik_input>
W09IXVtDQEhdKFtDSDNdKVtDQEhdKFtOSDMrXSlDKD1PKVtOSF1bQ0BASF0oW0NIMl1DKD1PKVtOSDJdKUMoPU8pW05IXVtDQEBIXShbQ0gyXVtDSDJdQyg9TylbT0hdKUMoPU8pW05IXVtDQEBIXShbQ0gyXWMxW2NIXVtjSF1jKFtjSF1bY0hdMSlPUCg9TykoW09IXSlbT0hdKUMoPU8pW05IXVtDQEBIXShbQ0BIXShbT0hdKVtDSDNdKUMoPU8pW05IXVtDQEBIXShbQ0gyXVtDSDJdQyg9TylbT0hdKUMoPU8pW05IXVtDSDJdQyg9TylOMltDQEBIXShbQ0gyXVtDSDJdW0NIMl0yKUMoPU8pW05IXVtDQEhdKEMoPU8pW09IXSlbQ0BIXShbT0hdKVtDSDNd

> <s_epik_cmdline>
J2VwaWtfYXBwJywgJy1pbWFlJywgJ2xpZ2FuZF9wcm8ubWFlJywgJy1vbWFlJywgJ2xpZ2FuZF9wcmVwLm1hZScsICctbXMnLCAnMScsICctcGgnLCAnNycsICctcGh0JywgJzAuNScsICctbnQn

> <r_epik_Ionization_Penalty>
  0.1733

> <r_epik_Ionization_Penalty_Charging>
  0.1733

> <r_epik_Ionization_Penalty_Neutral>
  0.0000

> <r_epik_State_Penalty>
  0.1424

> <r_epik_Charging_Adjusted_Penalty>
0.315656760736823

> <i_epik_Tot_Q>
-4

> <i_epik_Tot_abs_Q>
6

$$$$
