3bun_ligand
                    3D
 Schrodinger Suite 2020-3.
112113  0  0  1  0            999 V2000
   57.4230  -40.6920    0.4640 N   0  3  0  0  0  0
   57.6850  -41.8270   -0.4880 C   0  0  2  0  0  0
   58.2410  -41.2580   -1.7850 C   0  0  0  0  0  0
   57.8640  -40.1520   -2.1760 O   0  0  0  0  0  0
   56.3970  -42.6080   -0.7970 C   0  0  0  0  0  0
   55.7900  -43.2390    0.4420 C   0  0  0  0  0  0
   56.5120  -43.8610    1.2350 O   0  0  0  0  0  0
   54.4620  -43.1010    0.6170 N   0  0  0  0  0  0
   59.1020  -42.0260   -2.4520 N   0  0  0  0  0  0
   59.7400  -41.5690   -3.6810 C   0  0  2  0  0  0
   58.9700  -41.7370   -5.0060 C   0  0  0  0  0  0
   58.7870  -42.8590   -5.5090 O   0  0  0  0  0  0
   61.1220  -42.2250   -3.8490 C   0  0  0  0  0  0
   62.0680  -41.9390   -2.6720 C   0  0  0  0  0  0
   62.0830  -40.7940   -2.1540 O   0  5  0  0  0  0
   62.8200  -42.8550   -2.2760 O   0  0  0  0  0  0
   58.5360  -40.6090   -5.5590 N   0  0  0  0  0  0
   57.8770  -40.6000   -6.8310 C   0  0  2  0  0  0
   58.8070  -40.0550   -7.9180 C   0  0  0  0  0  0
   59.3080  -38.9280   -7.7990 O   0  0  0  0  0  0
   56.6210  -39.7360   -6.7790 C   0  0  0  0  0  0
   55.5270  -40.3660   -5.9410 C   0  0  0  0  0  0
   54.7950  -41.4920   -6.4190 C   0  0  0  0  0  0
   55.2380  -39.8290   -4.6690 C   0  0  0  0  0  0
   53.7800  -42.0510   -5.5990 C   0  0  0  0  0  0
   54.2350  -40.3700   -3.8380 C   0  0  0  0  0  0
   53.5190  -41.4920   -4.3340 C   0  0  0  0  0  0
   52.5070  -42.0530   -3.4900 O   0  0  0  0  0  0
   51.9090  -41.4430   -2.0830 P   0  0  0  0  0  0
   53.0050  -41.4120   -1.0850 O   0  5  0  0  0  0
   50.8400  -42.3470   -1.6540 O   0  0  0  0  0  0
   51.4230  -40.0390   -2.2920 O   0  5  0  0  0  0
   59.0800  -40.8520   -8.9430 N   0  0  0  0  0  0
   59.9230  -40.3830  -10.0240 C   0  0  2  0  0  0
   59.0590  -39.6280  -11.0320 C   0  0  0  0  0  0
   57.8750  -39.9120  -11.1340 O   0  0  0  0  0  0
   60.7110  -41.5530  -10.6610 C   0  0  2  0  0  0
   59.7600  -42.6150  -11.2110 C   0  0  0  0  0  0
   61.6140  -42.1830   -9.5960 C   0  0  0  0  0  0
   60.0580  -43.0100  -12.6410 C   0  0  0  0  0  0
   59.6090  -38.6770  -11.7760 N   0  0  0  0  0  0
   58.7310  -37.8800  -12.6150 C   0  0  2  0  0  0
   58.2690  -38.3560  -13.9740 C   0  0  0  0  0  0
   57.0620  -38.2620  -14.2600 O   0  0  0  0  0  0
   59.2580  -36.4560  -12.7090 C   0  0  0  0  0  0
   58.5830  -35.5490  -11.7060 C   0  0  0  0  0  0
   59.2590  -34.6860  -11.1040 O   0  0  0  0  0  0
   57.3530  -35.7130  -11.5050 O   0  5  0  0  0  0
   59.1580  -38.8470  -14.8260 N   0  0  0  0  0  0
   58.6720  -39.2970  -16.1170 C   0  0  2  0  0  0
   59.4070  -40.4770  -16.7630 C   0  0  0  0  0  0
   60.5710  -40.3590  -17.1680 O   0  0  0  0  0  0
   58.6050  -38.1060  -17.0930 C   0  0  0  0  0  0
   57.2920  -37.3230  -16.9790 C   0  0  0  0  0  0
   56.2000  -37.8790  -17.1730 O   0  0  0  0  0  0
   57.3930  -36.0360  -16.6510 N   0  0  0  0  0  0
   58.7220  -41.6350  -16.8540 N   0  0  0  0  0  0
   59.2460  -42.8720  -17.4410 C   0  0  2  0  0  0
   59.8550  -42.6950  -18.8480 C   0  0  0  0  0  0
   59.5250  -41.7440  -19.5720 O   0  0  0  0  0  0
   58.0200  -43.7890  -17.4450 C   0  0  0  0  0  0
   57.3240  -43.3870  -16.1740 C   0  0  0  0  0  0
   57.3960  -41.8740  -16.2430 C   0  0  0  0  0  0
   60.7475  -43.5761  -19.2908 O   0  5  0  0  0  0
   58.3627  -40.1560    0.6629 H   0  0  0  0  0  0
   57.0211  -41.0901    1.4074 H   0  0  0  0  0  0
   56.6936  -40.0001    0.0177 H   0  0  0  0  0  0
   58.4111  -42.5012   -0.0103 H   0  0  0  0  0  0
   55.6503  -41.9267   -1.2310 H   0  0  0  0  0  0
   56.6191  -43.4128   -1.5132 H   0  0  0  0  0  0
   53.8660  -42.5387   -0.1169 H   0  0  0  0  0  0
   53.9731  -43.5506    1.4939 H   0  0  0  0  0  0
   59.3276  -43.0265   -2.0544 H   0  0  0  0  0  0
   59.7619  -40.4919   -3.4590 H   0  0  0  0  0  0
   61.0032  -43.3159   -3.9253 H   0  0  0  0  0  0
   61.6003  -41.8434   -4.7631 H   0  0  0  0  0  0
   58.6938  -39.6663   -5.0146 H   0  0  0  0  0  0
   57.6258  -41.6559   -7.0098 H   0  0  0  0  0  0
   56.8668  -38.7577   -6.3402 H   0  0  0  0  0  0
   56.2316  -39.5934   -7.7978 H   0  0  0  0  0  0
   55.0113  -41.9172   -7.3991 H   0  0  0  0  0  0
   55.8078  -38.9689   -4.3173 H   0  0  0  0  0  0
   53.2054  -42.9092   -5.9475 H   0  0  0  0  0  0
   54.0187  -39.9455   -2.8576 H   0  0  0  0  0  0
   58.6651  -41.8704   -8.9712 H   0  0  0  0  0  0
   60.6480  -39.6856   -9.5791 H   0  0  0  0  0  0
   61.3176  -41.1743  -11.4968 H   0  0  0  0  0  0
   59.8313  -43.5246  -10.5966 H   0  0  0  0  0  0
   58.7286  -42.2335  -11.1830 H   0  0  0  0  0  0
   62.2996  -41.4201   -9.1986 H   0  0  0  0  0  0
   62.1963  -43.0006  -10.0460 H   0  0  0  0  0  0
   60.9945  -42.5807   -8.7787 H   0  0  0  0  0  0
   59.3374  -43.7740  -12.9681 H   0  0  0  0  0  0
   61.0779  -43.4171  -12.7040 H   0  0  0  0  0  0
   59.9753  -42.1260  -13.2904 H   0  0  0  0  0  0
   60.6917  -38.4825  -11.7720 H   0  0  0  0  0  0
   57.8174  -38.0263  -12.0201 H   0  0  0  0  0  0
   60.3398  -36.4515  -12.5099 H   0  0  0  0  0  0
   59.0693  -36.0610  -13.7181 H   0  0  0  0  0  0
   60.2289  -38.9204  -14.5854 H   0  0  0  0  0  0
   57.6849  -39.6913  -15.8339 H   0  0  0  0  0  0
   59.4315  -37.4117  -16.8814 H   0  0  0  0  0  0
   58.6902  -38.4734  -18.1263 H   0  0  0  0  0  0
   58.3835  -35.5859  -16.4886 H   0  0  0  0  0  0
   56.4859  -35.4233  -16.5425 H   0  0  0  0  0  0
   60.0869  -43.2383  -16.8337 H   0  0  0  0  0  0
   57.4191  -43.5939  -18.3455 H   0  0  0  0  0  0
   58.3475  -44.8391  -17.4432 H   0  0  0  0  0  0
   56.2933  -43.7711  -16.1832 H   0  0  0  0  0  0
   57.8638  -43.8061  -15.3120 H   0  0  0  0  0  0
   57.3594  -41.4021  -15.2500 H   0  0  0  0  0  0
   56.6136  -41.4411  -16.8837 H   0  0  0  0  0  0
  1  2  1  0  0  0
  1 65  1  0  0  0
  1 66  1  0  0  0
  1 67  1  0  0  0
  2  3  1  0  0  0
  2  5  1  0  0  0
  2 68  1  0  0  0
  3  4  2  0  0  0
  3  9  1  0  0  0
  5  6  1  0  0  0
  5 69  1  0  0  0
  5 70  1  0  0  0
  6  7  2  0  0  0
  6  8  1  0  0  0
  8 71  1  0  0  0
  8 72  1  0  0  0
  9 10  1  0  0  0
  9 73  1  0  0  0
 10 11  1  0  0  0
 10 13  1  0  0  0
 10 74  1  0  0  0
 11 12  2  0  0  0
 11 17  1  0  0  0
 13 14  1  0  0  0
 13 75  1  0  0  0
 13 76  1  0  0  0
 14 15  1  0  0  0
 14 16  2  0  0  0
 17 18  1  0  0  0
 17 77  1  0  0  0
 18 19  1  0  0  0
 18 21  1  0  0  0
 18 78  1  0  0  0
 19 20  2  0  0  0
 19 33  1  0  0  0
 21 22  1  0  0  0
 21 79  1  0  0  0
 21 80  1  0  0  0
 22 23  2  0  0  0
 22 24  1  0  0  0
 23 25  1  0  0  0
 23 81  1  0  0  0
 24 26  2  0  0  0
 24 82  1  0  0  0
 25 27  2  0  0  0
 25 83  1  0  0  0
 26 27  1  0  0  0
 26 84  1  0  0  0
 27 28  1  0  0  0
 28 29  1  0  0  0
 29 30  1  0  0  0
 29 31  2  0  0  0
 29 32  1  0  0  0
 33 34  1  0  0  0
 33 85  1  0  0  0
 34 35  1  0  0  0
 34 37  1  0  0  0
 34 86  1  0  0  0
 35 36  2  0  0  0
 35 41  1  0  0  0
 37 38  1  0  0  0
 37 39  1  0  0  0
 37 87  1  0  0  0
 38 40  1  0  0  0
 38 88  1  0  0  0
 38 89  1  0  0  0
 39 90  1  0  0  0
 39 91  1  0  0  0
 39 92  1  0  0  0
 40 93  1  0  0  0
 40 94  1  0  0  0
 40 95  1  0  0  0
 41 42  1  0  0  0
 41 96  1  0  0  0
 42 43  1  0  0  0
 42 45  1  0  0  0
 42 97  1  0  0  0
 43 44  2  0  0  0
 43 49  1  0  0  0
 45 46  1  0  0  0
 45 98  1  0  0  0
 45 99  1  0  0  0
 46 47  2  0  0  0
 46 48  1  0  0  0
 49 50  1  0  0  0
 49100  1  0  0  0
 50 51  1  0  0  0
 50 53  1  0  0  0
 50101  1  0  0  0
 51 52  2  0  0  0
 51 57  1  0  0  0
 53 54  1  0  0  0
 53102  1  0  0  0
 53103  1  0  0  0
 54 55  2  0  0  0
 54 56  1  0  0  0
 56104  1  0  0  0
 56105  1  0  0  0
 57 58  1  0  0  0
 57 63  1  0  0  0
 58 59  1  0  0  0
 58 61  1  0  0  0
 58106  1  0  0  0
 59 60  2  0  0  0
 59 64  1  0  0  0
 61 62  1  0  0  0
 61107  1  0  0  0
 61108  1  0  0  0
 62 63  1  0  0  0
 62109  1  0  0  0
 62110  1  0  0  0
 63111  1  0  0  0
 63112  1  0  0  0
M  CHG  6   1   1  15  -1  30  -1  32  -1  48  -1  64  -1
M  END
> <s_m_source_file>
../3bun_ligand.sdf

> <i_m_source_file_index>
1

> <s_epik_input>
Tz1DKFtOSDJdKVtDSDJdW0NASF0oW05IMytdKUMoPU8pW05IXVtDQEBIXShbQ0gyXUMoPU8pW09IXSlDKD1PKVtOSF1bQ0BASF0oW0NIMl1jMVtjSF1bY0hdYyhbY0hdW2NIXTEpT1AoPU8pKFtPSF0pW09IXSlDKD1PKVtOSF1bQ0BASF0oW0NAQEhdKFtDSDNdKVtDSDJdW0NIM10pQyg9TylbTkhdW0NAQEhdKFtDSDJdQyg9TylbT0hdKUMoPU8pW05IXVtDQEBIXShbQ0gyXUMoPU8pW05IMl0pQyg9TylOMltDQEhdKEMoPU8pW09IXSlbQ0gyXVtDSDJdW0NIMl0y

> <s_epik_cmdline>
J2VwaWtfYXBwJywgJy1pbWFlJywgJ2xpZ2FuZF9wcm8ubWFlJywgJy1vbWFlJywgJ2xpZ2FuZF9wcmVwLm1hZScsICctbXMnLCAnMScsICctcGgnLCAnNycsICctcGh0JywgJzAuNScsICctbnQn

> <r_epik_Ionization_Penalty>
  0.2917

> <r_epik_Ionization_Penalty_Charging>
  0.2916

> <r_epik_Ionization_Penalty_Neutral>
  0.0000

> <r_epik_State_Penalty>
  0.2496

> <r_epik_Charging_Adjusted_Penalty>
0.541220851437108

> <i_epik_Tot_Q>
-4

> <i_epik_Tot_abs_Q>
6

$$$$
