3buo_ligand
                    3D
 Schrodinger Suite 2020-3.
183185  0  0  1  0            999 V2000
   -4.8340   -6.2640   12.8420 N   0  3  0  0  0  0
   -5.7210   -7.4520   12.6210 C   0  0  2  0  0  0
   -6.0050   -7.6380   11.1030 C   0  0  0  0  0  0
   -5.3590   -6.9960   10.2430 O   0  0  0  0  0  0
   -7.0400   -7.2870   13.4160 C   0  0  0  0  0  0
   -7.8480   -8.4630   13.4280 O   0  0  0  0  0  0
   -6.9750   -8.4980   10.7910 N   0  0  0  0  0  0
   -7.3340   -8.8200    9.4120 C   0  0  2  0  0  0
   -7.8270   -7.6720    8.4940 C   0  0  0  0  0  0
   -8.3820   -6.6630    8.9360 O   0  0  0  0  0  0
   -8.3690   -9.9530    9.3930 C   0  0  0  0  0  0
   -8.5900  -10.5460    8.0220 C   0  0  0  0  0  0
   -9.7940  -11.1680    7.7030 C   0  0  0  0  0  0
   -7.6080  -10.4470    7.0350 C   0  0  0  0  0  0
  -10.0160  -11.6740    6.4210 C   0  0  0  0  0  0
   -7.8210  -10.9480    5.7540 C   0  0  0  0  0  0
   -9.0280  -11.5620    5.4460 C   0  0  0  0  0  0
   -7.6180   -7.8770    7.1990 N   0  0  0  0  0  0
   -7.9850   -6.9410    6.1790 C   0  0  2  0  0  0
   -9.1500   -7.4040    5.3050 C   0  0  0  0  0  0
   -9.8570   -8.3700    5.6150 O   0  0  0  0  0  0
   -6.7780   -6.6680    5.2650 C   0  0  0  0  0  0
   -5.3540   -6.5910    5.8410 C   0  0  0  0  0  0
   -4.8770   -7.9730    6.2750 C   0  0  0  0  0  0
   -4.4180   -6.0220    4.7740 C   0  0  0  0  0  0
   -9.3050   -6.6830    4.1990 N   0  0  0  0  0  0
  -10.3250   -6.8650    3.1460 C   0  0  2  0  0  0
  -10.0490   -5.8100    2.0560 C   0  0  0  0  0  0
  -10.2970   -6.0080    0.8560 O   0  0  0  0  0  0
  -11.7390   -6.6230    3.6950 C   0  0  0  0  0  0
  -12.2820   -7.6700    4.6900 C   0  0  0  0  0  0
  -13.5120   -7.1570    5.4640 C   0  0  0  0  0  0
  -13.4780   -6.0680    6.0760 O   0  0  0  0  0  0
  -14.6020   -7.9330    5.4350 N   0  0  0  0  0  0
   -9.5170   -4.6950    2.5550 N   0  0  0  0  0  0
   -9.1110   -3.5050    1.8370 C   0  0  2  0  0  0
   -8.8110   -3.5880    0.3230 C   0  0  0  0  0  0
   -9.3410   -2.7920   -0.4720 O   0  0  0  0  0  0
   -7.8720   -2.9170    2.5310 C   0  0  0  0  0  0
   -7.9700   -2.7600    4.0470 C   0  0  0  0  0  0
   -6.5880   -2.8010    4.7060 C   0  0  0  0  0  0
   -6.1610   -1.5170    5.2590 N   0  0  0  0  0  0
   -5.0420   -1.3450    5.9600 C   0  0  0  0  0  0
   -4.2390   -2.3690    6.1910 N   0  0  0  0  0  0
   -4.7310   -0.1520    6.4410 N   0  0  0  0  0  0
   -7.9990   -4.5580   -0.0790 N   0  0  0  0  0  0
   -7.5630   -4.6410   -1.4850 C   0  0  2  0  0  0
   -8.4900   -5.1880   -2.5540 C   0  0  0  0  0  0
   -9.1630   -6.1700   -2.3580 O   0  0  0  0  0  0
   -6.2130   -5.3560   -1.5170 C   0  0  0  0  0  0
   -5.1740   -4.5850   -0.7220 C   0  0  0  0  0  0
   -4.6780   -3.3360   -1.1910 C   0  0  0  0  0  0
   -4.6910   -5.1000    0.5160 C   0  0  0  0  0  0
   -3.7170   -2.6420   -0.4080 C   0  0  0  0  0  0
   -3.7380   -4.4100    1.2900 C   0  0  0  0  0  0
   -3.2770   -3.1920    0.8120 C   0  0  0  0  0  0
   -2.3170   -2.5010    1.6180 O   0  0  0  0  0  0
   -1.9370   -2.7920    3.1880 P   0  0  0  0  0  0
   -3.1640   -3.1180    3.9400 O   0  0  0  0  0  0
   -1.2870   -1.5850    3.7900 O   0  0  0  0  0  0
   -1.0140   -3.9570    3.2810 O   0  0  0  0  0  0
   -8.4310   -4.5130   -3.7040 N   0  0  0  0  0  0
   -9.2360   -4.7770   -4.8880 C   0  0  2  0  0  0
   -8.5220   -5.3500   -6.1300 C   0  0  0  0  0  0
   -7.3330   -5.1160   -6.3370 O   0  0  0  0  0  0
   -9.9420   -3.5010   -5.2920 C   0  0  0  0  0  0
  -11.1450   -3.3730   -4.5700 O   0  0  0  0  0  0
   -9.2460   -6.0840   -6.9700 N   0  0  0  0  0  0
   -8.6440   -6.6930   -8.1500 C   0  0  2  0  0  0
   -8.2080   -5.7170   -9.2060 C   0  0  0  0  0  0
   -8.8550   -4.7030   -9.4250 O   0  0  0  0  0  0
   -9.6180   -7.6870   -8.8000 C   0  0  0  0  0  0
   -9.7500   -8.8820   -8.0440 O   0  0  0  0  0  0
   -7.1060   -6.0220   -9.8740 N   0  0  0  0  0  0
   -6.6640   -5.1390  -10.9380 C   0  0  2  0  0  0
   -7.7080   -5.0250  -12.0570 C   0  0  0  0  0  0
   -8.0760   -6.0380  -12.6880 O   0  0  0  0  0  0
   -5.3180   -5.6050  -11.5300 C   0  0  0  0  0  0
   -5.1070   -5.1430  -12.9910 C   0  0  0  0  0  0
   -5.6950   -4.1180  -13.4040 O   0  0  0  0  0  0
   -4.3380   -5.8070  -13.7290 O   0  0  0  0  0  0
   -8.2200   -3.8020  -12.2950 N   0  0  0  0  0  0
   -9.2180   -3.5690  -13.3360 C   0  0  2  0  0  0
   -8.6350   -3.8320  -14.7280 C   0  0  0  0  0  0
   -8.2160   -2.9040  -15.4360 O   0  0  0  0  0  0
   -9.6100   -2.1100  -13.1110 C   0  0  0  0  0  0
   -8.3580   -1.5030  -12.6040 C   0  0  0  0  0  0
   -7.8760   -2.5370  -11.6190 C   0  0  0  0  0  0
   -8.6010   -5.1150  -15.0880 N   0  0  0  0  0  0
   -8.0890   -5.5840  -16.3670 C   0  0  2  0  0  0
   -8.5080   -7.0340  -16.6950 C   0  0  0  0  0  0
   -8.1790   -7.9820  -15.9610 O   0  0  0  0  0  0
   -6.5450   -5.4890  -16.4060 C   0  0  2  0  0  0
   -6.1480   -4.1070  -16.3680 O   0  0  0  0  0  0
   -5.9990   -6.1570  -17.6720 C   0  0  0  0  0  0
   -9.2345   -7.2729  -17.7831 O   0  0  0  0  0  0
   -3.9012   -6.3920   12.2732 H   0  0  0  0  0  0
   -4.6009   -6.1747   13.9133 H   0  0  0  0  0  0
   -5.3490   -5.3535   12.5017 H   0  0  0  0  0  0
   -5.1809   -8.3323   12.9997 H   0  0  0  0  0  0
   -6.8089   -7.0355   14.4616 H   0  0  0  0  0  0
   -7.6392   -6.4802   12.9687 H   0  0  0  0  0  0
   -8.8095   -8.4643   13.9623 H   0  0  0  0  0  0
   -7.5135   -8.9725   11.6246 H   0  0  0  0  0  0
   -6.3406   -9.1064    9.0364 H   0  0  0  0  0  0
   -8.0340  -10.7668   10.0530 H   0  0  0  0  0  0
   -9.3381   -9.5703    9.7457 H   0  0  0  0  0  0
  -10.5710  -11.2608    8.4618 H   0  0  0  0  0  0
   -6.6575   -9.9689    7.2716 H   0  0  0  0  0  0
  -10.9636  -12.1572    6.1829 H   0  0  0  0  0  0
   -7.0434  -10.8588    4.9954 H   0  0  0  0  0  0
   -9.2015  -11.9550    4.4442 H   0  0  0  0  0  0
   -7.1348   -8.8267    6.9259 H   0  0  0  0  0  0
   -8.3012   -6.0706    6.7727 H   0  0  0  0  0  0
   -6.7059   -7.4611    4.5062 H   0  0  0  0  0  0
   -6.9072   -5.6954    4.7677 H   0  0  0  0  0  0
   -5.3459   -5.9389    6.7268 H   0  0  0  0  0  0
   -5.5574   -8.3716    7.0419 H   0  0  0  0  0  0
   -3.8612   -7.8966    6.6900 H   0  0  0  0  0  0
   -4.8684   -8.6475    5.4061 H   0  0  0  0  0  0
   -4.7719   -5.0261    4.4692 H   0  0  0  0  0  0
   -4.4080   -6.6907    3.9007 H   0  0  0  0  0  0
   -3.4008   -5.9399    5.1846 H   0  0  0  0  0  0
   -8.5629   -5.8757    4.1122 H   0  0  0  0  0  0
  -10.2423   -7.9015    2.7872 H   0  0  0  0  0  0
  -11.7658   -5.6611    4.2279 H   0  0  0  0  0  0
  -12.4570   -6.6007    2.8619 H   0  0  0  0  0  0
  -12.5775   -8.5772    4.1427 H   0  0  0  0  0  0
  -11.4995   -7.9214    5.4211 H   0  0  0  0  0  0
  -14.5854   -8.8842    4.8828 H   0  0  0  0  0  0
  -15.5145   -7.6196    5.9634 H   0  0  0  0  0  0
   -9.3971   -4.7461    3.6473 H   0  0  0  0  0  0
  -10.0495   -2.9376    1.9215 H   0  0  0  0  0  0
   -7.0045   -3.5673    2.3452 H   0  0  0  0  0  0
   -7.6697   -1.9125    2.1308 H   0  0  0  0  0  0
   -8.4412   -1.7952    4.2860 H   0  0  0  0  0  0
   -8.5779   -3.5776    4.4618 H   0  0  0  0  0  0
   -6.5975   -3.5262    5.5330 H   0  0  0  0  0  0
   -5.8359   -3.1030    3.9622 H   0  0  0  0  0  0
   -6.7779   -0.6194    5.1051 H   0  0  0  0  0  0
   -4.4892   -3.3644    5.7952 H   0  0  0  0  0  0
   -5.3932    0.7062    6.2539 H   0  0  0  0  0  0
   -3.8103   -0.0186    7.0279 H   0  0  0  0  0  0
   -7.6511   -5.3050    0.6497 H   0  0  0  0  0  0
   -7.5513   -3.5761   -1.7605 H   0  0  0  0  0  0
   -6.3194   -6.3600   -1.0805 H   0  0  0  0  0  0
   -5.8690   -5.4434   -2.5581 H   0  0  0  0  0  0
   -5.0295   -2.9191   -2.1348 H   0  0  0  0  0  0
   -5.0706   -6.0568    0.8746 H   0  0  0  0  0  0
   -3.3210   -1.6860   -0.7505 H   0  0  0  0  0  0
   -3.3749   -4.8191    2.2328 H   0  0  0  0  0  0
   -1.8230   -0.6246    3.8111 H   0  0  0  0  0  0
   -1.3232   -4.9365    2.8874 H   0  0  0  0  0  0
   -7.6955   -3.6951   -3.7101 H   0  0  0  0  0  0
   -9.9008   -5.5678   -4.5102 H   0  0  0  0  0  0
   -9.2939   -2.6390   -5.0753 H   0  0  0  0  0  0
  -10.1651   -3.5305   -6.3687 H   0  0  0  0  0  0
  -11.7946   -2.5006   -4.7338 H   0  0  0  0  0  0
  -10.3165   -6.2282   -6.7622 H   0  0  0  0  0  0
   -7.7403   -7.1615   -7.7330 H   0  0  0  0  0  0
  -10.6125   -7.2244   -8.8837 H   0  0  0  0  0  0
   -9.2531   -7.9557   -9.8023 H   0  0  0  0  0  0
  -10.4175   -9.6833   -8.3939 H   0  0  0  0  0  0
   -6.5281   -6.9268   -9.6345 H   0  0  0  0  0  0
   -6.5541   -4.1695  -10.4301 H   0  0  0  0  0  0
   -4.4921   -5.1974  -10.9285 H   0  0  0  0  0  0
   -5.2729   -6.7040  -11.5177 H   0  0  0  0  0  0
   -4.1728   -5.4972  -14.7715 H   0  0  0  0  0  0
  -10.0699   -4.2590  -13.2457 H   0  0  0  0  0  0
   -9.9390   -1.6677  -14.0629 H   0  0  0  0  0  0
  -10.4306   -2.0593  -12.3802 H   0  0  0  0  0  0
   -7.6601   -1.3496  -13.4403 H   0  0  0  0  0  0
   -8.5843   -0.5350  -12.1330 H   0  0  0  0  0  0
   -8.3987   -2.4838  -10.6526 H   0  0  0  0  0  0
   -6.7897   -2.4945  -11.4512 H   0  0  0  0  0  0
   -8.9897   -5.8357  -14.3535 H   0  0  0  0  0  0
   -8.5667   -4.8936  -17.0777 H   0  0  0  0  0  0
   -6.0950   -5.9525  -15.5157 H   0  0  0  0  0  0
   -6.4534   -3.4700  -15.5248 H   0  0  0  0  0  0
   -6.3077   -7.2126  -17.6918 H   0  0  0  0  0  0
   -4.9007   -6.0960  -17.6742 H   0  0  0  0  0  0
   -6.3966   -5.6420  -18.5589 H   0  0  0  0  0  0
   -9.5386   -8.3016  -18.0265 H   0  0  0  0  0  0
  1  2  1  0  0  0
  1 97  1  0  0  0
  1 98  1  0  0  0
  1 99  1  0  0  0
  2  3  1  0  0  0
  2  5  1  0  0  0
  2100  1  0  0  0
  3  4  2  0  0  0
  3  7  1  0  0  0
  5  6  1  0  0  0
  5101  1  0  0  0
  5102  1  0  0  0
  6103  1  0  0  0
  7  8  1  0  0  0
  7104  1  0  0  0
  8  9  1  0  0  0
  8 11  1  0  0  0
  8105  1  0  0  0
  9 10  2  0  0  0
  9 18  1  0  0  0
 11 12  1  0  0  0
 11106  1  0  0  0
 11107  1  0  0  0
 12 13  2  0  0  0
 12 14  1  0  0  0
 13 15  1  0  0  0
 13108  1  0  0  0
 14 16  2  0  0  0
 14109  1  0  0  0
 15 17  2  0  0  0
 15110  1  0  0  0
 16 17  1  0  0  0
 16111  1  0  0  0
 17112  1  0  0  0
 18 19  1  0  0  0
 18113  1  0  0  0
 19 20  1  0  0  0
 19 22  1  0  0  0
 19114  1  0  0  0
 20 21  2  0  0  0
 20 26  1  0  0  0
 22 23  1  0  0  0
 22115  1  0  0  0
 22116  1  0  0  0
 23 24  1  0  0  0
 23 25  1  0  0  0
 23117  1  0  0  0
 24118  1  0  0  0
 24119  1  0  0  0
 24120  1  0  0  0
 25121  1  0  0  0
 25122  1  0  0  0
 25123  1  0  0  0
 26 27  1  0  0  0
 26124  1  0  0  0
 27 28  1  0  0  0
 27 30  1  0  0  0
 27125  1  0  0  0
 28 29  2  0  0  0
 28 35  1  0  0  0
 30 31  1  0  0  0
 30126  1  0  0  0
 30127  1  0  0  0
 31 32  1  0  0  0
 31128  1  0  0  0
 31129  1  0  0  0
 32 33  2  0  0  0
 32 34  1  0  0  0
 34130  1  0  0  0
 34131  1  0  0  0
 35 36  1  0  0  0
 35132  1  0  0  0
 36 37  1  0  0  0
 36 39  1  0  0  0
 36133  1  0  0  0
 37 38  2  0  0  0
 37 46  1  0  0  0
 39 40  1  0  0  0
 39134  1  0  0  0
 39135  1  0  0  0
 40 41  1  0  0  0
 40136  1  0  0  0
 40137  1  0  0  0
 41 42  1  0  0  0
 41138  1  0  0  0
 41139  1  0  0  0
 42 43  1  0  0  0
 42140  1  0  0  0
 43 44  2  0  0  0
 43 45  1  0  0  0
 44141  1  0  0  0
 45142  1  0  0  0
 45143  1  0  0  0
 46 47  1  0  0  0
 46144  1  0  0  0
 47 48  1  0  0  0
 47 50  1  0  0  0
 47145  1  0  0  0
 48 49  2  0  0  0
 48 62  1  0  0  0
 50 51  1  0  0  0
 50146  1  0  0  0
 50147  1  0  0  0
 51 52  2  0  0  0
 51 53  1  0  0  0
 52 54  1  0  0  0
 52148  1  0  0  0
 53 55  2  0  0  0
 53149  1  0  0  0
 54 56  2  0  0  0
 54150  1  0  0  0
 55 56  1  0  0  0
 55151  1  0  0  0
 56 57  1  0  0  0
 57 58  1  0  0  0
 58 59  2  0  0  0
 58 60  1  0  0  0
 58 61  1  0  0  0
 60152  1  0  0  0
 61153  1  0  0  0
 62 63  1  0  0  0
 62154  1  0  0  0
 63 64  1  0  0  0
 63 66  1  0  0  0
 63155  1  0  0  0
 64 65  2  0  0  0
 64 68  1  0  0  0
 66 67  1  0  0  0
 66156  1  0  0  0
 66157  1  0  0  0
 67158  1  0  0  0
 68 69  1  0  0  0
 68159  1  0  0  0
 69 70  1  0  0  0
 69 72  1  0  0  0
 69160  1  0  0  0
 70 71  2  0  0  0
 70 74  1  0  0  0
 72 73  1  0  0  0
 72161  1  0  0  0
 72162  1  0  0  0
 73163  1  0  0  0
 74 75  1  0  0  0
 74164  1  0  0  0
 75 76  1  0  0  0
 75 78  1  0  0  0
 75165  1  0  0  0
 76 77  2  0  0  0
 76 82  1  0  0  0
 78 79  1  0  0  0
 78166  1  0  0  0
 78167  1  0  0  0
 79 80  2  0  0  0
 79 81  1  0  0  0
 81168  1  0  0  0
 82 83  1  0  0  0
 82 88  1  0  0  0
 83 84  1  0  0  0
 83 86  1  0  0  0
 83169  1  0  0  0
 84 85  2  0  0  0
 84 89  1  0  0  0
 86 87  1  0  0  0
 86170  1  0  0  0
 86171  1  0  0  0
 87 88  1  0  0  0
 87172  1  0  0  0
 87173  1  0  0  0
 88174  1  0  0  0
 88175  1  0  0  0
 89 90  1  0  0  0
 89176  1  0  0  0
 90 91  1  0  0  0
 90 93  1  0  0  0
 90177  1  0  0  0
 91 92  2  0  0  0
 91 96  1  0  0  0
 93 94  1  0  0  0
 93 95  1  0  0  0
 93178  1  0  0  0
 94179  1  0  0  0
 95180  1  0  0  0
 95181  1  0  0  0
 95182  1  0  0  0
 96183  1  0  0  0
M  CHG  1   1   1
M  END
> <s_m_source_file>
../3buo_ligand.sdf

> <i_m_source_file_index>
1

> <s_epik_input>
W2NIXTFbY0hdW2NIXVtjSF1bY0hdYzFbQ0gyXVtDQEhdKFtOSF1DKD1PKVtDQEBIXShbTkgzK10pW0NIMl1bT0hdKUMoPU8pW05IXVtDQEBIXShbQ0gyXVtDSF0oW0NIM10pW0NIM10pQyg9TylbTkhdW0NAQEhdKFtDSDJdW0NIMl1DKD1PKVtOSDJdKUMoPU8pW05IXVtDQEBIXShbQ0gyXVtDSDJdW0NIMl1bTkhdL0MoPU5cW0hdKVtOSDJdKUMoPU8pW05IXVtDQEBIXShbQ0gyXWMyW2NIXVtjSF1jKFtjSF1bY0hdMilPUCg9TykoW09IXSlbT0hdKUMoPU8pW05IXVtDQEBIXShbQ0gyXVtPSF0pQyg9TylbTkhdW0NAQEhdKFtDSDJdW09IXSlDKD1PKVtOSF1bQ0BASF0oW0NIMl1DKD1PKVtPSF0pQyg9TylOM1tDQEBIXShbQ0gyXVtDSDJdW0NIMl0zKUMoPU8pW05IXVtDQEhdKEMoPU8pW09IXSlbQ0BIXShbT0hdKVtDSDNd

> <s_epik_cmdline>
J2VwaWtfYXBwJywgJy1pbWFlJywgJ2xpZ2FuZF9wcm8ubWFlJywgJy1vbWFlJywgJ2xpZ2FuZF9wcmVwLm1hZScsICctbXMnLCAnMScsICctcGgnLCAnNycsICctcGh0JywgJzAuNScsICctbnQn

> <s_epik_pKa_notes>
Molecule size exceeds maximum supported for generating protonation states

> <s_epik_Chemistry_Notes>
This compound has an imine and may undergo hydrolysis.

$$$$
