3bux_ligand
                    3D
 Schrodinger Suite 2020-3.
129129  0  0  1  0            999 V2000
  -14.0920   13.6970   25.8100 N   0  3  0  0  0  0
  -13.2450   12.5030   26.1110 C   0  0  2  0  0  0
  -12.1770   12.8300   27.1570 C   0  0  0  0  0  0
  -11.9190   12.0370   28.0740 O   0  0  0  0  0  0
  -12.5570   12.0250   24.8230 C   0  0  0  0  0  0
  -13.5310   11.7980   23.6860 C   0  0  0  0  0  0
  -14.4700   11.0090   23.8040 O   0  0  0  0  0  0
  -13.3060   12.4920   22.5660 N   0  0  0  0  0  0
  -11.5780   14.0090   27.0020 N   0  0  0  0  0  0
  -10.5110   14.4670   27.8720 C   0  0  2  0  0  0
  -10.6960   14.2650   29.3790 C   0  0  0  0  0  0
   -9.7590   14.4830   30.1420 O   0  0  0  0  0  0
  -10.1940   15.9440   27.5950 C   0  0  0  0  0  0
   -9.5610   16.1830   26.2410 C   0  0  0  0  0  0
   -9.3180   17.6570   25.9690 C   0  0  0  0  0  0
  -10.2990   18.4310   25.9320 O   0  5  0  0  0  0
   -8.1460   18.0420   25.7980 O   0  0  0  0  0  0
  -11.8820   13.8490   29.8130 N   0  0  0  0  0  0
  -12.1220   13.6530   31.2340 C   0  0  2  0  0  0
  -12.4850   12.2280   31.6450 C   0  0  0  0  0  0
  -12.6520   11.9420   32.8320 O   0  0  0  0  0  0
  -13.2200   14.6060   31.7110 C   0  0  0  0  0  0
  -14.4570   14.3260   31.0830 O   0  0  0  0  0  0
  -12.6110   11.3400   30.6660 N   0  0  0  0  0  0
  -12.9570    9.9600   30.9480 C   0  0  2  0  0  0
  -12.1980    8.9350   30.0920 C   0  0  0  0  0  0
  -12.1690    9.0330   28.8670 O   0  0  0  0  0  0
  -14.4820    9.7390   30.7810 C   0  0  0  0  0  0
  -14.8940    9.9920   29.3380 C   0  0  0  0  0  0
  -14.8540    8.3320   31.2160 C   0  0  0  0  0  0
  -11.5830    7.9610   30.7520 N   0  0  0  0  0  0
  -10.8190    6.9220   30.0720 C   0  0  2  0  0  0
  -11.6300    6.2050   28.9880 C   0  0  0  0  0  0
  -12.8190    5.9530   29.1860 O   0  0  0  0  0  0
  -10.3440    5.9050   31.1020 C   0  0  0  0  0  0
   -9.2500    5.0150   30.5780 C   0  0  0  0  0  0
   -8.0730    5.4380   30.6250 O   0  5  0  0  0  0
   -9.5670    3.8980   30.1160 O   0  0  0  0  0  0
  -11.0120    5.8600   27.8580 N   0  0  0  0  0  0
  -11.7860    5.1970   26.8170 C   0  0  2  0  0  0
  -12.1840    3.7470   27.0890 C   0  0  0  0  0  0
  -12.9990    3.1770   26.3550 O   0  0  0  0  0  0
  -11.1140    5.3640   25.4350 C   0  0  0  0  0  0
   -9.9170    4.4750   25.1010 C   0  0  0  0  0  0
   -8.5960    4.9080   25.3900 C   0  0  0  0  0  0
  -10.1110    3.2130   24.4680 C   0  0  0  0  0  0
   -7.5090    4.0770   25.0440 C   0  0  0  0  0  0
   -9.0290    2.3680   24.1160 C   0  0  0  0  0  0
   -7.7340    2.8330   24.4130 C   0  0  0  0  0  0
   -6.6130    1.9970   24.0530 O   0  0  0  0  0  0
   -6.6280    0.6160   23.1750 P   0  0  0  0  0  0
   -7.3070   -0.4200   23.9790 O   0  5  0  0  0  0
   -5.2240    0.2490   22.9050 O   0  0  0  0  0  0
   -7.3630    0.8100   21.8930 O   0  5  0  0  0  0
  -11.6250    3.1560   28.1380 N   0  0  0  0  0  0
  -11.9910    1.8030   28.5090 C   0  0  2  0  0  0
  -12.9800    1.7720   29.6800 C   0  0  0  0  0  0
  -13.3680    0.7000   30.1560 O   0  0  0  0  0  0
  -10.7560    0.9810   28.8760 C   0  0  0  0  0  0
   -9.8630    0.6230   27.6990 C   0  0  0  0  0  0
   -8.8610   -0.4400   28.1030 C   0  0  0  0  0  0
   -8.0000   -0.8380   26.9930 N   0  0  0  0  0  0
   -7.0920   -1.8040   27.0700 C   0  0  0  0  0  0
   -6.9260   -2.4700   28.2050 N   0  3  0  0  0  0
   -6.3470   -2.1030   26.0140 N   0  0  0  0  0  0
  -13.3770    2.9570   30.1350 N   0  0  0  0  0  0
  -14.3140    3.0790   31.2370 C   0  0  2  0  0  0
  -15.7800    3.1350   30.7950 C   0  0  0  0  0  0
  -16.1060    3.7220   29.7570 O   0  0  0  0  0  0
  -13.9770    4.3160   32.0680 C   0  0  0  0  0  0
  -16.7130    2.5450   31.5369 O   0  5  0  0  0  0
  -14.5845   14.0391   26.7322 H   0  0  0  0  0  0
  -14.8552   13.4268   25.0653 H   0  0  0  0  0  0
  -13.4597   14.5039   25.4110 H   0  0  0  0  0  0
  -13.9178   11.7311   26.5129 H   0  0  0  0  0  0
  -11.8280   12.7805   24.4947 H   0  0  0  0  0  0
  -12.0383   11.0743   25.0155 H   0  0  0  0  0  0
  -12.4533   13.1847   22.5101 H   0  0  0  0  0  0
  -13.9735   12.3704   21.7002 H   0  0  0  0  0  0
  -11.9232   14.6448   26.1734 H   0  0  0  0  0  0
   -9.7154   13.7718   27.5657 H   0  0  0  0  0  0
  -11.1232   16.5316   27.6320 H   0  0  0  0  0  0
   -9.4933   16.3177   28.3562 H   0  0  0  0  0  0
   -8.5924   15.6640   26.1924 H   0  0  0  0  0  0
  -10.2240   15.7965   25.4529 H   0  0  0  0  0  0
  -12.6851   13.6528   29.0874 H   0  0  0  0  0  0
  -11.1348   13.8761   31.6649 H   0  0  0  0  0  0
  -13.3495   14.5013   32.7983 H   0  0  0  0  0  0
  -12.9352   15.6417   31.4738 H   0  0  0  0  0  0
  -15.3451   14.9287   31.3241 H   0  0  0  0  0  0
  -12.4485   11.6652   29.6278 H   0  0  0  0  0  0
  -12.6216    9.8530   31.9901 H   0  0  0  0  0  0
  -15.0409   10.4427   31.4153 H   0  0  0  0  0  0
  -14.6130   11.0160   29.0506 H   0  0  0  0  0  0
  -15.9828    9.8696   29.2407 H   0  0  0  0  0  0
  -14.3839    9.2734   28.6797 H   0  0  0  0  0  0
  -14.5452    8.1774   32.2604 H   0  0  0  0  0  0
  -14.3436    7.6018   30.5708 H   0  0  0  0  0  0
  -15.9426    8.1980   31.1318 H   0  0  0  0  0  0
  -11.6644    7.9550   31.8490 H   0  0  0  0  0  0
   -9.9810    7.4515   29.5951 H   0  0  0  0  0  0
   -9.9549    6.4323   31.9855 H   0  0  0  0  0  0
  -11.1866    5.2634   31.3994 H   0  0  0  0  0  0
   -9.9426    6.0652   27.7019 H   0  0  0  0  0  0
  -12.7312    5.7562   26.8792 H   0  0  0  0  0  0
  -11.8490    5.1590   24.6427 H   0  0  0  0  0  0
  -10.7403    6.3933   25.3310 H   0  0  0  0  0  0
   -8.4236    5.8699   25.8729 H   0  0  0  0  0  0
  -11.1271    2.8862   24.2468 H   0  0  0  0  0  0
   -6.4905    4.3966   25.2647 H   0  0  0  0  0  0
   -9.1921    1.4024   23.6373 H   0  0  0  0  0  0
  -10.8763    3.7047   28.7282 H   0  0  0  0  0  0
  -12.4686    1.4128   27.5982 H   0  0  0  0  0  0
  -10.1362    1.5477   29.5864 H   0  0  0  0  0  0
  -11.0702    0.0336   29.3383 H   0  0  0  0  0  0
  -10.4806    0.2391   26.8737 H   0  0  0  0  0  0
   -9.3202    1.5194   27.3645 H   0  0  0  0  0  0
   -8.2210   -0.0529   28.9096 H   0  0  0  0  0  0
   -9.3966   -1.3333   28.4567 H   0  0  0  0  0  0
   -8.0830   -0.3276   26.0221 H   0  0  0  0  0  0
   -7.5425   -2.2241   29.0822 H   0  0  0  0  0  0
   -6.4826   -1.5522   25.0715 H   0  0  0  0  0  0
   -5.5936   -2.9017   26.0808 H   0  0  0  0  0  0
  -12.9751    3.8600   29.6523 H   0  0  0  0  0  0
  -14.1614    2.1485   31.8035 H   0  0  0  0  0  0
  -12.9239    4.2707   32.3825 H   0  0  0  0  0  0
  -14.6241    4.3480   32.9569 H   0  0  0  0  0  0
  -14.1403    5.2199   31.4628 H   0  0  0  0  0  0
   -6.1719   -3.2682   28.2691 H   0  0  0  0  0  0
  1  2  1  0  0  0
  1 72  1  0  0  0
  1 73  1  0  0  0
  1 74  1  0  0  0
  2  3  1  0  0  0
  2  5  1  0  0  0
  2 75  1  0  0  0
  3  4  2  0  0  0
  3  9  1  0  0  0
  5  6  1  0  0  0
  5 76  1  0  0  0
  5 77  1  0  0  0
  6  7  2  0  0  0
  6  8  1  0  0  0
  8 78  1  0  0  0
  8 79  1  0  0  0
  9 10  1  0  0  0
  9 80  1  0  0  0
 10 11  1  0  0  0
 10 13  1  0  0  0
 10 81  1  0  0  0
 11 12  2  0  0  0
 11 18  1  0  0  0
 13 14  1  0  0  0
 13 82  1  0  0  0
 13 83  1  0  0  0
 14 15  1  0  0  0
 14 84  1  0  0  0
 14 85  1  0  0  0
 15 16  1  0  0  0
 15 17  2  0  0  0
 18 19  1  0  0  0
 18 86  1  0  0  0
 19 20  1  0  0  0
 19 22  1  0  0  0
 19 87  1  0  0  0
 20 21  2  0  0  0
 20 24  1  0  0  0
 22 23  1  0  0  0
 22 88  1  0  0  0
 22 89  1  0  0  0
 23 90  1  0  0  0
 24 25  1  0  0  0
 24 91  1  0  0  0
 25 26  1  0  0  0
 25 28  1  0  0  0
 25 92  1  0  0  0
 26 27  2  0  0  0
 26 31  1  0  0  0
 28 29  1  0  0  0
 28 30  1  0  0  0
 28 93  1  0  0  0
 29 94  1  0  0  0
 29 95  1  0  0  0
 29 96  1  0  0  0
 30 97  1  0  0  0
 30 98  1  0  0  0
 30 99  1  0  0  0
 31 32  1  0  0  0
 31100  1  0  0  0
 32 33  1  0  0  0
 32 35  1  0  0  0
 32101  1  0  0  0
 33 34  2  0  0  0
 33 39  1  0  0  0
 35 36  1  0  0  0
 35102  1  0  0  0
 35103  1  0  0  0
 36 37  1  0  0  0
 36 38  2  0  0  0
 39 40  1  0  0  0
 39104  1  0  0  0
 40 41  1  0  0  0
 40 43  1  0  0  0
 40105  1  0  0  0
 41 42  2  0  0  0
 41 55  1  0  0  0
 43 44  1  0  0  0
 43106  1  0  0  0
 43107  1  0  0  0
 44 45  2  0  0  0
 44 46  1  0  0  0
 45 47  1  0  0  0
 45108  1  0  0  0
 46 48  2  0  0  0
 46109  1  0  0  0
 47 49  2  0  0  0
 47110  1  0  0  0
 48 49  1  0  0  0
 48111  1  0  0  0
 49 50  1  0  0  0
 50 51  1  0  0  0
 51 52  1  0  0  0
 51 53  2  0  0  0
 51 54  1  0  0  0
 55 56  1  0  0  0
 55112  1  0  0  0
 56 57  1  0  0  0
 56 59  1  0  0  0
 56113  1  0  0  0
 57 58  2  0  0  0
 57 66  1  0  0  0
 59 60  1  0  0  0
 59114  1  0  0  0
 59115  1  0  0  0
 60 61  1  0  0  0
 60116  1  0  0  0
 60117  1  0  0  0
 61 62  1  0  0  0
 61118  1  0  0  0
 61119  1  0  0  0
 62 63  1  0  0  0
 62120  1  0  0  0
 63 64  2  0  0  0
 63 65  1  0  0  0
 64121  1  0  0  0
 64129  1  0  0  0
 65122  1  0  0  0
 65123  1  0  0  0
 66 67  1  0  0  0
 66124  1  0  0  0
 67 68  1  0  0  0
 67 70  1  0  0  0
 67125  1  0  0  0
 68 69  2  0  0  0
 68 71  1  0  0  0
 70126  1  0  0  0
 70127  1  0  0  0
 70128  1  0  0  0
M  CHG  7   1   1  16  -1  37  -1  52  -1  54  -1  64   1  71  -1
M  END
> <s_m_source_file>
../3bux_ligand.sdf

> <i_m_source_file_index>
1

> <s_epik_input>
Tz1DKFtOSDJdKVtDSDJdW0NASF0oW05IMytdKUMoPU8pW05IXVtDQEBIXShbQ0gyXVtDSDJdQyg9TylbT0hdKUMoPU8pW05IXVtDQEBIXShbQ0gyXVtPSF0pQyg9TylbTkhdW0NAQEhdKFtDSF0oW0NIM10pW0NIM10pQyg9TylbTkhdW0NAQEhdKFtDSDJdQyg9TylbT0hdKUMoPU8pW05IXVtDQEBIXShbQ0gyXWMxW2NIXVtjSF1jKFtjSF1bY0hdMSlPUCg9TykoW09IXSlbT0hdKUMoPU8pW05IXVtDQEhdKEMoPU8pW05IXVtDQEBIXShbQ0gzXSlDKD1PKVtPSF0pW0NIMl1bQ0gyXVtDSDJdW05IXS9DKD1OXFtIXSlbTkgyXQ==

> <s_epik_cmdline>
J2VwaWtfYXBwJywgJy1pbWFlJywgJ2xpZ2FuZF9wcm8ubWFlJywgJy1vbWFlJywgJ2xpZ2FuZF9wcmVwLm1hZScsICctbXMnLCAnMScsICctcGgnLCAnNycsICctcGh0JywgJzAuNScsICctbnQn

> <r_epik_Ionization_Penalty>
  0.2849

> <r_epik_Ionization_Penalty_Charging>
  0.2849

> <r_epik_Ionization_Penalty_Neutral>
  0.0000

> <r_epik_State_Penalty>
  0.1005

> <r_epik_Charging_Adjusted_Penalty>
0.385356997540812

> <i_epik_Tot_Q>
-3

> <i_epik_Tot_abs_Q>
7

> <s_epik_Chemistry_Notes>
This compound has an imine and may undergo hydrolysis.

$$$$
