3bv2_ligand
                    3D
 Schrodinger Suite 2020-3.
 78 83  0  0  1  0            999 V2000
   -4.6210   -2.3900   28.1990 C   0  0  0  0  0  0
   -3.3940   -2.0640   27.5530 C   0  0  0  0  0  0
   -2.6750   -3.1160   26.9230 C   0  0  0  0  0  0
   -0.2280   -3.6620   26.6750 C   0  0  0  0  0  0
   -5.1040   -3.7340   28.2120 C   0  0  0  0  0  0
   -4.3950   -4.7980   27.5870 C   0  0  0  0  0  0
   -3.1650   -4.4680   26.9360 C   0  0  0  0  0  0
   -3.6960    0.7600   17.8220 C   0  0  0  0  0  0
   -5.1580    0.7550   17.3610 C   0  0  0  0  0  0
   -2.2820   -2.5240   23.7620 C   0  0  0  0  0  0
    1.0670    2.4780   13.4420 C   0  0  0  0  0  0
   -3.1380    1.9920   15.7970 C   0  0  0  0  0  0
   -0.1410    3.0770   13.8620 C   0  0  0  0  0  0
   -2.5110    0.7680   22.4150 N   0  0  0  0  0  0
   -2.4590    2.2540   22.4020 N   0  0  0  0  0  0
   -2.4540    2.8430   21.1750 C   0  0  0  0  0  0
   -2.8990    2.1270   20.0870 N   0  0  0  0  0  0
   -3.0100    0.7870   20.1140 C   0  0  0  0  0  0
   -2.7790    0.0060   21.2370 C   0  0  0  0  0  0
   -2.7130   -1.4730   21.5090 C   0  0  0  0  0  0
   -2.4500   -1.5140   22.8980 C   0  0  0  0  0  0
   -2.3150   -0.1640   23.3680 C   0  0  0  0  0  0
   -2.8580   -2.6610   20.5020 C   0  0  0  0  0  0
   -2.5680   -3.6960   23.4820 O   0  0  0  0  0  0
   -1.6840   -2.0030   24.9620 N   0  0  0  0  0  0
   -1.4190   -2.7940   26.2730 C   0  0  1  0  0  0
   -3.3300    0.1510   18.9590 N   0  0  0  0  0  0
   -5.5350    1.4210   16.0450 C   0  0  0  0  0  0
   -4.5020    1.9940   15.3150 C   0  0  0  0  0  0
   -2.7150    1.3850   17.0610 C   0  0  0  0  0  0
   -6.3420    0.0670   18.1160 C   0  0  0  0  0  0
   -2.2140    2.6620   14.9740 N   0  0  0  0  0  0
   -0.8420    2.3370   14.8910 C   0  0  0  0  0  0
   -0.1690    1.5720   15.6070 O   0  0  0  0  0  0
    1.9020    3.1080   12.4600 C   0  0  0  0  0  0
    1.4660    4.2550   11.9600 N   0  0  0  0  0  0
    0.2560    4.7960   12.3830 C   0  0  0  0  0  0
   -0.6150    4.3310   13.3230 C   0  0  0  0  0  0
    3.1150    2.5080   12.0900 N   0  0  0  0  0  0
    3.4800    1.2660   12.8530 C   0  0  0  0  0  0
    4.5050    0.4330   12.1230 C   0  0  0  0  0  0
    5.5990    1.2240   11.8600 O   0  0  0  0  0  0
    5.3920    2.4260   11.0600 C   0  0  0  0  0  0
    4.2530    3.3140   11.5620 C   0  0  0  0  0  0
   -5.1975   -1.6052   28.6887 H   0  0  0  0  0  0
   -3.0185   -1.0408   27.5421 H   0  0  0  0  0  0
   -0.3920   -4.0642   27.6856 H   0  0  0  0  0  0
    0.6884   -3.0537   26.6667 H   0  0  0  0  0  0
   -0.1229   -4.4931   25.9622 H   0  0  0  0  0  0
   -6.0454   -3.9517   28.7165 H   0  0  0  0  0  0
   -4.7730   -5.8202   27.6037 H   0  0  0  0  0  0
   -2.5909   -5.2523   26.4427 H   0  0  0  0  0  0
    1.3696    1.5225   13.8704 H   0  0  0  0  0  0
   -2.1024    3.8678   21.0556 H   0  0  0  0  0  0
   -2.0757    0.0843   24.4020 H   0  0  0  0  0  0
   -3.0622   -2.2660   19.4959 H   0  0  0  0  0  0
   -3.6889   -3.3093   20.8170 H   0  0  0  0  0  0
   -1.9248   -3.2432   20.4849 H   0  0  0  0  0  0
   -1.4060   -0.9408   24.8947 H   0  0  0  0  0  0
   -0.7920   -2.0359   26.7651 H   0  0  0  0  0  0
   -3.2721   -0.9467   19.0010 H   0  0  0  0  0  0
   -6.5662    1.4468   15.6927 H   0  0  0  0  0  0
   -4.7247    2.4573   14.3538 H   0  0  0  0  0  0
   -1.6766    1.4217   17.3904 H   0  0  0  0  0  0
   -5.9704   -0.3822   19.0488 H   0  0  0  0  0  0
   -6.7767   -0.7174   17.4790 H   0  0  0  0  0  0
   -7.1118    0.8167   18.3513 H   0  0  0  0  0  0
   -2.5464    3.4978   14.3408 H   0  0  0  0  0  0
   -0.0375    5.7243   11.8928 H   0  0  0  0  0  0
   -1.5349    4.8322   13.6241 H   0  0  0  0  0  0
    3.8992    1.5462   13.8306 H   0  0  0  0  0  0
    2.5810    0.6500   13.0025 H   0  0  0  0  0  0
    4.7996   -0.4200   12.7520 H   0  0  0  0  0  0
    4.0733    0.0625   11.1816 H   0  0  0  0  0  0
    6.3082    3.0347   11.0689 H   0  0  0  0  0  0
    5.1513    2.1408   10.0252 H   0  0  0  0  0  0
    3.9044    3.9356   10.7241 H   0  0  0  0  0  0
    4.6454    3.9612   12.3602 H   0  0  0  0  0  0
  1  2  2  0  0  0
  1  5  1  0  0  0
  1 45  1  0  0  0
  2  3  1  0  0  0
  2 46  1  0  0  0
  3  7  2  0  0  0
  3 26  1  0  0  0
  4 26  1  0  0  0
  4 47  1  0  0  0
  4 48  1  0  0  0
  4 49  1  0  0  0
  5  6  2  0  0  0
  5 50  1  0  0  0
  6  7  1  0  0  0
  6 51  1  0  0  0
  7 52  1  0  0  0
  8  9  2  0  0  0
  8 27  1  0  0  0
  8 30  1  0  0  0
  9 28  1  0  0  0
  9 31  1  0  0  0
 10 21  1  0  0  0
 10 24  2  0  0  0
 10 25  1  0  0  0
 11 13  2  0  0  0
 11 35  1  0  0  0
 11 53  1  0  0  0
 12 29  1  0  0  0
 12 30  2  0  0  0
 12 32  1  0  0  0
 13 33  1  0  0  0
 13 38  1  0  0  0
 14 15  1  0  0  0
 14 19  1  0  0  0
 14 22  1  0  0  0
 15 16  2  0  0  0
 16 17  1  0  0  0
 16 54  1  0  0  0
 17 18  2  0  0  0
 18 19  1  0  0  0
 18 27  1  0  0  0
 19 20  2  0  0  0
 20 21  1  0  0  0
 20 23  1  0  0  0
 21 22  2  0  0  0
 22 55  1  0  0  0
 23 56  1  0  0  0
 23 57  1  0  0  0
 23 58  1  0  0  0
 25 26  1  0  0  0
 25 59  1  0  0  0
 26 60  1  0  0  0
 27 61  1  0  0  0
 28 29  2  0  0  0
 28 62  1  0  0  0
 29 63  1  0  0  0
 30 64  1  0  0  0
 31 65  1  0  0  0
 31 66  1  0  0  0
 31 67  1  0  0  0
 32 33  1  0  0  0
 32 68  1  0  0  0
 33 34  2  0  0  0
 35 36  2  0  0  0
 35 39  1  0  0  0
 36 37  1  0  0  0
 37 38  2  0  0  0
 37 69  1  0  0  0
 38 70  1  0  0  0
 39 40  1  0  0  0
 39 44  1  0  0  0
 40 41  1  0  0  0
 40 71  1  0  0  0
 40 72  1  0  0  0
 41 42  1  0  0  0
 41 73  1  0  0  0
 41 74  1  0  0  0
 42 43  1  0  0  0
 43 44  1  0  0  0
 43 75  1  0  0  0
 43 76  1  0  0  0
 44 77  1  0  0  0
 44 78  1  0  0  0
M  END
> <s_m_source_file>
../3bv2_ligand.sdf

> <i_m_source_file_index>
1

> <s_epik_input>
W2NIXTFbY0hdW2NIXVtjSF1bY0hdYzFbQ0BASF0oW0NIM10pW05IXUMoPU8pYyhbY0hdMiljKFtDSDNdKWMobjIzKWMobltjSF1uMylbTkhdYzRjKFtDSDNdKVtjSF1bY0hdYyhbY0hdNClbTkhdQyg9TyljNVtjSF1jKG5bY0hdW2NIXTUpTjZbQ0gyXVtDSDJdT1tDSDJdW0NIMl02

> <s_epik_cmdline>
J2VwaWtfYXBwJywgJy1pbWFlJywgJ2xpZ2FuZF9wcm8ubWFlJywgJy1vbWFlJywgJ2xpZ2FuZF9wcmVwLm1hZScsICctbXMnLCAnMScsICctcGgnLCAnNycsICctcGh0JywgJzAuNScsICctbnQn

> <r_lp_tautomer_probability>
1

> <r_epik_Ionization_Penalty>
  0.0000

> <r_epik_Ionization_Penalty_Charging>
  0.0000

> <r_epik_Ionization_Penalty_Neutral>
  0.0000

> <r_epik_State_Penalty>
 -0.0000

> <r_epik_Charging_Adjusted_Penalty>
0

> <i_epik_Tot_Q>
0

> <i_epik_Tot_abs_Q>
0

$$$$
