3bv3_ligand
                    3D
 Schrodinger Suite 2020-3.
 79 84  0  0  1  0            999 V2000
   -3.1210   42.0110   10.5780 C   0  0  0  0  0  0
   -2.0570   42.0580   11.5180 C   0  0  0  0  0  0
   -1.7050   40.7680   12.0830 C   0  0  0  0  0  0
    0.5810   40.5540   12.1950 C   0  0  0  0  0  0
   -3.7780   40.7700   10.2400 C   0  0  0  0  0  0
   -3.4320   39.5250   10.8110 C   0  0  0  0  0  0
   -2.3860   39.5570   11.7340 C   0  0  0  0  0  0
   -3.3010   36.5990   21.1500 C   0  0  0  0  0  0
   -4.6660   36.6370   21.4480 C   0  0  0  0  0  0
   -1.3300   39.8620   15.0570 C   0  0  0  0  0  0
    1.6060   34.9550   25.4500 C   0  0  0  0  0  0
   -2.7630   35.1910   23.1740 C   0  0  0  0  0  0
    0.3770   34.2810   25.0320 C   0  0  0  0  0  0
   -1.7780   36.5650   16.5530 N   0  0  0  0  0  0
   -1.8320   35.2570   16.7080 N   0  0  0  0  0  0
   -2.2080   34.6090   17.8390 C   0  0  0  0  0  0
   -2.5160   35.3560   18.9560 N   0  0  0  0  0  0
   -2.4580   36.6280   18.8230 C   0  0  0  0  0  0
   -2.0820   37.3640   17.6620 C   0  0  0  0  0  0
   -1.9240   38.7700   17.3470 C   0  0  0  0  0  0
   -1.5390   38.7350   15.9400 C   0  0  0  0  0  0
   -1.4600   37.3440   15.5180 C   0  0  0  0  0  0
   -2.1680   40.0650   18.2810 C   0  0  0  0  0  0
   -1.5330   41.0780   15.3650 O   0  0  0  0  0  0
   -1.0070   39.5390   13.8130 N   0  0  0  0  0  0
   -0.6260   40.6740   13.0510 C   0  0  2  0  0  0
   -2.8140   37.2500   20.0220 N   0  0  0  0  0  0
   -5.0760   35.9430   22.6320 C   0  0  0  0  0  0
   -4.1700   35.2330   23.4870 C   0  0  0  0  0  0
   -2.4340   35.9090   21.9750 C   0  0  0  0  0  0
   -5.6490   37.3630   20.5470 C   0  0  0  0  0  0
   -1.8860   34.5260   24.0210 N   0  0  0  0  0  0
   -0.6110   34.9410   24.0770 C   0  0  0  0  0  0
   -0.0920   35.7840   23.3280 O   0  0  0  0  0  0
    2.4440   34.3440   26.3030 C   0  0  0  0  0  0
    2.0730   33.1370   26.7000 C   0  0  0  0  0  0
    1.0180   32.4280   26.3940 C   0  0  0  0  0  0
    0.1450   32.9960   25.5360 C   0  0  0  0  0  0
    3.6130   34.8840   26.7000 N   0  0  0  0  0  0
    3.8250   36.2370   26.3570 C   0  0  0  0  0  0
    5.2620   36.6910   26.7640 C   0  0  0  0  0  0
    6.0890   35.8790   27.5880 O   0  0  0  0  0  0
    5.5030   34.9030   28.4070 C   0  0  0  0  0  0
    4.6850   34.0590   27.3560 C   0  0  0  0  0  0
   -3.4496   42.9339   10.1002 H   0  0  0  0  0  0
   -1.5488   42.9827   11.7914 H   0  0  0  0  0  0
    0.7525   41.5041   11.6678 H   0  0  0  0  0  0
    0.4310   39.7490   11.4605 H   0  0  0  0  0  0
    1.4537   40.3200   12.8224 H   0  0  0  0  0  0
   -4.5832   40.7953    9.5057 H   0  0  0  0  0  0
   -3.9476   38.6013   10.5482 H   0  0  0  0  0  0
   -2.0754   38.6255   12.2072 H   0  0  0  0  0  0
    1.8407   35.9495   25.0705 H   0  0  0  0  0  0
   -2.2654   33.5208   17.8640 H   0  0  0  0  0  0
   -1.1864   36.9967   14.5217 H   0  0  0  0  0  0
   -2.4483   39.7392   19.2936 H   0  0  0  0  0  0
   -2.9772   40.6767   17.8555 H   0  0  0  0  0  0
   -1.2447   40.6610   18.3300 H   0  0  0  0  0  0
   -1.0075   38.5410   13.3505 H   0  0  0  0  0  0
   -0.4514   41.4754   13.7840 H   0  0  0  0  0  0
   -2.6829   38.3421   20.0309 H   0  0  0  0  0  0
   -6.1332   35.9553   22.8972 H   0  0  0  0  0  0
   -4.5454   34.7242   24.3749 H   0  0  0  0  0  0
   -1.3837   35.9098   21.6834 H   0  0  0  0  0  0
   -5.1072   37.8183   19.7049 H   0  0  0  0  0  0
   -6.1613   38.1489   21.1214 H   0  0  0  0  0  0
   -6.3907   36.6477   20.1620 H   0  0  0  0  0  0
   -2.2419   33.6796   24.6268 H   0  0  0  0  0  0
    2.7596   32.6552   27.3961 H   0  0  0  0  0  0
    0.8528   31.4336   26.8088 H   0  0  0  0  0  0
   -0.7482   32.4496   25.2330 H   0  0  0  0  0  0
    3.7069   36.3627   25.2706 H   0  0  0  0  0  0
    3.0914   36.8674   26.8809 H   0  0  0  0  0  0
    5.8711   36.8347   25.8594 H   0  0  0  0  0  0
    5.2035   37.6378   27.3209 H   0  0  0  0  0  0
    6.2919   34.3244   28.9098 H   0  0  0  0  0  0
    4.8683   35.3905   29.1617 H   0  0  0  0  0  0
    4.2244   33.2068   27.8771 H   0  0  0  0  0  0
    5.3819   33.6874   26.5903 H   0  0  0  0  0  0
  1  2  2  0  0  0
  1  5  1  0  0  0
  1 45  1  0  0  0
  2  3  1  0  0  0
  2 46  1  0  0  0
  3  7  2  0  0  0
  3 26  1  0  0  0
  4 26  1  0  0  0
  4 47  1  0  0  0
  4 48  1  0  0  0
  4 49  1  0  0  0
  5  6  2  0  0  0
  5 50  1  0  0  0
  6  7  1  0  0  0
  6 51  1  0  0  0
  7 52  1  0  0  0
  8  9  2  0  0  0
  8 27  1  0  0  0
  8 30  1  0  0  0
  9 28  1  0  0  0
  9 31  1  0  0  0
 10 21  1  0  0  0
 10 24  2  0  0  0
 10 25  1  0  0  0
 11 13  2  0  0  0
 11 35  1  0  0  0
 11 53  1  0  0  0
 12 29  1  0  0  0
 12 30  2  0  0  0
 12 32  1  0  0  0
 13 33  1  0  0  0
 13 38  1  0  0  0
 14 15  1  0  0  0
 14 19  1  0  0  0
 14 22  1  0  0  0
 15 16  2  0  0  0
 16 17  1  0  0  0
 16 54  1  0  0  0
 17 18  2  0  0  0
 18 19  1  0  0  0
 18 27  1  0  0  0
 19 20  2  0  0  0
 20 21  1  0  0  0
 20 23  1  0  0  0
 21 22  2  0  0  0
 22 55  1  0  0  0
 23 56  1  0  0  0
 23 57  1  0  0  0
 23 58  1  0  0  0
 25 26  1  0  0  0
 25 59  1  0  0  0
 26 60  1  0  0  0
 27 61  1  0  0  0
 28 29  2  0  0  0
 28 62  1  0  0  0
 29 63  1  0  0  0
 30 64  1  0  0  0
 31 65  1  0  0  0
 31 66  1  0  0  0
 31 67  1  0  0  0
 32 33  1  0  0  0
 32 68  1  0  0  0
 33 34  2  0  0  0
 35 36  2  0  0  0
 35 39  1  0  0  0
 36 37  1  0  0  0
 36 69  1  0  0  0
 37 38  2  0  0  0
 37 70  1  0  0  0
 38 71  1  0  0  0
 39 40  1  0  0  0
 39 44  1  0  0  0
 40 41  1  0  0  0
 40 72  1  0  0  0
 40 73  1  0  0  0
 41 42  1  0  0  0
 41 74  1  0  0  0
 41 75  1  0  0  0
 42 43  1  0  0  0
 43 44  1  0  0  0
 43 76  1  0  0  0
 43 77  1  0  0  0
 44 78  1  0  0  0
 44 79  1  0  0  0
M  END
> <s_m_source_file>
../3bv3_ligand.sdf

> <i_m_source_file_index>
1

> <s_epik_input>
W2NIXTFbY0hdW2NIXVtjSF1bY0hdYzFbQ0BIXShbQ0gzXSlbTkhdQyg9TyljKFtjSF0yKWMoW0NIM10pYyhuMjMpYyhuW2NIXW4zKVtOSF1jNGMoW0NIM10pW2NIXVtjSF1jKFtjSF00KVtOSF1DKD1PKWM1W2NIXWMoW2NIXVtjSF1bY0hdNSlONltDSDJdW0NIMl1PW0NIMl1bQ0gyXTY=

> <s_epik_cmdline>
J2VwaWtfYXBwJywgJy1pbWFlJywgJ2xpZ2FuZF9wcm8ubWFlJywgJy1vbWFlJywgJ2xpZ2FuZF9wcmVwLm1hZScsICctbXMnLCAnMScsICctcGgnLCAnNycsICctcGh0JywgJzAuNScsICctbnQn

> <r_lp_tautomer_probability>
1

> <r_epik_Ionization_Penalty>
  0.0000

> <r_epik_Ionization_Penalty_Charging>
  0.0000

> <r_epik_Ionization_Penalty_Neutral>
  0.0000

> <r_epik_State_Penalty>
 -0.0000

> <r_epik_Charging_Adjusted_Penalty>
0

> <i_epik_Tot_Q>
0

> <i_epik_Tot_abs_Q>
0

$$$$
