3bva_ligand
                    3D
 Schrodinger Suite 2020-3.
123122  0  0  1  0            999 V2000
   23.5130   25.2630   18.7010 N   0  0  0  0  0  0
   22.9570   26.5810   18.6720 C   0  0  2  0  0  0
   21.5600   26.6530   18.0060 C   0  0  0  0  0  0
   20.9080   27.6950   18.1040 O   0  0  0  0  0  0
   23.8680   27.6060   17.9800 C   0  0  2  0  0  0
   24.0350   27.1310   16.6510 O   0  0  0  0  0  0
   25.2550   27.6750   18.6780 C   0  0  0  0  0  0
   21.1080   25.5940   17.3570 N   0  0  0  0  0  0
   19.8230   25.5800   16.6520 C   0  0  2  0  0  0
   18.9780   24.4680   17.1950 C   0  0  0  0  0  0
   19.0370   23.3320   16.8010 O   0  0  0  0  0  0
   20.0090   25.4230   15.1210 C   0  0  2  0  0  0
   21.0470   26.3660   14.5320 C   0  0  0  0  0  0
   18.6810   25.5440   14.4350 C   0  0  0  0  0  0
   20.7000   27.8180   14.6180 C   0  0  0  0  0  0
   13.2950   21.0540   18.0540 N   0  0  0  0  0  0
   13.1250   19.6530   18.4510 C   0  0  2  0  0  0
   11.7040   19.2390   18.0730 C   0  0  0  0  0  0
   10.7210   19.9210   18.3560 O   0  0  0  0  0  0
   13.4570   19.4510   19.9070 C   0  0  0  0  0  0
   13.2250   18.0700   20.4260 C   0  0  0  0  0  0
   11.8320   17.7650   20.8780 C   0  0  0  0  0  0
   11.1010   18.6710   21.2590 O   0  0  0  0  0  0
   11.3790   16.5420   20.8190 N   0  0  0  0  0  0
   11.6200   18.0400   17.5350 N   0  0  0  0  0  0
   10.3540   17.4770   17.1340 C   0  0  2  0  0  0
   10.2450   16.0810   17.7450 C   0  0  0  0  0  0
   11.1950   15.3030   17.7680 O   0  0  0  0  0  0
    8.9850   15.7220   18.2850 N   0  0  0  0  0  0
   10.2140   17.4190   15.6260 C   0  0  0  0  0  0
   10.6520   18.6750   14.8900 C   0  0  0  0  0  0
   10.6780   18.4630   13.3710 C   0  0  0  0  0  0
    9.3550   18.0530   12.8630 N   0  0  0  0  0  0
    9.0810   17.8760   11.5920 C   0  0  0  0  0  0
   10.0980   18.0770   10.7490 N   0  0  0  0  0  0
    7.8840   17.5060   11.1510 N   0  3  0  0  0  0
   23.6500   24.5060   19.9100 C   0  0  0  0  0  0
   23.2500   25.0390   20.9460 O   0  0  0  0  0  0
   24.2670   23.1760   19.7500 C   0  0  0  0  0  0
   18.1910   24.8030   18.2780 N   0  0  0  0  0  0
   17.4300   23.8350   19.0620 C   0  0  2  0  0  0
   15.9730   23.8170   18.7570 C   0  0  0  0  0  0
   17.7360   24.0470   20.5580 C   0  0  0  0  0  0
   19.1910   24.0780   20.9400 C   0  0  0  0  0  0
   19.9770   22.8930   20.5270 C   0  0  0  0  0  0
   19.4160   21.5720   21.0660 C   0  0  0  0  0  0
   15.6780   23.6430   17.3630 N   0  3  0  0  0  0
   14.4680   22.9350   17.0580 C   0  0  2  0  0  0
   14.4680   21.5300   17.6480 C   0  0  0  0  0  0
   15.4760   20.8120   17.6670 O   0  0  0  0  0  0
   14.1020   22.9110   15.5610 C   0  0  0  0  0  0
   15.0530   22.1010   14.7650 C   0  0  0  0  0  0
   14.5350   21.5870   13.4440 C   0  0  0  0  0  0
   14.0640   20.1500   13.6340 C   0  0  0  0  0  0
   23.8565   24.7903   17.7690 H   0  0  0  0  0  0
   22.8999   26.7612   19.7556 H   0  0  0  0  0  0
   23.4175   28.6086   17.9373 H   0  0  0  0  0  0
   23.1600   27.0137   15.9948 H   0  0  0  0  0  0
   25.1296   28.0424   19.7072 H   0  0  0  0  0  0
   25.9118   28.3599   18.1216 H   0  0  0  0  0  0
   25.7052   26.6715   18.6991 H   0  0  0  0  0  0
   21.7430   24.6958   17.3610 H   0  0  0  0  0  0
   19.3417   26.5449   16.8696 H   0  0  0  0  0  0
   20.4011   24.4171   14.9101 H   0  0  0  0  0  0
   22.0020   26.2376   15.0626 H   0  0  0  0  0  0
   21.1867   26.1374   13.4651 H   0  0  0  0  0  0
   17.9662   24.8453   14.8941 H   0  0  0  0  0  0
   18.7961   25.3024   13.3680 H   0  0  0  0  0  0
   18.3067   26.5730   14.5397 H   0  0  0  0  0  0
   21.5071   28.4151   14.1685 H   0  0  0  0  0  0
   20.5765   28.1036   15.6731 H   0  0  0  0  0  0
   19.7611   28.0033   14.0756 H   0  0  0  0  0  0
   12.4381   21.7430   18.0874 H   0  0  0  0  0  0
   13.8537   19.0306   17.9110 H   0  0  0  0  0  0
   14.5210   19.6741   20.0748 H   0  0  0  0  0  0
   12.8401   20.1240   20.5206 H   0  0  0  0  0  0
   13.4576   17.3384   19.6382 H   0  0  0  0  0  0
   13.8744   17.8912   21.2957 H   0  0  0  0  0  0
   12.0354   15.7283   20.4769 H   0  0  0  0  0  0
   10.3410   16.3253   21.1114 H   0  0  0  0  0  0
   12.5470   17.4649   17.3940 H   0  0  0  0  0  0
    9.5772   18.1575   17.5128 H   0  0  0  0  0  0
    8.1491   16.4362   18.2526 H   0  0  0  0  0  0
    8.8429   14.7291   18.7366 H   0  0  0  0  0  0
   10.8262   16.5942   15.2324 H   0  0  0  0  0  0
    9.1594   17.2513   15.3618 H   0  0  0  0  0  0
    9.9520   19.4937   15.1132 H   0  0  0  0  0  0
   11.6634   18.9579   15.2172 H   0  0  0  0  0  0
   10.9675   19.4011   12.8748 H   0  0  0  0  0  0
   11.4065   17.6770   13.1229 H   0  0  0  0  0  0
    8.5267   17.8769   13.5651 H   0  0  0  0  0  0
   11.0810   18.3832   11.1362 H   0  0  0  0  0  0
    9.9522   17.9363    9.6678 H   0  0  0  0  0  0
    7.0608   17.3461   11.8629 H   0  0  0  0  0  0
   24.5080   23.0088   18.6898 H   0  0  0  0  0  0
   23.5643   22.4022   20.0928 H   0  0  0  0  0  0
   25.1888   23.1251   20.3481 H   0  0  0  0  0  0
   18.1570   25.8709   18.5395 H   0  0  0  0  0  0
   17.7622   22.8453   18.7154 H   0  0  0  0  0  0
   15.4952   22.9876   19.2991 H   0  0  0  0  0  0
   15.5208   24.7692   19.0713 H   0  0  0  0  0  0
   17.3156   25.0093   20.8855 H   0  0  0  0  0  0
   17.2857   23.2319   21.1435 H   0  0  0  0  0  0
   19.6734   24.9508   20.4758 H   0  0  0  0  0  0
   19.2815   24.1478   22.0341 H   0  0  0  0  0  0
   19.9870   22.8241   19.4292 H   0  0  0  0  0  0
   21.0082   22.9896   20.8977 H   0  0  0  0  0  0
   20.0460   20.7385   20.7219 H   0  0  0  0  0  0
   18.3892   21.4321   20.6972 H   0  0  0  0  0  0
   19.4103   21.5976   22.1657 H   0  0  0  0  0  0
   15.5840   24.6280   16.8824 H   0  0  0  0  0  0
   16.4908   23.0774   16.8840 H   0  0  0  0  0  0
   13.7328   23.5631   17.5824 H   0  0  0  0  0  0
   13.0979   22.4795   15.4359 H   0  0  0  0  0  0
   14.1122   23.9370   15.1645 H   0  0  0  0  0  0
   15.9427   22.7043   14.5317 H   0  0  0  0  0  0
   15.3526   21.2143   15.3429 H   0  0  0  0  0  0
   13.6964   22.2154   13.1095 H   0  0  0  0  0  0
   15.3405   21.6218   12.6957 H   0  0  0  0  0  0
   13.6828   19.7598   12.6788 H   0  0  0  0  0  0
   13.2626   20.1234   14.3870 H   0  0  0  0  0  0
   14.9067   19.5298   13.9733 H   0  0  0  0  0  0
    7.7158   17.3595   10.0738 H   0  0  0  0  0  0
  1  2  1  0  0  0
  1 37  1  0  0  0
  1 55  1  0  0  0
  2  3  1  0  0  0
  2  5  1  0  0  0
  2 56  1  0  0  0
  3  4  2  0  0  0
  3  8  1  0  0  0
  5  6  1  0  0  0
  5  7  1  0  0  0
  5 57  1  0  0  0
  6 58  1  0  0  0
  7 59  1  0  0  0
  7 60  1  0  0  0
  7 61  1  0  0  0
  8  9  1  0  0  0
  8 62  1  0  0  0
  9 10  1  0  0  0
  9 12  1  0  0  0
  9 63  1  0  0  0
 10 11  2  0  0  0
 10 40  1  0  0  0
 12 13  1  0  0  0
 12 14  1  0  0  0
 12 64  1  0  0  0
 13 15  1  0  0  0
 13 65  1  0  0  0
 13 66  1  0  0  0
 14 67  1  0  0  0
 14 68  1  0  0  0
 14 69  1  0  0  0
 15 70  1  0  0  0
 15 71  1  0  0  0
 15 72  1  0  0  0
 16 17  1  0  0  0
 16 49  1  0  0  0
 16 73  1  0  0  0
 17 18  1  0  0  0
 17 20  1  0  0  0
 17 74  1  0  0  0
 18 19  2  0  0  0
 18 25  1  0  0  0
 20 21  1  0  0  0
 20 75  1  0  0  0
 20 76  1  0  0  0
 21 22  1  0  0  0
 21 77  1  0  0  0
 21 78  1  0  0  0
 22 23  2  0  0  0
 22 24  1  0  0  0
 24 79  1  0  0  0
 24 80  1  0  0  0
 25 26  1  0  0  0
 25 81  1  0  0  0
 26 27  1  0  0  0
 26 30  1  0  0  0
 26 82  1  0  0  0
 27 28  2  0  0  0
 27 29  1  0  0  0
 29 83  1  0  0  0
 29 84  1  0  0  0
 30 31  1  0  0  0
 30 85  1  0  0  0
 30 86  1  0  0  0
 31 32  1  0  0  0
 31 87  1  0  0  0
 31 88  1  0  0  0
 32 33  1  0  0  0
 32 89  1  0  0  0
 32 90  1  0  0  0
 33 34  1  0  0  0
 33 91  1  0  0  0
 34 35  1  0  0  0
 34 36  2  0  0  0
 35 92  1  0  0  0
 35 93  1  0  0  0
 36 94  1  0  0  0
 36123  1  0  0  0
 37 38  2  0  0  0
 37 39  1  0  0  0
 39 95  1  0  0  0
 39 96  1  0  0  0
 39 97  1  0  0  0
 40 41  1  0  0  0
 40 98  1  0  0  0
 41 42  1  0  0  0
 41 43  1  0  0  0
 41 99  1  0  0  0
 42 47  1  0  0  0
 42100  1  0  0  0
 42101  1  0  0  0
 43 44  1  0  0  0
 43102  1  0  0  0
 43103  1  0  0  0
 44 45  1  0  0  0
 44104  1  0  0  0
 44105  1  0  0  0
 45 46  1  0  0  0
 45106  1  0  0  0
 45107  1  0  0  0
 46108  1  0  0  0
 46109  1  0  0  0
 46110  1  0  0  0
 47 48  1  0  0  0
 47111  1  0  0  0
 47112  1  0  0  0
 48 49  1  0  0  0
 48 51  1  0  0  0
 48113  1  0  0  0
 49 50  2  0  0  0
 51 52  1  0  0  0
 51114  1  0  0  0
 51115  1  0  0  0
 52 53  1  0  0  0
 52116  1  0  0  0
 52117  1  0  0  0
 53 54  1  0  0  0
 53118  1  0  0  0
 53119  1  0  0  0
 54120  1  0  0  0
 54121  1  0  0  0
 54122  1  0  0  0
M  CHG  2  36   1  47   1
M  END
> <s_m_source_file>
../3bva_ligand.sdf

> <i_m_source_file_index>
1

> <s_epik_input>
Tz1DKFtDSDNdKVtOSF1bQ0BASF0oW0NASF0oW09IXSlbQ0gzXSlDKD1PKVtOSF1bQ0BASF0oW0NAQEhdKFtDSDNdKVtDSDJdW0NIM10pQyg9TylbTkhdW0NAQEhdKFtDSDJdW0NIMl1bQ0gyXVtDSDNdKVtDSDJdW05IMitdW0NAQEhdKFtDSDJdW0NIMl1bQ0gyXVtDSDNdKUMoPU8pW05IXVtDQEBIXShbQ0gyXVtDSDJdQyg9TylbTkgyXSlDKD1PKVtOSF1bQ0BIXShDKD1PKVtOSDJdKVtDSDJdW0NIMl1bQ0gyXVtOSF0vQyhbTkgyXSk9TlxbSF0=

> <s_epik_cmdline>
J2VwaWtfYXBwJywgJy1pbWFlJywgJ2xpZ2FuZF9wcm8ubWFlJywgJy1vbWFlJywgJ2xpZ2FuZF9wcmVwLm1hZScsICctbXMnLCAnMScsICctcGgnLCAnNycsICctcGh0JywgJzAuNScsICctbnQn

> <r_epik_Ionization_Penalty>
  0.1921

> <r_epik_Ionization_Penalty_Charging>
  0.1921

> <r_epik_Ionization_Penalty_Neutral>
  0.0000

> <r_epik_State_Penalty>
  0.1818

> <r_epik_Charging_Adjusted_Penalty>
0.37396405168134

> <i_epik_Tot_Q>
2

> <i_epik_Tot_abs_Q>
2

> <s_epik_Chemistry_Notes>
This compound has an imine and may undergo hydrolysis.

$$$$
