3bvb_ligand
                    3D
 Schrodinger Suite 2020-3.
 75 78  0  0  1  0            999 V2000
    8.0340   57.2280   13.7800 N   0  0  0  0  0  0
    8.4550   58.4550   14.2740 C   0  0  0  0  0  0
    9.7570   58.9070   14.0660 C   0  0  0  0  0  0
   10.2000   60.1120   14.5510 C   0  0  0  0  0  0
    9.3540   60.9140   15.2930 C   0  0  0  0  0  0
    8.0190   60.5100   15.4740 C   0  0  0  0  0  0
    7.6000   59.2520   15.0290 C   0  0  0  0  0  0
   10.4420   62.2660   15.8340 S   0  0  0  0  0  0
   11.4800   62.4290   14.8370 O   0  0  0  0  0  0
    9.5230   63.3280   16.2310 O   0  0  0  0  0  0
   11.1830   61.7540   17.2860 N   0  0  3  0  0  0
   10.3420   61.5500   18.4840 C   0  0  0  0  0  0
   10.7190   62.2700   19.8050 C   0  0  0  0  0  0
   10.4990   63.7900   19.5990 C   0  0  0  0  0  0
    9.6690   61.7890   20.8300 C   0  0  0  0  0  0
   12.5300   61.1070   17.2530 C   0  0  0  0  0  0
   13.5730   62.0410   17.9410 C   0  0  1  0  0  0
   14.6860   61.3240   18.4980 O   0  0  0  0  0  0
   14.1090   63.1300   17.0060 C   0  0  1  0  0  0
   15.0270   63.9890   17.7960 N   0  0  0  0  0  0
   14.7050   65.2870   18.0430 C   0  0  0  0  0  0
   13.7070   65.9000   17.6560 O   0  0  0  0  0  0
   15.6850   65.8030   18.8400 O   0  0  0  0  0  0
   15.5860   67.2390   19.1250 C   0  0  1  0  0  0
   16.2060   67.4560   20.5090 C   0  0  0  0  0  0
   17.6270   67.3850   20.3100 O   0  0  0  0  0  0
   17.9210   67.9290   19.0010 C   0  0  1  0  0  0
   18.7560   67.0290   18.3360 O   0  0  0  0  0  0
   18.0690   66.4330   17.2620 C   0  0  0  0  0  0
   16.9400   67.4030   16.8700 C   0  0  0  0  0  0
   16.5730   68.0030   18.2470 C   0  0  1  0  0  0
   14.8840   62.6330   15.7620 C   0  0  0  0  0  0
   16.6120   64.2390   14.7830 C   0  0  0  0  0  0
   17.0310   65.3160   14.0040 C   0  0  0  0  0  0
   16.0340   66.0110   13.3300 C   0  0  0  0  0  0
   14.7220   65.5930   13.3960 C   0  0  0  0  0  0
   14.3230   64.5230   14.1760 C   0  0  0  0  0  0
   15.3010   63.7860   14.8580 C   0  0  0  0  0  0
    8.7218   56.6095   13.1847 H   0  0  0  0  0  0
    7.0126   56.8742   13.9838 H   0  0  0  0  0  0
   10.4469   58.2821   13.4988 H   0  0  0  0  0  0
   11.2209   60.4370   14.3506 H   0  0  0  0  0  0
    7.3097   61.1785   15.9619 H   0  0  0  0  0  0
    6.6000   58.8946   15.2745 H   0  0  0  0  0  0
    9.3158   61.8851   18.2729 H   0  0  0  0  0  0
   10.3321   60.4821   18.7476 H   0  0  0  0  0  0
   11.7536   62.0696   20.1203 H   0  0  0  0  0  0
   11.2314   64.1713   18.8722 H   0  0  0  0  0  0
   10.6283   64.3125   20.5583 H   0  0  0  0  0  0
    9.4812   63.9651   19.2203 H   0  0  0  0  0  0
    9.7934   60.7099   21.0035 H   0  0  0  0  0  0
    8.6593   61.9836   20.4393 H   0  0  0  0  0  0
    9.8063   62.3309   21.7773 H   0  0  0  0  0  0
   12.4887   60.1468   17.7881 H   0  0  0  0  0  0
   12.8273   60.9322   16.2085 H   0  0  0  0  0  0
   13.0788   62.4993   18.8103 H   0  0  0  0  0  0
   14.5107   60.4955   19.2000 H   0  0  0  0  0  0
   13.2304   63.6820   16.6408 H   0  0  0  0  0  0
   15.9701   63.5758   18.1830 H   0  0  0  0  0  0
   14.5314   67.5203   18.9884 H   0  0  0  0  0  0
   15.9037   68.4403   20.8959 H   0  0  0  0  0  0
   15.8571   66.6697   21.1945 H   0  0  0  0  0  0
   18.4780   68.8745   19.0769 H   0  0  0  0  0  0
   18.7633   66.2794   16.4227 H   0  0  0  0  0  0
   17.6597   65.4632   17.5815 H   0  0  0  0  0  0
   17.3262   68.1460   16.1567 H   0  0  0  0  0  0
   16.1181   66.8398   16.4038 H   0  0  0  0  0  0
   16.0823   68.9723   18.0751 H   0  0  0  0  0  0
   15.7913   62.1007   16.0837 H   0  0  0  0  0  0
   14.2458   61.9514   15.1805 H   0  0  0  0  0  0
   17.3644   63.7165   15.3737 H   0  0  0  0  0  0
   18.0813   65.5973   13.9277 H   0  0  0  0  0  0
   16.2914   66.8936   12.7445 H   0  0  0  0  0  0
   13.9714   66.1255   12.8119 H   0  0  0  0  0  0
   13.2689   64.2580   14.2588 H   0  0  0  0  0  0
  1  2  1  0  0  0
  1 39  1  0  0  0
  1 40  1  0  0  0
  2  3  2  0  0  0
  2  7  1  0  0  0
  3  4  1  0  0  0
  3 41  1  0  0  0
  4  5  2  0  0  0
  4 42  1  0  0  0
  5  6  1  0  0  0
  5  8  1  0  0  0
  6  7  2  0  0  0
  6 43  1  0  0  0
  7 44  1  0  0  0
  8  9  2  0  0  0
  8 10  2  0  0  0
  8 11  1  0  0  0
 11 12  1  0  0  0
 11 16  1  0  0  0
 12 13  1  0  0  0
 12 45  1  0  0  0
 12 46  1  0  0  0
 13 14  1  0  0  0
 13 15  1  0  0  0
 13 47  1  0  0  0
 14 48  1  0  0  0
 14 49  1  0  0  0
 14 50  1  0  0  0
 15 51  1  0  0  0
 15 52  1  0  0  0
 15 53  1  0  0  0
 16 17  1  0  0  0
 16 54  1  0  0  0
 16 55  1  0  0  0
 17 18  1  0  0  0
 17 19  1  0  0  0
 17 56  1  0  0  0
 18 57  1  0  0  0
 19 20  1  0  0  0
 19 32  1  0  0  0
 19 58  1  0  0  0
 20 21  1  0  0  0
 20 59  1  0  0  0
 21 22  2  0  0  0
 21 23  1  0  0  0
 23 24  1  0  0  0
 24 25  1  0  0  0
 24 31  1  0  0  0
 24 60  1  0  0  0
 25 26  1  0  0  0
 25 61  1  0  0  0
 25 62  1  0  0  0
 26 27  1  0  0  0
 27 28  1  0  0  0
 27 31  1  0  0  0
 27 63  1  0  0  0
 28 29  1  0  0  0
 29 30  1  0  0  0
 29 64  1  0  0  0
 29 65  1  0  0  0
 30 31  1  0  0  0
 30 66  1  0  0  0
 30 67  1  0  0  0
 31 68  1  0  0  0
 32 38  1  0  0  0
 32 69  1  0  0  0
 32 70  1  0  0  0
 33 34  2  0  0  0
 33 38  1  0  0  0
 33 71  1  0  0  0
 34 35  1  0  0  0
 34 72  1  0  0  0
 35 36  2  0  0  0
 35 73  1  0  0  0
 36 37  1  0  0  0
 36 74  1  0  0  0
 37 38  2  0  0  0
 37 75  1  0  0  0
M  END
> <s_m_source_file>
../3bvb_ligand.sdf

> <i_m_source_file_index>
1

> <s_epik_input>
W05IMl1jMVtjSF1bY0hdYyhbY0hdW2NIXTEpUyg9TykoPU8pTihbQ0gyXVtDSF0oW0NIM10pW0NIM10pW0NIMl1bQ0BASF0oW09IXSlbQ0BASF0oW05IXUMoPU8pT1tDQEBIXShbQ0gyXU8yKVtDQEBIXShbQ0BASF0yMylbQ0gyXVtDSDJdTzMpW0NIMl1jNFtjSF1bY0hdW2NIXVtjSF1bY0hdNA==

> <s_epik_cmdline>
J2VwaWtfYXBwJywgJy1pbWFlJywgJ2xpZ2FuZF9wcm8ubWFlJywgJy1vbWFlJywgJ2xpZ2FuZF9wcmVwLm1hZScsICctbXMnLCAnMScsICctcGgnLCAnNycsICctcGh0JywgJzAuNScsICctbnQn

> <r_lp_tautomer_probability>
1

> <r_epik_Ionization_Penalty>
  0.0000

> <r_epik_Ionization_Penalty_Charging>
  0.0000

> <r_epik_Ionization_Penalty_Neutral>
  0.0000

> <r_epik_State_Penalty>
 -0.0000

> <r_epik_Charging_Adjusted_Penalty>
0

> <i_epik_Tot_Q>
0

> <i_epik_Tot_abs_Q>
0

> <s_epik_Chemistry_Notes>
This compound has an ester and may undergo hydrolysis at high or low pH. This compound contains an acetal/aminal-like group ( X-CH(R)-Y where X, Y are N, S, or O) that may be acid/base labile, releasing an aldehyde.

$$$$
