3bwf_ligand
                    3D
 Schrodinger Suite 2020-3.
 41 51  0  0  1  0            999 V2000
   21.4310  -40.5260    0.7200 O   0  0  0  0  0  0
   20.6120  -39.5920    0.8160 C   0  0  0  0  0  0
   20.0610  -38.8480   -0.2140 C   0  0  0  0  0  0
   20.2310  -38.9350   -1.6280 C   0  0  0  0  0  0
   21.0640  -39.8200   -2.3450 C   0  0  0  0  0  0
   21.1200  -39.7620   -3.7560 C   0  0  0  0  0  0
   20.3350  -38.8340   -4.4700 C   0  0  0  0  0  0
   19.5040  -38.0470   -2.4090 C   0  0  0  0  0  0
   19.5510  -37.9580   -3.8030 N   0  0  0  0  0  0
   18.6490  -37.1450   -1.7840 C   0  0  0  0  0  0
   17.9390  -36.2710   -2.5450 N   0  0  0  0  0  0
   16.0570  -36.6120   -4.9800 C   0  0  0  0  0  0
   16.6390  -37.8660   -5.4010 C   0  0  0  0  0  0
   17.5770  -37.5910   -6.4560 C   0  0  0  0  0  0
   17.5730  -36.1750   -6.6770 C   0  0  0  0  0  0
   16.6410  -35.5700   -5.7680 C   0  0  0  0  0  0
   19.5000  -35.1790   -4.7110 C   0  0  0  0  0  0
   20.2600  -34.3710   -4.7880 O   0  0  0  0  0  0
   20.1150  -39.1530    2.0310 N   0  0  0  0  0  0
   19.2320  -38.1350    1.7810 C   0  0  0  0  0  0
   18.6390  -37.5500    2.6790 O   0  0  0  0  0  0
   19.1720  -37.9140    0.4020 C   0  0  0  0  0  0
   18.4460  -37.0060   -0.4170 C   0  0  0  0  0  0
   17.5270  -35.9680   -0.2910 C   0  0  0  0  0  0
   17.2140  -35.5450   -1.6100 C   0  0  0  0  0  0
   16.2820  -34.5310   -1.8350 C   0  0  0  0  0  0
   15.7040  -33.8940   -0.7380 C   0  0  0  0  0  0
   15.9880  -34.2990    0.5890 C   0  0  0  0  0  0
   15.3620  -33.6850    1.6440 O   0  0  0  0  0  0
   16.8970  -35.3650    0.8120 C   0  0  0  0  0  0
   18.2330  -36.5540   -4.6190 Os  0  0  0  0  0  0
   21.6716  -40.5576   -1.8003 H   0  0  0  0  0  0
   21.7812  -40.4456   -4.3088 H   0  0  0  0  0  0
   20.3603  -38.8229   -5.5597 H   0  0  0  0  0  0
   16.0183  -34.7254   -6.0980 H   0  0  0  0  0  0
   18.8498  -35.2400   -3.8258 H   0  0  0  0  0  0
   20.4521  -39.6246    2.9659 H   0  0  0  0  0  0
   16.0108  -34.2422   -2.8505 H   0  0  0  0  0  0
   15.0171  -33.0644   -0.9056 H   0  0  0  0  0  0
   14.6587  -32.8592    1.4612 H   0  0  0  0  0  0
   17.1042  -35.7118    1.8244 H   0  0  0  0  0  0
  1  2  2  0  0  0
  2  3  1  0  0  0
  2 19  1  0  0  0
  3  4  2  0  0  0
  3 22  1  0  0  0
  4  5  1  0  0  0
  4  8  1  0  0  0
  5  6  2  0  0  0
  5 32  1  0  0  0
  6  7  1  0  0  0
  6 33  1  0  0  0
  7  9  1  0  0  0
  7 34  1  0  0  0
  8  9  1  0  0  0
  8 10  2  0  0  0
  9 31  1  0  0  0
 10 11  1  0  0  0
 10 23  1  0  0  0
 11 25  1  0  0  0
 11 31  1  0  0  0
 12 13  2  0  0  0
 12 16  1  0  0  0
 12 31  1  0  0  0
 13 14  1  0  0  0
 13 31  1  0  0  0
 14 15  2  0  0  0
 14 31  1  0  0  0
 15 16  1  0  0  0
 15 31  1  0  0  0
 16 31  1  0  0  0
 16 35  1  0  0  0
 17 18  2  0  0  0
 17 31  1  0  0  0
 17 36  1  0  0  0
 19 20  1  0  0  0
 19 37  1  0  0  0
 20 21  2  0  0  0
 20 22  1  0  0  0
 22 23  2  0  0  0
 23 24  1  0  0  0
 24 25  2  0  0  0
 24 30  1  0  0  0
 25 26  1  0  0  0
 26 27  2  0  0  0
 26 38  1  0  0  0
 27 28  1  0  0  0
 27 39  1  0  0  0
 28 29  1  0  0  0
 28 30  2  0  0  0
 29 40  1  0  0  0
 30 41  1  0  0  0
M  END
> <s_m_source_file>
../3bwf_ligand.sdf

> <i_m_source_file_index>
1

> <s_epik_input>
W2NIXTFbY0hdYyhbT0hdKVtjSF1jMmMxbjNjNGMyYyhDKD1PKVtOSF1DNT1PKWM1YyhbQ0hdPVtDSF1bQ0gyXTYpYzRONltPc10xMzc4OShbQ0hdPU8pQzI9QzdDOD1DOVtDSF0xMg==

> <s_epik_cmdline>
J2VwaWtfYXBwJywgJy1pbWFlJywgJ2xpZ2FuZF9wcm8ubWFlJywgJy1vbWFlJywgJ2xpZ2FuZF9wcmVwLm1hZScsICctbXMnLCAnMScsICctcGgnLCAnNycsICctcGh0JywgJzAuNScsICctbnQn

> <r_lp_tautomer_probability>
1

> <r_epik_Ionization_Penalty>
  0.0116

> <r_epik_Ionization_Penalty_Charging>
  0.0000

> <r_epik_Ionization_Penalty_Neutral>
  0.0116

> <r_epik_State_Penalty>
 -0.0000

> <r_epik_Charging_Adjusted_Penalty>
0

> <i_epik_Tot_Q>
0

> <i_epik_Tot_abs_Q>
0

$$$$
