3bwk_ligand
                    3D
 Schrodinger Suite 2020-3.
 76 78  0  0  1  0            999 V2000
    8.7230  -20.2820   52.2150 N   0  0  0  0  0  0
    8.8950  -21.4270   52.8710 C   0  0  0  0  0  0
    8.0060  -22.2820   52.8880 O   0  0  0  0  0  0
   10.0410  -21.6910   53.5470 N   0  0  0  0  0  0
   11.1710  -20.7480   53.6540 C   0  0  0  0  0  0
   12.4860  -21.5070   53.4910 C   0  0  0  0  0  0
   12.4500  -22.6370   54.2870 O   0  0  0  0  0  0
   11.4860  -23.5950   53.9330 C   0  0  0  0  0  0
   10.1790  -22.9470   54.2930 C   0  0  0  0  0  0
    7.5140  -20.0320   51.4130 C   0  0  2  0  0  0
    7.7340  -21.0070   50.2160 C   0  0  0  0  0  0
    8.8470  -21.1150   49.6600 O   0  0  0  0  0  0
    6.6900  -21.7460   49.8830 N   0  0  0  0  0  0
    6.7380  -22.7370   48.7710 C   0  0  2  0  0  0
    5.8250  -22.3050   47.6310 C   0  0  0  0  0  0
    4.3300  -22.3660   47.9880 C   0  0  0  0  0  0
    3.3210  -23.6420   47.1550 S   0  0  0  0  0  0
    2.9470  -23.1890   45.8420 O   0  0  0  0  0  0
    4.1160  -24.8720   46.9760 O   0  0  0  0  0  0
    1.8450  -23.9340   48.0120 C   0  0  0  0  0  0
    1.6450  -23.4550   49.3100 C   0  0  0  0  0  0
    0.4610  -23.7020   50.0060 C   0  0  0  0  0  0
   -0.5660  -24.4220   49.3780 C   0  0  0  0  0  0
   -0.3960  -24.9230   48.0690 C   0  0  0  0  0  0
    0.8200  -24.6640   47.3840 C   0  0  0  0  0  0
    6.3830  -24.1390   49.2640 C   0  0  0  0  0  0
    7.4740  -24.6640   50.1760 C   0  0  0  0  0  0
    7.1390  -26.0240   50.7290 C   0  0  0  0  0  0
    7.6630  -27.1680   50.1290 C   0  0  0  0  0  0
    7.3540  -28.4360   50.6240 C   0  0  0  0  0  0
    6.5050  -28.5600   51.7310 C   0  0  0  0  0  0
    5.9840  -27.4020   52.3590 C   0  0  0  0  0  0
    6.3090  -26.1240   51.8560 C   0  0  0  0  0  0
    7.5040  -18.6130   50.8350 C   0  0  0  0  0  0
    7.4270  -17.4990   51.8490 C   0  0  0  0  0  0
    6.2710  -17.6320   52.8270 C   0  0  0  0  0  0
    7.4170  -16.1680   51.1070 C   0  0  0  0  0  0
    9.5077  -19.5140   52.2811 H   0  0  0  0  0  0
   11.0881  -19.9854   52.8656 H   0  0  0  0  0  0
   11.1494  -20.2602   54.6397 H   0  0  0  0  0  0
   12.6138  -21.7970   52.4377 H   0  0  0  0  0  0
   13.3223  -20.8616   53.7976 H   0  0  0  0  0  0
   11.5596  -23.8088   52.8565 H   0  0  0  0  0  0
   11.6609  -24.5193   54.5032 H   0  0  0  0  0  0
   10.1564  -22.7367   55.3725 H   0  0  0  0  0  0
    9.3492  -23.6208   54.0333 H   0  0  0  0  0  0
    6.6125  -20.1552   52.0312 H   0  0  0  0  0  0
    5.7627  -21.6099   50.4588 H   0  0  0  0  0  0
    7.7750  -22.7535   48.4046 H   0  0  0  0  0  0
    6.0552  -21.2666   47.3503 H   0  0  0  0  0  0
    5.9844  -22.9631   46.7641 H   0  0  0  0  0  0
    4.2178  -22.5609   49.0648 H   0  0  0  0  0  0
    3.8537  -21.4066   47.7375 H   0  0  0  0  0  0
    2.4329  -22.8746   49.7900 H   0  0  0  0  0  0
    0.3356  -23.3395   51.0263 H   0  0  0  0  0  0
   -1.5039  -24.5963   49.9054 H   0  0  0  0  0  0
   -1.1873  -25.5005   47.5912 H   0  0  0  0  0  0
    0.9598  -25.0322   46.3676 H   0  0  0  0  0  0
    5.4347  -24.1029   49.8202 H   0  0  0  0  0  0
    6.2772  -24.8148   48.4025 H   0  0  0  0  0  0
    8.4156  -24.7440   49.6130 H   0  0  0  0  0  0
    7.6097  -23.9729   51.0210 H   0  0  0  0  0  0
    8.3204  -27.0714   49.2649 H   0  0  0  0  0  0
    7.7713  -29.3252   50.1514 H   0  0  0  0  0  0
    6.2449  -29.5485   52.1097 H   0  0  0  0  0  0
    5.3337  -27.4978   53.2285 H   0  0  0  0  0  0
    5.9203  -25.2263   52.3367 H   0  0  0  0  0  0
    8.4262  -18.4451   50.2593 H   0  0  0  0  0  0
    6.6325  -18.4921   50.1748 H   0  0  0  0  0  0
    8.3203  -17.5679   52.4872 H   0  0  0  0  0  0
    6.3283  -18.6076   53.3319 H   0  0  0  0  0  0
    5.3187  -17.5567   52.2815 H   0  0  0  0  0  0
    6.3295  -16.8279   53.5753 H   0  0  0  0  0  0
    8.2719  -16.1270   50.4160 H   0  0  0  0  0  0
    7.4913  -15.3437   51.8316 H   0  0  0  0  0  0
    6.4806  -16.0726   50.5378 H   0  0  0  0  0  0
  1  2  1  0  0  0
  1 10  1  0  0  0
  1 38  1  0  0  0
  2  3  2  0  0  0
  2  4  1  0  0  0
  4  5  1  0  0  0
  4  9  1  0  0  0
  5  6  1  0  0  0
  5 39  1  0  0  0
  5 40  1  0  0  0
  6  7  1  0  0  0
  6 41  1  0  0  0
  6 42  1  0  0  0
  7  8  1  0  0  0
  8  9  1  0  0  0
  8 43  1  0  0  0
  8 44  1  0  0  0
  9 45  1  0  0  0
  9 46  1  0  0  0
 10 11  1  0  0  0
 10 34  1  0  0  0
 10 47  1  0  0  0
 11 12  2  0  0  0
 11 13  1  0  0  0
 13 14  1  0  0  0
 13 48  1  0  0  0
 14 15  1  0  0  0
 14 26  1  0  0  0
 14 49  1  0  0  0
 15 16  1  0  0  0
 15 50  1  0  0  0
 15 51  1  0  0  0
 16 17  1  0  0  0
 16 52  1  0  0  0
 16 53  1  0  0  0
 17 18  2  0  0  0
 17 19  2  0  0  0
 17 20  1  0  0  0
 20 21  2  0  0  0
 20 25  1  0  0  0
 21 22  1  0  0  0
 21 54  1  0  0  0
 22 23  2  0  0  0
 22 55  1  0  0  0
 23 24  1  0  0  0
 23 56  1  0  0  0
 24 25  2  0  0  0
 24 57  1  0  0  0
 25 58  1  0  0  0
 26 27  1  0  0  0
 26 59  1  0  0  0
 26 60  1  0  0  0
 27 28  1  0  0  0
 27 61  1  0  0  0
 27 62  1  0  0  0
 28 29  2  0  0  0
 28 33  1  0  0  0
 29 30  1  0  0  0
 29 63  1  0  0  0
 30 31  2  0  0  0
 30 64  1  0  0  0
 31 32  1  0  0  0
 31 65  1  0  0  0
 32 33  2  0  0  0
 32 66  1  0  0  0
 33 67  1  0  0  0
 34 35  1  0  0  0
 34 68  1  0  0  0
 34 69  1  0  0  0
 35 36  1  0  0  0
 35 37  1  0  0  0
 35 70  1  0  0  0
 36 71  1  0  0  0
 36 72  1  0  0  0
 36 73  1  0  0  0
 37 74  1  0  0  0
 37 75  1  0  0  0
 37 76  1  0  0  0
M  END
> <s_m_source_file>
../3bwk_ligand.sdf

> <i_m_source_file_index>
1

> <s_epik_input>
W0NIMl0xW0NIMl1PW0NIMl1bQ0gyXU4xQyg9TylbTkhdW0NAQEhdKFtDSDJdW0NIXShbQ0gzXSlbQ0gzXSlDKD1PKVtOSF1bQ0BASF0oW0NIMl1bQ0gyXWMyW2NIXVtjSF1bY0hdW2NIXVtjSF0yKVtDSDJdW0NIMl1TKD1PKSg9TyljM1tjSF1bY0hdW2NIXVtjSF1bY0hdMw==

> <s_epik_cmdline>
J2VwaWtfYXBwJywgJy1pbWFlJywgJ2xpZ2FuZF9wcm8ubWFlJywgJy1vbWFlJywgJ2xpZ2FuZF9wcmVwLm1hZScsICctbXMnLCAnMScsICctcGgnLCAnNycsICctcGh0JywgJzAuNScsICctbnQn

> <r_lp_tautomer_probability>
1

> <r_epik_Ionization_Penalty>
  0.0000

> <r_epik_Ionization_Penalty_Charging>
  0.0000

> <r_epik_Ionization_Penalty_Neutral>
  0.0000

> <r_epik_State_Penalty>
 -0.0000

> <r_epik_Charging_Adjusted_Penalty>
0

> <i_epik_Tot_Q>
0

> <i_epik_Tot_abs_Q>
0

$$$$
