3bx5_ligand
                    3D
 Schrodinger Suite 2020-3.
 46 47  0  0  1  0            999 V2000
   -3.9560   34.7720   23.4390 C   0  0  0  0  0  0
   -5.1100   35.2550   22.8030 C   0  0  0  0  0  0
   -2.5920   36.0230   21.9120 C   0  0  0  0  0  0
   -2.9960   39.3860   18.0620 C   0  0  0  0  0  0
   -2.6850   35.1400   23.0000 C   0  0  0  0  0  0
   -5.0320   36.1310   21.7100 C   0  0  0  0  0  0
   -3.7470   36.5130   21.2620 C   0  0  0  0  0  0
   -2.8280   38.0290   17.9980 C   0  0  0  0  0  0
   -2.4400   39.2510   15.9130 C   0  0  0  0  0  0
   -1.4200   34.6560   23.6620 C   0  0  0  0  0  0
   -2.9530   37.0090   19.0050 C   0  0  0  0  0  0
   -6.3040   36.6290   21.0810 C   0  0  0  0  0  0
    0.7640   39.1240   14.9160 C   0  0  0  0  0  0
   -2.1660   38.4070   12.5310 C   0  0  0  0  0  0
   -0.4420   33.2660   25.4660 C   0  0  0  0  0  0
   -0.2700   38.2900   14.1850 C   0  0  0  0  0  0
   -1.3500   39.1690   13.5850 C   0  0  2  0  0  0
   -2.7830   40.0720   16.8930 N   0  0  0  0  0  0
   -3.6010   37.4070   20.1650 N   0  0  0  0  0  0
   -2.1910   39.7250   14.6500 N   0  0  0  0  0  0
   -1.5220   33.6100   24.5640 N   0  0  0  0  0  0
   -0.3440   35.1940   23.4060 O   0  0  0  0  0  0
   -2.5090   35.8740   18.8350 O   0  0  0  0  0  0
   -2.3850   37.5820   16.4130 S   0  0  0  0  0  0
   -4.0550   34.0982   24.2900 H   0  0  0  0  0  0
   -6.0890   34.9425   23.1664 H   0  0  0  0  0  0
   -1.6087   36.3368   21.5617 H   0  0  0  0  0  0
   -3.2815   39.8906   18.9850 H   0  0  0  0  0  0
   -7.1673   36.1913   21.6036 H   0  0  0  0  0  0
   -6.3289   36.3344   20.0215 H   0  0  0  0  0  0
   -6.3462   37.7255   21.1579 H   0  0  0  0  0  0
    1.5342   38.4634   15.3407 H   0  0  0  0  0  0
    0.2758   39.6861   15.7258 H   0  0  0  0  0  0
    1.2321   39.8275   14.2118 H   0  0  0  0  0  0
   -1.4896   38.0123   11.7586 H   0  0  0  0  0  0
   -2.8938   39.0891   12.0673 H   0  0  0  0  0  0
   -2.6992   37.5738   13.0121 H   0  0  0  0  0  0
   -0.7420   32.4092   26.0872 H   0  0  0  0  0  0
   -0.2163   34.1267   26.1128 H   0  0  0  0  0  0
    0.4523   33.0009   24.8829 H   0  0  0  0  0  0
    0.2182   37.7279   13.3752 H   0  0  0  0  0  0
   -0.7381   37.5864   14.8892 H   0  0  0  0  0  0
   -0.8875   40.0386   13.0953 H   0  0  0  0  0  0
   -4.0045   38.4282   20.2303 H   0  0  0  0  0  0
   -2.7380   40.6649   14.4847 H   0  0  0  0  0  0
   -2.4587   33.0336   24.5824 H   0  0  0  0  0  0
  1  2  2  0  0  0
  1  5  1  0  0  0
  1 25  1  0  0  0
  2  6  1  0  0  0
  2 26  1  0  0  0
  3  5  2  0  0  0
  3  7  1  0  0  0
  3 27  1  0  0  0
  4  8  2  0  0  0
  4 18  1  0  0  0
  4 28  1  0  0  0
  5 10  1  0  0  0
  6  7  2  0  0  0
  6 12  1  0  0  0
  7 19  1  0  0  0
  8 11  1  0  0  0
  8 24  1  0  0  0
  9 18  2  0  0  0
  9 20  1  0  0  0
  9 24  1  0  0  0
 10 21  1  0  0  0
 10 22  2  0  0  0
 11 19  1  0  0  0
 11 23  2  0  0  0
 12 29  1  0  0  0
 12 30  1  0  0  0
 12 31  1  0  0  0
 13 16  1  0  0  0
 13 32  1  0  0  0
 13 33  1  0  0  0
 13 34  1  0  0  0
 14 17  1  0  0  0
 14 35  1  0  0  0
 14 36  1  0  0  0
 14 37  1  0  0  0
 15 21  1  0  0  0
 15 38  1  0  0  0
 15 39  1  0  0  0
 15 40  1  0  0  0
 16 17  1  0  0  0
 16 41  1  0  0  0
 16 42  1  0  0  0
 17 20  1  0  0  0
 17 43  1  0  0  0
 19 44  1  0  0  0
 20 45  1  0  0  0
 21 46  1  0  0  0
M  END
> <s_m_source_file>
../3bx5_ligand.sdf

> <i_m_source_file_index>
1

> <s_epik_input>
W0NIM11bTkhdQyg9TyljMVtjSF1bY0hdYyhbQ0gzXSljKFtjSF0xKVtOSF1DKD1PKWMyW2NIXW5jKHMyKVtOSF1bQ0BIXShbQ0gzXSlbQ0gyXVtDSDNd

> <s_epik_cmdline>
J2VwaWtfYXBwJywgJy1pbWFlJywgJ2xpZ2FuZF9wcm8ubWFlJywgJy1vbWFlJywgJ2xpZ2FuZF9wcmVwLm1hZScsICctbXMnLCAnMScsICctcGgnLCAnNycsICctcGh0JywgJzAuNScsICctbnQn

> <r_lp_tautomer_probability>
1

> <r_epik_Ionization_Penalty>
  0.0023

> <r_epik_Ionization_Penalty_Charging>
  0.0000

> <r_epik_Ionization_Penalty_Neutral>
  0.0023

> <r_epik_State_Penalty>
 -0.0000

> <r_epik_Charging_Adjusted_Penalty>
0

> <i_epik_Tot_Q>
0

> <i_epik_Tot_abs_Q>
0

$$$$
