3bxe_ligand
                    3D
 Schrodinger Suite 2020-3.
 15 14  0  0  1  0            999 V2000
  -43.0440    4.4020    4.7760 P   0  0  0  0  0  0
  -44.4530    4.5630    5.3160 O   0  0  0  0  0  0
  -41.9090    4.6880    5.7580 O   0  5  0  0  0  0
  -42.8640    5.0660    3.4200 O   0  5  0  0  0  0
  -42.8990    2.8190    4.4800 O   0  0  0  0  0  0
  -43.0600    1.8880    5.5780 C   0  0  0  0  0  0
  -42.3320    0.5840    5.3600 C   0  0  0  0  0  0
  -41.5340    0.4550    4.4390 O   0  0  0  0  0  0
  -42.6000   -0.5740    6.2970 C   0  0  0  0  0  0
  -42.0420   -1.7950    5.7660 O   0  0  0  0  0  0
  -42.6672    2.3386    6.5014 H   0  0  0  0  0  0
  -44.1273    1.6560    5.7085 H   0  0  0  0  0  0
  -42.1412   -0.3678    7.2753 H   0  0  0  0  0  0
  -43.6855   -0.7019    6.4207 H   0  0  0  0  0  0
  -42.1476   -2.7366    6.3248 H   0  0  0  0  0  0
  1  2  2  0  0  0
  1  3  1  0  0  0
  1  4  1  0  0  0
  1  5  1  0  0  0
  5  6  1  0  0  0
  6  7  1  0  0  0
  6 11  1  0  0  0
  6 12  1  0  0  0
  7  8  2  0  0  0
  7  9  1  0  0  0
  9 10  1  0  0  0
  9 13  1  0  0  0
  9 14  1  0  0  0
 10 15  1  0  0  0
M  CHG  2   3  -1   4  -1
M  END
> <s_m_source_file>
../3bxe_ligand.sdf

> <i_m_source_file_index>
1

> <s_epik_input>
Tz1QKFtPSF0pKFtPSF0pT1tDSDJdQyg9TylbQ0gyXVtPSF0=

> <s_epik_cmdline>
J2VwaWtfYXBwJywgJy1pbWFlJywgJ2xpZ2FuZF9wcm8ubWFlJywgJy1vbWFlJywgJ2xpZ2FuZF9wcmVwLm1hZScsICctbXMnLCAnMScsICctcGgnLCAnNycsICctcGh0JywgJzAuNScsICctbnQn

> <r_lp_tautomer_probability>
0.99990000499975

> <r_epik_Ionization_Penalty>
  0.0715

> <r_epik_Ionization_Penalty_Charging>
  0.0715

> <r_epik_Ionization_Penalty_Neutral>
  0.0000

> <r_epik_State_Penalty>
  0.0628

> <r_epik_Charging_Adjusted_Penalty>
0.134247211915583

> <i_epik_Tot_Q>
-2

> <i_epik_Tot_abs_Q>
2

$$$$
