3bxf_ligand
                    3D
 Schrodinger Suite 2020-3.
 30 30  0  0  1  0            999 V2000
   11.4180    1.0530    0.8330 P   0  0  0  0  0  0
   11.1050    2.3340    1.5890 O   0  5  0  0  0  0
   10.1900    0.5190    0.1150 O   0  0  0  0  0  0
   12.4970    1.3050   -0.2120 O   0  5  0  0  0  0
   11.9820   -0.0070    1.9090 O   0  0  0  0  0  0
   11.1930   -0.2390    3.0500 C   0  0  0  0  0  0
   11.9920   -0.7500    4.2460 C   0  0  2  0  0  0
   11.0670   -1.0680    5.3130 O   0  0  0  0  0  0
   13.0410    0.1990    4.7890 C   0  0  1  0  0  0
   12.5050    1.2580    5.5360 O   0  0  0  0  0  0
   13.8780   -0.7220    5.6480 C   0  0  2  0  0  0
   15.1980   -0.2420    5.6830 O   0  0  0  0  0  0
   13.8560   -1.9600    4.7690 C   0  0  2  0  0  0
   12.6880   -1.9320    3.9530 O   0  0  0  0  0  0
   13.9990   -3.2710    5.4920 C   0  0  0  0  0  0
   13.9910   -4.2620    4.4890 O   0  0  0  0  0  0
   14.2760   -5.7830    4.8420 P   0  0  0  0  0  0
   15.6710   -5.9070    5.4140 O   0  5  0  0  0  0
   14.0920   -6.5640    3.5590 O   0  5  0  0  0  0
   13.2400   -6.1520    5.8600 O   0  0  0  0  0  0
   10.7050    0.6984    3.3551 H   0  0  0  0  0  0
   10.4263   -0.9931    2.8185 H   0  0  0  0  0  0
   10.4039   -0.2886    5.7165 H   0  0  0  0  0  0
   13.5781    0.7813    4.0258 H   0  0  0  0  0  0
   11.8720    2.0121    5.0454 H   0  0  0  0  0  0
   13.5918   -0.8232    6.7053 H   0  0  0  0  0  0
   15.4410    0.6570    6.2684 H   0  0  0  0  0  0
   14.7213   -1.9212    4.0909 H   0  0  0  0  0  0
   14.9444   -3.2784    6.0544 H   0  0  0  0  0  0
   13.1572   -3.3995    6.1883 H   0  0  0  0  0  0
  1  2  1  0  0  0
  1  3  2  0  0  0
  1  4  1  0  0  0
  1  5  1  0  0  0
  5  6  1  0  0  0
  6  7  1  0  0  0
  6 21  1  0  0  0
  6 22  1  0  0  0
  7  8  1  0  0  0
  7  9  1  0  0  0
  7 14  1  0  0  0
  8 23  1  0  0  0
  9 10  1  0  0  0
  9 11  1  0  0  0
  9 24  1  0  0  0
 10 25  1  0  0  0
 11 12  1  0  0  0
 11 13  1  0  0  0
 11 26  1  0  0  0
 12 27  1  0  0  0
 13 14  1  0  0  0
 13 15  1  0  0  0
 13 28  1  0  0  0
 15 16  1  0  0  0
 15 29  1  0  0  0
 15 30  1  0  0  0
 16 17  1  0  0  0
 17 18  1  0  0  0
 17 19  1  0  0  0
 17 20  2  0  0  0
M  CHG  4   2  -1   4  -1  18  -1  19  -1
M  END
> <s_m_source_file>
../3bxf_ligand.sdf

> <i_m_source_file_index>
1

> <s_epik_input>
W09IXVAoPU8pKFtPSF0pT1tDSDJdW0NAXTEoW09IXSlbQ0BASF0oW09IXSlbQ0BIXShbT0hdKVtDQEhdKE8xKVtDSDJdT1AoPU8pKFtPSF0pW09IXQ==

> <s_epik_cmdline>
J2VwaWtfYXBwJywgJy1pbWFlJywgJ2xpZ2FuZF9wcm8ubWFlJywgJy1vbWFlJywgJ2xpZ2FuZF9wcmVwLm1hZScsICctbXMnLCAnMScsICctcGgnLCAnNycsICctcGh0JywgJzAuNScsICctbnQn

> <r_lp_tautomer_probability>
1

> <r_epik_Ionization_Penalty>
  0.1882

> <r_epik_Ionization_Penalty_Charging>
  0.1882

> <r_epik_Ionization_Penalty_Neutral>
  0.0000

> <r_epik_State_Penalty>
 -0.0000

> <r_epik_Charging_Adjusted_Penalty>
0.188195921498509

> <i_epik_Tot_Q>
-4

> <i_epik_Tot_abs_Q>
4

$$$$
