3bxh_ligand
                    3D
 Schrodinger Suite 2020-3.
 27 27  0  0  1  0            999 V2000
   68.7520   85.6110   59.3080 O   0  0  0  0  0  0
   67.8700   84.9980   60.2120 C   0  0  0  0  0  0
   68.5320   84.5330   61.5100 C   0  0  2  0  0  0
   67.5000   84.3900   62.5210 O   0  0  0  0  0  0
   69.6360   85.3910   62.1290 C   0  0  1  0  0  0
   69.1760   86.4830   62.8810 O   0  0  0  0  0  0
   70.3140   84.3680   63.0170 C   0  0  2  0  0  0
   71.6090   84.7590   63.3680 O   0  0  0  0  0  0
   70.3730   83.2140   62.0340 C   0  0  2  0  0  0
   69.1720   83.2840   61.2820 O   0  0  0  0  0  0
   70.5590   81.8510   62.6610 C   0  0  0  0  0  0
   70.5920   80.9710   61.5460 O   0  0  0  0  0  0
   70.6840   79.3960   61.7630 P   0  0  0  0  0  0
   72.0230   79.0890   62.3620 O   0  0  0  0  0  0
   70.5890   78.7310   60.4230 O   0  5  0  0  0  0
   69.5450   78.9800   62.6880 O   0  5  0  0  0  0
   68.3792   85.9828   58.3422 H   0  0  0  0  0  0
   67.0767   85.7080   60.4888 H   0  0  0  0  0  0
   67.4205   84.1111   59.7415 H   0  0  0  0  0  0
   66.9012   85.2619   62.8228 H   0  0  0  0  0  0
   70.2587   85.9455   61.4115 H   0  0  0  0  0  0
   68.6588   87.3157   62.3819 H   0  0  0  0  0  0
   69.8724   84.1981   64.0100 H   0  0  0  0  0  0
   71.7606   85.5871   64.0760 H   0  0  0  0  0  0
   71.2281   83.3247   61.3509 H   0  0  0  0  0  0
   71.4985   81.8356   63.2329 H   0  0  0  0  0  0
   69.7159   81.6393   63.3351 H   0  0  0  0  0  0
  1  2  1  0  0  0
  1 17  1  0  0  0
  2  3  1  0  0  0
  2 18  1  0  0  0
  2 19  1  0  0  0
  3  4  1  0  0  0
  3  5  1  0  0  0
  3 10  1  0  0  0
  4 20  1  0  0  0
  5  6  1  0  0  0
  5  7  1  0  0  0
  5 21  1  0  0  0
  6 22  1  0  0  0
  7  8  1  0  0  0
  7  9  1  0  0  0
  7 23  1  0  0  0
  8 24  1  0  0  0
  9 10  1  0  0  0
  9 11  1  0  0  0
  9 25  1  0  0  0
 11 12  1  0  0  0
 11 26  1  0  0  0
 11 27  1  0  0  0
 12 13  1  0  0  0
 13 14  2  0  0  0
 13 15  1  0  0  0
 13 16  1  0  0  0
M  CHG  2  15  -1  16  -1
M  END
> <s_m_source_file>
../3bxh_ligand.sdf

> <i_m_source_file_index>
1

> <s_epik_input>
W09IXVtDSDJdW0NAXTEoW09IXSlbQ0BASF0oW09IXSlbQ0BIXShbT0hdKVtDQEhdKE8xKVtDSDJdT1AoPU8pKFtPSF0pW09IXQ==

> <s_epik_cmdline>
J2VwaWtfYXBwJywgJy1pbWFlJywgJ2xpZ2FuZF9wcm8ubWFlJywgJy1vbWFlJywgJ2xpZ2FuZF9wcmVwLm1hZScsICctbXMnLCAnMScsICctcGgnLCAnNycsICctcGh0JywgJzAuNScsICctbnQn

> <r_epik_Ionization_Penalty>
  0.1011

> <r_epik_Ionization_Penalty_Charging>
  0.1011

> <r_epik_Ionization_Penalty_Neutral>
  0.0000

> <r_epik_State_Penalty>
  0.0911

> <r_epik_Charging_Adjusted_Penalty>
0.192231575256783

> <i_epik_Tot_Q>
-2

> <i_epik_Tot_abs_Q>
2

$$$$
