3bxz_ligand
                    3D
 Schrodinger Suite 2020-3.
 39 41  0  0  1  0            999 V2000
   49.7220   -4.7730    8.8960 P   0  0  0  0  0  0
   48.9910   -3.8790    9.8220 O   0  0  0  0  0  0
   51.0810   -5.3340    9.5880 O   0  5  0  0  0  0
   48.8170   -5.8750    8.4810 O   0  5  0  0  0  0
   51.3230   -3.0300    7.3580 P   0  0  2  0  0  0
   52.3160   -2.8950    8.4570 O   0  5  0  0  0  0
   50.6610   -1.7820    7.0420 O   0  0  0  0  0  0
   50.1440   -3.9680    7.6820 O   0  0  0  0  0  0
   51.8920   -3.5970    6.0380 O   0  0  0  0  0  0
   52.6770   -4.7450    5.8880 C   0  0  0  0  0  0
   53.9000   -4.1950    5.0770 C   0  0  1  0  0  0
   53.9580   -4.8360    3.7930 O   0  0  0  0  0  0
   53.8470   -2.6630    4.7640 C   0  0  1  0  0  0
   54.9120   -1.9500    5.3530 O   0  0  0  0  0  0
   53.8700   -2.4740    3.2540 C   0  0  1  0  0  0
   54.9880   -1.6400    2.8500 O   0  0  0  0  0  0
   53.9310   -3.8620    2.6940 C   0  0  2  0  0  0
   52.7400   -4.2360    1.8210 N   0  0  0  0  0  0
   51.4020   -4.2630    2.2090 C   0  0  0  0  0  0
   50.6430   -4.6730    1.1550 N   0  0  0  0  0  0
   51.4280   -4.9120    0.1120 C   0  0  0  0  0  0
   51.2390   -5.3320   -1.1860 C   0  0  0  0  0  0
   50.0160   -5.6350   -1.6250 N   0  0  0  0  0  0
   52.3240   -5.4650   -2.0420 N   0  0  0  0  0  0
   53.6220   -5.1800   -1.6450 C   0  0  0  0  0  0
   53.8240   -4.7690   -0.3590 N   0  0  0  0  0  0
   52.7780   -4.6090    0.5390 C   0  0  0  0  0  0
   52.9547   -5.1315    6.8797 H   0  0  0  0  0  0
   52.1061   -5.5110    5.3427 H   0  0  0  0  0  0
   54.7997   -4.4469    5.6576 H   0  0  0  0  0  0
   52.9743   -2.1812    5.2290 H   0  0  0  0  0  0
   55.0518   -1.9719    6.4439 H   0  0  0  0  0  0
   53.0100   -1.9213    2.8478 H   0  0  0  0  0  0
   55.0521   -0.5990    3.1995 H   0  0  0  0  0  0
   54.8565   -3.8922    2.1002 H   0  0  0  0  0  0
   51.0238   -3.9987    3.1965 H   0  0  0  0  0  0
   49.1500   -5.5329   -0.9545 H   0  0  0  0  0  0
   49.8737   -5.9869   -2.6575 H   0  0  0  0  0  0
   54.4561   -5.2812   -2.3393 H   0  0  0  0  0  0
  1  2  2  0  0  0
  1  3  1  0  0  0
  1  4  1  0  0  0
  1  8  1  0  0  0
  5  6  1  0  0  0
  5  7  2  0  0  0
  5  8  1  0  0  0
  5  9  1  0  0  0
  9 10  1  0  0  0
 10 11  1  0  0  0
 10 28  1  0  0  0
 10 29  1  0  0  0
 11 12  1  0  0  0
 11 13  1  0  0  0
 11 30  1  0  0  0
 12 17  1  0  0  0
 13 14  1  0  0  0
 13 15  1  0  0  0
 13 31  1  0  0  0
 14 32  1  0  0  0
 15 16  1  0  0  0
 15 17  1  0  0  0
 15 33  1  0  0  0
 16 34  1  0  0  0
 17 18  1  0  0  0
 17 35  1  0  0  0
 18 19  1  0  0  0
 18 27  1  0  0  0
 19 20  2  0  0  0
 19 36  1  0  0  0
 20 21  1  0  0  0
 21 22  2  0  0  0
 21 27  1  0  0  0
 22 23  1  0  0  0
 22 24  1  0  0  0
 23 37  1  0  0  0
 23 38  1  0  0  0
 24 25  2  0  0  0
 25 26  1  0  0  0
 25 39  1  0  0  0
 26 27  2  0  0  0
M  CHG  3   3  -1   4  -1   6  -1
M  END
> <s_m_source_file>
../3bxz_ligand.sdf

> <i_m_source_file_index>
1

> <s_epik_input>
Tz1QKFtPSF0pKFtPSF0pT1tQQEBdKD1PKShbT0hdKU9bQ0gyXVtDQEhdMU9bQ0BIXShbQ0BIXShbT0hdKVtDQEBIXTFbT0hdKW4oW2NIXW4yKWMoYzIzKW5bY0hdbmMzW05IMl0=

> <s_epik_cmdline>
J2VwaWtfYXBwJywgJy1pbWFlJywgJ2xpZ2FuZF9wcm8ubWFlJywgJy1vbWFlJywgJ2xpZ2FuZF9wcmVwLm1hZScsICctbXMnLCAnMScsICctcGgnLCAnNycsICctcGh0JywgJzAuNScsICctbnQn

> <r_lp_tautomer_probability>
0.999997216410988

> <r_epik_Ionization_Penalty>
  0.1037

> <r_epik_Ionization_Penalty_Charging>
  0.1033

> <r_epik_Ionization_Penalty_Neutral>
  0.0004

> <r_epik_State_Penalty>
  0.0922

> <r_epik_Charging_Adjusted_Penalty>
0.19546844050481

> <i_epik_Tot_Q>
-3

> <i_epik_Tot_abs_Q>
3

> <s_epik_Chemistry_Notes>
This compound contains an acetal/aminal-like group ( X-CH(R)-Y where X, Y are N, S, or O) that may be acid/base labile, releasing an aldehyde.

$$$$
