3bym_ligand
                    3D
 Schrodinger Suite 2020-3.
 58 62  0  0  1  0            999 V2000
   25.0650   34.8940   81.7620 N   0  0  0  0  0  0
   23.7580   34.9420   82.1330 C   0  0  0  0  0  0
   23.3400   35.7460   83.1420 N   0  0  0  0  0  0
   24.2580   36.5810   83.8560 C   0  0  0  0  0  0
   25.5940   36.4960   83.4510 N   0  0  0  0  0  0
   25.9740   35.6700   82.4240 C   0  0  0  0  0  0
   27.3060   35.6270   82.0250 N   0  0  0  0  0  0
   29.6000   35.9630   82.1980 C   0  0  0  0  0  0
   28.3280   36.5210   82.3500 C   0  0  0  0  0  0
   28.1480   37.8810   82.8230 C   0  0  0  0  0  0
   29.2730   38.6780   83.1500 C   0  0  0  0  0  0
   30.5460   38.0680   82.9760 C   0  0  0  0  0  0
   30.7430   36.7390   82.5140 C   0  0  0  0  0  0
   31.6050   38.8850   83.2770 O   0  0  0  0  0  0
   32.0480   36.2840   82.4220 O   0  0  0  0  0  0
   32.1140   38.6530   84.5860 C   0  0  0  0  0  0
   25.8310   40.2690   87.6430 C   0  0  0  0  0  0
   24.3930   40.0980   87.4960 C   0  0  0  0  0  0
   23.8540   39.1370   86.5230 C   0  0  0  0  0  0
   24.7910   38.3500   85.6920 C   0  0  0  0  0  0
   26.2520   38.5530   85.8710 C   0  0  0  0  0  0
   26.7810   39.5040   86.8410 C   0  0  0  0  0  0
   22.5730   38.7250   86.1420 N   0  0  0  0  0  0
   22.6550   37.7910   85.1880 C   0  0  0  0  0  0
   23.9360   37.5280   84.8760 N   0  0  0  0  0  0
   21.4660   37.1380   84.5920 N   0  0  0  0  0  0
   29.2130   39.9900   83.6540 O   0  0  0  0  0  0
   32.3130   34.9400   81.9810 C   0  0  0  0  0  0
   28.0190   40.8030   83.5440 C   0  0  0  0  0  0
   18.2390   38.0560   86.3490 C   0  0  0  0  0  0
   17.4900   38.2460   85.1150 C   0  0  0  0  0  0
   17.9920   38.1070   83.7680 C   0  0  0  0  0  0
   19.3690   37.7400   83.6390 C   0  0  0  0  0  0
   20.1680   37.5290   84.8280 C   0  0  0  0  0  0
   19.6180   37.6870   86.1920 C   0  0  0  0  0  0
   23.0311   34.3216   81.6087 H   0  0  0  0  0  0
   27.6590   34.8140   81.3735 H   0  0  0  0  0  0
   29.7122   34.9398   81.8395 H   0  0  0  0  0  0
   27.1435   38.2911   82.9272 H   0  0  0  0  0  0
   32.9587   39.3313   84.7765 H   0  0  0  0  0  0
   32.4554   37.6105   84.6672 H   0  0  0  0  0  0
   31.3212   38.8379   85.3258 H   0  0  0  0  0  0
   26.2084   40.9871   88.3710 H   0  0  0  0  0  0
   23.7118   40.6860   88.1111 H   0  0  0  0  0  0
   26.9466   37.9756   85.2609 H   0  0  0  0  0  0
   27.8555   39.6400   86.9639 H   0  0  0  0  0  0
   21.5913   36.2823   83.9122 H   0  0  0  0  0  0
   33.3988   34.7642   81.9729 H   0  0  0  0  0  0
   31.9114   34.8012   80.9664 H   0  0  0  0  0  0
   31.8313   34.2274   82.6667 H   0  0  0  0  0  0
   28.2007   41.7855   84.0042 H   0  0  0  0  0  0
   27.1866   40.3039   84.0617 H   0  0  0  0  0  0
   27.7631   40.9369   82.4826 H   0  0  0  0  0  0
   17.7820   38.1856   87.3300 H   0  0  0  0  0  0
   16.4406   38.5220   85.2187 H   0  0  0  0  0  0
   17.3570   38.2725   82.8977 H   0  0  0  0  0  0
   19.8140   37.6199   82.6512 H   0  0  0  0  0  0
   20.2501   37.5257   87.0652 H   0  0  0  0  0  0
  1  2  2  0  0  0
  1  6  1  0  0  0
  2  3  1  0  0  0
  2 36  1  0  0  0
  3  4  2  0  0  0
  4  5  1  0  0  0
  4 25  1  0  0  0
  5  6  2  0  0  0
  6  7  1  0  0  0
  7  9  1  0  0  0
  7 37  1  0  0  0
  8  9  2  0  0  0
  8 13  1  0  0  0
  8 38  1  0  0  0
  9 10  1  0  0  0
 10 11  2  0  0  0
 10 39  1  0  0  0
 11 12  1  0  0  0
 11 27  1  0  0  0
 12 13  2  0  0  0
 12 14  1  0  0  0
 13 15  1  0  0  0
 14 16  1  0  0  0
 15 28  1  0  0  0
 16 40  1  0  0  0
 16 41  1  0  0  0
 16 42  1  0  0  0
 17 18  1  0  0  0
 17 22  2  0  0  0
 17 43  1  0  0  0
 18 19  2  0  0  0
 18 44  1  0  0  0
 19 20  1  0  0  0
 19 23  1  0  0  0
 20 21  2  0  0  0
 20 25  1  0  0  0
 21 22  1  0  0  0
 21 45  1  0  0  0
 22 46  1  0  0  0
 23 24  2  0  0  0
 24 25  1  0  0  0
 24 26  1  0  0  0
 26 34  1  0  0  0
 26 47  1  0  0  0
 27 29  1  0  0  0
 28 48  1  0  0  0
 28 49  1  0  0  0
 28 50  1  0  0  0
 29 51  1  0  0  0
 29 52  1  0  0  0
 29 53  1  0  0  0
 30 31  2  0  0  0
 30 35  1  0  0  0
 30 54  1  0  0  0
 31 32  1  0  0  0
 31 55  1  0  0  0
 32 33  2  0  0  0
 32 56  1  0  0  0
 33 34  1  0  0  0
 33 57  1  0  0  0
 34 35  2  0  0  0
 35 58  1  0  0  0
M  END
> <s_m_source_file>
../3bym_ligand.sdf

> <i_m_source_file_index>
1

> <s_epik_input>
W0NIM11PYyhbY0hdMSljKE9bQ0gzXSljKE9bQ0gzXSlbY0hdYzFbTkhdYyhuMiluW2NIXW5jMi1uKGMoYzM0KVtjSF1bY0hdW2NIXVtjSF0zKWMobjQpW05IXWM1W2NIXVtjSF1bY0hdW2NIXVtjSF01

> <s_epik_cmdline>
J2VwaWtfYXBwJywgJy1pbWFlJywgJ2xpZ2FuZF9wcm8ubWFlJywgJy1vbWFlJywgJ2xpZ2FuZF9wcmVwLm1hZScsICctbXMnLCAnMScsICctcGgnLCAnNycsICctcGh0JywgJzAuNScsICctbnQn

> <r_lp_tautomer_probability>
1

> <r_epik_Ionization_Penalty>
  0.0669

> <r_epik_Ionization_Penalty_Charging>
  0.0000

> <r_epik_Ionization_Penalty_Neutral>
  0.0669

> <r_epik_State_Penalty>
  0.0584

> <r_epik_Charging_Adjusted_Penalty>
0.0584389359436542

> <i_epik_Tot_Q>
0

> <i_epik_Tot_abs_Q>
0

$$$$
