3bz3_ligand
                    3D
 Schrodinger Suite 2020-3.
 55 58  0  0  1  0            999 V2000
    7.2060    1.7490    8.4340 C   0  0  0  0  0  0
    6.4770    4.4940   10.5380 C   0  0  0  0  0  0
   14.2790    3.8010    6.7730 N   0  0  0  0  0  0
   13.9140    4.9040    7.4010 C   0  0  0  0  0  0
   12.5840    5.2750    7.4520 C   0  0  0  0  0  0
    7.9820    4.1550    6.2180 C   0  0  0  0  0  0
    7.0960    3.9320    7.2730 C   0  0  0  0  0  0
   11.7980   -0.2350    2.6010 C   0  0  0  0  0  0
   12.2360    6.5400    8.2100 C   0  0  0  0  0  0
    6.2440    5.3390    5.0870 C   0  0  0  0  0  0
   11.7640    1.0410    4.6440 C   0  0  0  0  0  0
    5.4100    5.0740    6.1560 C   0  0  0  0  0  0
    8.7670    5.0540    9.2680 O   0  0  0  0  0  0
    8.0250    3.9480    9.7600 S   0  0  0  0  0  0
    8.6220    2.8850   10.4820 O   0  0  0  0  0  0
    7.4760    3.1920    8.3950 N   0  0  0  0  0  0
    7.5450    4.8560    5.1080 C   0  0  0  0  0  0
    5.8430    4.3860    7.2030 N   0  0  0  0  0  0
    9.3970    3.6440    6.2570 C   0  0  0  0  0  0
   10.2950    4.6680    6.8030 N   0  0  0  0  0  0
   11.6570    4.4380    6.7960 C   0  0  0  0  0  0
   11.3120    6.2820    9.2180 F   0  0  0  0  0  0
   11.7330    7.5280    7.3710 F   0  0  0  0  0  0
   13.3970    7.0620    8.7780 F   0  0  0  0  0  0
   12.1030    3.3470    6.1710 N   0  0  0  0  0  0
   13.3890    3.0320    6.1780 C   0  0  0  0  0  0
   13.8880    1.9310    5.5100 N   0  0  0  0  0  0
   13.1490    1.1950    4.5730 C   0  0  0  0  0  0
   13.8490    0.6270    3.5140 C   0  0  0  0  0  0
   13.1810   -0.0890    2.5510 C   0  0  0  0  0  0
   13.6520   -0.8140    1.3110 C   0  0  0  0  0  0
   11.0890    0.3320    3.6640 C   0  0  0  0  0  0
   11.3590   -0.9520    1.4890 N   0  0  0  0  0  0
   12.3740   -1.3540    0.7050 C   0  0  0  0  0  0
   12.2760   -2.0020   -0.3200 O   0  0  0  0  0  0
    6.8508    1.4157    7.4477 H   0  0  0  0  0  0
    6.4355    1.5405    9.1909 H   0  0  0  0  0  0
    8.1294    1.2101    8.6926 H   0  0  0  0  0  0
    6.7044    5.0225   11.4755 H   0  0  0  0  0  0
    5.8466    3.6188   10.7540 H   0  0  0  0  0  0
    5.9427    5.1713    9.8555 H   0  0  0  0  0  0
   14.6679    5.5266    7.8829 H   0  0  0  0  0  0
    5.8848    5.9201    4.2377 H   0  0  0  0  0  0
   11.2109    1.4805    5.4741 H   0  0  0  0  0  0
    4.3819    5.4356    6.1382 H   0  0  0  0  0  0
    8.2122    5.0263    4.2631 H   0  0  0  0  0  0
    9.4459    2.7481    6.8934 H   0  0  0  0  0  0
    9.7227    3.3881    5.2380 H   0  0  0  0  0  0
    9.8809    5.6023    7.2100 H   0  0  0  0  0  0
   14.9160    1.5901    5.7026 H   0  0  0  0  0  0
   14.9300    0.7503    3.4481 H   0  0  0  0  0  0
   14.1630   -0.1047    0.6434 H   0  0  0  0  0  0
   14.3491   -1.6153    1.5973 H   0  0  0  0  0  0
   10.0067    0.2164    3.7216 H   0  0  0  0  0  0
   10.2839   -1.1288    1.3379 H   0  0  0  0  0  0
  1 16  1  0  0  0
  1 36  1  0  0  0
  1 37  1  0  0  0
  1 38  1  0  0  0
  2 14  1  0  0  0
  2 39  1  0  0  0
  2 40  1  0  0  0
  2 41  1  0  0  0
  3  4  2  0  0  0
  3 26  1  0  0  0
  4  5  1  0  0  0
  4 42  1  0  0  0
  5  9  1  0  0  0
  5 21  2  0  0  0
  6  7  2  0  0  0
  6 17  1  0  0  0
  6 19  1  0  0  0
  7 16  1  0  0  0
  7 18  1  0  0  0
  8 30  2  0  0  0
  8 32  1  0  0  0
  8 33  1  0  0  0
  9 22  1  0  0  0
  9 23  1  0  0  0
  9 24  1  0  0  0
 10 12  1  0  0  0
 10 17  2  0  0  0
 10 43  1  0  0  0
 11 28  1  0  0  0
 11 32  2  0  0  0
 11 44  1  0  0  0
 12 18  2  0  0  0
 12 45  1  0  0  0
 13 14  2  0  0  0
 14 15  2  0  0  0
 14 16  1  0  0  0
 17 46  1  0  0  0
 19 20  1  0  0  0
 19 47  1  0  0  0
 19 48  1  0  0  0
 20 21  1  0  0  0
 20 49  1  0  0  0
 21 25  1  0  0  0
 25 26  2  0  0  0
 26 27  1  0  0  0
 27 28  1  0  0  0
 27 50  1  0  0  0
 28 29  2  0  0  0
 29 30  1  0  0  0
 29 51  1  0  0  0
 30 31  1  0  0  0
 31 34  1  0  0  0
 31 52  1  0  0  0
 31 53  1  0  0  0
 32 54  1  0  0  0
 33 34  1  0  0  0
 33 55  1  0  0  0
 34 35  2  0  0  0
M  END
> <s_m_source_file>
../3bz3_ligand.sdf

> <i_m_source_file_index>
1

> <s_epik_input>
W2NIXTFbY0hdW2NIXW5jKE4oW0NIM10pUyg9TykoPU8pW0NIM10pYzFbQ0gyXVtOSF1jMm5jKG5bY0hdYzJDKEYpKEYpRilbTkhdYyhbY0hdW2NIXTMpW2NIXWMoYzM0KVtDSDJdQyg9TylbTkhdNA==

> <s_epik_cmdline>
J2VwaWtfYXBwJywgJy1pbWFlJywgJ2xpZ2FuZF9wcm8ubWFlJywgJy1vbWFlJywgJ2xpZ2FuZF9wcmVwLm1hZScsICctbXMnLCAnMScsICctcGgnLCAnNycsICctcGh0JywgJzAuNScsICctbnQn

> <r_lp_tautomer_probability>
1

> <r_epik_Ionization_Penalty>
  0.0006

> <r_epik_Ionization_Penalty_Charging>
  0.0000

> <r_epik_Ionization_Penalty_Neutral>
  0.0006

> <r_epik_State_Penalty>
 -0.0000

> <r_epik_Charging_Adjusted_Penalty>
0

> <i_epik_Tot_Q>
0

> <i_epik_Tot_abs_Q>
0

$$$$
