3bze_ligand
                    3D
 Schrodinger Suite 2020-3.
156157  0  0  1  0            999 V2000
    2.1340   -4.7040    4.4610 N   0  3  0  0  0  0
    3.5260   -4.9540    4.0080 C   0  0  2  0  0  0
    4.3560   -3.7000    4.1970 C   0  0  0  0  0  0
    3.8210   -2.6190    4.3750 O   0  0  0  0  0  0
    3.5550   -5.4080    2.5220 C   0  0  0  0  0  0
    2.6270   -6.6030    2.3500 C   0  0  0  0  0  0
    3.1380   -4.2720    1.5920 C   0  0  0  0  0  0
    5.6650   -3.8490    4.1800 N   0  0  0  0  0  0
    6.5520   -2.7060    4.3520 C   0  0  2  0  0  0
    6.8470   -2.0820    2.9950 C   0  0  0  0  0  0
    6.6130   -2.7000    1.9490 O   0  0  0  0  0  0
    7.8630   -3.1590    4.9930 C   0  0  0  0  0  0
    8.6250   -4.1430    4.1580 C   0  0  0  0  0  0
   10.2590   -4.3900    4.8020 S   0  0  0  0  0  0
   11.1160   -2.9390    4.2030 C   0  0  0  0  0  0
    7.3630   -0.8590    3.0220 N   0  0  0  0  0  0
    7.7010   -0.1460    1.8120 C   0  0  2  0  0  0
    8.6670   -1.0010    1.0220 C   0  0  0  0  0  0
    9.6720   -1.4260    1.5450 O   0  0  0  0  0  0
    8.3390    1.1990    2.1670 C   0  0  0  0  0  0
    8.3670   -1.2700   -0.2570 N   0  0  0  0  0  0
    9.2200   -2.0930   -1.1300 C   0  0  2  0  0  0
   10.4030   -1.3360   -1.7290 C   0  0  0  0  0  0
   11.2260   -1.9060   -2.4360 O   0  0  0  0  0  0
    8.2460   -2.5570   -2.2060 C   0  0  0  0  0  0
    7.3930   -1.3270   -2.3940 C   0  0  0  0  0  0
    7.1070   -0.9200   -0.9420 C   0  0  0  0  0  0
   10.4720   -0.0480   -1.4500 N   0  0  0  0  0  0
   11.5410    0.7840   -1.9660 C   0  0  2  0  0  0
   11.9890    1.7410   -0.8550 C   0  0  0  0  0  0
   11.1800    2.1830   -0.0350 O   0  0  0  0  0  0
   11.0330    1.5460   -3.1950 C   0  0  0  0  0  0
   11.9090    2.6690   -3.6970 C   0  0  0  0  0  0
   11.3180    3.3110   -4.9560 C   0  0  0  0  0  0
   11.7280    2.6090   -6.1640 N   0  0  0  0  0  0
   12.7640    2.9550   -6.9270 C   0  0  0  0  0  0
   13.5020    4.0070   -6.6310 N   0  0  0  0  0  0
   13.0810    2.2260   -7.9770 N   0  0  0  0  0  0
   13.2840    2.0320   -0.8180 N   0  0  0  0  0  0
   13.8390    2.9360    0.1830 C   0  0  2  0  0  0
   14.7100    3.9510   -0.5520 C   0  0  0  0  0  0
   14.7150    3.9840   -1.7700 O   0  0  0  0  0  0
   14.6890    2.1480    1.2630 C   0  0  2  0  0  0
   14.8500    2.9570    2.4330 O   0  0  0  0  0  0
   16.0670    1.7710    0.7270 C   0  0  0  0  0  0
   15.4450    4.7690    0.1940 N   0  0  0  0  0  0
   16.3030    5.7800   -0.3980 C   0  0  2  0  0  0
   17.7860    5.4950   -0.2730 C   0  0  0  0  0  0
   18.2410    4.9310    0.7170 O   0  0  0  0  0  0
   16.0590    7.1470    0.2620 C   0  0  0  0  0  0
   14.6930    7.8400    0.2010 C   0  0  0  0  0  0
   14.8040    9.2390    0.8340 C   0  0  0  0  0  0
   14.2360    7.9660   -1.2580 C   0  0  0  0  0  0
   18.5310    5.8840   -1.2940 N   0  0  0  0  0  0
   19.9660    5.8060   -1.2540 C   0  0  2  0  0  0
   20.2450    7.2240   -0.7460 C   0  0  0  0  0  0
   20.0100    8.1910   -1.4690 O   0  0  0  0  0  0
   20.5820    5.6680   -2.6440 C   0  0  0  0  0  0
   20.7840    4.2470   -3.0930 C   0  0  0  0  0  0
   19.7550    3.5460   -3.7190 C   0  0  0  0  0  0
   22.0060    3.6190   -2.9260 C   0  0  0  0  0  0
   19.9420    2.2550   -4.1730 C   0  0  0  0  0  0
   22.2030    2.3100   -3.3830 C   0  0  0  0  0  0
   21.1700    1.6310   -4.0060 C   0  0  0  0  0  0
   20.7040    7.3550    0.4950 N   0  0  0  0  0  0
   20.9990    8.6680    1.0550 C   0  0  2  0  0  0
   22.2630    9.2720    0.4320 C   0  0  0  0  0  0
   22.5460   10.4610    0.6900 O   0  0  0  0  0  0
   21.1340    8.5660    2.5740 C   0  0  0  0  0  0
   19.8190    8.1510    3.2230 C   0  0  0  0  0  0
   20.0120    7.7760    4.6760 C   0  0  0  0  0  0
   18.8340    9.2840    3.1010 C   0  0  0  0  0  0
   22.9500    8.5550   -0.3250 O   0  0  0  0  0  0
    2.1427   -4.3848    5.5136 H   0  0  0  0  0  0
    1.5450   -5.6278    4.3629 H   0  0  0  0  0  0
    1.6833   -3.9142    3.8420 H   0  0  0  0  0  0
    3.9307   -5.7512    4.6488 H   0  0  0  0  0  0
    4.5760   -5.7015    2.2367 H   0  0  0  0  0  0
    2.9411   -7.4115    3.0265 H   0  0  0  0  0  0
    2.6736   -6.9566    1.3094 H   0  0  0  0  0  0
    1.5959   -6.3040    2.5898 H   0  0  0  0  0  0
    3.8177   -3.4180    1.7288 H   0  0  0  0  0  0
    2.1091   -3.9634    1.8287 H   0  0  0  0  0  0
    3.1868   -4.6160    0.5483 H   0  0  0  0  0  0
    6.0859   -4.8546    4.0332 H   0  0  0  0  0  0
    6.0248   -1.9932    5.0032 H   0  0  0  0  0  0
    8.5140   -2.2867    5.1520 H   0  0  0  0  0  0
    7.6517   -3.6398    5.9595 H   0  0  0  0  0  0
    8.0969   -5.1079    4.1551 H   0  0  0  0  0  0
    8.7047   -3.7656    3.1278 H   0  0  0  0  0  0
   12.1632   -2.9671    4.5385 H   0  0  0  0  0  0
   10.6283   -2.0358    4.5985 H   0  0  0  0  0  0
   11.0835   -2.9218    3.1036 H   0  0  0  0  0  0
    7.5317   -0.3895    4.0024 H   0  0  0  0  0  0
    6.7732    0.0174    1.2441 H   0  0  0  0  0  0
    7.6220    1.8050    2.7402 H   0  0  0  0  0  0
    8.6122    1.7304    1.2434 H   0  0  0  0  0  0
    9.2414    1.0283    2.7725 H   0  0  0  0  0  0
    9.6868   -2.9019   -0.5487 H   0  0  0  0  0  0
    8.8056   -2.8396   -3.1099 H   0  0  0  0  0  0
    7.6802   -3.4258   -1.8385 H   0  0  0  0  0  0
    7.9613   -0.5685   -2.9524 H   0  0  0  0  0  0
    6.4855   -1.5925   -2.9560 H   0  0  0  0  0  0
    6.2771   -1.4873   -0.4955 H   0  0  0  0  0  0
    6.9162    0.1576   -0.8307 H   0  0  0  0  0  0
    9.6932    0.3916   -0.8095 H   0  0  0  0  0  0
   12.3745    0.1291   -2.2598 H   0  0  0  0  0  0
   10.9227    0.8490   -4.0388 H   0  0  0  0  0  0
   10.0585    2.0023   -2.9666 H   0  0  0  0  0  0
   11.9982    3.4406   -2.9181 H   0  0  0  0  0  0
   12.9072    2.2753   -3.9391 H   0  0  0  0  0  0
   10.2198    3.2873   -4.8986 H   0  0  0  0  0  0
   11.6589    4.3542   -5.0302 H   0  0  0  0  0  0
   11.1677    1.7254   -6.5036 H   0  0  0  0  0  0
   13.2511    4.6266   -5.7574 H   0  0  0  0  0  0
   14.3685    4.2649   -7.2576 H   0  0  0  0  0  0
   12.4760    1.3452   -8.2380 H   0  0  0  0  0  0
   13.9430    1.5713   -1.5687 H   0  0  0  0  0  0
   12.9836    3.4327    0.6643 H   0  0  0  0  0  0
   14.1736    1.2353    1.5967 H   0  0  0  0  0  0
   13.9653    3.3316    2.9687 H   0  0  0  0  0  0
   15.9527    1.1487   -0.1729 H   0  0  0  0  0  0
   16.6176    1.2077    1.4949 H   0  0  0  0  0  0
   16.6240    2.6848    0.4726 H   0  0  0  0  0  0
   15.3912    4.6651    1.2878 H   0  0  0  0  0  0
   16.0100    5.7254   -1.4569 H   0  0  0  0  0  0
   16.2509    7.0719    1.3425 H   0  0  0  0  0  0
   16.7357    7.8934   -0.1796 H   0  0  0  0  0  0
   13.9560    7.2389    0.7537 H   0  0  0  0  0  0
   15.1318    9.1433    1.8796 H   0  0  0  0  0  0
   13.8228    9.7351    0.8013 H   0  0  0  0  0  0
   15.5367    9.8380    0.2733 H   0  0  0  0  0  0
   14.1582    6.9642   -1.7057 H   0  0  0  0  0  0
   14.9680    8.5635   -1.8212 H   0  0  0  0  0  0
   13.2541    8.4606   -1.2932 H   0  0  0  0  0  0
   18.0262    6.2749   -2.1897 H   0  0  0  0  0  0
   20.3098    4.9415   -0.6671 H   0  0  0  0  0  0
   19.9268    6.1495   -3.3849 H   0  0  0  0  0  0
   21.5692    6.1531   -2.6574 H   0  0  0  0  0  0
   18.7851    4.0251   -3.8528 H   0  0  0  0  0  0
   22.8224    4.1480   -2.4344 H   0  0  0  0  0  0
   19.1244    1.7261   -4.6628 H   0  0  0  0  0  0
   23.1701    1.8256   -3.2481 H   0  0  0  0  0  0
   21.3204    0.6122   -4.3632 H   0  0  0  0  0  0
   20.8604    6.4507    1.1014 H   0  0  0  0  0  0
   20.1380    9.3005    0.7930 H   0  0  0  0  0  0
   23.4473   10.9185    0.2559 H   0  0  0  0  0  0
   21.8987    7.8160    2.8246 H   0  0  0  0  0  0
   21.4313    9.5432    2.9822 H   0  0  0  0  0  0
   19.4234    7.2637    2.7071 H   0  0  0  0  0  0
   20.7330    6.9484    4.7484 H   0  0  0  0  0  0
   19.0489    7.4618    5.1046 H   0  0  0  0  0  0
   20.3944    8.6452    5.2313 H   0  0  0  0  0  0
   18.7046    9.5447    2.0402 H   0  0  0  0  0  0
   19.2118   10.1590    3.6502 H   0  0  0  0  0  0
   17.8663    8.9756    3.5235 H   0  0  0  0  0  0
  1  2  1  0  0  0
  1 74  1  0  0  0
  1 75  1  0  0  0
  1 76  1  0  0  0
  2  3  1  0  0  0
  2  5  1  0  0  0
  2 77  1  0  0  0
  3  4  2  0  0  0
  3  8  1  0  0  0
  5  6  1  0  0  0
  5  7  1  0  0  0
  5 78  1  0  0  0
  6 79  1  0  0  0
  6 80  1  0  0  0
  6 81  1  0  0  0
  7 82  1  0  0  0
  7 83  1  0  0  0
  7 84  1  0  0  0
  8  9  1  0  0  0
  8 85  1  0  0  0
  9 10  1  0  0  0
  9 12  1  0  0  0
  9 86  1  0  0  0
 10 11  2  0  0  0
 10 16  1  0  0  0
 12 13  1  0  0  0
 12 87  1  0  0  0
 12 88  1  0  0  0
 13 14  1  0  0  0
 13 89  1  0  0  0
 13 90  1  0  0  0
 14 15  1  0  0  0
 15 91  1  0  0  0
 15 92  1  0  0  0
 15 93  1  0  0  0
 16 17  1  0  0  0
 16 94  1  0  0  0
 17 18  1  0  0  0
 17 20  1  0  0  0
 17 95  1  0  0  0
 18 19  2  0  0  0
 18 21  1  0  0  0
 20 96  1  0  0  0
 20 97  1  0  0  0
 20 98  1  0  0  0
 21 22  1  0  0  0
 21 27  1  0  0  0
 22 23  1  0  0  0
 22 25  1  0  0  0
 22 99  1  0  0  0
 23 24  2  0  0  0
 23 28  1  0  0  0
 25 26  1  0  0  0
 25100  1  0  0  0
 25101  1  0  0  0
 26 27  1  0  0  0
 26102  1  0  0  0
 26103  1  0  0  0
 27104  1  0  0  0
 27105  1  0  0  0
 28 29  1  0  0  0
 28106  1  0  0  0
 29 30  1  0  0  0
 29 32  1  0  0  0
 29107  1  0  0  0
 30 31  2  0  0  0
 30 39  1  0  0  0
 32 33  1  0  0  0
 32108  1  0  0  0
 32109  1  0  0  0
 33 34  1  0  0  0
 33110  1  0  0  0
 33111  1  0  0  0
 34 35  1  0  0  0
 34112  1  0  0  0
 34113  1  0  0  0
 35 36  1  0  0  0
 35114  1  0  0  0
 36 37  1  0  0  0
 36 38  2  0  0  0
 37115  1  0  0  0
 37116  1  0  0  0
 38117  1  0  0  0
 39 40  1  0  0  0
 39118  1  0  0  0
 40 41  1  0  0  0
 40 43  1  0  0  0
 40119  1  0  0  0
 41 42  2  0  0  0
 41 46  1  0  0  0
 43 44  1  0  0  0
 43 45  1  0  0  0
 43120  1  0  0  0
 44121  1  0  0  0
 45122  1  0  0  0
 45123  1  0  0  0
 45124  1  0  0  0
 46 47  1  0  0  0
 46125  1  0  0  0
 47 48  1  0  0  0
 47 50  1  0  0  0
 47126  1  0  0  0
 48 49  2  0  0  0
 48 54  1  0  0  0
 50 51  1  0  0  0
 50127  1  0  0  0
 50128  1  0  0  0
 51 52  1  0  0  0
 51 53  1  0  0  0
 51129  1  0  0  0
 52130  1  0  0  0
 52131  1  0  0  0
 52132  1  0  0  0
 53133  1  0  0  0
 53134  1  0  0  0
 53135  1  0  0  0
 54 55  1  0  0  0
 54136  1  0  0  0
 55 56  1  0  0  0
 55 58  1  0  0  0
 55137  1  0  0  0
 56 57  2  0  0  0
 56 65  1  0  0  0
 58 59  1  0  0  0
 58138  1  0  0  0
 58139  1  0  0  0
 59 60  2  0  0  0
 59 61  1  0  0  0
 60 62  1  0  0  0
 60140  1  0  0  0
 61 63  2  0  0  0
 61141  1  0  0  0
 62 64  2  0  0  0
 62142  1  0  0  0
 63 64  1  0  0  0
 63143  1  0  0  0
 64144  1  0  0  0
 65 66  1  0  0  0
 65145  1  0  0  0
 66 67  1  0  0  0
 66 69  1  0  0  0
 66146  1  0  0  0
 67 68  1  0  0  0
 67 73  2  0  0  0
 68147  1  0  0  0
 69 70  1  0  0  0
 69148  1  0  0  0
 69149  1  0  0  0
 70 71  1  0  0  0
 70 72  1  0  0  0
 70150  1  0  0  0
 71151  1  0  0  0
 71152  1  0  0  0
 71153  1  0  0  0
 72154  1  0  0  0
 72155  1  0  0  0
 72156  1  0  0  0
M  CHG  1   1   1
M  END
> <s_m_source_file>
../3bze_ligand.sdf

> <i_m_source_file_index>
1

> <s_epik_input>
W0NIM11bQ0hdKFtDSDNdKVtDQEhdKFtOSDMrXSlDKD1PKVtOSF1bQ0BASF0oW0NIMl1bQ0gyXVNbQ0gzXSlDKD1PKVtOSF1bQ0BASF0oW0NIM10pQyg9TylOMVtDQEBIXShbQ0gyXVtDSDJdW0NIMl0xKUMoPU8pW05IXVtDQEBIXShbQ0gyXVtDSDJdW0NIMl1bTkhdL0MoW05IMl0pPU5cW0hdKUMoPU8pW05IXVtDQEBIXShbQ0BIXShbT0hdKVtDSDNdKUMoPU8pW05IXVtDQEBIXShbQ0gyXVtDSF0oW0NIM10pW0NIM10pQyg9TylbTkhdW0NASF0oQyg9TylbTkhdW0NASF0oQyg9TylbT0hdKVtDSDJdW0NIXShbQ0gzXSlbQ0gzXSlbQ0gyXWMyW2NIXVtjSF1bY0hdW2NIXVtjSF0y

> <s_epik_cmdline>
J2VwaWtfYXBwJywgJy1pbWFlJywgJ2xpZ2FuZF9wcm8ubWFlJywgJy1vbWFlJywgJ2xpZ2FuZF9wcmVwLm1hZScsICctbXMnLCAnMScsICctcGgnLCAnNycsICctcGh0JywgJzAuNScsICctbnQn

> <s_epik_pKa_notes>
Molecule size exceeds maximum supported for generating protonation states

> <s_epik_Chemistry_Notes>
This compound has an imine and may undergo hydrolysis.

$$$$
