3bzi_ligand
                    3D
 Schrodinger Suite 2020-3.
108108  0  0  1  0            999 V2000
   -9.6200  -25.8720   11.0640 N   0  3  0  0  0  0
   -9.1610  -24.4720   11.2920 C   0  0  2  0  0  0
   -8.3420  -23.9240   10.1220 C   0  0  0  0  0  0
   -8.0410  -24.6300    9.1950 O   0  0  0  0  0  0
   -8.3700  -24.3820   12.6040 C   0  0  0  0  0  0
   -7.3720  -25.4430   13.0530 C   0  0  0  0  0  0
   -6.0480  -25.3010   12.3590 C   0  0  0  0  0  0
   -7.1930  -25.1950   14.5120 C   0  0  0  0  0  0
   -8.0100  -22.6560   10.1500 N   0  0  0  0  0  0
   -7.0430  -22.0720    9.1950 C   0  0  2  0  0  0
   -5.8420  -21.5170    9.9810 C   0  0  0  0  0  0
   -6.0520  -20.9700   11.0780 O   0  0  0  0  0  0
   -7.6850  -20.9080    8.4710 C   0  0  0  0  0  0
   -8.1270  -21.1010    7.0400 C   0  0  0  0  0  0
   -9.1730  -22.2150    6.9260 C   0  0  0  0  0  0
   -8.6530  -19.7810    6.5960 C   0  0  0  0  0  0
   -4.6280  -21.6320    9.4540 N   0  0  0  0  0  0
   -3.4450  -21.3110   10.2440 C   0  0  2  0  0  0
   -2.4870  -20.5460    9.3700 C   0  0  0  0  0  0
   -2.5080  -20.7260    8.1620 O   0  0  0  0  0  0
   -2.8030  -22.6230   10.6960 C   0  0  0  0  0  0
   -3.8610  -23.3460   11.8830 S   0  0  0  0  0  0
   -1.6310  -19.7140    9.9680 N   0  0  0  0  0  0
   -0.5270  -19.1390    9.2200 C   0  0  2  0  0  0
    0.3720  -20.2860    8.6870 C   0  0  0  0  0  0
    0.0850  -21.4770    8.9230 O   0  0  0  0  0  0
    0.2580  -18.1290   10.0960 C   0  0  0  0  0  0
    0.7140  -18.7170   11.3050 O   0  0  0  0  0  0
    1.4660  -19.9390    8.0190 N   0  0  0  0  0  0
    2.3850  -20.9080    7.3970 C   0  0  1  0  0  0
    3.4990  -20.1140    6.7210 C   0  0  1  0  0  0
    4.5560  -21.0170    6.0150 C   0  0  0  0  0  0
    2.8800  -19.2400    5.7590 O   0  0  0  0  0  0
    2.8730  -17.6560    5.8380 P   0  0  0  0  0  0
    2.0650  -17.2730    4.6630 O   0  0  0  0  0  0
    4.2870  -17.2210    5.8480 O   0  5  0  0  0  0
    2.1640  -17.3560    7.2010 O   0  5  0  0  0  0
    2.9850  -21.9490    8.3160 C   0  0  0  0  0  0
    3.6840  -21.6000    9.2690 O   0  0  0  0  0  0
    2.7350  -23.2540    8.0250 N   0  0  0  0  0  0
    3.3420  -24.3560    8.8230 C   0  0  2  0  0  0
    4.8380  -24.5780    8.5810 C   0  0  0  0  0  0
    5.3740  -24.0880    7.6070 O   0  0  0  0  0  0
    2.5120  -25.6040    8.4390 C   0  0  0  0  0  0
    1.9370  -25.2930    7.0630 C   0  0  0  0  0  0
    1.8080  -23.7530    6.9820 C   0  0  0  0  0  0
    5.4910  -25.2810    9.5010 N   0  0  0  0  0  0
    6.9150  -25.6630    9.4020 C   0  0  2  0  0  0
    7.4060  -26.3460    8.1000 C   0  0  0  0  0  0
    6.8020  -27.3190    7.6240 O   0  0  0  0  0  0
    7.2320  -26.5740   10.5570 C   0  0  0  0  0  0
    7.1760  -25.8580   11.8710 C   0  0  0  0  0  0
    7.5160  -24.6360   11.9830 O   0  0  0  0  0  0
    6.7270  -26.5830   12.8900 N   0  0  0  0  0  0
    8.4330  -25.9065    7.5172 O   0  5  0  0  0  0
  -10.1851  -25.9237   10.1217 H   0  0  0  0  0  0
  -10.2663  -26.1862   11.8968 H   0  0  0  0  0  0
   -8.7473  -26.5390   11.0053 H   0  0  0  0  0  0
  -10.0764  -23.8660   11.3604 H   0  0  0  0  0  0
   -7.7540  -23.4707   12.5989 H   0  0  0  0  0  0
   -9.0695  -24.3470   13.4522 H   0  0  0  0  0  0
   -7.7262  -26.4606   12.8314 H   0  0  0  0  0  0
   -6.1772  -25.4835   11.2820 H   0  0  0  0  0  0
   -5.3372  -26.0318   12.7721 H   0  0  0  0  0  0
   -5.6598  -24.2836   12.5145 H   0  0  0  0  0  0
   -8.1616  -25.2984   15.0230 H   0  0  0  0  0  0
   -6.8039  -24.1777   14.6660 H   0  0  0  0  0  0
   -6.4814  -25.9259   14.9236 H   0  0  0  0  0  0
   -8.4772  -22.0210   10.9172 H   0  0  0  0  0  0
   -6.7585  -22.8634    8.4859 H   0  0  0  0  0  0
   -8.5958  -20.6009    9.0059 H   0  0  0  0  0  0
   -6.9795  -20.0649    8.4343 H   0  0  0  0  0  0
   -7.2886  -21.3970    6.3923 H   0  0  0  0  0  0
   -8.7350  -23.1653    7.2651 H   0  0  0  0  0  0
   -9.4927  -22.3119    5.8780 H   0  0  0  0  0  0
  -10.0422  -21.9674    7.5531 H   0  0  0  0  0  0
   -7.8657  -19.0196    6.6977 H   0  0  0  0  0  0
   -9.5157  -19.5018    7.2187 H   0  0  0  0  0  0
   -8.9662  -19.8463    5.5436 H   0  0  0  0  0  0
   -4.5189  -21.9722    8.4136 H   0  0  0  0  0  0
   -3.7413  -20.6942   11.1052 H   0  0  0  0  0  0
   -2.6848  -23.2908    9.8299 H   0  0  0  0  0  0
   -1.8166  -22.4159   11.1366 H   0  0  0  0  0  0
   -3.5920  -24.3063   12.3473 H   0  0  0  0  0  0
   -1.7642  -19.4645   11.0310 H   0  0  0  0  0  0
   -0.9744  -18.5898    8.3784 H   0  0  0  0  0  0
    1.1338  -17.7642    9.5394 H   0  0  0  0  0  0
   -0.3940  -17.2805   10.3509 H   0  0  0  0  0  0
    1.2874  -18.1165   12.0266 H   0  0  0  0  0  0
    1.6700  -18.8607    7.9434 H   0  0  0  0  0  0
    1.7508  -21.4839    6.7070 H   0  0  0  0  0  0
    4.0099  -19.4920    7.4707 H   0  0  0  0  0  0
    5.0242  -21.6815    6.7561 H   0  0  0  0  0  0
    5.3270  -20.3846    5.5507 H   0  0  0  0  0  0
    4.0625  -21.6220    5.2401 H   0  0  0  0  0  0
    3.2979  -24.0810    9.8872 H   0  0  0  0  0  0
    3.1678  -26.4867    8.4131 H   0  0  0  0  0  0
    1.7174  -25.7593    9.1837 H   0  0  0  0  0  0
    2.6176  -25.6729    6.2868 H   0  0  0  0  0  0
    0.9547  -25.7769    6.9581 H   0  0  0  0  0  0
    0.7864  -23.4124    7.2061 H   0  0  0  0  0  0
    2.1170  -23.3644    6.0004 H   0  0  0  0  0  0
    4.9010  -25.5807   10.3797 H   0  0  0  0  0  0
    7.4131  -24.6830    9.4408 H   0  0  0  0  0  0
    6.5038  -27.3980   10.5846 H   0  0  0  0  0  0
    8.2452  -26.9840   10.4332 H   0  0  0  0  0  0
    6.4474  -27.6356   12.7351 H   0  0  0  0  0  0
    6.6349  -26.1306   13.8884 H   0  0  0  0  0  0
  1  2  1  0  0  0
  1 56  1  0  0  0
  1 57  1  0  0  0
  1 58  1  0  0  0
  2  3  1  0  0  0
  2  5  1  0  0  0
  2 59  1  0  0  0
  3  4  2  0  0  0
  3  9  1  0  0  0
  5  6  1  0  0  0
  5 60  1  0  0  0
  5 61  1  0  0  0
  6  7  1  0  0  0
  6  8  1  0  0  0
  6 62  1  0  0  0
  7 63  1  0  0  0
  7 64  1  0  0  0
  7 65  1  0  0  0
  8 66  1  0  0  0
  8 67  1  0  0  0
  8 68  1  0  0  0
  9 10  1  0  0  0
  9 69  1  0  0  0
 10 11  1  0  0  0
 10 13  1  0  0  0
 10 70  1  0  0  0
 11 12  2  0  0  0
 11 17  1  0  0  0
 13 14  1  0  0  0
 13 71  1  0  0  0
 13 72  1  0  0  0
 14 15  1  0  0  0
 14 16  1  0  0  0
 14 73  1  0  0  0
 15 74  1  0  0  0
 15 75  1  0  0  0
 15 76  1  0  0  0
 16 77  1  0  0  0
 16 78  1  0  0  0
 16 79  1  0  0  0
 17 18  1  0  0  0
 17 80  1  0  0  0
 18 19  1  0  0  0
 18 21  1  0  0  0
 18 81  1  0  0  0
 19 20  2  0  0  0
 19 23  1  0  0  0
 21 22  1  0  0  0
 21 82  1  0  0  0
 21 83  1  0  0  0
 22 84  1  0  0  0
 23 24  1  0  0  0
 23 85  1  0  0  0
 24 25  1  0  0  0
 24 27  1  0  0  0
 24 86  1  0  0  0
 25 26  2  0  0  0
 25 29  1  0  0  0
 27 28  1  0  0  0
 27 87  1  0  0  0
 27 88  1  0  0  0
 28 89  1  0  0  0
 29 30  1  0  0  0
 29 90  1  0  0  0
 30 31  1  0  0  0
 30 38  1  0  0  0
 30 91  1  0  0  0
 31 32  1  0  0  0
 31 33  1  0  0  0
 31 92  1  0  0  0
 32 93  1  0  0  0
 32 94  1  0  0  0
 32 95  1  0  0  0
 33 34  1  0  0  0
 34 35  2  0  0  0
 34 36  1  0  0  0
 34 37  1  0  0  0
 38 39  2  0  0  0
 38 40  1  0  0  0
 40 41  1  0  0  0
 40 46  1  0  0  0
 41 42  1  0  0  0
 41 44  1  0  0  0
 41 96  1  0  0  0
 42 43  2  0  0  0
 42 47  1  0  0  0
 44 45  1  0  0  0
 44 97  1  0  0  0
 44 98  1  0  0  0
 45 46  1  0  0  0
 45 99  1  0  0  0
 45100  1  0  0  0
 46101  1  0  0  0
 46102  1  0  0  0
 47 48  1  0  0  0
 47103  1  0  0  0
 48 49  1  0  0  0
 48 51  1  0  0  0
 48104  1  0  0  0
 49 50  2  0  0  0
 49 55  1  0  0  0
 51 52  1  0  0  0
 51105  1  0  0  0
 51106  1  0  0  0
 52 53  2  0  0  0
 52 54  1  0  0  0
 54107  1  0  0  0
 54108  1  0  0  0
M  CHG  4   1   1  36  -1  37  -1  55  -1
M  END
> <s_m_source_file>
../3bzi_ligand.sdf

> <i_m_source_file_index>
1

> <s_epik_input>
W0NIM11bQ0hdKFtDSDNdKVtDSDJdW0NASF0oW05IMytdKUMoPU8pW05IXVtDQEBIXShbQ0gyXVtDSF0oW0NIM10pW0NIM10pQyg9TylbTkhdW0NAQEhdKFtDSDJdW1NIXSlDKD1PKVtOSF1bQ0BASF0oW0NIMl1bT0hdKUMoPU8pW05IXVtDQEBIXShbQ0BASF0oW0NIM10pT1AoPU8pKFtPSF0pW09IXSlDKD1PKU4xW0NAQEhdKFtDSDJdW0NIMl1bQ0gyXTEpQyg9TylbTkhdW0NASF0oQyg9TylbT0hdKVtDSDJdQyg9TylbTkgyXQ==

> <s_epik_cmdline>
J2VwaWtfYXBwJywgJy1pbWFlJywgJ2xpZ2FuZF9wcm8ubWFlJywgJy1vbWFlJywgJ2xpZ2FuZF9wcmVwLm1hZScsICctbXMnLCAnMScsICctcGgnLCAnNycsICctcGh0JywgJzAuNScsICctbnQn

> <r_lp_tautomer_probability>
1

> <r_epik_Ionization_Penalty>
  0.1750

> <r_epik_Ionization_Penalty_Charging>
  0.1646

> <r_epik_Ionization_Penalty_Neutral>
  0.0104

> <r_epik_State_Penalty>
 -0.0000

> <r_epik_Charging_Adjusted_Penalty>
0.164570398549522

> <i_epik_Tot_Q>
-2

> <i_epik_Tot_abs_Q>
4

$$$$
