3c0z_ligand
                    3D
 Schrodinger Suite 2020-3.
 19 18  0  0  1  0            999 V2000
  -35.4870  -25.8380  -15.6880 O   0  0  0  0  0  0
  -37.4870  -27.2050  -17.6530 O   0  0  0  0  0  0
  -36.2040  -25.6400  -16.8410 N   0  0  0  0  0  0
  -36.4150  -26.6370  -17.6800 C   0  0  0  0  0  0
  -35.2990  -27.0090  -18.6420 C   0  0  0  0  0  0
  -35.5260  -28.3770  -19.2790 C   0  0  0  0  0  0
  -34.4050  -28.7640  -20.2420 C   0  0  0  0  0  0
  -34.4850  -30.2550  -20.5500 C   0  0  0  0  0  0
  -35.3168  -25.0005  -14.9955 H   0  0  0  0  0  0
  -36.6086  -24.6437  -17.0728 H   0  0  0  0  0  0
  -35.2435  -26.2605  -19.4462 H   0  0  0  0  0  0
  -34.3420  -27.0368  -18.1003 H   0  0  0  0  0  0
  -35.5777  -29.1439  -18.4921 H   0  0  0  0  0  0
  -36.4701  -28.3666  -19.8433 H   0  0  0  0  0  0
  -34.5102  -28.1923  -21.1759 H   0  0  0  0  0  0
  -33.4318  -28.5382  -19.7816 H   0  0  0  0  0  0
  -33.6766  -30.5300  -21.2434 H   0  0  0  0  0  0
  -35.4572  -30.4824  -21.0115 H   0  0  0  0  0  0
  -34.3789  -30.8283  -19.6172 H   0  0  0  0  0  0
  1  3  1  0  0  0
  1  9  1  0  0  0
  2  4  2  0  0  0
  3  4  1  0  0  0
  3 10  1  0  0  0
  4  5  1  0  0  0
  5  6  1  0  0  0
  5 11  1  0  0  0
  5 12  1  0  0  0
  6  7  1  0  0  0
  6 13  1  0  0  0
  6 14  1  0  0  0
  7  8  1  0  0  0
  7 15  1  0  0  0
  7 16  1  0  0  0
  8 17  1  0  0  0
  8 18  1  0  0  0
  8 19  1  0  0  0
M  END
> <s_m_source_file>
../3c0z_ligand.sdf

> <i_m_source_file_index>
1

> <s_epik_input>
W09IXVtOSF1DKD1PKVtDSDJdW0NIMl1bQ0gyXVtDSDNd

> <s_epik_cmdline>
J2VwaWtfYXBwJywgJy1pbWFlJywgJ2xpZ2FuZF9wcm8ubWFlJywgJy1vbWFlJywgJ2xpZ2FuZF9wcmVwLm1hZScsICctbXMnLCAnMScsICctcGgnLCAnNycsICctcGh0JywgJzAuNScsICctbnQn

> <r_lp_tautomer_probability>
1

> <r_epik_Ionization_Penalty>
  0.0036

> <r_epik_Ionization_Penalty_Charging>
  0.0000

> <r_epik_Ionization_Penalty_Neutral>
  0.0036

> <r_epik_State_Penalty>
 -0.0000

> <r_epik_Charging_Adjusted_Penalty>
0

> <i_epik_Tot_Q>
0

> <i_epik_Tot_abs_Q>
0

> <s_epik_Chemistry_Notes>
This compound has a N-S or N-O group and may undergo hydrolysis at high or low pH.

$$$$
