3c10_ligand
                    3D
 Schrodinger Suite 2020-3.
 44 44  0  0  1  0            999 V2000
   -5.3490   -2.0610    5.8180 O   0  0  0  0  0  0
   -3.2780   -3.5440    7.3150 O   0  0  0  0  0  0
   -5.6670   -9.8750   10.5180 O   0  0  0  0  0  0
   -4.7210   -1.9000    7.0540 N   0  0  0  0  0  0
   -1.2240  -10.2840   15.1360 N   0  0  0  0  0  0
   -4.3220   -9.3450   12.3980 C   0  0  0  0  0  0
   -3.5250  -10.4880   12.2250 C   0  0  0  0  0  0
   -2.5020  -10.7850   13.1300 C   0  0  0  0  0  0
   -2.2610   -9.9570   14.2350 C   0  0  0  0  0  0
   -3.0560   -8.8130   14.4220 C   0  0  0  0  0  0
   -4.0780   -8.5090   13.5040 C   0  0  0  0  0  0
   -5.4110   -9.0540   11.3890 C   0  0  0  0  0  0
   -6.1870   -7.7610   11.3830 C   0  0  1  0  0  0
   -5.5510   -6.8700   10.3210 C   0  0  0  0  0  0
   -5.7630   -5.5500   10.1490 C   0  0  0  0  0  0
   -5.0270   -4.8780    9.0490 C   0  0  0  0  0  0
   -5.0670   -3.5590    8.8200 C   0  0  0  0  0  0
   -4.2970   -2.9910    7.6950 C   0  0  0  0  0  0
   -7.6670   -8.0550   11.1070 C   0  0  0  0  0  0
   -6.7210   -4.7880   11.0330 C   0  0  0  0  0  0
    0.1000   -9.6750   15.0130 C   0  0  0  0  0  0
   -1.4550  -11.2580   16.1980 C   0  0  0  0  0  0
   -4.5865   -0.8929    7.4756 H   0  0  0  0  0  0
   -3.7056  -11.1494   11.3776 H   0  0  0  0  0  0
   -1.8850  -11.6700   12.9748 H   0  0  0  0  0  0
   -2.8808   -8.1615   15.2781 H   0  0  0  0  0  0
   -4.6871   -7.6170   13.6507 H   0  0  0  0  0  0
   -6.1373   -7.2521   12.3569 H   0  0  0  0  0  0
   -4.8591   -7.4072    9.6557 H   0  0  0  0  0  0
   -4.4224   -5.5305    8.4019 H   0  0  0  0  0  0
   -5.6706   -2.9064    9.4679 H   0  0  0  0  0  0
   -8.0677   -8.6990   11.9037 H   0  0  0  0  0  0
   -7.7647   -8.5665   10.1381 H   0  0  0  0  0  0
   -8.2299   -7.1103   11.0813 H   0  0  0  0  0  0
   -7.1551   -5.4713   11.7778 H   0  0  0  0  0  0
   -7.5248   -4.3580   10.4174 H   0  0  0  0  0  0
   -6.1810   -3.9797   11.5477 H   0  0  0  0  0  0
    0.1023   -8.9700   14.1686 H   0  0  0  0  0  0
    0.8499  -10.4603   14.8370 H   0  0  0  0  0  0
    0.3436   -9.1367   15.9408 H   0  0  0  0  0  0
   -2.4945  -11.6145   16.1488 H   0  0  0  0  0  0
   -1.2755  -10.7850   17.1747 H   0  0  0  0  0  0
   -0.7692  -12.1086   16.0709 H   0  0  0  0  0  0
   -5.7095   -1.1808    5.2654 H   0  0  0  0  0  0
  1  4  1  0  0  0
  1 44  1  0  0  0
  2 18  2  0  0  0
  3 12  2  0  0  0
  4 18  1  0  0  0
  4 23  1  0  0  0
  5  9  1  0  0  0
  5 21  1  0  0  0
  5 22  1  0  0  0
  6  7  2  0  0  0
  6 11  1  0  0  0
  6 12  1  0  0  0
  7  8  1  0  0  0
  7 24  1  0  0  0
  8  9  2  0  0  0
  8 25  1  0  0  0
  9 10  1  0  0  0
 10 11  2  0  0  0
 10 26  1  0  0  0
 11 27  1  0  0  0
 12 13  1  0  0  0
 13 14  1  0  0  0
 13 19  1  0  0  0
 13 28  1  0  0  0
 14 15  2  0  0  0
 14 29  1  0  0  0
 15 16  1  0  0  0
 15 20  1  0  0  0
 16 17  2  0  0  0
 16 30  1  0  0  0
 17 18  1  0  0  0
 17 31  1  0  0  0
 19 32  1  0  0  0
 19 33  1  0  0  0
 19 34  1  0  0  0
 20 35  1  0  0  0
 20 36  1  0  0  0
 20 37  1  0  0  0
 21 38  1  0  0  0
 21 39  1  0  0  0
 21 40  1  0  0  0
 22 41  1  0  0  0
 22 42  1  0  0  0
 22 43  1  0  0  0
M  END
> <s_m_source_file>
../3c10_ligand.sdf

> <i_m_source_file_index>
1

> <s_epik_input>
W09IXVtOSF1DKD1PKVxbQ0hdPVtDSF1cQyhbQ0gzXSk9W0NIXVxbQ0BASF0oW0NIM10pQyg9TyljMVtjSF1bY0hdYyhOKFtDSDNdKVtDSDNdKVtjSF1bY0hdMQ==

> <s_epik_cmdline>
J2VwaWtfYXBwJywgJy1pbWFlJywgJ2xpZ2FuZF9wcm8ubWFlJywgJy1vbWFlJywgJ2xpZ2FuZF9wcmVwLm1hZScsICctbXMnLCAnMScsICctcGgnLCAnNycsICctcGh0JywgJzAuNScsICctbnQn

> <r_epik_Ionization_Penalty>
  0.0196

> <r_epik_Ionization_Penalty_Charging>
  0.0000

> <r_epik_Ionization_Penalty_Neutral>
  0.0196

> <r_epik_State_Penalty>
  0.0319

> <r_epik_Charging_Adjusted_Penalty>
0.0318907532779766

> <i_epik_Tot_Q>
0

> <i_epik_Tot_abs_Q>
0

> <s_epik_Chemistry_Notes>
This compound has a N-S or N-O group and may undergo hydrolysis at high or low pH.

$$$$
