3c14_ligand
                    3D
 Schrodinger Suite 2020-3.
 10  9  0  0  1  0            999 V2000
    0.7510    7.4390  -24.8520 P   0  0  0  0  0  0
    0.6060    8.0710  -23.4820 O   0  5  0  0  0  0
    0.2110    8.3580  -25.9240 O   0  5  0  0  0  0
    2.2130    7.1820  -25.1230 O   0  0  0  0  0  0
   -0.0270    6.0260  -24.8890 O   0  0  0  0  0  0
   -1.4480    5.8080  -24.1590 P   0  0  0  0  0  0
   -2.2720    4.8860  -25.0220 O   0  0  0  0  0  0
   -1.2520    5.1800  -22.7930 O   0  5  0  0  0  0
   -2.1770    7.1250  -24.0170 O   0  0  0  0  0  0
   -2.4078    7.7249  -24.9097 H   0  0  0  0  0  0
  1  2  1  0  0  0
  1  3  1  0  0  0
  1  4  2  0  0  0
  1  5  1  0  0  0
  5  6  1  0  0  0
  6  7  2  0  0  0
  6  8  1  0  0  0
  6  9  1  0  0  0
  9 10  1  0  0  0
M  CHG  3   2  -1   3  -1   8  -1
M  END
> <s_m_source_file>
../3c14_ligand.sdf

> <i_m_source_file_index>
1

> <s_epik_input>
W09IXVAoPU8pKFtPSF0pT1AoPU8pKFtPSF0pW09IXQ==

> <s_epik_cmdline>
J2VwaWtfYXBwJywgJy1pbWFlJywgJ2xpZ2FuZF9wcm8ubWFlJywgJy1vbWFlJywgJ2xpZ2FuZF9wcmVwLm1hZScsICctbXMnLCAnMScsICctcGgnLCAnNycsICctcGh0JywgJzAuNScsICctbnQn

> <r_epik_Ionization_Penalty>
  0.2527

> <r_epik_Ionization_Penalty_Charging>
  0.0214

> <r_epik_Ionization_Penalty_Neutral>
  0.2313

> <r_epik_State_Penalty>
  0.2335

> <r_epik_Charging_Adjusted_Penalty>
0.254908391380245

> <i_epik_Tot_Q>
-3

> <i_epik_Tot_abs_Q>
3

$$$$
