3c1k_ligand
                    3D
 Schrodinger Suite 2020-3.
 73 75  0  0  1  0            999 V2000
   22.0550  -15.9300   25.2250 C   0  0  0  0  0  0
   20.9050  -16.6570   25.5380 C   0  0  0  0  0  0
   19.7870  -16.0110   26.0790 C   0  0  0  0  0  0
   19.8140  -14.6410   26.3070 C   0  0  0  0  0  0
   20.9650  -13.9140   25.9970 C   0  0  0  0  0  0
   22.0830  -14.5580   25.4550 C   0  0  0  0  0  0
   18.5680  -16.8090   26.4500 C   0  0  0  0  0  0
   17.6640  -17.4340   25.0350 S   0  0  0  0  0  0
   17.0810  -16.1830   24.1820 N   0  0  0  0  0  0
   17.2530  -14.3100   22.6990 C   0  0  0  0  0  0
   18.0610  -13.6730   21.7500 N   0  0  0  0  0  0
   19.2830  -14.0830   21.3950 C   0  0  0  0  0  0
   19.8440  -15.2090   21.9830 C   0  0  0  0  0  0
   19.1220  -15.9120   22.9400 C   0  0  0  0  0  0
   16.1300  -13.8740   22.9590 O   0  0  0  0  0  0
   20.0230  -13.3520   20.3450 C   0  0  0  0  0  0
   17.5590  -12.4570   21.0970 C   0  0  0  0  0  0
   16.2630  -12.7260   20.4460 C   0  0  0  0  0  0
   17.8450  -15.4900   23.3030 C   0  0  0  0  0  0
   15.2740  -11.9350   20.8680 N   0  0  0  0  0  0
   12.8980  -12.2040   21.3910 C   0  0  0  0  0  0
   12.5000  -13.2800   22.0890 N   0  0  0  0  0  0
   11.5410  -12.8860   23.0000 C   0  0  0  0  0  0
   11.3760  -11.5340   22.8490 N   0  3  0  0  0  0
   12.1970  -11.1180   21.8500 C   0  0  0  0  0  0
   12.9950  -14.6520   21.9140 C   0  0  0  0  0  0
   12.3030  -15.3840   20.7710 C   0  0  0  0  0  0
   12.4130  -16.7130   20.8780 N   0  0  0  0  0  0
   11.8650  -17.5720   19.8440 C   0  0  0  0  0  0
   12.4320  -17.1660   18.4560 C   0  0  0  0  0  0
   10.3270  -17.4480   19.9020 C   0  0  0  0  0  0
   12.2480  -19.0410   20.0940 C   0  0  0  0  0  0
   11.7760  -14.8150   19.8290 O   0  0  0  0  0  0
   16.1320  -13.6700   19.6920 O   0  0  0  0  0  0
   16.5180  -18.1240   25.5420 O   0  0  0  0  0  0
   18.5610  -18.1490   24.1700 O   0  0  0  0  0  0
   12.2880   -9.7380   21.3810 C   0  0  0  0  0  0
   13.9330  -12.1840   20.3020 C   0  0  0  0  0  0
   22.9249  -16.4336   24.8034 H   0  0  0  0  0  0
   20.8775  -17.7321   25.3604 H   0  0  0  0  0  0
   18.9426  -14.1370   26.7250 H   0  0  0  0  0  0
   20.9929  -12.8395   26.1780 H   0  0  0  0  0  0
   22.9773  -13.9838   25.2126 H   0  0  0  0  0  0
   18.8680  -17.6755   27.0576 H   0  0  0  0  0  0
   17.8780  -16.1769   27.0282 H   0  0  0  0  0  0
   20.8521  -15.5379   21.6903 H   0  0  0  0  0  0
   18.9711  -16.9467   22.5985 H   0  0  0  0  0  0
   19.6784  -15.9165   23.8889 H   0  0  0  0  0  0
   19.4234  -12.4957   20.0025 H   0  0  0  0  0  0
   20.2180  -14.0255   19.4974 H   0  0  0  0  0  0
   20.9783  -12.9908   20.7536 H   0  0  0  0  0  0
   17.4266  -11.6651   21.8489 H   0  0  0  0  0  0
   18.2812  -12.1240   20.3371 H   0  0  0  0  0  0
   15.4204  -11.1282   21.6012 H   0  0  0  0  0  0
   11.0146  -13.5285   23.7058 H   0  0  0  0  0  0
   14.0728  -14.6279   21.6957 H   0  0  0  0  0  0
   12.8205  -15.2252   22.8365 H   0  0  0  0  0  0
   12.9186  -17.1549   21.7493 H   0  0  0  0  0  0
   12.1741  -16.1173   18.2471 H   0  0  0  0  0  0
   11.9974  -17.8122   17.6791 H   0  0  0  0  0  0
   13.5260  -17.2810   18.4589 H   0  0  0  0  0  0
   10.0366  -16.4019   19.7249 H   0  0  0  0  0  0
    9.9708  -17.7647   20.8934 H   0  0  0  0  0  0
    9.8781  -18.0891   19.1290 H   0  0  0  0  0  0
   13.3423  -19.1462   20.0559 H   0  0  0  0  0  0
   11.7914  -19.6757   19.3203 H   0  0  0  0  0  0
   11.8841  -19.3513   21.0846 H   0  0  0  0  0  0
   13.0254   -9.6752   20.5672 H   0  0  0  0  0  0
   12.6021   -9.0885   22.2114 H   0  0  0  0  0  0
   11.3050   -9.4109   21.0112 H   0  0  0  0  0  0
   13.6834  -11.3869   19.5862 H   0  0  0  0  0  0
   13.9275  -13.1553   19.7857 H   0  0  0  0  0  0
   10.6666  -10.9914   23.4911 H   0  0  0  0  0  0
  1  2  2  0  0  0
  1  6  1  0  0  0
  1 39  1  0  0  0
  2  3  1  0  0  0
  2 40  1  0  0  0
  3  4  2  0  0  0
  3  7  1  0  0  0
  4  5  1  0  0  0
  4 41  1  0  0  0
  5  6  2  0  0  0
  5 42  1  0  0  0
  6 43  1  0  0  0
  7  8  1  0  0  0
  7 44  1  0  0  0
  7 45  1  0  0  0
  8  9  1  0  0  0
  8 35  2  0  0  0
  8 36  2  0  0  0
  9 19  2  0  0  0
 10 11  1  0  0  0
 10 15  2  0  0  0
 10 19  1  0  0  0
 11 12  1  0  0  0
 11 17  1  0  0  0
 12 13  2  0  0  0
 12 16  1  0  0  0
 13 14  1  0  0  0
 13 46  1  0  0  0
 14 19  1  0  0  0
 14 47  1  0  0  0
 14 48  1  0  0  0
 16 49  1  0  0  0
 16 50  1  0  0  0
 16 51  1  0  0  0
 17 18  1  0  0  0
 17 52  1  0  0  0
 17 53  1  0  0  0
 18 20  1  0  0  0
 18 34  2  0  0  0
 20 38  1  0  0  0
 20 54  1  0  0  0
 21 22  1  0  0  0
 21 25  2  0  0  0
 21 38  1  0  0  0
 22 23  1  0  0  0
 22 26  1  0  0  0
 23 24  2  0  0  0
 23 55  1  0  0  0
 24 25  1  0  0  0
 24 73  1  0  0  0
 25 37  1  0  0  0
 26 27  1  0  0  0
 26 56  1  0  0  0
 26 57  1  0  0  0
 27 28  1  0  0  0
 27 33  2  0  0  0
 28 29  1  0  0  0
 28 58  1  0  0  0
 29 30  1  0  0  0
 29 31  1  0  0  0
 29 32  1  0  0  0
 30 59  1  0  0  0
 30 60  1  0  0  0
 30 61  1  0  0  0
 31 62  1  0  0  0
 31 63  1  0  0  0
 31 64  1  0  0  0
 32 65  1  0  0  0
 32 66  1  0  0  0
 32 67  1  0  0  0
 37 68  1  0  0  0
 37 69  1  0  0  0
 37 70  1  0  0  0
 38 71  1  0  0  0
 38 72  1  0  0  0
M  CHG  1  24   1
M  END
> <s_m_source_file>
../3c1k_ligand.sdf

> <i_m_source_file_index>
1

> <s_epik_input>
W2NIXTFbY0hdW2NIXVtjSF1bY0hdYzFbQ0gyXVMoPU8pKD1PKS9OPUMvMltDSDJdW0NIXT1DKFtDSDNdKU4oQzI9TylbQ0gyXUMoPU8pW05IXVtDSDJdYzNuKFtjSF1uYzNbQ0gzXSlbQ0gyXUMoPU8pW05IXUMoW0NIM10pKFtDSDNdKVtDSDNd

> <s_epik_cmdline>
J2VwaWtfYXBwJywgJy1pbWFlJywgJ2xpZ2FuZF9wcm8ubWFlJywgJy1vbWFlJywgJ2xpZ2FuZF9wcmVwLm1hZScsICctbXMnLCAnMScsICctcGgnLCAnNycsICctcGh0JywgJzAuNScsICctbnQn

> <r_lp_tautomer_probability>
1

> <r_epik_Ionization_Penalty>
  0.2157

> <r_epik_Ionization_Penalty_Charging>
  0.0000

> <r_epik_Ionization_Penalty_Neutral>
  0.2157

> <r_epik_State_Penalty>
  0.2059

> <r_epik_Charging_Adjusted_Penalty>
0.20590346932227

> <i_epik_Tot_Q>
1

> <i_epik_Tot_abs_Q>
1

> <s_epik_Chemistry_Notes>
This compound has an imine and may undergo hydrolysis.

$$$$
