3c1x_ligand
                    3D
 Schrodinger Suite 2020-3.
 67 71  0  0  1  0            999 V2000
   -0.3370    6.2240   52.3960 N   0  0  0  0  0  0
   -0.1970    9.8880   52.7960 C   0  0  0  0  0  0
   -0.3340    8.6370   52.2520 C   0  0  0  0  0  0
   -0.1760    7.4850   53.0140 C   0  0  0  0  0  0
    0.1460    7.6040   54.3940 C   0  0  0  0  0  0
    0.2930    8.8940   54.9560 C   0  0  0  0  0  0
    0.1090   10.0230   54.1320 C   0  0  0  0  0  0
   -0.8400   11.6800   55.3780 C   0  0  0  0  0  0
   -0.6790    6.0220   51.1150 C   0  0  0  0  0  0
   -0.4750   12.6030   56.3860 C   0  0  0  0  0  0
    2.9000   11.1190   56.7100 C   0  0  0  0  0  0
   -1.3010   -1.4800   54.8740 F   0  0  0  0  0  0
   -1.3200   -0.5210   53.9730 C   0  0  0  0  0  0
   -0.2420   -0.4560   53.1420 C   0  0  0  0  0  0
   -0.1690    0.5370   52.1600 C   0  0  0  0  0  0
   -2.4030    0.3500   53.9310 C   0  0  0  0  0  0
   -2.3470    1.3370   52.9470 C   0  0  0  0  0  0
   -1.2400    1.4180   52.0620 C   0  0  0  0  0  0
   -1.1830    2.4440   51.0350 C   0  0  0  0  0  0
   -0.9900    3.7690   51.6900 C   0  0  0  0  0  0
   -0.8150    3.9800   52.8940 O   0  0  0  0  0  0
   -0.9530    4.7710   50.7900 N   0  0  0  0  0  0
   -0.7710    6.8260   50.2270 O   0  0  0  0  0  0
   -0.3680   10.9600   52.0170 F   0  0  0  0  0  0
    0.2170   11.3310   54.5870 O   0  0  0  0  0  0
   -2.0240   11.2190   55.2410 N   0  0  0  0  0  0
   -2.9440   11.6500   56.1400 C   0  0  0  0  0  0
   -2.7460   12.4990   57.0980 N   0  0  0  0  0  0
   -1.5020   12.9730   57.2050 N   0  0  0  0  0  0
   -1.0630   13.8580   58.1250 C   0  0  0  0  0  0
    0.2920   14.0430   57.9310 C   0  0  0  0  0  0
    0.6920   13.2620   56.7790 C   0  0  0  0  0  0
    2.0690   13.2420   56.1810 C   0  0  0  0  0  0
    3.0260   12.5470   57.0480 N   0  0  2  0  0  0
    4.4170   13.0480   56.8310 C   0  0  0  0  0  0
    5.5070   12.1850   57.4940 C   0  0  0  0  0  0
    5.2760   10.6960   57.1810 C   0  0  2  0  0  0
    3.8620   10.2750   57.5090 C   0  0  0  0  0  0
    6.1510    9.8070   57.9820 N   0  3  0  0  0  0
   -0.1786    5.3029   52.9762 H   0  0  0  0  0  0
   -0.5734    8.5430   51.1928 H   0  0  0  0  0  0
    0.2776    6.7143   55.0098 H   0  0  0  0  0  0
    0.5446    9.0131   56.0098 H   0  0  0  0  0  0
    1.8763   10.7798   56.9268 H   0  0  0  0  0  0
    3.1153   10.9748   55.6410 H   0  0  0  0  0  0
    0.5661   -1.1804   53.2430 H   0  0  0  0  0  0
    0.6932    0.6170   51.4979 H   0  0  0  0  0  0
   -3.2416    0.2669   54.6224 H   0  0  0  0  0  0
   -3.1626    2.0544   52.8565 H   0  0  0  0  0  0
   -0.3420    2.2375   50.3567 H   0  0  0  0  0  0
   -2.1232    2.4439   50.4640 H   0  0  0  0  0  0
   -1.1644    4.5084   49.7429 H   0  0  0  0  0  0
   -3.9501   11.2411   56.0469 H   0  0  0  0  0  0
   -1.6720   14.3424   58.8883 H   0  0  0  0  0  0
    0.9462   14.6679   58.5390 H   0  0  0  0  0  0
    2.0401   12.7235   55.2113 H   0  0  0  0  0  0
    2.4202   14.2741   56.0346 H   0  0  0  0  0  0
    4.6342   13.0716   55.7529 H   0  0  0  0  0  0
    4.5103   14.0624   57.2461 H   0  0  0  0  0  0
    6.4941   12.4828   57.1107 H   0  0  0  0  0  0
    5.4777   12.3308   58.5839 H   0  0  0  0  0  0
    5.5041   10.5634   56.1131 H   0  0  0  0  0  0
    3.6718   10.4193   58.5828 H   0  0  0  0  0  0
    3.7214    9.2150   57.2509 H   0  0  0  0  0  0
    7.2043   10.0599   57.7907 H   0  0  0  0  0  0
    5.9680    8.7600   57.6985 H   0  0  0  0  0  0
    5.9300    9.9414   59.0512 H   0  0  0  0  0  0
  1  4  1  0  0  0
  1  9  1  0  0  0
  1 40  1  0  0  0
  2  3  2  0  0  0
  2  7  1  0  0  0
  2 24  1  0  0  0
  3  4  1  0  0  0
  3 41  1  0  0  0
  4  5  2  0  0  0
  5  6  1  0  0  0
  5 42  1  0  0  0
  6  7  2  0  0  0
  6 43  1  0  0  0
  7 25  1  0  0  0
  8 10  1  0  0  0
  8 25  1  0  0  0
  8 26  2  0  0  0
  9 22  1  0  0  0
  9 23  2  0  0  0
 10 29  1  0  0  0
 10 32  2  0  0  0
 11 34  1  0  0  0
 11 38  1  0  0  0
 11 44  1  0  0  0
 11 45  1  0  0  0
 12 13  1  0  0  0
 13 14  2  0  0  0
 13 16  1  0  0  0
 14 15  1  0  0  0
 14 46  1  0  0  0
 15 18  2  0  0  0
 15 47  1  0  0  0
 16 17  2  0  0  0
 16 48  1  0  0  0
 17 18  1  0  0  0
 17 49  1  0  0  0
 18 19  1  0  0  0
 19 20  1  0  0  0
 19 50  1  0  0  0
 19 51  1  0  0  0
 20 21  2  0  0  0
 20 22  1  0  0  0
 22 52  1  0  0  0
 26 27  1  0  0  0
 27 28  2  0  0  0
 27 53  1  0  0  0
 28 29  1  0  0  0
 29 30  1  0  0  0
 30 31  2  0  0  0
 30 54  1  0  0  0
 31 32  1  0  0  0
 31 55  1  0  0  0
 32 33  1  0  0  0
 33 34  1  0  0  0
 33 56  1  0  0  0
 33 57  1  0  0  0
 34 35  1  0  0  0
 35 36  1  0  0  0
 35 58  1  0  0  0
 35 59  1  0  0  0
 36 37  1  0  0  0
 36 60  1  0  0  0
 36 61  1  0  0  0
 37 38  1  0  0  0
 37 39  1  0  0  0
 37 62  1  0  0  0
 38 63  1  0  0  0
 38 64  1  0  0  0
 39 65  1  0  0  0
 39 66  1  0  0  0
 39 67  1  0  0  0
M  CHG  1  39   1
M  END
> <s_m_source_file>
../3c1x_ligand.sdf

> <i_m_source_file_index>
1

> <s_epik_input>
RmMxW2NIXVtjSF1jKFtjSF1bY0hdMSlbQ0gyXUMoPU8pW05IXUMoPU8pW05IXWMoW2NIXWMyRilbY0hdW2NIXWMyT2MzbltjSF1ubihjMzQpW2NIXVtjSF1jNFtDSDJdW05ASCtdNVtDSDJdW0NIMl1bQ0BIXShbTkgzK10pW0NIMl1bQ0gyXTU=

> <s_epik_cmdline>
J2VwaWtfYXBwJywgJy1pbWFlJywgJ2xpZ2FuZF9wcm8ubWFlJywgJy1vbWFlJywgJ2xpZ2FuZF9wcmVwLm1hZScsICctbXMnLCAnMScsICctcGgnLCAnNycsICctcGh0JywgJzAuNScsICctbnQn

> <r_lp_tautomer_probability>
0.99990000499975

> <r_epik_Ionization_Penalty>
  0.3083

> <r_epik_Ionization_Penalty_Charging>
  0.0017

> <r_epik_Ionization_Penalty_Neutral>
  0.3066

> <r_epik_State_Penalty>
  0.3004

> <r_epik_Charging_Adjusted_Penalty>
0.302110797559079

> <i_epik_Tot_Q>
1

> <i_epik_Tot_abs_Q>
1

$$$$
