3c2f_ligand
                    3D
 Schrodinger Suite 2020-3.
 30 30  0  0  1  0            999 V2000
   26.5970  -14.9160   44.8780 C   0  0  1  0  0  0
   26.5310  -16.2310   44.1890 C   0  0  1  0  0  0
   27.1200  -15.8080   42.8930 C   0  0  1  0  0  0
   28.3290  -15.0710   43.3870 C   0  0  1  0  0  0
   28.9310  -14.1700   42.3660 C   0  0  0  0  0  0
   26.6820  -15.2160   46.2470 O   0  0  0  0  0  0
   27.4640  -17.0060   44.9050 O   0  0  0  0  0  0
   27.3920  -16.9790   42.1370 O   0  0  0  0  0  0
   27.7660  -14.2910   44.3940 O   0  0  0  0  0  0
   30.1340  -13.6660   42.8690 O   0  0  0  0  0  0
   30.7660  -12.3470   42.3340 P   0  0  0  0  0  0
   29.8540  -11.2580   42.5240 O   0  5  0  0  0  0
   31.8320  -12.2400   43.2740 O   0  0  0  0  0  0
   31.1140  -12.7350   40.9880 O   0  5  0  0  0  0
   25.7910  -14.3490   47.2120 P   0  0  1  0  0  0
   25.1360  -13.3750   46.3210 O   0  5  0  0  0  0
   24.9390  -15.2630   47.9850 O   0  0  0  0  0  0
   27.0470  -13.7300   48.3130 O   0  0  0  0  0  0
   27.7510  -12.1520   47.8570 P   0  0  0  0  0  0
   26.6800  -11.1230   47.8450 O   0  5  0  0  0  0
   28.4720  -12.3180   46.6040 O   0  0  0  0  0  0
   28.6610  -12.0220   49.0140 O   0  5  0  0  0  0
   25.7587  -14.2174   44.7397 H   0  0  0  0  0  0
   25.5920  -16.8004   44.1246 H   0  0  0  0  0  0
   26.5114  -15.2233   42.1875 H   0  0  0  0  0  0
   29.1400  -15.7254   43.7391 H   0  0  0  0  0  0
   29.1197  -14.7369   41.4424 H   0  0  0  0  0  0
   28.2383  -13.3424   42.1532 H   0  0  0  0  0  0
   27.2006  -17.4089   45.8941 H   0  0  0  0  0  0
   26.5624  -17.5800   41.7362 H   0  0  0  0  0  0
  1  2  1  0  0  0
  1  6  1  0  0  0
  1  9  1  0  0  0
  1 23  1  0  0  0
  2  3  1  0  0  0
  2  7  1  0  0  0
  2 24  1  0  0  0
  3  4  1  0  0  0
  3  8  1  0  0  0
  3 25  1  0  0  0
  4  5  1  0  0  0
  4  9  1  0  0  0
  4 26  1  0  0  0
  5 10  1  0  0  0
  5 27  1  0  0  0
  5 28  1  0  0  0
  6 15  1  0  0  0
  7 29  1  0  0  0
  8 30  1  0  0  0
 10 11  1  0  0  0
 11 12  1  0  0  0
 11 13  2  0  0  0
 11 14  1  0  0  0
 15 16  1  0  0  0
 15 17  2  0  0  0
 15 18  1  0  0  0
 18 19  1  0  0  0
 19 20  1  0  0  0
 19 21  2  0  0  0
 19 22  1  0  0  0
M  CHG  5  12  -1  14  -1  16  -1  20  -1  22  -1
M  END
> <s_m_source_file>
../3c2f_ligand.sdf

> <i_m_source_file_index>
1

> <s_epik_input>
W09IXVAoPU8pKFtPSF0pT1tQQEBdKD1PKShbT0hdKU9bQ0BASF0xW0NASF0oW09IXSlbQ0BIXShbT0hdKVtDQEhdKE8xKVtDSDJdT1AoPU8pKFtPSF0pW09IXQ==

> <s_epik_cmdline>
J2VwaWtfYXBwJywgJy1pbWFlJywgJ2xpZ2FuZF9wcm8ubWFlJywgJy1vbWFlJywgJ2xpZ2FuZF9wcmVwLm1hZScsICctbXMnLCAnMScsICctcGgnLCAnNycsICctcGh0JywgJzAuNScsICctbnQn

> <r_epik_Ionization_Penalty>
  0.1986

> <r_epik_Ionization_Penalty_Charging>
  0.1986

> <r_epik_Ionization_Penalty_Neutral>
  0.0000

> <r_epik_State_Penalty>
  0.1663

> <r_epik_Charging_Adjusted_Penalty>
0.364925256017178

> <i_epik_Tot_Q>
-5

> <i_epik_Tot_abs_Q>
5

> <s_epik_Chemistry_Notes>
This compound contains an acetal/aminal-like group ( X-CH(R)-Y where X, Y are N, S, or O) that may be acid/base labile, releasing an aldehyde.

$$$$
