3c2u_ligand
                    3D
 Schrodinger Suite 2020-3.
 46 45  0  0  1  0            999 V2000
   61.1180   38.1320   48.2560 C   0  0  0  0  0  0
   60.3360   38.9610   47.2550 C   0  0  0  0  0  0
   60.2060   37.5320   49.2840 C   0  0  0  0  0  0
   61.0240   36.8030   50.2530 N   0  0  1  0  0  0
   60.4920   35.6410   50.9440 C   0  0  0  0  0  0
   61.4450   35.1150   51.9590 C   0  0  0  0  0  0
   59.2420   36.0590   51.7270 C   0  0  0  0  0  0
   60.3420   34.5270   49.9020 C   0  0  0  0  0  0
   59.4100   38.1560   46.5040 N   0  3  0  0  0  0
   59.7510   37.3700   45.3260 C   0  0  0  0  0  0
   60.8170   36.2980   45.5750 C   0  0  0  0  0  0
   60.3060   38.2340   44.1660 C   0  0  0  0  0  0
   58.4200   36.7800   44.9070 C   0  0  0  0  0  0
   60.4370   35.2010   46.4270 O   0  0  0  0  0  0
   59.4490   39.3870   43.9490 O   0  0  0  0  0  0
   58.6310   35.7470   43.9600 O   0  0  0  0  0  0
   61.8080   36.2390   52.8770 O   0  0  0  0  0  0
   58.4400   34.9450   52.1340 O   0  0  0  0  0  0
   59.0390   34.4940   49.3340 O   0  0  0  0  0  0
   61.6407   37.3194   47.7302 H   0  0  0  0  0  0
   61.8535   38.7712   48.7664 H   0  0  0  0  0  0
   59.7667   39.7374   47.7871 H   0  0  0  0  0  0
   61.0326   39.4364   46.5488 H   0  0  0  0  0  0
   59.6460   38.3327   49.7893 H   0  0  0  0  0  0
   59.5010   36.8453   48.7926 H   0  0  0  0  0  0
   61.9266   36.4187   49.7554 H   0  0  0  0  0  0
   60.9666   34.3017   52.5244 H   0  0  0  0  0  0
   62.3437   34.7312   51.4540 H   0  0  0  0  0  0
   59.5427   36.6040   52.6340 H   0  0  0  0  0  0
   58.6163   36.7099   51.0986 H   0  0  0  0  0  0
   61.0651   34.6861   49.0885 H   0  0  0  0  0  0
   60.5324   33.5530   50.3765 H   0  0  0  0  0  0
   58.9795   37.3846   47.1594 H   0  0  0  0  0  0
   58.6048   38.7939   46.1106 H   0  0  0  0  0  0
   61.1134   35.8462   44.6169 H   0  0  0  0  0  0
   61.6956   36.7581   46.0508 H   0  0  0  0  0  0
   61.3194   38.5795   44.4185 H   0  0  0  0  0  0
   60.3424   37.6326   43.2457 H   0  0  0  0  0  0
   57.9083   36.3668   45.7887 H   0  0  0  0  0  0
   57.7963   37.5658   44.4559 H   0  0  0  0  0  0
   61.1573   34.3987   46.6448 H   0  0  0  0  0  0
   59.6932   40.1129   43.1594 H   0  0  0  0  0  0
   57.7727   35.2012   43.5411 H   0  0  0  0  0  0
   62.5078   36.0663   53.7080 H   0  0  0  0  0  0
   57.5143   35.1128   52.7041 H   0  0  0  0  0  0
   58.7909   33.7424   48.5702 H   0  0  0  0  0  0
  1  2  1  0  0  0
  1  3  1  0  0  0
  1 20  1  0  0  0
  1 21  1  0  0  0
  2  9  1  0  0  0
  2 22  1  0  0  0
  2 23  1  0  0  0
  3  4  1  0  0  0
  3 24  1  0  0  0
  3 25  1  0  0  0
  4  5  1  0  0  0
  4 26  1  0  0  0
  5  6  1  0  0  0
  5  7  1  0  0  0
  5  8  1  0  0  0
  6 17  1  0  0  0
  6 27  1  0  0  0
  6 28  1  0  0  0
  7 18  1  0  0  0
  7 29  1  0  0  0
  7 30  1  0  0  0
  8 19  1  0  0  0
  8 31  1  0  0  0
  8 32  1  0  0  0
  9 10  1  0  0  0
  9 33  1  0  0  0
  9 34  1  0  0  0
 10 11  1  0  0  0
 10 12  1  0  0  0
 10 13  1  0  0  0
 11 14  1  0  0  0
 11 35  1  0  0  0
 11 36  1  0  0  0
 12 15  1  0  0  0
 12 37  1  0  0  0
 12 38  1  0  0  0
 13 16  1  0  0  0
 13 39  1  0  0  0
 13 40  1  0  0  0
 14 41  1  0  0  0
 15 42  1  0  0  0
 16 43  1  0  0  0
 17 44  1  0  0  0
 18 45  1  0  0  0
 19 46  1  0  0  0
M  CHG  1   9   1
M  END
> <s_m_source_file>
../3c2u_ligand.sdf

> <i_m_source_file_index>
1

> <s_epik_input>
W09IXVtDSDJdQyhbQ0gyXVtPSF0pKFtDSDJdW09IXSlbTkgyK11bQ0gyXVtDSDJdW0NIMl1bTkgyK11DKFtDSDJdW09IXSkoW0NIMl1bT0hdKVtDSDJdW09IXQ==

> <s_epik_cmdline>
J2VwaWtfYXBwJywgJy1pbWFlJywgJ2xpZ2FuZF9wcm8ubWFlJywgJy1vbWFlJywgJ2xpZ2FuZF9wcmVwLm1hZScsICctbXMnLCAnMScsICctcGgnLCAnNycsICctcGh0JywgJzAuNScsICctbnQn

> <r_epik_Ionization_Penalty>
  0.0419

> <r_epik_Ionization_Penalty_Charging>
  0.0410

> <r_epik_Ionization_Penalty_Neutral>
  0.0009

> <r_epik_State_Penalty>
  0.0346

> <r_epik_Charging_Adjusted_Penalty>
0.0756305471398669

> <i_epik_Tot_Q>
1

> <i_epik_Tot_abs_Q>
1

$$$$
