3c3o_ligand
                    3D
 Schrodinger Suite 2020-3.
212213  0  0  1  0            999 V2000
   37.8880   45.7070    2.4140 N   0  3  0  0  0  0
   37.7110   44.2300    2.1830 C   0  0  2  0  0  0
   36.2870   43.7190    2.5040 C   0  0  0  0  0  0
   35.9750   42.5320    2.3390 O   0  0  0  0  0  0
   38.7650   43.4460    2.9790 C   0  0  0  0  0  0
   38.9750   42.0220    2.4620 C   0  0  0  0  0  0
   38.2670   41.5910    1.5220 O   0  0  0  0  0  0
   39.8420   41.2620    2.9480 O   0  0  0  0  0  0
   35.4210   44.6360    2.9290 N   0  0  0  0  0  0
   34.0270   44.3100    3.2610 C   0  0  2  0  0  0
   33.1130   44.0870    2.0320 C   0  0  0  0  0  0
   31.8860   44.2100    2.1290 O   0  0  0  0  0  0
   33.4380   45.4010    4.1760 C   0  0  0  0  0  0
   32.4950   44.8560    5.2450 C   0  0  0  0  0  0
   31.1800   45.6250    5.3670 C   0  0  0  0  0  0
   30.7400   46.2740    4.3790 O   0  0  0  0  0  0
   30.5670   45.5620    6.4620 O   0  0  0  0  0  0
   33.7060   43.7630    0.8840 N   0  0  0  0  0  0
   32.9210   43.4400   -0.3050 C   0  0  2  0  0  0
   32.5240   41.9710   -0.2700 C   0  0  0  0  0  0
   31.3410   41.6540   -0.2250 O   0  0  0  0  0  0
   33.6710   43.7790   -1.5990 C   0  0  0  0  0  0
   32.7610   43.9600   -2.8180 C   0  0  0  0  0  0
   33.5290   44.2190   -4.1220 C   0  0  0  0  0  0
   33.0620   43.7410   -5.1910 O   0  0  0  0  0  0
   34.5940   44.9040   -4.1010 O   0  0  0  0  0  0
   33.5110   41.0780   -0.2700 N   0  0  0  0  0  0
   33.2560   39.6470   -0.1210 C   0  0  2  0  0  0
   32.5240   39.2750    1.2000 C   0  0  0  0  0  0
   31.9740   38.1790    1.3120 O   0  0  0  0  0  0
   34.5590   38.8640   -0.2820 C   0  0  0  0  0  0
   32.5160   40.1990    2.1690 N   0  0  0  0  0  0
   31.7870   40.0690    3.4480 C   0  0  2  0  0  0
   30.2740   40.1910    3.3330 C   0  0  0  0  0  0
   29.5540   39.4830    4.0210 O   0  0  0  0  0  0
   32.2530   41.1140    4.4730 C   0  0  0  0  0  0
   33.4780   40.9170    5.3660 C   0  0  0  0  0  0
   33.1620   41.4810    6.7600 C   0  0  0  0  0  0
   33.9140   39.4450    5.4500 C   0  0  0  0  0  0
   29.7950   41.1210    2.5040 N   0  0  0  0  0  0
   28.3620   41.2150    2.1820 C   0  0  2  0  0  0
   27.8820   39.9830    1.4080 C   0  0  0  0  0  0
   26.7790   39.4970    1.6400 O   0  0  0  0  0  0
   28.0640   42.4710    1.3620 C   0  0  0  0  0  0
   28.5220   43.7860    1.9680 C   0  0  0  0  0  0
   28.4900   44.8750    0.8980 C   0  0  0  0  0  0
   28.5580   46.2700    1.4770 C   0  0  0  0  0  0
   28.1360   47.2260    0.4340 N   0  3  0  0  0  0
   28.7250   39.4880    0.4980 N   0  0  0  0  0  0
   28.4510   38.2970   -0.3150 C   0  0  2  0  0  0
   28.6210   37.0030    0.4860 C   0  0  0  0  0  0
   28.6350   35.9090   -0.0810 O   0  0  0  0  0  0
   29.3620   38.2770   -1.5620 C   0  0  0  0  0  0
   28.8120   38.9840   -2.8530 C   0  0  0  0  0  0
   29.2100   40.4780   -3.0130 C   0  0  0  0  0  0
   30.1730   40.8100   -3.7250 O   0  0  0  0  0  0
   28.4510   41.3680   -2.3760 N   0  0  0  0  0  0
   28.8200   37.1510    1.7970 N   0  0  0  0  0  0
   28.7180   36.0630    2.7790 C   0  0  2  0  0  0
   27.5040   36.2930    3.6730 C   0  0  0  0  0  0
   26.7040   35.3810    3.8820 O   0  0  0  0  0  0
   29.9760   35.9490    3.6560 C   0  0  0  0  0  0
   30.8910   34.7390    3.5110 C   0  0  0  0  0  0
   31.9990   34.7860    4.5700 C   0  0  0  0  0  0
   30.1180   33.4300    3.5960 C   0  0  0  0  0  0
   27.3650   37.5020    4.2090 N   0  0  0  0  0  0
   26.1570   37.8630    4.9580 C   0  0  2  0  0  0
   24.8680   37.4460    4.2220 C   0  0  0  0  0  0
   23.9660   36.8490    4.8250 O   0  0  0  0  0  0
   26.1420   39.3690    5.2750 C   0  0  0  0  0  0
   24.8140   37.7410    2.9180 N   0  0  0  0  0  0
   23.6580   37.4480    2.0590 C   0  0  2  0  0  0
   23.6950   36.0730    1.3720 C   0  0  0  0  0  0
   23.4750   35.9540    0.1620 O   0  0  0  0  0  0
   23.5050   38.5550    1.0220 C   0  0  0  0  0  0
   23.4420   39.9280    1.6510 C   0  0  0  0  0  0
   22.7120   40.9090    0.7670 C   0  0  0  0  0  0
   23.2480   41.2100   -0.3310 O   0  0  0  0  0  0
   21.6050   41.3670    1.1680 O   0  0  0  0  0  0
   23.9650   35.0410    2.1570 N   0  0  0  0  0  0
   23.9930   33.6600    1.6800 C   0  0  2  0  0  0
   23.0780   32.8820    2.5970 C   0  0  0  0  0  0
   22.4030   31.9460    2.1810 O   0  0  0  0  0  0
   25.4280   33.1280    1.7280 C   0  0  0  0  0  0
   25.6310   31.6470    1.8720 C   0  0  0  0  0  0
   25.6210   30.7240    0.8780 C   0  0  0  0  0  0
   25.9590   30.9310    3.0770 C   0  0  0  0  0  0
   25.9030   29.4650    1.3730 N   0  0  0  0  0  0
   26.1060   29.5610    2.7270 C   0  0  0  0  0  0
   26.1350   31.3050    4.4260 C   0  0  0  0  0  0
   26.4120   28.5630    3.6720 C   0  0  0  0  0  0
   26.4290   30.3160    5.3620 C   0  0  0  0  0  0
   26.5790   28.9590    4.9760 C   0  0  0  0  0  0
   23.0540   33.3070    3.8530 N   0  0  0  0  0  0
   22.2650   32.6640    4.8740 C   0  0  2  0  0  0
   20.8930   33.3170    4.7890 C   0  0  0  0  0  0
   19.9030   32.8180    5.3570 O   0  0  0  0  0  0
   22.9170   32.8050    6.2760 C   0  0  0  0  0  0
   22.7620   34.2440    6.8690 C   0  0  0  0  0  0
   22.3570   31.7690    7.2030 C   0  0  0  0  0  0
   20.8380   34.4260    4.0470 N   0  0  0  0  0  0
   19.5670   35.0690    3.7220 C   0  0  2  0  0  0
   18.7340   34.2480    2.6900 C   0  0  0  0  0  0
   18.8580   33.0070    2.5780 O   0  0  0  0  0  0
   19.8140   36.5050    3.2420 C   0  0  0  0  0  0
   18.6440   37.2880    3.3920 O   0  0  0  0  0  0
   17.9010   34.8070    1.9490 O   0  0  0  0  0  0
   37.1300   46.2612    1.8410 H   0  0  0  0  0  0
   38.8922   46.0119    2.0844 H   0  0  0  0  0  0
   37.7711   45.9271    3.4854 H   0  0  0  0  0  0
   37.8655   44.0843    1.1037 H   0  0  0  0  0  0
   39.7320   43.9669    2.9191 H   0  0  0  0  0  0
   38.4516   43.3744    4.0310 H   0  0  0  0  0  0
   38.4145   40.5675    1.1469 H   0  0  0  0  0  0
   35.7827   45.6701    3.0284 H   0  0  0  0  0  0
   34.1150   43.3456    3.7828 H   0  0  0  0  0  0
   34.2546   45.9253    4.6939 H   0  0  0  0  0  0
   32.8674   46.1197    3.5694 H   0  0  0  0  0  0
   32.2392   43.8121    5.0106 H   0  0  0  0  0  0
   32.9888   44.9009    6.2269 H   0  0  0  0  0  0
   29.7939   46.8288    4.4627 H   0  0  0  0  0  0
   34.8049   43.7410    0.8402 H   0  0  0  0  0  0
   32.0248   44.0755   -0.2499 H   0  0  0  0  0  0
   34.2256   44.7195   -1.4657 H   0  0  0  0  0  0
   34.3755   42.9686   -1.8376 H   0  0  0  0  0  0
   32.1597   43.0507   -2.9649 H   0  0  0  0  0  0
   32.0933   44.8184   -2.6529 H   0  0  0  0  0  0
   35.1461   45.0910   -5.0338 H   0  0  0  0  0  0
   34.5419   41.4438   -0.3864 H   0  0  0  0  0  0
   32.5751   39.4195   -0.9544 H   0  0  0  0  0  0
   35.0465   39.1533   -1.2247 H   0  0  0  0  0  0
   34.3395   37.7863   -0.2984 H   0  0  0  0  0  0
   35.2286   39.0891    0.5612 H   0  0  0  0  0  0
   33.1051   41.1044    1.9613 H   0  0  0  0  0  0
   32.0395   39.0392    3.7410 H   0  0  0  0  0  0
   32.4887   42.0556    3.9554 H   0  0  0  0  0  0
   31.4530   41.2896    5.2073 H   0  0  0  0  0  0
   34.3231   41.4608    4.9186 H   0  0  0  0  0  0
   32.8537   42.5329    6.6687 H   0  0  0  0  0  0
   34.0586   41.4154    7.3939 H   0  0  0  0  0  0
   32.3476   40.8984    7.2153 H   0  0  0  0  0  0
   34.1330   39.0693    4.4396 H   0  0  0  0  0  0
   33.1049   38.8478    5.8959 H   0  0  0  0  0  0
   34.8159   39.3648    6.0746 H   0  0  0  0  0  0
   30.5069   41.8305    2.0569 H   0  0  0  0  0  0
   27.8590   41.2688    3.1588 H   0  0  0  0  0  0
   28.5608   42.3964    0.3834 H   0  0  0  0  0  0
   26.9778   42.5642    1.2156 H   0  0  0  0  0  0
   27.8505   44.0625    2.7942 H   0  0  0  0  0  0
   29.5476   43.6761    2.3502 H   0  0  0  0  0  0
   29.3489   44.7503    0.2221 H   0  0  0  0  0  0
   27.5560   44.7961    0.3223 H   0  0  0  0  0  0
   27.8871   46.3394    2.3460 H   0  0  0  0  0  0
   29.5895   46.4864    1.7919 H   0  0  0  0  0  0
   28.1784   48.2492    0.8357 H   0  0  0  0  0  0
   27.1064   46.9970    0.1217 H   0  0  0  0  0  0
   28.8088   47.1440   -0.4324 H   0  0  0  0  0  0
   29.6739   40.0309    0.3759 H   0  0  0  0  0  0
   27.3933   38.3930   -0.6015 H   0  0  0  0  0  0
   30.3125   38.7795   -1.3297 H   0  0  0  0  0  0
   29.5600   37.2353   -1.8548 H   0  0  0  0  0  0
   29.1895   38.4632   -3.7453 H   0  0  0  0  0  0
   27.7125   38.9528   -2.8480 H   0  0  0  0  0  0
   27.6081   41.0286   -1.7560 H   0  0  0  0  0  0
   28.6670   42.4425   -2.4699 H   0  0  0  0  0  0
   29.0755   38.1684    2.1280 H   0  0  0  0  0  0
   28.6070   35.1476    2.1792 H   0  0  0  0  0  0
   30.6352   36.8086    3.4650 H   0  0  0  0  0  0
   29.6840   35.9394    4.7165 H   0  0  0  0  0  0
   31.3421   34.7794    2.5086 H   0  0  0  0  0  0
   32.5428   35.7388    4.4896 H   0  0  0  0  0  0
   32.6965   33.9509    4.4082 H   0  0  0  0  0  0
   31.5525   34.7020    5.5718 H   0  0  0  0  0  0
   29.3301   33.4190    2.8285 H   0  0  0  0  0  0
   29.6608   33.3382    4.5922 H   0  0  0  0  0  0
   30.8047   32.5871    3.4287 H   0  0  0  0  0  0
   28.1743   38.2364    4.0834 H   0  0  0  0  0  0
   26.2335   37.2826    5.8893 H   0  0  0  0  0  0
   27.0697   39.6426    5.7990 H   0  0  0  0  0  0
   25.2776   39.6004    5.9147 H   0  0  0  0  0  0
   26.0680   39.9402    4.3379 H   0  0  0  0  0  0
   25.7033   38.2311    2.4950 H   0  0  0  0  0  0
   22.8124   37.4277    2.7623 H   0  0  0  0  0  0
   24.3638   38.5350    0.3349 H   0  0  0  0  0  0
   22.5766   38.3988    0.4531 H   0  0  0  0  0  0
   22.9129   39.8665    2.6134 H   0  0  0  0  0  0
   24.4629   40.3024    1.8172 H   0  0  0  0  0  0
   21.0487   42.0839    0.5462 H   0  0  0  0  0  0
   24.1745   35.2622    3.2140 H   0  0  0  0  0  0
   23.6382   33.6088    0.6401 H   0  0  0  0  0  0
   25.9501   33.3970    0.7979 H   0  0  0  0  0  0
   25.9550   33.5715    2.5857 H   0  0  0  0  0  0
   25.4179   30.9455   -0.1698 H   0  0  0  0  0  0
   26.0427   32.3477    4.7300 H   0  0  0  0  0  0
   26.5123   27.5177    3.3799 H   0  0  0  0  0  0
   26.5460   30.5898    6.4105 H   0  0  0  0  0  0
   26.8323   28.2147    5.7310 H   0  0  0  0  0  0
   23.6670   34.1854    4.1033 H   0  0  0  0  0  0
   22.2133   31.5878    4.6523 H   0  0  0  0  0  0
   23.9935   32.5987    6.1831 H   0  0  0  0  0  0
   23.1820   34.9778    6.1653 H   0  0  0  0  0  0
   23.2991   34.3056    7.8270 H   0  0  0  0  0  0
   21.6959   34.4606    7.0317 H   0  0  0  0  0  0
   22.4820   30.7715    6.7565 H   0  0  0  0  0  0
   21.2874   31.9651    7.3688 H   0  0  0  0  0  0
   22.8906   31.8101    8.1640 H   0  0  0  0  0  0
   21.7815   34.8548    3.6782 H   0  0  0  0  0  0
   19.0173   35.0915    4.6745 H   0  0  0  0  0  0
   18.2548   32.4584    1.8396 H   0  0  0  0  0  0
   20.6232   36.9558    3.8352 H   0  0  0  0  0  0
   20.1010   36.4925    2.1802 H   0  0  0  0  0  0
   18.6489   38.3469    3.0940 H   0  0  0  0  0  0
  1  2  1  0  0  0
  1108  1  0  0  0
  1109  1  0  0  0
  1110  1  0  0  0
  2  3  1  0  0  0
  2  5  1  0  0  0
  2111  1  0  0  0
  3  4  2  0  0  0
  3  9  1  0  0  0
  5  6  1  0  0  0
  5112  1  0  0  0
  5113  1  0  0  0
  6  7  1  0  0  0
  6  8  2  0  0  0
  7114  1  0  0  0
  9 10  1  0  0  0
  9115  1  0  0  0
 10 11  1  0  0  0
 10 13  1  0  0  0
 10116  1  0  0  0
 11 12  2  0  0  0
 11 18  1  0  0  0
 13 14  1  0  0  0
 13117  1  0  0  0
 13118  1  0  0  0
 14 15  1  0  0  0
 14119  1  0  0  0
 14120  1  0  0  0
 15 16  1  0  0  0
 15 17  2  0  0  0
 16121  1  0  0  0
 18 19  1  0  0  0
 18122  1  0  0  0
 19 20  1  0  0  0
 19 22  1  0  0  0
 19123  1  0  0  0
 20 21  2  0  0  0
 20 27  1  0  0  0
 22 23  1  0  0  0
 22124  1  0  0  0
 22125  1  0  0  0
 23 24  1  0  0  0
 23126  1  0  0  0
 23127  1  0  0  0
 24 25  2  0  0  0
 24 26  1  0  0  0
 26128  1  0  0  0
 27 28  1  0  0  0
 27129  1  0  0  0
 28 29  1  0  0  0
 28 31  1  0  0  0
 28130  1  0  0  0
 29 30  2  0  0  0
 29 32  1  0  0  0
 31131  1  0  0  0
 31132  1  0  0  0
 31133  1  0  0  0
 32 33  1  0  0  0
 32134  1  0  0  0
 33 34  1  0  0  0
 33 36  1  0  0  0
 33135  1  0  0  0
 34 35  2  0  0  0
 34 40  1  0  0  0
 36 37  1  0  0  0
 36136  1  0  0  0
 36137  1  0  0  0
 37 38  1  0  0  0
 37 39  1  0  0  0
 37138  1  0  0  0
 38139  1  0  0  0
 38140  1  0  0  0
 38141  1  0  0  0
 39142  1  0  0  0
 39143  1  0  0  0
 39144  1  0  0  0
 40 41  1  0  0  0
 40145  1  0  0  0
 41 42  1  0  0  0
 41 44  1  0  0  0
 41146  1  0  0  0
 42 43  2  0  0  0
 42 49  1  0  0  0
 44 45  1  0  0  0
 44147  1  0  0  0
 44148  1  0  0  0
 45 46  1  0  0  0
 45149  1  0  0  0
 45150  1  0  0  0
 46 47  1  0  0  0
 46151  1  0  0  0
 46152  1  0  0  0
 47 48  1  0  0  0
 47153  1  0  0  0
 47154  1  0  0  0
 48155  1  0  0  0
 48156  1  0  0  0
 48157  1  0  0  0
 49 50  1  0  0  0
 49158  1  0  0  0
 50 51  1  0  0  0
 50 53  1  0  0  0
 50159  1  0  0  0
 51 52  2  0  0  0
 51 58  1  0  0  0
 53 54  1  0  0  0
 53160  1  0  0  0
 53161  1  0  0  0
 54 55  1  0  0  0
 54162  1  0  0  0
 54163  1  0  0  0
 55 56  2  0  0  0
 55 57  1  0  0  0
 57164  1  0  0  0
 57165  1  0  0  0
 58 59  1  0  0  0
 58166  1  0  0  0
 59 60  1  0  0  0
 59 62  1  0  0  0
 59167  1  0  0  0
 60 61  2  0  0  0
 60 66  1  0  0  0
 62 63  1  0  0  0
 62168  1  0  0  0
 62169  1  0  0  0
 63 64  1  0  0  0
 63 65  1  0  0  0
 63170  1  0  0  0
 64171  1  0  0  0
 64172  1  0  0  0
 64173  1  0  0  0
 65174  1  0  0  0
 65175  1  0  0  0
 65176  1  0  0  0
 66 67  1  0  0  0
 66177  1  0  0  0
 67 68  1  0  0  0
 67 70  1  0  0  0
 67178  1  0  0  0
 68 69  2  0  0  0
 68 71  1  0  0  0
 70179  1  0  0  0
 70180  1  0  0  0
 70181  1  0  0  0
 71 72  1  0  0  0
 71182  1  0  0  0
 72 73  1  0  0  0
 72 75  1  0  0  0
 72183  1  0  0  0
 73 74  2  0  0  0
 73 80  1  0  0  0
 75 76  1  0  0  0
 75184  1  0  0  0
 75185  1  0  0  0
 76 77  1  0  0  0
 76186  1  0  0  0
 76187  1  0  0  0
 77 78  2  0  0  0
 77 79  1  0  0  0
 79188  1  0  0  0
 80 81  1  0  0  0
 80189  1  0  0  0
 81 82  1  0  0  0
 81 84  1  0  0  0
 81190  1  0  0  0
 82 83  2  0  0  0
 82 94  1  0  0  0
 84 85  1  0  0  0
 84191  1  0  0  0
 84192  1  0  0  0
 85 86  2  0  0  0
 85 87  1  0  0  0
 86 88  1  0  0  0
 86193  1  0  0  0
 87 89  2  0  0  0
 87 90  1  0  0  0
 88 89  1  0  0  0
 89 91  1  0  0  0
 90 92  2  0  0  0
 90194  1  0  0  0
 91 93  2  0  0  0
 91195  1  0  0  0
 92 93  1  0  0  0
 92196  1  0  0  0
 93197  1  0  0  0
 94 95  1  0  0  0
 94198  1  0  0  0
 95 96  1  0  0  0
 95 98  1  0  0  0
 95199  1  0  0  0
 96 97  2  0  0  0
 96101  1  0  0  0
 98 99  1  0  0  0
 98100  1  0  0  0
 98200  1  0  0  0
 99201  1  0  0  0
 99202  1  0  0  0
 99203  1  0  0  0
100204  1  0  0  0
100205  1  0  0  0
100206  1  0  0  0
101102  1  0  0  0
101207  1  0  0  0
102103  1  0  0  0
102105  1  0  0  0
102208  1  0  0  0
103104  1  0  0  0
103107  2  0  0  0
104209  1  0  0  0
105106  1  0  0  0
105210  1  0  0  0
105211  1  0  0  0
106212  1  0  0  0
M  CHG  2   1   1  48   1
M  END
> <s_m_source_file>
../3c3o_ligand.sdf

> <i_m_source_file_index>
1

> <s_epik_input>
W09IXUMoPU8pW0NIMl1bQ0BIXShbTkgzK10pQyg9TylbTkhdW0NAQEhdKFtDSDJdW0NIMl1DKD1PKVtPSF0pQyg9TylbTkhdW0NAQEhdKFtDSDJdW0NIMl1DKD1PKVtPSF0pQyg9TylbTkhdW0NAQEhdKFtDSDNdKUMoPU8pW05IXVtDQEBIXShbQ0gyXVtDSF0oW0NIM10pW0NIM10pQyg9TylbTkhdW0NAQEhdKFtDSDJdW0NIMl1bQ0gyXVtDSDJdW05IMytdKUMoPU8pW05IXVtDQEBIXShbQ0gyXVtDSDJdQyg9TylbTkgyXSlDKD1PKVtOSF1bQ0BASF0oW0NIMl1bQ0hdKFtDSDNdKVtDSDNdKUMoPU8pW05IXVtDQEBIXShbQ0gzXSlDKD1PKVtOSF1bQ0BASF0oW0NIMl1bQ0gyXUMoPU8pW09IXSlDKD1PKVtOSF1bQ0BIXShDKD1PKVtOSF1bQ0BASF0oW0NIXShbQ0gzXSlbQ0gzXSlDKD1PKVtOSF1bQ0BIXShDKD1PKVtPSF0pW0NIMl1bT0hdKVtDSDJdYzFbY0hdW25IXWMoYzEyKVtjSF1bY0hdW2NIXVtjSF0y

> <s_epik_cmdline>
J2VwaWtfYXBwJywgJy1pbWFlJywgJ2xpZ2FuZF9wcm8ubWFlJywgJy1vbWFlJywgJ2xpZ2FuZF9wcmVwLm1hZScsICctbXMnLCAnMScsICctcGgnLCAnNycsICctcGh0JywgJzAuNScsICctbnQn

> <s_epik_pKa_notes>
Molecule size exceeds maximum supported for generating protonation states

$$$$
