3c3q_ligand
                    3D
 Schrodinger Suite 2020-3.
285286  0  0  1  0            999 V2000
   42.7980   43.1760   -1.7980 N   0  3  0  0  0  0
   41.5400   43.7660   -1.2500 C   0  0  2  0  0  0
   40.3990   43.6990   -2.2710 C   0  0  0  0  0  0
   39.2360   43.9390   -1.9270 O   0  0  0  0  0  0
   41.7750   45.2070   -0.7630 C   0  0  0  0  0  0
   40.5740   45.8530   -0.0600 C   0  0  0  0  0  0
   40.9590   47.1210    0.6890 C   0  0  0  0  0  0
   41.5360   46.7980    2.0600 C   0  0  0  0  0  0
   41.6470   48.0050    2.9090 N   0  3  0  0  0  0
   40.7370   43.3630   -3.5180 N   0  0  0  0  0  0
   39.7200   43.1390   -4.5560 C   0  0  2  0  0  0
   39.0750   41.7290   -4.4770 C   0  0  0  0  0  0
   38.1210   41.4370   -5.2090 O   0  0  0  0  0  0
   40.2350   43.5060   -5.9780 C   0  0  0  0  0  0
   41.0170   42.4380   -6.7550 C   0  0  0  0  0  0
   42.5280   42.6770   -6.8300 C   0  0  0  0  0  0
   43.2750   41.6910   -7.0360 O   0  0  0  0  0  0
   42.9810   43.8390   -6.6950 O   0  0  0  0  0  0
   39.5960   40.8720   -3.5890 N   0  0  0  0  0  0
   38.9550   39.5830   -3.2490 C   0  0  2  0  0  0
   38.3670   39.5520   -1.8210 C   0  0  0  0  0  0
   37.5050   38.7290   -1.5290 O   0  0  0  0  0  0
   39.8920   38.3840   -3.4720 C   0  0  0  0  0  0
   39.8750   37.7900   -4.8750 C   0  0  0  0  0  0
   41.1020   38.1720   -5.6880 C   0  0  0  0  0  0
   42.0860   37.3930   -5.6880 O   0  0  0  0  0  0
   41.0960   39.2510   -6.3200 O   0  0  0  0  0  0
   38.8340   40.4490   -0.9470 N   0  0  0  0  0  0
   38.2140   40.6790    0.3740 C   0  0  2  0  0  0
   36.8770   41.4320    0.2690 C   0  0  0  0  0  0
   36.1420   41.5560    1.2590 O   0  0  0  0  0  0
   39.1640   41.4480    1.2930 C   0  0  0  0  0  0
   40.4620   40.7230    1.6260 C   0  0  0  0  0  0
   41.1680   41.3400    2.8200 C   0  0  0  0  0  0
   40.4910   41.5640    3.8540 O   0  0  0  0  0  0
   42.3940   41.5970    2.7260 O   0  0  0  0  0  0
   36.6180   41.9840   -0.9220 N   0  0  0  0  0  0
   35.2840   42.3540   -1.3740 C   0  0  2  0  0  0
   34.5860   41.0520   -1.7410 C   0  0  0  0  0  0
   33.5830   40.6750   -1.1330 O   0  0  0  0  0  0
   35.3580   43.2330   -2.6350 C   0  0  0  0  0  0
   35.5330   44.7220   -2.3290 C   0  0  0  0  0  0
   35.8390   45.0870   -1.1630 O   0  0  0  0  0  0
   35.3890   45.6040   -3.2190 O   0  0  0  0  0  0
   35.1690   40.3580   -2.7200 N   0  0  0  0  0  0
   34.6000   39.1640   -3.3560 C   0  0  2  0  0  0
   34.3470   37.9850   -2.4260 C   0  0  0  0  0  0
   33.6020   37.0550   -2.7680 O   0  0  0  0  0  0
   35.5200   38.6970   -4.4870 C   0  0  0  0  0  0
   35.2980   39.4590   -5.7750 C   0  0  0  0  0  0
   35.2140   40.7070   -5.7220 O   0  0  0  0  0  0
   35.2010   38.8840   -6.8830 O   0  0  0  0  0  0
   34.9920   38.0110   -1.2670 N   0  0  0  0  0  0
   34.8360   36.9470   -0.3000 C   0  0  2  0  0  0
   33.8960   37.3720    0.8320 C   0  0  0  0  0  0
   32.9200   36.6810    1.0980 O   0  0  0  0  0  0
   36.2080   36.4470    0.1850 C   0  0  0  0  0  0
   36.9170   35.5460   -0.8530 C   0  0  0  0  0  0
   36.2970   35.1570   -1.8660 O   0  0  0  0  0  0
   38.0980   35.1580   -0.7320 O   0  0  0  0  0  0
   34.1540   38.5220    1.4540 N   0  0  0  0  0  0
   33.2580   39.0430    2.4890 C   0  0  2  0  0  0
   31.8170   39.2050    1.9970 C   0  0  0  0  0  0
   30.8760   38.8880    2.7370 O   0  0  0  0  0  0
   33.7770   40.3760    3.0420 C   0  0  0  0  0  0
   33.0140   40.9540    4.2620 C   0  0  0  0  0  0
   33.1410   40.0360    5.8440 S   0  0  0  0  0  0
   34.5750   38.9710    5.5990 C   0  0  0  0  0  0
   31.6580   39.7040    0.7600 N   0  0  0  0  0  0
   30.3350   39.9630    0.1480 C   0  0  2  0  0  0
   29.5130   38.6760   -0.0310 C   0  0  0  0  0  0
   28.3640   38.5970    0.3920 O   0  0  0  0  0  0
   30.4800   40.7000   -1.2030 C   0  0  0  0  0  0
   30.7630   42.2100   -1.1290 C   0  0  0  0  0  0
   30.8960   42.8140   -2.5450 C   0  0  0  0  0  0
   31.6750   44.1500   -2.5520 C   0  0  0  0  0  0
   30.8830   45.3830   -2.2260 N   0  3  0  0  0  0
   30.1370   37.6700   -0.6320 N   0  0  0  0  0  0
   29.5370   36.3640   -0.8670 C   0  0  2  0  0  0
   29.2150   35.5390    0.4040 C   0  0  0  0  0  0
   28.6570   34.4500    0.2970 O   0  0  0  0  0  0
   30.4520   35.5670   -1.7980 C   0  0  0  0  0  0
   29.7270   34.6370   -2.7580 C   0  0  0  0  0  0
   29.5450   33.2260   -2.2040 C   0  0  0  0  0  0
   28.3900   32.7160   -2.2180 O   0  0  0  0  0  0
   30.5570   32.6220   -1.7570 O   0  0  0  0  0  0
   29.5830   36.0280    1.5900 N   0  0  0  0  0  0
   29.1640   35.4040    2.8620 C   0  0  2  0  0  0
   28.0490   36.2300    3.4860 C   0  0  0  0  0  0
   27.2150   35.7030    4.2160 O   0  0  0  0  0  0
   30.3050   35.3240    3.8880 C   0  0  0  0  0  0
   31.6320   34.5880    3.7450 C   0  0  0  0  0  0
   32.4670   34.9480    4.9690 C   0  0  0  0  0  0
   31.4710   33.0770    3.6220 C   0  0  0  0  0  0
   28.0800   37.5350    3.2330 N   0  0  0  0  0  0
   26.9930   38.4510    3.5760 C   0  0  2  0  0  0
   25.7170   38.1830    2.7070 C   0  0  0  0  0  0
   24.5930   38.5700    3.0770 O   0  0  0  0  0  0
   27.5120   39.8820    3.4060 C   0  0  0  0  0  0
   26.5650   41.0020    3.7950 C   0  0  0  0  0  0
   27.1240   42.3600    3.3950 C   0  0  0  0  0  0
   26.4810   43.0690    2.5680 O   0  0  0  0  0  0
   28.2300   42.6990    3.8940 O   0  0  0  0  0  0
   25.9150   37.5210    1.5620 N   0  0  0  0  0  0
   24.8190   37.0360    0.7060 C   0  0  2  0  0  0
   24.3310   35.6560    1.1270 C   0  0  0  0  0  0
   23.1250   35.4110    1.1670 O   0  0  0  0  0  0
   25.2460   36.9580   -0.7640 C   0  0  0  0  0  0
   25.3880   38.3130   -1.4060 C   0  0  0  0  0  0
   25.0260   39.3500   -0.8210 O   0  0  0  0  0  0
   25.9290   38.3180   -2.6220 N   0  0  0  0  0  0
   25.2700   34.7530    1.4070 N   0  0  0  0  0  0
   24.9470   33.4640    2.0160 C   0  0  2  0  0  0
   24.1220   33.7050    3.2960 C   0  0  0  0  0  0
   23.1090   33.0290    3.5240 O   0  0  0  0  0  0
   26.2450   32.7490    2.3260 C   0  0  0  0  0  0
   26.2440   31.2720    2.4240 C   0  0  0  0  0  0
   26.1130   30.3740    1.4010 C   0  0  0  0  0  0
   26.5070   30.4980    3.6080 C   0  0  0  0  0  0
   26.2560   29.0850    1.8760 N   0  0  0  0  0  0
   26.4950   29.1310    3.2290 C   0  0  0  0  0  0
   26.7430   30.8230    4.9590 C   0  0  0  0  0  0
   26.7050   28.0920    4.1500 C   0  0  0  0  0  0
   26.9590   29.7940    5.8770 C   0  0  0  0  0  0
   26.9310   28.4430    5.4680 C   0  0  0  0  0  0
   24.5530   34.6900    4.0980 N   0  0  0  0  0  0
   23.8840   35.0970    5.3430 C   0  0  2  0  0  0
   22.4200   35.5190    5.1500 C   0  0  0  0  0  0
   21.5220   34.9780    5.7980 O   0  0  0  0  0  0
   24.6740   36.2260    6.0370 C   0  0  0  0  0  0
   22.1940   36.4900    4.2720 N   0  0  0  0  0  0
   20.8490   36.9860    3.9840 C   0  0  0  0  0  0
   19.9030   36.0110    3.2890 C   0  0  0  0  0  0
   18.6830   36.2040    3.3290 O   0  0  0  0  0  0
   20.4570   34.9720    2.6590 N   0  0  0  0  0  0
   19.6660   33.9190    2.0050 C   0  0  2  0  0  0
   19.2570   32.8100    2.9870 C   0  0  0  0  0  0
   19.0390   31.6530    2.5880 O   0  0  0  0  0  0
   20.4690   33.2960    0.8710 C   0  0  0  0  0  0
   21.3940   32.3480    1.3910 O   0  0  0  0  0  0
   19.1990   33.1670    4.2720 N   0  0  0  0  0  0
   18.7200   32.2810    5.3360 C   0  0  2  0  0  0
   17.3510   32.7690    5.8680 C   0  0  0  0  0  0
   16.3220   32.1470    5.5720 O   0  0  0  0  0  0
   19.7610   32.1480    6.4640 C   0  0  0  0  0  0
   20.9490   31.2710    6.0840 C   0  0  0  0  0  0
   22.3440   31.4600    7.2090 S   0  0  0  0  0  0
   23.5730   30.4080    6.4550 C   0  0  0  0  0  0
   17.2140   33.7860    6.5720 O   0  0  0  0  0  0
   42.6031   42.1483   -2.1383 H   0  0  0  0  0  0
   43.5688   43.1625   -1.0133 H   0  0  0  0  0  0
   43.1485   43.7828   -2.6459 H   0  0  0  0  0  0
   41.2598   43.1419   -0.3886 H   0  0  0  0  0  0
   42.6075   45.2199   -0.0441 H   0  0  0  0  0  0
   42.0222   45.8485   -1.6217 H   0  0  0  0  0  0
   39.8102   46.1161   -0.8065 H   0  0  0  0  0  0
   40.1487   45.1438    0.6654 H   0  0  0  0  0  0
   41.7154   47.6726    0.1115 H   0  0  0  0  0  0
   40.0682   47.7522    0.8235 H   0  0  0  0  0  0
   40.8832   46.0754    2.5715 H   0  0  0  0  0  0
   42.5405   46.3655    1.9424 H   0  0  0  0  0  0
   42.0669   47.7278    3.8872 H   0  0  0  0  0  0
   40.6497   48.4471    3.0500 H   0  0  0  0  0  0
   42.3070   48.7372    2.4208 H   0  0  0  0  0  0
   41.8043   43.2545   -3.7612 H   0  0  0  0  0  0
   38.9364   43.8625   -4.2866 H   0  0  0  0  0  0
   39.3811   43.7624   -6.6223 H   0  0  0  0  0  0
   40.9152   44.3678   -5.9105 H   0  0  0  0  0  0
   40.8741   41.4581   -6.2761 H   0  0  0  0  0  0
   40.6505   42.3966   -7.7913 H   0  0  0  0  0  0
   44.0653   44.0162   -6.7480 H   0  0  0  0  0  0
   40.5408   41.1609   -3.1053 H   0  0  0  0  0  0
   38.1275   39.5337   -3.9720 H   0  0  0  0  0  0
   40.9307   38.6892   -3.2770 H   0  0  0  0  0  0
   39.6144   37.5693   -2.7870 H   0  0  0  0  0  0
   39.8431   36.6925   -4.8081 H   0  0  0  0  0  0
   38.9871   38.1504   -5.4151 H   0  0  0  0  0  0
   42.9866   37.6445   -6.2674 H   0  0  0  0  0  0
   39.7193   41.0286   -1.2475 H   0  0  0  0  0  0
   38.0319   39.6692    0.7703 H   0  0  0  0  0  0
   39.4464   42.3982    0.8161 H   0  0  0  0  0  0
   38.6623   41.6531    2.2502 H   0  0  0  0  0  0
   40.2442   39.6709    1.8618 H   0  0  0  0  0  0
   41.1414   40.7721    0.7623 H   0  0  0  0  0  0
   42.9290   42.0442    3.5767 H   0  0  0  0  0  0
   37.4869   42.1551   -1.5744 H   0  0  0  0  0  0
   34.7916   42.9039   -0.5584 H   0  0  0  0  0  0
   36.2141   42.9197   -3.2506 H   0  0  0  0  0  0
   34.4296   43.1220   -3.2144 H   0  0  0  0  0  0
   35.5217   46.6665   -2.9670 H   0  0  0  0  0  0
   36.1471   40.7416   -3.0460 H   0  0  0  0  0  0
   33.6191   39.5227   -3.7012 H   0  0  0  0  0  0
   36.5691   38.8394   -4.1887 H   0  0  0  0  0  0
   35.3383   37.6315   -4.6912 H   0  0  0  0  0  0
   35.0397   39.4746   -7.7969 H   0  0  0  0  0  0
   35.6546   38.8611   -1.0473 H   0  0  0  0  0  0
   34.3466   36.1238   -0.8411 H   0  0  0  0  0  0
   36.8622   37.3083    0.3856 H   0  0  0  0  0  0
   36.0798   35.8613    1.1072 H   0  0  0  0  0  0
   36.7991   34.5161   -2.6057 H   0  0  0  0  0  0
   35.0593   39.0823    1.1773 H   0  0  0  0  0  0
   33.2788   38.2653    3.2667 H   0  0  0  0  0  0
   34.8215   40.2568    3.3658 H   0  0  0  0  0  0
   33.7218   41.1449    2.2573 H   0  0  0  0  0  0
   33.3847   41.9664    4.4802 H   0  0  0  0  0  0
   31.9387   40.9984    4.0346 H   0  0  0  0  0  0
   34.7423   38.3676    6.5034 H   0  0  0  0  0  0
   35.4624   39.5905    5.4021 H   0  0  0  0  0  0
   34.3951   38.3052    4.7420 H   0  0  0  0  0  0
   32.5770   39.9218    0.1961 H   0  0  0  0  0  0
   29.8214   40.6061    0.8778 H   0  0  0  0  0  0
   31.3147   40.2635   -1.7710 H   0  0  0  0  0  0
   29.5493   40.5948   -1.7798 H   0  0  0  0  0  0
   29.9364   42.7127   -0.6055 H   0  0  0  0  0  0
   31.7016   42.3808   -0.5814 H   0  0  0  0  0  0
   31.4319   42.1076   -3.1961 H   0  0  0  0  0  0
   29.8944   43.0054   -2.9576 H   0  0  0  0  0  0
   32.4854   44.1058   -1.8095 H   0  0  0  0  0  0
   32.1022   44.3202   -3.5513 H   0  0  0  0  0  0
   31.5424   46.2627   -2.2628 H   0  0  0  0  0  0
   30.4548   45.2877   -1.2173 H   0  0  0  0  0  0
   30.0715   45.5020   -2.9591 H   0  0  0  0  0  0
   31.1681   37.8686   -0.9597 H   0  0  0  0  0  0
   28.5731   36.6193   -1.3316 H   0  0  0  0  0  0
   31.0433   36.2611   -2.4133 H   0  0  0  0  0  0
   31.1290   34.9405   -1.1987 H   0  0  0  0  0  0
   28.7271   35.0409   -2.9748 H   0  0  0  0  0  0
   30.3004   34.5559   -3.6932 H   0  0  0  0  0  0
   28.2322   31.7009   -1.8247 H   0  0  0  0  0  0
   30.2190   36.9254    1.6009 H   0  0  0  0  0  0
   28.8353   34.3921    2.5828 H   0  0  0  0  0  0
   30.6744   36.3371    4.1053 H   0  0  0  0  0  0
   29.9331   34.8627    4.8148 H   0  0  0  0  0  0
   32.1223   34.8996    2.8109 H   0  0  0  0  0  0
   32.5682   36.0413    5.0351 H   0  0  0  0  0  0
   33.4641   34.4922    4.8796 H   0  0  0  0  0  0
   31.9710   34.5702    5.8752 H   0  0  0  0  0  0
   30.8662   32.8439    2.7333 H   0  0  0  0  0  0
   30.9688   32.6875    4.5198 H   0  0  0  0  0  0
   32.4619   32.6095    3.5242 H   0  0  0  0  0  0
   28.9853   37.9166    2.7382 H   0  0  0  0  0  0
   26.7413   38.2626    4.6301 H   0  0  0  0  0  0
   28.4102   40.0222    4.0253 H   0  0  0  0  0  0
   27.7638   40.0577    2.3497 H   0  0  0  0  0  0
   25.5990   40.8576    3.2891 H   0  0  0  0  0  0
   26.4134   40.9923    4.8845 H   0  0  0  0  0  0
   26.8703   44.0530    2.2677 H   0  0  0  0  0  0
   26.9606   37.3441    1.2698 H   0  0  0  0  0  0
   24.0248   37.7826    0.8541 H   0  0  0  0  0  0
   26.2186   36.4493   -0.8368 H   0  0  0  0  0  0
   24.4937   36.3941   -1.3350 H   0  0  0  0  0  0
   26.2315   37.3712   -3.0933 H   0  0  0  0  0  0
   26.0736   39.2689   -3.1557 H   0  0  0  0  0  0
   26.3142   35.0013    1.1661 H   0  0  0  0  0  0
   24.3646   32.8677    1.2982 H   0  0  0  0  0  0
   26.9834   32.9733    1.5421 H   0  0  0  0  0  0
   26.6282   33.0901    3.2991 H   0  0  0  0  0  0
   25.9231   30.6376    0.3605 H   0  0  0  0  0  0
   26.7566   31.8638    5.2825 H   0  0  0  0  0  0
   26.6904   27.0479    3.8375 H   0  0  0  0  0  0
   27.1516   30.0364    6.9221 H   0  0  0  0  0  0
   27.0912   27.6590    6.2081 H   0  0  0  0  0  0
   25.4689   35.2047    3.7722 H   0  0  0  0  0  0
   23.8880   34.1749    5.9427 H   0  0  0  0  0  0
   25.7202   35.9132    6.1700 H   0  0  0  0  0  0
   24.2264   36.4363    7.0195 H   0  0  0  0  0  0
   24.6387   37.1334    5.4162 H   0  0  0  0  0  0
   23.0625   36.9229    3.7540 H   0  0  0  0  0  0
   20.3536   37.2695    4.9243 H   0  0  0  0  0  0
   20.9154   37.8644    3.3252 H   0  0  0  0  0  0
   21.5559   34.9247    2.6427 H   0  0  0  0  0  0
   18.7702   34.4323    1.6255 H   0  0  0  0  0  0
   19.7860   32.7891    0.1735 H   0  0  0  0  0  0
   21.0208   34.0834    0.3367 H   0  0  0  0  0  0
   22.0601   31.7986    0.7095 H   0  0  0  0  0  0
   19.5351   34.1859    4.5145 H   0  0  0  0  0  0
   18.6001   31.2953    4.8626 H   0  0  0  0  0  0
   20.1517   33.1435    6.7216 H   0  0  0  0  0  0
   19.2868   31.6998    7.3496 H   0  0  0  0  0  0
   20.6446   30.2141    6.1006 H   0  0  0  0  0  0
   21.2933   31.5376    5.0739 H   0  0  0  0  0  0
   24.4947   30.4327    7.0549 H   0  0  0  0  0  0
   23.7880   30.7664    5.4375 H   0  0  0  0  0  0
   23.1937   29.3765    6.4079 H   0  0  0  0  0  0
   16.2139   34.0830    6.9206 H   0  0  0  0  0  0
  1  2  1  0  0  0
  1150  1  0  0  0
  1151  1  0  0  0
  1152  1  0  0  0
  2  3  1  0  0  0
  2  5  1  0  0  0
  2153  1  0  0  0
  3  4  2  0  0  0
  3 10  1  0  0  0
  5  6  1  0  0  0
  5154  1  0  0  0
  5155  1  0  0  0
  6  7  1  0  0  0
  6156  1  0  0  0
  6157  1  0  0  0
  7  8  1  0  0  0
  7158  1  0  0  0
  7159  1  0  0  0
  8  9  1  0  0  0
  8160  1  0  0  0
  8161  1  0  0  0
  9162  1  0  0  0
  9163  1  0  0  0
  9164  1  0  0  0
 10 11  1  0  0  0
 10165  1  0  0  0
 11 12  1  0  0  0
 11 14  1  0  0  0
 11166  1  0  0  0
 12 13  2  0  0  0
 12 19  1  0  0  0
 14 15  1  0  0  0
 14167  1  0  0  0
 14168  1  0  0  0
 15 16  1  0  0  0
 15169  1  0  0  0
 15170  1  0  0  0
 16 17  2  0  0  0
 16 18  1  0  0  0
 18171  1  0  0  0
 19 20  1  0  0  0
 19172  1  0  0  0
 20 21  1  0  0  0
 20 23  1  0  0  0
 20173  1  0  0  0
 21 22  2  0  0  0
 21 28  1  0  0  0
 23 24  1  0  0  0
 23174  1  0  0  0
 23175  1  0  0  0
 24 25  1  0  0  0
 24176  1  0  0  0
 24177  1  0  0  0
 25 26  1  0  0  0
 25 27  2  0  0  0
 26178  1  0  0  0
 28 29  1  0  0  0
 28179  1  0  0  0
 29 30  1  0  0  0
 29 32  1  0  0  0
 29180  1  0  0  0
 30 31  2  0  0  0
 30 37  1  0  0  0
 32 33  1  0  0  0
 32181  1  0  0  0
 32182  1  0  0  0
 33 34  1  0  0  0
 33183  1  0  0  0
 33184  1  0  0  0
 34 35  2  0  0  0
 34 36  1  0  0  0
 36185  1  0  0  0
 37 38  1  0  0  0
 37186  1  0  0  0
 38 39  1  0  0  0
 38 41  1  0  0  0
 38187  1  0  0  0
 39 40  2  0  0  0
 39 45  1  0  0  0
 41 42  1  0  0  0
 41188  1  0  0  0
 41189  1  0  0  0
 42 43  2  0  0  0
 42 44  1  0  0  0
 44190  1  0  0  0
 45 46  1  0  0  0
 45191  1  0  0  0
 46 47  1  0  0  0
 46 49  1  0  0  0
 46192  1  0  0  0
 47 48  2  0  0  0
 47 53  1  0  0  0
 49 50  1  0  0  0
 49193  1  0  0  0
 49194  1  0  0  0
 50 51  2  0  0  0
 50 52  1  0  0  0
 52195  1  0  0  0
 53 54  1  0  0  0
 53196  1  0  0  0
 54 55  1  0  0  0
 54 57  1  0  0  0
 54197  1  0  0  0
 55 56  2  0  0  0
 55 61  1  0  0  0
 57 58  1  0  0  0
 57198  1  0  0  0
 57199  1  0  0  0
 58 59  1  0  0  0
 58 60  2  0  0  0
 59200  1  0  0  0
 61 62  1  0  0  0
 61201  1  0  0  0
 62 63  1  0  0  0
 62 65  1  0  0  0
 62202  1  0  0  0
 63 64  2  0  0  0
 63 69  1  0  0  0
 65 66  1  0  0  0
 65203  1  0  0  0
 65204  1  0  0  0
 66 67  1  0  0  0
 66205  1  0  0  0
 66206  1  0  0  0
 67 68  1  0  0  0
 68207  1  0  0  0
 68208  1  0  0  0
 68209  1  0  0  0
 69 70  1  0  0  0
 69210  1  0  0  0
 70 71  1  0  0  0
 70 73  1  0  0  0
 70211  1  0  0  0
 71 72  2  0  0  0
 71 78  1  0  0  0
 73 74  1  0  0  0
 73212  1  0  0  0
 73213  1  0  0  0
 74 75  1  0  0  0
 74214  1  0  0  0
 74215  1  0  0  0
 75 76  1  0  0  0
 75216  1  0  0  0
 75217  1  0  0  0
 76 77  1  0  0  0
 76218  1  0  0  0
 76219  1  0  0  0
 77220  1  0  0  0
 77221  1  0  0  0
 77222  1  0  0  0
 78 79  1  0  0  0
 78223  1  0  0  0
 79 80  1  0  0  0
 79 82  1  0  0  0
 79224  1  0  0  0
 80 81  2  0  0  0
 80 87  1  0  0  0
 82 83  1  0  0  0
 82225  1  0  0  0
 82226  1  0  0  0
 83 84  1  0  0  0
 83227  1  0  0  0
 83228  1  0  0  0
 84 85  1  0  0  0
 84 86  2  0  0  0
 85229  1  0  0  0
 87 88  1  0  0  0
 87230  1  0  0  0
 88 89  1  0  0  0
 88 91  1  0  0  0
 88231  1  0  0  0
 89 90  2  0  0  0
 89 95  1  0  0  0
 91 92  1  0  0  0
 91232  1  0  0  0
 91233  1  0  0  0
 92 93  1  0  0  0
 92 94  1  0  0  0
 92234  1  0  0  0
 93235  1  0  0  0
 93236  1  0  0  0
 93237  1  0  0  0
 94238  1  0  0  0
 94239  1  0  0  0
 94240  1  0  0  0
 95 96  1  0  0  0
 95241  1  0  0  0
 96 97  1  0  0  0
 96 99  1  0  0  0
 96242  1  0  0  0
 97 98  2  0  0  0
 97104  1  0  0  0
 99100  1  0  0  0
 99243  1  0  0  0
 99244  1  0  0  0
100101  1  0  0  0
100245  1  0  0  0
100246  1  0  0  0
101102  1  0  0  0
101103  2  0  0  0
102247  1  0  0  0
104105  1  0  0  0
104248  1  0  0  0
105106  1  0  0  0
105108  1  0  0  0
105249  1  0  0  0
106107  2  0  0  0
106112  1  0  0  0
108109  1  0  0  0
108250  1  0  0  0
108251  1  0  0  0
109110  2  0  0  0
109111  1  0  0  0
111252  1  0  0  0
111253  1  0  0  0
112113  1  0  0  0
112254  1  0  0  0
113114  1  0  0  0
113116  1  0  0  0
113255  1  0  0  0
114115  2  0  0  0
114126  1  0  0  0
116117  1  0  0  0
116256  1  0  0  0
116257  1  0  0  0
117118  2  0  0  0
117119  1  0  0  0
118120  1  0  0  0
118258  1  0  0  0
119121  2  0  0  0
119122  1  0  0  0
120121  1  0  0  0
121123  1  0  0  0
122124  2  0  0  0
122259  1  0  0  0
123125  2  0  0  0
123260  1  0  0  0
124125  1  0  0  0
124261  1  0  0  0
125262  1  0  0  0
126127  1  0  0  0
126263  1  0  0  0
127128  1  0  0  0
127130  1  0  0  0
127264  1  0  0  0
128129  2  0  0  0
128131  1  0  0  0
130265  1  0  0  0
130266  1  0  0  0
130267  1  0  0  0
131132  1  0  0  0
131268  1  0  0  0
132133  1  0  0  0
132269  1  0  0  0
132270  1  0  0  0
133134  2  0  0  0
133135  1  0  0  0
135136  1  0  0  0
135271  1  0  0  0
136137  1  0  0  0
136139  1  0  0  0
136272  1  0  0  0
137138  2  0  0  0
137141  1  0  0  0
139140  1  0  0  0
139273  1  0  0  0
139274  1  0  0  0
140275  1  0  0  0
141142  1  0  0  0
141276  1  0  0  0
142143  1  0  0  0
142145  1  0  0  0
142277  1  0  0  0
143144  2  0  0  0
143149  1  0  0  0
145146  1  0  0  0
145278  1  0  0  0
145279  1  0  0  0
146147  1  0  0  0
146280  1  0  0  0
146281  1  0  0  0
147148  1  0  0  0
148282  1  0  0  0
148283  1  0  0  0
148284  1  0  0  0
149285  1  0  0  0
M  CHG  3   1   1   9   1  77   1
M  END
> <s_m_source_file>
../3c3q_ligand.sdf

> <i_m_source_file_index>
1

> <s_epik_input>
W05IMytdW0NIMl1bQ0gyXVtDSDJdW0NIMl1bQ0BIXShbTkgzK10pQyg9TylbTkhdW0NAQEhdKFtDSDJdW0NIMl1DKD1PKVtPSF0pQyg9TylbTkhdW0NAQEhdKFtDSDJdW0NIMl1DKD1PKVtPSF0pQyg9TylbTkhdW0NAQEhdKFtDSDJdW0NIMl1DKD1PKVtPSF0pQyg9TylbTkhdW0NAQEhdKFtDSDJdQyg9TylbT0hdKUMoPU8pW05IXVtDQEBIXShbQ0gyXUMoPU8pW09IXSlDKD1PKVtOSF1bQ0BASF0oW0NIMl1DKD1PKVtPSF0pQyg9TylbTkhdW0NAQEhdKFtDSDJdW0NIMl1TW0NIM10pQyg9TylbTkhdW0NAQEhdKFtDSDJdW0NIMl1bQ0gyXVtDSDJdW05IMytdKUMoPU8pW05IXVtDQEBIXShbQ0gyXVtDSDJdQyg9TylbT0hdKUMoPU8pW05IXVtDQEBIXShbQ0gyXVtDSF0oW0NIM10pW0NIM10pQyg9TylbTkhdW0NAQEhdKFtDSDJdW0NIMl1DKD1PKVtPSF0pQyg9TylbTkhdW0NAQEhdKFtDSDJdQyg9TylbTkgyXSlDKD1PKVtOSF1bQ0BASF0oW0NIMl1jMVtjSF1bbkhdYyhjMTIpW2NIXVtjSF1bY0hdW2NIXTIpQyg9TylbTkhdW0NAQEhdKFtDSDNdKUMoPU8pW05IXVtDSDJdQyg9TylbTkhdW0NAQEhdKFtDSDJdW09IXSlDKD1PKVtOSF1bQ0BIXShDKD1PKVtPSF0pW0NIMl1bQ0gyXVNbQ0gzXQ==

> <s_epik_cmdline>
J2VwaWtfYXBwJywgJy1pbWFlJywgJ2xpZ2FuZF9wcm8ubWFlJywgJy1vbWFlJywgJ2xpZ2FuZF9wcmVwLm1hZScsICctbXMnLCAnMScsICctcGgnLCAnNycsICctcGh0JywgJzAuNScsICctbnQn

> <s_epik_pKa_notes>
Molecule size exceeds maximum supported for generating protonation states

$$$$
