3c3r_ligand
                    3D
 Schrodinger Suite 2020-3.
203204  0  0  1  0            999 V2000
   37.7030   41.6800    0.6880 N   0  3  0  0  0  0
   37.7600   42.6090    1.8540 C   0  0  2  0  0  0
   36.3450   43.0230    2.2940 C   0  0  0  0  0  0
   35.5340   42.1650    2.6590 O   0  0  0  0  0  0
   38.6470   43.8270    1.5340 C   0  0  0  0  0  0
   39.3810   44.4240    2.7360 C   0  0  0  0  0  0
   40.3450   43.4410    3.3970 C   0  0  0  0  0  0
   41.4740   43.2550    2.8790 O   0  0  0  0  0  0
   39.9740   42.8580    4.4470 O   0  0  0  0  0  0
   36.0520   44.3250    2.2590 N   0  0  0  0  0  0
   34.7150   44.8440    2.5800 C   0  0  2  0  0  0
   33.5980   44.1790    1.7650 C   0  0  0  0  0  0
   32.5170   43.9300    2.3010 O   0  0  0  0  0  0
   34.6610   46.3740    2.3990 C   0  0  0  0  0  0
   33.4270   47.0080    3.0460 C   0  0  0  0  0  0
   32.6790   46.3040    3.7610 O   0  0  0  0  0  0
   33.1280   48.2140    2.8990 O   0  0  0  0  0  0
   33.8650   43.8870    0.4880 N   0  0  0  0  0  0
   32.8520   43.3230   -0.4160 C   0  0  2  0  0  0
   32.8210   41.7920   -0.4280 C   0  0  0  0  0  0
   31.9010   41.1800   -0.9810 O   0  0  0  0  0  0
   33.0190   43.8710   -1.8410 C   0  0  0  0  0  0
   31.7020   43.9260   -2.6030 C   0  0  0  0  0  0
   31.1490   45.0450   -2.7280 O   0  0  0  0  0  0
   31.1400   42.9110   -3.0950 O   0  0  0  0  0  0
   33.8300   41.1760    0.1780 N   0  0  0  0  0  0
   33.8360   39.7250    0.3490 C   0  0  2  0  0  0
   33.1110   39.2990    1.6320 C   0  0  0  0  0  0
   32.5540   38.2050    1.6880 O   0  0  0  0  0  0
   35.2560   39.1640    0.2630 C   0  0  0  0  0  0
   35.7300   39.0260   -1.1720 C   0  0  0  0  0  0
   36.2030   40.0300   -1.7580 O   0  0  0  0  0  0
   35.6580   37.9450   -1.7990 O   0  0  0  0  0  0
   33.1250   40.1790    2.6380 N   0  0  0  0  0  0
   32.2340   40.1050    3.8020 C   0  0  2  0  0  0
   30.7750   40.2590    3.3730 C   0  0  0  0  0  0
   29.9130   39.5010    3.8120 O   0  0  0  0  0  0
   32.5880   41.2010    4.8440 C   0  0  2  0  0  0
   33.5720   40.6660    5.8810 C   0  0  0  0  0  0
   31.3350   41.7080    5.5680 C   0  0  0  0  0  0
   33.8430   41.6560    7.0260 C   0  0  0  0  0  0
   30.5110   41.2520    2.5230 N   0  0  0  0  0  0
   29.1690   41.5010    1.9900 C   0  0  2  0  0  0
   28.5210   40.2590    1.3690 C   0  0  0  0  0  0
   27.3400   40.0090    1.5890 O   0  0  0  0  0  0
   29.2030   42.6470    0.9780 C   0  0  0  0  0  0
   29.4190   44.0250    1.6020 C   0  0  0  0  0  0
   29.3510   45.1170    0.5500 C   0  0  0  0  0  0
   29.1860   46.5010    1.1790 C   0  0  0  0  0  0
   28.5470   47.4370    0.2120 N   0  3  0  0  0  0
   29.3000   39.4880    0.6140 N   0  0  0  0  0  0
   28.7850   38.3080   -0.0850 C   0  0  2  0  0  0
   28.6490   37.0860    0.8150 C   0  0  0  0  0  0
   27.7640   36.2480    0.6030 O   0  0  0  0  0  0
   29.6380   37.9570   -1.3090 C   0  0  0  0  0  0
   29.7940   39.0830   -2.3570 C   0  0  0  0  0  0
   28.4790   39.7580   -2.7920 C   0  0  0  0  0  0
   27.4380   39.1010   -2.9670 O   0  0  0  0  0  0
   28.5420   41.0720   -2.9900 N   0  0  0  0  0  0
   29.5470   36.9620    1.7900 N   0  0  0  0  0  0
   29.3800   35.9960    2.8790 C   0  0  2  0  0  0
   28.0890   36.2570    3.6370 C   0  0  0  0  0  0
   27.3150   35.3380    3.8800 O   0  0  0  0  0  0
   30.5360   36.0980    3.8740 C   0  0  0  0  0  0
   31.6390   35.0510    3.9090 C   0  0  0  0  0  0
   32.5590   35.3640    5.0960 C   0  0  0  0  0  0
   31.0600   33.6510    3.9930 C   0  0  0  0  0  0
   27.8870   37.5160    4.0200 N   0  0  0  0  0  0
   26.7280   37.9400    4.7750 C   0  0  2  0  0  0
   25.4320   37.6700    4.0160 C   0  0  0  0  0  0
   24.4290   37.2470    4.6060 O   0  0  0  0  0  0
   26.8400   39.4350    5.1170 C   0  0  0  0  0  0
   25.4570   37.9180    2.7090 N   0  0  0  0  0  0
   24.2700   37.7620    1.8810 C   0  0  2  0  0  0
   24.0160   36.2900    1.5390 C   0  0  0  0  0  0
   22.8710   35.9050    1.3140 O   0  0  0  0  0  0
   24.3500   38.6420    0.6280 C   0  0  0  0  0  0
   25.0680   35.4650    1.5440 N   0  0  0  0  0  0
   24.9100   34.0020    1.4260 C   0  0  2  0  0  0
   24.0940   33.4140    2.5760 C   0  0  0  0  0  0
   23.4910   32.3500    2.4330 O   0  0  0  0  0  0
   26.2810   33.3280    1.3780 C   0  0  0  0  0  0
   26.3430   31.8300    1.6510 C   0  0  0  0  0  0
   26.2530   30.8250    0.7300 C   0  0  0  0  0  0
   26.6010   31.1860    2.9130 C   0  0  0  0  0  0
   26.4060   29.5980    1.3370 N   0  0  0  0  0  0
   26.6170   29.7910    2.6800 C   0  0  0  0  0  0
   26.7920   31.6470    4.2290 C   0  0  0  0  0  0
   26.8260   28.8580    3.7070 C   0  0  0  0  0  0
   26.9960   30.7220    5.2470 C   0  0  0  0  0  0
   27.0160   29.3420    4.9780 C   0  0  0  0  0  0
   24.0900   34.1060    3.7140 N   0  0  0  0  0  0
   23.4960   33.5840    4.9420 C   0  0  2  0  0  0
   21.9950   33.7620    4.9570 C   0  0  0  0  0  0
   21.3040   33.0550    5.6910 O   0  0  0  0  0  0
   24.1130   34.2540    6.1580 C   0  0  0  0  0  0
   21.5100   34.7280    4.1680 N   0  0  0  0  0  0
   20.0780   34.9160    3.8920 C   0  0  2  0  0  0
   19.4530   33.6830    3.1980 C   0  0  0  0  0  0
   18.5380   33.0460    3.7290 O   0  0  0  0  0  0
   19.8720   36.1870    3.0280 C   0  0  2  0  0  0
   20.5380   37.3000    3.6430 O   0  0  0  0  0  0
   18.3980   36.6140    3.0080 C   0  0  0  0  0  0
   19.8390   33.2710    2.0980 O   0  0  0  0  0  0
   37.0659   40.8184    0.9365 H   0  0  0  0  0  0
   38.7177   41.3289    0.4490 H   0  0  0  0  0  0
   37.2834   42.2078   -0.1811 H   0  0  0  0  0  0
   38.2231   42.0524    2.6821 H   0  0  0  0  0  0
   39.4183   43.5375    0.8052 H   0  0  0  0  0  0
   38.0269   44.6314    1.1116 H   0  0  0  0  0  0
   39.9657   45.2975    2.4117 H   0  0  0  0  0  0
   38.6486   44.7346    3.4956 H   0  0  0  0  0  0
   40.6457   42.1444    4.9465 H   0  0  0  0  0  0
   36.8579   45.0183    1.9763 H   0  0  0  0  0  0
   34.5819   44.5665    3.6361 H   0  0  0  0  0  0
   35.5509   46.8292    2.8583 H   0  0  0  0  0  0
   34.6379   46.6157    1.3261 H   0  0  0  0  0  0
   31.7895   46.7487    4.2310 H   0  0  0  0  0  0
   34.8829   44.0825    0.1198 H   0  0  0  0  0  0
   31.9046   43.6685    0.0235 H   0  0  0  0  0  0
   33.4268   44.8916   -1.7959 H   0  0  0  0  0  0
   33.7089   43.2250   -2.4038 H   0  0  0  0  0  0
   30.1877   43.0173   -3.6353 H   0  0  0  0  0  0
   34.6707   41.7776    0.5540 H   0  0  0  0  0  0
   33.2619   39.3384   -0.5059 H   0  0  0  0  0  0
   35.9487   39.8373    0.7891 H   0  0  0  0  0  0
   35.2860   38.1688    0.7306 H   0  0  0  0  0  0
   36.5509   39.9465   -2.7982 H   0  0  0  0  0  0
   33.8591   40.9943    2.5582 H   0  0  0  0  0  0
   32.3963   39.1006    4.2200 H   0  0  0  0  0  0
   33.0534   42.0406    4.3069 H   0  0  0  0  0  0
   33.1698   39.7444    6.3269 H   0  0  0  0  0  0
   34.5346   40.4484    5.3951 H   0  0  0  0  0  0
   30.6174   42.0966    4.8304 H   0  0  0  0  0  0
   31.6145   42.5110    6.2660 H   0  0  0  0  0  0
   30.8743   40.8802    6.1270 H   0  0  0  0  0  0
   34.5567   41.2105    7.7347 H   0  0  0  0  0  0
   32.9007   41.8808    7.5471 H   0  0  0  0  0  0
   34.2655   42.5849    6.6153 H   0  0  0  0  0  0
   31.3501   41.8974    2.2239 H   0  0  0  0  0  0
   28.5817   41.7793    2.8775 H   0  0  0  0  0  0
   30.0244   42.4824    0.2652 H   0  0  0  0  0  0
   28.2476   42.6844    0.4342 H   0  0  0  0  0  0
   28.6396   44.2127    2.3552 H   0  0  0  0  0  0
   30.4083   44.0593    2.0817 H   0  0  0  0  0  0
   30.2784   45.1146   -0.0415 H   0  0  0  0  0  0
   28.4927   44.9343   -0.1132 H   0  0  0  0  0  0
   28.5525   46.4234    2.0749 H   0  0  0  0  0  0
   30.1733   46.8957    1.4611 H   0  0  0  0  0  0
   28.4355   48.4267    0.6789 H   0  0  0  0  0  0
   27.5565   47.0515   -0.0714 H   0  0  0  0  0  0
   29.1773   47.5238   -0.6854 H   0  0  0  0  0  0
   30.3618   39.7610    0.5236 H   0  0  0  0  0  0
   27.7785   38.6291   -0.3914 H   0  0  0  0  0  0
   30.6551   37.6932   -0.9836 H   0  0  0  0  0  0
   29.1886   37.1027   -1.8364 H   0  0  0  0  0  0
   30.4348   39.8781   -1.9482 H   0  0  0  0  0  0
   30.2537   38.6741   -3.2689 H   0  0  0  0  0  0
   29.4871   41.6089   -2.8214 H   0  0  0  0  0  0
   27.6490   41.6216   -3.3224 H   0  0  0  0  0  0
   30.4344   37.6114    1.7621 H   0  0  0  0  0  0
   29.3563   35.0122    2.3875 H   0  0  0  0  0  0
   31.0828   37.0375    3.7057 H   0  0  0  0  0  0
   30.1392   36.0834    4.8998 H   0  0  0  0  0  0
   32.2160   35.0813    2.9730 H   0  0  0  0  0  0
   32.9546   36.3853    4.9939 H   0  0  0  0  0  0
   33.3934   34.6474    5.1121 H   0  0  0  0  0  0
   31.9886   35.2837    6.0331 H   0  0  0  0  0  0
   30.4091   33.4707    3.1248 H   0  0  0  0  0  0
   30.4732   33.5518    4.9181 H   0  0  0  0  0  0
   31.8780   32.9156    3.9970 H   0  0  0  0  0  0
   28.6557   38.2491    3.7344 H   0  0  0  0  0  0
   26.7474   37.3194    5.6830 H   0  0  0  0  0  0
   27.7772   39.6169    5.6634 H   0  0  0  0  0  0
   25.9865   39.7327    5.7438 H   0  0  0  0  0  0
   26.8364   40.0248    4.1885 H   0  0  0  0  0  0
   26.4037   38.2481    2.2565 H   0  0  0  0  0  0
   23.4405   38.1190    2.5091 H   0  0  0  0  0  0
   24.5327   39.6856    0.9239 H   0  0  0  0  0  0
   23.4017   38.5786    0.0742 H   0  0  0  0  0  0
   25.1730   38.2932   -0.0131 H   0  0  0  0  0  0
   26.0722   35.9038    1.6394 H   0  0  0  0  0  0
   24.3605   33.8471    0.4858 H   0  0  0  0  0  0
   26.7185   33.4577    0.3771 H   0  0  0  0  0  0
   26.9414   33.7862    2.1290 H   0  0  0  0  0  0
   26.0837   30.9734   -0.3365 H   0  0  0  0  0  0
   26.7802   32.7149    4.4473 H   0  0  0  0  0  0
   26.8371   27.7873    3.5032 H   0  0  0  0  0  0
   27.1426   31.0719    6.2688 H   0  0  0  0  0  0
   27.1859   28.6415    5.7957 H   0  0  0  0  0  0
   24.5549   35.1029    3.7085 H   0  0  0  0  0  0
   23.7238   32.5078    4.9396 H   0  0  0  0  0  0
   25.2044   34.1184    6.1370 H   0  0  0  0  0  0
   23.7047   33.8004    7.0732 H   0  0  0  0  0  0
   23.8766   35.3282    6.1442 H   0  0  0  0  0  0
   22.2507   35.4035    3.7151 H   0  0  0  0  0  0
   19.6137   35.0319    4.8824 H   0  0  0  0  0  0
   20.2856   36.0022    2.0256 H   0  0  0  0  0  0
   21.6275   37.2748    3.7925 H   0  0  0  0  0  0
   17.7921   35.8187    2.5493 H   0  0  0  0  0  0
   18.2922   37.5393    2.4227 H   0  0  0  0  0  0
   18.0533   36.7900    4.0377 H   0  0  0  0  0  0
   19.3637   32.3894    1.6432 H   0  0  0  0  0  0
  1  2  1  0  0  0
  1105  1  0  0  0
  1106  1  0  0  0
  1107  1  0  0  0
  2  3  1  0  0  0
  2  5  1  0  0  0
  2108  1  0  0  0
  3  4  2  0  0  0
  3 10  1  0  0  0
  5  6  1  0  0  0
  5109  1  0  0  0
  5110  1  0  0  0
  6  7  1  0  0  0
  6111  1  0  0  0
  6112  1  0  0  0
  7  8  2  0  0  0
  7  9  1  0  0  0
  9113  1  0  0  0
 10 11  1  0  0  0
 10114  1  0  0  0
 11 12  1  0  0  0
 11 14  1  0  0  0
 11115  1  0  0  0
 12 13  2  0  0  0
 12 18  1  0  0  0
 14 15  1  0  0  0
 14116  1  0  0  0
 14117  1  0  0  0
 15 16  1  0  0  0
 15 17  2  0  0  0
 16118  1  0  0  0
 18 19  1  0  0  0
 18119  1  0  0  0
 19 20  1  0  0  0
 19 22  1  0  0  0
 19120  1  0  0  0
 20 21  2  0  0  0
 20 26  1  0  0  0
 22 23  1  0  0  0
 22121  1  0  0  0
 22122  1  0  0  0
 23 24  2  0  0  0
 23 25  1  0  0  0
 25123  1  0  0  0
 26 27  1  0  0  0
 26124  1  0  0  0
 27 28  1  0  0  0
 27 30  1  0  0  0
 27125  1  0  0  0
 28 29  2  0  0  0
 28 34  1  0  0  0
 30 31  1  0  0  0
 30126  1  0  0  0
 30127  1  0  0  0
 31 32  1  0  0  0
 31 33  2  0  0  0
 32128  1  0  0  0
 34 35  1  0  0  0
 34129  1  0  0  0
 35 36  1  0  0  0
 35 38  1  0  0  0
 35130  1  0  0  0
 36 37  2  0  0  0
 36 42  1  0  0  0
 38 39  1  0  0  0
 38 40  1  0  0  0
 38131  1  0  0  0
 39 41  1  0  0  0
 39132  1  0  0  0
 39133  1  0  0  0
 40134  1  0  0  0
 40135  1  0  0  0
 40136  1  0  0  0
 41137  1  0  0  0
 41138  1  0  0  0
 41139  1  0  0  0
 42 43  1  0  0  0
 42140  1  0  0  0
 43 44  1  0  0  0
 43 46  1  0  0  0
 43141  1  0  0  0
 44 45  2  0  0  0
 44 51  1  0  0  0
 46 47  1  0  0  0
 46142  1  0  0  0
 46143  1  0  0  0
 47 48  1  0  0  0
 47144  1  0  0  0
 47145  1  0  0  0
 48 49  1  0  0  0
 48146  1  0  0  0
 48147  1  0  0  0
 49 50  1  0  0  0
 49148  1  0  0  0
 49149  1  0  0  0
 50150  1  0  0  0
 50151  1  0  0  0
 50152  1  0  0  0
 51 52  1  0  0  0
 51153  1  0  0  0
 52 53  1  0  0  0
 52 55  1  0  0  0
 52154  1  0  0  0
 53 54  2  0  0  0
 53 60  1  0  0  0
 55 56  1  0  0  0
 55155  1  0  0  0
 55156  1  0  0  0
 56 57  1  0  0  0
 56157  1  0  0  0
 56158  1  0  0  0
 57 58  2  0  0  0
 57 59  1  0  0  0
 59159  1  0  0  0
 59160  1  0  0  0
 60 61  1  0  0  0
 60161  1  0  0  0
 61 62  1  0  0  0
 61 64  1  0  0  0
 61162  1  0  0  0
 62 63  2  0  0  0
 62 68  1  0  0  0
 64 65  1  0  0  0
 64163  1  0  0  0
 64164  1  0  0  0
 65 66  1  0  0  0
 65 67  1  0  0  0
 65165  1  0  0  0
 66166  1  0  0  0
 66167  1  0  0  0
 66168  1  0  0  0
 67169  1  0  0  0
 67170  1  0  0  0
 67171  1  0  0  0
 68 69  1  0  0  0
 68172  1  0  0  0
 69 70  1  0  0  0
 69 72  1  0  0  0
 69173  1  0  0  0
 70 71  2  0  0  0
 70 73  1  0  0  0
 72174  1  0  0  0
 72175  1  0  0  0
 72176  1  0  0  0
 73 74  1  0  0  0
 73177  1  0  0  0
 74 75  1  0  0  0
 74 77  1  0  0  0
 74178  1  0  0  0
 75 76  2  0  0  0
 75 78  1  0  0  0
 77179  1  0  0  0
 77180  1  0  0  0
 77181  1  0  0  0
 78 79  1  0  0  0
 78182  1  0  0  0
 79 80  1  0  0  0
 79 82  1  0  0  0
 79183  1  0  0  0
 80 81  2  0  0  0
 80 92  1  0  0  0
 82 83  1  0  0  0
 82184  1  0  0  0
 82185  1  0  0  0
 83 84  2  0  0  0
 83 85  1  0  0  0
 84 86  1  0  0  0
 84186  1  0  0  0
 85 87  2  0  0  0
 85 88  1  0  0  0
 86 87  1  0  0  0
 87 89  1  0  0  0
 88 90  2  0  0  0
 88187  1  0  0  0
 89 91  2  0  0  0
 89188  1  0  0  0
 90 91  1  0  0  0
 90189  1  0  0  0
 91190  1  0  0  0
 92 93  1  0  0  0
 92191  1  0  0  0
 93 94  1  0  0  0
 93 96  1  0  0  0
 93192  1  0  0  0
 94 95  2  0  0  0
 94 97  1  0  0  0
 96193  1  0  0  0
 96194  1  0  0  0
 96195  1  0  0  0
 97 98  1  0  0  0
 97196  1  0  0  0
 98 99  1  0  0  0
 98101  1  0  0  0
 98197  1  0  0  0
 99100  2  0  0  0
 99104  1  0  0  0
101102  1  0  0  0
101103  1  0  0  0
101198  1  0  0  0
102199  1  0  0  0
103200  1  0  0  0
103201  1  0  0  0
103202  1  0  0  0
104203  1  0  0  0
M  CHG  2   1   1  50   1
M  END
> <s_m_source_file>
../3c3r_ligand.sdf

> <i_m_source_file_index>
1

> <s_epik_input>
Tz1DKFtPSF0pW0NIMl1bQ0gyXVtDQEhdKFtOSDMrXSlDKD1PKVtOSF1bQ0BASF0oW0NIMl1DKD1PKVtPSF0pQyg9TylbTkhdW0NAQEhdKFtDSDJdQyg9TylbT0hdKUMoPU8pW05IXVtDQEBIXShbQ0gyXUMoPU8pW09IXSlDKD1PKVtOSF1bQ0BASF0oW0NAQEhdKFtDSDNdKVtDSDJdW0NIM10pQyg9TylbTkhdW0NAQEhdKFtDSDJdW0NIMl1bQ0gyXVtDSDJdW05IMytdKUMoPU8pW05IXVtDQEBIXShbQ0gyXVtDSDJdQyg9TylbTkgyXSlDKD1PKVtOSF1bQ0BASF0oW0NIMl1bQ0hdKFtDSDNdKVtDSDNdKUMoPU8pW05IXVtDQEBIXShbQ0gzXSlDKD1PKVtOSF1bQ0BASF0oW0NIM10pQyg9TylbTkhdW0NASF0oQyg9TylbTkhdW0NAQEhdKFtDSDNdKUMoPU8pW05IXVtDQEhdKEMoPU8pW09IXSlbQ0BIXShbT0hdKVtDSDNdKVtDSDJdYzFbY0hdW25IXWMoYzEyKVtjSF1bY0hdW2NIXVtjSF0y

> <s_epik_cmdline>
J2VwaWtfYXBwJywgJy1pbWFlJywgJ2xpZ2FuZF9wcm8ubWFlJywgJy1vbWFlJywgJ2xpZ2FuZF9wcmVwLm1hZScsICctbXMnLCAnMScsICctcGgnLCAnNycsICctcGh0JywgJzAuNScsICctbnQn

> <s_epik_pKa_notes>
Molecule size exceeds maximum supported for generating protonation states

$$$$
