3c43_ligand
                    3D
 Schrodinger Suite 2020-3.
 56 59  0  0  1  0            999 V2000
   39.5940   51.5000   35.8880 C   0  0  2  0  0  0
   38.3650   51.0410   34.9970 C   0  0  1  0  0  0
   36.9970   51.0210   35.7940 C   0  0  0  0  0  0
   36.1850   49.9410   35.6160 N   0  0  0  0  0  0
   36.6830   51.9930   36.4990 O   0  0  0  0  0  0
   38.3070   51.7390   34.0810 N   0  3  0  0  0  0
   40.8450   51.9300   35.0600 C   0  0  0  0  0  0
   36.5860   48.6000   35.1760 C   0  0  0  0  0  0
   35.3990   47.7120   35.4320 C   0  0  2  0  0  0
   34.2160   48.6430   35.5180 C   0  0  0  0  0  0
   34.7530   50.0410   35.8490 C   0  0  0  0  0  0
   35.5550   47.0850   36.6580 F   0  0  0  0  0  0
   41.6050   53.1910   35.6210 C   0  0  0  0  0  0
   42.8510   52.6950   36.3010 C   0  0  0  0  0  0
   41.7850   53.4760   37.0370 C   0  0  0  0  0  0
   40.0740   50.3240   36.8860 C   0  0  0  0  0  0
   40.1590   50.3780   38.1880 N   0  0  0  0  0  0
   40.6140   49.1300   38.4610 C   0  0  0  0  0  0
   40.7710   48.4090   37.3260 N   0  0  0  0  0  0
   40.4250   49.1760   36.2880 O   0  0  0  0  0  0
   40.8770   48.5420   39.8140 C   0  0  0  0  0  0
   40.0550   48.9900   40.8900 C   0  0  0  0  0  0
   40.2000   48.4600   42.1800 C   0  0  0  0  0  0
   41.1770   47.4730   42.4450 C   0  0  0  0  0  0
   42.0260   47.0100   41.4130 C   0  0  0  0  0  0
   41.8810   47.5430   40.1160 C   0  0  0  0  0  0
   42.7160   47.0350   39.1920 F   0  0  0  0  0  0
   41.3250   46.7720   44.0740 S   0  0  0  0  0  0
   41.5880   45.3700   43.9110 O   0  0  0  0  0  0
   40.1130   47.1130   44.7970 O   0  0  0  0  0  0
   42.7440   47.6070   44.7840 C   0  0  0  0  0  0
   39.2237   52.3888   36.4198 H   0  0  0  0  0  0
   38.5211   50.1402   34.3853 H   0  0  0  0  0  0
   39.2710   51.7296   33.5513 H   0  0  0  0  0  0
   38.0815   52.7629   34.4139 H   0  0  0  0  0  0
   37.5132   51.3903   33.4040 H   0  0  0  0  0  0
   41.5718   51.1046   35.0385 H   0  0  0  0  0  0
   40.5381   52.1752   34.0325 H   0  0  0  0  0  0
   36.8412   48.6261   34.1063 H   0  0  0  0  0  0
   37.4622   48.2711   35.7541 H   0  0  0  0  0  0
   35.2890   46.8928   34.7062 H   0  0  0  0  0  0
   33.6864   48.6529   34.5539 H   0  0  0  0  0  0
   33.5333   48.2964   36.3078 H   0  0  0  0  0  0
   34.5705   50.3142   36.8988 H   0  0  0  0  0  0
   34.3273   50.8122   35.1902 H   0  0  0  0  0  0
   41.2763   53.9176   34.8633 H   0  0  0  0  0  0
   42.8969   51.5984   36.2277 H   0  0  0  0  0  0
   43.7342   53.1324   35.8125 H   0  0  0  0  0  0
   41.7947   54.5648   37.1935 H   0  0  0  0  0  0
   40.9574   53.0307   37.6088 H   0  0  0  0  0  0
   39.3021   49.7566   40.7066 H   0  0  0  0  0  0
   39.5545   48.8117   42.9848 H   0  0  0  0  0  0
   42.7818   46.2517   41.6176 H   0  0  0  0  0  0
   43.6491   47.3344   44.2215 H   0  0  0  0  0  0
   42.8601   47.3035   45.8349 H   0  0  0  0  0  0
   42.5933   48.6953   44.7312 H   0  0  0  0  0  0
  1  2  1  0  0  0
  1  7  1  0  0  0
  1 16  1  0  0  0
  1 32  1  0  0  0
  2  3  1  0  0  0
  2  6  1  0  0  0
  2 33  1  0  0  0
  3  4  1  0  0  0
  3  5  2  0  0  0
  4  8  1  0  0  0
  4 11  1  0  0  0
  6 34  1  0  0  0
  6 35  1  0  0  0
  6 36  1  0  0  0
  7 13  1  0  0  0
  7 37  1  0  0  0
  7 38  1  0  0  0
  8  9  1  0  0  0
  8 39  1  0  0  0
  8 40  1  0  0  0
  9 10  1  0  0  0
  9 12  1  0  0  0
  9 41  1  0  0  0
 10 11  1  0  0  0
 10 42  1  0  0  0
 10 43  1  0  0  0
 11 44  1  0  0  0
 11 45  1  0  0  0
 13 14  1  0  0  0
 13 15  1  0  0  0
 13 46  1  0  0  0
 14 15  1  0  0  0
 14 47  1  0  0  0
 14 48  1  0  0  0
 15 49  1  0  0  0
 15 50  1  0  0  0
 16 17  2  0  0  0
 16 20  1  0  0  0
 17 18  1  0  0  0
 18 19  2  0  0  0
 18 21  1  0  0  0
 19 20  1  0  0  0
 21 22  2  0  0  0
 21 26  1  0  0  0
 22 23  1  0  0  0
 22 51  1  0  0  0
 23 24  2  0  0  0
 23 52  1  0  0  0
 24 25  1  0  0  0
 24 28  1  0  0  0
 25 26  2  0  0  0
 25 53  1  0  0  0
 26 27  1  0  0  0
 28 29  2  0  0  0
 28 30  2  0  0  0
 28 31  1  0  0  0
 31 54  1  0  0  0
 31 55  1  0  0  0
 31 56  1  0  0  0
M  CHG  1   6   1
M  END
> <s_m_source_file>
../3c43_ligand.sdf

> <i_m_source_file_index>
1

> <s_epik_input>
W0NIMl0xW0NIMl1bQ0BIXShGKVtDSDJdTjFDKD1PKVtDQEBIXShbTkgzK10pW0NASF0oW0NIMl1bQ0hdMltDSDJdW0NIMl0yKWMzbmMobm8zKS1jNFtjSF1bY0hdYyhbY0hdYzRGKVMoPU8pKD1PKVtDSDNd

> <s_epik_cmdline>
J2VwaWtfYXBwJywgJy1pbWFlJywgJ2xpZ2FuZF9wcm8ubWFlJywgJy1vbWFlJywgJ2xpZ2FuZF9wcmVwLm1hZScsICctbXMnLCAnMScsICctcGgnLCAnNycsICctcGh0JywgJzAuNScsICctbnQn

> <r_lp_tautomer_probability>
1

> <r_epik_Ionization_Penalty>
  0.3102

> <r_epik_Ionization_Penalty_Charging>
  0.3102

> <r_epik_Ionization_Penalty_Neutral>
  0.0000

> <r_epik_State_Penalty>
  0.3042

> <r_epik_Charging_Adjusted_Penalty>
0.614358677332633

> <i_epik_Tot_Q>
1

> <i_epik_Tot_abs_Q>
1

$$$$
