3c45_ligand
                    3D
 Schrodinger Suite 2020-3.
 54 57  0  0  1  0            999 V2000
   39.6540   51.2680   36.0040 C   0  0  2  0  0  0
   38.4420   50.8230   35.0800 C   0  0  1  0  0  0
   37.0940   50.7420   35.7860 C   0  0  0  0  0  0
   36.2720   49.6640   35.7610 C   0  0  0  0  0  0
   36.6950   51.8180   36.4720 F   0  0  0  0  0  0
   38.3140   51.7750   33.9880 N   0  3  0  0  0  0
   40.8580   51.6900   35.1270 C   0  0  0  0  0  0
   34.9170   49.6040   36.4530 C   0  0  0  0  0  0
   34.1830   48.3590   35.9340 C   0  0  0  0  0  0
   35.1090   47.6800   34.9220 C   0  0  0  0  0  0
   36.4850   48.3290   35.0790 C   0  0  0  0  0  0
   41.6690   52.8460   35.7480 C   0  0  0  0  0  0
   43.0320   53.0740   35.2570 C   0  0  0  0  0  0
   42.8150   52.4820   36.5780 C   0  0  0  0  0  0
   40.1700   50.1180   36.8330 C   0  0  0  0  0  0
   40.1850   50.1460   38.1510 N   0  0  0  0  0  0
   40.6960   48.9650   38.5090 C   0  0  0  0  0  0
   40.9950   48.2090   37.4210 N   0  0  0  0  0  0
   40.6380   48.9900   36.2970 O   0  0  0  0  0  0
   40.8940   48.4060   39.8810 C   0  0  0  0  0  0
   40.0860   49.0480   40.8710 C   0  0  0  0  0  0
   40.1010   48.6070   42.2140 C   0  0  0  0  0  0
   40.9260   47.5210   42.5900 C   0  0  0  0  0  0
   41.7510   46.8750   41.6370 C   0  0  0  0  0  0
   41.7410   47.3070   40.2950 C   0  0  0  0  0  0
   40.8990   46.9380   44.2620 S   0  0  0  0  0  0
   39.6080   47.2290   44.8130 O   0  0  0  0  0  0
   42.0260   47.5780   44.9560 O   0  0  0  0  0  0
   41.1860   45.1970   44.0670 C   0  0  0  0  0  0
   42.7690   46.3980   39.2290 Cl  0  0  0  0  0  0
   39.3060   52.0715   36.6698 H   0  0  0  0  0  0
   38.6428   49.8219   34.6707 H   0  0  0  0  0  0
   39.2742   51.8556   33.4574 H   0  0  0  0  0  0
   38.0339   52.7595   34.3908 H   0  0  0  0  0  0
   37.5371   51.4299   33.2899 H   0  0  0  0  0  0
   41.5359   50.8334   34.9982 H   0  0  0  0  0  0
   40.4961   52.0224   34.1428 H   0  0  0  0  0  0
   35.0637   49.5360   37.5411 H   0  0  0  0  0  0
   34.3439   50.5126   36.2164 H   0  0  0  0  0  0
   33.9661   47.6840   36.7751 H   0  0  0  0  0  0
   33.2405   48.6622   35.4547 H   0  0  0  0  0  0
   35.1585   46.6021   35.1359 H   0  0  0  0  0  0
   34.7176   47.8345   33.9057 H   0  0  0  0  0  0
   36.9525   48.4897   34.0964 H   0  0  0  0  0  0
   37.1416   47.7011   35.6991 H   0  0  0  0  0  0
   40.8011   53.5063   35.8921 H   0  0  0  0  0  0
   44.0556   53.2437   34.8917 H   0  0  0  0  0  0
   43.6756   52.2068   37.2055 H   0  0  0  0  0  0
   39.4511   49.8872   40.5867 H   0  0  0  0  0  0
   39.4781   49.1028   42.9585 H   0  0  0  0  0  0
   42.3914   46.0467   41.9401 H   0  0  0  0  0  0
   40.3313   44.7406   43.5463 H   0  0  0  0  0  0
   41.3035   44.7317   45.0568 H   0  0  0  0  0  0
   42.1011   45.0401   43.4771 H   0  0  0  0  0  0
  1  2  1  0  0  0
  1  7  1  0  0  0
  1 15  1  0  0  0
  1 31  1  0  0  0
  2  3  1  0  0  0
  2  6  1  0  0  0
  2 32  1  0  0  0
  3  4  2  0  0  0
  3  5  1  0  0  0
  4  8  1  0  0  0
  4 11  1  0  0  0
  6 33  1  0  0  0
  6 34  1  0  0  0
  6 35  1  0  0  0
  7 12  1  0  0  0
  7 36  1  0  0  0
  7 37  1  0  0  0
  8  9  1  0  0  0
  8 38  1  0  0  0
  8 39  1  0  0  0
  9 10  1  0  0  0
  9 40  1  0  0  0
  9 41  1  0  0  0
 10 11  1  0  0  0
 10 42  1  0  0  0
 10 43  1  0  0  0
 11 44  1  0  0  0
 11 45  1  0  0  0
 12 13  1  0  0  0
 12 14  1  0  0  0
 12 46  1  0  0  0
 13 14  2  0  0  0
 13 47  1  0  0  0
 14 48  1  0  0  0
 15 16  2  0  0  0
 15 19  1  0  0  0
 16 17  1  0  0  0
 17 18  2  0  0  0
 17 20  1  0  0  0
 18 19  1  0  0  0
 20 21  2  0  0  0
 20 25  1  0  0  0
 21 22  1  0  0  0
 21 49  1  0  0  0
 22 23  2  0  0  0
 22 50  1  0  0  0
 23 24  1  0  0  0
 23 26  1  0  0  0
 24 25  2  0  0  0
 24 51  1  0  0  0
 25 30  1  0  0  0
 26 27  2  0  0  0
 26 28  2  0  0  0
 26 29  1  0  0  0
 29 52  1  0  0  0
 29 53  1  0  0  0
 29 54  1  0  0  0
M  CHG  1   6   1
M  END
> <s_m_source_file>
../3c45_ligand.sdf

> <i_m_source_file_index>
1

> <s_epik_input>
W0NIMl0xW0NIMl1bQ0gyXVtDSDJdQzE9QyhGKVtDQEBIXShbTkgzK10pW0NASF0oW0NIMl1bQ0hdMltDSF09W0NIXTIpYzNuYyhubzMpLWM0W2NIXVtjSF1jKFtjSF1jNENsKVMoPU8pKD1PKVtDSDNd

> <s_epik_cmdline>
J2VwaWtfYXBwJywgJy1pbWFlJywgJ2xpZ2FuZF9wcm8ubWFlJywgJy1vbWFlJywgJ2xpZ2FuZF9wcmVwLm1hZScsICctbXMnLCAnMScsICctcGgnLCAnNycsICctcGh0JywgJzAuNScsICctbnQn

> <r_lp_tautomer_probability>
1

> <r_epik_Ionization_Penalty>
  0.3024

> <r_epik_Ionization_Penalty_Charging>
  0.3024

> <r_epik_Ionization_Penalty_Neutral>
  0.0000

> <r_epik_State_Penalty>
  0.2960

> <r_epik_Charging_Adjusted_Penalty>
0.598486833828943

> <i_epik_Tot_Q>
1

> <i_epik_Tot_abs_Q>
1

$$$$
