3c49_ligand
                    3D
 Schrodinger Suite 2020-3.
 50 53  0  0  1  0            999 V2000
   23.8820   -4.0580    9.6090 C   0  0  0  0  0  0
   24.1480   -2.9670   10.6680 C   0  0  0  0  0  0
   24.1360   -1.5330   10.1480 C   0  0  0  0  0  0
   23.0770   -0.7550    9.4790 N   0  3  0  0  0  0
   22.6230   -1.3810    8.2200 C   0  0  0  0  0  0
   21.9520   -2.7220    8.4070 C   0  0  0  0  0  0
   22.5630   -3.8850    9.0150 N   0  0  0  0  0  0
   21.6680   -4.8580    9.2120 C   0  0  0  0  0  0
   20.5070   -4.7510    8.8080 O   0  0  0  0  0  0
   22.0380   -6.1120   10.0290 C   0  0  0  0  0  0
   20.9950   -6.4750   10.8740 C   0  0  0  0  0  0
   23.2850   -6.6960   10.2880 C   0  0  0  0  0  0
   24.3570   -6.4070    9.5260 F   0  0  0  0  0  0
   23.3890   -7.7910   11.1450 C   0  0  0  0  0  0
   22.3070   -8.1890   11.9100 C   0  0  0  0  0  0
   21.1030   -7.5260   11.7730 C   0  0  0  0  0  0
   19.9190   -7.9680   12.6340 C   0  0  0  0  0  0
   18.6070   -7.2990   12.2330 C   0  0  0  0  0  0
   17.6740   -7.9730   11.4690 C   0  0  0  0  0  0
   17.9390   -9.2680   11.0440 C   0  0  0  0  0  0
   17.0030   -9.9400   10.2700 C   0  0  0  0  0  0
   15.8080   -9.3160    9.9290 C   0  0  0  0  0  0
   15.5490   -8.0180   10.3590 C   0  0  0  0  0  0
   16.4890   -7.3500   11.1310 C   0  0  0  0  0  0
   16.2820   -6.0580   11.5870 C   0  0  0  0  0  0
   15.2440   -5.4520   11.3190 O   0  0  0  0  0  0
   17.2880   -5.4570   12.3630 N   0  0  0  0  0  0
   18.3380   -6.0460   12.6460 N   0  0  0  0  0  0
   24.6414   -3.9921    8.8160 H   0  0  0  0  0  0
   23.9321   -5.0493   10.0832 H   0  0  0  0  0  0
   23.3772   -3.0203   11.4510 H   0  0  0  0  0  0
   25.1391   -3.1264   11.1178 H   0  0  0  0  0  0
   24.3296   -0.8397   10.9798 H   0  0  0  0  0  0
   24.9168   -1.4140    9.3823 H   0  0  0  0  0  0
   22.2072   -0.6696   10.1470 H   0  0  0  0  0  0
   23.4557    0.2497    9.2398 H   0  0  0  0  0  0
   21.8964   -0.7210    7.7236 H   0  0  0  0  0  0
   23.4865   -1.5399    7.5573 H   0  0  0  0  0  0
   21.0575   -2.5999    9.0355 H   0  0  0  0  0  0
   21.6589   -3.1253    7.4265 H   0  0  0  0  0  0
   20.0611   -5.9148   10.8285 H   0  0  0  0  0  0
   24.3297   -8.3375   11.2128 H   0  0  0  0  0  0
   22.4036   -9.0165   12.6129 H   0  0  0  0  0  0
   19.7822   -9.0553   12.5389 H   0  0  0  0  0  0
   20.1156   -7.7139   13.6860 H   0  0  0  0  0  0
   18.8760   -9.7538   11.3164 H   0  0  0  0  0  0
   17.2045  -10.9558    9.9299 H   0  0  0  0  0  0
   15.0722   -9.8449    9.3233 H   0  0  0  0  0  0
   14.6127   -7.5286   10.0908 H   0  0  0  0  0  0
   17.1542   -4.4318   12.7386 H   0  0  0  0  0  0
  1  2  1  0  0  0
  1  7  1  0  0  0
  1 29  1  0  0  0
  1 30  1  0  0  0
  2  3  1  0  0  0
  2 31  1  0  0  0
  2 32  1  0  0  0
  3  4  1  0  0  0
  3 33  1  0  0  0
  3 34  1  0  0  0
  4  5  1  0  0  0
  4 35  1  0  0  0
  4 36  1  0  0  0
  5  6  1  0  0  0
  5 37  1  0  0  0
  5 38  1  0  0  0
  6  7  1  0  0  0
  6 39  1  0  0  0
  6 40  1  0  0  0
  7  8  1  0  0  0
  8  9  2  0  0  0
  8 10  1  0  0  0
 10 11  2  0  0  0
 10 12  1  0  0  0
 11 16  1  0  0  0
 11 41  1  0  0  0
 12 13  1  0  0  0
 12 14  2  0  0  0
 14 15  1  0  0  0
 14 42  1  0  0  0
 15 16  2  0  0  0
 15 43  1  0  0  0
 16 17  1  0  0  0
 17 18  1  0  0  0
 17 44  1  0  0  0
 17 45  1  0  0  0
 18 19  1  0  0  0
 18 28  2  0  0  0
 19 20  2  0  0  0
 19 24  1  0  0  0
 20 21  1  0  0  0
 20 46  1  0  0  0
 21 22  2  0  0  0
 21 47  1  0  0  0
 22 23  1  0  0  0
 22 48  1  0  0  0
 23 24  2  0  0  0
 23 49  1  0  0  0
 24 25  1  0  0  0
 25 26  2  0  0  0
 25 27  1  0  0  0
 27 28  1  0  0  0
 27 50  1  0  0  0
M  CHG  1   4   1
M  END
> <s_m_source_file>
../3c49_ligand.sdf

> <i_m_source_file_index>
1

> <s_epik_input>
W0NIMl0xW0NIMl1bTkgyK11bQ0gyXVtDSDJdW0NIMl1OMUMoPU8pYzJbY0hdYyhbY0hdW2NIXWMyRilbQ0gyXWMzbltuSF1jKD1PKWMoYzM0KVtjSF1bY0hdW2NIXVtjSF00

> <s_epik_cmdline>
J2VwaWtfYXBwJywgJy1pbWFlJywgJ2xpZ2FuZF9wcm8ubWFlJywgJy1vbWFlJywgJ2xpZ2FuZF9wcmVwLm1hZScsICctbXMnLCAnMScsICctcGgnLCAnNycsICctcGh0JywgJzAuNScsICctbnQn

> <r_lp_tautomer_probability>
1

> <r_epik_Ionization_Penalty>
  0.0032

> <r_epik_Ionization_Penalty_Charging>
  0.0032

> <r_epik_Ionization_Penalty_Neutral>
  0.0000

> <r_epik_State_Penalty>
 -0.0000

> <r_epik_Charging_Adjusted_Penalty>
0.00322010283360708

> <i_epik_Tot_Q>
1

> <i_epik_Tot_abs_Q>
1

$$$$
