3c4e_ligand
                    3D
 Schrodinger Suite 2020-3.
 27 29  0  0  1  0            999 V2000
    9.0550   88.0510   25.4520 N   0  0  0  0  0  0
   10.3250   88.4900   25.8520 C   0  0  0  0  0  0
   10.7490   88.5510   27.1850 C   0  0  0  0  0  0
   12.0430   88.9900   27.4910 C   0  0  0  0  0  0
   12.9050   89.3740   26.4640 C   0  0  0  0  0  0
   12.4930   89.3250   25.1320 C   0  0  0  0  0  0
   11.2060   88.8800   24.8280 C   0  0  0  0  0  0
    7.8490   87.9070   26.0520 C   0  0  0  0  0  0
    7.4710   87.9900   27.3800 C   0  0  0  0  0  0
    6.7010   87.6190   25.2720 C   0  0  0  0  0  0
    6.4510   87.4270   23.8940 C   0  0  0  0  0  0
    5.6340   87.5300   26.1610 C   0  0  0  0  0  0
    6.1080   87.7650   27.4260 N   0  3  0  0  0  0
    4.3490   87.2780   25.8380 N   0  0  0  0  0  0
    4.1560   87.1040   24.5010 C   0  0  0  0  0  0
    5.1360   87.1550   23.5070 C   0  0  0  0  0  0
    8.8885   87.7197   24.4164 H   0  0  0  0  0  0
   10.0708   88.2563   27.9858 H   0  0  0  0  0  0
   12.3754   89.0315   28.5282 H   0  0  0  0  0  0
   13.9115   89.7161   26.7047 H   0  0  0  0  0  0
   13.1709   89.6318   24.3355 H   0  0  0  0  0  0
   10.8811   88.8344   23.7886 H   0  0  0  0  0  0
    8.1238   88.1940   28.2287 H   0  0  0  0  0  0
    7.2545   87.4888   23.1601 H   0  0  0  0  0  0
    3.1353   86.9052   24.1742 H   0  0  0  0  0  0
    4.8825   86.9876   22.4602 H   0  0  0  0  0  0
    5.5781   87.7932   28.3895 H   0  0  0  0  0  0
  1  2  1  0  0  0
  1  8  1  0  0  0
  1 17  1  0  0  0
  2  3  2  0  0  0
  2  7  1  0  0  0
  3  4  1  0  0  0
  3 18  1  0  0  0
  4  5  2  0  0  0
  4 19  1  0  0  0
  5  6  1  0  0  0
  5 20  1  0  0  0
  6  7  2  0  0  0
  6 21  1  0  0  0
  7 22  1  0  0  0
  8  9  2  0  0  0
  8 10  1  0  0  0
  9 13  1  0  0  0
  9 23  1  0  0  0
 10 11  2  0  0  0
 10 12  1  0  0  0
 11 16  1  0  0  0
 11 24  1  0  0  0
 12 13  2  0  0  0
 12 14  1  0  0  0
 13 27  1  0  0  0
 14 15  1  0  0  0
 15 16  2  0  0  0
 15 25  1  0  0  0
 16 26  1  0  0  0
M  CHG  1  13   1
M  END
> <s_m_source_file>
../3c4e_ligand.sdf

> <i_m_source_file_index>
1

> <s_epik_input>
W2NIXTFbY0hdW2NIXVtjSF1bY0hdYzFbTkhdYzJbY0hdbmMoYzIzKVtuSF1bY0hdW2NIXVtjSF0z

> <s_epik_cmdline>
J2VwaWtfYXBwJywgJy1pbWFlJywgJ2xpZ2FuZF9wcm8ubWFlJywgJy1vbWFlJywgJ2xpZ2FuZF9wcmVwLm1hZScsICctbXMnLCAnMScsICctcGgnLCAnNycsICctcGh0JywgJzAuNScsICctbnQn

> <r_lp_tautomer_probability>
1

> <r_epik_Ionization_Penalty>
  0.0000

> <r_epik_Ionization_Penalty_Charging>
  0.0000

> <r_epik_Ionization_Penalty_Neutral>
  0.0000

> <r_epik_State_Penalty>
 -0.0000

> <r_epik_Charging_Adjusted_Penalty>
5.68954998929982e-09

> <i_epik_Tot_Q>
1

> <i_epik_Tot_abs_Q>
1

$$$$
