3c4f_ligand
                    3D
 Schrodinger Suite 2020-3.
 32 34  0  0  1  0            999 V2000
    5.4000    2.0210   12.8800 C   0  0  0  0  0  0
    6.2850    2.5130   13.8960 O   0  0  0  0  0  0
    5.8310    3.4370   14.8170 C   0  0  0  0  0  0
    4.6520    4.1380   14.6250 C   0  0  0  0  0  0
    4.2060    5.0210   15.5990 C   0  0  0  0  0  0
    4.9500    5.2000   16.7580 C   0  0  0  0  0  0
    6.5540    3.6050   15.9860 C   0  0  0  0  0  0
    6.1250    4.4960   16.9510 C   0  0  0  0  0  0
    6.9400    4.6490   18.2150 C   0  0  0  0  0  0
    6.5410    3.5140   19.1600 C   0  0  0  0  0  0
    7.0870    3.2210   20.5030 C   0  0  0  0  0  0
    5.6180    2.5630   18.9920 C   0  0  0  0  0  0
    5.5370    1.7580   19.9970 N   0  0  0  0  0  0
    6.4020    2.1390   20.9460 C   0  0  0  0  0  0
    6.6240    1.5970   22.1430 N   0  3  0  0  0  0
    7.5770    2.1380   22.9120 C   0  0  0  0  0  0
    8.3000    3.2620   22.4950 C   0  0  0  0  0  0
    8.0430    3.8480   21.2630 C   0  0  0  0  0  0
    5.9354    1.2996   12.2453 H   0  0  0  0  0  0
    5.0470    2.8607   12.2633 H   0  0  0  0  0  0
    4.5390    1.5255   13.3523 H   0  0  0  0  0  0
    4.0754    3.9967   13.7109 H   0  0  0  0  0  0
    3.2762    5.5713   15.4548 H   0  0  0  0  0  0
    4.6060    5.8993   17.5200 H   0  0  0  0  0  0
    7.4668    3.0311   16.1458 H   0  0  0  0  0  0
    8.0107    4.5871   17.9706 H   0  0  0  0  0  0
    6.7246    5.6250   18.6743 H   0  0  0  0  0  0
    4.9632    2.4212   18.1196 H   0  0  0  0  0  0
    7.7946    1.6940   23.8834 H   0  0  0  0  0  0
    9.0767    3.6806   23.1518 H   0  0  0  0  0  0
    8.5916    4.7515   20.9586 H   0  0  0  0  0  0
    6.0318    0.7307   22.4729 H   0  0  0  0  0  0
  1  2  1  0  0  0
  1 19  1  0  0  0
  1 20  1  0  0  0
  1 21  1  0  0  0
  2  3  1  0  0  0
  3  4  2  0  0  0
  3  7  1  0  0  0
  4  5  1  0  0  0
  4 22  1  0  0  0
  5  6  2  0  0  0
  5 23  1  0  0  0
  6  8  1  0  0  0
  6 24  1  0  0  0
  7  8  2  0  0  0
  7 25  1  0  0  0
  8  9  1  0  0  0
  9 10  1  0  0  0
  9 26  1  0  0  0
  9 27  1  0  0  0
 10 11  2  0  0  0
 10 12  1  0  0  0
 11 14  1  0  0  0
 11 18  1  0  0  0
 12 13  2  0  0  0
 12 28  1  0  0  0
 13 14  1  0  0  0
 14 15  2  0  0  0
 15 16  1  0  0  0
 15 32  1  0  0  0
 16 17  1  0  0  0
 16 29  1  0  0  0
 17 18  2  0  0  0
 17 30  1  0  0  0
 18 31  1  0  0  0
M  CHG  1  15   1
M  END
> <s_m_source_file>
../3c4f_ligand.sdf

> <i_m_source_file_index>
1

> <s_epik_input>
W0NIM11PYzFbY0hdW2NIXVtjSF1jKFtjSF0xKVtDSDJdQz0yW0NIXT1OQyhDMjMpPU5bQ0gyXVtDSF09W0NIXTM=

> <s_epik_cmdline>
J2VwaWtfYXBwJywgJy1pbWFlJywgJ2xpZ2FuZF9wcm8ubWFlJywgJy1vbWFlJywgJ2xpZ2FuZF9wcmVwLm1hZScsICctbXMnLCAnMScsICctcGgnLCAnNycsICctcGh0JywgJzAuNScsICctbnQn

> <r_epik_Ionization_Penalty>
  0.0666

> <r_epik_Ionization_Penalty_Charging>
  0.0666

> <r_epik_Ionization_Penalty_Neutral>
  0.0000

> <r_epik_State_Penalty>
  0.3215

> <r_epik_Charging_Adjusted_Penalty>
0.38810980823995

> <i_epik_Tot_Q>
1

> <i_epik_Tot_abs_Q>
1

> <s_epik_Chemistry_Notes>
This compound has an imine and may undergo hydrolysis.

$$$$
