3c4h_ligand
                    3D
 Schrodinger Suite 2020-3.
 22 23  0  0  1  0            999 V2000
   18.8570   -4.5790   12.9770 C   0  0  0  0  0  0
   17.9110   -5.5950   12.3240 C   0  0  0  0  0  0
   18.3250   -6.8280   12.0190 N   0  0  0  0  0  0
   17.5340   -7.7520   11.4420 C   0  0  0  0  0  0
   18.2410   -9.1000   11.2240 C   0  0  0  0  0  0
   17.2680  -10.2610   10.9910 C   0  0  0  0  0  0
   16.1370   -9.8170    9.6400 S   0  0  0  0  0  0
   15.2410   -8.4560   10.4850 C   0  0  0  0  0  0
   16.1980   -7.4470   11.1360 C   0  0  0  0  0  0
   15.7590   -6.1580   11.4460 C   0  0  0  0  0  0
   14.6070   -5.7980   11.2110 O   0  0  0  0  0  0
   16.6040   -5.2450   12.0510 N   0  0  0  0  0  0
   19.8478   -5.0366   13.1150 H   0  0  0  0  0  0
   18.4530   -4.2775   13.9547 H   0  0  0  0  0  0
   18.9485   -3.6945   12.3295 H   0  0  0  0  0  0
   18.8951   -9.0326   10.3422 H   0  0  0  0  0  0
   18.8446   -9.3451   12.1104 H   0  0  0  0  0  0
   17.8337  -11.1649   10.7210 H   0  0  0  0  0  0
   16.6941  -10.4486   11.9105 H   0  0  0  0  0  0
   14.6210   -7.9160    9.7543 H   0  0  0  0  0  0
   14.5980   -8.8743   11.2734 H   0  0  0  0  0  0
   16.2367   -4.2422   12.3145 H   0  0  0  0  0  0
  1  2  1  0  0  0
  1 13  1  0  0  0
  1 14  1  0  0  0
  1 15  1  0  0  0
  2  3  2  0  0  0
  2 12  1  0  0  0
  3  4  1  0  0  0
  4  5  1  0  0  0
  4  9  2  0  0  0
  5  6  1  0  0  0
  5 16  1  0  0  0
  5 17  1  0  0  0
  6  7  1  0  0  0
  6 18  1  0  0  0
  6 19  1  0  0  0
  7  8  1  0  0  0
  8  9  1  0  0  0
  8 20  1  0  0  0
  8 21  1  0  0  0
  9 10  1  0  0  0
 10 11  2  0  0  0
 10 12  1  0  0  0
 12 22  1  0  0  0
M  END
> <s_m_source_file>
../3c4h_ligand.sdf

> <i_m_source_file_index>
1

> <s_epik_input>
W0NIM11jKG4xKVtuSF1jKD1PKWMoYzEyKVtDSDJdU1tDSDJdW0NIMl0y

> <s_epik_cmdline>
J2VwaWtfYXBwJywgJy1pbWFlJywgJ2xpZ2FuZF9wcm8ubWFlJywgJy1vbWFlJywgJ2xpZ2FuZF9wcmVwLm1hZScsICctbXMnLCAnMScsICctcGgnLCAnNycsICctcGh0JywgJzAuNScsICctbnQn

> <r_lp_tautomer_probability>
1

> <r_epik_Ionization_Penalty>
  0.0003

> <r_epik_Ionization_Penalty_Charging>
  0.0002

> <r_epik_Ionization_Penalty_Neutral>
  0.0000

> <r_epik_State_Penalty>
 -0.0000

> <r_epik_Charging_Adjusted_Penalty>
0.000231468199188399

> <i_epik_Tot_Q>
0

> <i_epik_Tot_abs_Q>
0

$$$$
