3c52_ligand
                    3D
 Schrodinger Suite 2020-3.
 14 13  0  0  1  0            999 V2000
    2.5700    1.6100    5.0970 C   0  0  0  0  0  0
    1.9770    2.7250    5.9670 C   0  0  0  0  0  0
    2.9480    0.3380    5.7000 N   0  0  0  0  0  0
    4.1540   -0.2820    5.3340 O   0  0  0  0  0  0
    2.7210    1.7830    3.9320 O   0  0  0  0  0  0
    1.7490    3.8650    5.1780 O   0  0  0  0  0  0
    0.2310    6.0680    4.8180 O   0  5  0  0  0  0
    0.3060    4.8640    7.2280 O   0  5  0  0  0  0
    2.3180    6.0950    6.2730 O   0  0  0  0  0  0
    1.1870    5.2510    5.8870 P   0  0  0  0  0  0
    1.0257    2.3842    6.4017 H   0  0  0  0  0  0
    2.6811    2.9735    6.7748 H   0  0  0  0  0  0
    2.2887   -0.1364    6.4418 H   0  0  0  0  0  0
    4.4392   -1.2420    5.7891 H   0  0  0  0  0  0
  1  2  1  0  0  0
  1  3  1  0  0  0
  1  5  2  0  0  0
  2  6  1  0  0  0
  2 11  1  0  0  0
  2 12  1  0  0  0
  3  4  1  0  0  0
  3 13  1  0  0  0
  4 14  1  0  0  0
  6 10  1  0  0  0
  7 10  1  0  0  0
  8 10  1  0  0  0
  9 10  2  0  0  0
M  CHG  2   7  -1   8  -1
M  END
> <s_m_source_file>
../3c52_ligand.sdf

> <i_m_source_file_index>
1

> <s_epik_input>
W09IXVtOSF1DKD1PKVtDSDJdT1AoPU8pKFtPSF0pW09IXQ==

> <s_epik_cmdline>
J2VwaWtfYXBwJywgJy1pbWFlJywgJ2xpZ2FuZF9wcm8ubWFlJywgJy1vbWFlJywgJ2xpZ2FuZF9wcmVwLm1hZScsICctbXMnLCAnMScsICctcGgnLCAnNycsICctcGh0JywgJzAuNScsICctbnQn

> <r_lp_tautomer_probability>
1

> <r_epik_Ionization_Penalty>
  0.1051

> <r_epik_Ionization_Penalty_Charging>
  0.0952

> <r_epik_Ionization_Penalty_Neutral>
  0.0099

> <r_epik_State_Penalty>
 -0.0000

> <r_epik_Charging_Adjusted_Penalty>
0.0952146890399759

> <i_epik_Tot_Q>
-2

> <i_epik_Tot_abs_Q>
2

> <s_epik_Chemistry_Notes>
This compound has a N-S or N-O group and may undergo hydrolysis at high or low pH.

$$$$
