3c5u_ligand
                    3D
 Schrodinger Suite 2020-3.
 41 44  0  0  1  0            999 V2000
   -7.5490   36.2130   41.5110 C   0  0  0  0  0  0
   -8.0580   30.8800   39.4460 C   0  0  0  0  0  0
   -5.7630   31.9330   38.6910 C   0  0  0  0  0  0
   -7.1170   33.8460   40.9230 C   0  0  0  0  0  0
   -8.3420   39.8800   41.5020 C   0  0  0  0  0  0
   -6.7710   31.5920   39.8050 C   0  0  0  0  0  0
   -7.7210   35.8460   40.1600 C   0  0  0  0  0  0
  -11.3310   40.8130   40.3850 C   0  0  0  0  0  0
  -10.6740   42.4640   38.2920 C   0  0  0  0  0  0
  -11.9630   41.9510   38.4260 C   0  0  0  0  0  0
   -9.6920   42.1490   39.2040 C   0  0  0  0  0  0
   -8.3250   38.1710   39.7300 C   0  0  0  0  0  0
   -8.0990   36.8530   39.2400 C   0  0  0  0  0  0
  -12.2990   41.1270   39.4620 C   0  0  0  0  0  0
   -7.7380   37.5170   41.9880 C   0  0  0  0  0  0
   -7.7640   41.5640   42.8160 C   0  0  0  0  0  0
   -8.1740   38.5020   41.0800 C   0  0  0  0  0  0
  -10.0270   41.2980   40.2410 C   0  0  0  0  0  0
   -9.0230   41.0370   41.2050 C   0  0  0  0  0  0
   -8.6610   42.0900   42.0510 N   0  0  0  0  0  0
   -7.4690   34.5040   39.8470 N   0  0  0  0  0  0
   -6.8400   32.5290   40.9320 N   0  0  0  0  0  0
   -7.5150   40.2530   42.5440 O   0  0  0  0  0  0
  -11.6780   39.9970   41.4060 F   0  0  0  0  0  0
   -7.0740   34.8040   42.3810 S   0  0  0  0  0  0
   -7.8803   30.2097   38.5921 H   0  0  0  0  0  0
   -8.8245   31.6216   39.1767 H   0  0  0  0  0  0
   -8.4042   30.2914   40.3084 H   0  0  0  0  0  0
   -5.8057   31.1606   37.9089 H   0  0  0  0  0  0
   -4.7482   31.9710   39.1138 H   0  0  0  0  0  0
   -6.0154   32.9108   38.2549 H   0  0  0  0  0  0
   -6.2600   30.7609   40.3131 H   0  0  0  0  0  0
  -10.4407   43.1224   37.4552 H   0  0  0  0  0  0
  -12.7201   42.2134   37.6871 H   0  0  0  0  0  0
   -8.6852   42.5564   39.1118 H   0  0  0  0  0  0
   -8.6262   38.9487   39.0282 H   0  0  0  0  0  0
   -8.2145   36.6249   38.1804 H   0  0  0  0  0  0
  -13.3094   40.7286   39.5542 H   0  0  0  0  0  0
   -7.5526   37.7627   43.0337 H   0  0  0  0  0  0
   -7.2541   42.1169   43.6050 H   0  0  0  0  0  0
   -6.6498   32.1733   41.9554 H   0  0  0  0  0  0
  1  7  2  0  0  0
  1 15  1  0  0  0
  1 25  1  0  0  0
  2  6  1  0  0  0
  2 26  1  0  0  0
  2 27  1  0  0  0
  2 28  1  0  0  0
  3  6  1  0  0  0
  3 29  1  0  0  0
  3 30  1  0  0  0
  3 31  1  0  0  0
  4 21  2  0  0  0
  4 22  1  0  0  0
  4 25  1  0  0  0
  5 17  1  0  0  0
  5 19  2  0  0  0
  5 23  1  0  0  0
  6 22  1  0  0  0
  6 32  1  0  0  0
  7 13  1  0  0  0
  7 21  1  0  0  0
  8 14  2  0  0  0
  8 18  1  0  0  0
  8 24  1  0  0  0
  9 10  2  0  0  0
  9 11  1  0  0  0
  9 33  1  0  0  0
 10 14  1  0  0  0
 10 34  1  0  0  0
 11 18  2  0  0  0
 11 35  1  0  0  0
 12 13  2  0  0  0
 12 17  1  0  0  0
 12 36  1  0  0  0
 13 37  1  0  0  0
 14 38  1  0  0  0
 15 17  2  0  0  0
 15 39  1  0  0  0
 16 20  2  0  0  0
 16 23  1  0  0  0
 16 40  1  0  0  0
 18 19  1  0  0  0
 19 20  1  0  0  0
 22 41  1  0  0  0
M  END
> <s_m_source_file>
../3c5u_ligand.sdf

> <i_m_source_file_index>
1

> <s_epik_input>
W0NIM11bQ0hdKFtDSDNdKVtOSF1jKHMxKW5jKGMxMilbY0hdW2NIXWMoW2NIXTIpLWMzYyhuW2NIXW8zKS1jNFtjSF1bY0hdW2NIXVtjSF1jNEY=

> <s_epik_cmdline>
J2VwaWtfYXBwJywgJy1pbWFlJywgJ2xpZ2FuZF9wcm8ubWFlJywgJy1vbWFlJywgJ2xpZ2FuZF9wcmVwLm1hZScsICctbXMnLCAnMScsICctcGgnLCAnNycsICctcGh0JywgJzAuNScsICctbnQn

> <r_lp_tautomer_probability>
1

> <r_epik_Ionization_Penalty>
  0.0015

> <r_epik_Ionization_Penalty_Charging>
  0.0000

> <r_epik_Ionization_Penalty_Neutral>
  0.0015

> <r_epik_State_Penalty>
 -0.0000

> <r_epik_Charging_Adjusted_Penalty>
0

> <i_epik_Tot_Q>
0

> <i_epik_Tot_abs_Q>
0

$$$$
