3c6w_ligand
                    3D
 Schrodinger Suite 2020-3.
123122  0  0  1  0            999 V2000
    2.5820   16.3080   19.6870 N   0  3  0  0  0  0
    2.2330   16.3120   18.2370 C   0  0  2  0  0  0
    1.9280   17.7290   17.7660 C   0  0  0  0  0  0
    1.5080   18.5760   18.5540 O   0  0  0  0  0  0
    1.0280   15.4100   17.9930 C   0  0  0  0  0  0
    2.1420   17.9810   16.4780 N   0  0  0  0  0  0
    1.8840   19.3000   15.9000 C   0  0  2  0  0  0
    0.4650   19.3200   15.3470 C   0  0  0  0  0  0
    0.0730   18.4380   14.5790 O   0  0  0  0  0  0
    2.8770   19.5890   14.7760 C   0  0  0  0  0  0
    4.3220   19.6580   15.2370 C   0  0  0  0  0  0
    5.2740   19.7300   14.0570 C   0  0  0  0  0  0
    5.1530   18.5500   13.2070 N   0  0  0  0  0  0
    4.5600   18.5370   12.0180 C   0  0  0  0  0  0
    4.0310   19.6470   11.5170 N   0  0  0  0  0  0
    4.4830   17.4060   11.3320 N   0  3  0  0  0  0
   -0.3020   20.3340   15.7290 N   0  0  0  0  0  0
   -1.6800   20.4480   15.2620 C   0  0  2  0  0  0
   -1.9540   21.8940   14.8810 C   0  0  0  0  0  0
   -1.1960   22.7970   15.2300 O   0  0  0  0  0  0
   -2.6780   20.0430   16.3600 C   0  0  2  0  0  0
   -2.5720   20.9560   17.4600 O   0  0  0  0  0  0
   -2.3830   18.6350   16.8530 C   0  0  0  0  0  0
   -3.0450   22.1070   14.1580 N   0  0  0  0  0  0
   -3.4220   23.4520   13.7470 C   0  0  1  0  0  0
   -2.7550   23.8600   12.4300 C   0  0  0  0  0  0
   -3.2860   23.0910   11.2170 C   0  0  0  0  0  0
   -2.6330   23.4890    9.8940 C   0  0  0  0  0  0
   -3.0080   22.5240    8.7620 C   0  0  0  0  0  0
   -2.9360   23.1280    7.3640 N   0  3  0  0  0  0
   -4.9350   23.5110   13.6100 C   0  0  0  0  0  0
   -5.5850   22.5050   13.3220 O   0  0  0  0  0  0
   -1.5290   23.4850    7.0110 C   0  0  0  0  0  0
   -3.6960   24.3950    7.1130 C   0  0  0  0  0  0
   -3.4110   22.1230    6.3700 C   0  0  0  0  0  0
   -5.4890   24.6950   13.8390 N   0  0  0  0  0  0
   -6.9250   24.9050   13.7220 C   0  0  2  0  0  0
   -7.1560   25.5720   12.3710 C   0  0  0  0  0  0
   -6.5670   26.6110   12.0800 O   0  0  0  0  0  0
   -7.4220   25.8110   14.8510 C   0  0  0  0  0  0
   -8.9270   26.0240   14.8630 C   0  0  0  0  0  0
   -9.6980   24.7270   15.0250 C   0  0  0  0  0  0
   -9.4880   23.9840   15.9840 O   0  0  0  0  0  0
  -10.5990   24.4520   14.0870 N   0  0  0  0  0  0
   -8.0020   24.9660   11.5470 N   0  0  0  0  0  0
   -8.2930   25.5080   10.2210 C   0  0  2  0  0  0
   -8.8720   26.9140   10.3780 C   0  0  0  0  0  0
   -9.8390   27.1170   11.1100 O   0  0  0  0  0  0
   -9.3090   24.6270    9.4730 C   0  0  2  0  0  0
   -8.7950   23.2930    9.3660 O   0  0  0  0  0  0
   -9.5650   25.1790    8.0760 C   0  0  0  0  0  0
   -8.2730   27.8770    9.6850 N   0  0  0  0  0  0
   -8.7300   29.2670    9.7520 C   0  0  2  0  0  0
   -9.7130   29.5200    8.6070 C   0  0  0  0  0  0
   -9.8470   28.6340    7.7360 O   0  0  0  0  0  0
   -7.5420   30.2140    9.6430 C   0  0  0  0  0  0
  -10.4064   30.6530    8.5405 O   0  5  0  0  0  0
    3.4515   16.9601   19.8566 H   0  0  0  0  0  0
    2.8254   15.2828   20.0027 H   0  0  0  0  0  0
    1.7265   16.6782   20.2710 H   0  0  0  0  0  0
    3.1041   15.9286   17.6855 H   0  0  0  0  0  0
    1.2578   14.3904   18.3359 H   0  0  0  0  0  0
    0.7955   15.3916   16.9180 H   0  0  0  0  0  0
    0.1615   15.7973   18.5490 H   0  0  0  0  0  0
    2.5228   17.1673   15.8433 H   0  0  0  0  0  0
    2.0070   20.0397   16.7048 H   0  0  0  0  0  0
    2.8140   18.7945   14.0178 H   0  0  0  0  0  0
    2.6355   20.5573   14.3133 H   0  0  0  0  0  0
    4.4662   20.5542   15.8583 H   0  0  0  0  0  0
    4.5621   18.7607   15.8263 H   0  0  0  0  0  0
    5.0442   20.6210   13.4543 H   0  0  0  0  0  0
    6.3090   19.7927   14.4242 H   0  0  0  0  0  0
    5.5689   17.5875   13.5397 H   0  0  0  0  0  0
    4.0919   20.5889   12.0819 H   0  0  0  0  0  0
    3.5319   19.6247   10.5370 H   0  0  0  0  0  0
    4.9194   16.4833   11.7420 H   0  0  0  0  0  0
    0.1138   21.0943   16.4066 H   0  0  0  0  0  0
   -1.7573   19.7716   14.3980 H   0  0  0  0  0  0
   -3.7131   20.1096   15.9938 H   0  0  0  0  0  0
   -2.7512   22.0298   17.3027 H   0  0  0  0  0  0
   -2.4625   17.9285   16.0137 H   0  0  0  0  0  0
   -3.1079   18.3604   17.6334 H   0  0  0  0  0  0
   -1.3652   18.5977   17.2685 H   0  0  0  0  0  0
   -3.6688   21.2484   13.8689 H   0  0  0  0  0  0
   -3.0642   24.1219   14.5428 H   0  0  0  0  0  0
   -2.9309   24.9302   12.2461 H   0  0  0  0  0  0
   -1.6731   23.6718   12.4932 H   0  0  0  0  0  0
   -3.1055   22.0150   11.3573 H   0  0  0  0  0  0
   -4.3662   23.2710   11.1128 H   0  0  0  0  0  0
   -2.9639   24.4992    9.6111 H   0  0  0  0  0  0
   -1.5389   23.4800   10.0078 H   0  0  0  0  0  0
   -2.3241   21.6625    8.7730 H   0  0  0  0  0  0
   -4.0409   22.1740    8.9056 H   0  0  0  0  0  0
   -1.1482   24.2272    7.7280 H   0  0  0  0  0  0
   -1.5017   23.9081    5.9960 H   0  0  0  0  0  0
   -0.9012   22.5826    7.0491 H   0  0  0  0  0  0
   -3.3727   25.1645    7.8294 H   0  0  0  0  0  0
   -4.7727   24.2074    7.2374 H   0  0  0  0  0  0
   -3.5004   24.7429    6.0880 H   0  0  0  0  0  0
   -2.8745   21.1749    6.5222 H   0  0  0  0  0  0
   -3.2183   22.4942    5.3526 H   0  0  0  0  0  0
   -4.4906   21.9587    6.5020 H   0  0  0  0  0  0
   -4.8324   25.5303   14.1240 H   0  0  0  0  0  0
   -7.4309   23.9311   13.7970 H   0  0  0  0  0  0
   -7.1510   25.3697   15.8215 H   0  0  0  0  0  0
   -6.9566   26.8032   14.7567 H   0  0  0  0  0  0
   -9.1972   26.6845   15.7001 H   0  0  0  0  0  0
   -9.2394   26.4867   13.9152 H   0  0  0  0  0  0
  -10.7502   25.1480   13.2487 H   0  0  0  0  0  0
  -11.1933   23.5284   14.1491 H   0  0  0  0  0  0
   -8.4880   24.0372   11.8803 H   0  0  0  0  0  0
   -7.3348   25.5205    9.6809 H   0  0  0  0  0  0
  -10.2529   24.5537   10.0331 H   0  0  0  0  0  0
   -8.5473   22.7245   10.2745 H   0  0  0  0  0  0
   -9.9597   26.2029    8.1530 H   0  0  0  0  0  0
  -10.2972   24.5417    7.5585 H   0  0  0  0  0  0
   -8.6230   25.1908    7.5081 H   0  0  0  0  0  0
   -7.4152   27.6101    9.0503 H   0  0  0  0  0  0
   -9.2188   29.4073   10.7274 H   0  0  0  0  0  0
   -6.8433   30.0225   10.4707 H   0  0  0  0  0  0
   -7.8962   31.2541    9.6953 H   0  0  0  0  0  0
   -7.0286   30.0493    8.6842 H   0  0  0  0  0  0
    3.9827   17.3898   10.3525 H   0  0  0  0  0  0
  1  2  1  0  0  0
  1 58  1  0  0  0
  1 59  1  0  0  0
  1 60  1  0  0  0
  2  3  1  0  0  0
  2  5  1  0  0  0
  2 61  1  0  0  0
  3  4  2  0  0  0
  3  6  1  0  0  0
  5 62  1  0  0  0
  5 63  1  0  0  0
  5 64  1  0  0  0
  6  7  1  0  0  0
  6 65  1  0  0  0
  7  8  1  0  0  0
  7 10  1  0  0  0
  7 66  1  0  0  0
  8  9  2  0  0  0
  8 17  1  0  0  0
 10 11  1  0  0  0
 10 67  1  0  0  0
 10 68  1  0  0  0
 11 12  1  0  0  0
 11 69  1  0  0  0
 11 70  1  0  0  0
 12 13  1  0  0  0
 12 71  1  0  0  0
 12 72  1  0  0  0
 13 14  1  0  0  0
 13 73  1  0  0  0
 14 15  1  0  0  0
 14 16  2  0  0  0
 15 74  1  0  0  0
 15 75  1  0  0  0
 16 76  1  0  0  0
 16123  1  0  0  0
 17 18  1  0  0  0
 17 77  1  0  0  0
 18 19  1  0  0  0
 18 21  1  0  0  0
 18 78  1  0  0  0
 19 20  2  0  0  0
 19 24  1  0  0  0
 21 22  1  0  0  0
 21 23  1  0  0  0
 21 79  1  0  0  0
 22 80  1  0  0  0
 23 81  1  0  0  0
 23 82  1  0  0  0
 23 83  1  0  0  0
 24 25  1  0  0  0
 24 84  1  0  0  0
 25 26  1  0  0  0
 25 31  1  0  0  0
 25 85  1  0  0  0
 26 27  1  0  0  0
 26 86  1  0  0  0
 26 87  1  0  0  0
 27 28  1  0  0  0
 27 88  1  0  0  0
 27 89  1  0  0  0
 28 29  1  0  0  0
 28 90  1  0  0  0
 28 91  1  0  0  0
 29 30  1  0  0  0
 29 92  1  0  0  0
 29 93  1  0  0  0
 30 33  1  0  0  0
 30 34  1  0  0  0
 30 35  1  0  0  0
 31 32  2  0  0  0
 31 36  1  0  0  0
 33 94  1  0  0  0
 33 95  1  0  0  0
 33 96  1  0  0  0
 34 97  1  0  0  0
 34 98  1  0  0  0
 34 99  1  0  0  0
 35100  1  0  0  0
 35101  1  0  0  0
 35102  1  0  0  0
 36 37  1  0  0  0
 36103  1  0  0  0
 37 38  1  0  0  0
 37 40  1  0  0  0
 37104  1  0  0  0
 38 39  2  0  0  0
 38 45  1  0  0  0
 40 41  1  0  0  0
 40105  1  0  0  0
 40106  1  0  0  0
 41 42  1  0  0  0
 41107  1  0  0  0
 41108  1  0  0  0
 42 43  2  0  0  0
 42 44  1  0  0  0
 44109  1  0  0  0
 44110  1  0  0  0
 45 46  1  0  0  0
 45111  1  0  0  0
 46 47  1  0  0  0
 46 49  1  0  0  0
 46112  1  0  0  0
 47 48  2  0  0  0
 47 52  1  0  0  0
 49 50  1  0  0  0
 49 51  1  0  0  0
 49113  1  0  0  0
 50114  1  0  0  0
 51115  1  0  0  0
 51116  1  0  0  0
 51117  1  0  0  0
 52 53  1  0  0  0
 52118  1  0  0  0
 53 54  1  0  0  0
 53 56  1  0  0  0
 53119  1  0  0  0
 54 55  2  0  0  0
 54 57  1  0  0  0
 56120  1  0  0  0
 56121  1  0  0  0
 56122  1  0  0  0
M  CHG  4   1   1  16   1  30   1  57  -1
M  END
> <s_m_source_file>
../3c6w_ligand.sdf

> <i_m_source_file_index>
1

> <s_epik_input>
W0hdL049QyhbTkgyXSlcW05IXVtDSDJdW0NIMl1bQ0gyXVtDQEhdKFtOSF1DKD1PKVtDQEBIXShbTkgzK10pW0NIM10pQyg9TylbTkhdW0NAQEhdKFtDQEhdKFtPSF0pW0NIM10pQyg9TylbTkhdW0NAQEhdKFtDSDJdW0NIMl1bQ0gyXVtDSDJdW04rXShbQ0gzXSkoW0NIM10pW0NIM10pQyg9TylbTkhdW0NAQEhdKFtDSDJdW0NIMl1DKD1PKVtOSDJdKUMoPU8pW05IXVtDQEBIXShbQ0BIXShbT0hdKVtDSDNdKUMoPU8pW05IXVtDQEBIXShbQ0gzXSlDKD1PKVtPSF0=

> <s_epik_cmdline>
J2VwaWtfYXBwJywgJy1pbWFlJywgJ2xpZ2FuZF9wcm8ubWFlJywgJy1vbWFlJywgJ2xpZ2FuZF9wcmVwLm1hZScsICctbXMnLCAnMScsICctcGgnLCAnNycsICctcGh0JywgJzAuNScsICctbnQn

> <r_epik_Ionization_Penalty>
  0.1252

> <r_epik_Ionization_Penalty_Charging>
  0.1252

> <r_epik_Ionization_Penalty_Neutral>
  0.0000

> <r_epik_State_Penalty>
  0.1145

> <r_epik_Charging_Adjusted_Penalty>
0.239746464291294

> <i_epik_Tot_Q>
2

> <i_epik_Tot_abs_Q>
4

> <s_epik_Chemistry_Notes>
This compound has an imine and may undergo hydrolysis.

$$$$
