3c79_ligand
                    3D
 Schrodinger Suite 2020-3.
 25 26  0  0  1  0            999 V2000
   55.2750  -20.5120   -6.9230 C   0  0  0  0  0  0
   54.2610  -20.4010   -7.9300 C   0  0  0  0  0  0
   53.0290  -19.8510   -7.6560 C   0  0  0  0  0  0
   51.8910  -19.7340   -8.6580 Cl  0  0  0  0  0  0
   52.9340  -19.3680   -6.3650 N   0  0  0  0  0  0
   53.8530  -19.4780   -5.3920 C   0  0  0  0  0  0
   55.0840  -20.0910   -5.6230 C   0  0  0  0  0  0
   56.1960  -20.1820   -4.5260 C   0  0  0  0  0  0
   55.6380  -20.1150   -3.1670 N   0  0  0  0  0  0
   55.5980  -18.9470   -2.3080 C   0  0  0  0  0  0
   54.9030  -19.4350   -1.0100 C   0  0  0  0  0  0
   54.6560  -20.8390   -1.2930 N   0  0  0  0  0  0
   55.0810  -21.1370   -2.5310 C   0  0  0  0  0  0
   55.0280  -22.3550   -3.0860 N   0  0  0  0  0  0
   54.5070  -23.2770   -2.4490 N   0  3  0  0  0  0
   54.4070  -24.7610   -2.9580 O   0  0  0  0  0  0
   53.9980  -22.9420   -1.1440 O   0  5  0  0  0  0
   56.2366  -20.9469   -7.1955 H   0  0  0  0  0  0
   54.4704  -20.7608   -8.9373 H   0  0  0  0  0  0
   53.6322  -19.0800   -4.4016 H   0  0  0  0  0  0
   56.7352  -21.1353   -4.6287 H   0  0  0  0  0  0
   56.9013  -19.3468   -4.6486 H   0  0  0  0  0  0
   55.9734  -17.9472   -2.5263 H   0  0  0  0  0  0
   54.6607  -18.8676   -0.1114 H   0  0  0  0  0  0
   54.1832  -21.4784   -0.5329 H   0  0  0  0  0  0
  1  2  2  0  0  0
  1  7  1  0  0  0
  1 18  1  0  0  0
  2  3  1  0  0  0
  2 19  1  0  0  0
  3  4  1  0  0  0
  3  5  2  0  0  0
  5  6  1  0  0  0
  6  7  2  0  0  0
  6 20  1  0  0  0
  7  8  1  0  0  0
  8  9  1  0  0  0
  8 21  1  0  0  0
  8 22  1  0  0  0
  9 10  1  0  0  0
  9 13  1  0  0  0
 10 11  2  0  0  0
 10 23  1  0  0  0
 11 12  1  0  0  0
 11 24  1  0  0  0
 12 13  1  0  0  0
 12 25  1  0  0  0
 13 14  2  0  0  0
 14 15  1  0  0  0
 15 16  2  0  0  0
 15 17  1  0  0  0
M  CHG  2  15   1  17  -1
M  END
> <s_m_source_file>
../3c79_ligand.sdf

> <i_m_source_file_index>
1

> <s_epik_input>
Q2xjMVtjSF1bY0hdYyhbY0hdbjEpW0NIMl1uMltjSF1bY0hdbmMyW05IXVtOK10oPU8pW08tXQ==

> <s_epik_cmdline>
J2VwaWtfYXBwJywgJy1pbWFlJywgJ2xpZ2FuZF9wcm8ubWFlJywgJy1vbWFlJywgJ2xpZ2FuZF9wcmVwLm1hZScsICctbXMnLCAnMScsICctcGgnLCAnNycsICctcGh0JywgJzAuNScsICctbnQn

> <r_lp_tautomer_probability>
1

> <r_epik_Ionization_Penalty>
  0.0432

> <r_epik_Ionization_Penalty_Charging>
  0.0004

> <r_epik_Ionization_Penalty_Neutral>
  0.0429

> <r_epik_State_Penalty>
 -0.0000

> <r_epik_Charging_Adjusted_Penalty>
0.00035515606057923

> <i_epik_Tot_Q>
0

> <i_epik_Tot_abs_Q>
2

$$$$
