3c7n_ligand
                    3D
 Schrodinger Suite 2020-3.
 39 41  0  0  1  0            999 V2000
  -31.8720   11.9060  -15.9300 P   0  0  0  0  0  0
  -31.6490   10.7230  -16.8830 O   0  5  0  0  0  0
  -33.2990   11.9990  -15.4330 O   0  0  0  0  0  0
  -30.8170   12.0700  -14.8560 O   0  5  0  0  0  0
  -32.7370   14.4860  -16.7310 P   0  0  1  0  0  0
  -34.0800   13.9670  -17.1480 O   0  0  0  0  0  0
  -32.5180   15.1430  -15.3870 O   0  5  0  0  0  0
  -31.7150   13.2400  -16.8320 O   0  0  0  0  0  0
  -32.2410   15.4270  -17.9200 O   0  0  0  0  0  0
  -30.8560   15.7050  -18.0950 C   0  0  0  0  0  0
  -30.4920   15.7190  -19.5830 C   0  0  1  0  0  0
  -31.3680   16.5930  -20.3100 O   0  0  0  0  0  0
  -29.0690   16.2190  -19.7680 C   0  0  1  0  0  0
  -28.3700   15.3990  -20.7110 O   0  0  0  0  0  0
  -29.2270   17.6060  -20.3490 C   0  0  1  0  0  0
  -28.2130   17.8530  -21.3260 O   0  0  0  0  0  0
  -30.6300   17.6310  -20.9540 C   0  0  2  0  0  0
  -31.1760   18.9980  -20.7530 N   0  0  0  0  0  0
  -31.3000   19.6590  -19.5850 C   0  0  0  0  0  0
  -31.7960   20.9210  -19.7650 N   0  0  0  0  0  0
  -31.9790   21.0780  -21.0910 C   0  0  0  0  0  0
  -32.4680   22.1530  -21.9790 C   0  0  0  0  0  0
  -32.8690   23.3310  -21.4700 N   0  0  0  0  0  0
  -32.5080   21.9130  -23.3050 N   0  0  0  0  0  0
  -32.1080   20.7370  -23.8190 C   0  0  0  0  0  0
  -31.6520   19.7120  -23.0810 N   0  0  0  0  0  0
  -31.5640   19.8160  -21.7340 C   0  0  0  0  0  0
  -30.6219   16.6887  -17.6619 H   0  0  0  0  0  0
  -30.2599   14.9307  -17.5899 H   0  0  0  0  0  0
  -30.6273   14.7138  -20.0087 H   0  0  0  0  0  0
  -28.4644   16.1731  -18.8502 H   0  0  0  0  0  0
  -28.1552   14.3470  -20.4721 H   0  0  0  0  0  0
  -29.0594   18.4150  -19.6227 H   0  0  0  0  0  0
  -27.1540   17.8640  -21.0288 H   0  0  0  0  0  0
  -30.7181   17.4060  -22.0271 H   0  0  0  0  0  0
  -31.0369   19.2387  -18.6143 H   0  0  0  0  0  0
  -32.8272   23.5039  -20.3845 H   0  0  0  0  0  0
  -33.2389   24.1219  -22.1391 H   0  0  0  0  0  0
  -32.1568   20.6077  -24.9002 H   0  0  0  0  0  0
  1  2  1  0  0  0
  1  3  2  0  0  0
  1  4  1  0  0  0
  1  8  1  0  0  0
  5  6  2  0  0  0
  5  7  1  0  0  0
  5  8  1  0  0  0
  5  9  1  0  0  0
  9 10  1  0  0  0
 10 11  1  0  0  0
 10 28  1  0  0  0
 10 29  1  0  0  0
 11 12  1  0  0  0
 11 13  1  0  0  0
 11 30  1  0  0  0
 12 17  1  0  0  0
 13 14  1  0  0  0
 13 15  1  0  0  0
 13 31  1  0  0  0
 14 32  1  0  0  0
 15 16  1  0  0  0
 15 17  1  0  0  0
 15 33  1  0  0  0
 16 34  1  0  0  0
 17 18  1  0  0  0
 17 35  1  0  0  0
 18 19  1  0  0  0
 18 27  1  0  0  0
 19 20  2  0  0  0
 19 36  1  0  0  0
 20 21  1  0  0  0
 21 22  2  0  0  0
 21 27  1  0  0  0
 22 23  1  0  0  0
 22 24  1  0  0  0
 23 37  1  0  0  0
 23 38  1  0  0  0
 24 25  2  0  0  0
 25 26  1  0  0  0
 25 39  1  0  0  0
 26 27  2  0  0  0
M  CHG  3   2  -1   4  -1   7  -1
M  END
> <s_m_source_file>
../3c7n_ligand.sdf

> <i_m_source_file_index>
1

> <s_epik_input>
W09IXVAoPU8pKFtPSF0pT1tQQEBdKD1PKShbT0hdKU9bQ0gyXVtDQEhdMU9bQ0BIXShbQ0BIXShbT0hdKVtDQEBIXTFbT0hdKW4oW2NIXW4yKWMoYzIzKW5bY0hdbmMzW05IMl0=

> <s_epik_cmdline>
J2VwaWtfYXBwJywgJy1pbWFlJywgJ2xpZ2FuZF9wcm8ubWFlJywgJy1vbWFlJywgJ2xpZ2FuZF9wcmVwLm1hZScsICctbXMnLCAnMScsICctcGgnLCAnNycsICctcGh0JywgJzAuNScsICctbnQn

> <r_lp_tautomer_probability>
0.999997216410988

> <r_epik_Ionization_Penalty>
  0.1037

> <r_epik_Ionization_Penalty_Charging>
  0.1033

> <r_epik_Ionization_Penalty_Neutral>
  0.0004

> <r_epik_State_Penalty>
  0.0922

> <r_epik_Charging_Adjusted_Penalty>
0.19546844050481

> <i_epik_Tot_Q>
-3

> <i_epik_Tot_abs_Q>
3

> <s_epik_Chemistry_Notes>
This compound contains an acetal/aminal-like group ( X-CH(R)-Y where X, Y are N, S, or O) that may be acid/base labile, releasing an aldehyde.

$$$$
