3c7p_ligand
                    3D
 Schrodinger Suite 2020-3.
 60 64  0  0  1  0            999 V2000
   -4.6800    1.4930   17.2800 O   0  0  0  0  0  0
   -4.9330    1.2870   14.8720 O   0  0  0  0  0  0
   -3.4500   12.4880   13.7150 O   0  0  0  0  0  0
   -6.9220    1.4180   16.2440 O   0  0  0  0  0  0
   -4.3760    2.5740   14.6350 C   0  0  0  0  0  0
   -5.1710    3.7340   14.5710 C   0  0  0  0  0  0
   -5.5760   -0.6130   16.4690 N   0  0  0  0  0  0
   -4.5510    4.9930   14.3370 C   0  0  0  0  0  0
   -3.1170    5.0780   14.1670 C   0  0  0  0  0  0
   -2.3670    3.8670   14.2420 C   0  0  0  0  0  0
   -5.5770    0.9490   16.3160 S   0  0  0  0  0  0
   -2.9870    2.6250   14.4740 C   0  0  0  0  0  0
   -5.4180    6.2340   14.2780 C   0  0  0  0  0  0
   -4.6140    7.5400   14.4800 C   0  0  0  0  0  0
   -3.4180    7.5800   13.5200 C   0  0  2  0  0  0
   -2.4140    6.4390   13.9220 C   0  0  2  0  0  0
   -2.6400    8.9410   13.5400 C   0  0  1  0  0  0
   -1.4390    8.9480   12.4970 C   0  0  1  0  0  0
   -0.5220    7.7130   12.7590 C   0  0  0  0  0  0
   -1.2910    6.3770   12.8570 C   0  0  0  0  0  0
   -1.9510    8.9040   11.0140 C   0  0  0  0  0  0
   -3.5490   10.1820   13.2730 C   0  0  0  0  0  0
   -2.8090   11.4950   13.3620 C   0  0  0  0  0  0
   -1.3750   11.5060   13.0330 N   0  0  0  0  0  0
   -0.6570   10.2720   12.6100 C   0  0  0  0  0  0
    0.5590   10.2800   12.3390 O   0  0  0  0  0  0
   -0.5980   12.8190   13.1270 C   0  0  0  0  0  0
   -0.1300   13.2150   14.4610 C   0  0  0  0  0  0
    0.7380   12.4350   15.2330 C   0  0  0  0  0  0
    1.1880   12.8690   16.5700 C   0  0  0  0  0  0
    0.7280   14.0810   17.0520 C   0  0  0  0  0  0
   -0.0900   14.8090   16.3170 N   0  0  0  0  0  0
   -0.5460   14.4300   15.0300 C   0  0  0  0  0  0
   -6.2514    3.6683   14.6995 H   0  0  0  0  0  0
   -6.0083   -0.8863   17.4429 H   0  0  0  0  0  0
   -4.5432   -0.9867   16.4084 H   0  0  0  0  0  0
   -1.2849    3.9045   14.1163 H   0  0  0  0  0  0
   -2.3920    1.7133   14.5276 H   0  0  0  0  0  0
   -5.9094    6.2916   13.2955 H   0  0  0  0  0  0
   -6.1821    6.1854   15.0678 H   0  0  0  0  0  0
   -5.2639    8.4050   14.2816 H   0  0  0  0  0  0
   -4.2461    7.5877   15.5156 H   0  0  0  0  0  0
   -3.8444    7.4490   12.5145 H   0  0  0  0  0  0
   -1.9496    6.6632   14.8936 H   0  0  0  0  0  0
   -2.2637    9.0285   14.5699 H   0  0  0  0  0  0
    0.2028    7.6136   11.9375 H   0  0  0  0  0  0
    0.0164    7.8508   13.7083 H   0  0  0  0  0  0
   -0.5760    5.5848   13.1238 H   0  0  0  0  0  0
   -1.7307    6.1577   11.8728 H   0  0  0  0  0  0
   -2.5245    7.9795   10.8514 H   0  0  0  0  0  0
   -1.0911    8.9274   10.3284 H   0  0  0  0  0  0
   -2.5962    9.7742   10.8229 H   0  0  0  0  0  0
   -3.9781   10.1116   12.2626 H   0  0  0  0  0  0
   -4.3607   10.2084   14.0150 H   0  0  0  0  0  0
    0.3041   12.7568   12.5006 H   0  0  0  0  0  0
   -1.2321   13.6463   12.7755 H   0  0  0  0  0  0
    1.0908   11.4827   14.8370 H   0  0  0  0  0  0
    1.8642   12.2514   17.1612 H   0  0  0  0  0  0
    1.0402   14.4330   18.0352 H   0  0  0  0  0  0
   -1.2223   15.0839   14.4794 H   0  0  0  0  0  0
  1 11  2  0  0  0
  2  5  1  0  0  0
  2 11  1  0  0  0
  3 23  2  0  0  0
  4 11  2  0  0  0
  5  6  2  0  0  0
  5 12  1  0  0  0
  6  8  1  0  0  0
  6 34  1  0  0  0
  7 11  1  0  0  0
  7 35  1  0  0  0
  7 36  1  0  0  0
  8  9  2  0  0  0
  8 13  1  0  0  0
  9 10  1  0  0  0
  9 16  1  0  0  0
 10 12  2  0  0  0
 10 37  1  0  0  0
 12 38  1  0  0  0
 13 14  1  0  0  0
 13 39  1  0  0  0
 13 40  1  0  0  0
 14 15  1  0  0  0
 14 41  1  0  0  0
 14 42  1  0  0  0
 15 16  1  0  0  0
 15 17  1  0  0  0
 15 43  1  0  0  0
 16 20  1  0  0  0
 16 44  1  0  0  0
 17 18  1  0  0  0
 17 22  1  0  0  0
 17 45  1  0  0  0
 18 19  1  0  0  0
 18 21  1  0  0  0
 18 25  1  0  0  0
 19 20  1  0  0  0
 19 46  1  0  0  0
 19 47  1  0  0  0
 20 48  1  0  0  0
 20 49  1  0  0  0
 21 50  1  0  0  0
 21 51  1  0  0  0
 21 52  1  0  0  0
 22 23  1  0  0  0
 22 53  1  0  0  0
 22 54  1  0  0  0
 23 24  1  0  0  0
 24 25  1  0  0  0
 24 27  1  0  0  0
 25 26  2  0  0  0
 27 28  1  0  0  0
 27 55  1  0  0  0
 27 56  1  0  0  0
 28 29  2  0  0  0
 28 33  1  0  0  0
 29 30  1  0  0  0
 29 57  1  0  0  0
 30 31  2  0  0  0
 30 58  1  0  0  0
 31 32  1  0  0  0
 31 59  1  0  0  0
 32 33  2  0  0  0
 33 60  1  0  0  0
M  END
> <s_m_source_file>
../3c7p_ligand.sdf

> <i_m_source_file_index>
1

> <s_epik_input>
Tz1TKD1PKShbTkgyXSlPYyhbY0hdW2NIXTEpW2NIXWMoW0NIMl1bQ0gyXTIpYzFbQ0BASF0oW0NIMl1bQ0gyXTMpW0NAQEhdMltDQEBIXShbQ0BdMzRbQ0gzXSlbQ0gyXUMoPU8pTihDND1PKVtDSDJdYzVbY0hdW2NIXVtjSF1uW2NIXTU=

> <s_epik_cmdline>
J2VwaWtfYXBwJywgJy1pbWFlJywgJ2xpZ2FuZF9wcm8ubWFlJywgJy1vbWFlJywgJ2xpZ2FuZF9wcmVwLm1hZScsICctbXMnLCAnMScsICctcGgnLCAnNycsICctcGh0JywgJzAuNScsICctbnQn

> <r_lp_tautomer_probability>
0.99995

> <r_epik_Ionization_Penalty>
  0.0278

> <r_epik_Ionization_Penalty_Charging>
  0.0000

> <r_epik_Ionization_Penalty_Neutral>
  0.0278

> <r_epik_State_Penalty>
  0.0193

> <r_epik_Charging_Adjusted_Penalty>
0.0192967778690456

> <i_epik_Tot_Q>
0

> <i_epik_Tot_abs_Q>
0

$$$$
