3c84_ligand
                    3D
 Schrodinger Suite 2020-3.
 25 26  0  0  1  0            999 V2000
  -12.5870   20.4270   59.5610 C   0  0  0  0  0  0
  -11.6010   20.4210   58.5510 C   0  0  0  0  0  0
  -10.3650   19.7710   58.7150 C   0  0  0  0  0  0
   -9.2760   19.7750   57.5600 Cl  0  0  0  0  0  0
  -10.1750   19.1750   59.9190 N   0  0  0  0  0  0
  -11.0350   19.1800   60.9180 C   0  0  0  0  0  0
  -12.3060   19.8100   60.7720 C   0  0  0  0  0  0
  -13.3820   19.8170   61.8830 C   0  0  0  0  0  0
  -12.7950   19.7210   63.2340 N   0  0  0  0  0  0
  -12.8390   18.4490   64.0110 C   0  0  0  0  0  0
  -12.6380   18.8190   65.4870 C   0  0  0  0  0  0
  -11.5690   20.3000   65.3880 S   0  0  0  0  0  0
  -12.1630   20.7600   63.8390 C   0  0  0  0  0  0
  -12.0430   21.9480   63.2520 N   0  0  0  0  0  0
  -11.4510   22.9790   63.8050 C   0  0  0  0  0  0
  -10.9630   23.9160   64.2370 N   0  0  0  0  0  0
  -13.5510   20.9072   59.3930 H   0  0  0  0  0  0
  -11.8045   20.9373   57.6129 H   0  0  0  0  0  0
  -10.7732   18.6999   61.8609 H   0  0  0  0  0  0
  -13.9591   20.7519   61.8286 H   0  0  0  0  0  0
  -14.0579   18.9603   61.7443 H   0  0  0  0  0  0
  -13.8136   17.9614   63.8613 H   0  0  0  0  0  0
  -12.0374   17.7800   63.6649 H   0  0  0  0  0  0
  -13.6141   19.0291   65.9485 H   0  0  0  0  0  0
  -12.1565   17.9813   66.0128 H   0  0  0  0  0  0
  1  2  2  0  0  0
  1  7  1  0  0  0
  1 17  1  0  0  0
  2  3  1  0  0  0
  2 18  1  0  0  0
  3  4  1  0  0  0
  3  5  2  0  0  0
  5  6  1  0  0  0
  6  7  2  0  0  0
  6 19  1  0  0  0
  7  8  1  0  0  0
  8  9  1  0  0  0
  8 20  1  0  0  0
  8 21  1  0  0  0
  9 10  1  0  0  0
  9 13  1  0  0  0
 10 11  1  0  0  0
 10 22  1  0  0  0
 10 23  1  0  0  0
 11 12  1  0  0  0
 11 24  1  0  0  0
 11 25  1  0  0  0
 12 13  1  0  0  0
 13 14  2  0  0  0
 14 15  1  0  0  0
 15 16  3  0  0  0
M  END
> <s_m_source_file>
../3c84_ligand.sdf

> <i_m_source_file_index>
1

> <s_epik_input>
Q2xjMVtjSF1bY0hdYyhbY0hdbjEpW0NIMl1OMltDSDJdW0NIMl1TQ1wyPU4vQyNO

> <s_epik_cmdline>
J2VwaWtfYXBwJywgJy1pbWFlJywgJ2xpZ2FuZF9wcm8ubWFlJywgJy1vbWFlJywgJ2xpZ2FuZF9wcmVwLm1hZScsICctbXMnLCAnMScsICctcGgnLCAnNycsICctcGh0JywgJzAuNScsICctbnQn

> <r_lp_tautomer_probability>
1

> <r_epik_Ionization_Penalty>
  0.0000

> <r_epik_Ionization_Penalty_Charging>
  0.0000

> <r_epik_Ionization_Penalty_Neutral>
  0.0000

> <r_epik_State_Penalty>
 -0.0000

> <r_epik_Charging_Adjusted_Penalty>
0

> <i_epik_Tot_Q>
0

> <i_epik_Tot_abs_Q>
0

> <s_epik_Chemistry_Notes>
This compound has an imine and may undergo hydrolysis.

$$$$
