3c89_ligand
                    3D
 Schrodinger Suite 2020-3.
 75 74  0  0  1  0            999 V2000
   27.5560   27.4460   53.1860 N   0  3  0  0  0  0
   27.5310   25.9890   53.2650 C   0  0  2  0  0  0
   26.5300   25.5250   54.3160 C   0  0  0  0  0  0
   26.3950   26.1300   55.3770 O   0  0  0  0  0  0
   28.9130   25.4350   53.6130 C   0  0  0  0  0  0
   29.9880   25.7270   52.5860 C   0  0  0  0  0  0
   31.2620   24.9520   52.9150 C   0  0  0  0  0  0
   32.3300   25.2220   51.9590 N   0  0  0  0  0  0
   33.0390   26.3460   51.9150 C   0  0  0  0  0  0
   32.8050   27.3230   52.7820 N   0  3  0  0  0  0
   33.9820   26.4960   50.9930 N   0  0  0  0  0  0
   25.8510   24.4230   54.0130 N   0  0  0  0  0  0
   24.8220   23.8370   54.8800 C   0  0  2  0  0  0
   25.3360   23.2260   56.1830 C   0  0  0  0  0  0
   24.7030   23.3940   57.2470 O   0  0  0  0  0  0
   24.0650   22.7730   54.1000 C   0  0  0  0  0  0
   23.0880   23.2970   53.0480 C   0  0  0  0  0  0
   21.7110   23.4700   53.6660 C   0  0  0  0  0  0
   21.4660   22.4190   54.6500 N   0  0  0  0  0  0
   20.3580   22.2970   55.3740 C   0  0  0  0  0  0
   19.3610   23.1560   55.2310 N   0  3  0  0  0  0
   20.2620   21.3260   56.2700 N   0  0  0  0  0  0
   26.4550   22.5030   56.1000 N   0  0  0  0  0  0
   27.0410   21.8860   57.2770 C   0  0  0  0  0  0
   26.4990   20.4920   57.5720 C   0  0  0  0  0  0
   25.8330   19.8790   56.7590 O   0  0  0  0  0  0
   26.7820   19.9960   58.7720 N   0  0  0  0  0  0
   26.3340   18.6590   59.2010 C   0  0  2  0  0  0
   24.8160   18.5630   59.2910 C   0  0  0  0  0  0
   24.2430   17.4770   59.0150 O   0  0  0  0  0  0
   26.9080   18.3180   60.5780 C   0  0  0  0  0  0
   28.4140   18.1270   60.6320 C   0  0  0  0  0  0
   28.9710   16.6080   59.8460 S   0  0  0  0  0  0
   28.7230   15.4050   61.1540 C   0  0  0  0  0  0
   24.1001   19.6216   59.6594 O   0  5  0  0  0  0
   28.2836   27.7594   52.4229 H   0  0  0  0  0  0
   27.8467   27.8612   54.1623 H   0  0  0  0  0  0
   26.5565   27.8156   52.9133 H   0  0  0  0  0  0
   27.2228   25.6558   52.2630 H   0  0  0  0  0  0
   29.2541   25.8710   54.5636 H   0  0  0  0  0  0
   28.8554   24.3409   53.7112 H   0  0  0  0  0  0
   29.6335   25.4273   51.5888 H   0  0  0  0  0  0
   30.2131   26.8037   52.5868 H   0  0  0  0  0  0
   31.6173   25.2385   53.9158 H   0  0  0  0  0  0
   31.0499   23.8728   52.8962 H   0  0  0  0  0  0
   32.5974   24.4668   51.2053 H   0  0  0  0  0  0
   32.0246   27.2034   53.5479 H   0  0  0  0  0  0
   34.1797   25.6890   50.2721 H   0  0  0  0  0  0
   34.5658   27.4273   50.9498 H   0  0  0  0  0  0
   26.0970   23.9471   53.0522 H   0  0  0  0  0  0
   24.1984   24.7010   55.1529 H   0  0  0  0  0  0
   24.7809   22.1314   53.5654 H   0  0  0  0  0  0
   23.4722   22.1607   54.7955 H   0  0  0  0  0  0
   23.4418   24.2676   52.6702 H   0  0  0  0  0  0
   23.0259   22.5802   52.2159 H   0  0  0  0  0  0
   21.6525   24.4498   54.1626 H   0  0  0  0  0  0
   20.9456   23.4120   52.8781 H   0  0  0  0  0  0
   22.2309   21.6507   54.8361 H   0  0  0  0  0  0
   19.4340   23.9647   54.4889 H   0  0  0  0  0  0
   21.0866   20.6087   56.3942 H   0  0  0  0  0  0
   19.3576   21.2370   56.8898 H   0  0  0  0  0  0
   26.9339   22.3785   55.1176 H   0  0  0  0  0  0
   28.1283   21.7922   57.1389 H   0  0  0  0  0  0
   26.8359   22.5105   58.1590 H   0  0  0  0  0  0
   27.3738   20.6232   59.4550 H   0  0  0  0  0  0
   26.7075   17.9812   58.4193 H   0  0  0  0  0  0
   26.6734   19.1283   61.2839 H   0  0  0  0  0  0
   26.4639   17.3782   60.9379 H   0  0  0  0  0  0
   28.9085   18.9648   60.1185 H   0  0  0  0  0  0
   28.7422   18.0951   61.6814 H   0  0  0  0  0  0
   29.0304   14.4099   60.8000 H   0  0  0  0  0  0
   27.6596   15.3821   61.4343 H   0  0  0  0  0  0
   29.3270   15.6855   62.0295 H   0  0  0  0  0  0
   18.4596   23.0611   55.8542 H   0  0  0  0  0  0
   33.3915   28.2524   52.7348 H   0  0  0  0  0  0
  1  2  1  0  0  0
  1 36  1  0  0  0
  1 37  1  0  0  0
  1 38  1  0  0  0
  2  5  1  0  0  0
  2  3  1  0  0  0
  2 39  1  0  0  0
  3  4  2  0  0  0
  3 12  1  0  0  0
  5  6  1  0  0  0
  5 40  1  0  0  0
  5 41  1  0  0  0
  6  7  1  0  0  0
  6 42  1  0  0  0
  6 43  1  0  0  0
  7  8  1  0  0  0
  7 44  1  0  0  0
  7 45  1  0  0  0
  8  9  1  0  0  0
  8 46  1  0  0  0
  9 11  1  0  0  0
  9 10  2  0  0  0
 10 47  1  0  0  0
 10 75  1  0  0  0
 11 48  1  0  0  0
 11 49  1  0  0  0
 12 13  1  0  0  0
 12 50  1  0  0  0
 13 16  1  0  0  0
 13 14  1  0  0  0
 13 51  1  0  0  0
 14 15  2  0  0  0
 14 23  1  0  0  0
 16 17  1  0  0  0
 16 52  1  0  0  0
 16 53  1  0  0  0
 17 18  1  0  0  0
 17 54  1  0  0  0
 17 55  1  0  0  0
 18 19  1  0  0  0
 18 56  1  0  0  0
 18 57  1  0  0  0
 19 20  1  0  0  0
 19 58  1  0  0  0
 20 22  1  0  0  0
 20 21  2  0  0  0
 21 59  1  0  0  0
 21 74  1  0  0  0
 22 60  1  0  0  0
 22 61  1  0  0  0
 23 24  1  0  0  0
 23 62  1  0  0  0
 24 25  1  0  0  0
 24 63  1  0  0  0
 24 64  1  0  0  0
 25 26  2  0  0  0
 25 27  1  0  0  0
 27 28  1  0  0  0
 27 65  1  0  0  0
 28 31  1  0  0  0
 28 29  1  0  0  0
 28 66  1  0  0  0
 29 30  2  0  0  0
 29 35  1  0  0  0
 31 32  1  0  0  0
 31 67  1  0  0  0
 31 68  1  0  0  0
 32 33  1  0  0  0
 32 69  1  0  0  0
 32 70  1  0  0  0
 33 34  1  0  0  0
 34 71  1  0  0  0
 34 72  1  0  0  0
 34 73  1  0  0  0
M  CHG  4   1   1  10   1  21   1  35  -1
M  END
> <s_m_source_file>
../3c89_ligand.sdf

> <i_m_source_file_index>
1

> <s_epik_input>
W0hdL049QyhbTkgyXSlcW05IXVtDSDJdW0NIMl1bQ0gyXVtDQEhdKFtOSDMrXSlDKD1PKVtOSF1bQ0BASF0oW0NIMl1bQ0gyXVtDSDJdW05IXS9DKD1OXFtIXSlbTkgyXSlDKD1PKVtOSF1bQ0gyXUMoPU8pW05IXVtDQEhdKEMoPU8pW09IXSlbQ0gyXVtDSDJdU1tDSDNd

> <s_epik_cmdline>
J2VwaWtfYXBwJywgJy1pbWFlJywgJ2xpZ2FuZF9wcm8ubWFlJywgJy1vbWFlJywgJ2xpZ2FuZF9wcmVwLm1hZScsICctbXMnLCAnMScsICctcGgnLCAnNycsICctcGh0JywgJzAuNScsICctbnQn

> <r_epik_Ionization_Penalty>
  0.1368

> <r_epik_Ionization_Penalty_Charging>
  0.1368

> <r_epik_Ionization_Penalty_Neutral>
  0.0000

> <r_epik_State_Penalty>
  0.1260

> <r_epik_Charging_Adjusted_Penalty>
0.262801582554817

> <i_epik_Tot_Q>
2

> <i_epik_Tot_abs_Q>
4

> <s_epik_Chemistry_Notes>
This compound has an imine and may undergo hydrolysis.

$$$$
