3c8a_ligand
                    3D
 Schrodinger Suite 2020-3.
 77 76  0  0  1  0            999 V2000
   27.6350   27.5090   53.1220 N   0  3  0  0  0  0
   27.5980   26.0500   53.1530 C   0  0  2  0  0  0
   26.5970   25.5820   54.1940 C   0  0  0  0  0  0
   26.4750   26.1890   55.2610 O   0  0  0  0  0  0
   28.9750   25.4780   53.4890 C   0  0  0  0  0  0
   30.0500   25.7980   52.4730 C   0  0  0  0  0  0
   31.3070   24.9830   52.7500 C   0  0  0  0  0  0
   32.3650   25.2570   51.7810 N   0  0  0  0  0  0
   33.1040   26.3620   51.7640 C   0  0  0  0  0  0
   32.9100   27.3130   52.6680 N   0  3  0  0  0  0
   34.0410   26.5160   50.8370 N   0  0  0  0  0  0
   25.9000   24.4900   53.8900 N   0  0  0  0  0  0
   24.8880   23.9530   54.7940 C   0  0  2  0  0  0
   25.4240   23.2970   56.0490 C   0  0  0  0  0  0
   24.7870   23.3580   57.0990 O   0  0  0  0  0  0
   24.0060   22.9300   54.0770 C   0  0  0  0  0  0
   23.1010   23.5140   53.0270 C   0  0  0  0  0  0
   21.9030   22.6130   52.8290 C   0  0  0  0  0  0
   20.7280   23.0350   53.5950 N   0  0  0  0  0  0
   20.3650   22.5430   54.7770 C   0  0  0  0  0  0
   21.0830   21.5950   55.3610 N   0  3  0  0  0  0
   19.2690   22.9970   55.3730 N   0  0  0  0  0  0
   26.5800   22.6520   55.9430 N   0  0  0  0  0  0
   27.1250   21.9760   57.1060 C   0  0  0  0  0  0
   26.5360   20.5860   57.2880 C   0  0  0  0  0  0
   25.9180   20.0530   56.3660 O   0  0  0  0  0  0
   26.7240   20.0110   58.4750 N   0  0  0  0  0  0
   26.2200   18.6750   58.7870 C   0  0  2  0  0  0
   24.7230   18.6310   59.0830 C   0  0  0  0  0  0
   24.1220   17.5500   58.8870 O   0  0  0  0  0  0
   26.9680   18.1090   59.9920 C   0  0  0  0  0  0
   28.4670   17.8480   59.8420 C   0  0  0  0  0  0
   29.0180   17.2120   61.1170 C   0  0  0  0  0  0
   28.7000   16.9270   58.6540 C   0  0  0  0  0  0
   24.0792   19.7040   59.5336 O   0  5  0  0  0  0
   28.3618   27.8414   52.3661 H   0  0  0  0  0  0
   27.9337   27.8893   54.1100 H   0  0  0  0  0  0
   26.6374   27.8957   52.8665 H   0  0  0  0  0  0
   27.2887   25.7362   52.1451 H   0  0  0  0  0  0
   29.3148   25.8829   54.4537 H   0  0  0  0  0  0
   28.9109   24.3818   53.5536 H   0  0  0  0  0  0
   29.6840   25.5577   51.4639 H   0  0  0  0  0  0
   30.2992   26.8680   52.5275 H   0  0  0  0  0  0
   31.6890   25.2275   53.7521 H   0  0  0  0  0  0
   31.0670   23.9106   52.7006 H   0  0  0  0  0  0
   32.5955   24.5219   50.9958 H   0  0  0  0  0  0
   32.1345   27.1897   53.4383 H   0  0  0  0  0  0
   34.2054   25.7299   50.0853 H   0  0  0  0  0  0
   34.6533   27.4297   50.8203 H   0  0  0  0  0  0
   26.1018   23.9902   52.9311 H   0  0  0  0  0  0
   24.3539   24.8688   55.0875 H   0  0  0  0  0  0
   24.6417   22.1865   53.5739 H   0  0  0  0  0  0
   23.3606   22.4244   54.8103 H   0  0  0  0  0  0
   22.7599   24.5089   53.3491 H   0  0  0  0  0  0
   23.6504   23.6042   52.0783 H   0  0  0  0  0  0
   21.6207   22.6067   51.7659 H   0  0  0  0  0  0
   22.1563   21.5909   53.1471 H   0  0  0  0  0  0
   20.0653   23.8184   53.1986 H   0  0  0  0  0  0
   21.9922   21.2142   54.8728 H   0  0  0  0  0  0
   18.6682   23.7840   54.8938 H   0  0  0  0  0  0
   18.9617   22.5862   56.3460 H   0  0  0  0  0  0
   27.1236   22.6265   54.9871 H   0  0  0  0  0  0
   28.2145   21.8743   56.9939 H   0  0  0  0  0  0
   26.9026   22.5632   58.0092 H   0  0  0  0  0  0
   27.2815   20.5796   59.2339 H   0  0  0  0  0  0
   26.4105   18.1104   57.8624 H   0  0  0  0  0  0
   26.8804   18.8061   60.8384 H   0  0  0  0  0  0
   26.5331   17.1377   60.2704 H   0  0  0  0  0  0
   28.9917   18.7990   59.6681 H   0  0  0  0  0  0
   28.8438   17.8867   61.9681 H   0  0  0  0  0  0
   30.0980   17.0375   61.0025 H   0  0  0  0  0  0
   28.5090   16.2539   61.2984 H   0  0  0  0  0  0
   28.2994   17.3954   57.7429 H   0  0  0  0  0  0
   28.1900   15.9680   58.8280 H   0  0  0  0  0  0
   29.7791   16.7516   58.5321 H   0  0  0  0  0  0
   20.7699   21.1887   56.3341 H   0  0  0  0  0  0
   33.5247   28.2250   52.6474 H   0  0  0  0  0  0
  1  2  1  0  0  0
  1 36  1  0  0  0
  1 37  1  0  0  0
  1 38  1  0  0  0
  2  5  1  0  0  0
  2  3  1  0  0  0
  2 39  1  0  0  0
  3  4  2  0  0  0
  3 12  1  0  0  0
  5  6  1  0  0  0
  5 40  1  0  0  0
  5 41  1  0  0  0
  6  7  1  0  0  0
  6 42  1  0  0  0
  6 43  1  0  0  0
  7  8  1  0  0  0
  7 44  1  0  0  0
  7 45  1  0  0  0
  8  9  1  0  0  0
  8 46  1  0  0  0
  9 11  1  0  0  0
  9 10  2  0  0  0
 10 47  1  0  0  0
 10 77  1  0  0  0
 11 48  1  0  0  0
 11 49  1  0  0  0
 12 13  1  0  0  0
 12 50  1  0  0  0
 13 16  1  0  0  0
 13 14  1  0  0  0
 13 51  1  0  0  0
 14 15  2  0  0  0
 14 23  1  0  0  0
 16 17  1  0  0  0
 16 52  1  0  0  0
 16 53  1  0  0  0
 17 18  1  0  0  0
 17 54  1  0  0  0
 17 55  1  0  0  0
 18 19  1  0  0  0
 18 56  1  0  0  0
 18 57  1  0  0  0
 19 20  1  0  0  0
 19 58  1  0  0  0
 20 22  1  0  0  0
 20 21  2  0  0  0
 21 59  1  0  0  0
 21 76  1  0  0  0
 22 60  1  0  0  0
 22 61  1  0  0  0
 23 24  1  0  0  0
 23 62  1  0  0  0
 24 25  1  0  0  0
 24 63  1  0  0  0
 24 64  1  0  0  0
 25 26  2  0  0  0
 25 27  1  0  0  0
 27 28  1  0  0  0
 27 65  1  0  0  0
 28 31  1  0  0  0
 28 29  1  0  0  0
 28 66  1  0  0  0
 29 30  2  0  0  0
 29 35  1  0  0  0
 31 32  1  0  0  0
 31 67  1  0  0  0
 31 68  1  0  0  0
 32 33  1  0  0  0
 32 34  1  0  0  0
 32 69  1  0  0  0
 33 70  1  0  0  0
 33 71  1  0  0  0
 33 72  1  0  0  0
 34 73  1  0  0  0
 34 74  1  0  0  0
 34 75  1  0  0  0
M  CHG  4   1   1  10   1  21   1  35  -1
M  END
> <s_m_source_file>
../3c8a_ligand.sdf

> <i_m_source_file_index>
1

> <s_epik_input>
W0hdL049QyhbTkgyXSlcW05IXVtDSDJdW0NIMl1bQ0gyXVtDQEhdKFtOSDMrXSlDKD1PKVtOSF1bQ0BASF0oW0NIMl1bQ0gyXVtDSDJdW05IXS9DKD1OXFtIXSlbTkgyXSlDKD1PKVtOSF1bQ0gyXUMoPU8pW05IXVtDQEhdKEMoPU8pW09IXSlbQ0gyXVtDSF0oW0NIM10pW0NIM10=

> <s_epik_cmdline>
J2VwaWtfYXBwJywgJy1pbWFlJywgJ2xpZ2FuZF9wcm8ubWFlJywgJy1vbWFlJywgJ2xpZ2FuZF9wcmVwLm1hZScsICctbXMnLCAnMScsICctcGgnLCAnNycsICctcGh0JywgJzAuNScsICctbnQn

> <r_epik_Ionization_Penalty>
  0.1369

> <r_epik_Ionization_Penalty_Charging>
  0.1369

> <r_epik_Ionization_Penalty_Neutral>
  0.0000

> <r_epik_State_Penalty>
  0.1260

> <r_epik_Charging_Adjusted_Penalty>
0.262874747011791

> <i_epik_Tot_Q>
2

> <i_epik_Tot_abs_Q>
4

> <s_epik_Chemistry_Notes>
This compound has an imine and may undergo hydrolysis.

$$$$
