3c94_ligand
                    3D
 Schrodinger Suite 2020-3.
 68 69  0  0  1  0            999 V2000
   25.9030   21.7210    3.9890 N   0  3  0  0  0  0
   24.6680   22.4480    3.5810 C   0  0  2  0  0  0
   24.1720   23.4250    4.6430 C   0  0  0  0  0  0
   24.0550   23.0700    5.8210 O   0  0  0  0  0  0
   23.5570   21.4700    3.1990 C   0  0  0  0  0  0
   23.4930   21.2240    1.7030 C   0  0  0  0  0  0
   24.4760   21.5430    0.9970 O   0  5  0  0  0  0
   22.4570   20.7200    1.2220 O   0  0  0  0  0  0
   23.8830   24.6540    4.2120 N   0  0  0  0  0  0
   23.4670   25.7260    5.1140 C   0  0  2  0  0  0
   22.3060   26.5340    4.5410 C   0  0  0  0  0  0
   22.2150   26.7250    3.3300 O   0  0  0  0  0  0
   24.6400   26.6850    5.4750 C   0  0  2  0  0  0
   25.5140   26.9610    4.2450 C   0  0  0  0  0  0
   25.4750   26.1030    6.6270 C   0  0  0  0  0  0
   26.0870   28.3750    4.1850 C   0  0  0  0  0  0
   21.4130   27.0130    5.4180 N   0  0  0  0  0  0
   20.2350   27.7430    5.0040 C   0  0  2  0  0  0
   20.4590   29.2340    4.7380 C   0  0  0  0  0  0
   19.6410   29.8510    4.0590 O   0  0  0  0  0  0
   19.2850   27.5680    6.1940 C   0  0  0  0  0  0
   20.0350   26.7350    7.2140 C   0  0  0  0  0  0
   21.4510   26.8430    6.8770 C   0  0  0  0  0  0
   21.5410   29.8180    5.2600 N   0  0  0  0  0  0
   21.7540   31.2780    5.1250 C   0  0  2  0  0  0
   23.2010   31.7240    5.4080 C   0  0  0  0  0  0
   23.9860   30.9830    5.9870 O   0  0  0  0  0  0
   20.7860   32.0540    6.0380 C   0  0  0  0  0  0
   20.9720   31.7530    7.5010 C   0  0  0  0  0  0
   22.0750   32.2350    8.1870 C   0  0  0  0  0  0
   20.0620   30.9640    8.1790 C   0  0  0  0  0  0
   22.2540   31.9470    9.5000 C   0  0  0  0  0  0
   20.2370   30.6890    9.4940 C   0  0  0  0  0  0
   21.3400   31.1790   10.1570 C   0  0  0  0  0  0
   23.5710   32.8890    5.1960 O   0  5  0  0  0  0
   26.6841   22.4473    4.2579 H   0  0  0  0  0  0
   26.2542   21.0973    3.1537 H   0  0  0  0  0  0
   25.6824   21.0817    4.8565 H   0  0  0  0  0  0
   24.9687   23.0364    2.7016 H   0  0  0  0  0  0
   23.7323   20.5040    3.6951 H   0  0  0  0  0  0
   22.5857   21.8754    3.5187 H   0  0  0  0  0  0
   23.9678   24.8457    3.1322 H   0  0  0  0  0  0
   23.1261   25.1724    6.0013 H   0  0  0  0  0  0
   24.2312   27.6498    5.8098 H   0  0  0  0  0  0
   26.3679   26.2676    4.2389 H   0  0  0  0  0  0
   24.9180   26.8167    3.3318 H   0  0  0  0  0  0
   24.8238   25.9155    7.4935 H   0  0  0  0  0  0
   26.2617   26.8188    6.9076 H   0  0  0  0  0  0
   25.9369   25.1583    6.3042 H   0  0  0  0  0  0
   26.6971   28.4851    3.2764 H   0  0  0  0  0  0
   26.7133   28.5547    5.0713 H   0  0  0  0  0  0
   25.2633   29.1038    4.1642 H   0  0  0  0  0  0
   19.9098   27.3214    4.0414 H   0  0  0  0  0  0
   19.0245   28.5552    6.6035 H   0  0  0  0  0  0
   18.3701   27.0563    5.8607 H   0  0  0  0  0  0
   19.8400   27.1277    8.2228 H   0  0  0  0  0  0
   19.6956   25.6903    7.1553 H   0  0  0  0  0  0
   22.0212   25.9358    7.1257 H   0  0  0  0  0  0
   21.9353   27.7177    7.3356 H   0  0  0  0  0  0
   22.2785   29.2017    5.7951 H   0  0  0  0  0  0
   21.5417   31.4680    4.0625 H   0  0  0  0  0  0
   20.9399   33.1346    5.9013 H   0  0  0  0  0  0
   19.7491   31.7954    5.7771 H   0  0  0  0  0  0
   22.8067   32.8523    7.6658 H   0  0  0  0  0  0
   19.1975   30.5602    7.6520 H   0  0  0  0  0  0
   23.1272   32.3291   10.0288 H   0  0  0  0  0  0
   19.5058   30.0808   10.0264 H   0  0  0  0  0  0
   21.4828   30.9512   11.2133 H   0  0  0  0  0  0
  1  2  1  0  0  0
  1 36  1  0  0  0
  1 37  1  0  0  0
  1 38  1  0  0  0
  2  3  1  0  0  0
  2  5  1  0  0  0
  2 39  1  0  0  0
  3  4  2  0  0  0
  3  9  1  0  0  0
  5  6  1  0  0  0
  5 40  1  0  0  0
  5 41  1  0  0  0
  6  7  1  0  0  0
  6  8  2  0  0  0
  9 10  1  0  0  0
  9 42  1  0  0  0
 10 11  1  0  0  0
 10 13  1  0  0  0
 10 43  1  0  0  0
 11 12  2  0  0  0
 11 17  1  0  0  0
 13 14  1  0  0  0
 13 15  1  0  0  0
 13 44  1  0  0  0
 14 16  1  0  0  0
 14 45  1  0  0  0
 14 46  1  0  0  0
 15 47  1  0  0  0
 15 48  1  0  0  0
 15 49  1  0  0  0
 16 50  1  0  0  0
 16 51  1  0  0  0
 16 52  1  0  0  0
 17 18  1  0  0  0
 17 23  1  0  0  0
 18 19  1  0  0  0
 18 21  1  0  0  0
 18 53  1  0  0  0
 19 20  2  0  0  0
 19 24  1  0  0  0
 21 22  1  0  0  0
 21 54  1  0  0  0
 21 55  1  0  0  0
 22 23  1  0  0  0
 22 56  1  0  0  0
 22 57  1  0  0  0
 23 58  1  0  0  0
 23 59  1  0  0  0
 24 25  1  0  0  0
 24 60  1  0  0  0
 25 26  1  0  0  0
 25 28  1  0  0  0
 25 61  1  0  0  0
 26 27  2  0  0  0
 26 35  1  0  0  0
 28 29  1  0  0  0
 28 62  1  0  0  0
 28 63  1  0  0  0
 29 30  2  0  0  0
 29 31  1  0  0  0
 30 32  1  0  0  0
 30 64  1  0  0  0
 31 33  2  0  0  0
 31 65  1  0  0  0
 32 34  2  0  0  0
 32 66  1  0  0  0
 33 34  1  0  0  0
 33 67  1  0  0  0
 34 68  1  0  0  0
M  CHG  3   1   1   7  -1  35  -1
M  END
> <s_m_source_file>
../3c94_ligand.sdf

> <i_m_source_file_index>
1

> <s_epik_input>
W09IXUMoPU8pW0NIMl1bQ0BIXShbTkgzK10pQyg9TylbTkhdW0NAQEhdKFtDQEBIXShbQ0gzXSlbQ0gyXVtDSDNdKUMoPU8pTjFbQ0BASF0oW0NIMl1bQ0gyXVtDSDJdMSlDKD1PKVtOSF1bQ0BIXShDKD1PKVtPSF0pW0NIMl1jMltjSF1bY0hdW2NIXVtjSF1bY0hdMg==

> <s_epik_cmdline>
J2VwaWtfYXBwJywgJy1pbWFlJywgJ2xpZ2FuZF9wcm8ubWFlJywgJy1vbWFlJywgJ2xpZ2FuZF9wcmVwLm1hZScsICctbXMnLCAnMScsICctcGgnLCAnNycsICctcGh0JywgJzAuNScsICctbnQn

> <r_epik_Ionization_Penalty>
  0.0218

> <r_epik_Ionization_Penalty_Charging>
  0.0218

> <r_epik_Ionization_Penalty_Neutral>
  0.0000

> <r_epik_State_Penalty>
  0.0155

> <r_epik_Charging_Adjusted_Penalty>
0.0373289402426479

> <i_epik_Tot_Q>
-1

> <i_epik_Tot_abs_Q>
3

$$$$
