3c9e_ligand
                    3D
 Schrodinger Suite 2020-3.
 54 53  0  0  1  0            999 V2000
   19.4910   61.7640   36.8080 C   0  0  0  0  0  0
   20.4630   61.0280   37.0480 O   0  5  0  0  0  0
   18.9600   61.8330   35.6870 O   0  0  0  0  0  0
   18.9190   62.6090   37.9410 C   0  0  0  0  0  0
   18.6530   64.0430   37.3850 C   0  0  2  0  0  0
   19.9040   64.7060   37.1860 O   0  0  0  0  0  0
   17.8330   64.8930   38.3470 C   0  0  0  0  0  0
   16.6480   65.1590   38.1140 O   0  0  0  0  0  0
   18.4740   65.3220   39.4310 N   0  0  0  0  0  0
   17.8340   66.1510   40.4530 C   0  0  1  0  0  0
   18.3490   65.7370   41.8330 C   0  0  0  0  0  0
   17.6990   64.6590   42.6900 C   0  0  0  0  0  0
   18.0930   64.9190   44.1350 C   0  0  0  0  0  0
   16.1560   64.6350   42.5600 C   0  0  0  0  0  0
   18.1220   67.6330   40.2390 C   0  0  0  0  0  0
   19.2260   68.0020   39.8330 O   0  0  0  0  0  0
   17.1190   68.4750   40.5130 N   0  0  0  0  0  0
   17.1770   69.9340   40.3750 C   0  0  0  0  0  0
   16.5770   70.4500   39.0690 C   0  0  0  0  0  0
   16.7970   71.9540   38.9270 C   0  0  0  0  0  0
   15.7690   72.7580   39.7480 C   0  0  0  0  0  0
   14.8190   73.5120   38.9150 N   0  0  0  0  0  0
   13.5950   73.0930   38.5570 C   0  0  0  0  0  0
   13.0400   73.5730   37.4520 N   0  3  0  0  0  0
   12.9250   72.2050   39.2990 N   0  0  0  0  0  0
   17.9803   62.1588   38.2963 H   0  0  0  0  0  0
   19.6422   62.6503   38.7688 H   0  0  0  0  0  0
   18.1398   63.9848   36.4138 H   0  0  0  0  0  0
   20.6606   64.2648   36.5205 H   0  0  0  0  0  0
   19.5283   65.0285   39.5418 H   0  0  0  0  0  0
   16.7540   65.9721   40.3452 H   0  0  0  0  0  0
   19.3803   65.3651   41.7431 H   0  0  0  0  0  0
   18.3301   66.6059   42.5073 H   0  0  0  0  0  0
   18.0703   63.6813   42.3492 H   0  0  0  0  0  0
   19.1897   64.9345   44.2189 H   0  0  0  0  0  0
   17.6876   64.1213   44.7748 H   0  0  0  0  0  0
   17.6868   65.8893   44.4569 H   0  0  0  0  0  0
   15.8792   64.4465   41.5122 H   0  0  0  0  0  0
   15.7461   65.6047   42.8788 H   0  0  0  0  0  0
   15.7468   63.8368   43.1967 H   0  0  0  0  0  0
   16.1961   67.9923   40.8670 H   0  0  0  0  0  0
   16.6199   70.4027   41.1996 H   0  0  0  0  0  0
   18.2259   70.2639   40.4070 H   0  0  0  0  0  0
   17.0550   69.9404   38.2194 H   0  0  0  0  0  0
   15.4959   70.2475   39.0569 H   0  0  0  0  0  0
   17.8049   72.2124   39.2839 H   0  0  0  0  0  0
   16.6977   72.2409   37.8697 H   0  0  0  0  0  0
   15.1843   72.0709   40.3773 H   0  0  0  0  0  0
   16.2957   73.4820   40.3871 H   0  0  0  0  0  0
   15.0923   74.5062   38.5317 H   0  0  0  0  0  0
   13.5843   74.3038   36.8359 H   0  0  0  0  0  0
   13.3780   71.8020   40.2168 H   0  0  0  0  0  0
   11.9209   71.8775   38.9916 H   0  0  0  0  0  0
   12.0354   73.2402   37.1518 H   0  0  0  0  0  0
  1  2  1  0  0  0
  1  3  2  0  0  0
  1  4  1  0  0  0
  4  5  1  0  0  0
  4 26  1  0  0  0
  4 27  1  0  0  0
  5  6  1  0  0  0
  5  7  1  0  0  0
  5 28  1  0  0  0
  6 29  1  0  0  0
  7  8  2  0  0  0
  7  9  1  0  0  0
  9 10  1  0  0  0
  9 30  1  0  0  0
 10 11  1  0  0  0
 10 15  1  0  0  0
 10 31  1  0  0  0
 11 12  1  0  0  0
 11 32  1  0  0  0
 11 33  1  0  0  0
 12 13  1  0  0  0
 12 14  1  0  0  0
 12 34  1  0  0  0
 13 35  1  0  0  0
 13 36  1  0  0  0
 13 37  1  0  0  0
 14 38  1  0  0  0
 14 39  1  0  0  0
 14 40  1  0  0  0
 15 16  2  0  0  0
 15 17  1  0  0  0
 17 18  1  0  0  0
 17 41  1  0  0  0
 18 19  1  0  0  0
 18 42  1  0  0  0
 18 43  1  0  0  0
 19 20  1  0  0  0
 19 44  1  0  0  0
 19 45  1  0  0  0
 20 21  1  0  0  0
 20 46  1  0  0  0
 20 47  1  0  0  0
 21 22  1  0  0  0
 21 48  1  0  0  0
 21 49  1  0  0  0
 22 23  1  0  0  0
 22 50  1  0  0  0
 23 24  2  0  0  0
 23 25  1  0  0  0
 24 51  1  0  0  0
 24 54  1  0  0  0
 25 52  1  0  0  0
 25 53  1  0  0  0
M  CHG  2   2  -1  24   1
M  END
> <s_m_source_file>
../3c9e_ligand.sdf

> <i_m_source_file_index>
1

> <s_epik_input>
W09IXUMoPU8pW0NIMl1bQ0BIXShbT0hdKUMoPU8pW05IXVtDQEBIXShbQ0gyXVtDSF0oW0NIM10pW0NIM10pQyg9TylbTkhdW0NIMl1bQ0gyXVtDSDJdW0NIMl1bTkhdL0MoPU5cW0hdKVtOSDJd

> <s_epik_cmdline>
J2VwaWtfYXBwJywgJy1pbWFlJywgJ2xpZ2FuZF9wcm8ubWFlJywgJy1vbWFlJywgJ2xpZ2FuZF9wcmVwLm1hZScsICctbXMnLCAnMScsICctcGgnLCAnNycsICctcGh0JywgJzAuNScsICctbnQn

> <r_lp_tautomer_probability>
1

> <r_epik_Ionization_Penalty>
  0.0056

> <r_epik_Ionization_Penalty_Charging>
  0.0056

> <r_epik_Ionization_Penalty_Neutral>
  0.0000

> <r_epik_State_Penalty>
 -0.0000

> <r_epik_Charging_Adjusted_Penalty>
0.00564749306387142

> <i_epik_Tot_Q>
0

> <i_epik_Tot_abs_Q>
2

> <s_epik_Chemistry_Notes>
This compound has an imine and may undergo hydrolysis.

$$$$
