3caj_ligand
                    3D
 Schrodinger Suite 2020-3.
 26 27  0  0  1  0            999 V2000
   -5.3570   -0.5580   16.0760 N   0  0  0  0  0  0
   -3.5510    3.4390   14.9780 C   0  0  0  0  0  0
   -4.6910    4.1610   14.5200 C   0  0  0  0  0  0
   -4.5660    5.3430   13.7710 C   0  0  0  0  0  0
   -3.2650    5.8280   13.4740 C   0  0  0  0  0  0
   -1.8090    7.4990   12.4390 C   0  0  0  0  0  0
   -7.3040    0.9430   16.4270 O   0  0  0  0  0  0
   -5.4030    0.9430   18.0340 O   0  0  0  0  0  0
   -5.8870    0.8190   16.6830 S   0  0  0  0  0  0
   -5.1120    2.1620   15.7970 C   0  0  0  0  0  0
   -3.8230    2.2930   15.7120 N   0  0  0  0  0  0
   -6.1160    3.3460   15.0350 S   0  0  0  0  0  0
   -2.1220    5.1150   13.9220 C   0  0  0  0  0  0
   -2.2360    3.9300   14.6720 C   0  0  0  0  0  0
   -3.1410    7.0010   12.7400 O   0  0  0  0  0  0
   -1.6430    8.8020   13.1270 C   0  0  0  0  0  0
   -5.8244   -1.3983   16.6103 H   0  0  0  0  0  0
   -4.2644   -0.6128   16.1907 H   0  0  0  0  0  0
   -5.4506    5.8774   13.4246 H   0  0  0  0  0  0
   -1.0586    6.7799   12.7994 H   0  0  0  0  0  0
   -1.7022    7.6264   11.3516 H   0  0  0  0  0  0
   -1.1300    5.4956   13.6785 H   0  0  0  0  0  0
   -1.3481    3.3974   15.0126 H   0  0  0  0  0  0
   -0.6407    9.2030   12.9159 H   0  0  0  0  0  0
   -1.7608    8.6615   14.2116 H   0  0  0  0  0  0
   -2.4044    9.5080   12.7639 H   0  0  0  0  0  0
  1  9  1  0  0  0
  1 17  1  0  0  0
  1 18  1  0  0  0
  2  3  2  0  0  0
  2 11  1  0  0  0
  2 14  1  0  0  0
  3  4  1  0  0  0
  3 12  1  0  0  0
  4  5  2  0  0  0
  4 19  1  0  0  0
  5 13  1  0  0  0
  5 15  1  0  0  0
  6 15  1  0  0  0
  6 16  1  0  0  0
  6 20  1  0  0  0
  6 21  1  0  0  0
  7  9  2  0  0  0
  8  9  2  0  0  0
  9 10  1  0  0  0
 10 11  2  0  0  0
 10 12  1  0  0  0
 13 14  2  0  0  0
 13 22  1  0  0  0
 14 23  1  0  0  0
 16 24  1  0  0  0
 16 25  1  0  0  0
 16 26  1  0  0  0
M  END
> <s_m_source_file>
../3caj_ligand.sdf

> <i_m_source_file_index>
1

> <s_epik_input>
W05IMl1TKD1PKSg9TyljKG4xKXNjKGMxMilbY0hdYyhbY0hdW2NIXTIpT1tDSDJdW0NIM10=

> <s_epik_cmdline>
J2VwaWtfYXBwJywgJy1pbWFlJywgJ2xpZ2FuZF9wcm8ubWFlJywgJy1vbWFlJywgJ2xpZ2FuZF9wcmVwLm1hZScsICctbXMnLCAnMScsICctcGgnLCAnNycsICctcGh0JywgJzAuNScsICctbnQn

> <r_epik_Ionization_Penalty>
  0.0198

> <r_epik_Ionization_Penalty_Charging>
  0.0000

> <r_epik_Ionization_Penalty_Neutral>
  0.0198

> <r_epik_State_Penalty>
  0.0158

> <r_epik_Charging_Adjusted_Penalty>
0.0158177740285826

> <i_epik_Tot_Q>
0

> <i_epik_Tot_abs_Q>
0

$$$$
