3cbp_ligand
                    3D
 Schrodinger Suite 2020-3.
 51 53  0  0  1  0            999 V2000
   12.3570    3.3160   10.4580 N   0  3  0  0  0  0
   12.9460    3.9590   11.6420 C   0  0  2  0  0  0
   12.7940    5.4900   11.6720 C   0  0  0  0  0  0
   12.1760    6.0380   10.7230 O   0  5  0  0  0  0
   13.2370    6.1120   12.6700 O   0  0  0  0  0  0
   14.3940    3.4480   11.9670 C   0  0  0  0  0  0
   14.2410    1.9850   12.5030 C   0  0  0  0  0  0
   13.8640    1.9000   14.0030 C   0  0  2  0  0  0
   15.0370    1.5680   14.8780 N   0  3  0  0  0  0
   12.9270    0.6890   14.1460 C   0  0  0  0  0  0
   11.4730    1.0390   13.7060 C   0  0  1  0  0  0
   11.3750    1.0900   12.2760 O   0  0  0  0  0  0
   10.3500    0.0840   14.1560 C   0  0  1  0  0  0
    9.8220    0.5000   15.4040 O   0  0  0  0  0  0
    9.3920    0.1270   12.9660 C   0  0  1  0  0  0
    8.4770    1.2400   13.0310 O   0  0  0  0  0  0
   10.3000    0.3080   11.7410 C   0  0  2  0  0  0
   10.8740   -0.8740   11.0440 N   0  0  0  0  0  0
   12.1130   -1.4550   11.0400 C   0  0  0  0  0  0
   12.2850   -2.5030   10.2220 N   0  0  0  0  0  0
   11.0340   -2.6530    9.6380 C   0  0  0  0  0  0
   10.4370   -3.5210    8.7010 C   0  0  0  0  0  0
   11.1860   -4.5100    8.1500 N   0  0  0  0  0  0
    9.1000   -3.3890    8.3390 N   0  0  0  0  0  0
    8.3070   -2.3970    8.8650 C   0  0  0  0  0  0
    8.8290   -1.5060    9.7690 N   0  0  0  0  0  0
   10.1560   -1.6470   10.1450 C   0  0  0  0  0  0
   11.3472    3.7174   10.2870 H   0  0  0  0  0  0
   12.2970    2.2300   10.6223 H   0  0  0  0  0  0
   12.9862    3.5196    9.5790 H   0  0  0  0  0  0
   12.2714    3.5993   12.4329 H   0  0  0  0  0  0
   15.0042    3.4691   11.0520 H   0  0  0  0  0  0
   14.8505    4.0989   12.7272 H   0  0  0  0  0  0
   13.4496    1.4690   11.9396 H   0  0  0  0  0  0
   15.1919    1.4467   12.3762 H   0  0  0  0  0  0
   13.4562    2.8700   14.3237 H   0  0  0  0  0  0
   15.7685    2.3886   14.8375 H   0  0  0  0  0  0
   15.5078    0.6393   14.5233 H   0  0  0  0  0  0
   14.6946    1.4328   15.9146 H   0  0  0  0  0  0
   13.2935   -0.1346   13.5156 H   0  0  0  0  0  0
   12.9049    0.3645   15.1968 H   0  0  0  0  0  0
   11.2880    2.0349   14.1349 H   0  0  0  0  0  0
   10.6142   -0.9450   14.4413 H   0  0  0  0  0  0
   10.4592    0.4931   16.3006 H   0  0  0  0  0  0
    8.7264   -0.7485   12.9450 H   0  0  0  0  0  0
    7.7377    1.2975   13.8435 H   0  0  0  0  0  0
    9.7260    0.7580   10.9176 H   0  0  0  0  0  0
   12.9205   -1.0838   11.6711 H   0  0  0  0  0  0
   12.2437   -4.6206    8.4313 H   0  0  0  0  0  0
   10.7353   -5.2008    7.4222 H   0  0  0  0  0  0
    7.2624   -2.3179    8.5638 H   0  0  0  0  0  0
  1  2  1  0  0  0
  1 28  1  0  0  0
  1 29  1  0  0  0
  1 30  1  0  0  0
  2  3  1  0  0  0
  2  6  1  0  0  0
  2 31  1  0  0  0
  3  4  1  0  0  0
  3  5  2  0  0  0
  6  7  1  0  0  0
  6 32  1  0  0  0
  6 33  1  0  0  0
  7  8  1  0  0  0
  7 34  1  0  0  0
  7 35  1  0  0  0
  8  9  1  0  0  0
  8 10  1  0  0  0
  8 36  1  0  0  0
  9 37  1  0  0  0
  9 38  1  0  0  0
  9 39  1  0  0  0
 10 11  1  0  0  0
 10 40  1  0  0  0
 10 41  1  0  0  0
 11 12  1  0  0  0
 11 13  1  0  0  0
 11 42  1  0  0  0
 12 17  1  0  0  0
 13 14  1  0  0  0
 13 15  1  0  0  0
 13 43  1  0  0  0
 14 44  1  0  0  0
 15 16  1  0  0  0
 15 17  1  0  0  0
 15 45  1  0  0  0
 16 46  1  0  0  0
 17 18  1  0  0  0
 17 47  1  0  0  0
 18 19  1  0  0  0
 18 27  1  0  0  0
 19 20  2  0  0  0
 19 48  1  0  0  0
 20 21  1  0  0  0
 21 22  2  0  0  0
 21 27  1  0  0  0
 22 23  1  0  0  0
 22 24  1  0  0  0
 23 49  1  0  0  0
 23 50  1  0  0  0
 24 25  2  0  0  0
 25 26  1  0  0  0
 25 51  1  0  0  0
 26 27  2  0  0  0
M  CHG  3   1   1   4  -1   9   1
M  END
> <s_m_source_file>
../3cbp_ligand.sdf

> <i_m_source_file_index>
1

> <s_epik_input>
W09IXUMoPU8pW0NAQEhdKFtOSDMrXSlbQ0gyXVtDSDJdW0NASF0oW05IMytdKVtDSDJdW0NASF0xT1tDQEhdKFtDQEhdKFtPSF0pW0NAQEhdMVtPSF0pbihbY0hdbjIpYyhjMjMpbltjSF1uYzNbTkgyXQ==

> <s_epik_cmdline>
J2VwaWtfYXBwJywgJy1pbWFlJywgJ2xpZ2FuZF9wcm8ubWFlJywgJy1vbWFlJywgJ2xpZ2FuZF9wcmVwLm1hZScsICctbXMnLCAnMScsICctcGgnLCAnNycsICctcGh0JywgJzAuNScsICctbnQn

> <r_lp_tautomer_probability>
1

> <r_epik_Ionization_Penalty>
  0.0044

> <r_epik_Ionization_Penalty_Charging>
  0.0040

> <r_epik_Ionization_Penalty_Neutral>
  0.0004

> <r_epik_State_Penalty>
 -0.0000

> <r_epik_Charging_Adjusted_Penalty>
0.00403663670421057

> <i_epik_Tot_Q>
1

> <i_epik_Tot_abs_Q>
3

> <s_epik_Chemistry_Notes>
This compound contains an acetal/aminal-like group ( X-CH(R)-Y where X, Y are N, S, or O) that may be acid/base labile, releasing an aldehyde.

$$$$
