3cbs_ligand
                    3D
 Schrodinger Suite 2020-3.
 46 46  0  0  1  0            999 V2000
   15.5890   -7.1790   23.5720 C   0  0  0  0  0  0
   15.4840   -5.8180   23.4830 C   0  0  0  0  0  0
   16.5070   -5.0470   22.9230 C   0  0  0  0  0  0
   17.6720   -5.7000   22.4500 C   0  0  0  0  0  0
   17.7860   -7.1090   22.5390 C   0  0  0  0  0  0
   16.7270   -7.8640   23.1130 C   0  0  0  0  0  0
   18.7790   -4.9130   21.8530 C   0  0  0  0  0  0
   18.6960   -4.0740   20.8240 C   0  0  0  0  0  0
   19.7380   -3.2840   20.2720 C   0  0  0  0  0  0
   19.3800   -2.3710   19.3620 C   0  0  0  0  0  0
   20.2460   -1.5690   18.5690 C   0  0  0  0  0  0
   19.7930   -0.6850   17.6860 C   0  0  0  0  0  0
   20.5770    0.1430   16.8490 C   0  0  0  0  0  0
   19.9240    1.0370   15.9520 C   0  0  0  0  0  0
   20.4470    1.9820   14.9870 C   0  0  0  0  0  0
   22.0680    0.0670   16.9040 C   0  0  0  0  0  0
   21.1720   -3.4860   20.7020 C   0  0  0  0  0  0
   19.0290   -7.8050   22.0300 C   0  0  0  0  0  0
   16.3180   -3.5520   22.8600 C   0  0  0  0  0  0
   14.6070   -7.9540   24.1150 O   0  0  0  0  0  0
   19.9370    2.1350   13.9050 O   0  0  0  0  0  0
   21.5170    2.6500   15.3770 O   0  5  0  0  0  0
   14.2275   -5.1288   24.0044 C   0  0  0  0  0  0
   16.7961   -8.9487   23.1952 H   0  0  0  0  0  0
   19.7457   -5.0784   22.3512 H   0  0  0  0  0  0
   17.7372   -3.9359   20.3029 H   0  0  0  0  0  0
   18.3149   -2.1789   19.1652 H   0  0  0  0  0  0
   21.3290   -1.7019   18.7082 H   0  0  0  0  0  0
   18.7100   -0.5447   17.5542 H   0  0  0  0  0  0
   18.8253    1.0813   15.9223 H   0  0  0  0  0  0
   22.3697   -0.6779   17.6550 H   0  0  0  0  0  0
   22.4754    1.0510   17.1793 H   0  0  0  0  0  0
   22.4567   -0.2280   15.9182 H   0  0  0  0  0  0
   21.2197   -4.2865   21.4549 H   0  0  0  0  0  0
   21.5601   -2.5521   21.1346 H   0  0  0  0  0  0
   21.7803   -3.7665   19.8295 H   0  0  0  0  0  0
   19.7278   -7.0580   21.6253 H   0  0  0  0  0  0
   18.7526   -8.5158   21.2373 H   0  0  0  0  0  0
   19.5104   -8.3472   22.8572 H   0  0  0  0  0  0
   15.3389   -3.2879   23.2862 H   0  0  0  0  0  0
   16.3632   -3.2206   21.8121 H   0  0  0  0  0  0
   17.1140   -3.0572   23.4358 H   0  0  0  0  0  0
   14.7331   -9.0455   24.1666 H   0  0  0  0  0  0
   13.5356   -5.8834   24.4068 H   0  0  0  0  0  0
   13.7394   -4.5853   23.1820 H   0  0  0  0  0  0
   14.5012   -4.4207   24.8004 H   0  0  0  0  0  0
  1 20  1  0  0  0
  1  6  2  0  0  0
  1  2  1  0  0  0
  2  3  2  0  0  0
  2 23  1  0  0  0
  3 19  1  0  0  0
  3  4  1  0  0  0
  4  7  1  0  0  0
  4  5  2  0  0  0
  5 18  1  0  0  0
  5  6  1  0  0  0
  6 24  1  0  0  0
  7  8  2  0  0  0
  7 25  1  0  0  0
  8  9  1  0  0  0
  8 26  1  0  0  0
  9 17  1  0  0  0
  9 10  2  0  0  0
 10 11  1  0  0  0
 10 27  1  0  0  0
 11 12  2  0  0  0
 11 28  1  0  0  0
 12 13  1  0  0  0
 12 29  1  0  0  0
 13 16  1  0  0  0
 13 14  2  0  0  0
 14 15  1  0  0  0
 14 30  1  0  0  0
 15 22  1  0  0  0
 15 21  2  0  0  0
 16 31  1  0  0  0
 16 32  1  0  0  0
 16 33  1  0  0  0
 17 34  1  0  0  0
 17 35  1  0  0  0
 17 36  1  0  0  0
 18 37  1  0  0  0
 18 38  1  0  0  0
 18 39  1  0  0  0
 19 40  1  0  0  0
 19 41  1  0  0  0
 19 42  1  0  0  0
 20 43  1  0  0  0
 23 44  1  0  0  0
 23 45  1  0  0  0
 23 46  1  0  0  0
M  CHG  1  22  -1
M  END
> <s_m_source_file>
../3cbs_ligand.sdf

> <i_m_source_file_index>
1

> <s_epik_input>
W09IXWMxYyhbQ0gzXSljKFtDSDNdKWMoYyhbY0hdMSlbQ0gzXSkvW0NIXT1bQ0hdL0MoW0NIM10pPVtDSF0vW0NIXT1bQ0hdL0MoW0NIM10pPVtDSF0vQyg9TylbT0hd

> <s_epik_cmdline>
J2VwaWtfYXBwJywgJy1pbWFlJywgJ2xpZ2FuZF9wcm8ubWFlJywgJy1vbWFlJywgJ2xpZ2FuZF9wcmVwLm1hZScsICctbXMnLCAnMScsICctcGgnLCAnNycsICctcGh0JywgJzAuNScsICctbnQn

> <r_lp_tautomer_probability>
1

> <r_epik_Ionization_Penalty>
  0.0048

> <r_epik_Ionization_Penalty_Charging>
  0.0048

> <r_epik_Ionization_Penalty_Neutral>
  0.0001

> <r_epik_State_Penalty>
 -0.0000

> <r_epik_Charging_Adjusted_Penalty>
0.00478055130561688

> <i_epik_Tot_Q>
-1

> <i_epik_Tot_abs_Q>
1

$$$$
