3ccb_ligand
                    3D
 Schrodinger Suite 2020-3.
 28 29  0  0  1  0            999 V2000
   41.6190    3.4230   18.0610 N   0  3  0  0  0  0
   44.1900    1.3830   17.1900 C   0  0  0  0  0  0
   44.5140    0.0750   16.8530 C   0  0  0  0  0  0
   43.6580   -0.6500   16.0330 C   0  0  0  0  0  0
   42.4830   -0.0740   15.5460 C   0  0  0  0  0  0
   42.1530    1.2480   15.8900 C   0  0  0  0  0  0
   39.6450    1.3740   15.7200 C   0  0  0  0  0  0
   39.8530    3.4480   13.8320 C   0  0  0  0  0  0
   42.7350    3.4040   17.1180 C   0  0  0  0  0  0
   43.0260    1.9780   16.7160 C   0  0  0  0  0  0
   40.9030    1.8440   15.3360 C   0  0  0  0  0  0
   38.5150    1.9680   15.1550 C   0  0  0  0  0  0
   38.6090    2.9990   14.2260 C   0  0  0  0  0  0
   40.9840    2.8710   14.3780 C   0  0  0  0  0  0
   41.4053    4.4611   18.3553 H   0  0  0  0  0  0
   41.8827    2.8359   18.9531 H   0  0  0  0  0  0
   40.7289    2.9863   17.5845 H   0  0  0  0  0  0
   44.8586    1.9519   17.8361 H   0  0  0  0  0  0
   45.4313   -0.3785   17.2284 H   0  0  0  0  0  0
   43.9060   -1.6777   15.7675 H   0  0  0  0  0  0
   41.8215   -0.6499   14.8988 H   0  0  0  0  0  0
   39.5480    0.5638   16.4427 H   0  0  0  0  0  0
   39.9426    4.2490   13.0982 H   0  0  0  0  0  0
   42.4713    3.9911   16.2259 H   0  0  0  0  0  0
   43.6251    3.8408   17.5944 H   0  0  0  0  0  0
   37.5280    1.6127   15.4512 H   0  0  0  0  0  0
   37.7066    3.4490   13.8122 H   0  0  0  0  0  0
   41.9653    3.2212   14.0577 H   0  0  0  0  0  0
  1  9  1  0  0  0
  1 15  1  0  0  0
  1 16  1  0  0  0
  1 17  1  0  0  0
  2  3  2  0  0  0
  2 10  1  0  0  0
  2 18  1  0  0  0
  3  4  1  0  0  0
  3 19  1  0  0  0
  4  5  2  0  0  0
  4 20  1  0  0  0
  5  6  1  0  0  0
  5 21  1  0  0  0
  6 10  2  0  0  0
  6 11  1  0  0  0
  7 11  2  0  0  0
  7 12  1  0  0  0
  7 22  1  0  0  0
  8 13  1  0  0  0
  8 14  2  0  0  0
  8 23  1  0  0  0
  9 10  1  0  0  0
  9 24  1  0  0  0
  9 25  1  0  0  0
 11 14  1  0  0  0
 12 13  2  0  0  0
 12 26  1  0  0  0
 13 27  1  0  0  0
 14 28  1  0  0  0
M  CHG  1   1   1
M  END
> <s_m_source_file>
../3ccb_ligand.sdf

> <i_m_source_file_index>
1

> <s_epik_input>
W05IMytdW0NIMl1jMVtjSF1bY0hdW2NIXVtjSF1jMS1jMltjSF1bY0hdW2NIXVtjSF1bY0hdMg==

> <s_epik_cmdline>
J2VwaWtfYXBwJywgJy1pbWFlJywgJ2xpZ2FuZF9wcm8ubWFlJywgJy1vbWFlJywgJ2xpZ2FuZF9wcmVwLm1hZScsICctbXMnLCAnMScsICctcGgnLCAnNycsICctcGh0JywgJzAuNScsICctbnQn

> <r_epik_Ionization_Penalty>
  0.0293

> <r_epik_Ionization_Penalty_Charging>
  0.0293

> <r_epik_Ionization_Penalty_Neutral>
  0.0000

> <r_epik_State_Penalty>
  0.0241

> <r_epik_Charging_Adjusted_Penalty>
0.0533288721156103

> <i_epik_Tot_Q>
1

> <i_epik_Tot_abs_Q>
1

$$$$
