3ccc_ligand
                    3D
 Schrodinger Suite 2020-3.
 35 37  0  0  1  0            999 V2000
   -1.0540   -2.6450   20.7050 C   0  0  0  0  0  0
   -0.3400   -3.5850   19.9570 C   0  0  0  0  0  0
    0.7260   -4.2680   20.5310 C   0  0  0  0  0  0
    1.4770   -5.2410   19.7760 C   0  0  0  0  0  0
    1.0700   -4.0240   21.8730 C   0  0  0  0  0  0
    3.4610   -6.6190   23.2090 C   0  0  0  0  0  0
    4.6480   -4.5840   22.7660 C   0  0  0  0  0  0
   -0.6940   -2.3870   22.0520 C   0  0  0  0  0  0
   -1.6740   -0.7930   23.8110 C   0  0  0  0  0  0
   -1.5960   -1.4130   22.4870 N   0  0  0  0  0  0
   -2.4220   -1.1200   21.4430 C   0  0  0  0  0  0
   -2.1140   -1.8440   20.4060 N   0  0  0  0  0  0
    2.0880   -6.0180   19.2040 N   0  0  0  0  0  0
    2.2560   -4.7400   22.3780 C   0  0  0  0  0  0
    2.2570   -6.0630   22.7960 C   0  0  0  0  0  0
    4.6470   -5.8900   23.2010 C   0  0  0  0  0  0
    3.4630   -4.0200   22.3480 C   0  0  0  0  0  0
    3.4820   -2.3680   21.8110 Cl  0  0  0  0  0  0
    0.3800   -3.0860   22.6270 C   0  0  0  0  0  0
    0.7980   -2.8280   24.0540 C   0  0  0  0  0  0
    1.6530   -1.6340   24.0550 N   0  3  0  0  0  0
   -0.6193   -3.7829   18.9221 H   0  0  0  0  0  0
    3.4777   -7.6546   23.5487 H   0  0  0  0  0  0
    5.5717   -4.0055   22.7526 H   0  0  0  0  0  0
   -0.8908   -1.2130   24.4593 H   0  0  0  0  0  0
   -2.6616   -0.9933   24.2521 H   0  0  0  0  0  0
   -1.5282    0.2932   23.7164 H   0  0  0  0  0  0
   -3.2258   -0.3844   21.4723 H   0  0  0  0  0  0
    1.3384   -6.6498   22.8002 H   0  0  0  0  0  0
    5.5741   -6.3530   23.5389 H   0  0  0  0  0  0
   -0.0956   -2.6612   24.6734 H   0  0  0  0  0  0
    1.3522   -3.6977   24.4367 H   0  0  0  0  0  0
    1.9772   -1.4160   25.0833 H   0  0  0  0  0  0
    1.0872   -0.7776   23.6596 H   0  0  0  0  0  0
    2.5350   -1.8141   23.4229 H   0  0  0  0  0  0
  1  2  2  0  0  0
  1  8  1  0  0  0
  1 12  1  0  0  0
  2  3  1  0  0  0
  2 22  1  0  0  0
  3  4  1  0  0  0
  3  5  2  0  0  0
  4 13  3  0  0  0
  5 14  1  0  0  0
  5 19  1  0  0  0
  6 15  2  0  0  0
  6 16  1  0  0  0
  6 23  1  0  0  0
  7 16  2  0  0  0
  7 17  1  0  0  0
  7 24  1  0  0  0
  8 10  1  0  0  0
  8 19  2  0  0  0
  9 10  1  0  0  0
  9 25  1  0  0  0
  9 26  1  0  0  0
  9 27  1  0  0  0
 10 11  1  0  0  0
 11 12  2  0  0  0
 11 28  1  0  0  0
 14 15  1  0  0  0
 14 17  2  0  0  0
 15 29  1  0  0  0
 16 30  1  0  0  0
 17 18  1  0  0  0
 19 20  1  0  0  0
 20 21  1  0  0  0
 20 31  1  0  0  0
 20 32  1  0  0  0
 21 33  1  0  0  0
 21 34  1  0  0  0
 21 35  1  0  0  0
M  CHG  1  21   1
M  END
> <s_m_source_file>
../3ccc_ligand.sdf

> <i_m_source_file_index>
1

> <s_epik_input>
bjFbY0hdbihbQ0gzXSljKGMxMiljKFtDSDJdW05IMytdKWMoYyhbY0hdMilDI04pLWMzW2NIXVtjSF1bY0hdW2NIXWMzQ2w=

> <s_epik_cmdline>
J2VwaWtfYXBwJywgJy1pbWFlJywgJ2xpZ2FuZF9wcm8ubWFlJywgJy1vbWFlJywgJ2xpZ2FuZF9wcmVwLm1hZScsICctbXMnLCAnMScsICctcGgnLCAnNycsICctcGh0JywgJzAuNScsICctbnQn

> <r_epik_Ionization_Penalty>
  0.0443

> <r_epik_Ionization_Penalty_Charging>
  0.0433

> <r_epik_Ionization_Penalty_Neutral>
  0.0010

> <r_epik_State_Penalty>
  0.0366

> <r_epik_Charging_Adjusted_Penalty>
0.0799517493197485

> <i_epik_Tot_Q>
1

> <i_epik_Tot_abs_Q>
1

$$$$
