3cct_ligand
                    3D
 Schrodinger Suite 2020-3.
 76 79  0  0  1  0            999 V2000
   32.8920   -7.2870  -12.0660 N   0  0  0  0  0  0
   33.0760   -6.0490  -12.5300 C   0  0  0  0  0  0
   34.1110   -9.5350  -12.2220 C   0  0  0  0  0  0
   31.7240   -7.6330  -11.2460 C   0  0  0  0  0  0
   32.0380   -7.3870   -9.7740 C   0  0  0  0  0  0
   31.1150   -6.9110   -7.5240 C   0  0  0  0  0  0
   32.9010  -10.3690  -12.6390 C   0  0  0  0  0  0
   30.7320   -3.1220  -13.0870 C   0  0  0  0  0  0
   38.3560   -8.9490  -15.4550 C   0  0  0  0  0  0
   39.5610   -9.1470  -16.1190 C   0  0  0  0  0  0
   32.6290   -3.9970  -11.2620 C   0  0  0  0  0  0
   36.0060   -2.7410  -13.9460 C   0  0  0  0  0  0
   31.9750   -2.7930  -11.0480 C   0  0  0  0  0  0
   37.8090   -7.1590  -16.9770 C   0  0  0  0  0  0
   35.8300   -2.6200  -15.3180 C   0  0  0  0  0  0
   33.3420   -3.2190   -6.7120 O   0  0  0  0  0  0
   32.2940   -3.5660   -6.1270 C   0  0  0  0  0  0
   31.5610   -2.7490   -5.5180 O   0  5  0  0  0  0
   31.9170   -5.0200   -6.1750 C   0  0  0  0  0  0
   31.2690   -5.3980   -7.5090 C   0  0  2  0  0  0
   29.9880   -4.7970   -7.6710 O   0  0  0  0  0  0
   30.7920   -7.4770   -8.8950 C   0  0  2  0  0  0
   30.3900   -8.8290   -8.7220 O   0  0  0  0  0  0
   32.3410   -4.7660  -12.3820 C   0  0  0  0  0  0
   31.0300   -2.3610  -11.9630 C   0  0  0  0  0  0
   30.4070   -1.1990  -11.7500 F   0  0  0  0  0  0
   31.3910   -4.3320  -13.2990 C   0  0  0  0  0  0
   33.9170   -8.0850  -12.4920 C   0  0  0  0  0  0
   34.5000   -9.7380  -10.7640 C   0  0  0  0  0  0
   34.8110   -7.3240  -13.2660 C   0  0  0  0  0  0
   34.3200   -6.0470  -13.2890 C   0  0  0  0  0  0
   34.8630   -4.8510  -13.9820 C   0  0  0  0  0  0
   35.5180   -3.8540  -13.2750 C   0  0  0  0  0  0
   35.1710   -3.6190  -16.0340 C   0  0  0  0  0  0
   34.6740   -4.7300  -15.3560 C   0  0  0  0  0  0
   36.0680   -7.8270  -13.8970 C   0  0  0  0  0  0
   36.8770   -8.4050  -13.1760 O   0  0  0  0  0  0
   36.2350   -7.7300  -15.2130 N   0  0  0  0  0  0
   37.4700   -7.9510  -15.8710 C   0  0  0  0  0  0
   36.9850   -6.2000  -17.4100 O   0  0  0  0  0  0
   39.0180   -7.3580  -17.6510 C   0  0  0  0  0  0
   39.8920   -8.3530  -17.2180 C   0  0  0  0  0  0
   34.9443   -9.8741  -12.8550 H   0  0  0  0  0  0
   30.8683   -7.0099  -11.5453 H   0  0  0  0  0  0
   31.4741   -8.6941  -11.3931 H   0  0  0  0  0  0
   32.7592   -8.1394   -9.4222 H   0  0  0  0  0  0
   32.4688   -6.3820   -9.6539 H   0  0  0  0  0  0
   32.0528   -7.3783   -7.1891 H   0  0  0  0  0  0
   30.2979   -7.2031   -6.8480 H   0  0  0  0  0  0
   32.6717  -10.1784  -13.6978 H   0  0  0  0  0  0
   32.0344  -10.0924  -12.0206 H   0  0  0  0  0  0
   33.1257  -11.4366  -12.4989 H   0  0  0  0  0  0
   29.9853   -2.7738  -13.8006 H   0  0  0  0  0  0
   38.0996   -9.5776  -14.6022 H   0  0  0  0  0  0
   40.2479   -9.9229  -15.7811 H   0  0  0  0  0  0
   33.3746   -4.3423  -10.5458 H   0  0  0  0  0  0
   36.5289   -1.9598  -13.3942 H   0  0  0  0  0  0
   32.2029   -2.1923  -10.1675 H   0  0  0  0  0  0
   36.2087   -1.7400  -15.8379 H   0  0  0  0  0  0
   32.8180   -5.6370   -6.0428 H   0  0  0  0  0  0
   31.2007   -5.2399   -5.3697 H   0  0  0  0  0  0
   31.8470   -5.0058   -8.3588 H   0  0  0  0  0  0
   29.4055   -4.9818   -8.5856 H   0  0  0  0  0  0
   29.9434   -6.9709   -9.3785 H   0  0  0  0  0  0
   30.1079   -9.4350   -9.5956 H   0  0  0  0  0  0
   31.1626   -4.9340  -14.1785 H   0  0  0  0  0  0
   34.6425  -10.8111  -10.5685 H   0  0  0  0  0  0
   33.7020   -9.3497  -10.1141 H   0  0  0  0  0  0
   35.4366   -9.1999  -10.5561 H   0  0  0  0  0  0
   35.6492   -3.9439  -12.1967 H   0  0  0  0  0  0
   35.0460   -3.5315  -17.1133 H   0  0  0  0  0  0
   34.1366   -5.5054  -15.9019 H   0  0  0  0  0  0
   35.3840   -7.4642  -15.8573 H   0  0  0  0  0  0
   36.0282   -6.0239  -16.8967 H   0  0  0  0  0  0
   39.2751   -6.7383  -18.5101 H   0  0  0  0  0  0
   40.8363   -8.5116  -17.7387 H   0  0  0  0  0  0
  1  2  1  0  0  0
  1  4  1  0  0  0
  1 28  1  0  0  0
  2 24  1  0  0  0
  2 31  2  0  0  0
  3  7  1  0  0  0
  3 28  1  0  0  0
  3 29  1  0  0  0
  3 43  1  0  0  0
  4  5  1  0  0  0
  4 44  1  0  0  0
  4 45  1  0  0  0
  5 22  1  0  0  0
  5 46  1  0  0  0
  5 47  1  0  0  0
  6 20  1  0  0  0
  6 22  1  0  0  0
  6 48  1  0  0  0
  6 49  1  0  0  0
  7 50  1  0  0  0
  7 51  1  0  0  0
  7 52  1  0  0  0
  8 25  2  0  0  0
  8 27  1  0  0  0
  8 53  1  0  0  0
  9 10  2  0  0  0
  9 39  1  0  0  0
  9 54  1  0  0  0
 10 42  1  0  0  0
 10 55  1  0  0  0
 11 13  2  0  0  0
 11 24  1  0  0  0
 11 56  1  0  0  0
 12 15  2  0  0  0
 12 33  1  0  0  0
 12 57  1  0  0  0
 13 25  1  0  0  0
 13 58  1  0  0  0
 14 39  2  0  0  0
 14 40  1  0  0  0
 14 41  1  0  0  0
 15 34  1  0  0  0
 15 59  1  0  0  0
 16 17  2  0  0  0
 17 18  1  0  0  0
 17 19  1  0  0  0
 19 20  1  0  0  0
 19 60  1  0  0  0
 19 61  1  0  0  0
 20 21  1  0  0  0
 20 62  1  0  0  0
 21 63  1  0  0  0
 22 23  1  0  0  0
 22 64  1  0  0  0
 23 65  1  0  0  0
 24 27  2  0  0  0
 25 26  1  0  0  0
 27 66  1  0  0  0
 28 30  2  0  0  0
 29 67  1  0  0  0
 29 68  1  0  0  0
 29 69  1  0  0  0
 30 31  1  0  0  0
 30 36  1  0  0  0
 31 32  1  0  0  0
 32 33  2  0  0  0
 32 35  1  0  0  0
 33 70  1  0  0  0
 34 35  2  0  0  0
 34 71  1  0  0  0
 35 72  1  0  0  0
 36 37  2  0  0  0
 36 38  1  0  0  0
 38 39  1  0  0  0
 38 73  1  0  0  0
 40 74  1  0  0  0
 41 42  2  0  0  0
 41 75  1  0  0  0
 42 76  1  0  0  0
M  CHG  1  18  -1
M  END
> <s_m_source_file>
../3cct_ligand.sdf

> <i_m_source_file_index>
1

> <s_epik_input>
Tz1DKFtPSF0pW0NIMl1bQ0BIXShbT0hdKVtDSDJdW0NASF0oW09IXSlbQ0gyXVtDSDJdbjFjKC1jMltjSF1bY0hdYyhGKVtjSF1bY0hdMiljKC1jM1tjSF1bY0hdW2NIXVtjSF1bY0hdMyljKGMxW0NIXShbQ0gzXSlbQ0gzXSlDKD1PKVtOSF1jKGM0W09IXSlbY0hdW2NIXVtjSF1bY0hdNA==

> <s_epik_cmdline>
J2VwaWtfYXBwJywgJy1pbWFlJywgJ2xpZ2FuZF9wcm8ubWFlJywgJy1vbWFlJywgJ2xpZ2FuZF9wcmVwLm1hZScsICctbXMnLCAnMScsICctcGgnLCAnNycsICctcGh0JywgJzAuNScsICctbnQn

> <r_lp_tautomer_probability>
1

> <r_epik_Ionization_Penalty>
  0.0053

> <r_epik_Ionization_Penalty_Charging>
  0.0031

> <r_epik_Ionization_Penalty_Neutral>
  0.0022

> <r_epik_State_Penalty>
 -0.0000

> <r_epik_Charging_Adjusted_Penalty>
0.00306949515068905

> <i_epik_Tot_Q>
-1

> <i_epik_Tot_abs_Q>
1

$$$$
