3ccw_ligand
                    3D
 Schrodinger Suite 2020-3.
 67 69  0  0  1  0            999 V2000
  -14.2130    7.4770   45.5500 N   0  0  0  0  0  0
  -15.7600    8.5480   46.7000 N   0  0  0  0  0  0
  -19.3110    6.9570   48.5760 C   0  0  0  0  0  0
  -14.5490    8.6500   46.1400 C   0  0  0  0  0  0
  -15.3620    5.2000   45.2940 C   0  0  0  0  0  0
  -12.9650    7.2210   44.8150 C   0  0  0  0  0  0
  -13.1670    7.7950   43.4070 C   0  0  0  0  0  0
  -12.5560    7.9950   40.9970 C   0  0  0  0  0  0
  -14.3070    4.3850   46.0420 C   0  0  0  0  0  0
  -11.8250   11.1370   46.9350 C   0  0  0  0  0  0
  -20.6090    4.9650   49.3150 C   0  0  0  0  0  0
  -20.7300    3.7310   49.9480 C   0  0  0  0  0  0
  -14.3100   11.0670   45.6570 C   0  0  0  0  0  0
  -13.5910   12.2590   45.7270 C   0  0  0  0  0  0
  -18.2710    5.0400   49.8760 C   0  0  0  0  0  0
  -18.1900    6.1200   46.0850 O   0  0  0  0  0  0
  -17.4980    6.7430   46.8860 C   0  0  0  0  0  0
  -17.9750    7.1730   48.0490 N   0  0  0  0  0  0
  -19.3870    5.6160   49.2710 C   0  0  0  0  0  0
  -18.3900    3.8070   50.5130 C   0  0  0  0  0  0
  -19.6170    3.1510   50.5480 C   0  0  0  0  0  0
  -16.1990    7.3140   46.4610 C   0  0  0  0  0  0
  -15.2460    6.6210   45.7200 C   0  0  0  0  0  0
  -15.2970    5.0090   43.7820 C   0  0  0  0  0  0
  -13.7730    9.9080   46.2130 C   0  0  0  0  0  0
  -12.3500   12.2960   46.3670 C   0  0  0  0  0  0
  -11.6550   13.4490   46.4290 F   0  0  0  0  0  0
  -12.5420    9.9450   46.8700 C   0  0  0  0  0  0
  -12.0800    7.5030   42.3610 C   0  0  2  0  0  0
  -11.8150    6.1130   42.2140 O   0  0  0  0  0  0
  -12.6680    9.5140   40.8890 C   0  0  1  0  0  0
  -11.4080   10.0990   41.1230 O   0  0  0  0  0  0
  -13.1250    9.8910   39.4840 C   0  0  0  0  0  0
  -13.5930   11.3300   39.4420 C   0  0  0  0  0  0
  -12.8540   12.1870   38.8910 O   0  5  0  0  0  0
  -14.7000   11.5990   39.9710 O   0  0  0  0  0  0
  -19.5533    7.7511   49.2976 H   0  0  0  0  0  0
  -20.0383    6.9770   47.7510 H   0  0  0  0  0  0
  -16.3714    4.8611   45.5700 H   0  0  0  0  0  0
  -12.1289    7.7191   45.3276 H   0  0  0  0  0  0
  -12.7780    6.1377   44.7760 H   0  0  0  0  0  0
  -14.0983    7.3961   42.9786 H   0  0  0  0  0  0
  -13.2298    8.8917   43.4636 H   0  0  0  0  0  0
  -11.8490    7.6657   40.2213 H   0  0  0  0  0  0
  -13.5525    7.5802   40.7848 H   0  0  0  0  0  0
  -14.4040    4.5639   47.1230 H   0  0  0  0  0  0
  -13.3040    4.6896   45.7085 H   0  0  0  0  0  0
  -14.4538    3.3151   45.8327 H   0  0  0  0  0  0
  -10.8541   11.1634   47.4297 H   0  0  0  0  0  0
  -21.4825    5.4225   48.8504 H   0  0  0  0  0  0
  -21.6931    3.2212   49.9734 H   0  0  0  0  0  0
  -15.2852   11.0418   45.1708 H   0  0  0  0  0  0
  -13.9988   13.1659   45.2805 H   0  0  0  0  0  0
  -17.3093    5.5523   49.8507 H   0  0  0  0  0  0
  -17.2396    7.7463   48.6325 H   0  0  0  0  0  0
  -17.5187    3.3541   50.9860 H   0  0  0  0  0  0
  -19.7057    2.1847   51.0445 H   0  0  0  0  0  0
  -15.3889    3.9391   43.5433 H   0  0  0  0  0  0
  -14.3351    5.3874   43.4057 H   0  0  0  0  0  0
  -16.1201    5.5627   43.3068 H   0  0  0  0  0  0
  -12.1425    9.0420   47.3316 H   0  0  0  0  0  0
  -11.1320    7.9456   42.7006 H   0  0  0  0  0  0
  -11.4549    5.5279   43.0730 H   0  0  0  0  0  0
  -13.3349    9.9200   41.6638 H   0  0  0  0  0  0
  -10.9011    9.9460   42.0872 H   0  0  0  0  0  0
  -12.2879    9.7687   38.7810 H   0  0  0  0  0  0
  -13.9565    9.2377   39.1812 H   0  0  0  0  0  0
  1  4  1  0  0  0
  1  6  1  0  0  0
  1 23  1  0  0  0
  2  4  2  0  0  0
  2 22  1  0  0  0
  3 18  1  0  0  0
  3 19  1  0  0  0
  3 37  1  0  0  0
  3 38  1  0  0  0
  4 25  1  0  0  0
  5  9  1  0  0  0
  5 23  1  0  0  0
  5 24  1  0  0  0
  5 39  1  0  0  0
  6  7  1  0  0  0
  6 40  1  0  0  0
  6 41  1  0  0  0
  7 29  1  0  0  0
  7 42  1  0  0  0
  7 43  1  0  0  0
  8 29  1  0  0  0
  8 31  1  0  0  0
  8 44  1  0  0  0
  8 45  1  0  0  0
  9 46  1  0  0  0
  9 47  1  0  0  0
  9 48  1  0  0  0
 10 26  2  0  0  0
 10 28  1  0  0  0
 10 49  1  0  0  0
 11 12  2  0  0  0
 11 19  1  0  0  0
 11 50  1  0  0  0
 12 21  1  0  0  0
 12 51  1  0  0  0
 13 14  2  0  0  0
 13 25  1  0  0  0
 13 52  1  0  0  0
 14 26  1  0  0  0
 14 53  1  0  0  0
 15 19  2  0  0  0
 15 20  1  0  0  0
 15 54  1  0  0  0
 16 17  2  0  0  0
 17 18  1  0  0  0
 17 22  1  0  0  0
 18 55  1  0  0  0
 20 21  2  0  0  0
 20 56  1  0  0  0
 21 57  1  0  0  0
 22 23  2  0  0  0
 24 58  1  0  0  0
 24 59  1  0  0  0
 24 60  1  0  0  0
 25 28  2  0  0  0
 26 27  1  0  0  0
 28 61  1  0  0  0
 29 30  1  0  0  0
 29 62  1  0  0  0
 30 63  1  0  0  0
 31 32  1  0  0  0
 31 33  1  0  0  0
 31 64  1  0  0  0
 32 65  1  0  0  0
 33 34  1  0  0  0
 33 66  1  0  0  0
 33 67  1  0  0  0
 34 35  1  0  0  0
 34 36  2  0  0  0
M  CHG  1  35  -1
M  END
> <s_m_source_file>
../3ccw_ligand.sdf

> <i_m_source_file_index>
1

> <s_epik_input>
W09IXUMoPU8pW0NIMl1bQ0BIXShbT0hdKVtDSDJdW0NASF0oW09IXSlbQ0gyXVtDSDJdbjFjKC1jMltjSF1bY0hdYyhGKVtjSF1bY0hdMiluYyhjMVtDSF0oW0NIM10pW0NIM10pQyg9TylbTkhdW0NIMl1jM1tjSF1bY0hdW2NIXVtjSF1bY0hdMw==

> <s_epik_cmdline>
J2VwaWtfYXBwJywgJy1pbWFlJywgJ2xpZ2FuZF9wcm8ubWFlJywgJy1vbWFlJywgJ2xpZ2FuZF9wcmVwLm1hZScsICctbXMnLCAnMScsICctcGgnLCAnNycsICctcGh0JywgJzAuNScsICctbnQn

> <r_lp_tautomer_probability>
1

> <r_epik_Ionization_Penalty>
  0.0387

> <r_epik_Ionization_Penalty_Charging>
  0.0387

> <r_epik_Ionization_Penalty_Neutral>
  0.0000

> <r_epik_State_Penalty>
  0.0297

> <r_epik_Charging_Adjusted_Penalty>
0.0684007435073552

> <i_epik_Tot_Q>
-1

> <i_epik_Tot_abs_Q>
1

$$$$
