3cd0_ligand
                    3D
 Schrodinger Suite 2020-3.
 67 69  0  0  1  0            999 V2000
  -16.1280    8.7000   46.7900 N   0  0  0  0  0  0
  -14.4560    4.5470   46.1250 C   0  0  0  0  0  0
  -14.9230    8.8700   46.2630 C   0  0  0  0  0  0
  -15.6270    5.3170   45.5060 C   0  0  0  0  0  0
  -13.1780    7.3070   44.8950 C   0  0  0  0  0  0
  -13.2060    8.0730   43.5600 C   0  0  0  0  0  0
  -12.8690    8.0730   41.0680 C   0  0  0  0  0  0
  -15.7680    5.1400   43.9920 C   0  0  0  0  0  0
  -12.0780   11.3160   46.7780 C   0  0  0  0  0  0
  -18.8260    5.1000   49.7920 C   0  0  0  0  0  0
  -19.0940    3.8760   50.4150 C   0  0  0  0  0  0
  -14.6660   11.2620   45.7490 C   0  0  0  0  0  0
  -13.9340   12.4470   45.7380 C   0  0  0  0  0  0
  -21.1790    5.4110   49.3880 C   0  0  0  0  0  0
  -20.6970    2.2490   51.1220 F   0  0  0  0  0  0
  -20.4110    3.4230   50.5250 C   0  0  0  0  0  0
  -21.4510    4.1920   50.0100 C   0  0  0  0  0  0
  -19.8740    5.8710   49.2730 C   0  0  0  0  0  0
  -19.6540    7.2060   48.5850 C   0  0  0  0  0  0
  -18.2730    7.3900   48.1680 N   0  0  0  0  0  0
  -17.7930    6.8960   47.0300 C   0  0  0  0  0  0
  -18.4980    6.2750   46.2410 O   0  0  0  0  0  0
  -16.4820    7.4220   46.5630 C   0  0  0  0  0  0
  -15.5140    6.7560   45.8830 N   0  0  0  0  0  0
  -14.4760    7.5920   45.6440 C   0  0  0  0  0  0
  -14.0980   10.1000   46.2500 C   0  0  0  0  0  0
  -12.6430   12.4790   46.2530 C   0  0  0  0  0  0
  -11.9460   13.6340   46.2380 F   0  0  0  0  0  0
  -12.8130   10.1290   46.7880 C   0  0  0  0  0  0
  -12.3110    7.5730   42.4030 C   0  0  2  0  0  0
  -12.2300    6.1510   42.3100 O   0  0  0  0  0  0
  -12.9330    9.5980   40.9680 C   0  0  1  0  0  0
  -11.6480   10.1290   41.2900 O   0  0  0  0  0  0
  -13.3870   10.0030   39.5590 C   0  0  0  0  0  0
  -13.8450   11.4480   39.4660 C   0  0  0  0  0  0
  -13.1210   12.3030   38.9630 O   0  0  0  0  0  0
  -15.0490   11.8200   39.9100 O   0  5  0  0  0  0
  -14.5310    3.4840   45.8521 H   0  0  0  0  0  0
  -14.4888    4.6477   47.2199 H   0  0  0  0  0  0
  -13.5074    4.9564   45.7474 H   0  0  0  0  0  0
  -16.5598    4.9155   45.9287 H   0  0  0  0  0  0
  -13.0877    6.2287   44.6972 H   0  0  0  0  0  0
  -12.3180    7.6433   45.4928 H   0  0  0  0  0  0
  -14.2270    8.0594   43.1508 H   0  0  0  0  0  0
  -12.8921    9.1138   43.7278 H   0  0  0  0  0  0
  -12.2307    7.7151   40.2467 H   0  0  0  0  0  0
  -13.8912    7.6903   40.9314 H   0  0  0  0  0  0
  -15.8484    4.0691   43.7540 H   0  0  0  0  0  0
  -14.8850    5.5620   43.4897 H   0  0  0  0  0  0
  -16.6719    5.6618   43.6445 H   0  0  0  0  0  0
  -11.0648   11.3343   47.1795 H   0  0  0  0  0  0
  -17.7985    5.4546   49.7103 H   0  0  0  0  0  0
  -18.2759    3.2765   50.8141 H   0  0  0  0  0  0
  -15.6856   11.2478   45.3638 H   0  0  0  0  0  0
  -14.3754   13.3534   45.3237 H   0  0  0  0  0  0
  -21.9989    6.0079   48.9885 H   0  0  0  0  0  0
  -22.4797    3.8411   50.0928 H   0  0  0  0  0  0
  -20.2913    7.2669   47.6905 H   0  0  0  0  0  0
  -19.9131    8.0217   49.2760 H   0  0  0  0  0  0
  -17.5775    7.9578   48.8036 H   0  0  0  0  0  0
  -12.3814    9.2246   47.2168 H   0  0  0  0  0  0
  -11.2779    7.8908   42.6071 H   0  0  0  0  0  0
  -11.8524    5.5648   43.1608 H   0  0  0  0  0  0
  -13.6088   10.0428   41.7133 H   0  0  0  0  0  0
  -11.1961    9.9189   42.2706 H   0  0  0  0  0  0
  -12.5526    9.8746   38.8539 H   0  0  0  0  0  0
  -14.2302    9.3683   39.2488 H   0  0  0  0  0  0
  1  3  1  0  0  0
  1 23  2  0  0  0
  2  4  1  0  0  0
  2 38  1  0  0  0
  2 39  1  0  0  0
  2 40  1  0  0  0
  3 25  2  0  0  0
  3 26  1  0  0  0
  4  8  1  0  0  0
  4 24  1  0  0  0
  4 41  1  0  0  0
  5  6  1  0  0  0
  5 25  1  0  0  0
  5 42  1  0  0  0
  5 43  1  0  0  0
  6 30  1  0  0  0
  6 44  1  0  0  0
  6 45  1  0  0  0
  7 30  1  0  0  0
  7 32  1  0  0  0
  7 46  1  0  0  0
  7 47  1  0  0  0
  8 48  1  0  0  0
  8 49  1  0  0  0
  8 50  1  0  0  0
  9 27  2  0  0  0
  9 29  1  0  0  0
  9 51  1  0  0  0
 10 11  2  0  0  0
 10 18  1  0  0  0
 10 52  1  0  0  0
 11 16  1  0  0  0
 11 53  1  0  0  0
 12 13  2  0  0  0
 12 26  1  0  0  0
 12 54  1  0  0  0
 13 27  1  0  0  0
 13 55  1  0  0  0
 14 17  1  0  0  0
 14 18  2  0  0  0
 14 56  1  0  0  0
 15 16  1  0  0  0
 16 17  2  0  0  0
 17 57  1  0  0  0
 18 19  1  0  0  0
 19 20  1  0  0  0
 19 58  1  0  0  0
 19 59  1  0  0  0
 20 21  1  0  0  0
 20 60  1  0  0  0
 21 22  2  0  0  0
 21 23  1  0  0  0
 23 24  1  0  0  0
 24 25  1  0  0  0
 26 29  2  0  0  0
 27 28  1  0  0  0
 29 61  1  0  0  0
 30 31  1  0  0  0
 30 62  1  0  0  0
 31 63  1  0  0  0
 32 33  1  0  0  0
 32 34  1  0  0  0
 32 64  1  0  0  0
 33 65  1  0  0  0
 34 35  1  0  0  0
 34 66  1  0  0  0
 34 67  1  0  0  0
 35 36  2  0  0  0
 35 37  1  0  0  0
M  CHG  1  37  -1
M  END
> <s_m_source_file>
../3cd0_ligand.sdf

> <i_m_source_file_index>
1

> <s_epik_input>
RmMxW2NIXVtjSF1jKFtjSF1bY0hdMSlbQ0gyXVtOSF1DKD1PKWMobmMyLWMzW2NIXVtjSF1jKEYpW2NIXVtjSF0zKW4oW0NIXShbQ0gzXSlbQ0gzXSljMltDSDJdW0NIMl1bQ0BASF0oW09IXSlbQ0gyXVtDQEBIXShbT0hdKVtDSDJdQyg9TylbT0hd

> <s_epik_cmdline>
J2VwaWtfYXBwJywgJy1pbWFlJywgJ2xpZ2FuZF9wcm8ubWFlJywgJy1vbWFlJywgJ2xpZ2FuZF9wcmVwLm1hZScsICctbXMnLCAnMScsICctcGgnLCAnNycsICctcGh0JywgJzAuNScsICctbnQn

> <r_lp_tautomer_probability>
1

> <r_epik_Ionization_Penalty>
  0.0382

> <r_epik_Ionization_Penalty_Charging>
  0.0382

> <r_epik_Ionization_Penalty_Neutral>
  0.0000

> <r_epik_State_Penalty>
  0.0292

> <r_epik_Charging_Adjusted_Penalty>
0.0673971511539298

> <i_epik_Tot_Q>
-1

> <i_epik_Tot_abs_Q>
1

$$$$
