3cd5_ligand
                    3D
 Schrodinger Suite 2020-3.
 75 78  0  0  1  0            999 V2000
   14.1290    6.7820   45.3590 N   0  0  0  0  0  0
   13.8900    3.2290   46.7850 C   0  0  0  0  0  0
   14.3900    5.5980   45.9650 C   0  0  0  0  0  0
   15.2240    9.0900   45.1170 C   0  0  0  0  0  0
   12.9440    7.0450   44.5330 C   0  0  0  0  0  0
   13.2580    6.5620   43.1140 C   0  0  0  0  0  0
   12.5090    6.3030   40.7300 C   0  0  0  0  0  0
   16.0580    9.2280   43.8610 C   0  0  0  0  0  0
   22.6390    9.8600   51.5330 C   0  0  0  0  0  0
   19.8810    8.0990   48.4850 C   0  0  0  0  0  0
   20.8860    8.8230   49.1320 C   0  0  0  0  0  0
   23.5920   11.9810   52.1980 C   0  0  0  0  0  0
   21.6210   10.5220   50.8440 C   0  0  0  0  0  0
   22.5730   12.6470   51.5220 C   0  0  0  0  0  0
   18.2230    9.1940   49.8380 C   0  0  0  0  0  0
   18.0330    8.1570   46.1220 O   0  0  0  0  0  0
   17.3130    7.5790   46.9200 C   0  0  0  0  0  0
   17.5250    7.5920   48.2400 N   0  0  0  0  0  0
   18.5400    8.2820   48.8320 C   0  0  0  0  0  0
   19.2270    9.9190   50.4810 C   0  0  0  0  0  0
   20.5640    9.7420   50.1310 C   0  0  0  0  0  0
   21.5900   11.9170   50.8490 C   0  0  0  0  0  0
   23.6230   10.5870   52.2040 C   0  0  0  0  0  0
   16.0400    6.9930   46.4020 C   0  0  0  0  0  0
   15.1250    7.6550   45.5970 C   0  0  0  0  0  0
   13.4750    4.3890   45.8840 C   0  0  0  0  0  0
   15.2480    2.6960   46.4000 C   0  0  0  0  0  0
   16.3640    3.3450   46.7270 C   0  0  0  0  0  0
   16.3200    4.6530   47.4700 C   0  0  0  0  0  0
   15.6070    5.7020   46.6420 C   0  0  0  0  0  0
   12.1220    6.7900   42.1210 C   0  0  2  0  0  0
   11.8610    8.1820   42.0210 O   0  0  0  0  0  0
   12.6280    4.7900   40.5960 C   0  0  1  0  0  0
   11.3650    4.1980   40.8150 O   0  0  0  0  0  0
   13.0840    4.4350   39.1910 C   0  0  0  0  0  0
   13.6440    3.0340   39.1850 C   0  0  0  0  0  0
   12.9530    2.1020   38.8010 O   0  0  0  0  0  0
   14.8920    2.8200   39.6080 O   0  5  0  0  0  0
   13.9316    3.5725   47.8292 H   0  0  0  0  0  0
   13.1559    2.4147   46.6959 H   0  0  0  0  0  0
   15.6755    9.6855   45.9242 H   0  0  0  0  0  0
   14.2037    9.4516   44.9213 H   0  0  0  0  0  0
   12.0821    6.4987   44.9438 H   0  0  0  0  0  0
   12.7286    8.1237   44.5337 H   0  0  0  0  0  0
   14.1392    7.0976   42.7310 H   0  0  0  0  0  0
   13.4646    5.4817   43.1317 H   0  0  0  0  0  0
   11.7498    6.6280   40.0034 H   0  0  0  0  0  0
   13.4863    6.7248   40.4526 H   0  0  0  0  0  0
   16.0951   10.2853   43.5599 H   0  0  0  0  0  0
   15.6065    8.6325   43.0538 H   0  0  0  0  0  0
   17.0783    8.8664   44.0568 H   0  0  0  0  0  0
   22.6652    8.7704   51.5468 H   0  0  0  0  0  0
   20.1452    7.3862   47.7038 H   0  0  0  0  0  0
   21.9286    8.6686   48.8542 H   0  0  0  0  0  0
   24.3628   12.5474   52.7207 H   0  0  0  0  0  0
   22.5422   13.7366   51.5179 H   0  0  0  0  0  0
   17.1818    9.3419   50.1246 H   0  0  0  0  0  0
   16.8612    7.0250   48.9093 H   0  0  0  0  0  0
   18.9630   10.6300   51.2639 H   0  0  0  0  0  0
   20.7921   12.4417   50.3234 H   0  0  0  0  0  0
   24.4184   10.0635   52.7345 H   0  0  0  0  0  0
   13.4721    4.0561   44.8356 H   0  0  0  0  0  0
   12.4667    4.7281   46.1638 H   0  0  0  0  0  0
   15.3927    1.7024   46.8492 H   0  0  0  0  0  0
   15.3137    2.6164   45.3049 H   0  0  0  0  0  0
   16.9823    2.7072   47.3758 H   0  0  0  0  0  0
   16.9252    3.5925   45.8139 H   0  0  0  0  0  0
   15.7818    4.5173   48.4197 H   0  0  0  0  0  0
   17.3459    4.9928   47.6753 H   0  0  0  0  0  0
   11.2064    6.2988   42.4823 H   0  0  0  0  0  0
   11.5608    8.7508   42.9134 H   0  0  0  0  0  0
   13.3019    4.3781   41.3616 H   0  0  0  0  0  0
   10.8536    4.3339   41.7794 H   0  0  0  0  0  0
   12.2280    4.4914   38.5025 H   0  0  0  0  0  0
   13.8616    5.1428   38.8680 H   0  0  0  0  0  0
  1  3  1  0  0  0
  1  5  1  0  0  0
  1 25  1  0  0  0
  2 26  1  0  0  0
  2 27  1  0  0  0
  2 39  1  0  0  0
  2 40  1  0  0  0
  3 26  1  0  0  0
  3 30  2  0  0  0
  4  8  1  0  0  0
  4 25  1  0  0  0
  4 41  1  0  0  0
  4 42  1  0  0  0
  5  6  1  0  0  0
  5 43  1  0  0  0
  5 44  1  0  0  0
  6 31  1  0  0  0
  6 45  1  0  0  0
  6 46  1  0  0  0
  7 31  1  0  0  0
  7 33  1  0  0  0
  7 47  1  0  0  0
  7 48  1  0  0  0
  8 49  1  0  0  0
  8 50  1  0  0  0
  8 51  1  0  0  0
  9 13  2  0  0  0
  9 23  1  0  0  0
  9 52  1  0  0  0
 10 11  2  0  0  0
 10 19  1  0  0  0
 10 53  1  0  0  0
 11 21  1  0  0  0
 11 54  1  0  0  0
 12 14  1  0  0  0
 12 23  2  0  0  0
 12 55  1  0  0  0
 13 21  1  0  0  0
 13 22  1  0  0  0
 14 22  2  0  0  0
 14 56  1  0  0  0
 15 19  2  0  0  0
 15 20  1  0  0  0
 15 57  1  0  0  0
 16 17  2  0  0  0
 17 18  1  0  0  0
 17 24  1  0  0  0
 18 19  1  0  0  0
 18 58  1  0  0  0
 20 21  2  0  0  0
 20 59  1  0  0  0
 22 60  1  0  0  0
 23 61  1  0  0  0
 24 25  2  0  0  0
 24 30  1  0  0  0
 26 62  1  0  0  0
 26 63  1  0  0  0
 27 28  1  0  0  0
 27 64  1  0  0  0
 27 65  1  0  0  0
 28 29  1  0  0  0
 28 66  1  0  0  0
 28 67  1  0  0  0
 29 30  1  0  0  0
 29 68  1  0  0  0
 29 69  1  0  0  0
 31 32  1  0  0  0
 31 70  1  0  0  0
 32 71  1  0  0  0
 33 34  1  0  0  0
 33 35  1  0  0  0
 33 72  1  0  0  0
 34 73  1  0  0  0
 35 36  1  0  0  0
 35 74  1  0  0  0
 35 75  1  0  0  0
 36 37  2  0  0  0
 36 38  1  0  0  0
M  CHG  1  38  -1
M  END
> <s_m_source_file>
../3cd5_ligand.sdf

> <i_m_source_file_index>
1

> <s_epik_input>
Tz1DKFtPSF0pW0NIMl1bQ0BIXShbT0hdKVtDSDJdW0NASF0oW09IXSlbQ0gyXVtDSDJdbjFjKFtDSDJdW0NIM10pYyhjKGMxMilbQ0gyXVtDSDJdW0NIMl1bQ0gyXVtDSDJdMilDKD1PKVtOSF1jM1tjSF1bY0hdYyhbY0hdW2NIXTMpLWM0W2NIXVtjSF1bY0hdW2NIXVtjSF00

> <s_epik_cmdline>
J2VwaWtfYXBwJywgJy1pbWFlJywgJ2xpZ2FuZF9wcm8ubWFlJywgJy1vbWFlJywgJ2xpZ2FuZF9wcmVwLm1hZScsICctbXMnLCAnMScsICctcGgnLCAnNycsICctcGh0JywgJzAuNScsICctbnQn

> <r_lp_tautomer_probability>
1

> <r_epik_Ionization_Penalty>
  0.0031

> <r_epik_Ionization_Penalty_Charging>
  0.0031

> <r_epik_Ionization_Penalty_Neutral>
  0.0000

> <r_epik_State_Penalty>
 -0.0000

> <r_epik_Charging_Adjusted_Penalty>
0.00306424643737086

> <i_epik_Tot_Q>
-1

> <i_epik_Tot_abs_Q>
1

$$$$
