3cd8_ligand
                    3D
 Schrodinger Suite 2020-3.
 47 51  0  0  1  0            999 V2000
   18.8700   12.9580   57.3230 N   0  0  0  0  0  0
   20.8530   15.6230   56.7120 N   0  0  0  0  0  0
   17.0150   12.3890   58.6630 C   0  0  0  0  0  0
   15.9950   12.7380   59.5520 C   0  0  0  0  0  0
   15.0540   11.7850   59.9360 C   0  0  0  0  0  0
   17.9610   13.3250   58.2470 C   0  0  0  0  0  0
   17.9690   14.6240   58.7590 C   0  0  0  0  0  0
   19.8260   15.0590   57.3540 C   0  0  0  0  0  0
   21.9960   10.7850   56.7020 C   0  0  0  0  0  0
   24.1990   11.0250   57.6610 C   0  0  0  0  0  0
   22.8320    9.2880   58.4090 C   0  0  0  0  0  0
   20.4310    7.8810   58.3500 C   0  0  0  0  0  0
   20.6110    8.9750   57.5050 C   0  0  0  0  0  0
   22.2490    5.9330   60.8780 C   0  0  0  0  0  0
   21.1940    6.3870   60.0150 O   0  0  0  0  0  0
   21.4460    7.4750   59.2200 C   0  0  0  0  0  0
   22.6520    8.1860   59.2510 C   0  0  0  0  0  0
   21.8080    9.6830   57.5350 C   0  0  0  0  0  0
   23.9890    9.9720   58.4400 N   0  3  0  0  0  0
   23.2150   11.4610   56.7690 C   0  0  0  0  0  0
   20.9960   11.1640   55.8430 O   0  0  0  0  0  0
   21.0990   12.5060   55.2520 C   0  0  0  0  0  0
   20.7660   13.6440   55.9900 C   0  0  0  0  0  0
   19.7330   13.7400   56.9100 N   0  0  0  0  0  0
   21.3910   14.8220   55.9320 N   0  0  0  0  0  0
   18.9220   15.5220   58.3060 C   0  0  0  0  0  0
   17.0800   11.0860   58.1580 C   0  0  0  0  0  0
   16.1430   10.1300   58.5470 C   0  0  0  0  0  0
   15.1280   10.4830   59.4370 C   0  0  0  0  0  0
   15.9357   13.7533   59.9441 H   0  0  0  0  0  0
   14.2572   12.0568   60.6284 H   0  0  0  0  0  0
   17.2350   14.9277   59.5054 H   0  0  0  0  0  0
   25.1492   11.5561   57.7171 H   0  0  0  0  0  0
   19.4873    7.3359   58.3318 H   0  0  0  0  0  0
   19.8158    9.2749   56.8225 H   0  0  0  0  0  0
   21.9039    5.0596   61.4508 H   0  0  0  0  0  0
   22.5278    6.7397   61.5719 H   0  0  0  0  0  0
   23.1230    5.6521   60.2721 H   0  0  0  0  0  0
   23.4485    7.8812   59.9298 H   0  0  0  0  0  0
   23.3988   12.3242   56.1293 H   0  0  0  0  0  0
   22.1393   12.6937   54.9477 H   0  0  0  0  0  0
   20.4422   12.5705   54.3720 H   0  0  0  0  0  0
   18.9621   16.5456   58.6785 H   0  0  0  0  0  0
   17.8687   10.8164   57.4556 H   0  0  0  0  0  0
   16.2028    9.1134   58.1585 H   0  0  0  0  0  0
   14.3911    9.7406   59.7435 H   0  0  0  0  0  0
   24.7729    9.6372   59.1353 H   0  0  0  0  0  0
  1  6  2  0  0  0
  1 24  1  0  0  0
  2  8  2  0  0  0
  2 25  1  0  0  0
  3  4  2  0  0  0
  3  6  1  0  0  0
  3 27  1  0  0  0
  4  5  1  0  0  0
  4 30  1  0  0  0
  5 29  2  0  0  0
  5 31  1  0  0  0
  6  7  1  0  0  0
  7 26  2  0  0  0
  7 32  1  0  0  0
  8 24  1  0  0  0
  8 26  1  0  0  0
  9 18  2  0  0  0
  9 20  1  0  0  0
  9 21  1  0  0  0
 10 19  1  0  0  0
 10 20  2  0  0  0
 10 33  1  0  0  0
 11 17  1  0  0  0
 11 18  1  0  0  0
 11 19  2  0  0  0
 12 13  2  0  0  0
 12 16  1  0  0  0
 12 34  1  0  0  0
 13 18  1  0  0  0
 13 35  1  0  0  0
 14 15  1  0  0  0
 14 36  1  0  0  0
 14 37  1  0  0  0
 14 38  1  0  0  0
 15 16  1  0  0  0
 16 17  2  0  0  0
 17 39  1  0  0  0
 19 47  1  0  0  0
 20 40  1  0  0  0
 21 22  1  0  0  0
 22 23  1  0  0  0
 22 41  1  0  0  0
 22 42  1  0  0  0
 23 24  1  0  0  0
 23 25  2  0  0  0
 26 43  1  0  0  0
 27 28  2  0  0  0
 27 44  1  0  0  0
 28 29  1  0  0  0
 28 45  1  0  0  0
 29 46  1  0  0  0
M  CHG  1  19   1
M  END
> <s_m_source_file>
../3cd8_ligand.sdf

> <i_m_source_file_index>
1

> <s_epik_input>
W2NIXTFbY0hdW2NIXVtjSF1bY0hdYzEtYyhbY0hdW2NIXTIpbm4oYzIzKWMobm4zKVtDSDJdT2MoW2NIXVtjSF1uNCljKGM0NSlbY0hdW2NIXWMoW2NIXTUpT1tDSDNd

> <s_epik_cmdline>
J2VwaWtfYXBwJywgJy1pbWFlJywgJ2xpZ2FuZF9wcm8ubWFlJywgJy1vbWFlJywgJ2xpZ2FuZF9wcmVwLm1hZScsICctbXMnLCAnMScsICctcGgnLCAnNycsICctcGh0JywgJzAuNScsICctbnQn

> <r_epik_Ionization_Penalty>
  0.0387

> <r_epik_Ionization_Penalty_Charging>
  0.0387

> <r_epik_Ionization_Penalty_Neutral>
  0.0000

> <r_epik_State_Penalty>
  0.0325

> <r_epik_Charging_Adjusted_Penalty>
0.071206819533429

> <i_epik_Tot_Q>
1

> <i_epik_Tot_abs_Q>
1

$$$$
