3cda_ligand
                    3D
 Schrodinger Suite 2020-3.
 80 83  0  0  1  0            999 V2000
   21.7720   26.0980   14.1560 N   0  0  0  0  0  0
   16.5350   24.4240   17.1810 C   0  0  0  0  0  0
   15.5700   24.0430   18.1180 C   0  0  0  0  0  0
   18.1760   23.7710   15.3620 C   0  0  0  0  0  0
   18.0090   23.5820   14.0030 C   0  0  0  0  0  0
   20.0630   24.3550   14.3530 C   0  0  0  0  0  0
   19.9790   24.5550   16.9480 C   0  0  0  0  0  0
   20.9440   25.3630   19.4560 C   0  0  0  0  0  0
   20.0850   23.6380   17.9850 C   0  0  0  0  0  0
   22.9810   26.6470   13.8430 C   0  0  0  0  0  0
   25.3430   27.9700   13.0700 C   0  0  0  0  0  0
   25.3920   26.6610   13.5650 C   0  0  0  0  0  0
   24.2180   25.9960   13.9440 C   0  0  0  0  0  0
   19.8600   25.2760   11.4240 C   0  0  0  0  0  0
   16.7500   23.1070   13.3180 C   0  0  0  0  0  0
   15.5310   21.1720   12.3300 C   0  0  2  0  0  0
   16.8040   17.6360   16.1000 O   0  0  0  0  0  0
   15.7920   17.3590   15.4610 C   0  0  0  0  0  0
   14.7630   16.7640   16.0510 O   0  5  0  0  0  0
   15.6940   17.7240   14.0070 C   0  0  0  0  0  0
   15.4480   19.2200   13.8960 C   0  0  2  0  0  0
   14.1610   19.5490   14.3790 O   0  0  0  0  0  0
   15.5330   19.6580   12.4450 C   0  0  0  0  0  0
   15.2560   21.5150   10.9810 O   0  0  0  0  0  0
   16.9010   21.7190   12.7340 C   0  0  0  0  0  0
   17.1390   23.4570   16.3900 C   0  0  0  0  0  0
   16.7950   22.1160   16.5500 C   0  0  0  0  0  0
   15.8420   21.7320   17.4870 C   0  0  0  0  0  0
   15.2310   22.7010   18.2730 C   0  0  0  0  0  0
   14.3070   22.3300   19.1750 F   0  0  0  0  0  0
   19.1790   23.9410   13.4110 N   0  0  0  0  0  0
   19.3720   23.9140   11.9200 C   0  0  0  0  0  0
   20.2500   22.7570   11.4730 C   0  0  0  0  0  0
   19.4490   24.2060   15.5950 C   0  0  0  0  0  0
   20.3380   25.8860   17.1850 C   0  0  0  0  0  0
   20.8300   26.2930   18.4260 C   0  0  0  0  0  0
   20.5740   24.0390   19.2300 C   0  0  0  0  0  0
   21.4770   24.7970   14.1410 C   0  0  0  0  0  0
   22.1730   23.9760   13.5700 O   0  0  0  0  0  0
   22.9460   27.9460   13.3380 C   0  0  0  0  0  0
   24.1110   28.6120   12.9670 C   0  0  0  0  0  0
   26.6630   28.7720   12.6430 S   0  0  0  0  0  0
   27.7390   27.8980   12.2940 O   0  0  0  0  0  0
   26.3590   29.6320   11.5290 O   0  0  0  0  0  0
   27.0590   29.6990   13.8850 N   0  0  0  0  0  0
   20.9342   26.7458   14.4534 H   0  0  0  0  0  0
   16.8109   25.4729   17.0726 H   0  0  0  0  0  0
   15.0803   24.8001   18.7305 H   0  0  0  0  0  0
   21.3201   25.6687   20.4323 H   0  0  0  0  0  0
   19.7856   22.6019   17.8269 H   0  0  0  0  0  0
   26.3527   26.1543   13.6564 H   0  0  0  0  0  0
   24.2670   24.9730   14.3171 H   0  0  0  0  0  0
   19.1801   26.0623   11.7837 H   0  0  0  0  0  0
   19.8772   25.2810   10.3241 H   0  0  0  0  0  0
   20.8737   25.4642   11.8074 H   0  0  0  0  0  0
   15.9243   23.0824   14.0444 H   0  0  0  0  0  0
   16.4966   23.7952   12.4981 H   0  0  0  0  0  0
   14.7321   21.6264   12.9344 H   0  0  0  0  0  0
   16.6335   17.4610   13.4988 H   0  0  0  0  0  0
   14.8610   17.1730   13.5460 H   0  0  0  0  0  0
   16.1603   19.7631   14.5345 H   0  0  0  0  0  0
   13.8874   19.3155   15.4185 H   0  0  0  0  0  0
   14.6684   19.2480   11.9025 H   0  0  0  0  0  0
   16.4613   19.2585   12.0108 H   0  0  0  0  0  0
   14.3090   21.2031   10.5163 H   0  0  0  0  0  0
   17.5499   21.7631   11.8469 H   0  0  0  0  0  0
   17.3508   21.0523   13.4845 H   0  0  0  0  0  0
   17.2789   21.3588   15.9331 H   0  0  0  0  0  0
   15.5770   20.6812   17.6036 H   0  0  0  0  0  0
   18.3910   23.7200   11.4617 H   0  0  0  0  0  0
   20.3599   22.7816   10.3788 H   0  0  0  0  0  0
   19.7850   21.8065   11.7735 H   0  0  0  0  0  0
   21.2405   22.8455   11.9431 H   0  0  0  0  0  0
   20.2315   26.6191   16.3854 H   0  0  0  0  0  0
   21.1226   27.3305   18.5876 H   0  0  0  0  0  0
   20.6672   23.3084   20.0335 H   0  0  0  0  0  0
   21.9860   28.4510   13.2313 H   0  0  0  0  0  0
   24.0591   29.6356   12.5960 H   0  0  0  0  0  0
   27.9646   30.2732   13.6399 H   0  0  0  0  0  0
   27.2515   29.0691   14.7660 H   0  0  0  0  0  0
  1 10  1  0  0  0
  1 38  1  0  0  0
  1 46  1  0  0  0
  2  3  2  0  0  0
  2 26  1  0  0  0
  2 47  1  0  0  0
  3 29  1  0  0  0
  3 48  1  0  0  0
  4  5  2  0  0  0
  4 26  1  0  0  0
  4 34  1  0  0  0
  5 15  1  0  0  0
  5 31  1  0  0  0
  6 31  1  0  0  0
  6 34  2  0  0  0
  6 38  1  0  0  0
  7  9  2  0  0  0
  7 34  1  0  0  0
  7 35  1  0  0  0
  8 36  1  0  0  0
  8 37  2  0  0  0
  8 49  1  0  0  0
  9 37  1  0  0  0
  9 50  1  0  0  0
 10 13  2  0  0  0
 10 40  1  0  0  0
 11 12  2  0  0  0
 11 41  1  0  0  0
 11 42  1  0  0  0
 12 13  1  0  0  0
 12 51  1  0  0  0
 13 52  1  0  0  0
 14 32  1  0  0  0
 14 53  1  0  0  0
 14 54  1  0  0  0
 14 55  1  0  0  0
 15 25  1  0  0  0
 15 56  1  0  0  0
 15 57  1  0  0  0
 16 23  1  0  0  0
 16 24  1  0  0  0
 16 25  1  0  0  0
 16 58  1  0  0  0
 17 18  2  0  0  0
 18 19  1  0  0  0
 18 20  1  0  0  0
 20 21  1  0  0  0
 20 59  1  0  0  0
 20 60  1  0  0  0
 21 22  1  0  0  0
 21 23  1  0  0  0
 21 61  1  0  0  0
 22 62  1  0  0  0
 23 63  1  0  0  0
 23 64  1  0  0  0
 24 65  1  0  0  0
 25 66  1  0  0  0
 25 67  1  0  0  0
 26 27  2  0  0  0
 27 28  1  0  0  0
 27 68  1  0  0  0
 28 29  2  0  0  0
 28 69  1  0  0  0
 29 30  1  0  0  0
 31 32  1  0  0  0
 32 33  1  0  0  0
 32 70  1  0  0  0
 33 71  1  0  0  0
 33 72  1  0  0  0
 33 73  1  0  0  0
 35 36  2  0  0  0
 35 74  1  0  0  0
 36 75  1  0  0  0
 37 76  1  0  0  0
 38 39  2  0  0  0
 40 41  2  0  0  0
 40 77  1  0  0  0
 41 78  1  0  0  0
 42 43  2  0  0  0
 42 44  2  0  0  0
 42 45  1  0  0  0
 45 79  1  0  0  0
 45 80  1  0  0  0
M  CHG  1  19  -1
M  END
> <s_m_source_file>
../3cda_ligand.sdf

> <i_m_source_file_index>
1

> <s_epik_input>
W2NIXTFbY0hdYyhTKD1PKSg9TylbTkgyXSlbY0hdW2NIXWMxW05IXUMoPU8pYyhjMi1jM1tjSF1bY0hdW2NIXVtjSF1bY0hdMyluKFtDSF0oW0NIM10pW0NIM10pYyhjMi1jNFtjSF1bY0hdYyhGKVtjSF1bY0hdNClbQ0gyXVtDSDJdW0NAQEhdKFtPSF0pW0NIMl1bQ0BASF0oW09IXSlbQ0gyXUMoPU8pW09IXQ==

> <s_epik_cmdline>
J2VwaWtfYXBwJywgJy1pbWFlJywgJ2xpZ2FuZF9wcm8ubWFlJywgJy1vbWFlJywgJ2xpZ2FuZF9wcmVwLm1hZScsICctbXMnLCAnMScsICctcGgnLCAnNycsICctcGh0JywgJzAuNScsICctbnQn

> <r_lp_tautomer_probability>
1

> <r_epik_Ionization_Penalty>
  0.0037

> <r_epik_Ionization_Penalty_Charging>
  0.0032

> <r_epik_Ionization_Penalty_Neutral>
  0.0006

> <r_epik_State_Penalty>
 -0.0000

> <r_epik_Charging_Adjusted_Penalty>
0.00316919018605213

> <i_epik_Tot_Q>
-1

> <i_epik_Tot_abs_Q>
1

$$$$
