3cde_ligand
                    3D
 Schrodinger Suite 2020-3.
 57 60  0  0  1  0            999 V2000
   97.1910    8.4740   51.0050 C   0  0  0  0  0  0
   96.3130    8.3060   61.2490 C   0  0  0  0  0  0
   98.2970    6.4460   50.7650 C   0  0  0  0  0  0
   95.0690    9.0170   59.2540 C   0  0  0  0  0  0
   95.7890    9.4020   61.9650 C   0  0  0  0  0  0
   96.8340    7.8460   52.1800 C   0  0  0  0  0  0
   95.9190    7.7600   54.6240 C   0  0  0  0  0  0
   94.4130    9.6170   55.1680 C   0  0  0  0  0  0
   90.6100    9.2730   52.2970 C   0  0  0  0  0  0
   93.8660   11.2450   53.3870 C   0  0  0  0  0  0
   92.0860    9.6850   52.2840 C   0  0  0  0  0  0
   95.7360    7.1320   63.9560 O   0  0  0  0  0  0
   96.3040    8.3730   64.4700 S   0  0  0  0  0  0
   95.9180    8.8660   65.7720 O   0  0  0  0  0  0
   98.0750    8.2330   64.5250 C   0  0  0  0  0  0
   96.1250    9.6520   63.3340 N   0  0  0  0  0  0
   94.9260   10.2980   61.3320 C   0  0  0  0  0  0
   95.9390    8.1300   59.9030 C   0  0  0  0  0  0
   96.5580    6.7540   58.9890 S   0  0  0  0  0  0
   97.9620    6.6410   59.3120 O   0  0  0  0  0  0
   95.6570    5.6390   59.2310 O   0  0  0  0  0  0
   96.3390    7.2290   57.3820 N   0  0  0  0  0  0
   95.3970    8.2320   57.0430 C   0  0  0  0  0  0
   94.6760    8.8910   57.9120 N   0  0  0  0  0  0
   94.5690   10.1110   59.9900 C   0  0  0  0  0  0
   95.2850    8.4810   55.5880 C   0  0  0  0  0  0
   96.4070    6.4850   54.8110 O   0  5  0  0  0  0
   93.6570   10.1720   55.9750 O   0  0  0  0  0  0
   94.5550   10.0610   53.8660 N   0  0  0  0  0  0
   92.3820   10.9410   53.1360 C   0  0  0  0  0  0
   92.5560    9.9070   50.8370 C   0  0  0  0  0  0
   95.3460    9.4620   52.9410 N   0  0  0  0  0  0
   96.0010    8.3910   53.2630 C   0  0  0  0  0  0
   97.5260    6.2840   52.2880 S   0  0  0  0  0  0
   98.0280    7.6640   50.1840 C   0  0  0  0  0  0
   96.8684    9.4793   50.7342 H   0  0  0  0  0  0
   96.9966    7.6063   61.7298 H   0  0  0  0  0  0
   98.9238    5.6778   50.3123 H   0  0  0  0  0  0
   90.2822    9.1163   53.3353 H   0  0  0  0  0  0
   90.4848    8.3399   51.7282 H   0  0  0  0  0  0
   90.0036   10.0671   51.8369 H   0  0  0  0  0  0
   93.9442   12.0441   54.1389 H   0  0  0  0  0  0
   94.3254   11.5810   52.4457 H   0  0  0  0  0  0
   92.6411    8.8515   52.7391 H   0  0  0  0  0  0
   98.3581    7.4349   65.2271 H   0  0  0  0  0  0
   98.5080    9.1870   64.8604 H   0  0  0  0  0  0
   98.4550    7.9905   63.5216 H   0  0  0  0  0  0
   96.2693   10.6949   63.6527 H   0  0  0  0  0  0
   94.5273   11.1484   61.8851 H   0  0  0  0  0  0
   93.8959   10.8205   59.5086 H   0  0  0  0  0  0
   91.8716   10.7865   54.0981 H   0  0  0  0  0  0
   91.9188   11.7869   52.6069 H   0  0  0  0  0  0
   92.3411    9.0086   50.2398 H   0  0  0  0  0  0
   93.6385   10.1023   50.8290 H   0  0  0  0  0  0
   92.0247   10.7689   50.4071 H   0  0  0  0  0  0
   98.4099    7.9727   49.2109 H   0  0  0  0  0  0
   93.7393    9.3534   57.5675 H   0  0  0  0  0  0
  1  6  2  0  0  0
  1 35  1  0  0  0
  1 36  1  0  0  0
  2  5  2  0  0  0
  2 18  1  0  0  0
  2 37  1  0  0  0
  3 34  1  0  0  0
  3 35  2  0  0  0
  3 38  1  0  0  0
  4 18  2  0  0  0
  4 24  1  0  0  0
  4 25  1  0  0  0
  5 16  1  0  0  0
  5 17  1  0  0  0
  6 33  1  0  0  0
  6 34  1  0  0  0
  7 26  2  0  0  0
  7 27  1  0  0  0
  7 33  1  0  0  0
  8 26  1  0  0  0
  8 28  2  0  0  0
  8 29  1  0  0  0
  9 11  1  0  0  0
  9 39  1  0  0  0
  9 40  1  0  0  0
  9 41  1  0  0  0
 10 29  1  0  0  0
 10 30  1  0  0  0
 10 42  1  0  0  0
 10 43  1  0  0  0
 11 30  1  0  0  0
 11 31  1  0  0  0
 11 44  1  0  0  0
 12 13  2  0  0  0
 13 14  2  0  0  0
 13 15  1  0  0  0
 13 16  1  0  0  0
 15 45  1  0  0  0
 15 46  1  0  0  0
 15 47  1  0  0  0
 16 48  1  0  0  0
 17 25  2  0  0  0
 17 49  1  0  0  0
 18 19  1  0  0  0
 19 20  2  0  0  0
 19 21  2  0  0  0
 19 22  1  0  0  0
 22 23  2  0  0  0
 23 24  1  0  0  0
 23 26  1  0  0  0
 24 57  1  0  0  0
 25 50  1  0  0  0
 29 32  1  0  0  0
 30 51  1  0  0  0
 30 52  1  0  0  0
 31 53  1  0  0  0
 31 54  1  0  0  0
 31 55  1  0  0  0
 32 33  2  0  0  0
 35 56  1  0  0  0
M  CHG  1  27  -1
M  END
> <s_m_source_file>
../3cde_ligand.sdf

> <i_m_source_file_index>
1

> <s_epik_input>
czFbY0hdW2NIXVtjSF1jMS1jMm5uKFtDSDJdW0NIMl1bQ0hdKFtDSDNdKVtDSDNdKWMoPU8pYyhjMltPSF0pQyg9TjMpW05IXVMoPU8pKD1PKWMoYzM0KVtjSF1jKFtjSF1bY0hdNClbTkhdUyg9TykoPU8pW0NIM10=

> <s_epik_cmdline>
J2VwaWtfYXBwJywgJy1pbWFlJywgJ2xpZ2FuZF9wcm8ubWFlJywgJy1vbWFlJywgJ2xpZ2FuZF9wcmVwLm1hZScsICctbXMnLCAnMScsICctcGgnLCAnNycsICctcGh0JywgJzAuNScsICctbnQn

> <r_epik_Ionization_Penalty>
  0.0376

> <r_epik_Ionization_Penalty_Charging>
  0.0000

> <r_epik_Ionization_Penalty_Neutral>
  0.0376

> <r_epik_State_Penalty>
  0.0251

> <r_epik_Charging_Adjusted_Penalty>
0.0250594715909225

> <i_epik_Tot_Q>
-1

> <i_epik_Tot_abs_Q>
1

> <s_epik_Chemistry_Notes>
This compound has an imine and may undergo hydrolysis.

$$$$
