3ce0_ligand
                    3D
 Schrodinger Suite 2020-3.
 55 57  0  0  1  0            999 V2000
   21.7950   -7.7540   18.0360 C   0  0  0  0  0  0
   22.0100   -6.3750   17.5780 N   0  3  0  0  0  0
   21.1840   -5.4460   18.3610 C   0  0  0  0  0  0
   21.6570   -6.2600   16.1570 C   0  0  0  0  0  0
   22.8490   -6.2570   15.1840 C   0  0  0  0  0  0
   23.9550   -6.4330   15.5810 O   0  0  0  0  0  0
   22.5890   -6.1590   13.7510 N   0  0  0  0  0  0
   21.2190   -5.9190   13.3130 C   0  0  1  0  0  0
   20.4030   -7.0530   12.6470 C   0  0  0  0  0  0
   18.9420   -6.7820   12.2000 C   0  0  3  0  0  0
   18.1280   -7.8810   11.5410 C   0  0  1  0  0  0
   18.7740   -9.2750   11.3230 C   0  0  0  0  0  0
   17.9440  -10.3860   10.6560 C   0  0  0  0  0  0
   16.5010  -10.1350   10.2080 C   0  0  0  0  0  0
   15.8680   -8.7560   10.4270 C   0  0  0  0  0  0
   16.7070   -7.6300   11.1030 C   0  0  3  0  0  0
   16.0840   -6.2240   11.3330 C   0  0  1  0  0  0
   14.7630   -5.9630   10.9570 O   0  0  0  0  0  0
   16.8910   -5.1350   11.9840 N   0  3  0  0  0  0
   18.3160   -5.3880   12.4260 C   0  0  3  0  0  0
   19.1340   -4.2500   13.0970 C   0  0  0  0  0  0
   20.5870   -4.5150   13.5420 C   0  0  0  0  0  0
   22.0613   -7.8325   19.1004 H   0  0  0  0  0  0
   22.4255   -8.4379   17.4488 H   0  0  0  0  0  0
   20.7372   -8.0242   17.9017 H   0  0  0  0  0  0
   23.0712   -6.1200   17.7150 H   0  0  0  0  0  0
   21.4466   -5.5303   19.4259 H   0  0  0  0  0  0
   20.1215   -5.6958   18.2244 H   0  0  0  0  0  0
   21.3656   -4.4164   18.0189 H   0  0  0  0  0  0
   21.0190   -7.1082   15.8679 H   0  0  0  0  0  0
   21.1135   -5.3185   15.9892 H   0  0  0  0  0  0
   23.3940   -6.2612   13.0083 H   0  0  0  0  0  0
   21.5895   -5.6058   12.3258 H   0  0  0  0  0  0
   20.9113   -7.3793   11.7277 H   0  0  0  0  0  0
   20.3206   -7.9021   13.3415 H   0  0  0  0  0  0
   19.3040   -6.4583   11.2130 H   0  0  0  0  0  0
   18.4913   -7.5583   10.5541 H   0  0  0  0  0  0
   19.6618   -9.1715   10.6819 H   0  0  0  0  0  0
   19.0705   -9.6977   12.2943 H   0  0  0  0  0  0
   18.4441  -10.7130    9.7324 H   0  0  0  0  0  0
   17.8520  -11.2387   11.3448 H   0  0  0  0  0  0
   16.4200  -10.2994    9.1234 H   0  0  0  0  0  0
   15.8278  -10.8271   10.7350 H   0  0  0  0  0  0
   15.5718   -8.3303    9.4569 H   0  0  0  0  0  0
   14.9806   -8.8576   11.0691 H   0  0  0  0  0  0
   17.0684   -7.3066   10.1157 H   0  0  0  0  0  0
   16.4297   -5.9080   10.3377 H   0  0  0  0  0  0
   14.1612   -6.7505   10.4798 H   0  0  0  0  0  0
   16.9818   -4.2834   11.2937 H   0  0  0  0  0  0
   16.3885   -4.8076   12.9061 H   0  0  0  0  0  0
   18.6794   -5.0648   11.4393 H   0  0  0  0  0  0
   19.2154   -3.3994   12.4043 H   0  0  0  0  0  0
   18.6254   -3.9262   14.0170 H   0  0  0  0  0  0
   20.5853   -4.2847   14.6176 H   0  0  0  0  0  0
   21.1754   -3.7561   13.0055 H   0  0  0  0  0  0
  1  2  1  0  0  0
  1 23  1  0  0  0
  1 24  1  0  0  0
  1 25  1  0  0  0
  2  3  1  0  0  0
  2  4  1  0  0  0
  2 26  1  0  0  0
  3 27  1  0  0  0
  3 28  1  0  0  0
  3 29  1  0  0  0
  4  5  1  0  0  0
  4 30  1  0  0  0
  4 31  1  0  0  0
  5  6  2  0  0  0
  5  7  1  0  0  0
  7  8  1  0  0  0
  7 32  1  0  0  0
  8  9  1  0  0  0
  8 22  1  0  0  0
  8 33  1  0  0  0
  9 10  1  0  0  0
  9 34  1  0  0  0
  9 35  1  0  0  0
 10 11  1  0  0  0
 10 20  1  0  0  0
 10 36  1  0  0  0
 11 12  1  0  0  0
 11 16  1  0  0  0
 11 37  1  0  0  0
 12 13  1  0  0  0
 12 38  1  0  0  0
 12 39  1  0  0  0
 13 14  1  0  0  0
 13 40  1  0  0  0
 13 41  1  0  0  0
 14 15  1  0  0  0
 14 42  1  0  0  0
 14 43  1  0  0  0
 15 16  1  0  0  0
 15 44  1  0  0  0
 15 45  1  0  0  0
 16 17  1  0  0  0
 16 46  1  0  0  0
 17 18  1  0  0  0
 17 19  1  0  0  0
 17 47  1  0  0  0
 18 48  1  0  0  0
 19 20  1  0  0  0
 19 49  1  0  0  0
 19 50  1  0  0  0
 20 21  1  0  0  0
 20 51  1  0  0  0
 21 22  1  0  0  0
 21 52  1  0  0  0
 21 53  1  0  0  0
 22 54  1  0  0  0
 22 55  1  0  0  0
M  CHG  2   2   1  19   1
M  END
> <s_m_source_file>
../3ce0_ligand.sdf

> <i_m_source_file_index>
1

> <s_epik_input>
W0NIM11bTkgrXShbQ0gzXSlbQ0gyXUMoPU8pW05IXVtDSF0oW0NIMl0xKVtDSDJdW0NIMl1bQ0hdMltOSDIrXVtDQEhdKFtPSF0pW0NIXShbQ0hdM1tDSF0xMilbQ0gyXVtDSDJdW0NIMl1bQ0gyXTM=

> <s_epik_cmdline>
J2VwaWtfYXBwJywgJy1pbWFlJywgJ2xpZ2FuZF9wcm8ubWFlJywgJy1vbWFlJywgJ2xpZ2FuZF9wcmVwLm1hZScsICctbXMnLCAnMScsICctcGgnLCAnNycsICctcGh0JywgJzAuNScsICctbnQn

> <r_lp_tautomer_probability>
1

> <r_epik_Ionization_Penalty>
  0.0691

> <r_epik_Ionization_Penalty_Charging>
  0.0494

> <r_epik_Ionization_Penalty_Neutral>
  0.0198

> <r_epik_State_Penalty>
 -0.0000

> <r_epik_Charging_Adjusted_Penalty>
0.0493650050041078

> <i_epik_Tot_Q>
2

> <i_epik_Tot_abs_Q>
2

> <s_epik_Chemistry_Notes>
This compound contains an acetal/aminal-like group ( X-CH(R)-Y where X, Y are N, S, or O) that may be acid/base labile, releasing an aldehyde.

$$$$
