3cf1_ligand
                    3D
 Schrodinger Suite 2020-3.
 39 41  0  0  1  0            999 V2000
   86.2440  121.1250  264.4960 P   0  0  0  0  0  0
   87.1950  120.7300  263.4410 O   0  5  0  0  0  0
   86.9700  121.1260  265.9160 O   0  5  0  0  0  0
   85.1070  120.1900  264.5230 O   0  0  0  0  0  0
   85.7210  123.3580  262.8480 P   0  0  1  0  0  0
   87.0890  123.6220  262.4480 O   0  5  0  0  0  0
   85.0520  122.6060  261.8070 O   0  0  0  0  0  0
   85.7180  122.5530  264.1730 O   0  0  0  0  0  0
   84.9240  124.7010  263.0530 O   0  0  0  0  0  0
   84.2840  125.1830  264.2250 C   0  0  0  0  0  0
   83.6570  126.5390  263.8140 C   0  0  1  0  0  0
   83.4500  127.2690  265.0100 O   0  0  0  0  0  0
   84.5370  127.4340  262.9570 C   0  0  1  0  0  0
   84.1370  127.3850  261.6000 O   0  0  0  0  0  0
   84.4010  128.8130  263.5290 C   0  0  1  0  0  0
   83.4250  129.5960  262.8550 O   0  0  0  0  0  0
   84.1000  128.5460  264.9680 C   0  0  2  0  0  0
   85.3110  128.5040  265.8530 N   0  0  0  0  0  0
   85.7810  127.4180  266.4930 C   0  0  0  0  0  0
   86.8430  127.7330  267.1860 N   0  0  0  0  0  0
   87.0860  128.9880  267.0240 C   0  0  0  0  0  0
   88.0460  129.8750  267.4890 C   0  0  0  0  0  0
   88.9960  129.4510  268.3080 N   0  0  0  0  0  0
   88.0220  131.2000  267.1080 N   0  0  0  0  0  0
   87.0680  131.6810  266.2720 C   0  0  0  0  0  0
   86.1160  130.8190  265.8080 N   0  0  0  0  0  0
   86.0960  129.5010  266.1540 C   0  0  0  0  0  0
   83.5171  124.4629  264.5465 H   0  0  0  0  0  0
   85.0288  125.3070  265.0249 H   0  0  0  0  0  0
   82.7191  126.3449  263.2729 H   0  0  0  0  0  0
   85.5873  127.1114  262.9036 H   0  0  0  0  0  0
   84.1826  126.4351  261.0471 H   0  0  0  0  0  0
   85.2704  129.4706  263.3819 H   0  0  0  0  0  0
   83.5584  129.8456  261.7920 H   0  0  0  0  0  0
   83.4475  129.3423  265.3555 H   0  0  0  0  0  0
   85.3408  126.4222  266.4411 H   0  0  0  0  0  0
   89.0243  128.3960  268.6182 H   0  0  0  0  0  0
   89.7570  130.1537  268.6783 H   0  0  0  0  0  0
   87.0616  132.7305  265.9777 H   0  0  0  0  0  0
  1  2  1  0  0  0
  1  3  1  0  0  0
  1  4  2  0  0  0
  1  8  1  0  0  0
  5  6  1  0  0  0
  5  7  2  0  0  0
  5  8  1  0  0  0
  5  9  1  0  0  0
  9 10  1  0  0  0
 10 11  1  0  0  0
 10 28  1  0  0  0
 10 29  1  0  0  0
 11 12  1  0  0  0
 11 13  1  0  0  0
 11 30  1  0  0  0
 12 17  1  0  0  0
 13 14  1  0  0  0
 13 15  1  0  0  0
 13 31  1  0  0  0
 14 32  1  0  0  0
 15 16  1  0  0  0
 15 17  1  0  0  0
 15 33  1  0  0  0
 16 34  1  0  0  0
 17 18  1  0  0  0
 17 35  1  0  0  0
 18 19  1  0  0  0
 18 27  1  0  0  0
 19 20  2  0  0  0
 19 36  1  0  0  0
 20 21  1  0  0  0
 21 22  2  0  0  0
 21 27  1  0  0  0
 22 23  1  0  0  0
 22 24  1  0  0  0
 23 37  1  0  0  0
 23 38  1  0  0  0
 24 25  2  0  0  0
 25 26  1  0  0  0
 25 39  1  0  0  0
 26 27  2  0  0  0
M  CHG  3   2  -1   3  -1   6  -1
M  END
> <s_m_source_file>
../3cf1_ligand.sdf

> <i_m_source_file_index>
1

> <s_epik_input>
W09IXVAoPU8pKFtPSF0pT1tQQF0oPU8pKFtPSF0pT1tDSDJdW0NASF0xT1tDQEhdKFtDQEhdKFtPSF0pW0NAQEhdMVtPSF0pbihbY0hdbjIpYyhjMjMpbltjSF1uYzNbTkgyXQ==

> <s_epik_cmdline>
J2VwaWtfYXBwJywgJy1pbWFlJywgJ2xpZ2FuZF9wcm8ubWFlJywgJy1vbWFlJywgJ2xpZ2FuZF9wcmVwLm1hZScsICctbXMnLCAnMScsICctcGgnLCAnNycsICctcGh0JywgJzAuNScsICctbnQn

> <r_lp_tautomer_probability>
0.999997216410988

> <r_epik_Ionization_Penalty>
  0.1037

> <r_epik_Ionization_Penalty_Charging>
  0.1033

> <r_epik_Ionization_Penalty_Neutral>
  0.0004

> <r_epik_State_Penalty>
  0.0922

> <r_epik_Charging_Adjusted_Penalty>
0.19546844050481

> <i_epik_Tot_Q>
-3

> <i_epik_Tot_abs_Q>
3

> <s_epik_Chemistry_Notes>
This compound contains an acetal/aminal-like group ( X-CH(R)-Y where X, Y are N, S, or O) that may be acid/base labile, releasing an aldehyde.

$$$$
