3cfs_ligand
                    3D
 Schrodinger Suite 2020-3.
254254  0  0  1  0            999 V2000
   13.1190  -24.4560   37.9330 N   0  3  0  0  0  0
   14.2020  -23.4890   37.5960 C   0  0  2  0  0  0
   13.6230  -22.0870   37.4160 C   0  0  0  0  0  0
   13.4610  -21.3460   38.3860 O   0  0  0  0  0  0
   14.9420  -23.9370   36.3340 C   0  0  0  0  0  0
   16.3770  -23.4420   36.2440 C   0  0  0  0  0  0
   17.2440  -24.3280   35.3680 C   0  0  0  0  0  0
   16.8190  -24.7770   34.3030 O   0  0  0  0  0  0
   18.4680  -24.5850   35.8160 N   0  0  0  0  0  0
   13.3080  -21.7300   36.1750 N   0  0  0  0  0  0
   12.6260  -20.4720   35.8950 C   0  0  0  0  0  0
   11.1230  -20.6620   35.9380 C   0  0  0  0  0  0
   10.4040  -20.2280   35.0380 O   0  0  0  0  0  0
   10.6510  -21.3130   36.9970 N   0  0  0  0  0  0
    9.2510  -21.7100   37.1090 C   0  0  2  0  0  0
    8.4420  -20.7610   37.9950 C   0  0  0  0  0  0
    7.2200  -20.6700   37.8680 O   0  0  0  0  0  0
    9.1300  -23.1730   37.6010 C   0  0  2  0  0  0
    9.2570  -24.1370   36.4150 C   0  0  0  0  0  0
    7.8130  -23.4010   38.3330 C   0  0  0  0  0  0
    9.4340  -25.5840   36.8230 C   0  0  0  0  0  0
    9.1310  -20.0430   38.8770 N   0  0  0  0  0  0
    8.4880  -19.0380   39.7210 C   0  0  2  0  0  0
    7.9640  -17.8640   38.8870 C   0  0  0  0  0  0
    8.4840  -17.5790   37.8070 O   0  0  0  0  0  0
    9.4470  -18.5300   40.8230 C   0  0  2  0  0  0
    8.9120  -17.3450   41.4240 O   0  0  0  0  0  0
   10.8190  -18.2240   40.2430 C   0  0  0  0  0  0
    6.9600  -17.1830   39.3640 N   0  0  0  0  0  0
    6.3610  -16.1070   38.6100 C   0  0  2  0  0  0
    7.2430  -14.9260   38.3000 C   0  0  0  0  0  0
    7.1920  -14.4190   37.2390 O   0  0  0  0  0  0
    5.0790  -15.6140   39.2490 C   0  0  0  0  0  0
    4.2450  -16.6560   39.7860 C   0  0  0  0  0  0
    3.0240  -16.7420   39.0220 C   0  0  0  0  0  0
    1.9270  -16.1050   39.7740 C   0  0  0  0  0  0
    1.5420  -14.8460   39.1330 N   0  3  0  0  0  0
    8.0100  -14.4510   39.2560 N   0  0  0  0  0  0
    9.0000  -13.4120   38.9640 C   0  0  2  0  0  0
    9.9970  -13.8100   37.8740 C   0  0  0  0  0  0
   10.4210  -12.9610   37.0900 O   0  0  0  0  0  0
    9.7240  -13.2350   40.3020 C   0  0  0  0  0  0
    8.7290  -13.6500   41.3210 C   0  0  0  0  0  0
    7.9680  -14.7770   40.6930 C   0  0  0  0  0  0
   10.3710  -15.0850   37.8260 N   0  0  0  0  0  0
   11.3070  -15.5590   36.8110 C   0  0  2  0  0  0
   10.6520  -15.6170   35.4330 C   0  0  0  0  0  0
   11.2840  -15.3110   34.4220 O   0  0  0  0  0  0
   11.8690  -16.9160   37.1920 C   0  0  0  0  0  0
    9.3830  -16.0140   35.4020 N   0  0  0  0  0  0
    8.6280  -16.0840   34.1560 C   0  0  2  0  0  0
    8.3730  -14.6830   33.6050 C   0  0  0  0  0  0
    8.4520  -14.4570   32.3970 O   0  0  0  0  0  0
    7.2940  -16.8370   34.3480 C   0  0  2  0  0  0
    7.5610  -18.3240   34.6020 C   0  0  0  0  0  0
    6.3860  -16.6550   33.1380 C   0  0  0  0  0  0
    6.3180  -19.1270   34.9300 C   0  0  0  0  0  0
    8.1270  -13.7550   34.4990 N   0  0  0  0  0  0
    7.9380  -12.4090   34.1590 C   0  0  2  0  0  0
    9.1670  -11.7780   33.5870 C   0  0  0  0  0  0
    9.0890  -10.9320   32.7560 O   0  0  0  0  0  0
    7.3960  -11.6610   35.3260 C   0  0  0  0  0  0
    5.9880  -11.6680   35.2630 C   0  0  0  0  0  0
    5.3550  -10.9200   36.3160 C   0  0  0  0  0  0
    4.8690  -11.8550   37.2940 N   0  0  0  0  0  0
    3.6520  -11.8820   37.7860 C   0  0  0  0  0  0
    2.7640  -11.0030   37.4240 N   0  0  0  0  0  0
    3.3420  -12.7960   38.6750 N   0  0  0  0  0  0
   10.3070  -12.2510   34.0200 N   0  0  0  0  0  0
   11.6070  -11.8130   33.5740 C   0  0  2  0  0  0
   11.9660  -12.4600   32.2600 C   0  0  0  0  0  0
   12.6120  -11.8640   31.4660 O   0  0  0  0  0  0
   12.6040  -12.1750   34.6460 C   0  0  0  0  0  0
   13.9380  -11.6040   34.6020 C   0  0  0  0  0  0
   14.8270  -12.5330   35.4350 C   0  0  0  0  0  0
   15.8840  -11.9350   36.2200 N   0  0  0  0  0  0
   15.8170  -11.7100   37.5360 C   0  0  0  0  0  0
   15.1280  -10.6680   38.0090 N   0  0  0  0  0  0
   16.4370  -12.5200   38.3830 N   0  0  0  0  0  0
   11.5210  -13.6840   32.0560 N   0  0  0  0  0  0
   11.6570  -14.3580   30.7720 C   0  0  2  0  0  0
   10.8430  -13.6110   29.7200 C   0  0  0  0  0  0
   11.2980  -13.4090   28.5950 O   0  0  0  0  0  0
   11.1650  -15.8050   30.8750 C   0  0  0  0  0  0
   11.9650  -16.9180   30.1860 C   0  0  0  0  0  0
   11.0430  -18.0710   29.8150 C   0  0  0  0  0  0
   12.7140  -16.4210   28.9600 C   0  0  0  0  0  0
    9.6400  -13.1920   30.1010 N   0  0  0  0  0  0
    8.7470  -12.4760   29.1940 C   0  0  2  0  0  0
    9.3830  -11.2000   28.6540 C   0  0  0  0  0  0
    9.2690  -10.8970   27.4650 O   0  0  0  0  0  0
    7.4350  -12.1600   29.8890 C   0  0  0  0  0  0
   10.0520  -10.4560   29.5320 N   0  0  0  0  0  0
   10.6750   -9.1910   29.1560 C   0  0  2  0  0  0
   11.9190   -9.4160   28.3040 C   0  0  0  0  0  0
   12.3110   -8.5520   27.5210 O   0  0  0  0  0  0
   11.0210   -8.3710   30.4010 C   0  0  0  0  0  0
    9.8510   -8.1960   31.3530 C   0  0  0  0  0  0
   10.2730   -7.5680   32.6700 C   0  0  0  0  0  0
   10.2330   -6.1110   32.6130 N   0  0  0  0  0  0
   11.3070   -5.3320   32.5790 C   0  0  0  0  0  0
   12.5190   -5.8650   32.6080 N   0  0  0  0  0  0
   11.1680   -4.0160   32.5230 N   0  0  0  0  0  0
   12.5350  -10.5820   28.4630 N   0  0  0  0  0  0
   13.6860  -10.9610   27.6520 C   0  0  2  0  0  0
   13.2450  -11.5810   26.3280 C   0  0  0  0  0  0
   14.0450  -11.7290   25.4050 O   0  0  0  0  0  0
   14.5860  -11.9300   28.4220 C   0  0  0  0  0  0
   15.5480  -11.2410   29.3750 C   0  0  0  0  0  0
   16.0600  -12.1890   30.4470 C   0  0  0  0  0  0
   17.2050  -11.6280   31.1590 N   0  0  0  0  0  0
   17.6300  -12.0480   32.3470 C   0  0  0  0  0  0
   17.0000  -13.0350   32.9710 N   0  0  0  0  0  0
   18.6840  -11.4770   32.9150 N   0  0  0  0  0  0
   11.9680  -11.9390   26.2450 N   0  0  0  0  0  0
   11.4100  -12.5280   25.0340 C   0  0  0  0  0  0
   11.7290  -14.0040   24.8940 C   0  0  0  0  0  0
   11.6330  -14.5660   23.8030 O   0  0  0  0  0  0
   12.1163  -14.6980   25.9604 O   0  0  0  0  0  0
   13.5502  -25.4600   38.0595 H   0  0  0  0  0  0
   12.3783  -24.4749   37.1200 H   0  0  0  0  0  0
   12.6293  -24.1468   38.8682 H   0  0  0  0  0  0
   14.9067  -23.4791   38.4406 H   0  0  0  0  0  0
   14.9770  -25.0359   36.3001 H   0  0  0  0  0  0
   14.4141  -23.5594   35.4459 H   0  0  0  0  0  0
   16.3891  -22.4283   35.8172 H   0  0  0  0  0  0
   16.8216  -23.4216   37.2499 H   0  0  0  0  0  0
   18.8033  -24.1611   36.7740 H   0  0  0  0  0  0
   19.1461  -25.2217   35.2289 H   0  0  0  0  0  0
   13.5732  -22.4074   35.3499 H   0  0  0  0  0  0
   12.9132  -19.7236   36.6483 H   0  0  0  0  0  0
   12.9124  -20.1143   34.8950 H   0  0  0  0  0  0
   11.3567  -21.5514   37.8064 H   0  0  0  0  0  0
    8.8696  -21.6151   36.0816 H   0  0  0  0  0  0
    9.9393  -23.3782   38.3172 H   0  0  0  0  0  0
    8.3487  -24.0798   35.7972 H   0  0  0  0  0  0
   10.1313  -23.8587   35.8082 H   0  0  0  0  0  0
    7.7383  -22.7024   39.1794 H   0  0  0  0  0  0
    7.7753  -24.4350   38.7065 H   0  0  0  0  0  0
    6.9748  -23.2301   37.6414 H   0  0  0  0  0  0
    9.5174  -26.2111   35.9231 H   0  0  0  0  0  0
    8.5653  -25.9067   37.4156 H   0  0  0  0  0  0
   10.3479  -25.6856   37.4267 H   0  0  0  0  0  0
   10.2130  -20.2218   38.9619 H   0  0  0  0  0  0
    7.6393  -19.5710   40.1745 H   0  0  0  0  0  0
    9.5385  -19.2675   41.6340 H   0  0  0  0  0  0
    7.9205  -17.3691   41.8998 H   0  0  0  0  0  0
   11.2325  -19.1324   39.7806 H   0  0  0  0  0  0
   11.4891  -17.8838   41.0463 H   0  0  0  0  0  0
   10.7278  -17.4344   39.4826 H   0  0  0  0  0  0
    6.5697  -17.4407   40.3596 H   0  0  0  0  0  0
    6.1863  -16.6320   37.6593 H   0  0  0  0  0  0
    5.3210  -14.9357   40.0805 H   0  0  0  0  0  0
    4.4791  -15.0764   38.5000 H   0  0  0  0  0  0
    4.7780  -17.6167   39.7319 H   0  0  0  0  0  0
    4.0041  -16.4289   40.8350 H   0  0  0  0  0  0
    3.1566  -16.2260   38.0596 H   0  0  0  0  0  0
    2.7786  -17.7988   38.8406 H   0  0  0  0  0  0
    1.0580  -16.7791   39.7964 H   0  0  0  0  0  0
    2.2584  -15.8997   40.8026 H   0  0  0  0  0  0
    0.7239  -14.3801   39.7019 H   0  0  0  0  0  0
    1.2063  -15.0458   38.1047 H   0  0  0  0  0  0
    2.4067  -14.1664   39.1109 H   0  0  0  0  0  0
    8.4824  -12.5199   38.5817 H   0  0  0  0  0  0
   10.6205  -13.8722   40.3209 H   0  0  0  0  0  0
   10.0197  -12.1824   40.4225 H   0  0  0  0  0  0
    9.2516  -13.9744   42.2329 H   0  0  0  0  0  0
    8.0709  -12.8010   41.5579 H   0  0  0  0  0  0
    6.9215  -14.8178   41.0293 H   0  0  0  0  0  0
    8.4456  -15.7535   40.8616 H   0  0  0  0  0  0
    9.9626  -15.7868   38.5681 H   0  0  0  0  0  0
   12.1187  -14.8167   36.7968 H   0  0  0  0  0  0
   12.3358  -16.8535   38.1861 H   0  0  0  0  0  0
   12.6228  -17.2217   36.4515 H   0  0  0  0  0  0
   11.0558  -17.6564   37.2146 H   0  0  0  0  0  0
    8.9040  -16.2940   36.3518 H   0  0  0  0  0  0
    9.2770  -16.6428   33.4657 H   0  0  0  0  0  0
    6.7683  -16.4183   35.2188 H   0  0  0  0  0  0
    8.0106  -18.7743   33.7047 H   0  0  0  0  0  0
    8.2510  -18.4327   35.4518 H   0  0  0  0  0  0
    6.2065  -15.5825   32.9724 H   0  0  0  0  0  0
    5.4276  -17.1636   33.3190 H   0  0  0  0  0  0
    6.8685  -17.0876   32.2492 H   0  0  0  0  0  0
    6.5944  -20.1784   35.0976 H   0  0  0  0  0  0
    5.6086  -19.0634   34.0917 H   0  0  0  0  0  0
    5.8490  -18.7218   35.8388 H   0  0  0  0  0  0
    8.0714  -14.0694   35.5516 H   0  0  0  0  0  0
    7.1862  -12.4373   33.3565 H   0  0  0  0  0  0
    7.7277  -12.1438   36.2571 H   0  0  0  0  0  0
    7.7630  -10.6243   35.2996 H   0  0  0  0  0  0
    5.6615  -11.2283   34.3090 H   0  0  0  0  0  0
    5.6229  -12.7033   35.3336 H   0  0  0  0  0  0
    6.0875  -10.2383   36.7729 H   0  0  0  0  0  0
    4.5203  -10.3363   35.9005 H   0  0  0  0  0  0
    5.5383  -12.6316   37.6927 H   0  0  0  0  0  0
    3.0214  -10.2358   36.6789 H   0  0  0  0  0  0
    4.0911  -13.5404   38.9827 H   0  0  0  0  0  0
    2.3330  -12.8178   39.1125 H   0  0  0  0  0  0
   10.2239  -13.0409   34.7811 H   0  0  0  0  0  0
   11.5649  -10.7246   33.4206 H   0  0  0  0  0  0
   12.2119  -11.8731   35.6284 H   0  0  0  0  0  0
   12.7736  -13.2618   34.6371 H   0  0  0  0  0  0
   14.2825  -11.5570   33.5584 H   0  0  0  0  0  0
   13.9169  -10.5897   35.0272 H   0  0  0  0  0  0
   14.2070  -13.0810   36.1598 H   0  0  0  0  0  0
   15.3335  -13.2487   34.7707 H   0  0  0  0  0  0
   16.8238  -11.6308   35.7360 H   0  0  0  0  0  0
   14.6101   -9.9901   37.3145 H   0  0  0  0  0  0
   15.0785  -10.4878   39.0930 H   0  0  0  0  0  0
   17.0070  -13.3808   38.0035 H   0  0  0  0  0  0
   11.0329  -14.1973   32.8976 H   0  0  0  0  0  0
   12.7283  -14.3387   30.5231 H   0  0  0  0  0  0
   11.1311  -16.1064   31.9324 H   0  0  0  0  0  0
   10.1578  -15.8817   30.4394 H   0  0  0  0  0  0
   12.7256  -17.2752   30.8958 H   0  0  0  0  0  0
   10.5099  -18.4176   30.7126 H   0  0  0  0  0  0
   11.6384  -18.8976   29.4001 H   0  0  0  0  0  0
   10.3145  -17.7309   29.0642 H   0  0  0  0  0  0
   13.3745  -15.5892   29.2461 H   0  0  0  0  0  0
   11.9928  -16.0738   28.2055 H   0  0  0  0  0  0
   13.3167  -17.2405   28.5414 H   0  0  0  0  0  0
    9.3239  -13.3994   31.1340 H   0  0  0  0  0  0
    8.5757  -13.1674   28.3558 H   0  0  0  0  0  0
    6.9898  -13.0900   30.2722 H   0  0  0  0  0  0
    6.7444  -11.6908   29.1728 H   0  0  0  0  0  0
    7.6201  -11.4702   30.7256 H   0  0  0  0  0  0
   10.1278  -10.8202   30.5672 H   0  0  0  0  0  0
    9.9182   -8.6666   28.5541 H   0  0  0  0  0  0
   11.8272   -8.8716   30.9574 H   0  0  0  0  0  0
   11.3531   -7.3670   30.0982 H   0  0  0  0  0  0
    9.0957   -7.5441   30.8898 H   0  0  0  0  0  0
    9.4046   -9.1777   31.5698 H   0  0  0  0  0  0
    9.5943   -7.9010   33.4691 H   0  0  0  0  0  0
   11.3013   -7.8760   32.9103 H   0  0  0  0  0  0
    9.2657   -5.5876   32.5956 H   0  0  0  0  0  0
   12.6384   -6.9575   32.6545 H   0  0  0  0  0  0
   10.1629   -3.5696   32.4988 H   0  0  0  0  0  0
   12.0576   -3.3694   32.5007 H   0  0  0  0  0  0
   12.1538  -11.2697   29.2323 H   0  0  0  0  0  0
   14.2230  -10.0220   27.4525 H   0  0  0  0  0  0
   13.9636  -12.6118   29.0201 H   0  0  0  0  0  0
   15.1898  -12.5132   27.7111 H   0  0  0  0  0  0
   16.4121  -10.8594   28.8114 H   0  0  0  0  0  0
   15.0356  -10.4039   29.8717 H   0  0  0  0  0  0
   15.2599  -12.3845   31.1761 H   0  0  0  0  0  0
   16.3709  -13.1357   29.9812 H   0  0  0  0  0  0
   17.7785  -10.8017   30.7137 H   0  0  0  0  0  0
   16.1255  -13.5115   32.5039 H   0  0  0  0  0  0
   17.3522  -13.3768   33.9555 H   0  0  0  0  0  0
   19.2095  -10.6584   32.4014 H   0  0  0  0  0  0
   11.3272  -11.7794   27.1247 H   0  0  0  0  0  0
   10.3152  -12.4217   25.0454 H   0  0  0  0  0  0
   11.8193  -12.0119   24.1530 H   0  0  0  0  0  0
   12.3490  -15.7689   25.8649 H   0  0  0  0  0  0
  1  2  1  0  0  0
  1120  1  0  0  0
  1121  1  0  0  0
  1122  1  0  0  0
  2  5  1  0  0  0
  2  3  1  0  0  0
  2123  1  0  0  0
  3  4  2  0  0  0
  3 10  1  0  0  0
  5  6  1  0  0  0
  5124  1  0  0  0
  5125  1  0  0  0
  6  7  1  0  0  0
  6126  1  0  0  0
  6127  1  0  0  0
  7  9  1  0  0  0
  7  8  2  0  0  0
  9128  1  0  0  0
  9129  1  0  0  0
 10 11  1  0  0  0
 10130  1  0  0  0
 11 12  1  0  0  0
 11131  1  0  0  0
 11132  1  0  0  0
 12 13  2  0  0  0
 12 14  1  0  0  0
 14 15  1  0  0  0
 14133  1  0  0  0
 15 18  1  0  0  0
 15 16  1  0  0  0
 15134  1  0  0  0
 16 17  2  0  0  0
 16 22  1  0  0  0
 18 20  1  0  0  0
 18 19  1  0  0  0
 18135  1  0  0  0
 19 21  1  0  0  0
 19136  1  0  0  0
 19137  1  0  0  0
 20138  1  0  0  0
 20139  1  0  0  0
 20140  1  0  0  0
 21141  1  0  0  0
 21142  1  0  0  0
 21143  1  0  0  0
 22 23  1  0  0  0
 22144  1  0  0  0
 23 26  1  0  0  0
 23 24  1  0  0  0
 23145  1  0  0  0
 24 25  2  0  0  0
 24 29  1  0  0  0
 26 28  1  0  0  0
 26 27  1  0  0  0
 26146  1  0  0  0
 27147  1  0  0  0
 28148  1  0  0  0
 28149  1  0  0  0
 28150  1  0  0  0
 29 30  1  0  0  0
 29151  1  0  0  0
 30 33  1  0  0  0
 30 31  1  0  0  0
 30152  1  0  0  0
 31 32  2  0  0  0
 31 38  1  0  0  0
 33 34  1  0  0  0
 33153  1  0  0  0
 33154  1  0  0  0
 34 35  1  0  0  0
 34155  1  0  0  0
 34156  1  0  0  0
 35 36  1  0  0  0
 35157  1  0  0  0
 35158  1  0  0  0
 36 37  1  0  0  0
 36159  1  0  0  0
 36160  1  0  0  0
 37161  1  0  0  0
 37162  1  0  0  0
 37163  1  0  0  0
 38 39  1  0  0  0
 38 44  1  0  0  0
 39 40  1  0  0  0
 39 42  1  0  0  0
 39164  1  0  0  0
 40 41  2  0  0  0
 40 45  1  0  0  0
 42 43  1  0  0  0
 42165  1  0  0  0
 42166  1  0  0  0
 43 44  1  0  0  0
 43167  1  0  0  0
 43168  1  0  0  0
 44169  1  0  0  0
 44170  1  0  0  0
 45 46  1  0  0  0
 45171  1  0  0  0
 46 49  1  0  0  0
 46 47  1  0  0  0
 46172  1  0  0  0
 47 48  2  0  0  0
 47 50  1  0  0  0
 49173  1  0  0  0
 49174  1  0  0  0
 49175  1  0  0  0
 50 51  1  0  0  0
 50176  1  0  0  0
 51 54  1  0  0  0
 51 52  1  0  0  0
 51177  1  0  0  0
 52 53  2  0  0  0
 52 58  1  0  0  0
 54 56  1  0  0  0
 54 55  1  0  0  0
 54178  1  0  0  0
 55 57  1  0  0  0
 55179  1  0  0  0
 55180  1  0  0  0
 56181  1  0  0  0
 56182  1  0  0  0
 56183  1  0  0  0
 57184  1  0  0  0
 57185  1  0  0  0
 57186  1  0  0  0
 58 59  1  0  0  0
 58187  1  0  0  0
 59 62  1  0  0  0
 59 60  1  0  0  0
 59188  1  0  0  0
 60 61  2  0  0  0
 60 69  1  0  0  0
 62 63  1  0  0  0
 62189  1  0  0  0
 62190  1  0  0  0
 63 64  1  0  0  0
 63191  1  0  0  0
 63192  1  0  0  0
 64 65  1  0  0  0
 64193  1  0  0  0
 64194  1  0  0  0
 65 66  1  0  0  0
 65195  1  0  0  0
 66 68  1  0  0  0
 66 67  2  0  0  0
 67196  1  0  0  0
 68197  1  0  0  0
 68198  1  0  0  0
 69 70  1  0  0  0
 69199  1  0  0  0
 70 73  1  0  0  0
 70 71  1  0  0  0
 70200  1  0  0  0
 71 72  2  0  0  0
 71 80  1  0  0  0
 73 74  1  0  0  0
 73201  1  0  0  0
 73202  1  0  0  0
 74 75  1  0  0  0
 74203  1  0  0  0
 74204  1  0  0  0
 75 76  1  0  0  0
 75205  1  0  0  0
 75206  1  0  0  0
 76 77  1  0  0  0
 76207  1  0  0  0
 77 79  2  0  0  0
 77 78  1  0  0  0
 78208  1  0  0  0
 78209  1  0  0  0
 79210  1  0  0  0
 80 81  1  0  0  0
 80211  1  0  0  0
 81 84  1  0  0  0
 81 82  1  0  0  0
 81212  1  0  0  0
 82 83  2  0  0  0
 82 88  1  0  0  0
 84 85  1  0  0  0
 84213  1  0  0  0
 84214  1  0  0  0
 85 86  1  0  0  0
 85 87  1  0  0  0
 85215  1  0  0  0
 86216  1  0  0  0
 86217  1  0  0  0
 86218  1  0  0  0
 87219  1  0  0  0
 87220  1  0  0  0
 87221  1  0  0  0
 88 89  1  0  0  0
 88222  1  0  0  0
 89 92  1  0  0  0
 89 90  1  0  0  0
 89223  1  0  0  0
 90 91  2  0  0  0
 90 93  1  0  0  0
 92224  1  0  0  0
 92225  1  0  0  0
 92226  1  0  0  0
 93 94  1  0  0  0
 93227  1  0  0  0
 94 97  1  0  0  0
 94 95  1  0  0  0
 94228  1  0  0  0
 95 96  2  0  0  0
 95104  1  0  0  0
 97 98  1  0  0  0
 97229  1  0  0  0
 97230  1  0  0  0
 98 99  1  0  0  0
 98231  1  0  0  0
 98232  1  0  0  0
 99100  1  0  0  0
 99233  1  0  0  0
 99234  1  0  0  0
100101  1  0  0  0
100235  1  0  0  0
101103  1  0  0  0
101102  2  0  0  0
102236  1  0  0  0
103237  1  0  0  0
103238  1  0  0  0
104105  1  0  0  0
104239  1  0  0  0
105108  1  0  0  0
105106  1  0  0  0
105240  1  0  0  0
106107  2  0  0  0
106115  1  0  0  0
108109  1  0  0  0
108241  1  0  0  0
108242  1  0  0  0
109110  1  0  0  0
109243  1  0  0  0
109244  1  0  0  0
110111  1  0  0  0
110245  1  0  0  0
110246  1  0  0  0
111112  1  0  0  0
111247  1  0  0  0
112114  2  0  0  0
112113  1  0  0  0
113248  1  0  0  0
113249  1  0  0  0
114250  1  0  0  0
115116  1  0  0  0
115251  1  0  0  0
116117  1  0  0  0
116252  1  0  0  0
116253  1  0  0  0
117118  2  0  0  0
117119  1  0  0  0
119254  1  0  0  0
M  CHG  2   1   1  37   1
M  END
> <s_m_source_file>
../3cfs_ligand.sdf

> <i_m_source_file_index>
1

> <s_epik_input>
Tz1DKFtOSDJdKVtDSDJdW0NIMl1bQ0BIXShbTkgzK10pQyg9TylbTkhdW0NIMl1DKD1PKVtOSF1bQ0BASF0oW0NAQEhdKFtDSDNdKVtDSDJdW0NIM10pQyg9TylbTkhdW0NAQEhdKFtDQEhdKFtPSF0pW0NIM10pQyg9TylbTkhdW0NAQEhdKFtDSDJdW0NIMl1bQ0gyXVtDSDJdW05IMytdKUMoPU8pTjFbQ0BASF0oW0NIMl1bQ0gyXVtDSDJdMSlDKD1PKVtOSF1bQ0BASF0oW0NIM10pQyg9TylbTkhdW0NAQEhdKFtDQEBIXShbQ0gzXSlbQ0gyXVtDSDNdKUMoPU8pW05IXVtDQEBIXShbQ0gyXVtDSDJdW0NIMl1bTkhdL0MoPU5cW0hdKVtOSDJdKUMoPU8pW05IXVtDQEBIXShbQ0gyXVtDSDJdW0NIMl1bTkhdL0MoW05IMl0pPU5cW0hdKUMoPU8pW05IXVtDQEBIXShbQ0gyXVtDSF0oW0NIM10pW0NIM10pQyg9TylbTkhdW0NAQEhdKFtDSDNdKUMoPU8pW05IXVtDQEBIXShbQ0gyXVtDSDJdW0NIMl1bTkhdL0MoPU5cW0hdKVtOSDJdKUMoPU8pW05IXVtDQEhdKEMoPU8pW05IXVtDSDJdQyg9TylbT0hdKVtDSDJdW0NIMl1bQ0gyXVtOSF0vQyhbTkgyXSk9TlxbSF0=

> <s_epik_cmdline>
J2VwaWtfYXBwJywgJy1pbWFlJywgJ2xpZ2FuZF9wcm8ubWFlJywgJy1vbWFlJywgJ2xpZ2FuZF9wcmVwLm1hZScsICctbXMnLCAnMScsICctcGgnLCAnNycsICctcGh0JywgJzAuNScsICctbnQn

> <s_epik_pKa_notes>
Molecule size exceeds maximum supported for generating protonation states

> <s_epik_Chemistry_Notes>
This compound has an imine and may undergo hydrolysis.

$$$$
