3cfv_ligand
                    3D
 Schrodinger Suite 2020-3.
300300  0  0  1  0            999 V2000
   48.8690   -4.6560   69.5670 N   0  3  0  0  0  0
   47.6000   -4.6760   68.7830 C   0  0  2  0  0  0
   46.3890   -4.3120   69.6350 C   0  0  0  0  0  0
   46.4130   -4.4460   70.8600 O   0  0  0  0  0  0
   47.3870   -6.0450   68.1310 C   0  0  0  0  0  0
   48.1090   -6.1770   66.8060 C   0  0  0  0  0  0
   47.8340   -7.1500   66.0730 O   0  0  0  0  0  0
   48.9470   -5.3040   66.4930 O   0  0  0  0  0  0
   45.3310   -3.8540   68.9730 N   0  0  0  0  0  0
   44.0860   -3.5080   69.6490 C   0  0  2  0  0  0
   42.9640   -4.4890   69.3200 C   0  0  0  0  0  0
   43.0610   -5.2600   68.3670 O   0  0  0  0  0  0
   43.6630   -2.0740   69.3140 C   0  0  0  0  0  0
   43.2420   -1.9100   67.8680 C   0  0  0  0  0  0
   42.1610   -1.3960   67.5820 O   0  0  0  0  0  0
   44.0930   -2.3450   66.9460 N   0  0  0  0  0  0
   41.8990   -4.4470   70.1150 N   0  0  0  0  0  0
   40.7890   -5.3890   69.9790 C   0  0  2  0  0  0
   39.9530   -5.1920   68.7170 C   0  0  0  0  0  0
   39.3790   -6.1490   68.1980 O   0  0  0  0  0  0
   39.8690   -5.3480   71.2080 C   0  0  2  0  0  0
   39.9330   -3.9650   71.8580 C   0  0  0  0  0  0
   40.2680   -6.4250   72.2030 C   0  0  0  0  0  0
   39.6140   -3.9690   73.3250 C   0  0  0  0  0  0
   39.8760   -3.9580   68.2260 N   0  0  0  0  0  0
   39.1540   -3.6990   66.9870 C   0  0  2  0  0  0
   39.8540   -4.3980   65.8270 C   0  0  0  0  0  0
   39.2040   -4.9830   64.9610 O   0  0  0  0  0  0
   39.0220   -2.1980   66.7140 C   0  0  0  0  0  0
   38.2290   -1.8750   65.4490 C   0  0  0  0  0  0
   37.7350   -0.4400   65.4050 C   0  0  0  0  0  0
   38.2710    0.4380   66.0830 O   0  0  0  0  0  0
   36.7070   -0.1930   64.6000 N   0  0  0  0  0  0
   41.1820   -4.3470   65.8290 N   0  0  0  0  0  0
   41.9830   -5.0220   64.8130 C   0  0  0  0  0  0
   41.8060   -6.5290   64.8480 C   0  0  0  0  0  0
   42.0640   -7.2140   63.8590 O   0  0  0  0  0  0
   41.3640   -7.0430   65.9920 N   0  0  0  0  0  0
   41.1040   -8.4720   66.1440 C   0  0  2  0  0  0
   39.7560   -8.8600   65.5400 C   0  0  0  0  0  0
   39.6340   -9.9010   64.8920 O   0  0  0  0  0  0
   41.1710   -8.9130   67.6300 C   0  0  2  0  0  0
   42.5890   -9.3590   67.9950 C   0  0  0  0  0  0
   40.2150  -10.0700   67.9000 C   0  0  0  0  0  0
   43.6490   -8.2920   67.8270 C   0  0  0  0  0  0
   38.7500   -8.0140   65.7430 N   0  0  0  0  0  0
   37.3980   -8.3180   65.2820 C   0  0  2  0  0  0
   37.0680   -7.7120   63.9190 C   0  0  0  0  0  0
   35.9640   -7.8950   63.4110 O   0  0  0  0  0  0
   36.3310   -7.8820   66.3090 C   0  0  2  0  0  0
   36.5770   -6.5300   66.7120 O   0  0  0  0  0  0
   36.3670   -8.7880   67.5330 C   0  0  0  0  0  0
   38.0210   -6.9980   63.3270 N   0  0  0  0  0  0
   37.8170   -6.4310   61.9930 C   0  0  2  0  0  0
   37.7100   -7.5000   60.9060 C   0  0  0  0  0  0
   36.8070   -7.4440   60.0740 O   0  0  0  0  0  0
   38.9110   -5.4190   61.6400 C   0  0  0  0  0  0
   38.5580   -3.9840   61.9810 C   0  0  0  0  0  0
   39.5850   -3.0190   61.4190 C   0  0  0  0  0  0
   39.1950   -1.5800   61.6980 C   0  0  0  0  0  0
   40.2670   -0.6400   61.2770 N   0  3  0  0  0  0
   38.6340   -8.4770   60.9040 N   0  0  0  0  0  0
   38.5670   -9.5450   59.9080 C   0  0  2  0  0  0
   37.3730  -10.4690   60.1400 C   0  0  0  0  0  0
   36.8610  -11.0680   59.1940 O   0  0  0  0  0  0
   39.8800  -10.3140   60.1210 C   0  0  0  0  0  0
   40.7440   -9.4140   60.9600 C   0  0  0  0  0  0
   39.7910   -8.6400   61.8000 C   0  0  0  0  0  0
   36.9420  -10.5790   61.3930 N   0  0  0  0  0  0
   35.8150  -11.4350   61.7490 C   0  0  2  0  0  0
   34.4940  -10.8240   61.2920 C   0  0  0  0  0  0
   33.6400  -11.5160   60.7380 O   0  0  0  0  0  0
   35.7960  -11.6910   63.2500 C   0  0  0  0  0  0
   34.3360   -9.5250   61.5310 N   0  0  0  0  0  0
   33.1400   -8.8000   61.1160 C   0  0  2  0  0  0
   33.0670   -8.6930   59.5920 C   0  0  0  0  0  0
   32.0020   -8.8760   59.0010 O   0  0  0  0  0  0
   33.0840   -7.3840   61.7400 C   0  0  2  0  0  0
   33.1650   -7.4590   63.2680 C   0  0  0  0  0  0
   31.8180   -6.6510   61.3130 C   0  0  0  0  0  0
   32.0680   -8.2790   63.9130 C   0  0  0  0  0  0
   34.2030   -8.4030   58.9630 N   0  0  0  0  0  0
   34.2650   -8.2820   57.5080 C   0  0  2  0  0  0
   33.9630   -9.6070   56.8160 C   0  0  0  0  0  0
   33.4510   -9.6250   55.6980 O   0  0  0  0  0  0
   35.6200   -7.7270   57.0520 C   0  0  0  0  0  0
   35.7960   -6.2380   57.3260 C   0  0  0  0  0  0
   37.1400   -5.7140   56.8360 C   0  0  0  0  0  0
   37.3620   -4.3310   57.2550 N   0  0  0  0  0  0
   38.3490   -3.5570   56.8110 C   0  0  0  0  0  0
   39.2170   -4.0230   55.9220 N   0  0  0  0  0  0
   38.4650   -2.3110   57.2540 N   0  0  0  0  0  0
   34.2790  -10.7140   57.4800 N   0  0  0  0  0  0
   33.9090  -12.0270   56.9630 C   0  0  2  0  0  0
   32.4160  -12.2670   57.1450 C   0  0  0  0  0  0
   31.7510  -12.7970   56.2550 O   0  0  0  0  0  0
   34.7180  -13.1410   57.6330 C   0  0  0  0  0  0
   36.0170  -13.4700   56.9130 C   0  0  0  0  0  0
   36.4830  -14.8910   57.2070 C   0  0  0  0  0  0
   37.3660  -14.9670   58.3670 N   0  0  0  0  0  0
   36.9830  -15.3560   59.5800 C   0  0  0  0  0  0
   35.7230  -15.7070   59.8030 N   0  0  0  0  0  0
   37.8620  -15.3930   60.5720 N   0  0  0  0  0  0
   31.8960  -11.8650   58.3020 N   0  0  0  0  0  0
   30.4730  -11.9830   58.5950 C   0  0  2  0  0  0
   29.6480  -11.1480   57.6180 C   0  0  0  0  0  0
   28.5250  -11.5100   57.2650 O   0  0  0  0  0  0
   30.1920  -11.5400   60.0330 C   0  0  0  0  0  0
   28.7690  -11.7220   60.5660 C   0  0  0  0  0  0
   28.4200  -13.2000   60.6900 C   0  0  0  0  0  0
   28.6040  -11.0160   61.9040 C   0  0  0  0  0  0
   30.2210  -10.0310   57.1800 N   0  0  0  0  0  0
   29.5510   -9.1240   56.2570 C   0  0  2  0  0  0
   29.4040   -9.7310   54.8650 C   0  0  0  0  0  0
   28.4320   -9.4630   54.1590 O   0  0  0  0  0  0
   30.3060   -7.8060   56.1820 C   0  0  0  0  0  0
   30.3760  -10.5500   54.4780 N   0  0  0  0  0  0
   30.4040  -11.1300   53.1400 C   0  0  2  0  0  0
   29.6700  -12.4670   53.0870 C   0  0  0  0  0  0
   29.4620  -13.0310   52.0110 O   0  0  0  0  0  0
   31.8490  -11.2690   52.6550 C   0  0  0  0  0  0
   32.6110   -9.9510   52.6760 C   0  0  0  0  0  0
   34.1030  -10.1390   52.4710 C   0  0  0  0  0  0
   34.4230  -10.4480   51.0820 N   0  0  0  0  0  0
   34.8190  -11.6410   50.6550 C   0  0  0  0  0  0
   34.9560  -12.6420   51.5140 N   0  0  0  0  0  0
   35.0840  -11.8300   49.3700 N   0  0  0  0  0  0
   29.2800  -12.9670   54.2550 N   0  0  0  0  0  0
   28.4460  -14.1580   54.3370 C   0  0  2  0  0  0
   27.0030  -13.7500   54.6030 C   0  0  0  0  0  0
   26.1080  -14.5940   54.6590 O   0  0  0  0  0  0
   28.9300  -15.0860   55.4490 C   0  0  0  0  0  0
   30.3480  -15.5950   55.2770 C   0  0  0  0  0  0
   30.7120  -16.5290   56.4160 C   0  0  0  0  0  0
   32.1560  -16.6940   56.5560 N   0  0  0  0  0  0
   32.7430  -17.2550   57.6090 C   0  0  0  0  0  0
   32.0100  -17.7040   58.6190 N   0  0  0  0  0  0
   34.0640  -17.3640   57.6530 N   0  0  0  0  0  0
   26.7870  -12.4480   54.7740 N   0  0  0  0  0  0
   25.4560  -11.9080   55.0240 C   0  0  0  0  0  0
   25.1120  -11.8630   56.5000 C   0  0  0  0  0  0
   23.9410  -11.9270   56.8750 O   0  0  0  0  0  0
   26.0857  -11.7532   57.3993 O   0  0  0  0  0  0
   49.7098   -4.9243   68.9105 H   0  0  0  0  0  0
   48.8019   -5.3808   70.3917 H   0  0  0  0  0  0
   49.0309   -3.6481   69.9769 H   0  0  0  0  0  0
   47.7217   -3.9026   68.0104 H   0  0  0  0  0  0
   47.7630   -6.8325   68.8007 H   0  0  0  0  0  0
   46.3136   -6.2010   67.9480 H   0  0  0  0  0  0
   49.4853   -5.3762   65.5364 H   0  0  0  0  0  0
   45.4150   -3.7388   67.8823 H   0  0  0  0  0  0
   44.3256   -3.5935   70.7192 H   0  0  0  0  0  0
   42.8110   -1.7857   69.9472 H   0  0  0  0  0  0
   44.5050   -1.3907   69.4988 H   0  0  0  0  0  0
   45.0484   -2.7979   67.2494 H   0  0  0  0  0  0
   43.8425   -2.2524   65.8789 H   0  0  0  0  0  0
   41.8698   -3.6715   70.8945 H   0  0  0  0  0  0
   41.3157   -6.3511   69.8950 H   0  0  0  0  0  0
   38.8329   -5.5465   70.8964 H   0  0  0  0  0  0
   40.9470   -3.5537   71.7458 H   0  0  0  0  0  0
   39.2098   -3.2960   71.3687 H   0  0  0  0  0  0
   40.2156   -7.4105   71.7172 H   0  0  0  0  0  0
   39.5816   -6.4028   73.0622 H   0  0  0  0  0  0
   41.2956   -6.2413   72.5498 H   0  0  0  0  0  0
   39.6809   -2.9436   73.7175 H   0  0  0  0  0  0
   40.3324   -4.6120   73.8547 H   0  0  0  0  0  0
   38.5951   -4.3544   73.4776 H   0  0  0  0  0  0
   40.3624   -3.1300   68.7625 H   0  0  0  0  0  0
   38.1498   -4.1217   67.1380 H   0  0  0  0  0  0
   38.5062   -1.7159   67.5575 H   0  0  0  0  0  0
   40.0230   -1.7573   66.5961 H   0  0  0  0  0  0
   38.8656   -2.0351   64.5663 H   0  0  0  0  0  0
   37.3487   -2.5320   65.3903 H   0  0  0  0  0  0
   36.2598   -1.0087   64.0130 H   0  0  0  0  0  0
   36.3033    0.8272   64.5207 H   0  0  0  0  0  0
   41.6759   -3.7743   66.6278 H   0  0  0  0  0  0
   41.6849   -4.6669   63.8155 H   0  0  0  0  0  0
   43.0476   -4.8000   64.9782 H   0  0  0  0  0  0
   41.1945   -6.3601   66.8376 H   0  0  0  0  0  0
   41.9113   -8.9464   65.5668 H   0  0  0  0  0  0
   40.8801   -8.0571   68.2568 H   0  0  0  0  0  0
   42.6153   -9.6707   69.0496 H   0  0  0  0  0  0
   42.8836  -10.2041   67.3554 H   0  0  0  0  0  0
   39.1896   -9.7661   67.6426 H   0  0  0  0  0  0
   40.2604  -10.3423   68.9648 H   0  0  0  0  0  0
   40.5054  -10.9362   67.2873 H   0  0  0  0  0  0
   44.6296   -8.7014   68.1112 H   0  0  0  0  0  0
   43.4097   -7.4329   68.4709 H   0  0  0  0  0  0
   43.6781   -7.9662   66.7768 H   0  0  0  0  0  0
   38.9522   -7.0697   66.2697 H   0  0  0  0  0  0
   37.4346   -9.4127   65.1803 H   0  0  0  0  0  0
   35.3260   -7.8895   65.8620 H   0  0  0  0  0  0
   36.5902   -5.7261   65.9613 H   0  0  0  0  0  0
   36.1782   -9.8272   67.2256 H   0  0  0  0  0  0
   35.5929   -8.4705   68.2471 H   0  0  0  0  0  0
   37.3559   -8.7206   68.0101 H   0  0  0  0  0  0
   38.9729   -6.8359   63.8539 H   0  0  0  0  0  0
   36.8456   -5.9221   62.0795 H   0  0  0  0  0  0
   39.8307   -5.6664   62.1904 H   0  0  0  0  0  0
   39.1097   -5.4560   60.5587 H   0  0  0  0  0  0
   37.5743   -3.7373   61.5551 H   0  0  0  0  0  0
   38.5248   -3.8643   63.0740 H   0  0  0  0  0  0
   40.5633   -3.2138   61.8826 H   0  0  0  0  0  0
   39.6610   -3.1574   60.3304 H   0  0  0  0  0  0
   38.2767   -1.3350   61.1442 H   0  0  0  0  0  0
   39.0186   -1.4503   62.7760 H   0  0  0  0  0  0
   39.9545    0.3925   61.4920 H   0  0  0  0  0  0
   40.4488   -0.7509   60.1978 H   0  0  0  0  0  0
   41.1908   -0.8662   61.8297 H   0  0  0  0  0  0
   38.4376   -9.1103   58.9058 H   0  0  0  0  0  0
   39.6698  -11.2626   60.6367 H   0  0  0  0  0  0
   40.3455  -10.5219   59.1463 H   0  0  0  0  0  0
   41.4226  -10.0249   61.5735 H   0  0  0  0  0  0
   41.3340   -8.7567   60.3044 H   0  0  0  0  0  0
   40.1784   -7.6500   62.0824 H   0  0  0  0  0  0
   39.4807   -9.1839   62.7043 H   0  0  0  0  0  0
   37.4613  -10.0011   62.1717 H   0  0  0  0  0  0
   35.9813  -12.3804   61.2119 H   0  0  0  0  0  0
   36.7557  -12.1309   63.5591 H   0  0  0  0  0  0
   34.9788  -12.3861   63.4931 H   0  0  0  0  0  0
   35.6398  -10.7410   63.7820 H   0  0  0  0  0  0
   35.1434   -8.9971   62.0596 H   0  0  0  0  0  0
   32.3122   -9.4191   61.4923 H   0  0  0  0  0  0
   33.9458   -6.8054   61.3759 H   0  0  0  0  0  0
   34.1217   -7.9151   63.5625 H   0  0  0  0  0  0
   33.0972   -6.4450   63.6890 H   0  0  0  0  0  0
   31.7737   -6.6050   60.2149 H   0  0  0  0  0  0
   31.8296   -5.6302   61.7226 H   0  0  0  0  0  0
   30.9370   -7.1887   61.6934 H   0  0  0  0  0  0
   32.2035   -8.2785   65.0046 H   0  0  0  0  0  0
   32.1140   -9.3122   63.5383 H   0  0  0  0  0  0
   31.0895   -7.8421   63.6647 H   0  0  0  0  0  0
   35.1104   -8.2532   59.5665 H   0  0  0  0  0  0
   33.4679   -7.5653   57.2611 H   0  0  0  0  0  0
   36.4285   -8.2547   57.5792 H   0  0  0  0  0  0
   35.7311   -7.8757   55.9678 H   0  0  0  0  0  0
   35.0032   -5.6744   56.8123 H   0  0  0  0  0  0
   35.7335   -6.0545   58.4088 H   0  0  0  0  0  0
   37.9483   -6.3361   57.2478 H   0  0  0  0  0  0
   37.1705   -5.7536   55.7371 H   0  0  0  0  0  0
   36.6871   -3.8629   57.9867 H   0  0  0  0  0  0
   39.1249   -5.0548   55.5520 H   0  0  0  0  0  0
   37.7479   -1.9203   57.9909 H   0  0  0  0  0  0
   39.2782   -1.6692   56.8842 H   0  0  0  0  0  0
   34.8264  -10.6315   58.4305 H   0  0  0  0  0  0
   34.1548  -11.9949   55.8913 H   0  0  0  0  0  0
   34.9788  -12.8390   58.6581 H   0  0  0  0  0  0
   34.1179  -14.0624   57.6637 H   0  0  0  0  0  0
   35.8692  -13.3728   55.8273 H   0  0  0  0  0  0
   36.8038  -12.7741   57.2397 H   0  0  0  0  0  0
   35.6097  -15.5293   57.4066 H   0  0  0  0  0  0
   37.0333  -15.2834   56.3391 H   0  0  0  0  0  0
   38.4266  -14.6918   58.2699 H   0  0  0  0  0  0
   34.9905  -15.6778   58.9829 H   0  0  0  0  0  0
   35.4109  -16.0272   60.8080 H   0  0  0  0  0  0
   38.9076  -15.1028   60.3915 H   0  0  0  0  0  0
   32.5774  -11.4322   59.0493 H   0  0  0  0  0  0
   30.2311  -13.0484   58.4668 H   0  0  0  0  0  0
   30.8344  -12.1064   60.7233 H   0  0  0  0  0  0
   30.4036  -10.4652   60.1336 H   0  0  0  0  0  0
   28.0685  -11.2673   59.8501 H   0  0  0  0  0  0
   28.5460  -13.6897   59.7131 H   0  0  0  0  0  0
   27.3759  -13.3037   61.0202 H   0  0  0  0  0  0
   29.0862  -13.6735   61.4262 H   0  0  0  0  0  0
   28.8607   -9.9523   61.7914 H   0  0  0  0  0  0
   29.2712  -11.4776   62.6468 H   0  0  0  0  0  0
   27.5609  -11.1078   62.2408 H   0  0  0  0  0  0
   31.2354   -9.8011   57.5379 H   0  0  0  0  0  0
   28.5488   -8.9703   56.6836 H   0  0  0  0  0  0
   30.4037   -7.3814   57.1920 H   0  0  0  0  0  0
   29.7540   -7.1032   55.5406 H   0  0  0  0  0  0
   31.3064   -7.9801   55.7591 H   0  0  0  0  0  0
   31.1738  -10.7874   55.1972 H   0  0  0  0  0  0
   29.8603  -10.4167   52.5031 H   0  0  0  0  0  0
   32.3867  -11.9769   53.3029 H   0  0  0  0  0  0
   31.8542  -11.6423   51.6203 H   0  0  0  0  0  0
   32.2382   -9.2991   51.8722 H   0  0  0  0  0  0
   32.4623   -9.4569   53.6475 H   0  0  0  0  0  0
   34.6307   -9.2151   52.7501 H   0  0  0  0  0  0
   34.4580  -10.9684   53.1004 H   0  0  0  0  0  0
   34.3421   -9.6666   50.3120 H   0  0  0  0  0  0
   34.7362  -12.4856   52.5804 H   0  0  0  0  0  0
   35.2894  -13.6287   51.1601 H   0  0  0  0  0  0
   34.9705  -11.0000   48.6571 H   0  0  0  0  0  0
   29.6032  -12.4575   55.1748 H   0  0  0  0  0  0
   28.5399  -14.6619   53.3637 H   0  0  0  0  0  0
   28.8978  -14.5534   56.4109 H   0  0  0  0  0  0
   28.2783  -15.9708   55.4978 H   0  0  0  0  0  0
   30.4290  -16.1400   54.3250 H   0  0  0  0  0  0
   31.0451  -14.7441   55.2728 H   0  0  0  0  0  0
   30.3218  -16.1239   57.3613 H   0  0  0  0  0  0
   30.2717  -17.5202   56.2324 H   0  0  0  0  0  0
   32.8294  -16.3438   55.7598 H   0  0  0  0  0  0
   30.9141  -17.6150   58.5855 H   0  0  0  0  0  0
   32.4979  -18.1654   59.4902 H   0  0  0  0  0  0
   34.6747  -16.9926   56.8169 H   0  0  0  0  0  0
   27.6536  -11.7726   54.7215 H   0  0  0  0  0  0
   25.3972  -10.8817   54.6324 H   0  0  0  0  0  0
   24.7053  -12.5357   54.5216 H   0  0  0  0  0  0
   25.8428  -11.7200   58.4716 H   0  0  0  0  0  0
  1  2  1  0  0  0
  1144  1  0  0  0
  1145  1  0  0  0
  1146  1  0  0  0
  2  5  1  0  0  0
  2  3  1  0  0  0
  2147  1  0  0  0
  3  4  2  0  0  0
  3  9  1  0  0  0
  5  6  1  0  0  0
  5148  1  0  0  0
  5149  1  0  0  0
  6  7  2  0  0  0
  6  8  1  0  0  0
  8150  1  0  0  0
  9 10  1  0  0  0
  9151  1  0  0  0
 10 13  1  0  0  0
 10 11  1  0  0  0
 10152  1  0  0  0
 11 12  2  0  0  0
 11 17  1  0  0  0
 13 14  1  0  0  0
 13153  1  0  0  0
 13154  1  0  0  0
 14 16  1  0  0  0
 14 15  2  0  0  0
 16155  1  0  0  0
 16156  1  0  0  0
 17 18  1  0  0  0
 17157  1  0  0  0
 18 21  1  0  0  0
 18 19  1  0  0  0
 18158  1  0  0  0
 19 20  2  0  0  0
 19 25  1  0  0  0
 21 23  1  0  0  0
 21 22  1  0  0  0
 21159  1  0  0  0
 22 24  1  0  0  0
 22160  1  0  0  0
 22161  1  0  0  0
 23162  1  0  0  0
 23163  1  0  0  0
 23164  1  0  0  0
 24165  1  0  0  0
 24166  1  0  0  0
 24167  1  0  0  0
 25 26  1  0  0  0
 25168  1  0  0  0
 26 29  1  0  0  0
 26 27  1  0  0  0
 26169  1  0  0  0
 27 28  2  0  0  0
 27 34  1  0  0  0
 29 30  1  0  0  0
 29170  1  0  0  0
 29171  1  0  0  0
 30 31  1  0  0  0
 30172  1  0  0  0
 30173  1  0  0  0
 31 33  1  0  0  0
 31 32  2  0  0  0
 33174  1  0  0  0
 33175  1  0  0  0
 34 35  1  0  0  0
 34176  1  0  0  0
 35 36  1  0  0  0
 35177  1  0  0  0
 35178  1  0  0  0
 36 37  2  0  0  0
 36 38  1  0  0  0
 38 39  1  0  0  0
 38179  1  0  0  0
 39 42  1  0  0  0
 39 40  1  0  0  0
 39180  1  0  0  0
 40 41  2  0  0  0
 40 46  1  0  0  0
 42 44  1  0  0  0
 42 43  1  0  0  0
 42181  1  0  0  0
 43 45  1  0  0  0
 43182  1  0  0  0
 43183  1  0  0  0
 44184  1  0  0  0
 44185  1  0  0  0
 44186  1  0  0  0
 45187  1  0  0  0
 45188  1  0  0  0
 45189  1  0  0  0
 46 47  1  0  0  0
 46190  1  0  0  0
 47 50  1  0  0  0
 47 48  1  0  0  0
 47191  1  0  0  0
 48 49  2  0  0  0
 48 53  1  0  0  0
 50 52  1  0  0  0
 50 51  1  0  0  0
 50192  1  0  0  0
 51193  1  0  0  0
 52194  1  0  0  0
 52195  1  0  0  0
 52196  1  0  0  0
 53 54  1  0  0  0
 53197  1  0  0  0
 54 57  1  0  0  0
 54 55  1  0  0  0
 54198  1  0  0  0
 55 56  2  0  0  0
 55 62  1  0  0  0
 57 58  1  0  0  0
 57199  1  0  0  0
 57200  1  0  0  0
 58 59  1  0  0  0
 58201  1  0  0  0
 58202  1  0  0  0
 59 60  1  0  0  0
 59203  1  0  0  0
 59204  1  0  0  0
 60 61  1  0  0  0
 60205  1  0  0  0
 60206  1  0  0  0
 61207  1  0  0  0
 61208  1  0  0  0
 61209  1  0  0  0
 62 63  1  0  0  0
 62 68  1  0  0  0
 63 64  1  0  0  0
 63 66  1  0  0  0
 63210  1  0  0  0
 64 65  2  0  0  0
 64 69  1  0  0  0
 66 67  1  0  0  0
 66211  1  0  0  0
 66212  1  0  0  0
 67 68  1  0  0  0
 67213  1  0  0  0
 67214  1  0  0  0
 68215  1  0  0  0
 68216  1  0  0  0
 69 70  1  0  0  0
 69217  1  0  0  0
 70 73  1  0  0  0
 70 71  1  0  0  0
 70218  1  0  0  0
 71 72  2  0  0  0
 71 74  1  0  0  0
 73219  1  0  0  0
 73220  1  0  0  0
 73221  1  0  0  0
 74 75  1  0  0  0
 74222  1  0  0  0
 75 78  1  0  0  0
 75 76  1  0  0  0
 75223  1  0  0  0
 76 77  2  0  0  0
 76 82  1  0  0  0
 78 80  1  0  0  0
 78 79  1  0  0  0
 78224  1  0  0  0
 79 81  1  0  0  0
 79225  1  0  0  0
 79226  1  0  0  0
 80227  1  0  0  0
 80228  1  0  0  0
 80229  1  0  0  0
 81230  1  0  0  0
 81231  1  0  0  0
 81232  1  0  0  0
 82 83  1  0  0  0
 82233  1  0  0  0
 83 86  1  0  0  0
 83 84  1  0  0  0
 83234  1  0  0  0
 84 85  2  0  0  0
 84 93  1  0  0  0
 86 87  1  0  0  0
 86235  1  0  0  0
 86236  1  0  0  0
 87 88  1  0  0  0
 87237  1  0  0  0
 87238  1  0  0  0
 88 89  1  0  0  0
 88239  1  0  0  0
 88240  1  0  0  0
 89 90  1  0  0  0
 89241  1  0  0  0
 90 92  1  0  0  0
 90 91  2  0  0  0
 91242  1  0  0  0
 92243  1  0  0  0
 92244  1  0  0  0
 93 94  1  0  0  0
 93245  1  0  0  0
 94 97  1  0  0  0
 94 95  1  0  0  0
 94246  1  0  0  0
 95 96  2  0  0  0
 95104  1  0  0  0
 97 98  1  0  0  0
 97247  1  0  0  0
 97248  1  0  0  0
 98 99  1  0  0  0
 98249  1  0  0  0
 98250  1  0  0  0
 99100  1  0  0  0
 99251  1  0  0  0
 99252  1  0  0  0
100101  1  0  0  0
100253  1  0  0  0
101103  2  0  0  0
101102  1  0  0  0
102254  1  0  0  0
102255  1  0  0  0
103256  1  0  0  0
104105  1  0  0  0
104257  1  0  0  0
105108  1  0  0  0
105106  1  0  0  0
105258  1  0  0  0
106107  2  0  0  0
106112  1  0  0  0
108109  1  0  0  0
108259  1  0  0  0
108260  1  0  0  0
109110  1  0  0  0
109111  1  0  0  0
109261  1  0  0  0
110262  1  0  0  0
110263  1  0  0  0
110264  1  0  0  0
111265  1  0  0  0
111266  1  0  0  0
111267  1  0  0  0
112113  1  0  0  0
112268  1  0  0  0
113116  1  0  0  0
113114  1  0  0  0
113269  1  0  0  0
114115  2  0  0  0
114117  1  0  0  0
116270  1  0  0  0
116271  1  0  0  0
116272  1  0  0  0
117118  1  0  0  0
117273  1  0  0  0
118121  1  0  0  0
118119  1  0  0  0
118274  1  0  0  0
119120  2  0  0  0
119128  1  0  0  0
121122  1  0  0  0
121275  1  0  0  0
121276  1  0  0  0
122123  1  0  0  0
122277  1  0  0  0
122278  1  0  0  0
123124  1  0  0  0
123279  1  0  0  0
123280  1  0  0  0
124125  1  0  0  0
124281  1  0  0  0
125127  2  0  0  0
125126  1  0  0  0
126282  1  0  0  0
126283  1  0  0  0
127284  1  0  0  0
128129  1  0  0  0
128285  1  0  0  0
129132  1  0  0  0
129130  1  0  0  0
129286  1  0  0  0
130131  2  0  0  0
130139  1  0  0  0
132133  1  0  0  0
132287  1  0  0  0
132288  1  0  0  0
133134  1  0  0  0
133289  1  0  0  0
133290  1  0  0  0
134135  1  0  0  0
134291  1  0  0  0
134292  1  0  0  0
135136  1  0  0  0
135293  1  0  0  0
136138  2  0  0  0
136137  1  0  0  0
137294  1  0  0  0
137295  1  0  0  0
138296  1  0  0  0
139140  1  0  0  0
139297  1  0  0  0
140141  1  0  0  0
140298  1  0  0  0
140299  1  0  0  0
141142  2  0  0  0
141143  1  0  0  0
143300  1  0  0  0
M  CHG  2   1   1  61   1
M  END
> <s_m_source_file>
../3cfv_ligand.sdf

> <i_m_source_file_index>
1

> <s_epik_input>
Tz1DKFtPSF0pW0NIMl1bQ0BIXShbTkgzK10pQyg9TylbTkhdW0NAQEhdKFtDSDJdQyg9TylbTkgyXSlDKD1PKVtOSF1bQ0BASF0oW0NAQEhdKFtDSDNdKVtDSDJdW0NIM10pQyg9TylbTkhdW0NAQEhdKFtDSDJdW0NIMl1DKD1PKVtOSDJdKUMoPU8pW05IXVtDSDJdQyg9TylbTkhdW0NAQEhdKFtDQEBIXShbQ0gzXSlbQ0gyXVtDSDNdKUMoPU8pW05IXVtDQEBIXShbQ0BIXShbT0hdKVtDSDNdKUMoPU8pW05IXVtDQEBIXShbQ0gyXVtDSDJdW0NIMl1bQ0gyXVtOSDMrXSlDKD1PKU4xW0NAQEhdKFtDSDJdW0NIMl1bQ0gyXTEpQyg9TylbTkhdW0NAQEhdKFtDSDNdKUMoPU8pW05IXVtDQEBIXShbQ0BASF0oW0NIM10pW0NIMl1bQ0gzXSlDKD1PKVtOSF1bQ0BASF0oW0NIMl1bQ0gyXVtDSDJdW05IXS9DKD1OXFtIXSlbTkgyXSlDKD1PKVtOSF1bQ0BASF0oW0NIMl1bQ0gyXVtDSDJdW05IXS9DKFtOSDJdKT1OXFtIXSlDKD1PKVtOSF1bQ0BASF0oW0NIMl1bQ0hdKFtDSDNdKVtDSDNdKUMoPU8pW05IXVtDQEBIXShbQ0gzXSlDKD1PKVtOSF1bQ0BASF0oW0NIMl1bQ0gyXVtDSDJdW05IXS9DKFtOSDJdKT1OXFtIXSlDKD1PKVtOSF1bQ0BIXShDKD1PKVtOSF1bQ0gyXUMoPU8pW09IXSlbQ0gyXVtDSDJdW0NIMl1bTkhdL0MoW05IMl0pPU5cW0hd

> <s_epik_cmdline>
J2VwaWtfYXBwJywgJy1pbWFlJywgJ2xpZ2FuZF9wcm8ubWFlJywgJy1vbWFlJywgJ2xpZ2FuZF9wcmVwLm1hZScsICctbXMnLCAnMScsICctcGgnLCAnNycsICctcGh0JywgJzAuNScsICctbnQn

> <s_epik_pKa_notes>
Molecule size exceeds maximum supported for generating protonation states

> <s_epik_Chemistry_Notes>
This compound has an imine and may undergo hydrolysis.

$$$$
