3cgf_ligand
                    3D
 Schrodinger Suite 2020-3.
 44 47  0  0  1  0            999 V2000
   23.3980   14.4120   31.4350 C   0  0  0  0  0  0
   23.4600   12.9400   31.4580 N   0  0  0  0  0  0
   22.2030   12.3420   31.9200 C   0  0  0  0  0  0
   22.0200   10.9450   31.9390 N   0  0  0  0  0  0
   20.8100   10.4410   32.4230 C   0  0  0  0  0  0
   20.6370    8.9730   32.4020 C   0  0  0  0  0  0
   21.5540    8.0260   31.9580 N   0  0  0  0  0  0
   20.9470    6.7500   32.1400 C   0  0  0  0  0  0
   21.7120    5.5940   31.7420 C   0  0  0  0  0  0
   22.9680    5.7590   31.2180 C   0  0  0  0  0  0
   23.5680    7.0920   31.0400 C   0  0  0  0  0  0
   22.8540    8.1820   31.4130 C   0  0  0  0  0  0
   19.7500    6.8430   32.6510 N   0  0  0  0  0  0
   19.5460    8.1980   32.8210 C   0  0  0  0  0  0
   19.7790   11.2500   32.8930 C   0  0  0  0  0  0
   20.0370   12.6230   32.8490 C   0  0  0  0  0  0
   21.2060   13.1870   32.3760 N   0  0  0  0  0  0
   24.0810   12.3550   30.2260 C   0  0  0  0  0  0
   23.1530   12.1860   28.9940 C   0  0  0  0  0  0
   23.9100   11.5850   27.7900 C   0  0  0  0  0  0
   24.5210   10.2090   28.1200 C   0  0  0  0  0  0
   25.4190   10.2600   29.3640 C   0  0  0  0  0  0
   24.7430   10.9790   30.5650 C   0  0  0  0  0  0
   22.9336   14.7740   32.3641 H   0  0  0  0  0  0
   22.7983   14.7403   30.5733 H   0  0  0  0  0  0
   24.4158   14.8206   31.3504 H   0  0  0  0  0  0
   21.2936    4.5941   31.8573 H   0  0  0  0  0  0
   23.5390    4.8781   30.9247 H   0  0  0  0  0  0
   24.5666    7.1999   30.6166 H   0  0  0  0  0  0
   23.2790    9.1787   31.2941 H   0  0  0  0  0  0
   18.6320    8.6212   33.2376 H   0  0  0  0  0  0
   18.8399   10.8427   33.2676 H   0  0  0  0  0  0
   19.2611   13.2962   33.2136 H   0  0  0  0  0  0
   24.8036   13.1371   29.9498 H   0  0  0  0  0  0
   22.3209   11.5142   29.2512 H   0  0  0  0  0  0
   22.7539   13.1674   28.6982 H   0  0  0  0  0  0
   23.2156   11.4588   26.9462 H   0  0  0  0  0  0
   24.7260   12.2612   27.4953 H   0  0  0  0  0  0
   23.7143    9.4854   28.3090 H   0  0  0  0  0  0
   25.1304    9.8653   27.2712 H   0  0  0  0  0  0
   25.6653    9.2358   29.6807 H   0  0  0  0  0  0
   26.3455   10.8028   29.1254 H   0  0  0  0  0  0
   25.5251   11.1256   31.3245 H   0  0  0  0  0  0
   23.9786   10.2903   30.9541 H   0  0  0  0  0  0
  1  2  1  0  0  0
  1 24  1  0  0  0
  1 25  1  0  0  0
  1 26  1  0  0  0
  2  3  1  0  0  0
  2 18  1  0  0  0
  3  4  2  0  0  0
  3 17  1  0  0  0
  4  5  1  0  0  0
  5  6  1  0  0  0
  5 15  2  0  0  0
  6  7  1  0  0  0
  6 14  2  0  0  0
  7  8  1  0  0  0
  7 12  1  0  0  0
  8  9  1  0  0  0
  8 13  2  0  0  0
  9 10  2  0  0  0
  9 27  1  0  0  0
 10 11  1  0  0  0
 10 28  1  0  0  0
 11 12  2  0  0  0
 11 29  1  0  0  0
 12 30  1  0  0  0
 13 14  1  0  0  0
 14 31  1  0  0  0
 15 16  1  0  0  0
 15 32  1  0  0  0
 16 17  2  0  0  0
 16 33  1  0  0  0
 18 19  1  0  0  0
 18 23  1  0  0  0
 18 34  1  0  0  0
 19 20  1  0  0  0
 19 35  1  0  0  0
 19 36  1  0  0  0
 20 21  1  0  0  0
 20 37  1  0  0  0
 20 38  1  0  0  0
 21 22  1  0  0  0
 21 39  1  0  0  0
 21 40  1  0  0  0
 22 23  1  0  0  0
 22 41  1  0  0  0
 22 42  1  0  0  0
 23 43  1  0  0  0
 23 44  1  0  0  0
M  END
> <s_m_source_file>
../3cgf_ligand.sdf

> <i_m_source_file_index>
1

> <s_epik_input>
W0NIMl0xW0NIMl1bQ0gyXVtDSDJdW0NIMl1bQ0hdMU4oW0NIM10pYzJuYyhbY0hdW2NIXW4yKS1jM1tjSF1uYyhuMzQpW2NIXVtjSF1bY0hdW2NIXTQ=

> <s_epik_cmdline>
J2VwaWtfYXBwJywgJy1pbWFlJywgJ2xpZ2FuZF9wcm8ubWFlJywgJy1vbWFlJywgJ2xpZ2FuZF9wcmVwLm1hZScsICctbXMnLCAnMScsICctcGgnLCAnNycsICctcGh0JywgJzAuNScsICctbnQn

> <r_lp_tautomer_probability>
1

> <r_epik_Ionization_Penalty>
  0.0186

> <r_epik_Ionization_Penalty_Charging>
  0.0178

> <r_epik_Ionization_Penalty_Neutral>
  0.0008

> <r_epik_State_Penalty>
  0.0141

> <r_epik_Charging_Adjusted_Penalty>
0.0319672204617096

> <i_epik_Tot_Q>
0

> <i_epik_Tot_abs_Q>
0

$$$$
