3cgo_ligand
                    3D
 Schrodinger Suite 2020-3.
 50 53  0  0  1  0            999 V2000
   26.8050    2.4860   28.4980 C   0  0  0  0  0  0
   26.3680    3.8360   28.2460 N   0  0  0  0  0  0
   27.2640    4.9060   28.2510 C   0  0  0  0  0  0
   28.4160    4.8490   27.8170 O   0  0  0  0  0  0
   26.6880    6.1780   28.8490 C   0  0  0  0  0  0
   25.4020    5.9070   29.5080 N   0  0  2  0  0  0
   24.4600    7.0470   29.3380 C   0  0  0  0  0  0
   23.1240    6.7750   30.0410 C   0  0  0  0  0  0
   23.3850    6.4960   31.5390 C   0  0  2  0  0  0
   24.3180    5.2860   31.6750 C   0  0  0  0  0  0
   25.6410    5.5730   30.9500 C   0  0  0  0  0  0
   22.1230    6.2460   32.2130 N   0  0  0  0  0  0
   21.2250    7.2460   32.5710 C   0  0  0  0  0  0
   21.6350    8.5360   32.4200 N   0  0  0  0  0  0
   20.7520    9.5410   32.7690 C   0  0  0  0  0  0
   19.4600    9.2760   33.2630 C   0  0  0  0  0  0
   19.1470    7.9360   33.3730 C   0  0  0  0  0  0
   19.9930    6.9200   33.0360 N   0  0  0  0  0  0
   21.2270   10.9320   32.5670 C   0  0  0  0  0  0
   22.4530   11.3450   32.0500 N   0  0  0  0  0  0
   23.5780   10.6090   31.5750 C   0  0  0  0  0  0
   24.6710   11.2680   31.1050 C   0  0  0  0  0  0
   24.6650   12.7340   31.1030 C   0  0  0  0  0  0
   23.5940   13.4550   31.5570 C   0  0  0  0  0  0
   22.4320   12.7670   32.0570 C   0  0  0  0  0  0
   21.3170   13.2350   32.5320 N   0  0  0  0  0  0
   20.5760   12.1270   32.8450 C   0  0  0  0  0  0
   25.9422    1.8057   28.4465 H   0  0  0  0  0  0
   27.2584    2.4281   29.4985 H   0  0  0  0  0  0
   27.5480    2.1938   27.7413 H   0  0  0  0  0  0
   25.3065    4.0418   28.0436 H   0  0  0  0  0  0
   27.3896    6.5840   29.5925 H   0  0  0  0  0  0
   26.5294    6.9190   28.0516 H   0  0  0  0  0  0
   24.9036    7.9566   29.7691 H   0  0  0  0  0  0
   24.2660    7.2058   28.2669 H   0  0  0  0  0  0
   22.4699    7.6533   29.9377 H   0  0  0  0  0  0
   22.6393    5.9008   29.5818 H   0  0  0  0  0  0
   23.8210    7.3686   32.0474 H   0  0  0  0  0  0
   24.5181    5.0951   32.7397 H   0  0  0  0  0  0
   23.8398    4.4021   31.2276 H   0  0  0  0  0  0
   26.2814    4.6813   31.0185 H   0  0  0  0  0  0
   26.1380    6.4203   31.4451 H   0  0  0  0  0  0
   21.8308    5.2170   32.4693 H   0  0  0  0  0  0
   18.7619   10.0670   33.5370 H   0  0  0  0  0  0
   18.1602    7.6726   33.7537 H   0  0  0  0  0  0
   23.5621    9.5192   31.5885 H   0  0  0  0  0  0
   25.5357   10.7162   30.7365 H   0  0  0  0  0  0
   25.5398   13.2657   30.7287 H   0  0  0  0  0  0
   23.6204   14.5445   31.5402 H   0  0  0  0  0  0
   19.5738   12.1778   33.2705 H   0  0  0  0  0  0
  1  2  1  0  0  0
  1 28  1  0  0  0
  1 29  1  0  0  0
  1 30  1  0  0  0
  2  3  1  0  0  0
  2 31  1  0  0  0
  3  4  2  0  0  0
  3  5  1  0  0  0
  5  6  1  0  0  0
  5 32  1  0  0  0
  5 33  1  0  0  0
  6  7  1  0  0  0
  6 11  1  0  0  0
  7  8  1  0  0  0
  7 34  1  0  0  0
  7 35  1  0  0  0
  8  9  1  0  0  0
  8 36  1  0  0  0
  8 37  1  0  0  0
  9 10  1  0  0  0
  9 12  1  0  0  0
  9 38  1  0  0  0
 10 11  1  0  0  0
 10 39  1  0  0  0
 10 40  1  0  0  0
 11 41  1  0  0  0
 11 42  1  0  0  0
 12 13  1  0  0  0
 12 43  1  0  0  0
 13 14  2  0  0  0
 13 18  1  0  0  0
 14 15  1  0  0  0
 15 16  2  0  0  0
 15 19  1  0  0  0
 16 17  1  0  0  0
 16 44  1  0  0  0
 17 18  2  0  0  0
 17 45  1  0  0  0
 19 20  1  0  0  0
 19 27  2  0  0  0
 20 21  1  0  0  0
 20 25  1  0  0  0
 21 22  2  0  0  0
 21 46  1  0  0  0
 22 23  1  0  0  0
 22 47  1  0  0  0
 23 24  2  0  0  0
 23 48  1  0  0  0
 24 25  1  0  0  0
 24 49  1  0  0  0
 25 26  2  0  0  0
 26 27  1  0  0  0
 27 50  1  0  0  0
M  END
> <s_m_source_file>
../3cgo_ligand.sdf

> <i_m_source_file_index>
1

> <s_epik_input>
W0NIM11bTkhdQyg9TylbQ0gyXVtOQEBIK10xW0NIMl1bQ0gyXVtDQEhdKFtDSDJdW0NIMl0xKVtOSF1jMm5jKFtjSF1bY0hdbjIpLWMzW2NIXW5jKG4zNClbY0hdW2NIXVtjSF1bY0hdNA==

> <s_epik_cmdline>
J2VwaWtfYXBwJywgJy1pbWFlJywgJ2xpZ2FuZF9wcm8ubWFlJywgJy1vbWFlJywgJ2xpZ2FuZF9wcmVwLm1hZScsICctbXMnLCAnMScsICctcGgnLCAnNycsICctcGh0JywgJzAuNScsICctbnQn

> <r_lp_tautomer_probability>
0.999999987636

> <r_epik_Ionization_Penalty>
  0.3684

> <r_epik_Ionization_Penalty_Charging>
  0.0178

> <r_epik_Ionization_Penalty_Neutral>
  0.3506

> <r_epik_State_Penalty>
  0.3458

> <r_epik_Charging_Adjusted_Penalty>
0.363603268140606

> <i_epik_Tot_Q>
0

> <i_epik_Tot_abs_Q>
0

$$$$
