3cgy_ligand
                    3D
 Schrodinger Suite 2020-3.
 41 43  0  0  1  0            999 V2000
   61.5240    6.3360   21.5630 C   0  0  0  0  0  0
   62.8820    6.9090   21.1560 C   0  0  0  0  0  0
   63.4600    6.5500   19.8740 C   0  0  0  0  0  0
   64.6940    7.0720   19.5010 C   0  0  0  0  0  0
   65.4060    7.9550   20.3150 C   0  0  0  0  0  0
   64.8940    8.3490   21.5910 C   0  0  0  0  0  0
   63.6360    7.8490   22.0260 C   0  0  0  0  0  0
   63.0800    8.2780   23.4190 C   0  0  0  0  0  0
   63.7520    7.6610   24.6050 C   0  0  0  0  0  0
   63.5800    6.2480   25.0280 C   0  0  0  0  0  0
   62.8090    5.2460   24.4130 C   0  0  0  0  0  0
   62.8020    3.9160   25.0880 C   0  0  0  0  0  0
   62.1820    2.7230   24.7390 C   0  0  0  0  0  0
   61.2860    2.1830   23.5620 C   0  0  2  0  0  0
   59.9760    2.9070   23.0280 C   0  0  1  0  0  0
   60.1880    3.3350   21.5530 C   0  0  0  0  0  0
   59.5630    4.7220   21.0980 C   0  0  1  0  0  0
   58.7080    5.4320   22.1880 C   0  0  0  0  0  0
   60.8340    5.4340   20.7530 O   0  0  0  0  0  0
   61.0580    6.6580   22.6850 O   0  0  0  0  0  0
   62.8520    5.6980   19.0480 O   0  0  0  0  0  0
   66.5830    8.4170   19.8710 O   0  5  0  0  0  0
   65.8360    9.4680   22.5760 Cl  0  0  0  0  0  0
   64.5000    8.4110   25.2950 O   0  0  0  0  0  0
   60.0430    1.5590   23.5940 O   0  0  0  0  0  0
   65.1197    6.7818   18.5404 H   0  0  0  0  0  0
   63.1862    9.3665   23.5367 H   0  0  0  0  0  0
   62.0172    8.0035   23.4900 H   0  0  0  0  0  0
   64.1510    6.0204   25.9402 H   0  0  0  0  0  0
   62.2563    5.4673   23.4880 H   0  0  0  0  0  0
   63.4094    3.9729   26.0033 H   0  0  0  0  0  0
   62.2749    1.8431   25.3926 H   0  0  0  0  0  0
   62.2452    1.8125   23.1713 H   0  0  0  0  0  0
   59.2216    3.6875   23.2060 H   0  0  0  0  0  0
   61.2652    3.4187   21.3467 H   0  0  0  0  0  0
   59.7442    2.5819   20.8853 H   0  0  0  0  0  0
   58.8424    4.6978   20.2673 H   0  0  0  0  0  0
   57.7976    4.8452   22.3797 H   0  0  0  0  0  0
   58.4296    6.4371   21.8385 H   0  0  0  0  0  0
   59.2927    5.5153   23.1160 H   0  0  0  0  0  0
   61.8753    5.2709   19.3196 H   0  0  0  0  0  0
  1  2  1  0  0  0
  1 19  1  0  0  0
  1 20  2  0  0  0
  2  3  2  0  0  0
  2  7  1  0  0  0
  3  4  1  0  0  0
  3 21  1  0  0  0
  4  5  2  0  0  0
  4 26  1  0  0  0
  5  6  1  0  0  0
  5 22  1  0  0  0
  6  7  2  0  0  0
  6 23  1  0  0  0
  7  8  1  0  0  0
  8  9  1  0  0  0
  8 27  1  0  0  0
  8 28  1  0  0  0
  9 10  1  0  0  0
  9 24  2  0  0  0
 10 11  2  0  0  0
 10 29  1  0  0  0
 11 12  1  0  0  0
 11 30  1  0  0  0
 12 13  2  0  0  0
 12 31  1  0  0  0
 13 14  1  0  0  0
 13 32  1  0  0  0
 14 15  1  0  0  0
 14 25  1  0  0  0
 14 33  1  0  0  0
 15 16  1  0  0  0
 15 25  1  0  0  0
 15 34  1  0  0  0
 16 17  1  0  0  0
 16 35  1  0  0  0
 16 36  1  0  0  0
 17 18  1  0  0  0
 17 19  1  0  0  0
 17 37  1  0  0  0
 18 38  1  0  0  0
 18 39  1  0  0  0
 18 40  1  0  0  0
 21 41  1  0  0  0
M  CHG  1  22  -1
M  END
> <s_m_source_file>
../3cgy_ligand.sdf

> <i_m_source_file_index>
1

> <s_epik_input>
Tz1DMU9bQ0BIXShbQ0gzXSlbQ0gyXVtDQEBIXShPMilbQ0BIXTIvW0NIXT1bQ0hdXFtDSF09W0NIXVxDKD1PKVtDSDJdYyhjMTMpYyhDbCljKFtPSF0pW2NIXWMzW09IXQ==

> <s_epik_cmdline>
J2VwaWtfYXBwJywgJy1pbWFlJywgJ2xpZ2FuZF9wcm8ubWFlJywgJy1vbWFlJywgJ2xpZ2FuZF9wcmVwLm1hZScsICctbXMnLCAnMScsICctcGgnLCAnNycsICctcGh0JywgJzAuNScsICctbnQn

> <r_lp_tautomer_probability>
1

> <r_epik_Ionization_Penalty>
  0.1546

> <r_epik_Ionization_Penalty_Charging>
  0.1543

> <r_epik_Ionization_Penalty_Neutral>
  0.0003

> <r_epik_State_Penalty>
 -0.0000

> <r_epik_Charging_Adjusted_Penalty>
0.154313068608035

> <i_epik_Tot_Q>
-1

> <i_epik_Tot_abs_Q>
1

> <s_epik_Chemistry_Notes>
This compound has an ester and may undergo hydrolysis at high or low pH.

$$$$
