3chg_ligand
                    3D
 Schrodinger Suite 2020-3.
 15 14  0  0  1  0            999 V2000
   13.2440  -16.5190   22.8380 O   0  5  0  0  0  0
   14.0570  -17.1970   22.1710 C   0  0  0  0  0  0
   15.2690  -16.9150   22.0620 O   0  0  0  0  0  0
   13.5500  -18.4270   21.4640 C   0  0  0  0  0  0
   12.5450  -19.2510   22.4960 S   0  0  0  0  0  0
   11.5910  -20.2990   21.6350 C   0  0  0  0  0  0
   13.4930  -20.1020   23.5580 C   0  0  0  0  0  0
   12.9978  -18.1291   20.5605 H   0  0  0  0  0  0
   14.4009  -19.0639   21.1804 H   0  0  0  0  0  0
   10.9640  -19.7309   20.9321 H   0  0  0  0  0  0
   10.9479  -20.8623   22.3271 H   0  0  0  0  0  0
   12.2283  -20.9989   21.0747 H   0  0  0  0  0  0
   14.1241  -19.4035   24.1270 H   0  0  0  0  0  0
   14.1320  -20.8018   22.9994 H   0  0  0  0  0  0
   12.8516  -20.6652   24.2519 H   0  0  0  0  0  0
  1  2  1  0  0  0
  2  3  2  0  0  0
  2  4  1  0  0  0
  4  5  1  0  0  0
  4  8  1  0  0  0
  4  9  1  0  0  0
  5  6  1  0  0  0
  5  7  1  0  0  0
  6 10  1  0  0  0
  6 11  1  0  0  0
  6 12  1  0  0  0
  7 13  1  0  0  0
  7 14  1  0  0  0
  7 15  1  0  0  0
M  CHG  1   1  -1
M  END
> <s_m_source_file>
../3chg_ligand.sdf

> <i_m_source_file_index>
1

> <s_epik_input>
W09IXUMoPU8pW0NIMl1bU0hdKFtDSDNdKVtDSDNd

> <s_epik_cmdline>
J2VwaWtfYXBwJywgJy1pbWFlJywgJ2xpZ2FuZF9wcm8ubWFlJywgJy1vbWFlJywgJ2xpZ2FuZF9wcmVwLm1hZScsICctbXMnLCAnMScsICctcGgnLCAnNycsICctcGh0JywgJzAuNScsICctbnQn

> <r_lp_tautomer_probability>
1

> <r_epik_Ionization_Penalty>
  0.0040

> <r_epik_Ionization_Penalty_Charging>
  0.0040

> <r_epik_Ionization_Penalty_Neutral>
  0.0000

> <r_epik_State_Penalty>
 -0.0000

> <r_epik_Charging_Adjusted_Penalty>
0.00399221521437756

> <i_epik_Tot_Q>
-1

> <i_epik_Tot_abs_Q>
1

$$$$
