3cho_ligand
                    3D
 Schrodinger Suite 2020-3.
 36 37  0  0  1  0            999 V2000
   24.4390   -0.1590    3.5850 C   0  0  0  0  0  0
   23.5200    0.4490    4.4520 C   0  0  0  0  0  0
   22.8920    1.6500    4.0840 C   0  0  0  0  0  0
   23.1740    2.2360    2.8430 C   0  0  0  0  0  0
   24.0940    1.6280    1.9770 C   0  0  0  0  0  0
   24.7390    0.4320    2.3510 C   0  0  0  0  0  0
   25.9480   -0.0260    1.5520 C   0  0  0  0  0  0
   26.1420    0.5280    0.3220 O   0  0  0  0  0  0
   27.4400    0.4410   -0.0940 C   0  0  0  0  0  0
   28.4670    0.6530    0.8410 C   0  0  0  0  0  0
   29.7450    0.9960    0.4140 C   0  0  0  0  0  0
   27.7130    0.5220   -1.4690 C   0  0  0  0  0  0
   29.0080    0.8690   -1.8990 C   0  0  0  0  0  0
   30.0260    1.1310   -0.9570 C   0  0  0  0  0  0
   31.1750    1.6990   -1.3930 N   0  0  0  0  0  0
   32.1290    2.2040   -0.5820 C   0  0  0  0  0  0
   31.9390    2.5910    0.5750 O   0  0  0  0  0  0
   33.5070    2.3450   -1.2300 C   0  0  0  0  0  0
   34.3360    3.2530   -0.4220 N   0  3  0  0  0  0
   24.9210   -1.0936    3.8719 H   0  0  0  0  0  0
   23.2926   -0.0114    5.4135 H   0  0  0  0  0  0
   22.1853    2.1262    4.7637 H   0  0  0  0  0  0
   22.6793    3.1625    2.5514 H   0  0  0  0  0  0
   24.3113    2.0823    1.0103 H   0  0  0  0  0  0
   26.8658    0.1958    2.1163 H   0  0  0  0  0  0
   25.8803   -1.1092    1.3730 H   0  0  0  0  0  0
   28.2609    0.5481    1.9062 H   0  0  0  0  0  0
   30.5344    1.1614    1.1472 H   0  0  0  0  0  0
   26.9285    0.3178   -2.1977 H   0  0  0  0  0  0
   29.2256    0.9357   -2.9650 H   0  0  0  0  0  0
   31.3782    1.7709   -2.4717 H   0  0  0  0  0  0
   33.9893    1.3579   -1.2845 H   0  0  0  0  0  0
   33.3949    2.7548   -2.2446 H   0  0  0  0  0  0
   35.3276    3.3554   -0.8869 H   0  0  0  0  0  0
   34.4473    2.8427    0.5925 H   0  0  0  0  0  0
   33.8529    4.2397   -0.3675 H   0  0  0  0  0  0
  1  2  2  0  0  0
  1  6  1  0  0  0
  1 20  1  0  0  0
  2  3  1  0  0  0
  2 21  1  0  0  0
  3  4  2  0  0  0
  3 22  1  0  0  0
  4  5  1  0  0  0
  4 23  1  0  0  0
  5  6  2  0  0  0
  5 24  1  0  0  0
  6  7  1  0  0  0
  7  8  1  0  0  0
  7 25  1  0  0  0
  7 26  1  0  0  0
  8  9  1  0  0  0
  9 10  2  0  0  0
  9 12  1  0  0  0
 10 11  1  0  0  0
 10 27  1  0  0  0
 11 14  2  0  0  0
 11 28  1  0  0  0
 12 13  2  0  0  0
 12 29  1  0  0  0
 13 14  1  0  0  0
 13 30  1  0  0  0
 14 15  1  0  0  0
 15 16  1  0  0  0
 15 31  1  0  0  0
 16 17  2  0  0  0
 16 18  1  0  0  0
 18 19  1  0  0  0
 18 32  1  0  0  0
 18 33  1  0  0  0
 19 34  1  0  0  0
 19 35  1  0  0  0
 19 36  1  0  0  0
M  CHG  1  19   1
M  END
> <s_m_source_file>
../3cho_ligand.sdf

> <i_m_source_file_index>
1

> <s_epik_input>
W2NIXTFbY0hdW2NIXVtjSF1bY0hdYzFbQ0gyXU9jMltjSF1bY0hdYyhbY0hdW2NIXTIpW05IXUMoPU8pW0NIMl1bTkgzK10=

> <s_epik_cmdline>
J2VwaWtfYXBwJywgJy1pbWFlJywgJ2xpZ2FuZF9wcm8ubWFlJywgJy1vbWFlJywgJ2xpZ2FuZF9wcmVwLm1hZScsICctbXMnLCAnMScsICctcGgnLCAnNycsICctcGh0JywgJzAuNScsICctbnQn

> <r_lp_tautomer_probability>
1

> <r_epik_Ionization_Penalty>
  0.1685

> <r_epik_Ionization_Penalty_Charging>
  0.1685

> <r_epik_Ionization_Penalty_Neutral>
  0.0000

> <r_epik_State_Penalty>
  0.1579

> <r_epik_Charging_Adjusted_Penalty>
0.326352201013907

> <i_epik_Tot_Q>
1

> <i_epik_Tot_abs_Q>
1

$$$$
