3chp_ligand
                    3D
 Schrodinger Suite 2020-3.
 41 42  0  0  1  0            999 V2000
    8.5610   41.8670   67.9200 C   0  0  0  0  0  0
    7.7440   41.0110   68.6820 C   0  0  0  0  0  0
    8.8950   38.0960   71.6280 C   0  0  0  0  0  0
    9.5650   41.3400   67.0890 C   0  0  0  0  0  0
    7.9130   39.6150   68.6160 C   0  0  0  0  0  0
    8.9110   39.0850   67.7760 C   0  0  0  0  0  0
   13.8240   41.2220   63.6590 O   0  0  0  0  0  0
   14.5240   41.7760   64.5420 C   0  0  0  0  0  0
   13.8510   42.8740   65.4020 C   0  0  0  0  0  0
   11.5360   41.8270   65.7910 C   0  0  0  0  0  0
   12.3260   42.9900   65.1620 C   0  0  1  0  0  0
    8.4650   35.7530   71.1370 C   0  0  0  0  0  0
    9.1820   35.3790   72.2830 C   0  0  0  0  0  0
    9.7550   36.3580   73.1020 C   0  0  0  0  0  0
    9.6110   37.7180   72.7740 C   0  0  0  0  0  0
    8.3210   37.1100   70.8020 C   0  0  0  0  0  0
    7.6350   37.4540   69.6320 C   0  0  0  0  0  0
    7.1020   38.7970   69.3860 O   0  0  0  0  0  0
    9.7270   39.9390   67.0250 C   0  0  0  0  0  0
   10.4280   42.1990   66.4790 N   0  0  0  0  0  0
   11.9510   40.6720   65.6950 O   0  0  0  0  0  0
   11.8390   44.2520   65.6990 N   0  3  0  0  0  0
   15.7320   41.5240   64.7880 O   0  5  0  0  0  0
    8.4143   42.9457   67.9745 H   0  0  0  0  0  0
    6.9742   41.4324   69.3285 H   0  0  0  0  0  0
    8.7832   39.1509   71.3774 H   0  0  0  0  0  0
    9.0486   38.0057   67.7103 H   0  0  0  0  0  0
   14.0026   42.6491   66.4680 H   0  0  0  0  0  0
   14.2989   43.8506   65.1660 H   0  0  0  0  0  0
   12.1349   43.0031   64.0788 H   0  0  0  0  0  0
    8.0174   34.9874   70.5033 H   0  0  0  0  0  0
    9.2929   34.3245   72.5358 H   0  0  0  0  0  0
   10.3120   36.0672   73.9927 H   0  0  0  0  0  0
   10.0570   38.4809   73.4121 H   0  0  0  0  0  0
    8.2911   37.2979   68.7630 H   0  0  0  0  0  0
    6.7393   36.8232   69.5332 H   0  0  0  0  0  0
   10.4986   39.5163   66.3815 H   0  0  0  0  0  0
   10.2486   43.2833   66.5243 H   0  0  0  0  0  0
   12.4027   45.0833   65.2503 H   0  0  0  0  0  0
   11.9757   44.2632   66.7904 H   0  0  0  0  0  0
   10.7706   44.3633   65.4621 H   0  0  0  0  0  0
  1  2  2  0  0  0
  1  4  1  0  0  0
  1 24  1  0  0  0
  2  5  1  0  0  0
  2 25  1  0  0  0
  3 15  2  0  0  0
  3 16  1  0  0  0
  3 26  1  0  0  0
  4 19  2  0  0  0
  4 20  1  0  0  0
  5  6  2  0  0  0
  5 18  1  0  0  0
  6 19  1  0  0  0
  6 27  1  0  0  0
  7  8  2  0  0  0
  8  9  1  0  0  0
  8 23  1  0  0  0
  9 11  1  0  0  0
  9 28  1  0  0  0
  9 29  1  0  0  0
 10 11  1  0  0  0
 10 20  1  0  0  0
 10 21  2  0  0  0
 11 22  1  0  0  0
 11 30  1  0  0  0
 12 13  1  0  0  0
 12 16  2  0  0  0
 12 31  1  0  0  0
 13 14  2  0  0  0
 13 32  1  0  0  0
 14 15  1  0  0  0
 14 33  1  0  0  0
 15 34  1  0  0  0
 16 17  1  0  0  0
 17 18  1  0  0  0
 17 35  1  0  0  0
 17 36  1  0  0  0
 19 37  1  0  0  0
 20 38  1  0  0  0
 22 39  1  0  0  0
 22 40  1  0  0  0
 22 41  1  0  0  0
M  CHG  2  22   1  23  -1
M  END
> <s_m_source_file>
../3chp_ligand.sdf

> <i_m_source_file_index>
1

> <s_epik_input>
Tz1DKFtPSF0pW0NIMl1bQ0BIXShbTkgzK10pQyg9TylbTkhdYzFbY0hdW2NIXWMoW2NIXVtjSF0xKU9bQ0gyXWMyW2NIXVtjSF1bY0hdW2NIXVtjSF0y

> <s_epik_cmdline>
J2VwaWtfYXBwJywgJy1pbWFlJywgJ2xpZ2FuZF9wcm8ubWFlJywgJy1vbWFlJywgJ2xpZ2FuZF9wcmVwLm1hZScsICctbXMnLCAnMScsICctcGgnLCAnNycsICctcGh0JywgJzAuNScsICctbnQn

> <r_lp_tautomer_probability>
1

> <r_epik_Ionization_Penalty>
  0.0260

> <r_epik_Ionization_Penalty_Charging>
  0.0260

> <r_epik_Ionization_Penalty_Neutral>
  0.0000

> <r_epik_State_Penalty>
  0.0211

> <r_epik_Charging_Adjusted_Penalty>
0.0470953327527949

> <i_epik_Tot_Q>
0

> <i_epik_Tot_abs_Q>
2

$$$$
