3chq_ligand
                    3D
 Schrodinger Suite 2020-3.
 44 45  0  0  1  0            999 V2000
    8.1650   38.3260   72.1190 C   0  0  0  0  0  0
    8.8530   37.7620   73.2080 C   0  0  0  0  0  0
    9.0680   36.3750   73.2630 C   0  0  0  0  0  0
    8.5960   35.5500   72.2280 C   0  0  0  0  0  0
    7.9100   36.1130   71.1390 C   0  0  0  0  0  0
    7.6940   37.4990   71.0780 C   0  0  0  0  0  0
    7.0270   38.0450   69.9710 C   0  0  0  0  0  0
    6.7690   39.4780   69.8650 O   0  0  0  0  0  0
    7.6750   40.1960   69.0960 C   0  0  0  0  0  0
    8.7890   39.5920   68.4610 C   0  0  0  0  0  0
    9.6850   40.3750   67.7080 C   0  0  0  0  0  0
    7.4770   41.5780   68.9540 C   0  0  0  0  0  0
    8.3700   42.3580   68.1990 C   0  0  0  0  0  0
    9.4830   41.7690   67.5750 C   0  0  0  0  0  0
   10.3820   42.5930   66.9750 N   0  0  0  0  0  0
   11.5730   42.2220   66.4620 C   0  0  0  0  0  0
   12.0710   41.0950   66.5570 O   0  0  0  0  0  0
   12.3620   43.3750   65.8280 C   0  0  0  0  0  0
   13.8740   43.1050   65.8300 C   0  0  0  0  0  0
   14.3560   42.3320   64.5840 C   0  0  1  0  0  0
   15.7790   41.8500   64.8450 C   0  0  0  0  0  0
   16.7070   42.4790   64.3010 O   0  5  0  0  0  0
   15.9050   40.8690   65.6020 O   0  0  0  0  0  0
   13.5010   41.1600   64.3220 N   0  3  0  0  0  0
    7.9957   39.4020   72.0793 H   0  0  0  0  0  0
    9.2199   38.4019   74.0105 H   0  0  0  0  0  0
    9.6007   35.9389   74.1081 H   0  0  0  0  0  0
    8.7621   34.4736   72.2701 H   0  0  0  0  0  0
    7.5438   35.4710   70.3378 H   0  0  0  0  0  0
    7.5954   37.8249   69.0553 H   0  0  0  0  0  0
    6.0223   37.6037   69.8939 H   0  0  0  0  0  0
    8.9526   38.5185   68.5558 H   0  0  0  0  0  0
   10.5404   39.9037   67.2241 H   0  0  0  0  0  0
    6.6211   42.0519   69.4346 H   0  0  0  0  0  0
    8.1977   43.4294   68.0966 H   0  0  0  0  0  0
   10.1632   43.6664   66.8755 H   0  0  0  0  0  0
   12.0382   43.5112   64.7856 H   0  0  0  0  0  0
   12.1770   44.3003   66.3933 H   0  0  0  0  0  0
   14.4171   44.0611   65.8581 H   0  0  0  0  0  0
   14.1385   42.5069   66.7145 H   0  0  0  0  0  0
   14.2941   42.9664   63.6875 H   0  0  0  0  0  0
   12.4701   41.4934   64.1318 H   0  0  0  0  0  0
   13.5152   40.4930   65.1966 H   0  0  0  0  0  0
   13.8797   40.6192   63.4422 H   0  0  0  0  0  0
  1  2  2  0  0  0
  1  6  1  0  0  0
  1 25  1  0  0  0
  2  3  1  0  0  0
  2 26  1  0  0  0
  3  4  2  0  0  0
  3 27  1  0  0  0
  4  5  1  0  0  0
  4 28  1  0  0  0
  5  6  2  0  0  0
  5 29  1  0  0  0
  6  7  1  0  0  0
  7  8  1  0  0  0
  7 30  1  0  0  0
  7 31  1  0  0  0
  8  9  1  0  0  0
  9 10  2  0  0  0
  9 12  1  0  0  0
 10 11  1  0  0  0
 10 32  1  0  0  0
 11 14  2  0  0  0
 11 33  1  0  0  0
 12 13  2  0  0  0
 12 34  1  0  0  0
 13 14  1  0  0  0
 13 35  1  0  0  0
 14 15  1  0  0  0
 15 16  1  0  0  0
 15 36  1  0  0  0
 16 17  2  0  0  0
 16 18  1  0  0  0
 18 19  1  0  0  0
 18 37  1  0  0  0
 18 38  1  0  0  0
 19 20  1  0  0  0
 19 39  1  0  0  0
 19 40  1  0  0  0
 20 21  1  0  0  0
 20 24  1  0  0  0
 20 41  1  0  0  0
 21 22  1  0  0  0
 21 23  2  0  0  0
 24 42  1  0  0  0
 24 43  1  0  0  0
 24 44  1  0  0  0
M  CHG  2  22  -1  24   1
M  END
> <s_m_source_file>
../3chq_ligand.sdf

> <i_m_source_file_index>
1

> <s_epik_input>
W2NIXTFbY0hdW2NIXVtjSF1bY0hdYzFbQ0gyXU9jMltjSF1bY0hdYyhbY0hdW2NIXTIpW05IXUMoPU8pW0NIMl1bQ0gyXVtDQEhdKFtOSDMrXSlDKD1PKVtPSF0=

> <s_epik_cmdline>
J2VwaWtfYXBwJywgJy1pbWFlJywgJ2xpZ2FuZF9wcm8ubWFlJywgJy1vbWFlJywgJ2xpZ2FuZF9wcmVwLm1hZScsICctbXMnLCAnMScsICctcGgnLCAnNycsICctcGh0JywgJzAuNScsICctbnQn

> <r_lp_tautomer_probability>
1

> <r_epik_Ionization_Penalty>
  0.0022

> <r_epik_Ionization_Penalty_Charging>
  0.0022

> <r_epik_Ionization_Penalty_Neutral>
  0.0000

> <r_epik_State_Penalty>
 -0.0000

> <r_epik_Charging_Adjusted_Penalty>
0.00220828419267234

> <i_epik_Tot_Q>
0

> <i_epik_Tot_abs_Q>
2

$$$$
