3chs_ligand
                    3D
 Schrodinger Suite 2020-3.
 48 49  0  0  1  0            999 V2000
   12.1870   40.9890   65.8760 O   0  0  0  0  0  0
   11.5650   42.0710   65.7190 C   0  0  0  0  0  0
   12.2270   43.2830   65.1480 C   0  0  0  0  0  0
   13.7450   42.8790   65.1520 C   0  0  0  0  0  0
   14.4240   42.0820   63.9840 C   0  0  2  0  0  0
   13.7190   40.8210   63.6870 N   0  3  0  0  0  0
   15.8270   41.6970   64.2240 C   0  0  0  0  0  0
   16.7990   42.3890   63.8720 O   0  0  0  0  0  0
   16.0810   40.6180   64.7990 O   0  5  0  0  0  0
   10.2430   42.1600   66.0620 N   0  0  0  0  0  0
    9.5490   41.3280   66.8970 C   0  0  0  0  0  0
    8.6280   41.9020   67.8130 C   0  0  0  0  0  0
    7.8950   41.0730   68.6980 C   0  0  0  0  0  0
    8.0710   39.6690   68.6930 C   0  0  0  0  0  0
    8.9800   39.0950   67.7830 C   0  0  0  0  0  0
    9.7060   39.9140   66.8980 C   0  0  0  0  0  0
    7.3420   38.9360   69.5820 O   0  0  0  0  0  0
    7.4130   37.5580   70.0110 C   0  0  0  0  0  0
    8.2740   37.7090   71.3070 C   0  0  1  0  0  0
    7.4760   38.4900   72.2070 O   0  0  0  0  0  0
    8.8250   36.4640   71.9420 C   0  0  0  0  0  0
    8.6580   35.1590   71.4030 C   0  0  0  0  0  0
    9.2260   34.0320   72.0320 C   0  0  0  0  0  0
    9.9670   34.1960   73.2170 C   0  0  0  0  0  0
   10.1390   35.4760   73.7820 C   0  0  0  0  0  0
    9.5780   36.5990   73.1450 C   0  0  0  0  0  0
   11.8388   43.4703   64.1360 H   0  0  0  0  0  0
   12.0159   44.1521   65.7884 H   0  0  0  0  0  0
   14.3655   43.7856   65.2077 H   0  0  0  0  0  0
   13.9518   42.2391   66.0225 H   0  0  0  0  0  0
   14.4091   42.7498   63.1101 H   0  0  0  0  0  0
   12.6564   41.0313   63.4954 H   0  0  0  0  0  0
   13.8088   40.1396   64.5459 H   0  0  0  0  0  0
   14.1660   40.3516   62.7982 H   0  0  0  0  0  0
    9.6215   42.9693   65.6512 H   0  0  0  0  0  0
    8.4847   42.9823   67.8353 H   0  0  0  0  0  0
    7.1856   41.5231   69.3924 H   0  0  0  0  0  0
    9.1215   38.0144   67.7641 H   0  0  0  0  0  0
   10.4039   39.4548   66.1979 H   0  0  0  0  0  0
    6.3971   37.1785   70.1951 H   0  0  0  0  0  0
    7.8935   36.9542   69.2271 H   0  0  0  0  0  0
    9.2191   38.2336   71.1031 H   0  0  0  0  0  0
    7.0151   39.4271   71.8615 H   0  0  0  0  0  0
    8.0809   35.0274   70.4877 H   0  0  0  0  0  0
    9.0918   33.0392   71.6026 H   0  0  0  0  0  0
   10.4114   33.3267   73.7017 H   0  0  0  0  0  0
   10.7032   35.5955   74.7069 H   0  0  0  0  0  0
    9.7218   37.5885   73.5789 H   0  0  0  0  0  0
  1  2  2  0  0  0
  2  3  1  0  0  0
  2 10  1  0  0  0
  3  4  1  0  0  0
  3 27  1  0  0  0
  3 28  1  0  0  0
  4  5  1  0  0  0
  4 29  1  0  0  0
  4 30  1  0  0  0
  5  6  1  0  0  0
  5  7  1  0  0  0
  5 31  1  0  0  0
  6 32  1  0  0  0
  6 33  1  0  0  0
  6 34  1  0  0  0
  7  8  2  0  0  0
  7  9  1  0  0  0
 10 11  1  0  0  0
 10 35  1  0  0  0
 11 12  2  0  0  0
 11 16  1  0  0  0
 12 13  1  0  0  0
 12 36  1  0  0  0
 13 14  2  0  0  0
 13 37  1  0  0  0
 14 15  1  0  0  0
 14 17  1  0  0  0
 15 16  2  0  0  0
 15 38  1  0  0  0
 16 39  1  0  0  0
 17 18  1  0  0  0
 18 19  1  0  0  0
 18 40  1  0  0  0
 18 41  1  0  0  0
 19 20  1  0  0  0
 19 21  1  0  0  0
 19 42  1  0  0  0
 20 43  1  0  0  0
 21 22  2  0  0  0
 21 26  1  0  0  0
 22 23  1  0  0  0
 22 44  1  0  0  0
 23 24  2  0  0  0
 23 45  1  0  0  0
 24 25  1  0  0  0
 24 46  1  0  0  0
 25 26  2  0  0  0
 25 47  1  0  0  0
 26 48  1  0  0  0
M  CHG  2   6   1   9  -1
M  END
> <s_m_source_file>
../3chs_ligand.sdf

> <i_m_source_file_index>
1

> <s_epik_input>
Tz1DKFtPSF0pW0NAQEhdKFtOSDMrXSlbQ0gyXVtDSDJdQyg9TylbTkhdYzFbY0hdW2NIXWMoW2NIXVtjSF0xKU9bQ0gyXVtDQEBIXShbT0hdKWMyW2NIXVtjSF1bY0hdW2NIXVtjSF0y

> <s_epik_cmdline>
J2VwaWtfYXBwJywgJy1pbWFlJywgJ2xpZ2FuZF9wcm8ubWFlJywgJy1vbWFlJywgJ2xpZ2FuZF9wcmVwLm1hZScsICctbXMnLCAnMScsICctcGgnLCAnNycsICctcGh0JywgJzAuNScsICctbnQn

> <r_lp_tautomer_probability>
1

> <r_epik_Ionization_Penalty>
  0.0022

> <r_epik_Ionization_Penalty_Charging>
  0.0022

> <r_epik_Ionization_Penalty_Neutral>
  0.0000

> <r_epik_State_Penalty>
 -0.0000

> <r_epik_Charging_Adjusted_Penalty>
0.00220828419267234

> <i_epik_Tot_Q>
0

> <i_epik_Tot_abs_Q>
2

$$$$
