3cib_ligand
                    3D
 Schrodinger Suite 2020-3.
 90 93  0  0  1  0            999 V2000
   27.0260   10.8080   19.1370 F   0  0  0  0  0  0
   23.0830   13.3590   18.5300 F   0  0  0  0  0  0
   26.9670   15.4970   24.5220 C   0  0  0  0  0  0
   27.1190   14.2850   23.7900 C   0  0  0  0  0  0
   25.9710   13.4800   23.4990 C   0  0  0  0  0  0
   24.6770   13.8930   23.9290 C   0  0  0  0  0  0
   24.5280   15.1130   24.6560 C   0  0  0  0  0  0
   25.6760   15.9110   24.9520 C   0  0  0  0  0  0
   28.4540   13.8480   23.3730 C   0  0  0  0  0  0
   28.7000   13.6420   22.0440 N   0  0  0  0  0  0
   29.3310   13.6560   24.2090 O   0  0  0  0  0  0
   30.0440   13.1900   21.7000 C   0  0  0  0  0  0
   27.7220   13.8510   20.9750 C   0  0  0  0  0  0
   28.2290   14.9260   20.0160 C   0  0  0  0  0  0
   28.7940   16.1390   20.7520 C   0  0  0  0  0  0
   30.0120   11.7180   21.2070 C   0  0  0  0  0  0
   29.1930   10.7760   22.1100 C   0  0  0  0  0  0
   25.5260   17.1700   25.7040 C   0  0  0  0  0  0
   23.5000   13.0770   23.6160 C   0  0  0  0  0  0
   22.3790   13.5510   23.4840 O   0  0  0  0  0  0
   23.7510   11.7520   23.4810 N   0  0  0  0  0  0
   22.6520   10.8310   23.1420 C   0  0  2  0  0  0
   22.1250   10.0290   24.3540 C   0  0  2  0  0  0
   21.2030    9.0310   23.8910 O   0  0  0  0  0  0
   23.1230    9.8710   22.0330 C   0  0  0  0  0  0
   23.8000   10.6420   20.9170 C   0  0  0  0  0  0
   25.1440   10.3410   20.5500 C   0  0  0  0  0  0
   25.7740   11.0720   19.4940 C   0  0  0  0  0  0
   25.0680   12.0950   18.8120 C   0  0  0  0  0  0
   23.7330   12.3950   19.1770 C   0  0  0  0  0  0
   23.0940   11.6750   20.2240 C   0  0  0  0  0  0
   21.3970   10.8940   25.3900 C   0  0  1  0  0  0
   20.0980   11.4990   24.8210 C   0  0  0  0  0  0
   19.2700   12.1920   25.9060 C   0  0  2  0  0  0
   19.1350   11.3150   27.1530 C   0  0  0  0  0  0
   20.4750   10.8010   27.6430 C   0  0  0  0  0  0
   21.1010   10.0310   26.5560 N   0  3  0  0  0  0
   17.9180   12.7260   25.3740 C   0  0  0  0  0  0
   16.9520   11.5900   25.0960 C   0  0  0  0  0  0
   16.0490   11.1570   26.1120 C   0  0  0  0  0  0
   15.1370   10.0880   25.8540 C   0  0  0  0  0  0
   15.1310    9.4540   24.5780 C   0  0  0  0  0  0
   16.0330    9.8900   23.5650 C   0  0  0  0  0  0
   16.9420   10.9560   23.8210 C   0  0  0  0  0  0
   27.8400   16.1074   24.7528 H   0  0  0  0  0  0
   26.0876   12.5477   22.9464 H   0  0  0  0  0  0
   23.5400   15.4352   24.9847 H   0  0  0  0  0  0
   30.4514   13.8262   20.9004 H   0  0  0  0  0  0
   30.6913   13.2562   22.5869 H   0  0  0  0  0  0
   27.5749   12.9106   20.4236 H   0  0  0  0  0  0
   26.7652   14.1737   21.4113 H   0  0  0  0  0  0
   29.0274   14.5078   19.3854 H   0  0  0  0  0  0
   27.4006   15.2694   19.3790 H   0  0  0  0  0  0
   29.1445   16.8815   20.0200 H   0  0  0  0  0  0
   29.6357   15.8238   21.3862 H   0  0  0  0  0  0
   28.0088   16.5854   21.3799 H   0  0  0  0  0  0
   29.5648   11.6773   20.2028 H   0  0  0  0  0  0
   31.0375   11.3220   21.1680 H   0  0  0  0  0  0
   29.2186    9.7572   21.6960 H   0  0  0  0  0  0
   28.1515   11.1267   22.1568 H   0  0  0  0  0  0
   29.6242   10.7715   23.1219 H   0  0  0  0  0  0
   26.5123   17.6397   25.8331 H   0  0  0  0  0  0
   25.0889   16.9578   26.6909 H   0  0  0  0  0  0
   24.8649   17.8519   25.1491 H   0  0  0  0  0  0
   24.7701   11.3633   23.6234 H   0  0  0  0  0  0
   21.8388   11.4867   22.7974 H   0  0  0  0  0  0
   22.9740    9.5232   24.8371 H   0  0  0  0  0  0
   21.5207    8.2966   23.1362 H   0  0  0  0  0  0
   23.8378    9.1481   22.4531 H   0  0  0  0  0  0
   22.2564    9.3329   21.6214 H   0  0  0  0  0  0
   25.6903    9.5558   21.0726 H   0  0  0  0  0  0
   25.5519   12.6496   18.0081 H   0  0  0  0  0  0
   22.0657   11.9106   20.4984 H   0  0  0  0  0  0
   22.0392   11.7258   25.7152 H   0  0  0  0  0  0
   20.3470   12.2424   24.0494 H   0  0  0  0  0  0
   19.4855   10.7006   24.3767 H   0  0  0  0  0  0
   19.8353   13.0807   26.2234 H   0  0  0  0  0  0
   18.6770   11.8995   27.9645 H   0  0  0  0  0  0
   18.5003   10.4464   26.9235 H   0  0  0  0  0  0
   21.1152   11.6517   27.9194 H   0  0  0  0  0  0
   20.3217   10.1569   28.5214 H   0  0  0  0  0  0
   20.4124    9.2286   26.2528 H   0  0  0  0  0  0
   22.0357    9.5894   26.9321 H   0  0  0  0  0  0
   17.4678   13.3947   26.1224 H   0  0  0  0  0  0
   18.0853   13.2815   24.4394 H   0  0  0  0  0  0
   16.0549   11.6430   27.0876 H   0  0  0  0  0  0
   14.4476    9.7583   26.6312 H   0  0  0  0  0  0
   14.4378    8.6371   24.3773 H   0  0  0  0  0  0
   16.0273    9.4051   22.5888 H   0  0  0  0  0  0
   17.6292   11.2862   23.0420 H   0  0  0  0  0  0
  1 28  1  0  0  0
  2 30  1  0  0  0
  3  4  2  0  0  0
  3  8  1  0  0  0
  3 45  1  0  0  0
  4  5  1  0  0  0
  4  9  1  0  0  0
  5  6  2  0  0  0
  5 46  1  0  0  0
  6  7  1  0  0  0
  6 19  1  0  0  0
  7  8  2  0  0  0
  7 47  1  0  0  0
  8 18  1  0  0  0
  9 10  1  0  0  0
  9 11  2  0  0  0
 10 12  1  0  0  0
 10 13  1  0  0  0
 12 16  1  0  0  0
 12 48  1  0  0  0
 12 49  1  0  0  0
 13 14  1  0  0  0
 13 50  1  0  0  0
 13 51  1  0  0  0
 14 15  1  0  0  0
 14 52  1  0  0  0
 14 53  1  0  0  0
 15 54  1  0  0  0
 15 55  1  0  0  0
 15 56  1  0  0  0
 16 17  1  0  0  0
 16 57  1  0  0  0
 16 58  1  0  0  0
 17 59  1  0  0  0
 17 60  1  0  0  0
 17 61  1  0  0  0
 18 62  1  0  0  0
 18 63  1  0  0  0
 18 64  1  0  0  0
 19 20  2  0  0  0
 19 21  1  0  0  0
 21 22  1  0  0  0
 21 65  1  0  0  0
 22 23  1  0  0  0
 22 25  1  0  0  0
 22 66  1  0  0  0
 23 24  1  0  0  0
 23 32  1  0  0  0
 23 67  1  0  0  0
 24 68  1  0  0  0
 25 26  1  0  0  0
 25 69  1  0  0  0
 25 70  1  0  0  0
 26 27  2  0  0  0
 26 31  1  0  0  0
 27 28  1  0  0  0
 27 71  1  0  0  0
 28 29  2  0  0  0
 29 30  1  0  0  0
 29 72  1  0  0  0
 30 31  2  0  0  0
 31 73  1  0  0  0
 32 33  1  0  0  0
 32 37  1  0  0  0
 32 74  1  0  0  0
 33 34  1  0  0  0
 33 75  1  0  0  0
 33 76  1  0  0  0
 34 35  1  0  0  0
 34 38  1  0  0  0
 34 77  1  0  0  0
 35 36  1  0  0  0
 35 78  1  0  0  0
 35 79  1  0  0  0
 36 37  1  0  0  0
 36 80  1  0  0  0
 36 81  1  0  0  0
 37 82  1  0  0  0
 37 83  1  0  0  0
 38 39  1  0  0  0
 38 84  1  0  0  0
 38 85  1  0  0  0
 39 40  2  0  0  0
 39 44  1  0  0  0
 40 41  1  0  0  0
 40 86  1  0  0  0
 41 42  2  0  0  0
 41 87  1  0  0  0
 42 43  1  0  0  0
 42 88  1  0  0  0
 43 44  2  0  0  0
 43 89  1  0  0  0
 44 90  1  0  0  0
M  CHG  1  37   1
M  END
> <s_m_source_file>
../3cib_ligand.sdf

> <i_m_source_file_index>
1

> <s_epik_input>
W2NIXTFbY0hdW2NIXVtjSF1bY0hdYzFbQ0gyXVtDQEBIXShbQ0gyXVtDSDJdW05IMitdMilbQ0gyXVtDQEBIXTJbQ0BASF0oW09IXSlbQ0BIXShbQ0gyXWMzW2NIXWMoRilbY0hdYyhGKVtjSF0zKVtOSF1DKD1PKWMoW2NIXTQpW2NIXWMoW0NIM10pW2NIXWM0Qyg9TylOKFtDSDJdW0NIMl1bQ0gzXSlbQ0gyXVtDSDJdW0NIM10=

> <s_epik_cmdline>
J2VwaWtfYXBwJywgJy1pbWFlJywgJ2xpZ2FuZF9wcm8ubWFlJywgJy1vbWFlJywgJ2xpZ2FuZF9wcmVwLm1hZScsICctbXMnLCAnMScsICctcGgnLCAnNycsICctcGh0JywgJzAuNScsICctbnQn

> <r_lp_tautomer_probability>
1

> <r_epik_Ionization_Penalty>
  0.0020

> <r_epik_Ionization_Penalty_Charging>
  0.0020

> <r_epik_Ionization_Penalty_Neutral>
  0.0000

> <r_epik_State_Penalty>
 -0.0000

> <r_epik_Charging_Adjusted_Penalty>
0.00196519509762305

> <i_epik_Tot_Q>
1

> <i_epik_Tot_abs_Q>
1

$$$$
