3cic_ligand
                    3D
 Schrodinger Suite 2020-3.
 88 91  0  0  1  0            999 V2000
   27.0460   15.5560   24.3080 C   0  0  0  0  0  0
   27.1800   14.3390   23.5830 C   0  0  0  0  0  0
   26.0170   13.5650   23.2740 C   0  0  0  0  0  0
   24.7300   14.0160   23.6840 C   0  0  0  0  0  0
   24.6010   15.2420   24.4030 C   0  0  0  0  0  0
   25.7630   16.0100   24.7160 C   0  0  0  0  0  0
   28.5150   13.8710   23.1840 C   0  0  0  0  0  0
   28.7560   13.6490   21.8540 N   0  0  0  0  0  0
   29.3930   13.6740   24.0200 O   0  0  0  0  0  0
   30.0870   13.1760   21.4970 C   0  0  0  0  0  0
   27.7740   13.8650   20.7890 C   0  0  0  0  0  0
   28.3220   14.8730   19.7840 C   0  0  0  0  0  0
   28.8950   16.1170   20.4720 C   0  0  0  0  0  0
   30.0430   11.7030   21.0340 C   0  0  0  0  0  0
   29.2200   10.7970   21.9560 C   0  0  0  0  0  0
   25.6360   17.2730   25.4620 C   0  0  0  0  0  0
   23.5370   13.2360   23.3490 C   0  0  0  0  0  0
   22.4670   13.7610   23.0780 O   0  0  0  0  0  0
   23.7070   11.8880   23.3540 N   0  0  0  0  0  0
   22.5680   11.0220   23.0040 C   0  0  2  0  0  0
   22.0430   10.1760   24.2040 C   0  0  2  0  0  0
   21.0350    9.2690   23.7360 O   0  0  0  0  0  0
   22.9740   10.0800   21.8660 C   0  0  0  0  0  0
   23.6680   10.8250   20.7470 C   0  0  0  0  0  0
   22.9770   11.8450   20.0280 C   0  0  0  0  0  0
   23.6380   12.5390   18.9740 C   0  0  0  0  0  0
   24.9800   12.2180   18.6350 C   0  0  0  0  0  0
   25.6690   11.2050   19.3470 C   0  0  0  0  0  0
   25.0180   10.5040   20.4060 C   0  0  0  0  0  0
   23.0060   13.4930   18.2950 F   0  0  0  0  0  0
   26.9270   10.9150   19.0190 F   0  0  0  0  0  0
   21.4450   10.9970   25.3540 C   0  0  1  0  0  0
   20.1430   11.7170   24.9360 C   0  0  0  0  0  0
   19.1010   11.6420   25.8120 N   0  0  0  0  0  0
   19.0910   10.9390   27.1040 C   0  0  0  0  0  0
   20.4610   10.5800   27.5990 C   0  0  0  0  0  0
   21.2780   10.1180   26.4990 N   0  3  0  0  0  0
   20.0780   12.3170   23.8700 O   0  0  0  0  0  0
   17.8420   12.3040   25.4630 C   0  0  0  0  0  0
   16.7860   11.2830   25.1040 C   0  0  0  0  0  0
   16.9470   10.4670   23.9470 C   0  0  0  0  0  0
   15.9540    9.5030   23.6120 C   0  0  0  0  0  0
   14.8000    9.3560   24.4340 C   0  0  0  0  0  0
   14.6380   10.1730   25.5940 C   0  0  0  0  0  0
   15.6320   11.1370   25.9270 C   0  0  0  0  0  0
   27.9318   16.1427   24.5515 H   0  0  0  0  0  0
   26.1162   12.6291   22.7242 H   0  0  0  0  0  0
   23.6162   15.5917   24.7129 H   0  0  0  0  0  0
   30.4877   13.7920   20.6785 H   0  0  0  0  0  0
   30.7500   13.2520   22.3715 H   0  0  0  0  0  0
   27.5720   12.9122   20.2778 H   0  0  0  0  0  0
   26.8409   14.2528   21.2237 H   0  0  0  0  0  0
   29.1255   14.4050   19.1963 H   0  0  0  0  0  0
   27.5145   15.1948   19.1100 H   0  0  0  0  0  0
   29.2772   16.8135   19.7112 H   0  0  0  0  0  0
   29.7150   15.8202   21.1424 H   0  0  0  0  0  0
   28.1040   16.6100   21.0561 H   0  0  0  0  0  0
   29.5943   11.6471   20.0312 H   0  0  0  0  0  0
   31.0653   11.2982   21.0014 H   0  0  0  0  0  0
   29.2331    9.7684   21.5663 H   0  0  0  0  0  0
   28.1826   11.1606   21.9967 H   0  0  0  0  0  0
   29.6536   10.8117   22.9668 H   0  0  0  0  0  0
   26.6326   17.7159   25.6055 H   0  0  0  0  0  0
   25.1780   17.0753   26.4424 H   0  0  0  0  0  0
   25.0025   17.9713   24.8955 H   0  0  0  0  0  0
   24.6779   11.4413   23.6145 H   0  0  0  0  0  0
   21.7863   11.7286   22.6883 H   0  0  0  0  0  0
   22.8808    9.5870   24.6055 H   0  0  0  0  0  0
   21.2564    8.5810   22.9068 H   0  0  0  0  0  0
   23.6624    9.3139   22.2522 H   0  0  0  0  0  0
   22.0771    9.5934   21.4551 H   0  0  0  0  0  0
   21.9468   12.0925   20.2841 H   0  0  0  0  0  0
   25.4799   12.7515   17.8265 H   0  0  0  0  0  0
   25.5494    9.7255   20.9535 H   0  0  0  0  0  0
   22.1405   11.7795   25.6917 H   0  0  0  0  0  0
   18.6222   11.5790   27.8660 H   0  0  0  0  0  0
   18.5194   10.0040   27.0083 H   0  0  0  0  0  0
   20.9308   11.4654   28.0522 H   0  0  0  0  0  0
   20.3815    9.7815   28.3514 H   0  0  0  0  0  0
   20.8113    9.1766   26.1735 H   0  0  0  0  0  0
   22.2610    9.9051   26.9443 H   0  0  0  0  0  0
   17.4889   12.8957   26.3205 H   0  0  0  0  0  0
   18.0035   12.9680   24.6010 H   0  0  0  0  0  0
   17.8302   10.5807   23.3184 H   0  0  0  0  0  0
   16.0768    8.8781   22.7274 H   0  0  0  0  0  0
   14.0394    8.6187   24.1772 H   0  0  0  0  0  0
   13.7553   10.0590   26.2233 H   0  0  0  0  0  0
   15.5101   11.7629   26.8110 H   0  0  0  0  0  0
  1  2  2  0  0  0
  1  6  1  0  0  0
  1 46  1  0  0  0
  2  3  1  0  0  0
  2  7  1  0  0  0
  3  4  2  0  0  0
  3 47  1  0  0  0
  4  5  1  0  0  0
  4 17  1  0  0  0
  5  6  2  0  0  0
  5 48  1  0  0  0
  6 16  1  0  0  0
  7  8  1  0  0  0
  7  9  2  0  0  0
  8 10  1  0  0  0
  8 11  1  0  0  0
 10 14  1  0  0  0
 10 49  1  0  0  0
 10 50  1  0  0  0
 11 12  1  0  0  0
 11 51  1  0  0  0
 11 52  1  0  0  0
 12 13  1  0  0  0
 12 53  1  0  0  0
 12 54  1  0  0  0
 13 55  1  0  0  0
 13 56  1  0  0  0
 13 57  1  0  0  0
 14 15  1  0  0  0
 14 58  1  0  0  0
 14 59  1  0  0  0
 15 60  1  0  0  0
 15 61  1  0  0  0
 15 62  1  0  0  0
 16 63  1  0  0  0
 16 64  1  0  0  0
 16 65  1  0  0  0
 17 18  2  0  0  0
 17 19  1  0  0  0
 19 20  1  0  0  0
 19 66  1  0  0  0
 20 21  1  0  0  0
 20 23  1  0  0  0
 20 67  1  0  0  0
 21 22  1  0  0  0
 21 32  1  0  0  0
 21 68  1  0  0  0
 22 69  1  0  0  0
 23 24  1  0  0  0
 23 70  1  0  0  0
 23 71  1  0  0  0
 24 25  2  0  0  0
 24 29  1  0  0  0
 25 26  1  0  0  0
 25 72  1  0  0  0
 26 27  2  0  0  0
 26 30  1  0  0  0
 27 28  1  0  0  0
 27 73  1  0  0  0
 28 29  2  0  0  0
 28 31  1  0  0  0
 29 74  1  0  0  0
 32 33  1  0  0  0
 32 37  1  0  0  0
 32 75  1  0  0  0
 33 34  1  0  0  0
 33 38  2  0  0  0
 34 35  1  0  0  0
 34 39  1  0  0  0
 35 36  1  0  0  0
 35 76  1  0  0  0
 35 77  1  0  0  0
 36 37  1  0  0  0
 36 78  1  0  0  0
 36 79  1  0  0  0
 37 80  1  0  0  0
 37 81  1  0  0  0
 39 40  1  0  0  0
 39 82  1  0  0  0
 39 83  1  0  0  0
 40 41  2  0  0  0
 40 45  1  0  0  0
 41 42  1  0  0  0
 41 84  1  0  0  0
 42 43  2  0  0  0
 42 85  1  0  0  0
 43 44  1  0  0  0
 43 86  1  0  0  0
 44 45  2  0  0  0
 44 87  1  0  0  0
 45 88  1  0  0  0
M  CHG  1  37   1
M  END
> <s_m_source_file>
../3cic_ligand.sdf

> <i_m_source_file_index>
1

> <s_epik_input>
W0NIM11bQ0gyXVtDSDJdTihbQ0gyXVtDSDJdW0NIM10pQyg9TyljMVtjSF1jKFtDSDNdKVtjSF1jKFtjSF0xKUMoPU8pW05IXVtDQEBIXShbQ0gyXWMyW2NIXWMoRilbY0hdYyhGKVtjSF0yKVtDQEhdKFtPSF0pW0NASF0zQyg9TylOKFtDSDJdW0NIMl1bTkgyK10zKVtDSDJdYzRbY0hdW2NIXVtjSF1bY0hdW2NIXTQ=

> <s_epik_cmdline>
J2VwaWtfYXBwJywgJy1pbWFlJywgJ2xpZ2FuZF9wcm8ubWFlJywgJy1vbWFlJywgJ2xpZ2FuZF9wcmVwLm1hZScsICctbXMnLCAnMScsICctcGgnLCAnNycsICctcGh0JywgJzAuNScsICctbnQn

> <r_epik_Ionization_Penalty>
  0.2977

> <r_epik_Ionization_Penalty_Charging>
  0.2976

> <r_epik_Ionization_Penalty_Neutral>
  0.0001

> <r_epik_State_Penalty>
  0.2910

> <r_epik_Charging_Adjusted_Penalty>
0.58861501558003

> <i_epik_Tot_Q>
1

> <i_epik_Tot_abs_Q>
1

$$$$
