3cii_ligand
                    3D
 Schrodinger Suite 2020-3.
156157  0  0  1  0            999 V2000
 -129.2320  158.0150 -137.3420 N   0  3  0  0  0  0
 -129.4480  158.4690 -138.7400 C   0  0  2  0  0  0
 -130.7700  157.9750 -139.2740 C   0  0  0  0  0  0
 -131.2170  156.8860 -138.9350 O   0  0  0  0  0  0
 -128.3530  157.9610 -139.6960 C   0  0  0  0  0  0
 -127.0090  158.5840 -139.3500 C   0  0  0  0  0  0
 -128.2730  156.4390 -139.6600 C   0  0  0  0  0  0
 -131.3880  158.7830 -140.1240 N   0  0  0  0  0  0
 -132.6160  158.3800 -140.7990 C   0  0  2  0  0  0
 -132.2920  157.8190 -142.1790 C   0  0  0  0  0  0
 -131.2100  158.0630 -142.7370 O   0  0  0  0  0  0
 -133.6550  159.5270 -140.8990 C   0  0  0  0  0  0
 -133.1570  160.8830 -141.4340 C   0  0  0  0  0  0
 -134.4640  162.1300 -141.6820 S   0  0  0  0  0  0
 -135.3200  161.4670 -143.1050 C   0  0  0  0  0  0
 -133.2550  157.0600 -142.7030 N   0  0  0  0  0  0
 -133.1720  156.4460 -144.0220 C   0  0  2  0  0  0
 -132.6950  157.4540 -145.0610 C   0  0  0  0  0  0
 -133.2410  158.5550 -145.1460 O   0  0  0  0  0  0
 -134.5310  155.8740 -144.4230 C   0  0  0  0  0  0
 -131.6810  157.0780 -145.8630 N   0  0  0  0  0  0
 -131.1360  158.0210 -146.8360 C   0  0  2  0  0  0
 -132.0280  158.2440 -148.0720 C   0  0  0  0  0  0
 -131.6370  158.9920 -148.9760 O   0  0  0  0  0  0
 -129.8040  157.3670 -147.2390 C   0  0  0  0  0  0
 -130.0180  155.9000 -147.0460 C   0  0  0  0  0  0
 -131.0010  155.7650 -145.9190 C   0  0  0  0  0  0
 -133.2140  157.6270 -148.1030 N   0  0  0  0  0  0
 -133.9950  157.5310 -149.3340 C   0  0  2  0  0  0
 -135.4210  157.0950 -149.0560 C   0  0  0  0  0  0
 -135.6380  156.1500 -148.3020 O   0  0  0  0  0  0
 -133.3230  156.5140 -150.2660 C   0  0  0  0  0  0
 -133.9920  156.2960 -151.6230 C   0  0  0  0  0  0
 -133.0720  155.5210 -152.5760 C   0  0  0  0  0  0
 -132.1530  156.4110 -153.2900 N   0  0  0  0  0  0
 -132.2890  156.8040 -154.5570 C   0  0  0  0  0  0
 -133.3090  156.3850 -155.3010 N   0  0  0  0  0  0
 -131.3830  157.6180 -155.0880 N   0  0  0  0  0  0
 -136.3770  157.7730 -149.6890 N   0  0  0  0  0  0
 -137.8010  157.4830 -149.5130 C   0  0  2  0  0  0
 -138.4280  156.9450 -150.7990 C   0  0  0  0  0  0
 -137.7240  156.5000 -151.7070 O   0  0  0  0  0  0
 -138.5790  158.7400 -149.0740 C   0  0  2  0  0  0
 -137.7190  159.5880 -148.3110 O   0  0  0  0  0  0
 -139.8040  158.3610 -148.2380 C   0  0  0  0  0  0
 -139.7580  156.9650 -150.8470 N   0  0  0  0  0  0
 -140.5080  156.5790 -152.0270 C   0  0  2  0  0  0
 -141.1800  157.7760 -152.6320 C   0  0  0  0  0  0
 -141.6380  158.6560 -151.9070 O   0  0  0  0  0  0
 -141.6020  155.5880 -151.6580 C   0  0  0  0  0  0
 -141.1470  154.1470 -151.4960 C   0  0  0  0  0  0
 -142.3600  153.2500 -151.3180 C   0  0  0  0  0  0
 -140.3160  153.7110 -152.6910 C   0  0  0  0  0  0
 -141.2320  157.8060 -153.9630 N   0  0  0  0  0  0
 -142.1570  158.6840 -154.6900 C   0  0  2  0  0  0
 -143.4300  157.8810 -154.8540 C   0  0  0  0  0  0
 -143.4360  156.9000 -155.5950 O   0  0  0  0  0  0
 -141.6330  159.0530 -156.0880 C   0  0  0  0  0  0
 -140.7840  160.2990 -156.1270 C   0  0  0  0  0  0
 -139.4890  160.2580 -156.6290 C   0  0  0  0  0  0
 -141.2830  161.5130 -155.6850 C   0  0  0  0  0  0
 -138.7080  161.4010 -156.6770 C   0  0  0  0  0  0
 -140.5020  162.6550 -155.7290 C   0  0  0  0  0  0
 -139.2160  162.5980 -156.2280 C   0  0  0  0  0  0
 -144.4960  158.2650 -154.1610 N   0  0  0  0  0  0
 -145.7370  157.5040 -154.2410 C   0  0  2  0  0  0
 -146.3960  157.7880 -155.5820 C   0  0  0  0  0  0
 -147.2240  157.0020 -156.0450 O   0  0  0  0  0  0
 -146.6700  157.8360 -153.0730 C   0  0  0  0  0  0
 -146.1230  157.5030 -151.6830 C   0  0  0  0  0  0
 -146.9910  158.1120 -150.6030 C   0  0  0  0  0  0
 -146.0130  156.0030 -151.4850 C   0  0  0  0  0  0
 -146.0790  158.7960 -156.2310 O   0  0  0  0  0  0
 -130.0380  158.4031 -136.7018 H   0  0  0  0  0  0
 -128.2634  158.3903 -136.9801 H   0  0  0  0  0  0
 -129.2347  156.9155 -137.3090 H   0  0  0  0  0  0
 -129.4397  159.5668 -138.6706 H   0  0  0  0  0  0
 -128.6057  158.2613 -140.7236 H   0  0  0  0  0  0
 -127.0937  159.6802 -139.3830 H   0  0  0  0  0  0
 -126.2531  158.2525 -140.0772 H   0  0  0  0  0  0
 -126.7084  158.2697 -138.3396 H   0  0  0  0  0  0
 -129.2555  156.0141 -139.9132 H   0  0  0  0  0  0
 -127.9805  156.1110 -138.6516 H   0  0  0  0  0  0
 -127.5252  156.0938 -140.3892 H   0  0  0  0  0  0
 -130.9554  159.7760 -140.3158 H   0  0  0  0  0  0
 -133.0265  157.5885 -140.1548 H   0  0  0  0  0  0
 -134.4695  159.2260 -141.5742 H   0  0  0  0  0  0
 -134.0655  159.7380 -139.9005 H   0  0  0  0  0  0
 -132.4360  161.3147 -140.7243 H   0  0  0  0  0  0
 -132.6688  160.7357 -142.4087 H   0  0  0  0  0  0
 -136.1537  162.1322 -143.3741 H   0  0  0  0  0  0
 -135.7113  160.4675 -142.8646 H   0  0  0  0  0  0
 -134.6215  161.3935 -143.9516 H   0  0  0  0  0  0
 -134.1491  156.9076 -142.0806 H   0  0  0  0  0  0
 -132.4303  155.6390 -143.9290 H   0  0  0  0  0  0
 -134.8619  155.1491 -143.6647 H   0  0  0  0  0  0
 -134.4441  155.3713 -145.3976 H   0  0  0  0  0  0
 -135.2653  156.6898 -144.4954 H   0  0  0  0  0  0
 -131.0605  159.0085 -146.3573 H   0  0  0  0  0  0
 -129.5791  157.6096 -148.2881 H   0  0  0  0  0  0
 -128.9985  157.7478 -146.5938 H   0  0  0  0  0  0
 -130.4165  155.4625 -147.9733 H   0  0  0  0  0  0
 -129.0606  155.4196 -146.7958 H   0  0  0  0  0  0
 -130.5008  155.5699 -144.9589 H   0  0  0  0  0  0
 -131.7425  154.9760 -146.1131 H   0  0  0  0  0  0
 -133.5987  157.1856 -147.1718 H   0  0  0  0  0  0
 -134.0151  158.5431 -149.7644 H   0  0  0  0  0  0
 -132.2951  156.8395 -150.4837 H   0  0  0  0  0  0
 -133.2999  155.5286 -149.7777 H   0  0  0  0  0  0
 -134.9201  155.7216 -151.4862 H   0  0  0  0  0  0
 -134.2272  157.2701 -152.0766 H   0  0  0  0  0  0
 -132.4750  154.7974 -152.0016 H   0  0  0  0  0  0
 -133.6811  154.9858 -153.3193 H   0  0  0  0  0  0
 -131.2656  156.8110 -152.7777 H   0  0  0  0  0  0
 -134.0639  155.7110 -154.8699 H   0  0  0  0  0  0
 -133.3976  156.7125 -156.3474 H   0  0  0  0  0  0
 -130.5362  157.9696 -154.4803 H   0  0  0  0  0  0
 -136.0596  158.5793 -150.3666 H   0  0  0  0  0  0
 -137.8155  156.7106 -148.7299 H   0  0  0  0  0  0
 -138.8898  159.3329 -149.9468 H   0  0  0  0  0  0
 -136.7835  159.9626 -148.7520 H   0  0  0  0  0  0
 -140.4634  157.7083 -148.8288 H   0  0  0  0  0  0
 -140.3498  159.2726 -147.9532 H   0  0  0  0  0  0
 -139.4790  157.8298 -147.3312 H   0  0  0  0  0  0
 -140.2886  157.2919 -149.9406 H   0  0  0  0  0  0
 -139.7669  156.1472 -152.7156 H   0  0  0  0  0  0
 -142.0545  155.8816 -150.6993 H   0  0  0  0  0  0
 -142.3736  155.5849 -152.4420 H   0  0  0  0  0  0
 -140.5120  154.0651 -150.6015 H   0  0  0  0  0  0
 -142.9416  153.5883 -150.4478 H   0  0  0  0  0  0
 -142.0290  152.2134 -151.1573 H   0  0  0  0  0  0
 -142.9877  153.2989 -152.2200 H   0  0  0  0  0  0
 -139.4465  154.3767 -152.7954 H   0  0  0  0  0  0
 -140.9293  153.7631 -153.6027 H   0  0  0  0  0  0
 -139.9706  152.6776 -152.5400 H   0  0  0  0  0  0
 -140.5515  157.1437 -154.5182 H   0  0  0  0  0  0
 -142.2807  159.6061 -154.1031 H   0  0  0  0  0  0
 -141.0138  158.2309 -156.4762 H   0  0  0  0  0  0
 -142.4831  159.2230 -156.7651 H   0  0  0  0  0  0
 -139.0821  159.3134 -156.9900 H   0  0  0  0  0  0
 -142.3007  161.5697 -155.2987 H   0  0  0  0  0  0
 -137.6925  161.3521 -157.0699 H   0  0  0  0  0  0
 -140.9035  163.6021 -155.3686 H   0  0  0  0  0  0
 -138.6045  163.4995 -156.2661 H   0  0  0  0  0  0
 -144.4401  159.1608 -153.5250 H   0  0  0  0  0  0
 -145.4659  156.4404 -154.1692 H   0  0  0  0  0  0
 -146.8874  158.9143 -153.0725 H   0  0  0  0  0  0
 -147.6086  157.2728 -153.1819 H   0  0  0  0  0  0
 -145.1147  157.9341 -151.5965 H   0  0  0  0  0  0
 -147.0619  159.1986 -150.7589 H   0  0  0  0  0  0
 -146.5452  157.9112 -149.6176 H   0  0  0  0  0  0
 -147.9968  157.6688 -150.6476 H   0  0  0  0  0  0
 -145.3802  155.5742 -152.2760 H   0  0  0  0  0  0
 -147.0153  155.5524 -151.5327 H   0  0  0  0  0  0
 -145.5637  155.7948 -150.5027 H   0  0  0  0  0  0
 -146.5573  158.9988 -157.2006 H   0  0  0  0  0  0
  1  2  1  0  0  0
  1 74  1  0  0  0
  1 75  1  0  0  0
  1 76  1  0  0  0
  2  3  1  0  0  0
  2  5  1  0  0  0
  2 77  1  0  0  0
  3  4  2  0  0  0
  3  8  1  0  0  0
  5  6  1  0  0  0
  5  7  1  0  0  0
  5 78  1  0  0  0
  6 79  1  0  0  0
  6 80  1  0  0  0
  6 81  1  0  0  0
  7 82  1  0  0  0
  7 83  1  0  0  0
  7 84  1  0  0  0
  8  9  1  0  0  0
  8 85  1  0  0  0
  9 10  1  0  0  0
  9 12  1  0  0  0
  9 86  1  0  0  0
 10 11  2  0  0  0
 10 16  1  0  0  0
 12 13  1  0  0  0
 12 87  1  0  0  0
 12 88  1  0  0  0
 13 14  1  0  0  0
 13 89  1  0  0  0
 13 90  1  0  0  0
 14 15  1  0  0  0
 15 91  1  0  0  0
 15 92  1  0  0  0
 15 93  1  0  0  0
 16 17  1  0  0  0
 16 94  1  0  0  0
 17 18  1  0  0  0
 17 20  1  0  0  0
 17 95  1  0  0  0
 18 19  2  0  0  0
 18 21  1  0  0  0
 20 96  1  0  0  0
 20 97  1  0  0  0
 20 98  1  0  0  0
 21 22  1  0  0  0
 21 27  1  0  0  0
 22 23  1  0  0  0
 22 25  1  0  0  0
 22 99  1  0  0  0
 23 24  2  0  0  0
 23 28  1  0  0  0
 25 26  1  0  0  0
 25100  1  0  0  0
 25101  1  0  0  0
 26 27  1  0  0  0
 26102  1  0  0  0
 26103  1  0  0  0
 27104  1  0  0  0
 27105  1  0  0  0
 28 29  1  0  0  0
 28106  1  0  0  0
 29 30  1  0  0  0
 29 32  1  0  0  0
 29107  1  0  0  0
 30 31  2  0  0  0
 30 39  1  0  0  0
 32 33  1  0  0  0
 32108  1  0  0  0
 32109  1  0  0  0
 33 34  1  0  0  0
 33110  1  0  0  0
 33111  1  0  0  0
 34 35  1  0  0  0
 34112  1  0  0  0
 34113  1  0  0  0
 35 36  1  0  0  0
 35114  1  0  0  0
 36 37  1  0  0  0
 36 38  2  0  0  0
 37115  1  0  0  0
 37116  1  0  0  0
 38117  1  0  0  0
 39 40  1  0  0  0
 39118  1  0  0  0
 40 41  1  0  0  0
 40 43  1  0  0  0
 40119  1  0  0  0
 41 42  2  0  0  0
 41 46  1  0  0  0
 43 44  1  0  0  0
 43 45  1  0  0  0
 43120  1  0  0  0
 44121  1  0  0  0
 45122  1  0  0  0
 45123  1  0  0  0
 45124  1  0  0  0
 46 47  1  0  0  0
 46125  1  0  0  0
 47 48  1  0  0  0
 47 50  1  0  0  0
 47126  1  0  0  0
 48 49  2  0  0  0
 48 54  1  0  0  0
 50 51  1  0  0  0
 50127  1  0  0  0
 50128  1  0  0  0
 51 52  1  0  0  0
 51 53  1  0  0  0
 51129  1  0  0  0
 52130  1  0  0  0
 52131  1  0  0  0
 52132  1  0  0  0
 53133  1  0  0  0
 53134  1  0  0  0
 53135  1  0  0  0
 54 55  1  0  0  0
 54136  1  0  0  0
 55 56  1  0  0  0
 55 58  1  0  0  0
 55137  1  0  0  0
 56 57  2  0  0  0
 56 65  1  0  0  0
 58 59  1  0  0  0
 58138  1  0  0  0
 58139  1  0  0  0
 59 60  2  0  0  0
 59 61  1  0  0  0
 60 62  1  0  0  0
 60140  1  0  0  0
 61 63  2  0  0  0
 61141  1  0  0  0
 62 64  2  0  0  0
 62142  1  0  0  0
 63 64  1  0  0  0
 63143  1  0  0  0
 64144  1  0  0  0
 65 66  1  0  0  0
 65145  1  0  0  0
 66 67  1  0  0  0
 66 69  1  0  0  0
 66146  1  0  0  0
 67 68  2  0  0  0
 67 73  1  0  0  0
 69 70  1  0  0  0
 69147  1  0  0  0
 69148  1  0  0  0
 70 71  1  0  0  0
 70 72  1  0  0  0
 70149  1  0  0  0
 71150  1  0  0  0
 71151  1  0  0  0
 71152  1  0  0  0
 72153  1  0  0  0
 72154  1  0  0  0
 72155  1  0  0  0
 73156  1  0  0  0
M  CHG  1   1   1
M  END
> <s_m_source_file>
../3cii_ligand.sdf

> <i_m_source_file_index>
1

> <s_epik_input>
W0NIM11bQ0hdKFtDSDNdKVtDQEhdKFtOSDMrXSlDKD1PKVtOSF1bQ0BASF0oW0NIMl1bQ0gyXVNbQ0gzXSlDKD1PKVtOSF1bQ0BASF0oW0NIM10pQyg9TylOMVtDQEBIXShbQ0gyXVtDSDJdW0NIMl0xKUMoPU8pW05IXVtDQEBIXShbQ0gyXVtDSDJdW0NIMl1bTkhdL0MoW05IMl0pPU5cW0hdKUMoPU8pW05IXVtDQEBIXShbQ0BIXShbT0hdKVtDSDNdKUMoPU8pW05IXVtDQEBIXShbQ0gyXVtDSF0oW0NIM10pW0NIM10pQyg9TylbTkhdW0NASF0oQyg9TylbTkhdW0NASF0oQyg9TylbT0hdKVtDSDJdW0NIXShbQ0gzXSlbQ0gzXSlbQ0gyXWMyW2NIXVtjSF1bY0hdW2NIXVtjSF0y

> <s_epik_cmdline>
J2VwaWtfYXBwJywgJy1pbWFlJywgJ2xpZ2FuZF9wcm8ubWFlJywgJy1vbWFlJywgJ2xpZ2FuZF9wcmVwLm1hZScsICctbXMnLCAnMScsICctcGgnLCAnNycsICctcGh0JywgJzAuNScsICctbnQn

> <s_epik_pKa_notes>
Molecule size exceeds maximum supported for generating protonation states

> <s_epik_Chemistry_Notes>
This compound has an imine and may undergo hydrolysis.

$$$$
