3cj5_ligand
                    3D
 Schrodinger Suite 2020-3.
 60 62  0  0  1  0            999 V2000
    4.0490   36.2850   79.7630 O   0  0  0  0  0  0
    3.4170   35.2210   79.8290 C   0  0  0  0  0  0
    2.1550   35.1860   80.4080 N   0  0  0  0  0  0
    1.4380   36.3480   80.9850 C   0  0  0  0  0  0
    0.5810   35.9860   82.2120 C   0  0  0  0  0  0
   -0.3200   34.9030   81.9100 O   0  0  0  0  0  0
    0.3980   33.7270   81.4840 C   0  0  0  0  0  0
    1.2380   34.0280   80.2320 C   0  0  0  0  0  0
    3.9530   33.8970   79.2940 C   0  0  0  0  0  0
    5.4380   33.8940   78.9370 C   0  0  0  0  0  0
    5.7350   34.8110   77.7640 C   0  0  0  0  0  0
    5.0850   34.8090   76.7120 O   0  0  0  0  0  0
    6.7970   35.6420   78.0490 N   0  0  0  0  0  0
    7.2940   36.6130   77.1510 C   0  0  0  0  0  0
    6.4080   37.4510   76.4550 C   0  0  0  0  0  0
    6.8910   38.4100   75.5600 C   0  0  0  0  0  0
    8.2690   38.5200   75.3750 C   0  0  0  0  0  0
    8.9710   39.7720   74.1750 Br  0  0  0  0  0  0
    9.1700   37.7090   76.0390 C   0  0  0  0  0  0
    8.6940   36.7490   76.9290 C   0  0  0  0  0  0
    9.7280   35.9310   77.6180 C   0  0  0  0  0  0
   10.4970   36.5350   78.3570 O   0  0  0  0  0  0
    9.8500   34.5630   77.4540 N   0  0  0  0  0  0
   10.8590   33.7750   78.1700 C   0  0  0  0  0  0
   11.7790   32.9980   77.2330 C   0  0  1  0  0  0
   12.7690   32.1440   78.0290 C   0  0  0  0  0  0
   10.9420   32.1540   76.2720 C   0  0  0  0  0  0
    9.0940   33.8780   76.3820 C   0  0  0  0  0  0
    9.9550   33.0030   75.4640 C   0  0  2  0  0  0
    9.0960   32.1430   74.5410 C   0  0  0  0  0  0
    2.1671   37.1080   81.3025 H   0  0  0  0  0  0
    0.7668   36.7780   80.2270 H   0  0  0  0  0  0
    1.2371   35.6790   83.0398 H   0  0  0  0  0  0
   -0.0098   36.8620   82.5179 H   0  0  0  0  0  0
    1.0680   33.3943   82.2905 H   0  0  0  0  0  0
   -0.3178   32.9258   81.2480 H   0  0  0  0  0  0
    0.5417   34.2340   79.4057 H   0  0  0  0  0  0
    1.8252   33.1271   80.0007 H   0  0  0  0  0  0
    3.8111   33.1114   80.0507 H   0  0  0  0  0  0
    3.4097   33.6252   78.3770 H   0  0  0  0  0  0
    6.0238   34.2377   79.8023 H   0  0  0  0  0  0
    5.7480   32.8739   78.6663 H   0  0  0  0  0  0
    7.3067   35.5694   79.0211 H   0  0  0  0  0  0
    5.3341   37.3529   76.6140 H   0  0  0  0  0  0
    6.2040   39.0592   75.0172 H   0  0  0  0  0  0
   10.2408   37.8194   75.8681 H   0  0  0  0  0  0
   11.4861   34.4458   78.7756 H   0  0  0  0  0  0
   10.3585   33.0485   78.8270 H   0  0  0  0  0  0
   12.3708   33.7086   76.6373 H   0  0  0  0  0  0
   13.3485   32.7893   78.7056 H   0  0  0  0  0  0
   13.4524   31.6325   77.3353 H   0  0  0  0  0  0
   12.2174   31.3966   78.6181 H   0  0  0  0  0  0
   11.6065   31.6369   75.5642 H   0  0  0  0  0  0
   10.3655   31.4113   76.8431 H   0  0  0  0  0  0
    8.3334   33.2224   76.8312 H   0  0  0  0  0  0
    8.6020   34.6270   75.7442 H   0  0  0  0  0  0
   10.5434   33.6725   74.8194 H   0  0  0  0  0  0
    9.7468   31.5309   73.8994 H   0  0  0  0  0  0
    8.4685   32.7928   73.9133 H   0  0  0  0  0  0
    8.4536   31.4856   75.1452 H   0  0  0  0  0  0
  1  2  2  0  0  0
  2  3  1  0  0  0
  2  9  1  0  0  0
  3  4  1  0  0  0
  3  8  1  0  0  0
  4  5  1  0  0  0
  4 31  1  0  0  0
  4 32  1  0  0  0
  5  6  1  0  0  0
  5 33  1  0  0  0
  5 34  1  0  0  0
  6  7  1  0  0  0
  7  8  1  0  0  0
  7 35  1  0  0  0
  7 36  1  0  0  0
  8 37  1  0  0  0
  8 38  1  0  0  0
  9 10  1  0  0  0
  9 39  1  0  0  0
  9 40  1  0  0  0
 10 11  1  0  0  0
 10 41  1  0  0  0
 10 42  1  0  0  0
 11 12  2  0  0  0
 11 13  1  0  0  0
 13 14  1  0  0  0
 13 43  1  0  0  0
 14 15  2  0  0  0
 14 20  1  0  0  0
 15 16  1  0  0  0
 15 44  1  0  0  0
 16 17  2  0  0  0
 16 45  1  0  0  0
 17 18  1  0  0  0
 17 19  1  0  0  0
 19 20  2  0  0  0
 19 46  1  0  0  0
 20 21  1  0  0  0
 21 22  2  0  0  0
 21 23  1  0  0  0
 23 24  1  0  0  0
 23 28  1  0  0  0
 24 25  1  0  0  0
 24 47  1  0  0  0
 24 48  1  0  0  0
 25 26  1  0  0  0
 25 27  1  0  0  0
 25 49  1  0  0  0
 26 50  1  0  0  0
 26 51  1  0  0  0
 26 52  1  0  0  0
 27 29  1  0  0  0
 27 53  1  0  0  0
 27 54  1  0  0  0
 28 29  1  0  0  0
 28 55  1  0  0  0
 28 56  1  0  0  0
 29 30  1  0  0  0
 29 57  1  0  0  0
 30 58  1  0  0  0
 30 59  1  0  0  0
 30 60  1  0  0  0
M  END
> <s_m_source_file>
../3cj5_ligand.sdf

> <i_m_source_file_index>
1

> <s_epik_input>
W0NIMl0xW0NIMl1PW0NIMl1bQ0gyXU4xQyg9TylbQ0gyXVtDSDJdQyg9TylbTkhdYzJbY0hdW2NIXWMoQnIpW2NIXWMyQyg9TylOM1tDSDJdW0NAQEhdKFtDSDNdKVtDSDJdW0NASF0oW0NIMl0zKVtDSDNd

> <s_epik_cmdline>
J2VwaWtfYXBwJywgJy1pbWFlJywgJ2xpZ2FuZF9wcm8ubWFlJywgJy1vbWFlJywgJ2xpZ2FuZF9wcmVwLm1hZScsICctbXMnLCAnMScsICctcGgnLCAnNycsICctcGh0JywgJzAuNScsICctbnQn

> <r_lp_tautomer_probability>
1

> <r_epik_Ionization_Penalty>
  0.0000

> <r_epik_Ionization_Penalty_Charging>
  0.0000

> <r_epik_Ionization_Penalty_Neutral>
  0.0000

> <r_epik_State_Penalty>
 -0.0000

> <r_epik_Charging_Adjusted_Penalty>
0

> <i_epik_Tot_Q>
0

> <i_epik_Tot_abs_Q>
0

$$$$
