3cjf_ligand
                    3D
 Schrodinger Suite 2020-3.
 50 53  0  0  1  0            999 V2000
   15.3790   18.8480   17.9850 N   0  0  0  0  0  0
   17.9870   15.1760   16.3690 N   0  5  0  0  0  0
   16.3980   19.3970   18.7970 C   0  0  0  0  0  0
   15.5220   17.6990   17.1860 C   0  0  0  0  0  0
   14.5950   16.2570   15.7250 C   0  0  0  0  0  0
   15.7470   15.5170   15.6700 C   0  0  0  0  0  0
   16.8080   15.9380   16.4310 C   0  0  0  0  0  0
   19.7310   16.5750   17.3190 C   0  0  0  0  0  0
   22.2400   15.5990   19.9220 C   0  0  0  0  0  0
   20.5610   14.5650   18.8780 C   0  0  0  0  0  0
   16.4030   20.7610   19.0040 C   0  0  0  0  0  0
   18.3630   20.6010   20.3790 C   0  0  0  0  0  0
   18.7170   21.7510   22.2890 C   0  0  0  0  0  0
   18.6690   17.6660   21.7500 C   0  0  0  0  0  0
   19.3400   18.4480   20.7550 O   0  0  0  0  0  0
   18.3530   19.2350   20.1760 C   0  0  0  0  0  0
   17.3840   18.6370   19.3980 C   0  0  0  0  0  0
   14.4490   17.3490   16.4680 N   0  0  0  0  0  0
   19.0810   15.3590   17.2550 C   0  0  0  0  0  0
   20.7980   16.8180   18.1540 C   0  0  0  0  0  0
   21.2180   15.7770   18.9510 C   0  0  0  0  0  0
   23.2350   16.5840   20.3940 C   0  0  0  0  0  0
   22.2240   14.3570   20.4270 N   0  0  0  0  0  0
   21.2020   13.7550   19.7780 N   0  0  0  0  0  0
   19.4950   14.3120   18.0490 C   0  0  0  0  0  0
   16.6880   17.0350   17.1810 N   0  0  0  0  0  0
   17.3710   21.3620   19.7860 C   0  0  0  0  0  0
   17.3500   22.7350   19.9620 O   0  0  0  0  0  0
   16.0040   23.1410   20.1480 C   0  0  0  0  0  0
   19.3740   21.1590   21.1630 O   0  0  0  0  0  0
   14.3884   19.3248   17.9481 H   0  0  0  0  0  0
   13.7472   15.9302   15.1229 H   0  0  0  0  0  0
   15.8177   14.6269   15.0448 H   0  0  0  0  0  0
   19.4012   17.4091   16.6823 H   0  0  0  0  0  0
   15.6299   21.3754   18.5426 H   0  0  0  0  0  0
   19.4660   22.2113   22.9502 H   0  0  0  0  0  0
   18.1669   20.9754   22.8420 H   0  0  0  0  0  0
   18.0134   22.5211   21.9398 H   0  0  0  0  0  0
   19.3959   17.0124   22.2544 H   0  0  0  0  0  0
   17.8932   17.0506   21.2710 H   0  0  0  0  0  0
   18.2026   18.3345   22.4887 H   0  0  0  0  0  0
   17.3957   17.5564   19.2558 H   0  0  0  0  0  0
   21.3109   17.7899   18.2031 H   0  0  0  0  0  0
   23.0874   17.5368   19.8645 H   0  0  0  0  0  0
   24.2485   16.2063   20.1935 H   0  0  0  0  0  0
   23.1099   16.7422   21.4754 H   0  0  0  0  0  0
   19.0049   13.3388   18.0211 H   0  0  0  0  0  0
   15.9661   24.2312   20.2899 H   0  0  0  0  0  0
   15.5896   22.6411   21.0359 H   0  0  0  0  0  0
   15.4123   22.8657   19.2625 H   0  0  0  0  0  0
  1  3  1  0  0  0
  1  4  1  0  0  0
  1 31  1  0  0  0
  2  7  1  0  0  0
  2 19  1  0  0  0
  3 11  2  0  0  0
  3 17  1  0  0  0
  4 18  2  0  0  0
  4 26  1  0  0  0
  5  6  2  0  0  0
  5 18  1  0  0  0
  5 32  1  0  0  0
  6  7  1  0  0  0
  6 33  1  0  0  0
  7 26  2  0  0  0
  8 19  2  0  0  0
  8 20  1  0  0  0
  8 34  1  0  0  0
  9 21  1  0  0  0
  9 22  1  0  0  0
  9 23  2  0  0  0
 10 21  1  0  0  0
 10 24  2  0  0  0
 10 25  1  0  0  0
 11 27  1  0  0  0
 11 35  1  0  0  0
 12 16  1  0  0  0
 12 27  2  0  0  0
 12 30  1  0  0  0
 13 30  1  0  0  0
 13 36  1  0  0  0
 13 37  1  0  0  0
 13 38  1  0  0  0
 14 15  1  0  0  0
 14 39  1  0  0  0
 14 40  1  0  0  0
 14 41  1  0  0  0
 15 16  1  0  0  0
 16 17  2  0  0  0
 17 42  1  0  0  0
 19 25  1  0  0  0
 20 21  2  0  0  0
 20 43  1  0  0  0
 22 44  1  0  0  0
 22 45  1  0  0  0
 22 46  1  0  0  0
 23 24  1  0  0  0
 25 47  1  0  0  0
 27 28  1  0  0  0
 28 29  1  0  0  0
 29 48  1  0  0  0
 29 49  1  0  0  0
 29 50  1  0  0  0
M  CHG  1   2  -1
M  END
> <s_m_source_file>
../3cjf_ligand.sdf

> <i_m_source_file_index>
1

> <s_epik_input>
W0NIM11PYyhbY0hdMSljKE9bQ0gzXSljKE9bQ0gzXSlbY0hdYzFbTkhdYzJuW2NIXVtjSF1jKG4yKVtOSF1DKFtDSDJdMyk9W0NIXVtDSF09QyhDMz00KUMoW0NIM10pPU5ONA==

> <s_epik_cmdline>
J2VwaWtfYXBwJywgJy1pbWFlJywgJ2xpZ2FuZF9wcm8ubWFlJywgJy1vbWFlJywgJ2xpZ2FuZF9wcmVwLm1hZScsICctbXMnLCAnMScsICctcGgnLCAnNycsICctcGh0JywgJzAuNScsICctbnQn

> <r_epik_Ionization_Penalty>
  0.0003

> <r_epik_Ionization_Penalty_Charging>
  0.0000

> <r_epik_Ionization_Penalty_Neutral>
  0.0003

> <r_epik_State_Penalty>
  0.0197

> <r_epik_Charging_Adjusted_Penalty>
0.0196617196335803

> <i_epik_Tot_Q>
-1

> <i_epik_Tot_abs_Q>
1

> <s_epik_Chemistry_Notes>
This compound has an imine and may undergo hydrolysis.

$$$$
