3cjo_ligand
                    3D
 Schrodinger Suite 2020-3.
 62 65  0  0  1  0            999 V2000
   12.6510   21.8440  109.7570 C   0  0  0  0  0  0
   17.9100   18.4110  110.2190 C   0  0  0  0  0  0
   18.1600   13.0720  113.8660 C   0  0  0  0  0  0
   18.7830   14.1930  113.3090 C   0  0  0  0  0  0
   17.3260   12.3420  113.0510 C   0  0  0  0  0  0
   18.5390   14.4640  111.9160 C   0  0  0  0  0  0
   17.0570   12.6660  111.6550 C   0  0  0  0  0  0
   22.5730   15.3840  105.3700 C   0  0  0  0  0  0
   22.5850   14.2540  106.1840 C   0  0  0  0  0  0
   20.5240   16.1590  106.4350 C   0  0  0  0  0  0
   15.2570   19.3220  111.2690 C   0  0  0  0  0  0
   13.9770   20.1730  111.1400 C   0  0  0  0  0  0
   18.9250   13.8490  108.9320 C   0  0  0  0  0  0
   13.9780   20.0640  108.6330 C   0  0  0  0  0  0
   18.4480   15.9770  108.1590 C   0  0  0  0  0  0
   16.1590   13.8360  108.8560 C   0  0  0  0  0  0
   17.6920   13.7260  111.0500 C   0  0  0  0  0  0
   21.5310   16.3250  105.5060 C   0  0  0  0  0  0
   21.5310   14.0200  107.0960 C   0  0  0  0  0  0
   20.4900   14.9560  107.2490 C   0  0  0  0  0  0
   15.4460   18.5370  109.9370 C   0  0  1  0  0  0
   19.3600   14.8260  108.1140 C   0  0  0  0  0  0
   15.3770   19.4550  108.7070 C   0  0  2  0  0  0
   16.6340   16.4090  110.0230 C   0  0  0  0  0  0
   17.5120   14.1540  109.4980 C   0  0  1  0  0  0
   13.9120   20.9790  109.8360 N   0  3  1  0  0  0
   17.5520   15.6400  109.2820 N   0  0  0  0  0  0
   16.6500   17.7640  109.9710 N   0  0  0  0  0  0
   15.9930   12.4730  108.6590 O   0  0  0  0  0  0
   15.6870   15.8390  110.6690 O   0  0  0  0  0  0
   21.5750   17.4130  104.7590 F   0  0  0  0  0  0
   21.6310   12.8900  107.7890 F   0  0  0  0  0  0
   16.2400   20.4850  108.9080 F   0  0  0  0  0  0
   12.6063   22.5078  110.6330 H   0  0  0  0  0  0
   11.7622   21.1960  109.7422 H   0  0  0  0  0  0
   12.6787   22.4495  108.8391 H   0  0  0  0  0  0
   17.7828   19.5012  110.1467 H   0  0  0  0  0  0
   18.6465   18.0774  109.4732 H   0  0  0  0  0  0
   18.2645   18.1492  111.2269 H   0  0  0  0  0  0
   18.3284   12.7878  114.9047 H   0  0  0  0  0  0
   19.4285   14.8370  113.9063 H   0  0  0  0  0  0
   16.8354   11.4662  113.4756 H   0  0  0  0  0  0
   19.0563   15.3209  111.4844 H   0  0  0  0  0  0
   16.3478   12.0641  111.0867 H   0  0  0  0  0  0
   23.3619   15.5399  104.6342 H   0  0  0  0  0  0
   23.4115   13.5465  106.1174 H   0  0  0  0  0  0
   19.7589   16.9257  106.5573 H   0  0  0  0  0  0
   16.1191   19.9813  111.4481 H   0  0  0  0  0  0
   15.1490   18.6227  112.1112 H   0  0  0  0  0  0
   13.0954   19.5157  111.1671 H   0  0  0  0  0  0
   13.9267   20.8884  111.9741 H   0  0  0  0  0  0
   19.5581   12.9703  109.1245 H   0  0  0  0  0  0
   13.8674   20.6147  107.6872 H   0  0  0  0  0  0
   13.2262   19.2625  108.6806 H   0  0  0  0  0  0
   19.0258   16.8958  108.3378 H   0  0  0  0  0  0
   17.9147   16.0600  107.2005 H   0  0  0  0  0  0
   15.3498   14.1925  109.5103 H   0  0  0  0  0  0
   16.0893   14.3381  107.8798 H   0  0  0  0  0  0
   14.6657   17.7699  109.8248 H   0  0  0  0  0  0
   15.6969   18.9612  107.7776 H   0  0  0  0  0  0
   14.7887   21.6431  109.8189 H   0  0  0  0  0  0
   15.0665   12.0917  108.2048 H   0  0  0  0  0  0
  1 26  1  0  0  0
  1 34  1  0  0  0
  1 35  1  0  0  0
  1 36  1  0  0  0
  2 28  1  0  0  0
  2 37  1  0  0  0
  2 38  1  0  0  0
  2 39  1  0  0  0
  3  4  2  0  0  0
  3  5  1  0  0  0
  3 40  1  0  0  0
  4  6  1  0  0  0
  4 41  1  0  0  0
  5  7  2  0  0  0
  5 42  1  0  0  0
  6 17  2  0  0  0
  6 43  1  0  0  0
  7 17  1  0  0  0
  7 44  1  0  0  0
  8  9  2  0  0  0
  8 18  1  0  0  0
  8 45  1  0  0  0
  9 19  1  0  0  0
  9 46  1  0  0  0
 10 18  2  0  0  0
 10 20  1  0  0  0
 10 47  1  0  0  0
 11 12  1  0  0  0
 11 21  1  0  0  0
 11 48  1  0  0  0
 11 49  1  0  0  0
 12 26  1  0  0  0
 12 50  1  0  0  0
 12 51  1  0  0  0
 13 22  2  0  0  0
 13 25  1  0  0  0
 13 52  1  0  0  0
 14 23  1  0  0  0
 14 26  1  0  0  0
 14 53  1  0  0  0
 14 54  1  0  0  0
 15 22  1  0  0  0
 15 27  1  0  0  0
 15 55  1  0  0  0
 15 56  1  0  0  0
 16 25  1  0  0  0
 16 29  1  0  0  0
 16 57  1  0  0  0
 16 58  1  0  0  0
 17 25  1  0  0  0
 18 31  1  0  0  0
 19 20  2  0  0  0
 19 32  1  0  0  0
 20 22  1  0  0  0
 21 23  1  0  0  0
 21 28  1  0  0  0
 21 59  1  0  0  0
 23 33  1  0  0  0
 23 60  1  0  0  0
 24 27  1  0  0  0
 24 28  1  0  0  0
 24 30  2  0  0  0
 25 27  1  0  0  0
 26 61  1  0  0  0
 29 62  1  0  0  0
M  CHG  1  26   1
M  END
> <s_m_source_file>
../3cjo_ligand.sdf

> <i_m_source_file_index>
1

> <s_epik_input>
RltDQEBIXTFbQ0gyXVtOQEBIK10oW0NIM10pW0NIMl1bQ0gyXVtDQEBIXTFOKFtDSDNdKUMoPU8pTjJbQ0gyXUMoYyhbY0hdMyljKEYpW2NIXVtjSF1jM0YpPVtDSF1bQ0BAXTIoW0NIMl1bT0hdKWM0W2NIXVtjSF1bY0hdW2NIXVtjSF00

> <s_epik_cmdline>
J2VwaWtfYXBwJywgJy1pbWFlJywgJ2xpZ2FuZF9wcm8ubWFlJywgJy1vbWFlJywgJ2xpZ2FuZF9wcmVwLm1hZScsICctbXMnLCAnMScsICctcGgnLCAnNycsICctcGh0JywgJzAuNScsICctbnQn

> <r_epik_Ionization_Penalty>
  0.1048

> <r_epik_Ionization_Penalty_Charging>
  0.1048

> <r_epik_Ionization_Penalty_Neutral>
  0.0000

> <r_epik_State_Penalty>
  0.0947

> <r_epik_Charging_Adjusted_Penalty>
0.199418853716599

> <i_epik_Tot_Q>
1

> <i_epik_Tot_abs_Q>
1

$$$$
