3ck7_ligand
                    3D
 Schrodinger Suite 2020-3.
126132  0  0  1  0            999 V2000
    5.9890  -24.3030   47.4290 C   0  0  1  0  0  0
    5.0270  -24.3420   46.2140 C   0  0  1  0  0  0
    4.2240  -23.0330   46.0430 C   0  0  2  0  0  0
    3.9370  -22.2800   47.3870 C   0  0  1  0  0  0
    4.8970  -22.5520   48.5810 C   0  0  1  0  0  0
    4.3510  -22.0710   49.9380 C   0  0  0  0  0  0
    7.1200  -23.4530   47.2420 O   0  0  0  0  0  0
    5.7470  -24.6120   45.0150 O   0  0  0  0  0  0
    2.9840  -23.3060   45.3920 O   0  0  0  0  0  0
    5.1970  -23.9810   48.6000 O   0  0  0  0  0  0
    3.5920  -23.0770   50.5500 O   0  0  0  0  0  0
   11.2920  -23.7950   48.0650 C   0  0  1  0  0  0
   10.6760  -24.8780   47.1700 C   0  0  1  0  0  0
    9.3030  -24.4470   46.5970 C   0  0  2  0  0  0
    8.3380  -24.0320   47.7440 C   0  0  1  0  0  0
    9.0090  -23.0090   48.6810 C   0  0  1  0  0  0
    8.1840  -22.7210   49.9350 C   0  0  0  0  0  0
   11.5760  -22.6780   47.2300 O   0  0  0  0  0  0
   11.5990  -25.1700   46.1230 O   0  0  0  0  0  0
    8.7660  -25.5590   45.8960 O   0  0  0  0  0  0
   10.3340  -23.4610   49.1120 O   0  0  0  0  0  0
    8.8600  -21.7610   50.7270 O   0  0  0  0  0  0
   12.7970  -18.7160   47.7500 C   0  0  1  0  0  0
   13.3620  -19.4870   46.5490 C   0  0  1  0  0  0
   12.4610  -20.7130   46.3280 C   0  0  2  0  0  0
   12.4760  -21.5800   47.5770 C   0  0  1  0  0  0
   11.9940  -20.7130   48.8130 C   0  0  1  0  0  0
   12.0890  -21.5060   50.1430 C   0  0  0  0  0  0
   11.3920  -18.4350   47.4440 O   0  0  0  0  0  0
   13.3180  -18.6590   45.3870 O   0  0  0  0  0  0
   12.9400  -21.4890   45.2260 O   0  0  0  0  0  0
   12.8730  -19.5690   48.9490 O   0  0  0  0  0  0
   11.6370  -20.7230   51.2280 O   0  0  0  0  0  0
    8.6940  -15.2220   47.3820 C   0  0  1  0  0  0
    9.6770  -15.3350   46.2130 C   0  0  1  0  0  0
   10.2630  -16.7480   46.1460 C   0  0  2  0  0  0
   11.0020  -17.0540   47.4640 C   0  0  1  0  0  0
   10.1030  -16.8530   48.7180 C   0  0  1  0  0  0
   10.9190  -16.8890   50.0180 C   0  0  0  0  0  0
    7.5230  -16.0230   47.2210 O   0  0  0  0  0  0
    8.9860  -15.0100   45.0010 O   0  0  0  0  0  0
   11.1710  -16.8610   45.0410 O   0  0  0  0  0  0
    9.3670  -15.5840   48.6350 O   0  0  0  0  0  0
   10.0600  -16.7170   51.1150 O   0  0  0  0  0  0
    3.3820  -15.7710   47.9060 C   0  0  1  0  0  0
    4.0020  -14.6770   47.0240 C   0  0  1  0  0  0
    5.4100  -15.1010   46.5410 C   0  0  2  0  0  0
    6.3190  -15.4860   47.7470 C   0  0  1  0  0  0
    5.5910  -16.4950   48.6560 C   0  0  1  0  0  0
    6.3250  -16.8060   49.9500 C   0  0  0  0  0  0
    3.1880  -16.9460   47.1140 O   0  0  0  0  0  0
    3.1430  -14.4240   45.9110 O   0  0  0  0  0  0
    5.9960  -14.0120   45.8400 O   0  0  0  0  0  0
    4.2670  -16.0420   49.0050 O   0  0  0  0  0  0
    5.9930  -18.1230   50.3310 O   0  0  0  0  0  0
    2.0770  -20.7830   47.5640 C   0  0  1  0  0  0
    1.3550  -20.0830   46.4170 C   0  0  1  0  0  0
    1.9830  -18.7110   46.1880 C   0  0  2  0  0  0
    2.1200  -17.8480   47.4820 C   0  0  1  0  0  0
    2.5420  -18.6830   48.7590 C   0  0  1  0  0  0
    2.2140  -18.0040   50.0990 C   0  0  0  0  0  0
    3.4920  -20.9420   47.2800 O   0  0  0  0  0  0
    1.4810  -20.8750   45.2420 O   0  0  0  0  0  0
    1.1990  -18.0220   45.2230 O   0  0  0  0  0  0
    1.9200  -19.9970   48.7550 O   0  0  0  0  0  0
    2.6620  -18.8230   51.1540 O   0  0  0  0  0  0
    6.5108  -25.2519   47.6225 H   0  0  0  0  0  0
    4.3361  -25.1893   46.3358 H   0  0  0  0  0  0
    4.7932  -22.3813   45.3638 H   0  0  0  0  0  0
    2.9551  -22.6632   47.7017 H   0  0  0  0  0  0
    5.8483  -22.0187   48.4374 H   0  0  0  0  0  0
    5.1903  -21.8071   50.5982 H   0  0  0  0  0  0
    3.7135  -21.1878   49.7845 H   0  0  0  0  0  0
    6.3811  -25.5081   44.9442 H   0  0  0  0  0  0
    2.9740  -23.8327   44.4263 H   0  0  0  0  0  0
    3.1276  -22.8960   51.5306 H   0  0  0  0  0  0
   12.2347  -24.0639   48.5641 H   0  0  0  0  0  0
   10.5484  -25.8176   47.7275 H   0  0  0  0  0  0
    9.3960  -23.6337   45.8623 H   0  0  0  0  0  0
    8.0200  -24.9350   48.2857 H   0  0  0  0  0  0
    9.1421  -22.0852   48.0989 H   0  0  0  0  0  0
    7.1978  -22.3306   49.6434 H   0  0  0  0  0  0
    8.0552  -23.6496   50.5104 H   0  0  0  0  0  0
   12.6225  -25.4916   46.3659 H   0  0  0  0  0  0
    9.3157  -25.9916   45.0470 H   0  0  0  0  0  0
    8.4197  -21.4230   51.6767 H   0  0  0  0  0  0
   13.3304  -17.7783   47.9650 H   0  0  0  0  0  0
   14.4227  -19.7490   46.6768 H   0  0  0  0  0  0
   11.4392  -20.4076   46.0585 H   0  0  0  0  0  0
   13.4507  -22.0237   47.8282 H   0  0  0  0  0  0
   10.9685  -20.3496   48.6510 H   0  0  0  0  0  0
   11.4670  -22.4107   50.0757 H   0  0  0  0  0  0
   13.1352  -21.7930   50.3249 H   0  0  0  0  0  0
   13.9021  -17.7275   45.3530 H   0  0  0  0  0  0
   13.0064  -21.0393   44.2243 H   0  0  0  0  0  0
   11.6394  -21.1400   52.2459 H   0  0  0  0  0  0
    8.3038  -14.1954   47.4440 H   0  0  0  0  0  0
   10.4939  -14.6030   46.2956 H   0  0  0  0  0  0
    9.4747  -17.4865   45.9380 H   0  0  0  0  0  0
   11.9017  -16.4240   47.5246 H   0  0  0  0  0  0
    9.3462  -17.6508   48.7466 H   0  0  0  0  0  0
   11.4317  -17.8586   50.1024 H   0  0  0  0  0  0
   11.6643  -16.0800   50.0057 H   0  0  0  0  0  0
    8.5060  -14.0267   44.8883 H   0  0  0  0  0  0
   10.8161  -16.6762   44.0164 H   0  0  0  0  0  0
   10.4668  -16.7146   52.1370 H   0  0  0  0  0  0
    2.4038  -15.5083   48.3350 H   0  0  0  0  0  0
    4.0557  -13.7202   47.5640 H   0  0  0  0  0  0
    5.3463  -15.9271   45.8174 H   0  0  0  0  0  0
    6.6392  -14.6275   48.3556 H   0  0  0  0  0  0
    5.4804  -17.4178   48.0675 H   0  0  0  0  0  0
    7.4093  -16.7188   49.7866 H   0  0  0  0  0  0
    6.0132  -16.0943   50.7286 H   0  0  0  0  0  0
    2.1020  -14.1113   46.0796 H   0  0  0  0  0  0
    5.4966  -13.5968   44.9522 H   0  0  0  0  0  0
    6.4194  -18.5541   51.2488 H   0  0  0  0  0  0
    1.6707  -21.7889   47.7459 H   0  0  0  0  0  0
    0.2748  -19.9952   46.6051 H   0  0  0  0  0  0
    2.9824  -18.8521   45.7506 H   0  0  0  0  0  0
    1.1992  -17.3063   47.7440 H   0  0  0  0  0  0
    3.6295  -18.8415   48.7122 H   0  0  0  0  0  0
    2.7190  -17.0280   50.1488 H   0  0  0  0  0  0
    1.1266  -17.8588   50.1800 H   0  0  0  0  0  0
    1.0824  -21.9001   45.2243 H   0  0  0  0  0  0
    0.9986  -18.4846   44.2453 H   0  0  0  0  0  0
    2.5166  -18.5051   52.1970 H   0  0  0  0  0  0
  1  2  1  0  0  0
  1  7  1  0  0  0
  1 10  1  0  0  0
  1 67  1  0  0  0
  2  3  1  0  0  0
  2  8  1  0  0  0
  2 68  1  0  0  0
  3  4  1  0  0  0
  3  9  1  0  0  0
  3 69  1  0  0  0
  4  5  1  0  0  0
  4 62  1  0  0  0
  4 70  1  0  0  0
  5  6  1  0  0  0
  5 10  1  0  0  0
  5 71  1  0  0  0
  6 11  1  0  0  0
  6 72  1  0  0  0
  6 73  1  0  0  0
  7 15  1  0  0  0
  8 74  1  0  0  0
  9 75  1  0  0  0
 11 76  1  0  0  0
 12 13  1  0  0  0
 12 18  1  0  0  0
 12 21  1  0  0  0
 12 77  1  0  0  0
 13 14  1  0  0  0
 13 19  1  0  0  0
 13 78  1  0  0  0
 14 15  1  0  0  0
 14 20  1  0  0  0
 14 79  1  0  0  0
 15 16  1  0  0  0
 15 80  1  0  0  0
 16 17  1  0  0  0
 16 21  1  0  0  0
 16 81  1  0  0  0
 17 22  1  0  0  0
 17 82  1  0  0  0
 17 83  1  0  0  0
 18 26  1  0  0  0
 19 84  1  0  0  0
 20 85  1  0  0  0
 22 86  1  0  0  0
 23 24  1  0  0  0
 23 29  1  0  0  0
 23 32  1  0  0  0
 23 87  1  0  0  0
 24 25  1  0  0  0
 24 30  1  0  0  0
 24 88  1  0  0  0
 25 26  1  0  0  0
 25 31  1  0  0  0
 25 89  1  0  0  0
 26 27  1  0  0  0
 26 90  1  0  0  0
 27 28  1  0  0  0
 27 32  1  0  0  0
 27 91  1  0  0  0
 28 33  1  0  0  0
 28 92  1  0  0  0
 28 93  1  0  0  0
 29 37  1  0  0  0
 30 94  1  0  0  0
 31 95  1  0  0  0
 33 96  1  0  0  0
 34 35  1  0  0  0
 34 40  1  0  0  0
 34 43  1  0  0  0
 34 97  1  0  0  0
 35 36  1  0  0  0
 35 41  1  0  0  0
 35 98  1  0  0  0
 36 37  1  0  0  0
 36 42  1  0  0  0
 36 99  1  0  0  0
 37 38  1  0  0  0
 37100  1  0  0  0
 38 39  1  0  0  0
 38 43  1  0  0  0
 38101  1  0  0  0
 39 44  1  0  0  0
 39102  1  0  0  0
 39103  1  0  0  0
 40 48  1  0  0  0
 41104  1  0  0  0
 42105  1  0  0  0
 44106  1  0  0  0
 45 46  1  0  0  0
 45 51  1  0  0  0
 45 54  1  0  0  0
 45107  1  0  0  0
 46 47  1  0  0  0
 46 52  1  0  0  0
 46108  1  0  0  0
 47 48  1  0  0  0
 47 53  1  0  0  0
 47109  1  0  0  0
 48 49  1  0  0  0
 48110  1  0  0  0
 49 50  1  0  0  0
 49 54  1  0  0  0
 49111  1  0  0  0
 50 55  1  0  0  0
 50112  1  0  0  0
 50113  1  0  0  0
 51 59  1  0  0  0
 52114  1  0  0  0
 53115  1  0  0  0
 55116  1  0  0  0
 56 57  1  0  0  0
 56 62  1  0  0  0
 56 65  1  0  0  0
 56117  1  0  0  0
 57 58  1  0  0  0
 57 63  1  0  0  0
 57118  1  0  0  0
 58 59  1  0  0  0
 58 64  1  0  0  0
 58119  1  0  0  0
 59 60  1  0  0  0
 59120  1  0  0  0
 60 61  1  0  0  0
 60 65  1  0  0  0
 60121  1  0  0  0
 61 66  1  0  0  0
 61122  1  0  0  0
 61123  1  0  0  0
 63124  1  0  0  0
 64125  1  0  0  0
 66126  1  0  0  0
M  END
> <s_m_source_file>
../3ck7_ligand.sdf

> <i_m_source_file_index>
1

> <s_epik_input>
W0NASF0xMltDQEhdKFtPSF0pW0NAQEhdKFtPSF0pW0NAQEhdKFtDQEhdKE8yKVtDSDJdW09IXSlPW0NAQEhdM1tDQEhdKFtPSF0pW0NAQEhdKFtPSF0pW0NAQEhdKFtDQEhdKE8zKVtDSDJdW09IXSlPW0NAQEhdNFtDQEhdKFtPSF0pW0NAQEhdKFtPSF0pW0NAQEhdKFtDQEhdKE80KVtDSDJdW09IXSlPW0NAQEhdNVtDQEhdKFtPSF0pW0NAQEhdKFtPSF0pW0NAQEhdKFtDQEhdKE81KVtDSDJdW09IXSlPW0NAQEhdNltDQEhdKFtPSF0pW0NAQEhdKFtPSF0pW0NAQEhdKFtDQEhdKE82KVtDSDJdW09IXSlPW0NAQEhdN1tDQEhdKFtPSF0pW0NAQEhdKFtPSF0pW0NASF0oTzEpW0NASF0oTzcpW0NIMl1bT0hd

> <s_epik_cmdline>
J2VwaWtfYXBwJywgJy1pbWFlJywgJ2xpZ2FuZF9wcm8ubWFlJywgJy1vbWFlJywgJ2xpZ2FuZF9wcmVwLm1hZScsICctbXMnLCAnMScsICctcGgnLCAnNycsICctcGh0JywgJzAuNScsICctbnQn

> <r_lp_tautomer_probability>
1

> <r_epik_Ionization_Penalty>
  0.0000

> <r_epik_Ionization_Penalty_Charging>
  0.0000

> <r_epik_Ionization_Penalty_Neutral>
  0.0000

> <r_epik_State_Penalty>
 -0.0000

> <r_epik_Charging_Adjusted_Penalty>
0

> <i_epik_Tot_Q>
0

> <i_epik_Tot_abs_Q>
0

> <s_epik_Chemistry_Notes>
This compound contains an acetal/aminal-like group ( X-CH(R)-Y where X, Y are N, S, or O) that may be acid/base labile, releasing an aldehyde.

$$$$
