3ck8_ligand
                    3D
 Schrodinger Suite 2020-3.
147154  0  0  1  0            999 V2000
   18.4400  -29.2010   -2.0370 C   0  0  2  0  0  0
   17.9100  -29.9880   -3.2480 C   0  0  2  0  0  0
   18.7570  -31.1280   -3.4360 O   0  0  0  0  0  0
   17.9210  -29.1130   -4.5220 C   0  0  1  0  0  0
   17.2250  -29.7720   -5.5720 O   0  0  0  0  0  0
   17.2870  -27.6970   -4.2940 C   0  0  2  0  0  0
   17.7460  -26.9650   -5.4410 O   0  0  0  0  0  0
   17.7840  -27.0330   -2.9510 C   0  0  2  0  0  0
   17.7150  -27.9740   -1.8660 O   0  0  0  0  0  0
   17.0020  -25.7790   -2.5320 C   0  0  0  0  0  0
   17.8170  -24.9940   -1.6800 O   0  0  0  0  0  0
   16.9390  -25.8810   -5.9040 C   0  0  2  0  0  0
   16.7900  -25.9450   -7.4450 C   0  0  2  0  0  0
   16.3190  -27.2210   -7.8400 O   0  0  0  0  0  0
   18.1300  -25.6550   -8.1400 C   0  0  1  0  0  0
   17.9020  -25.5750   -9.5470 O   0  0  0  0  0  0
   18.7330  -24.3200   -7.6360 C   0  0  2  0  0  0
   20.0010  -24.1850   -8.2610 O   0  0  0  0  0  0
   18.8270  -24.3560   -6.0930 C   0  0  2  0  0  0
   17.5110  -24.6010   -5.5490 O   0  0  0  0  0  0
   19.2820  -23.0570   -5.4450 C   0  0  0  0  0  0
   19.8730  -23.3630   -4.2020 O   0  0  0  0  0  0
   20.0920  -23.0700   -9.1540 C   0  0  2  0  0  0
   21.0910  -23.3540  -10.2950 C   0  0  2  0  0  0
   20.7920  -24.6200  -10.8560 O   0  0  0  0  0  0
   22.5490  -23.3320   -9.8010 C   0  0  1  0  0  0
   23.4230  -23.3760  -10.9300 O   0  0  0  0  0  0
   22.8520  -22.0450   -8.9870 C   0  0  2  0  0  0
   24.1700  -22.1790   -8.4730 O   0  0  0  0  0  0
   21.8040  -21.9240   -7.8570 C   0  0  2  0  0  0
   20.4820  -21.8700   -8.4410 O   0  0  0  0  0  0
   21.9350  -20.6810   -6.9580 C   0  0  0  0  0  0
   21.9010  -19.5080   -7.7510 O   0  0  0  0  0  0
   25.0810  -21.1530   -8.8770 C   0  0  2  0  0  0
   26.4010  -21.7450   -9.4080 C   0  0  2  0  0  0
   26.1510  -22.6450  -10.4800 O   0  0  0  0  0  0
   27.1640  -22.4970   -8.2920 C   0  0  1  0  0  0
   28.4680  -22.8590   -8.7710 O   0  0  0  0  0  0
   27.3260  -21.6560   -6.9980 C   0  0  2  0  0  0
   27.5270  -22.5780   -5.9190 O   0  0  0  0  0  0
   26.0670  -20.8080   -6.6300 C   0  0  2  0  0  0
   25.3240  -20.2870   -7.7480 O   0  0  0  0  0  0
   26.4110  -19.6180   -5.7300 C   0  0  0  0  0  0
   25.5260  -19.6330   -4.6300 O   0  0  0  0  0  0
   28.6420  -22.2550   -5.0580 C   0  0  2  0  0  0
   29.6300  -23.4360   -5.0710 C   0  0  2  0  0  0
   30.0800  -23.6740   -6.4010 O   0  0  0  0  0  0
   28.9510  -24.7080   -4.5270 C   0  0  1  0  0  0
   29.9230  -25.7460   -4.4080 O   0  0  0  0  0  0
   28.2920  -24.4600   -3.1410 C   0  0  2  0  0  0
   27.4750  -25.5500   -2.7510 O   0  0  0  0  0  0
   27.4510  -23.1380   -3.1340 C   0  0  2  0  0  0
   28.2110  -22.0370   -3.6920 O   0  0  0  0  0  0
   26.9940  -22.7150   -1.7240 C   0  0  0  0  0  0
   28.1120  -22.6790   -0.8460 O   0  0  0  0  0  0
   27.9170  -26.3460   -1.6530 C   0  0  2  0  0  0
   27.8200  -27.8450   -2.0690 C   0  0  2  0  0  0
   28.4450  -28.0340   -3.3430 O   0  0  0  0  0  0
   26.3600  -28.3300   -2.2160 C   0  0  1  0  0  0
   26.3380  -29.7420   -2.3940 O   0  0  0  0  0  0
   25.5140  -27.9640   -0.9840 C   0  0  2  0  0  0
   24.1530  -28.2600   -1.2810 O   0  0  0  0  0  0
   25.6920  -26.4500   -0.6810 C   0  0  2  0  0  0
   27.0810  -26.1100   -0.4940 O   0  0  0  0  0  0
   24.9210  -25.9710    0.5650 C   0  0  0  0  0  0
   25.2440  -26.7980    1.6660 O   0  0  0  0  0  0
   23.4900  -29.0440   -0.2870 C   0  0  2  0  0  0
   22.9440  -30.3740   -0.8390 C   0  0  2  0  0  0
   24.0180  -31.0950   -1.4360 O   0  0  0  0  0  0
   21.8720  -30.1220   -1.8850 C   0  0  1  0  0  0
   21.4440  -31.3850   -2.3990 O   0  0  0  0  0  0
   20.6910  -29.3880   -1.2270 C   0  0  2  0  0  0
   19.8320  -28.9230   -2.2670 O   0  0  0  0  0  0
   21.1470  -28.1460   -0.4120 C   0  0  2  0  0  0
   22.4450  -28.1980    0.2470 O   0  0  0  0  0  0
   20.1300  -27.7210    0.6380 C   0  0  0  0  0  0
   20.0970  -26.3110    0.6210 O   0  0  0  0  0  0
   18.3372  -29.7400   -1.0836 H   0  0  0  0  0  0
   16.8948  -30.3698   -3.0644 H   0  0  0  0  0  0
   18.8726  -31.8664   -2.6289 H   0  0  0  0  0  0
   18.9598  -29.0216   -4.8721 H   0  0  0  0  0  0
   17.5254  -30.7842   -5.8805 H   0  0  0  0  0  0
   16.1873  -27.6832   -4.2719 H   0  0  0  0  0  0
   18.8415  -26.7577   -3.0773 H   0  0  0  0  0  0
   16.7324  -25.1990   -3.4269 H   0  0  0  0  0  0
   16.0871  -26.0782   -1.9996 H   0  0  0  0  0  0
   17.4335  -24.0478   -1.2705 H   0  0  0  0  0  0
   15.9947  -25.9823   -5.3490 H   0  0  0  0  0  0
   16.0154  -25.2434   -7.7882 H   0  0  0  0  0  0
   15.3673  -27.6033   -7.4424 H   0  0  0  0  0  0
   18.8392  -26.4818   -7.9871 H   0  0  0  0  0  0
   17.4747  -26.4343  -10.0847 H   0  0  0  0  0  0
   18.1795  -23.4186   -7.9379 H   0  0  0  0  0  0
   19.5315  -25.1601   -5.8341 H   0  0  0  0  0  0
   20.0142  -22.5587   -6.0973 H   0  0  0  0  0  0
   18.4142  -22.3975   -5.2969 H   0  0  0  0  0  0
   20.2710  -22.5564   -3.5688 H   0  0  0  0  0  0
   19.0671  -22.9129   -9.5212 H   0  0  0  0  0  0
   20.9696  -22.6254  -11.1101 H   0  0  0  0  0  0
   19.7893  -24.8185  -11.2625 H   0  0  0  0  0  0
   22.7563  -24.2326   -9.2043 H   0  0  0  0  0  0
   23.3661  -24.2166  -11.6372 H   0  0  0  0  0  0
   22.8755  -21.1181   -9.5788 H   0  0  0  0  0  0
   21.9134  -22.8236   -7.2335 H   0  0  0  0  0  0
   21.1019  -20.6583   -6.2401 H   0  0  0  0  0  0
   22.8888  -20.7225   -6.4116 H   0  0  0  0  0  0
   21.9822  -18.5197   -7.2749 H   0  0  0  0  0  0
   24.5732  -20.5673   -9.6574 H   0  0  0  0  0  0
   27.0128  -20.9414   -9.8439 H   0  0  0  0  0  0
   25.6150  -22.2981  -11.3757 H   0  0  0  0  0  0
   26.6304  -23.4314   -8.0635 H   0  0  0  0  0  0
   28.5703  -23.4615   -9.6856 H   0  0  0  0  0  0
   28.2016  -20.9993   -7.1078 H   0  0  0  0  0  0
   25.3673  -21.5102   -6.1532 H   0  0  0  0  0  0
   27.4506  -19.7096   -5.3825 H   0  0  0  0  0  0
   26.2953  -18.6831   -6.2980 H   0  0  0  0  0  0
   25.6002  -18.8571   -3.8538 H   0  0  0  0  0  0
   29.0551  -21.3028   -5.4223 H   0  0  0  0  0  0
   30.5353  -23.1913   -4.4960 H   0  0  0  0  0  0
   30.5930  -22.8768   -6.9590 H   0  0  0  0  0  0
   28.2051  -25.0704   -5.2496 H   0  0  0  0  0  0
   30.4983  -26.0645   -5.2898 H   0  0  0  0  0  0
   29.0737  -24.4475   -2.3672 H   0  0  0  0  0  0
   26.5750  -23.2927   -3.7811 H   0  0  0  0  0  0
   26.5363  -21.7159   -1.7713 H   0  0  0  0  0  0
   26.2570  -23.4383   -1.3450 H   0  0  0  0  0  0
   27.9747  -22.3959    0.2080 H   0  0  0  0  0  0
   28.9288  -26.0024   -1.3918 H   0  0  0  0  0  0
   28.3630  -28.4520   -1.3296 H   0  0  0  0  0  0
   29.5001  -27.7570   -3.4845 H   0  0  0  0  0  0
   25.9114  -27.9049   -3.1260 H   0  0  0  0  0  0
   26.8890  -30.1998   -3.2288 H   0  0  0  0  0  0
   25.7562  -28.5763   -0.1029 H   0  0  0  0  0  0
   25.3457  -25.9030   -1.5703 H   0  0  0  0  0  0
   25.2010  -24.9318    0.7924 H   0  0  0  0  0  0
   23.8397  -26.0252    0.3704 H   0  0  0  0  0  0
   24.7874  -26.6087    2.6487 H   0  0  0  0  0  0
   24.2163  -29.2788    0.5051 H   0  0  0  0  0  0
   22.5405  -31.0080   -0.0357 H   0  0  0  0  0  0
   24.8953  -31.3735   -0.8338 H   0  0  0  0  0  0
   22.2603  -29.5573   -2.7454 H   0  0  0  0  0  0
   22.1637  -32.0454   -2.9049 H   0  0  0  0  0  0
   20.1306  -30.0889   -0.5909 H   0  0  0  0  0  0
   21.2999  -27.3867   -1.1931 H   0  0  0  0  0  0
   19.1447  -28.1391    0.3844 H   0  0  0  0  0  0
   20.4436  -28.0937    1.6243 H   0  0  0  0  0  0
   19.4266  -25.7683    1.3036 H   0  0  0  0  0  0
  1  2  1  0  0  0
  1  9  1  0  0  0
  1 73  1  0  0  0
  1 78  1  0  0  0
  2  3  1  0  0  0
  2  4  1  0  0  0
  2 79  1  0  0  0
  3 80  1  0  0  0
  4  5  1  0  0  0
  4  6  1  0  0  0
  4 81  1  0  0  0
  5 82  1  0  0  0
  6  7  1  0  0  0
  6  8  1  0  0  0
  6 83  1  0  0  0
  7 12  1  0  0  0
  8  9  1  0  0  0
  8 10  1  0  0  0
  8 84  1  0  0  0
 10 11  1  0  0  0
 10 85  1  0  0  0
 10 86  1  0  0  0
 11 87  1  0  0  0
 12 13  1  0  0  0
 12 20  1  0  0  0
 12 88  1  0  0  0
 13 14  1  0  0  0
 13 15  1  0  0  0
 13 89  1  0  0  0
 14 90  1  0  0  0
 15 16  1  0  0  0
 15 17  1  0  0  0
 15 91  1  0  0  0
 16 92  1  0  0  0
 17 18  1  0  0  0
 17 19  1  0  0  0
 17 93  1  0  0  0
 18 23  1  0  0  0
 19 20  1  0  0  0
 19 21  1  0  0  0
 19 94  1  0  0  0
 21 22  1  0  0  0
 21 95  1  0  0  0
 21 96  1  0  0  0
 22 97  1  0  0  0
 23 24  1  0  0  0
 23 31  1  0  0  0
 23 98  1  0  0  0
 24 25  1  0  0  0
 24 26  1  0  0  0
 24 99  1  0  0  0
 25100  1  0  0  0
 26 27  1  0  0  0
 26 28  1  0  0  0
 26101  1  0  0  0
 27102  1  0  0  0
 28 29  1  0  0  0
 28 30  1  0  0  0
 28103  1  0  0  0
 29 34  1  0  0  0
 30 31  1  0  0  0
 30 32  1  0  0  0
 30104  1  0  0  0
 32 33  1  0  0  0
 32105  1  0  0  0
 32106  1  0  0  0
 33107  1  0  0  0
 34 35  1  0  0  0
 34 42  1  0  0  0
 34108  1  0  0  0
 35 36  1  0  0  0
 35 37  1  0  0  0
 35109  1  0  0  0
 36110  1  0  0  0
 37 38  1  0  0  0
 37 39  1  0  0  0
 37111  1  0  0  0
 38112  1  0  0  0
 39 40  1  0  0  0
 39 41  1  0  0  0
 39113  1  0  0  0
 40 45  1  0  0  0
 41 42  1  0  0  0
 41 43  1  0  0  0
 41114  1  0  0  0
 43 44  1  0  0  0
 43115  1  0  0  0
 43116  1  0  0  0
 44117  1  0  0  0
 45 46  1  0  0  0
 45 53  1  0  0  0
 45118  1  0  0  0
 46 47  1  0  0  0
 46 48  1  0  0  0
 46119  1  0  0  0
 47120  1  0  0  0
 48 49  1  0  0  0
 48 50  1  0  0  0
 48121  1  0  0  0
 49122  1  0  0  0
 50 51  1  0  0  0
 50 52  1  0  0  0
 50123  1  0  0  0
 51 56  1  0  0  0
 52 53  1  0  0  0
 52 54  1  0  0  0
 52124  1  0  0  0
 54 55  1  0  0  0
 54125  1  0  0  0
 54126  1  0  0  0
 55127  1  0  0  0
 56 57  1  0  0  0
 56 64  1  0  0  0
 56128  1  0  0  0
 57 58  1  0  0  0
 57 59  1  0  0  0
 57129  1  0  0  0
 58130  1  0  0  0
 59 60  1  0  0  0
 59 61  1  0  0  0
 59131  1  0  0  0
 60132  1  0  0  0
 61 62  1  0  0  0
 61 63  1  0  0  0
 61133  1  0  0  0
 62 67  1  0  0  0
 63 64  1  0  0  0
 63 65  1  0  0  0
 63134  1  0  0  0
 65 66  1  0  0  0
 65135  1  0  0  0
 65136  1  0  0  0
 66137  1  0  0  0
 67 68  1  0  0  0
 67 75  1  0  0  0
 67138  1  0  0  0
 68 69  1  0  0  0
 68 70  1  0  0  0
 68139  1  0  0  0
 69140  1  0  0  0
 70 71  1  0  0  0
 70 72  1  0  0  0
 70141  1  0  0  0
 71142  1  0  0  0
 72 73  1  0  0  0
 72 74  1  0  0  0
 72143  1  0  0  0
 74 75  1  0  0  0
 74 76  1  0  0  0
 74144  1  0  0  0
 76 77  1  0  0  0
 76145  1  0  0  0
 76146  1  0  0  0
 77147  1  0  0  0
M  END
> <s_m_source_file>
../3ck8_ligand.sdf

> <i_m_source_file_index>
1

> <s_epik_input>
W0NAQEhdMTJbQ0BIXShbT0hdKVtDQEBIXShbT0hdKVtDQEBIXShbQ0BIXShPMSlbQ0gyXVtPSF0pT1tDQEBIXTNbQ0BIXShbT0hdKVtDQEBIXShbT0hdKVtDQEBIXShbQ0BIXShPMylbQ0gyXVtPSF0pT1tDQEBIXTRbQ0BIXShbT0hdKVtDQEBIXShbT0hdKVtDQEBIXShbQ0BIXShPNClbQ0gyXVtPSF0pT1tDQEBIXTVbQ0BIXShbT0hdKVtDQEBIXShbT0hdKVtDQEBIXShbQ0BIXShPNSlbQ0gyXVtPSF0pT1tDQEBIXTZbQ0BIXShbT0hdKVtDQEBIXShbT0hdKVtDQEBIXShbQ0BIXShPNilbQ0gyXVtPSF0pT1tDQEBIXTdbQ0BIXShbT0hdKVtDQEBIXShbT0hdKVtDQEBIXShbQ0BIXShPNylbQ0gyXVtPSF0pT1tDQEBIXThbQ0BIXShbT0hdKVtDQEBIXShbT0hdKVtDQEhdKE8yKVtDQEhdKE84KVtDSDJdW09IXQ==

> <s_epik_cmdline>
J2VwaWtfYXBwJywgJy1pbWFlJywgJ2xpZ2FuZF9wcm8ubWFlJywgJy1vbWFlJywgJ2xpZ2FuZF9wcmVwLm1hZScsICctbXMnLCAnMScsICctcGgnLCAnNycsICctcGh0JywgJzAuNScsICctbnQn

> <r_lp_tautomer_probability>
1

> <r_epik_Ionization_Penalty>
  0.0000

> <r_epik_Ionization_Penalty_Charging>
  0.0000

> <r_epik_Ionization_Penalty_Neutral>
  0.0000

> <r_epik_State_Penalty>
 -0.0000

> <r_epik_Charging_Adjusted_Penalty>
0

> <i_epik_Tot_Q>
0

> <i_epik_Tot_abs_Q>
0

> <s_epik_Chemistry_Notes>
This compound contains an acetal/aminal-like group ( X-CH(R)-Y where X, Y are N, S, or O) that may be acid/base labile, releasing an aldehyde.

$$$$
