3ckb_ligand
                    3D
 Schrodinger Suite 2020-3.
 66 68  0  0  1  0            999 V2000
   14.0510  -20.4220   -3.0880 C   0  0  2  0  0  0
   13.6190  -20.1010   -4.5380 C   0  0  1  0  0  0
   14.9150  -19.8690   -5.3310 C   0  0  2  0  0  0
   15.6680  -18.6750   -4.7060 C   0  0  1  0  0  0
   15.9730  -19.0330   -3.2200 C   0  0  1  0  0  0
   16.6810  -17.8440   -2.5610 C   0  0  0  0  0  0
   12.9260  -20.7760   -2.2820 O   0  0  0  0  0  0
   12.9360  -21.2220   -5.1020 O   0  0  0  0  0  0
   14.5970  -19.5470   -6.6870 O   0  0  0  0  0  0
   16.9130  -18.4880   -5.4290 O   0  0  0  0  0  0
   14.7320  -19.2760   -2.5040 O   0  0  0  0  0  0
   17.0500  -18.1980   -1.2160 O   0  0  0  0  0  0
   16.9690  -17.2440   -6.1700 C   0  0  2  0  0  0
   17.7510  -17.5110   -7.4810 C   0  0  1  0  0  0
   19.1350  -18.0690   -7.0840 C   0  0  2  0  0  0
   19.8630  -17.0170   -6.2350 C   0  0  1  0  0  0
   18.9950  -16.7230   -4.9700 C   0  0  1  0  0  0
   19.6790  -15.6560   -4.0910 C   0  0  0  0  0  0
   17.0610  -18.4950   -8.2700 O   0  0  0  0  0  0
   19.9070  -18.3440   -8.2580 O   0  0  0  0  0  0
   21.1450  -17.5440   -5.8400 O   0  0  0  0  0  0
   17.6730  -16.2360   -5.3680 O   0  0  0  0  0  0
   19.7890  -14.4200   -4.7950 O   0  0  0  0  0  0
   22.2240  -16.6980   -6.3050 C   0  0  2  0  0  0
   23.3050  -17.5570   -7.0240 C   0  0  1  0  0  0
   23.8170  -18.6120   -6.0190 C   0  0  2  0  0  0
   24.4200  -17.8730   -4.8080 C   0  0  1  0  0  0
   23.3150  -16.9950   -4.1710 C   0  0  1  0  0  0
   23.9150  -16.2290   -2.9920 C   0  0  0  0  0  0
   22.7310  -18.2150   -8.1600 O   0  0  0  0  0  0
   24.8210  -19.4290   -6.6340 O   0  0  0  0  0  0
   24.8990  -18.8370   -3.8500 O   0  0  0  0  0  0
   22.8190  -16.0250   -5.1520 O   0  0  0  0  0  0
   22.8760  -15.9080   -2.0650 O   0  0  0  0  0  0
   14.7307  -21.2856   -3.0414 H   0  0  0  0  0  0
   12.9012  -19.2699   -4.6019 H   0  0  0  0  0  0
   15.5271  -20.7819   -5.3751 H   0  0  0  0  0  0
   15.1155  -17.7287   -4.8017 H   0  0  0  0  0  0
   16.5662  -19.9560   -3.1414 H   0  0  0  0  0  0
   17.5835  -17.5899   -3.1363 H   0  0  0  0  0  0
   16.0028  -16.9782   -2.5416 H   0  0  0  0  0  0
   12.2881  -21.6245   -2.5703 H   0  0  0  0  0  0
   11.9785  -21.5546   -4.6747 H   0  0  0  0  0  0
   14.0557  -20.2724   -7.3121 H   0  0  0  0  0  0
   17.5719  -17.4688   -0.5788 H   0  0  0  0  0  0
   15.9433  -16.8832   -6.3364 H   0  0  0  0  0  0
   17.8125  -16.6200   -8.1232 H   0  0  0  0  0  0
   19.0512  -19.0337   -6.5622 H   0  0  0  0  0  0
   20.0856  -16.1060   -6.8099 H   0  0  0  0  0  0
   18.8265  -17.6459   -4.3957 H   0  0  0  0  0  0
   19.0840  -15.4952   -3.1799 H   0  0  0  0  0  0
   20.6869  -15.9995   -3.8149 H   0  0  0  0  0  0
   16.0511  -18.2843   -8.6517 H   0  0  0  0  0  0
   19.5460  -19.0771   -8.9944 H   0  0  0  0  0  0
   20.2552  -13.5500   -4.3094 H   0  0  0  0  0  0
   21.7842  -15.9378   -6.9673 H   0  0  0  0  0  0
   24.1197  -16.9483   -7.4431 H   0  0  0  0  0  0
   23.0263  -19.3174   -5.7237 H   0  0  0  0  0  0
   25.3040  -17.2796   -5.0842 H   0  0  0  0  0  0
   22.4549  -17.6054   -3.8587 H   0  0  0  0  0  0
   24.6728  -16.8536   -2.4965 H   0  0  0  0  0  0
   24.3842  -15.3034   -3.3567 H   0  0  0  0  0  0
   22.3112  -17.6214   -8.9854 H   0  0  0  0  0  0
   24.5722  -20.0335   -7.5187 H   0  0  0  0  0  0
   25.6899  -19.5473   -4.1329 H   0  0  0  0  0  0
   23.1119  -15.3534   -1.1448 H   0  0  0  0  0  0
  1  2  1  0  0  0
  1  7  1  0  0  0
  1 11  1  0  0  0
  1 35  1  0  0  0
  2  3  1  0  0  0
  2  8  1  0  0  0
  2 36  1  0  0  0
  3  4  1  0  0  0
  3  9  1  0  0  0
  3 37  1  0  0  0
  4  5  1  0  0  0
  4 10  1  0  0  0
  4 38  1  0  0  0
  5  6  1  0  0  0
  5 11  1  0  0  0
  5 39  1  0  0  0
  6 12  1  0  0  0
  6 40  1  0  0  0
  6 41  1  0  0  0
  7 42  1  0  0  0
  8 43  1  0  0  0
  9 44  1  0  0  0
 10 13  1  0  0  0
 12 45  1  0  0  0
 13 14  1  0  0  0
 13 22  1  0  0  0
 13 46  1  0  0  0
 14 15  1  0  0  0
 14 19  1  0  0  0
 14 47  1  0  0  0
 15 16  1  0  0  0
 15 20  1  0  0  0
 15 48  1  0  0  0
 16 17  1  0  0  0
 16 21  1  0  0  0
 16 49  1  0  0  0
 17 18  1  0  0  0
 17 22  1  0  0  0
 17 50  1  0  0  0
 18 23  1  0  0  0
 18 51  1  0  0  0
 18 52  1  0  0  0
 19 53  1  0  0  0
 20 54  1  0  0  0
 21 24  1  0  0  0
 23 55  1  0  0  0
 24 25  1  0  0  0
 24 33  1  0  0  0
 24 56  1  0  0  0
 25 26  1  0  0  0
 25 30  1  0  0  0
 25 57  1  0  0  0
 26 27  1  0  0  0
 26 31  1  0  0  0
 26 58  1  0  0  0
 27 28  1  0  0  0
 27 32  1  0  0  0
 27 59  1  0  0  0
 28 29  1  0  0  0
 28 33  1  0  0  0
 28 60  1  0  0  0
 29 34  1  0  0  0
 29 61  1  0  0  0
 29 62  1  0  0  0
 30 63  1  0  0  0
 31 64  1  0  0  0
 32 65  1  0  0  0
 34 66  1  0  0  0
M  END
> <s_m_source_file>
../3ckb_ligand.sdf

> <i_m_source_file_index>
1

> <s_epik_input>
W09IXVtDQEhdMVtDQEhdKFtPSF0pW0NAQEhdKFtPSF0pW0NAQEhdKFtDQEhdKE8xKVtDSDJdW09IXSlPW0NAQEhdMltDQEhdKFtPSF0pW0NAQEhdKFtPSF0pW0NAQEhdKFtDQEhdKE8yKVtDSDJdW09IXSlPW0NAQEhdM1tDQEhdKFtPSF0pW0NAQEhdKFtPSF0pW0NASF0oW09IXSlbQ0BIXShPMylbQ0gyXVtPSF0=

> <s_epik_cmdline>
J2VwaWtfYXBwJywgJy1pbWFlJywgJ2xpZ2FuZF9wcm8ubWFlJywgJy1vbWFlJywgJ2xpZ2FuZF9wcmVwLm1hZScsICctbXMnLCAnMScsICctcGgnLCAnNycsICctcGh0JywgJzAuNScsICctbnQn

> <r_lp_tautomer_probability>
1

> <r_epik_Ionization_Penalty>
  0.0000

> <r_epik_Ionization_Penalty_Charging>
  0.0000

> <r_epik_Ionization_Penalty_Neutral>
  0.0000

> <r_epik_State_Penalty>
 -0.0000

> <r_epik_Charging_Adjusted_Penalty>
0

> <i_epik_Tot_Q>
0

> <i_epik_Tot_abs_Q>
0

> <s_epik_Chemistry_Notes>
This compound contains an acetal/aminal-like group ( X-CH(R)-Y where X, Y are N, S, or O) that may be acid/base labile, releasing an aldehyde.

$$$$
