3cke_ligand
                    3D
 Schrodinger Suite 2020-3.
 49 48  0  0  1  0            999 V2000
   -1.8450  -38.6980   19.9160 P   0  0  1  0  0  0
   -1.7600  -39.1070   17.3410 P   0  0  0  0  0  0
   -0.8800  -36.5200   20.3340 C   0  0  0  0  0  0
   -2.1150  -37.2250   19.9340 O   0  0  0  0  0  0
   -0.3250  -39.0740   20.0560 O   0  0  0  0  0  0
   -0.5590  -38.2050   17.6650 O   0  0  0  0  0  0
   -0.9170  -35.0090   20.3380 C   0  0  0  0  0  0
   -2.5810  -39.2570   21.2430 O   0  5  0  0  0  0
   -1.1350  -40.4150   16.6050 O   0  5  0  0  0  0
    0.0050  -34.2810   21.0290 C   0  0  0  0  0  0
   -2.6200  -39.4390   18.7380 O   0  0  0  0  0  0
   -2.8410  -38.4160   16.3010 O   0  5  0  0  0  0
    1.1040  -34.9450   21.8810 C   0  0  0  0  0  0
   -0.0210  -32.7670   20.9620 C   0  0  0  0  0  0
    1.2910  -32.3010   20.2700 C   0  0  0  0  0  0
    0.9570  -31.8030   18.8800 C   0  0  0  0  0  0
    1.5880  -32.2080   17.7840 C   0  0  0  0  0  0
    1.1520  -31.6310   16.4800 C   0  0  0  0  0  0
    2.7420  -33.2390   17.8070 C   0  0  0  0  0  0
    0.6100  -32.7710   15.6230 C   0  0  0  0  0  0
   -0.8750  -32.5820   15.3880 C   0  0  0  0  0  0
   -1.8010  -33.5450   15.7130 C   0  0  0  0  0  0
   -3.1330  -33.2950   15.4280 C   0  0  0  0  0  0
   -1.3930  -34.7890   16.2880 C   0  0  0  0  0  0
   -1.7940  -35.2550   17.4810 F   0  0  0  0  0  0
   -3.8060  -34.2650   14.9030 F   0  0  0  0  0  0
   -0.6084  -36.8096   21.3598 H   0  0  0  0  0  0
   -0.0641  -36.7917   19.6481 H   0  0  0  0  0  0
   -1.7074  -34.4976   19.7690 H   0  0  0  0  0  0
    0.9949  -36.0385   21.8327 H   0  0  0  0  0  0
    1.0091  -34.6128   22.9254 H   0  0  0  0  0  0
    2.0924  -34.6576   21.4931 H   0  0  0  0  0  0
   -0.8963  -32.4407   20.3811 H   0  0  0  0  0  0
   -0.0828  -32.3559   21.9804 H   0  0  0  0  0  0
    1.7474  -31.4906   20.8573 H   0  0  0  0  0  0
    1.9917  -33.1465   20.2053 H   0  0  0  0  0  0
    0.1433  -31.0666   18.8058 H   0  0  0  0  0  0
    0.3681  -30.8795   16.6554 H   0  0  0  0  0  0
    2.0110  -31.1558   15.9838 H   0  0  0  0  0  0
    2.9297  -33.5562   18.8434 H   0  0  0  0  0  0
    3.6521  -32.7799   17.3935 H   0  0  0  0  0  0
    2.4644  -34.1137   17.2004 H   0  0  0  0  0  0
    1.1312  -32.7813   14.6544 H   0  0  0  0  0  0
    0.7758  -33.7283   16.1388 H   0  0  0  0  0  0
   -1.2031  -31.6324   14.9400 H   0  0  0  0  0  0
   -3.6630  -33.0312   16.3551 H   0  0  0  0  0  0
   -3.2050  -32.4610   14.7144 H   0  0  0  0  0  0
   -1.6906  -35.6146   15.6248 H   0  0  0  0  0  0
   -0.3001  -34.7945   16.4125 H   0  0  0  0  0  0
  1  4  1  0  0  0
  1  5  2  0  0  0
  1  8  1  0  0  0
  1 11  1  0  0  0
  2  6  2  0  0  0
  2  9  1  0  0  0
  2 11  1  0  0  0
  2 12  1  0  0  0
  3  4  1  0  0  0
  3  7  1  0  0  0
  3 27  1  0  0  0
  3 28  1  0  0  0
  7 10  2  0  0  0
  7 29  1  0  0  0
 10 13  1  0  0  0
 10 14  1  0  0  0
 13 30  1  0  0  0
 13 31  1  0  0  0
 13 32  1  0  0  0
 14 15  1  0  0  0
 14 33  1  0  0  0
 14 34  1  0  0  0
 15 16  1  0  0  0
 15 35  1  0  0  0
 15 36  1  0  0  0
 16 17  2  0  0  0
 16 37  1  0  0  0
 17 18  1  0  0  0
 17 19  1  0  0  0
 18 20  1  0  0  0
 18 38  1  0  0  0
 18 39  1  0  0  0
 19 40  1  0  0  0
 19 41  1  0  0  0
 19 42  1  0  0  0
 20 21  1  0  0  0
 20 43  1  0  0  0
 20 44  1  0  0  0
 21 22  2  0  0  0
 21 45  1  0  0  0
 22 23  1  0  0  0
 22 24  1  0  0  0
 23 26  1  0  0  0
 23 46  1  0  0  0
 23 47  1  0  0  0
 24 25  1  0  0  0
 24 48  1  0  0  0
 24 49  1  0  0  0
M  CHG  3   8  -1   9  -1  12  -1
M  END
> <s_m_source_file>
../3cke_ligand.sdf

> <i_m_source_file_index>
1

> <s_epik_input>
Tz1QKFtPSF0pKFtPSF0pT1tQQF0oPU8pKFtPSF0pT1tDSDJdL1tDSF09QyhcW0NIM10pW0NIMl1bQ0gyXS9bQ0hdPUMoW0NIM10pL1tDSDJdW0NIMl1bQ0hdPUMoW0NIMl1GKVtDSDJdRg==

> <s_epik_cmdline>
J2VwaWtfYXBwJywgJy1pbWFlJywgJ2xpZ2FuZF9wcm8ubWFlJywgJy1vbWFlJywgJ2xpZ2FuZF9wcmVwLm1hZScsICctbXMnLCAnMScsICctcGgnLCAnNycsICctcGh0JywgJzAuNScsICctbnQn

> <r_epik_Ionization_Penalty>
  0.0891

> <r_epik_Ionization_Penalty_Charging>
  0.0891

> <r_epik_Ionization_Penalty_Neutral>
  0.0000

> <r_epik_State_Penalty>
  0.0782

> <r_epik_Charging_Adjusted_Penalty>
0.167378343084534

> <i_epik_Tot_Q>
-3

> <i_epik_Tot_abs_Q>
3

$$$$
