3ckr_ligand
                    3D
 Schrodinger Suite 2020-3.
 89 93  0  0  1  0            999 V2000
   30.0750    7.2670   10.4160 C   0  0  0  0  0  0
   31.2130    7.7240   10.2530 O   0  0  0  0  0  0
   29.7550    5.9380   10.2410 N   0  0  0  0  0  0
   30.7420    4.8820    9.8460 C   0  0  1  0  0  0
   30.7450    3.8170   10.9810 C   0  0  0  0  0  0
   31.1010    4.4780   12.2840 C   0  0  0  0  0  0
   30.2390    4.3980   13.3920 C   0  0  0  0  0  0
   32.3120    5.2140   12.4050 C   0  0  0  0  0  0
   30.5720    5.0370   14.5990 C   0  0  0  0  0  0
   32.6460    5.8570   13.6140 C   0  0  0  0  0  0
   31.7690    5.7660   14.7150 C   0  0  0  0  0  0
   30.3740    4.2860    8.4780 C   0  0  2  0  0  0
   31.3370    3.2860    8.1800 O   0  0  0  0  0  0
   30.4340    5.3440    7.3850 C   0  0  0  0  0  0
   30.7250    4.7130    6.0840 N   0  3  0  0  0  0
   30.8860    5.6510    4.9620 C   0  0  0  0  0  0
   32.3180    6.1020    4.9600 C   0  0  0  0  0  0
   32.6610    7.4690    5.0770 C   0  0  0  0  0  0
   34.0240    7.8610    5.0930 C   0  0  0  0  0  0
   35.0530    6.8790    4.9940 C   0  0  0  0  0  0
   34.7220    5.4910    4.8770 C   0  0  0  0  0  0
   33.3500    5.1250    4.8620 C   0  0  0  0  0  0
   35.7150    4.5180    4.7820 N   0  0  0  0  0  0
   36.5760    4.2390    5.9260 C   0  0  0  0  0  0
   35.9040    3.7610    3.5430 C   0  0  0  0  0  0
   28.8570    8.1750   10.8900 C   0  0  1  0  0  0
   27.6470    7.7960   10.1460 N   0  0  0  0  0  0
   26.6030    7.8620   11.0010 C   0  0  0  0  0  0
   25.4340    7.6190   10.7000 O   0  0  0  0  0  0
   26.9820    8.2750   12.3200 N   0  0  0  0  0  0
   28.4130    7.9020   12.3390 C   0  0  0  0  0  0
   26.0920    7.8200   13.4500 C   0  0  0  0  0  0
   26.4380    6.5430   14.1810 C   0  0  0  0  0  0
   26.1090    5.2790   13.6300 C   0  0  0  0  0  0
   27.1020    6.5990   15.4380 C   0  0  0  0  0  0
   27.4350    5.4120   16.1280 C   0  0  0  0  0  0
   26.4390    4.0930   14.3140 C   0  0  0  0  0  0
   27.1070    4.1590   15.5660 C   0  0  0  0  0  0
   29.2240    9.7020   10.6070 C   0  0  0  0  0  0
   27.6330   12.3850   12.9470 C   0  0  0  0  0  0
   26.5010   12.7820   12.1860 C   0  0  0  0  0  0
   26.2580   12.1950   10.9180 C   0  0  0  0  0  0
   27.1350   11.2050   10.3980 C   0  0  0  0  0  0
   28.2750   10.7870   11.1460 C   0  0  0  0  0  0
   28.5140   11.3950   12.4310 C   0  0  0  0  0  0
   28.7014    5.6706   10.4098 H   0  0  0  0  0  0
   31.7401    5.3286    9.7264 H   0  0  0  0  0  0
   29.7464    3.3626   11.0600 H   0  0  0  0  0  0
   31.4855    3.0370   10.7500 H   0  0  0  0  0  0
   29.3074    3.8374   13.3146 H   0  0  0  0  0  0
   32.9892    5.2815   11.5535 H   0  0  0  0  0  0
   29.8970    4.9669   15.4519 H   0  0  0  0  0  0
   33.5753    6.4205   13.6975 H   0  0  0  0  0  0
   32.0186    6.2599   15.6541 H   0  0  0  0  0  0
   29.3786    3.8180    8.4945 H   0  0  0  0  0  0
   31.4583    2.4222    8.8501 H   0  0  0  0  0  0
   29.4669    5.8647    7.3253 H   0  0  0  0  0  0
   31.2270    6.0692    7.6198 H   0  0  0  0  0  0
   31.6624    4.1419    6.1550 H   0  0  0  0  0  0
   29.9022    4.0350    5.8131 H   0  0  0  0  0  0
   30.6405    5.1404    4.0191 H   0  0  0  0  0  0
   30.2111    6.5084    5.1011 H   0  0  0  0  0  0
   31.8770    8.2222    5.1550 H   0  0  0  0  0  0
   34.2855    8.9155    5.1812 H   0  0  0  0  0  0
   36.0985    7.1870    5.0075 H   0  0  0  0  0  0
   33.0804    4.0726    4.7735 H   0  0  0  0  0  0
   36.2962    4.8945    6.7639 H   0  0  0  0  0  0
   37.6245    4.4244    5.6496 H   0  0  0  0  0  0
   36.4565    3.1878    6.2270 H   0  0  0  0  0  0
   35.1748    4.0990    2.7920 H   0  0  0  0  0  0
   35.7556    2.6893    3.7418 H   0  0  0  0  0  0
   36.9235    3.9260    3.1644 H   0  0  0  0  0  0
   27.7174    7.5273    9.0817 H   0  0  0  0  0  0
   28.5713    6.8398   12.5770 H   0  0  0  0  0  0
   29.0043    8.5240   13.0271 H   0  0  0  0  0  0
   26.0711    8.5916   14.2337 H   0  0  0  0  0  0
   25.0728    7.6552   13.0705 H   0  0  0  0  0  0
   25.5966    5.2246   12.6695 H   0  0  0  0  0  0
   27.3560    7.5659   15.8724 H   0  0  0  0  0  0
   27.9433    5.4634   17.0908 H   0  0  0  0  0  0
   26.1821    3.1253   13.8831 H   0  0  0  0  0  0
   27.3667    3.2411   16.0934 H   0  0  0  0  0  0
   30.2028    9.9325   11.0528 H   0  0  0  0  0  0
   29.2660    9.8739    9.5213 H   0  0  0  0  0  0
   27.8251   12.8364   13.9204 H   0  0  0  0  0  0
   25.8193   13.5376   12.5765 H   0  0  0  0  0  0
   25.3901   12.5062   10.3366 H   0  0  0  0  0  0
   26.9352   10.7627    9.4220 H   0  0  0  0  0  0
   29.3825   11.0916   13.0156 H   0  0  0  0  0  0
  1  2  2  0  0  0
  1  3  1  0  0  0
  1 26  1  0  0  0
  3  4  1  0  0  0
  3 46  1  0  0  0
  4  5  1  0  0  0
  4 12  1  0  0  0
  4 47  1  0  0  0
  5  6  1  0  0  0
  5 48  1  0  0  0
  5 49  1  0  0  0
  6  7  2  0  0  0
  6  8  1  0  0  0
  7  9  1  0  0  0
  7 50  1  0  0  0
  8 10  2  0  0  0
  8 51  1  0  0  0
  9 11  2  0  0  0
  9 52  1  0  0  0
 10 11  1  0  0  0
 10 53  1  0  0  0
 11 54  1  0  0  0
 12 13  1  0  0  0
 12 14  1  0  0  0
 12 55  1  0  0  0
 13 56  1  0  0  0
 14 15  1  0  0  0
 14 57  1  0  0  0
 14 58  1  0  0  0
 15 16  1  0  0  0
 15 59  1  0  0  0
 15 60  1  0  0  0
 16 17  1  0  0  0
 16 61  1  0  0  0
 16 62  1  0  0  0
 17 18  2  0  0  0
 17 22  1  0  0  0
 18 19  1  0  0  0
 18 63  1  0  0  0
 19 20  2  0  0  0
 19 64  1  0  0  0
 20 21  1  0  0  0
 20 65  1  0  0  0
 21 22  2  0  0  0
 21 23  1  0  0  0
 22 66  1  0  0  0
 23 24  1  0  0  0
 23 25  1  0  0  0
 24 67  1  0  0  0
 24 68  1  0  0  0
 24 69  1  0  0  0
 25 70  1  0  0  0
 25 71  1  0  0  0
 25 72  1  0  0  0
 26 27  1  0  0  0
 26 31  1  0  0  0
 26 39  1  0  0  0
 27 28  1  0  0  0
 27 73  1  0  0  0
 28 29  2  0  0  0
 28 30  1  0  0  0
 30 31  1  0  0  0
 30 32  1  0  0  0
 31 74  1  0  0  0
 31 75  1  0  0  0
 32 33  1  0  0  0
 32 76  1  0  0  0
 32 77  1  0  0  0
 33 34  2  0  0  0
 33 35  1  0  0  0
 34 37  1  0  0  0
 34 78  1  0  0  0
 35 36  2  0  0  0
 35 79  1  0  0  0
 36 38  1  0  0  0
 36 80  1  0  0  0
 37 38  2  0  0  0
 37 81  1  0  0  0
 38 82  1  0  0  0
 39 44  1  0  0  0
 39 83  1  0  0  0
 39 84  1  0  0  0
 40 41  2  0  0  0
 40 45  1  0  0  0
 40 85  1  0  0  0
 41 42  1  0  0  0
 41 86  1  0  0  0
 42 43  2  0  0  0
 42 87  1  0  0  0
 43 44  1  0  0  0
 43 88  1  0  0  0
 44 45  2  0  0  0
 45 89  1  0  0  0
M  CHG  1  15   1
M  END
> <s_m_source_file>
../3ckr_ligand.sdf

> <i_m_source_file_index>
1

> <s_epik_input>
W2NIXTFbY0hdW2NIXVtjSF1bY0hdYzFbQ0gyXU4oW0NIMl0yKUMoPU8pW05IXVtDQF0yKFtDSDJdYzNbY0hdW2NIXVtjSF1bY0hdW2NIXTMpQyg9TylbTkhdW0NAQEhdKFtDSDJdYzRbY0hdW2NIXVtjSF1bY0hdW2NIXTQpW0NASF0oW09IXSlbQ0gyXVtOSDIrXVtDSDJdYzVbY0hdW2NIXVtjSF1jKFtjSF01KU4oW0NIM10pW0NIM10=

> <s_epik_cmdline>
J2VwaWtfYXBwJywgJy1pbWFlJywgJ2xpZ2FuZF9wcm8ubWFlJywgJy1vbWFlJywgJ2xpZ2FuZF9wcmVwLm1hZScsICctbXMnLCAnMScsICctcGgnLCAnNycsICctcGh0JywgJzAuNScsICctbnQn

> <r_epik_Ionization_Penalty>
  0.0210

> <r_epik_Ionization_Penalty_Charging>
  0.0204

> <r_epik_Ionization_Penalty_Neutral>
  0.0006

> <r_epik_State_Penalty>
  0.0164

> <r_epik_Charging_Adjusted_Penalty>
0.036775298855695

> <i_epik_Tot_Q>
1

> <i_epik_Tot_abs_Q>
1

$$$$
