3ckt_ligand
                    3D
 Schrodinger Suite 2020-3.
 79 81  0  0  1  0            999 V2000
    9.7120    8.5970  -18.1680 N   0  0  0  0  0  0
    8.9070    6.7760  -16.0830 C   0  0  0  0  0  0
    9.7430    6.3410  -17.1200 C   0  0  0  0  0  0
   10.1380    7.3110  -18.2170 C   0  0  0  0  0  0
    8.4390   -1.2680  -11.1950 C   0  0  0  0  0  0
    8.5480    5.8930  -15.0690 C   0  0  0  0  0  0
    6.5330    2.1150  -15.0780 C   0  0  1  0  0  0
    9.0020    4.5720  -15.0760 C   0  0  0  0  0  0
    9.8160    4.1260  -16.1180 C   0  0  0  0  0  0
   10.1630    5.0130  -17.1540 C   0  0  0  0  0  0
    8.5100    3.5040  -13.7700 S   0  0  0  0  0  0
    9.7690    3.1490  -13.0950 O   0  0  0  0  0  0
    7.8910    2.0860  -14.5140 N   0  0  3  0  0  0
    8.7550    0.8850  -14.4840 C   0  0  0  0  0  0
    8.8590    0.3180  -13.0720 C   0  0  0  0  0  0
    8.3200   -0.8350  -12.6390 C   0  0  0  0  0  0
    7.5380   -1.7970  -13.5040 C   0  0  0  0  0  0
    6.3410    1.4800  -16.4570 C   0  0  0  0  0  0
    5.5940    0.2230  -16.3390 N   0  3  0  0  0  0
    7.4860    4.1060  -12.9360 O   0  0  0  0  0  0
   10.8730    6.8860  -19.0880 O   0  0  0  0  0  0
    0.3770   -3.0810   -9.7660 N   0  0  0  0  0  0
    2.3960   -0.9890  -10.3450 C   0  0  0  0  0  0
   -0.0470   -3.0300  -11.9750 O   0  0  0  0  0  0
    1.1860   -0.5350  -12.3880 C   0  0  0  0  0  0
    1.3830   -1.3260  -11.2620 C   0  0  0  0  0  0
    0.5100   -2.5460  -11.0080 C   0  0  0  0  0  0
    4.1990    2.1930  -12.0280 S   0  0  0  0  0  0
    3.3330    4.2670  -17.2450 C   0  0  0  0  0  0
    4.0050    6.4600  -16.1560 C   0  0  0  0  0  0
    3.4850    3.3960  -11.6360 O   0  0  0  0  0  0
    3.2720    0.0610  -10.6260 C   0  0  0  0  0  0
    2.0530    0.5330  -12.6680 C   0  0  0  0  0  0
    5.5330    1.3520  -14.1620 C   0  0  2  0  0  0
    5.0500    0.1200  -14.9660 C   0  0  0  0  0  0
    3.0780    0.8340  -11.7780 C   0  0  0  0  0  0
    4.3850    2.1570  -13.6990 N   0  0  3  0  0  0
    3.4630    2.8930  -14.5730 C   0  0  0  0  0  0
    3.7610    4.3720  -14.7770 C   0  0  0  0  0  0
    3.7100    4.9930  -15.9710 C   0  0  0  0  0  0
    5.4360    1.7980  -11.3760 O   0  0  0  0  0  0
    9.0471    8.9256  -17.3556 H   0  0  0  0  0  0
   10.0312    9.3119  -18.9406 H   0  0  0  0  0  0
    8.5393    7.8020  -16.0706 H   0  0  0  0  0  0
    9.0185   -0.5197  -10.6344 H   0  0  0  0  0  0
    8.9504   -2.2406  -11.1448 H   0  0  0  0  0  0
    7.4347   -1.3586  -10.7555 H   0  0  0  0  0  0
    7.9044    6.2366  -14.2591 H   0  0  0  0  0  0
    6.4062    3.2049  -15.1551 H   0  0  0  0  0  0
   10.1802    3.0987  -16.1294 H   0  0  0  0  0  0
   10.7655    4.6580  -17.9901 H   0  0  0  0  0  0
    8.3319    0.1124  -15.1429 H   0  0  0  0  0  0
    9.7643    1.1506  -14.8315 H   0  0  0  0  0  0
    9.4388    0.9477  -12.3811 H   0  0  0  0  0  0
    7.2139   -2.6553  -12.8972 H   0  0  0  0  0  0
    8.1753   -2.1503  -14.3280 H   0  0  0  0  0  0
    6.6558   -1.2853  -13.9162 H   0  0  0  0  0  0
    5.7810    2.1711  -17.1041 H   0  0  0  0  0  0
    7.3239    1.2729  -16.9054 H   0  0  0  0  0  0
    4.7705    0.2160  -17.0682 H   0  0  0  0  0  0
    6.2673   -0.6238  -16.5382 H   0  0  0  0  0  0
   -0.2613   -3.9636   -9.6128 H   0  0  0  0  0  0
    0.9077   -2.6315   -8.9138 H   0  0  0  0  0  0
    2.4967   -1.5482   -9.4148 H   0  0  0  0  0  0
    0.3525   -0.7455  -13.0582 H   0  0  0  0  0  0
    3.3585    4.9713  -18.0896 H   0  0  0  0  0  0
    2.3193    3.8519  -17.1442 H   0  0  0  0  0  0
    4.0473    3.4504  -17.4268 H   0  0  0  0  0  0
    3.8961    6.7248  -17.2181 H   0  0  0  0  0  0
    5.0339    6.6712  -15.8291 H   0  0  0  0  0  0
    3.3003    7.0542  -15.5558 H   0  0  0  0  0  0
    4.1017    0.2780   -9.9532 H   0  0  0  0  0  0
    1.9237    1.1218  -13.5761 H   0  0  0  0  0  0
    6.0130    1.0964  -13.2058 H   0  0  0  0  0  0
    3.9509    0.1023  -15.0075 H   0  0  0  0  0  0
    5.4142   -0.8053  -14.4958 H   0  0  0  0  0  0
    3.4705    2.4423  -15.5764 H   0  0  0  0  0  0
    2.4459    2.8445  -14.1569 H   0  0  0  0  0  0
    4.0311    4.9384  -13.8736 H   0  0  0  0  0  0
  1  4  1  0  0  0
  1 42  1  0  0  0
  1 43  1  0  0  0
  2  3  2  0  0  0
  2  6  1  0  0  0
  2 44  1  0  0  0
  3  4  1  0  0  0
  3 10  1  0  0  0
  4 21  2  0  0  0
  5 16  1  0  0  0
  5 45  1  0  0  0
  5 46  1  0  0  0
  5 47  1  0  0  0
  6  8  2  0  0  0
  6 48  1  0  0  0
  7 13  1  0  0  0
  7 18  1  0  0  0
  7 34  1  0  0  0
  7 49  1  0  0  0
  8  9  1  0  0  0
  8 11  1  0  0  0
  9 10  2  0  0  0
  9 50  1  0  0  0
 10 51  1  0  0  0
 11 12  2  0  0  0
 11 13  1  0  0  0
 11 20  2  0  0  0
 13 14  1  0  0  0
 14 15  1  0  0  0
 14 52  1  0  0  0
 14 53  1  0  0  0
 15 16  2  0  0  0
 15 54  1  0  0  0
 16 17  1  0  0  0
 17 55  1  0  0  0
 17 56  1  0  0  0
 17 57  1  0  0  0
 18 19  1  0  0  0
 18 58  1  0  0  0
 18 59  1  0  0  0
 19 35  1  0  0  0
 19 60  1  0  0  0
 19 61  1  0  0  0
 22 27  1  0  0  0
 22 62  1  0  0  0
 22 63  1  0  0  0
 23 26  2  0  0  0
 23 32  1  0  0  0
 23 64  1  0  0  0
 24 27  2  0  0  0
 25 26  1  0  0  0
 25 33  2  0  0  0
 25 65  1  0  0  0
 26 27  1  0  0  0
 28 31  2  0  0  0
 28 36  1  0  0  0
 28 37  1  0  0  0
 28 41  2  0  0  0
 29 40  1  0  0  0
 29 66  1  0  0  0
 29 67  1  0  0  0
 29 68  1  0  0  0
 30 40  1  0  0  0
 30 69  1  0  0  0
 30 70  1  0  0  0
 30 71  1  0  0  0
 32 36  2  0  0  0
 32 72  1  0  0  0
 33 36  1  0  0  0
 33 73  1  0  0  0
 34 35  1  0  0  0
 34 37  1  0  0  0
 34 74  1  0  0  0
 35 75  1  0  0  0
 35 76  1  0  0  0
 37 38  1  0  0  0
 38 39  1  0  0  0
 38 77  1  0  0  0
 38 78  1  0  0  0
 39 40  2  0  0  0
 39 79  1  0  0  0
M  CHG  1  19   1
M  END
> <s_m_source_file>
../3ckt_ligand.sdf

> <i_m_source_file_index>
1

> <s_epik_input>
W05IMl1DKD1PKWMxW2NIXVtjSF1jKFtjSF1bY0hdMSlTKD1PKSg9TylOKFtDSDJdW0NIXT1DKFtDSDNdKVtDSDNdKVtDQEhdMltDSDJdW05IMitdW0NIMl1bQ0BASF0yTihbQ0gyXVtDSF09QyhbQ0gzXSlbQ0gzXSlTKD1PKSg9TyljKFtjSF1bY0hdMylbY0hdW2NIXWMzQyg9TylbTkgyXQ==

> <s_epik_cmdline>
J2VwaWtfYXBwJywgJy1pbWFlJywgJ2xpZ2FuZF9wcm8ubWFlJywgJy1vbWFlJywgJ2xpZ2FuZF9wcmVwLm1hZScsICctbXMnLCAnMScsICctcGgnLCAnNycsICctcGh0JywgJzAuNScsICctbnQn

> <r_lp_tautomer_probability>
1

> <r_epik_Ionization_Penalty>
  0.0060

> <r_epik_Ionization_Penalty_Charging>
  0.0060

> <r_epik_Ionization_Penalty_Neutral>
  0.0000

> <r_epik_State_Penalty>
 -0.0000

> <r_epik_Charging_Adjusted_Penalty>
0.00603765406608193

> <i_epik_Tot_Q>
1

> <i_epik_Tot_abs_Q>
1

$$$$
