3ckz_ligand
                    3D
 Schrodinger Suite 2020-3.
 43 43  0  0  1  0            999 V2000
  -30.2410  -53.1300    6.6480 C   0  0  0  0  0  0
  -31.3330  -52.5290    6.4940 O   0  5  0  0  0  0
  -29.1810  -52.6830    6.1790 O   0  0  0  0  0  0
  -30.2510  -54.3840    7.4020 C   0  0  0  0  0  0
  -29.1290  -55.0600    7.7510 C   0  0  0  0  0  0
  -29.1700  -56.1270    8.8400 C   0  0  1  0  0  0
  -30.5260  -56.8340    8.7520 C   0  0  1  0  0  0
  -30.6670  -57.8540    9.7820 N   0  0  0  0  0  0
  -30.6130  -59.1750    9.5620 C   0  0  0  0  0  0
  -30.5210  -59.6830    8.4570 O   0  0  0  0  0  0
  -30.6470  -60.0450   10.7880 C   0  0  0  0  0  0
  -31.6650  -55.8090    8.8240 C   0  0  1  0  0  0
  -31.5720  -54.8710    7.7500 O   0  0  0  0  0  0
  -33.0480  -56.4220    8.6780 C   0  0  2  0  0  0
  -33.1590  -56.9510    7.3560 O   0  0  0  0  0  0
  -34.1360  -55.3580    8.8770 C   0  0  2  0  0  0
  -33.9750  -54.7610   10.1730 O   0  0  0  0  0  0
  -35.5350  -55.9600    8.7550 C   0  0  0  0  0  0
  -35.8070  -56.7910    9.8930 O   0  0  0  0  0  0
  -28.1980  -57.1930    8.6160 N   0  0  0  0  0  0
  -27.5560  -57.8760    9.4720 C   0  0  0  0  0  0
  -27.6800  -57.6790   10.7820 N   0  3  0  0  0  0
  -26.7290  -58.8360    9.0330 N   0  0  0  0  0  0
  -28.1760  -54.8412    7.2472 H   0  0  0  0  0  0
  -28.9351  -55.6434    9.7997 H   0  0  0  0  0  0
  -30.5862  -57.3979    7.8095 H   0  0  0  0  0  0
  -30.8310  -57.5594   10.8290 H   0  0  0  0  0  0
  -30.7321  -59.4127   11.6841 H   0  0  0  0  0  0
  -29.7214  -60.6368   10.8434 H   0  0  0  0  0  0
  -31.5124  -60.7219   10.7334 H   0  0  0  0  0  0
  -31.5526  -55.2877    9.7861 H   0  0  0  0  0  0
  -33.1813  -57.2535    9.3857 H   0  0  0  0  0  0
  -32.4633  -57.7323    7.0160 H   0  0  0  0  0  0
  -34.0226  -54.5496    8.1397 H   0  0  0  0  0  0
  -33.0248  -54.2759   10.4409 H   0  0  0  0  0  0
  -36.2793  -55.1514    8.7086 H   0  0  0  0  0  0
  -35.5947  -56.5663    7.8391 H   0  0  0  0  0  0
  -36.7733  -57.3100    9.9767 H   0  0  0  0  0  0
  -27.9404  -57.4958    7.5904 H   0  0  0  0  0  0
  -28.3540  -56.8957   11.1590 H   0  0  0  0  0  0
  -26.6148  -59.0121    7.9532 H   0  0  0  0  0  0
  -26.1649  -59.4474    9.7527 H   0  0  0  0  0  0
  -27.1085  -58.2994   11.4880 H   0  0  0  0  0  0
  1  2  1  0  0  0
  1  3  2  0  0  0
  1  4  1  0  0  0
  4  5  2  0  0  0
  4 13  1  0  0  0
  5  6  1  0  0  0
  5 24  1  0  0  0
  6  7  1  0  0  0
  6 20  1  0  0  0
  6 25  1  0  0  0
  7  8  1  0  0  0
  7 12  1  0  0  0
  7 26  1  0  0  0
  8  9  1  0  0  0
  8 27  1  0  0  0
  9 10  2  0  0  0
  9 11  1  0  0  0
 11 28  1  0  0  0
 11 29  1  0  0  0
 11 30  1  0  0  0
 12 13  1  0  0  0
 12 14  1  0  0  0
 12 31  1  0  0  0
 14 15  1  0  0  0
 14 16  1  0  0  0
 14 32  1  0  0  0
 15 33  1  0  0  0
 16 17  1  0  0  0
 16 18  1  0  0  0
 16 34  1  0  0  0
 17 35  1  0  0  0
 18 19  1  0  0  0
 18 36  1  0  0  0
 18 37  1  0  0  0
 19 38  1  0  0  0
 20 21  1  0  0  0
 20 39  1  0  0  0
 21 22  2  0  0  0
 21 23  1  0  0  0
 22 40  1  0  0  0
 22 43  1  0  0  0
 23 41  1  0  0  0
 23 42  1  0  0  0
M  CHG  2   2  -1  22   1
M  END
> <s_m_source_file>
../3ckz_ligand.sdf

> <i_m_source_file_index>
1

> <s_epik_input>
W09IXUMoPU8pQzE9W0NIXVtDQEhdKFtOSF0vQyg9TlxbSF0pW05IMl0pW0NAQEhdKFtOSF1DKD1PKVtDSDNdKVtDQEBIXShPMSlbQ0BIXShbT0hdKVtDQEhdKFtPSF0pW0NIMl1bT0hd

> <s_epik_cmdline>
J2VwaWtfYXBwJywgJy1pbWFlJywgJ2xpZ2FuZF9wcm8ubWFlJywgJy1vbWFlJywgJ2xpZ2FuZF9wcmVwLm1hZScsICctbXMnLCAnMScsICctcGgnLCAnNycsICctcGh0JywgJzAuNScsICctbnQn

> <r_lp_tautomer_probability>
1

> <r_epik_Ionization_Penalty>
  0.0006

> <r_epik_Ionization_Penalty_Charging>
  0.0006

> <r_epik_Ionization_Penalty_Neutral>
  0.0000

> <r_epik_State_Penalty>
 -0.0000

> <r_epik_Charging_Adjusted_Penalty>
0.000578302121615858

> <i_epik_Tot_Q>
0

> <i_epik_Tot_abs_Q>
2

> <s_epik_Chemistry_Notes>
This compound has an imine and may undergo hydrolysis.

$$$$
