3cl0_ligand
                    3D
 Schrodinger Suite 2020-3.
 44 44  0  0  1  0            999 V2000
  -30.3740  -53.1430    6.1220 C   0  0  0  0  0  0
  -31.4390  -52.5330    5.8500 O   0  5  0  0  0  0
  -29.2570  -52.6250    5.8790 O   0  0  0  0  0  0
  -30.4370  -54.4860    6.7250 C   0  0  0  0  0  0
  -29.1590  -55.1880    7.1320 C   0  0  0  0  0  0
  -29.3800  -56.1620    8.2940 C   0  0  1  0  0  0
  -30.6270  -57.0330    8.0970 C   0  0  1  0  0  0
  -30.8030  -57.9550    9.2060 N   0  0  0  0  0  0
  -30.6830  -59.2830    9.0870 C   0  0  0  0  0  0
  -30.6290  -59.8630    8.0100 O   0  0  0  0  0  0
  -30.6110  -60.0400   10.3800 C   0  0  0  0  0  0
  -31.8830  -56.1780    7.9370 C   0  0  1  0  0  0
  -31.6320  -55.0930    6.9010 C   0  0  0  0  0  0
  -33.0070  -56.9890    7.5310 O   0  0  0  0  0  0
  -34.1580  -56.9050    8.3980 C   0  0  0  0  0  0
  -34.8790  -55.5530    8.2830 C   0  0  0  0  0  0
  -35.1530  -58.0200    8.0790 C   0  0  0  0  0  0
  -34.6540  -59.3950    8.4670 C   0  0  0  0  0  0
  -35.4250  -55.2790    6.8910 C   0  0  0  0  0  0
  -28.1950  -56.9940    8.4300 N   0  3  0  0  0  0
  -28.7659  -55.7584    6.2775 H   0  0  0  0  0  0
  -28.4153  -54.4416    7.4479 H   0  0  0  0  0  0
  -29.5021  -55.6023    9.2330 H   0  0  0  0  0  0
  -30.4829  -57.6593    7.2043 H   0  0  0  0  0  0
  -31.0481  -57.5707   10.2071 H   0  0  0  0  0  0
  -30.6769  -59.3350   11.2218 H   0  0  0  0  0  0
  -29.6575  -60.5859   10.4327 H   0  0  0  0  0  0
  -31.4458  -60.7542   10.4337 H   0  0  0  0  0  0
  -32.1718  -55.7399    8.9038 H   0  0  0  0  0  0
  -32.4909  -54.8084    6.2754 H   0  0  0  0  0  0
  -33.7224  -57.0230    9.4011 H   0  0  0  0  0  0
  -35.7278  -55.5295    8.9822 H   0  0  0  0  0  0
  -34.1783  -54.7416    8.5295 H   0  0  0  0  0  0
  -36.0912  -57.8414    8.6248 H   0  0  0  0  0  0
  -35.3547  -58.0332    6.9977 H   0  0  0  0  0  0
  -35.4150  -60.1469    8.2111 H   0  0  0  0  0  0
  -34.4604  -59.4228    9.5495 H   0  0  0  0  0  0
  -33.7239  -59.6146    7.9224 H   0  0  0  0  0  0
  -35.9261  -54.2998    6.8799 H   0  0  0  0  0  0
  -36.1468  -56.0634    6.6193 H   0  0  0  0  0  0
  -34.5972  -55.2755    6.1666 H   0  0  0  0  0  0
  -27.3116  -56.3537    8.5703 H   0  0  0  0  0  0
  -28.0672  -57.6013    7.5218 H   0  0  0  0  0  0
  -28.3099  -57.6562    9.3008 H   0  0  0  0  0  0
  1  2  1  0  0  0
  1  3  2  0  0  0
  1  4  1  0  0  0
  4  5  1  0  0  0
  4 13  2  0  0  0
  5  6  1  0  0  0
  5 21  1  0  0  0
  5 22  1  0  0  0
  6  7  1  0  0  0
  6 20  1  0  0  0
  6 23  1  0  0  0
  7  8  1  0  0  0
  7 12  1  0  0  0
  7 24  1  0  0  0
  8  9  1  0  0  0
  8 25  1  0  0  0
  9 10  2  0  0  0
  9 11  1  0  0  0
 11 26  1  0  0  0
 11 27  1  0  0  0
 11 28  1  0  0  0
 12 13  1  0  0  0
 12 14  1  0  0  0
 12 29  1  0  0  0
 13 30  1  0  0  0
 14 15  1  0  0  0
 15 16  1  0  0  0
 15 17  1  0  0  0
 15 31  1  0  0  0
 16 19  1  0  0  0
 16 32  1  0  0  0
 16 33  1  0  0  0
 17 18  1  0  0  0
 17 34  1  0  0  0
 17 35  1  0  0  0
 18 36  1  0  0  0
 18 37  1  0  0  0
 18 38  1  0  0  0
 19 39  1  0  0  0
 19 40  1  0  0  0
 19 41  1  0  0  0
 20 42  1  0  0  0
 20 43  1  0  0  0
 20 44  1  0  0  0
M  CHG  2   2  -1  20   1
M  END
> <s_m_source_file>
../3cl0_ligand.sdf

> <i_m_source_file_index>
1

> <s_epik_input>
W09IXUMoPU8pQzE9W0NIXVtDQEhdKFtDQEBIXShbQ0BIXShbQ0gyXTEpW05IMytdKVtOSF1DKD1PKVtDSDNdKU9bQ0hdKFtDSDJdW0NIM10pW0NIMl1bQ0gzXQ==

> <s_epik_cmdline>
J2VwaWtfYXBwJywgJy1pbWFlJywgJ2xpZ2FuZF9wcm8ubWFlJywgJy1vbWFlJywgJ2xpZ2FuZF9wcmVwLm1hZScsICctbXMnLCAnMScsICctcGgnLCAnNycsICctcGh0JywgJzAuNScsICctbnQn

> <r_lp_tautomer_probability>
1

> <r_epik_Ionization_Penalty>
  0.0028

> <r_epik_Ionization_Penalty_Charging>
  0.0028

> <r_epik_Ionization_Penalty_Neutral>
  0.0000

> <r_epik_State_Penalty>
 -0.0000

> <r_epik_Charging_Adjusted_Penalty>
0.00284468522204639

> <i_epik_Tot_Q>
0

> <i_epik_Tot_abs_Q>
2

$$$$
