3cl2_ligand
                    3D
 Schrodinger Suite 2020-3.
 44 44  0  0  1  0            999 V2000
 -127.9340  -36.5950   30.9200 C   0  0  0  0  0  0
 -128.1440  -36.3380   32.0640 O   0  0  0  0  0  0
 -128.3390  -35.8730   30.0600 O   0  5  0  0  0  0
 -126.9690  -37.7510   30.6080 C   0  0  0  0  0  0
 -126.7790  -38.2760   29.1590 C   0  0  0  0  0  0
 -125.3480  -38.7740   28.9930 C   0  0  1  0  0  0
 -125.1040  -39.8570   30.0320 C   0  0  1  0  0  0
 -123.7790  -40.4090   29.7800 N   0  0  0  0  0  0
 -123.6830  -41.8020   29.3430 C   0  0  0  0  0  0
 -124.6500  -42.4800   29.2560 O   0  0  0  0  0  0
 -122.2970  -42.4190   29.1380 C   0  0  0  0  0  0
 -125.1210  -39.2780   31.4450 C   0  0  1  0  0  0
 -126.3390  -38.3470   31.6500 C   0  0  0  0  0  0
 -125.2100  -40.3050   32.4160 O   0  0  0  0  0  0
 -124.0580  -40.5420   33.1840 C   0  0  0  0  0  0
 -123.6930  -39.3150   34.0410 C   0  0  0  0  0  0
 -124.2280  -41.8420   34.0110 C   0  0  0  0  0  0
 -124.1550  -43.0580   33.0630 C   0  0  0  0  0  0
 -124.7630  -39.1010   35.1260 C   0  0  0  0  0  0
 -125.1470  -39.3370   27.6390 N   0  3  0  0  0  0
 -127.4821  -39.1013   28.9729 H   0  0  0  0  0  0
 -126.9726  -37.4615   28.4455 H   0  0  0  0  0  0
 -124.6347  -37.9436   29.1008 H   0  0  0  0  0  0
 -125.8628  -40.6486   29.9450 H   0  0  0  0  0  0
 -122.8862  -39.7817   29.9195 H   0  0  0  0  0  0
 -121.5282  -41.6412   29.2567 H   0  0  0  0  0  0
 -122.2322  -42.8473   28.1269 H   0  0  0  0  0  0
 -122.1347  -43.2118   29.8831 H   0  0  0  0  0  0
 -124.1590  -38.7746   31.6217 H   0  0  0  0  0  0
 -126.6915  -38.1741   32.6776 H   0  0  0  0  0  0
 -123.2694  -40.6771   32.4292 H   0  0  0  0  0  0
 -122.7167  -39.4798   34.5202 H   0  0  0  0  0  0
 -123.6409  -38.4225   33.4001 H   0  0  0  0  0  0
 -123.4247  -41.9080   34.7595 H   0  0  0  0  0  0
 -125.2031  -41.8280   34.5199 H   0  0  0  0  0  0
 -124.2751  -43.9840   33.6445 H   0  0  0  0  0  0
 -123.1797  -43.0683   32.5543 H   0  0  0  0  0  0
 -124.9582  -42.9882   32.3146 H   0  0  0  0  0  0
 -124.4976  -38.2241   35.7348 H   0  0  0  0  0  0
 -124.8160  -39.9916   35.7694 H   0  0  0  0  0  0
 -125.7403  -38.9343   34.6494 H   0  0  0  0  0  0
 -125.3233  -38.5542   26.8866 H   0  0  0  0  0  0
 -125.8522  -40.1658   27.4781 H   0  0  0  0  0  0
 -124.1161  -39.7094   27.5461 H   0  0  0  0  0  0
  1  2  2  0  0  0
  1  3  1  0  0  0
  1  4  1  0  0  0
  4  5  1  0  0  0
  4 13  2  0  0  0
  5  6  1  0  0  0
  5 21  1  0  0  0
  5 22  1  0  0  0
  6  7  1  0  0  0
  6 20  1  0  0  0
  6 23  1  0  0  0
  7  8  1  0  0  0
  7 12  1  0  0  0
  7 24  1  0  0  0
  8  9  1  0  0  0
  8 25  1  0  0  0
  9 10  2  0  0  0
  9 11  1  0  0  0
 11 26  1  0  0  0
 11 27  1  0  0  0
 11 28  1  0  0  0
 12 13  1  0  0  0
 12 14  1  0  0  0
 12 29  1  0  0  0
 13 30  1  0  0  0
 14 15  1  0  0  0
 15 16  1  0  0  0
 15 17  1  0  0  0
 15 31  1  0  0  0
 16 19  1  0  0  0
 16 32  1  0  0  0
 16 33  1  0  0  0
 17 18  1  0  0  0
 17 34  1  0  0  0
 17 35  1  0  0  0
 18 36  1  0  0  0
 18 37  1  0  0  0
 18 38  1  0  0  0
 19 39  1  0  0  0
 19 40  1  0  0  0
 19 41  1  0  0  0
 20 42  1  0  0  0
 20 43  1  0  0  0
 20 44  1  0  0  0
M  CHG  2   3  -1  20   1
M  END
> <s_m_source_file>
../3cl2_ligand.sdf

> <i_m_source_file_index>
1

> <s_epik_input>
Tz1DKFtPSF0pQzE9W0NIXVtDQEhdKFtDQEBIXShbQ0BIXShbQ0gyXTEpW05IMytdKVtOSF1DKD1PKVtDSDNdKU9bQ0hdKFtDSDJdW0NIM10pW0NIMl1bQ0gzXQ==

> <s_epik_cmdline>
J2VwaWtfYXBwJywgJy1pbWFlJywgJ2xpZ2FuZF9wcm8ubWFlJywgJy1vbWFlJywgJ2xpZ2FuZF9wcmVwLm1hZScsICctbXMnLCAnMScsICctcGgnLCAnNycsICctcGh0JywgJzAuNScsICctbnQn

> <r_lp_tautomer_probability>
1

> <r_epik_Ionization_Penalty>
  0.0028

> <r_epik_Ionization_Penalty_Charging>
  0.0028

> <r_epik_Ionization_Penalty_Neutral>
  0.0000

> <r_epik_State_Penalty>
 -0.0000

> <r_epik_Charging_Adjusted_Penalty>
0.00284468522204639

> <i_epik_Tot_Q>
0

> <i_epik_Tot_abs_Q>
2

$$$$
