3clp_ligand
                    3D
 Schrodinger Suite 2020-3.
 33 36  0  0  1  0            999 V2000
   21.8830  -36.8170   12.0350 P   0  0  1  0  0  0
   22.1570  -38.2890   12.2580 O   0  5  0  0  0  0
   21.9340  -36.0340   13.3200 O   0  0  0  0  0  0
   22.9290  -36.2640   10.9480 O   0  0  0  0  0  0
   22.8460  -36.7280    9.5810 C   0  0  0  0  0  0
   21.4240  -36.4380    9.0930 C   0  0  1  0  0  0
   21.1020  -36.9430    7.7790 O   0  0  0  0  0  0
   20.4160  -37.1470    9.9820 C   0  0  1  0  0  0
   20.4610  -36.6130   11.3150 O   0  0  0  0  0  0
   19.1260  -37.0410    9.1950 C   0  0  1  0  0  0
   18.6120  -35.7080    9.2950 O   0  0  0  0  0  0
   19.6790  -37.2490    7.7600 C   0  0  2  0  0  0
   19.3840  -38.6780    7.4190 N   0  0  0  0  0  0
   19.9800  -39.7790    7.9380 C   0  0  0  0  0  0
   19.4450  -40.9200    7.4320 N   0  0  0  0  0  0
   18.4760  -40.5490    6.5700 C   0  0  0  0  0  0
   17.5090  -41.2340    5.6800 C   0  0  0  0  0  0
   17.4580  -42.5860    5.6020 N   0  0  0  0  0  0
   16.6680  -40.4660    4.9450 N   0  0  0  0  0  0
   16.6860  -39.1190    4.9880 C   0  0  0  0  0  0
   17.5250  -38.4170    5.7650 N   0  0  0  0  0  0
   18.4330  -39.0690    6.5660 C   0  0  0  0  0  0
   23.5840  -36.1917    8.9663 H   0  0  0  0  0  0
   23.0553  -37.8074    9.5468 H   0  0  0  0  0  0
   21.3569  -35.3410    9.0470 H   0  0  0  0  0  0
   20.6006  -38.1980   10.2492 H   0  0  0  0  0  0
   18.2964  -37.6771    9.5371 H   0  0  0  0  0  0
   18.1710  -35.3580   10.2400 H   0  0  0  0  0  0
   19.2713  -36.6002    6.9708 H   0  0  0  0  0  0
   20.7874  -39.7520    8.6697 H   0  0  0  0  0  0
   18.1461  -43.1980    6.2037 H   0  0  0  0  0  0
   16.7285  -43.0714    4.9370 H   0  0  0  0  0  0
   15.9832  -38.5720    4.3595 H   0  0  0  0  0  0
  1  2  1  0  0  0
  1  3  2  0  0  0
  1  4  1  0  0  0
  1  9  1  0  0  0
  4  5  1  0  0  0
  5  6  1  0  0  0
  5 23  1  0  0  0
  5 24  1  0  0  0
  6  7  1  0  0  0
  6  8  1  0  0  0
  6 25  1  0  0  0
  7 12  1  0  0  0
  8  9  1  0  0  0
  8 10  1  0  0  0
  8 26  1  0  0  0
 10 11  1  0  0  0
 10 12  1  0  0  0
 10 27  1  0  0  0
 11 28  1  0  0  0
 12 13  1  0  0  0
 12 29  1  0  0  0
 13 14  1  0  0  0
 13 22  1  0  0  0
 14 15  2  0  0  0
 14 30  1  0  0  0
 15 16  1  0  0  0
 16 17  2  0  0  0
 16 22  1  0  0  0
 17 18  1  0  0  0
 17 19  1  0  0  0
 18 31  1  0  0  0
 18 32  1  0  0  0
 19 20  2  0  0  0
 20 21  1  0  0  0
 20 33  1  0  0  0
 21 22  2  0  0  0
M  CHG  1   2  -1
M  END
> <s_m_source_file>
../3clp_ligand.sdf

> <i_m_source_file_index>
1

> <s_epik_input>
W0NIMl0xT1tQQF0oPU8pKFtPSF0pT1tDQEhdKFtDQEBIXTEyKVtDQEBIXShbT0hdKVtDQEBIXShPMiluKFtjSF1uMyljKGMzNCluW2NIXW5jNFtOSDJd

> <s_epik_cmdline>
J2VwaWtfYXBwJywgJy1pbWFlJywgJ2xpZ2FuZF9wcm8ubWFlJywgJy1vbWFlJywgJ2xpZ2FuZF9wcmVwLm1hZScsICctbXMnLCAnMScsICctcGgnLCAnNycsICctcGh0JywgJzAuNScsICctbnQn

> <r_lp_tautomer_probability>
1

> <r_epik_Ionization_Penalty>
  0.0008

> <r_epik_Ionization_Penalty_Charging>
  0.0002

> <r_epik_Ionization_Penalty_Neutral>
  0.0005

> <r_epik_State_Penalty>
 -0.0000

> <r_epik_Charging_Adjusted_Penalty>
0.000248221998699987

> <i_epik_Tot_Q>
-1

> <i_epik_Tot_abs_Q>
1

> <s_epik_Chemistry_Notes>
This compound contains an acetal/aminal-like group ( X-CH(R)-Y where X, Y are N, S, or O) that may be acid/base labile, releasing an aldehyde.

$$$$
