3cm2_ligand
                    3D
 Schrodinger Suite 2020-3.
 75 78  0  0  1  0            999 V2000
  -24.2010   14.0540   44.2410 C   0  0  0  0  0  0
  -23.7470   12.6380   44.5240 C   0  0  0  0  0  0
  -22.2810   12.5830   44.9380 C   0  0  2  0  0  0
  -21.4230   12.7670   43.7650 N   0  3  0  0  0  0
  -22.1040   11.1920   45.5070 C   0  0  0  0  0  0
  -21.7090   10.2460   44.8350 O   0  0  0  0  0  0
  -22.4190   11.0890   46.7740 N   0  0  0  0  0  0
  -22.3620    9.7860   47.4400 C   0  0  2  0  0  0
  -23.6130    9.7410   48.3260 C   0  0  0  0  0  0
  -24.2960   10.7580   48.4650 O   0  0  0  0  0  0
  -23.9990    8.6400   48.9350 N   0  0  0  0  0  0
  -21.0270    9.4040   48.1480 C   0  0  1  0  0  0
  -20.0590   10.5940   48.2300 C   0  0  0  0  0  0
  -18.9930   10.3520   49.2080 N   0  3  0  0  0  0
  -21.2620    8.7590   49.5290 C   0  0  0  0  0  0
  -21.9250    7.3590   49.4840 C   0  0  0  0  0  0
  -23.3400    7.3190   48.8650 C   0  0  1  0  0  0
  -24.2570    6.3920   49.6600 C   0  0  0  0  0  0
  -25.6100    7.1250   49.6460 C   0  0  0  0  0  0
  -25.2220    8.6050   49.7410 C   0  0  1  0  0  0
  -25.0500    8.9550   51.2260 C   0  0  0  0  0  0
  -23.9640    9.1120   51.7730 O   0  0  0  0  0  0
  -26.2410    9.0540   51.7710 N   0  0  0  0  0  0
  -26.7390    9.2580   53.1390 C   0  0  0  0  0  0
  -26.1520    8.3140   54.2670 C   0  0  0  0  0  0
  -26.6410    7.0080   54.3670 C   0  0  0  0  0  0
  -26.1670    6.1640   55.3760 C   0  0  0  0  0  0
  -25.2230    6.6400   56.2850 C   0  0  0  0  0  0
  -24.7570    7.9560   56.1930 C   0  0  0  0  0  0
  -25.2260    8.8020   55.1870 C   0  0  0  0  0  0
  -27.5140   10.5250   53.3980 C   0  0  0  0  0  0
  -27.4130   11.6040   52.5320 C   0  0  0  0  0  0
  -28.2250   12.7150   52.7400 C   0  0  0  0  0  0
  -29.1510   12.7100   53.7770 C   0  0  0  0  0  0
  -29.2810   11.6040   54.6170 C   0  0  0  0  0  0
  -28.4740   10.4950   54.4060 C   0  0  0  0  0  0
  -25.2609   14.0473   43.9468 H   0  0  0  0  0  0
  -23.5966   14.4766   43.4249 H   0  0  0  0  0  0
  -24.0754   14.6670   45.1457 H   0  0  0  0  0  0
  -24.3514   12.2154   45.3401 H   0  0  0  0  0  0
  -23.8726   12.0249   43.6194 H   0  0  0  0  0  0
  -21.9841   13.3767   45.6394 H   0  0  0  0  0  0
  -21.5632   13.7816   43.3637 H   0  0  0  0  0  0
  -21.6907   12.0281   42.9954 H   0  0  0  0  0  0
  -20.3709   12.6295   44.0551 H   0  0  0  0  0  0
  -22.7265   11.9820   47.3380 H   0  0  0  0  0  0
  -22.3853    9.0311   46.6403 H   0  0  0  0  0  0
  -20.5323    8.6422   47.5276 H   0  0  0  0  0  0
  -19.5975   10.7598   47.2453 H   0  0  0  0  0  0
  -20.6114   11.4959   48.5325 H   0  0  0  0  0  0
  -18.3206   11.2219   49.2402 H   0  0  0  0  0  0
  -18.4226    9.4583   48.9150 H   0  0  0  0  0  0
  -19.4365   10.1943   50.2022 H   0  0  0  0  0  0
  -20.2986    8.6386   50.0462 H   0  0  0  0  0  0
  -21.9214    9.4045   50.1278 H   0  0  0  0  0  0
  -21.3027    6.6777   48.8852 H   0  0  0  0  0  0
  -22.0201    6.9653   50.5067 H   0  0  0  0  0  0
  -23.2261    7.0119   47.8149 H   0  0  0  0  0  0
  -24.3071    5.4117   49.1634 H   0  0  0  0  0  0
  -23.8592    6.2674   50.6780 H   0  0  0  0  0  0
  -26.1431    6.8928   48.7123 H   0  0  0  0  0  0
  -26.2140    6.7963   50.5046 H   0  0  0  0  0  0
  -25.9151    9.3587   49.3390 H   0  0  0  0  0  0
  -26.9508    8.9478   50.9374 H   0  0  0  0  0  0
  -27.7643    8.8644   53.0762 H   0  0  0  0  0  0
  -27.3894    6.6489   53.6606 H   0  0  0  0  0  0
  -26.5333    5.1402   55.4515 H   0  0  0  0  0  0
  -24.8466    5.9844   57.0703 H   0  0  0  0  0  0
  -24.0235    8.3226   56.9111 H   0  0  0  0  0  0
  -24.8726    9.8311   55.1217 H   0  0  0  0  0  0
  -26.7081   11.5820   51.7009 H   0  0  0  0  0  0
  -28.1352   13.5866   52.0917 H   0  0  0  0  0  0
  -29.7844   13.5827   53.9359 H   0  0  0  0  0  0
  -30.0077   11.6108   55.4294 H   0  0  0  0  0  0
  -28.5909    9.6059   55.0256 H   0  0  0  0  0  0
  1  2  1  0  0  0
  1 37  1  0  0  0
  1 38  1  0  0  0
  1 39  1  0  0  0
  2  3  1  0  0  0
  2 40  1  0  0  0
  2 41  1  0  0  0
  3  4  1  0  0  0
  3  5  1  0  0  0
  3 42  1  0  0  0
  4 43  1  0  0  0
  4 44  1  0  0  0
  4 45  1  0  0  0
  5  6  2  0  0  0
  5  7  1  0  0  0
  7  8  1  0  0  0
  7 46  1  0  0  0
  8  9  1  0  0  0
  8 12  1  0  0  0
  8 47  1  0  0  0
  9 10  2  0  0  0
  9 11  1  0  0  0
 11 17  1  0  0  0
 11 20  1  0  0  0
 12 13  1  0  0  0
 12 15  1  0  0  0
 12 48  1  0  0  0
 13 14  1  0  0  0
 13 49  1  0  0  0
 13 50  1  0  0  0
 14 51  1  0  0  0
 14 52  1  0  0  0
 14 53  1  0  0  0
 15 16  1  0  0  0
 15 54  1  0  0  0
 15 55  1  0  0  0
 16 17  1  0  0  0
 16 56  1  0  0  0
 16 57  1  0  0  0
 17 18  1  0  0  0
 17 58  1  0  0  0
 18 19  1  0  0  0
 18 59  1  0  0  0
 18 60  1  0  0  0
 19 20  1  0  0  0
 19 61  1  0  0  0
 19 62  1  0  0  0
 20 21  1  0  0  0
 20 63  1  0  0  0
 21 22  2  0  0  0
 21 23  1  0  0  0
 23 24  1  0  0  0
 23 64  1  0  0  0
 24 25  1  0  0  0
 24 31  1  0  0  0
 24 65  1  0  0  0
 25 26  2  0  0  0
 25 30  1  0  0  0
 26 27  1  0  0  0
 26 66  1  0  0  0
 27 28  2  0  0  0
 27 67  1  0  0  0
 28 29  1  0  0  0
 28 68  1  0  0  0
 29 30  2  0  0  0
 29 69  1  0  0  0
 30 70  1  0  0  0
 31 32  2  0  0  0
 31 36  1  0  0  0
 32 33  1  0  0  0
 32 71  1  0  0  0
 33 34  2  0  0  0
 33 72  1  0  0  0
 34 35  1  0  0  0
 34 73  1  0  0  0
 35 36  2  0  0  0
 35 74  1  0  0  0
 36 75  1  0  0  0
M  CHG  2   4   1  14   1
M  END
> <s_m_source_file>
../3cm2_ligand.sdf

> <i_m_source_file_index>
1

> <s_epik_input>
W0NIM11bQ0gyXVtDQEhdKFtOSDMrXSlDKD1PKVtOSF1bQ0BIXShDMT1PKVtDQEBIXShbQ0gyXVtOSDMrXSlbQ0gyXVtDSDJdW0NASF0oTjEyKVtDSDJdW0NIMl1bQ0BIXTJDKD1PKVtOSF1bQ0hdKGMzW2NIXVtjSF1bY0hdW2NIXVtjSF0zKWM0W2NIXVtjSF1bY0hdW2NIXVtjSF00

> <s_epik_cmdline>
J2VwaWtfYXBwJywgJy1pbWFlJywgJ2xpZ2FuZF9wcm8ubWFlJywgJy1vbWFlJywgJ2xpZ2FuZF9wcmVwLm1hZScsICctbXMnLCAnMScsICctcGgnLCAnNycsICctcGh0JywgJzAuNScsICctbnQn

> <r_epik_Ionization_Penalty>
  0.1181

> <r_epik_Ionization_Penalty_Charging>
  0.1181

> <r_epik_Ionization_Penalty_Neutral>
  0.0000

> <r_epik_State_Penalty>
  0.1037

> <r_epik_Charging_Adjusted_Penalty>
0.221740703141996

> <i_epik_Tot_Q>
2

> <i_epik_Tot_abs_Q>
2

$$$$
