3cm7_ligand
                    3D
 Schrodinger Suite 2020-3.
 73 76  0  0  1  0            999 V2000
  -38.5570  -10.9400  -42.7580 C   0  0  0  0  0  0
  -37.6110  -10.1650  -43.6750 C   0  0  0  0  0  0
  -37.5580   -8.6380  -43.4180 C   0  0  2  0  0  0
  -37.0540   -8.3180  -42.0730 N   0  3  0  0  0  0
  -38.9310   -8.0150  -43.5830 C   0  0  0  0  0  0
  -39.7940   -8.1710  -42.7210 O   0  0  0  0  0  0
  -39.1110   -7.3020  -44.6850 N   0  0  0  0  0  0
  -40.4310   -6.6850  -44.8840 C   0  0  2  0  0  0
  -41.3230   -7.5810  -45.7910 C   0  0  0  0  0  0
  -40.8130   -8.4850  -46.4650 O   0  0  0  0  0  0
  -42.6550   -7.4220  -45.7840 N   0  0  0  0  0  0
  -40.3640   -5.1580  -45.1540 C   0  0  1  0  0  0
  -39.6920   -4.7760  -46.4840 C   0  0  0  0  0  0
  -38.2780   -4.6410  -46.2640 O   0  0  0  0  0  0
  -41.7230   -4.4350  -44.9270 C   0  0  0  0  0  0
  -42.9740   -5.0480  -45.5900 C   0  0  0  0  0  0
  -43.3780   -6.4040  -45.0050 C   0  0  1  0  0  0
  -44.8650   -6.6350  -45.2630 C   0  0  0  0  0  0
  -44.9590   -8.0540  -45.8180 C   0  0  0  0  0  0
  -43.6120   -8.2710  -46.5380 C   0  0  1  0  0  0
  -43.7330   -7.9620  -48.0260 C   0  0  0  0  0  0
  -44.6220   -7.2330  -48.4540 O   0  0  0  0  0  0
  -42.8390   -8.5630  -48.7930 N   0  0  0  0  0  0
  -42.8660   -8.3670  -50.2510 C   0  0  0  0  0  0
  -41.7410   -7.4200  -50.7280 C   0  0  0  0  0  0
  -41.2400   -7.5010  -52.0360 C   0  0  0  0  0  0
  -40.2350   -6.6320  -52.4660 C   0  0  0  0  0  0
  -39.7320   -5.6660  -51.5910 C   0  0  0  0  0  0
  -40.2320   -5.5710  -50.2870 C   0  0  0  0  0  0
  -41.2370   -6.4430  -49.8570 C   0  0  0  0  0  0
  -42.8290   -9.7410  -50.9180 C   0  0  0  0  0  0
  -43.9260  -10.1550  -51.6650 C   0  0  0  0  0  0
  -43.9070  -11.4110  -52.2750 C   0  0  0  0  0  0
  -42.7980  -12.2510  -52.1330 C   0  0  0  0  0  0
  -41.7020  -11.8310  -51.3780 C   0  0  0  0  0  0
  -41.7240  -10.5770  -50.7690 C   0  0  0  0  0  0
  -38.5248  -12.0086  -43.0168 H   0  0  0  0  0  0
  -39.5823  -10.5625  -42.8856 H   0  0  0  0  0  0
  -38.2446  -10.8065  -41.7118 H   0  0  0  0  0  0
  -36.5857  -10.5425  -43.5474 H   0  0  0  0  0  0
  -37.9233  -10.2985  -44.7212 H   0  0  0  0  0  0
  -36.8485   -8.1886  -44.1283 H   0  0  0  0  0  0
  -36.0575   -8.7641  -41.9391 H   0  0  0  0  0  0
  -37.7422   -8.7244  -41.3173 H   0  0  0  0  0  0
  -36.9855   -7.2263  -41.9573 H   0  0  0  0  0  0
  -38.3198   -7.1625  -45.4363 H   0  0  0  0  0  0
  -40.9277   -6.6990  -43.9026 H   0  0  0  0  0  0
  -39.6730   -4.7712  -44.3905 H   0  0  0  0  0  0
  -39.8807   -5.5627  -47.2293 H   0  0  0  0  0  0
  -40.1067   -3.8229  -46.8439 H   0  0  0  0  0  0
  -37.6149   -4.3699  -47.0988 H   0  0  0  0  0  0
  -41.9481   -4.4069  -43.8506 H   0  0  0  0  0  0
  -41.6613   -3.4078  -45.3156 H   0  0  0  0  0  0
  -43.8284   -4.3675  -45.4602 H   0  0  0  0  0  0
  -42.7842   -5.1976  -46.6631 H   0  0  0  0  0  0
  -43.1401   -6.4747  -43.9334 H   0  0  0  0  0  0
  -45.4211   -6.5322  -44.3195 H   0  0  0  0  0  0
  -45.2312   -5.8925  -45.9873 H   0  0  0  0  0  0
  -45.1022   -8.7631  -44.9893 H   0  0  0  0  0  0
  -45.8116   -8.1214  -46.5098 H   0  0  0  0  0  0
  -43.2288   -9.3021  -46.5275 H   0  0  0  0  0  0
  -42.0742   -9.2104  -48.3392 H   0  0  0  0  0  0
  -43.8147   -7.8699  -50.5016 H   0  0  0  0  0  0
  -41.6385   -8.2483  -52.7222 H   0  0  0  0  0  0
  -39.8443   -6.7071  -53.4808 H   0  0  0  0  0  0
  -38.9488   -4.9851  -51.9243 H   0  0  0  0  0  0
  -39.8376   -4.8166  -49.6062 H   0  0  0  0  0  0
  -41.6294   -6.3633  -48.8432 H   0  0  0  0  0  0
  -44.7938   -9.5045  -51.7736 H   0  0  0  0  0  0
  -44.7623  -11.7389  -52.8658 H   0  0  0  0  0  0
  -42.7896  -13.2308  -52.6106 H   0  0  0  0  0  0
  -40.8335  -12.4798  -51.2650 H   0  0  0  0  0  0
  -40.8724  -10.2487  -50.1731 H   0  0  0  0  0  0
  1  2  1  0  0  0
  1 37  1  0  0  0
  1 38  1  0  0  0
  1 39  1  0  0  0
  2  3  1  0  0  0
  2 40  1  0  0  0
  2 41  1  0  0  0
  3  4  1  0  0  0
  3  5  1  0  0  0
  3 42  1  0  0  0
  4 43  1  0  0  0
  4 44  1  0  0  0
  4 45  1  0  0  0
  5  6  2  0  0  0
  5  7  1  0  0  0
  7  8  1  0  0  0
  7 46  1  0  0  0
  8  9  1  0  0  0
  8 12  1  0  0  0
  8 47  1  0  0  0
  9 10  2  0  0  0
  9 11  1  0  0  0
 11 17  1  0  0  0
 11 20  1  0  0  0
 12 13  1  0  0  0
 12 15  1  0  0  0
 12 48  1  0  0  0
 13 14  1  0  0  0
 13 49  1  0  0  0
 13 50  1  0  0  0
 14 51  1  0  0  0
 15 16  1  0  0  0
 15 52  1  0  0  0
 15 53  1  0  0  0
 16 17  1  0  0  0
 16 54  1  0  0  0
 16 55  1  0  0  0
 17 18  1  0  0  0
 17 56  1  0  0  0
 18 19  1  0  0  0
 18 57  1  0  0  0
 18 58  1  0  0  0
 19 20  1  0  0  0
 19 59  1  0  0  0
 19 60  1  0  0  0
 20 21  1  0  0  0
 20 61  1  0  0  0
 21 22  2  0  0  0
 21 23  1  0  0  0
 23 24  1  0  0  0
 23 62  1  0  0  0
 24 25  1  0  0  0
 24 31  1  0  0  0
 24 63  1  0  0  0
 25 26  2  0  0  0
 25 30  1  0  0  0
 26 27  1  0  0  0
 26 64  1  0  0  0
 27 28  2  0  0  0
 27 65  1  0  0  0
 28 29  1  0  0  0
 28 66  1  0  0  0
 29 30  2  0  0  0
 29 67  1  0  0  0
 30 68  1  0  0  0
 31 32  2  0  0  0
 31 36  1  0  0  0
 32 33  1  0  0  0
 32 69  1  0  0  0
 33 34  2  0  0  0
 33 70  1  0  0  0
 34 35  1  0  0  0
 34 71  1  0  0  0
 35 36  2  0  0  0
 35 72  1  0  0  0
 36 73  1  0  0  0
M  CHG  1   4   1
M  END
> <s_m_source_file>
../3cm7_ligand.sdf

> <i_m_source_file_index>
1

> <s_epik_input>
W0NIM11bQ0gyXVtDQEhdKFtOSDMrXSlDKD1PKVtOSF1bQ0BIXShDMT1PKVtDQEBIXShbQ0gyXVtPSF0pW0NIMl1bQ0gyXVtDQEhdKE4xMilbQ0gyXVtDSDJdW0NASF0yQyg9TylbTkhdW0NIXShjM1tjSF1bY0hdW2NIXVtjSF1bY0hdMyljNFtjSF1bY0hdW2NIXVtjSF1bY0hdNA==

> <s_epik_cmdline>
J2VwaWtfYXBwJywgJy1pbWFlJywgJ2xpZ2FuZF9wcm8ubWFlJywgJy1vbWFlJywgJ2xpZ2FuZF9wcmVwLm1hZScsICctbXMnLCAnMScsICctcGgnLCAnNycsICctcGh0JywgJzAuNScsICctbnQn

> <r_epik_Ionization_Penalty>
  0.1040

> <r_epik_Ionization_Penalty_Charging>
  0.1040

> <r_epik_Ionization_Penalty_Neutral>
  0.0000

> <r_epik_State_Penalty>
  0.0939

> <r_epik_Charging_Adjusted_Penalty>
0.197918408748933

> <i_epik_Tot_Q>
1

> <i_epik_Tot_abs_Q>
1

$$$$
