3cn0_ligand
                    3D
 Schrodinger Suite 2020-3.
 33 34  0  0  1  0            999 V2000
   -0.7130    2.5160  -10.2740 C   0  0  0  0  0  0
   -0.5260    1.1360   -9.6290 C   0  0  0  0  0  0
   -0.7400    0.9530   -8.2740 C   0  0  0  0  0  0
   -0.1410    0.0340  -10.4080 C   0  0  0  0  0  0
    0.0580    0.2320  -11.7220 O   0  0  0  0  0  0
    0.0510   -1.2410   -9.8380 C   0  0  0  0  0  0
    0.4680   -2.4400  -10.6820 C   0  0  0  0  0  0
   -0.1850   -1.4190   -8.4920 C   0  0  0  0  0  0
   -0.5840   -0.3210   -7.7400 C   0  0  0  0  0  0
   -0.7620   -0.4330   -6.3900 C   0  0  0  0  0  0
    0.4420   -0.2900   -5.7200 C   0  0  0  0  0  0
    0.4310   -0.3180   -4.3510 C   0  0  0  0  0  0
   -0.4530    0.5660   -3.7060 C   0  0  0  0  0  0
   -0.4620    0.5450   -2.3330 C   0  0  0  0  0  0
    0.3930   -0.2760   -1.6030 C   0  0  0  0  0  0
    1.2860   -1.1430   -2.2510 C   0  0  0  0  0  0
    1.2830   -1.1400   -3.6380 C   0  0  0  0  0  0
   -1.0134    3.2426   -9.5047 H   0  0  0  0  0  0
   -1.4933    2.4567  -11.0470 H   0  0  0  0  0  0
    0.2337    2.8377  -10.7325 H   0  0  0  0  0  0
   -1.0252    1.7911   -7.6381 H   0  0  0  0  0  0
   -0.0945    1.2307  -12.1570 H   0  0  0  0  0  0
    0.6137   -2.1215  -11.7247 H   0  0  0  0  0  0
   -0.3174   -3.2090  -10.6399 H   0  0  0  0  0  0
    1.4086   -2.8547  -10.2904 H   0  0  0  0  0  0
   -0.0616   -2.3978   -8.0284 H   0  0  0  0  0  0
   -1.6885   -0.6108   -5.8243 H   0  0  0  0  0  0
    1.3750   -0.1581   -6.2876 H   0  0  0  0  0  0
   -1.1010    1.2368   -4.2701 H   0  0  0  0  0  0
   -1.1593    1.1904   -1.7988 H   0  0  0  0  0  0
    0.3685   -0.2450   -0.5137 H   0  0  0  0  0  0
    1.9552   -1.7928   -1.6870 H   0  0  0  0  0  0
    1.9654   -1.7983   -4.1757 H   0  0  0  0  0  0
  1  2  1  0  0  0
  1 18  1  0  0  0
  1 19  1  0  0  0
  1 20  1  0  0  0
  2  3  2  0  0  0
  2  4  1  0  0  0
  3  9  1  0  0  0
  3 21  1  0  0  0
  4  5  1  0  0  0
  4  6  2  0  0  0
  5 22  1  0  0  0
  6  7  1  0  0  0
  6  8  1  0  0  0
  7 23  1  0  0  0
  7 24  1  0  0  0
  7 25  1  0  0  0
  8  9  2  0  0  0
  8 26  1  0  0  0
  9 10  1  0  0  0
 10 11  2  0  0  0
 10 27  1  0  0  0
 11 12  1  0  0  0
 11 28  1  0  0  0
 12 13  2  0  0  0
 12 17  1  0  0  0
 13 14  1  0  0  0
 13 29  1  0  0  0
 14 15  2  0  0  0
 14 30  1  0  0  0
 15 16  1  0  0  0
 15 31  1  0  0  0
 16 17  2  0  0  0
 16 32  1  0  0  0
 17 33  1  0  0  0
M  END
> <s_m_source_file>
../3cn0_ligand.sdf

> <i_m_source_file_index>
1

> <s_epik_input>
W09IXWMxYyhbQ0gzXSlbY0hdYyhbY0hdYzFbQ0gzXSkvW0NIXT1bQ0hdL2MyW2NIXVtjSF1bY0hdW2NIXVtjSF0y

> <s_epik_cmdline>
J2VwaWtfYXBwJywgJy1pbWFlJywgJ2xpZ2FuZF9wcm8ubWFlJywgJy1vbWFlJywgJ2xpZ2FuZF9wcmVwLm1hZScsICctbXMnLCAnMScsICctcGgnLCAnNycsICctcGh0JywgJzAuNScsICctbnQn

> <r_lp_tautomer_probability>
1

> <r_epik_Ionization_Penalty>
  0.0001

> <r_epik_Ionization_Penalty_Charging>
  0.0000

> <r_epik_Ionization_Penalty_Neutral>
  0.0001

> <r_epik_State_Penalty>
 -0.0000

> <r_epik_Charging_Adjusted_Penalty>
0

> <i_epik_Tot_Q>
0

> <i_epik_Tot_abs_Q>
0

$$$$
