3co9_ligand
                    3D
 Schrodinger Suite 2020-3.
 55 58  0  0  1  0            999 V2000
   31.5070   46.1490   49.3590 C   0  0  0  0  0  0
   32.1790   45.1600   58.3310 C   0  0  0  0  0  0
   32.5910   44.2980   48.6480 C   0  0  0  0  0  0
   33.3850   44.5320   56.2850 C   0  0  0  0  0  0
   32.7350   44.0560   58.9890 C   0  0  0  0  0  0
   32.1910   45.6160   50.4330 C   0  0  0  0  0  0
   32.9510   45.3700   54.1260 C   0  0  0  0  0  0
   37.8190   44.1400   49.2730 C   0  0  0  0  0  0
   30.5320   45.1650   61.6150 C   0  0  0  0  0  0
   36.6720   43.8530   50.2510 C   0  0  0  0  0  0
   32.8040   46.2900   61.0340 O   0  0  0  0  0  0
   32.3000   45.0150   61.5210 S   0  0  0  0  0  0
   32.7500   44.4650   62.7890 O   0  0  0  0  0  0
   32.4240   43.7740   60.3520 N   0  0  0  0  0  0
   33.6070   43.1910   58.3110 C   0  0  0  0  0  0
   32.5140   45.3780   56.9900 C   0  0  0  0  0  0
   31.8750   46.7790   56.1520 S   0  0  0  0  0  0
   30.4710   46.9510   56.4700 O   0  0  0  0  0  0
   32.8590   47.8040   56.4120 O   0  0  0  0  0  0
   31.9800   46.3070   54.5390 N   0  0  0  0  0  0
   33.7440   44.7300   54.9460 N   0  0  0  0  0  0
   33.9340   43.4290   56.9670 C   0  0  0  0  0  0
   32.9890   45.1780   52.6660 C   0  0  0  0  0  0
   32.3320   45.9880   51.7900 C   0  0  0  0  0  0
   31.7980   47.2230   52.0720 O   0  0  0  0  0  0
   33.7690   44.0090   52.1530 C   0  0  0  0  0  0
   34.3780   43.3240   52.9660 O   0  5  0  0  0  0
   33.6550   43.6980   50.7990 N   0  0  0  0  0  0
   32.8480   44.5000   49.9800 N   0  0  0  0  0  0
   31.7620   45.3200   48.2420 C   0  0  0  0  0  0
   34.3380   42.5190   50.2860 C   0  0  0  0  0  0
   35.6610   42.8730   49.5860 C   0  0  0  0  0  0
   37.2660   43.3580   51.5780 C   0  0  0  0  0  0
   30.8849   47.0440   49.3699 H   0  0  0  0  0  0
   31.5000   45.8349   58.8521 H   0  0  0  0  0  0
   32.9702   43.4846   48.0294 H   0  0  0  0  0  0
   37.4059   44.4957   48.3176 H   0  0  0  0  0  0
   38.3951   43.2185   49.1030 H   0  0  0  0  0  0
   38.4782   44.9116   49.6973 H   0  0  0  0  0  0
   30.2685   45.9449   62.3446 H   0  0  0  0  0  0
   30.0989   44.2048   61.9321 H   0  0  0  0  0  0
   30.1341   45.4381   60.6265 H   0  0  0  0  0  0
   36.1104   44.7670   50.4941 H   0  0  0  0  0  0
   32.2624   42.7257   60.6435 H   0  0  0  0  0  0
   34.0318   42.3315   58.8296 H   0  0  0  0  0  0
   34.6168   42.7562   56.4481 H   0  0  0  0  0  0
   31.3706   45.4647   47.2351 H   0  0  0  0  0  0
   34.5636   41.8351   51.1175 H   0  0  0  0  0  0
   33.6914   42.0089   49.5569 H   0  0  0  0  0  0
   35.3406   43.2795   48.6154 H   0  0  0  0  0  0
   36.1435   41.8963   49.4332 H   0  0  0  0  0  0
   37.9646   44.1115   51.9707 H   0  0  0  0  0  0
   37.8029   42.4128   51.4095 H   0  0  0  0  0  0
   36.4560   43.1952   52.3042 H   0  0  0  0  0  0
   34.7040   44.3452   54.5713 H   0  0  0  0  0  0
  1  6  2  0  0  0
  1 30  1  0  0  0
  1 34  1  0  0  0
  2  5  2  0  0  0
  2 16  1  0  0  0
  2 35  1  0  0  0
  3 29  1  0  0  0
  3 30  2  0  0  0
  3 36  1  0  0  0
  4 16  2  0  0  0
  4 21  1  0  0  0
  4 22  1  0  0  0
  5 14  1  0  0  0
  5 15  1  0  0  0
  6 24  1  0  0  0
  6 29  1  0  0  0
  7 20  2  0  0  0
  7 21  1  0  0  0
  7 23  1  0  0  0
  8 10  1  0  0  0
  8 37  1  0  0  0
  8 38  1  0  0  0
  8 39  1  0  0  0
  9 12  1  0  0  0
  9 40  1  0  0  0
  9 41  1  0  0  0
  9 42  1  0  0  0
 10 32  1  0  0  0
 10 33  1  0  0  0
 10 43  1  0  0  0
 11 12  2  0  0  0
 12 13  2  0  0  0
 12 14  1  0  0  0
 14 44  1  0  0  0
 15 22  2  0  0  0
 15 45  1  0  0  0
 16 17  1  0  0  0
 17 18  2  0  0  0
 17 19  2  0  0  0
 17 20  1  0  0  0
 21 55  1  0  0  0
 22 46  1  0  0  0
 23 24  1  0  0  0
 23 26  2  0  0  0
 24 25  2  0  0  0
 26 27  1  0  0  0
 26 28  1  0  0  0
 28 29  1  0  0  0
 28 31  1  0  0  0
 30 47  1  0  0  0
 31 32  1  0  0  0
 31 48  1  0  0  0
 31 49  1  0  0  0
 32 50  1  0  0  0
 32 51  1  0  0  0
 33 52  1  0  0  0
 33 53  1  0  0  0
 33 54  1  0  0  0
M  CHG  1  27  -1
M  END
> <s_m_source_file>
../3co9_ligand.sdf

> <i_m_source_file_index>
1

> <s_epik_input>
W2NIXTFbY0hdW2NIXW4oYzEyKW4oW0NIMl1bQ0gyXVtDSF0oW0NIM10pW0NIM10pYyg9TyljKGMyW09IXSlDKD1OMylbTkhdUyg9TykoPU8pYyhjMzQpW2NIXWMoW2NIXVtjSF00KVtOSF1TKD1PKSg9TylbQ0gzXQ==

> <s_epik_cmdline>
J2VwaWtfYXBwJywgJy1pbWFlJywgJ2xpZ2FuZF9wcm8ubWFlJywgJy1vbWFlJywgJ2xpZ2FuZF9wcmVwLm1hZScsICctbXMnLCAnMScsICctcGgnLCAnNycsICctcGh0JywgJzAuNScsICctbnQn

> <r_epik_Ionization_Penalty>
  0.0377

> <r_epik_Ionization_Penalty_Charging>
  0.0000

> <r_epik_Ionization_Penalty_Neutral>
  0.0376

> <r_epik_State_Penalty>
  0.0251

> <r_epik_Charging_Adjusted_Penalty>
0.0250967146463672

> <i_epik_Tot_Q>
-1

> <i_epik_Tot_abs_Q>
1

> <s_epik_Chemistry_Notes>
This compound has an imine and may undergo hydrolysis.

$$$$
