3coh_ligand
                    3D
 Schrodinger Suite 2020-3.
 48 52  0  0  1  0            999 V2000
   -0.5950   63.5780   42.2620 C   0  0  0  0  0  0
   -1.1180   62.7280   43.3710 C   0  0  0  0  0  0
   -1.6480   61.4640   43.1590 C   0  0  0  0  0  0
   -1.3200   63.0690   46.0400 C   0  0  0  0  0  0
   -0.3130   64.6990   44.1170 C   0  0  0  0  0  0
   -0.9680   63.4840   44.6300 C   0  0  3  0  0  0
   -0.0030   65.8920   44.9570 C   0  0  0  0  0  0
   -0.3000   66.0730   46.3990 C   0  0  0  0  0  0
   -0.7870   65.0960   47.4410 C   0  0  0  0  0  0
    0.0740   67.4960   46.6070 C   0  0  3  0  0  0
   -2.3200   58.8290   39.3150 O   0  0  0  0  0  0
   -1.9510   59.8350   40.0160 C   0  0  0  0  0  0
   -2.1380   59.8050   41.3340 N   0  0  0  0  0  0
   -2.7380   58.6740   42.0440 C   0  0  0  0  0  0
   -4.0330   59.1220   42.6910 C   0  0  0  0  0  0
   -1.3430   61.0830   39.4450 C   0  0  0  0  0  0
   -0.0430   60.8050   38.7050 C   0  0  0  0  0  0
   -2.3640   61.8170   38.5830 C   0  0  0  0  0  0
   -1.1720   61.8110   40.7340 C   0  0  0  0  0  0
   -0.6390   63.0940   40.9560 C   0  0  0  0  0  0
   -1.6930   60.9710   41.8630 C   0  0  0  0  0  0
   -0.1650   64.7350   42.7810 N   0  0  0  0  0  0
   -1.8900   64.2270   46.8540 C   0  0  0  0  0  0
    0.0560   68.2780   47.9010 C   0  0  0  0  0  0
    0.4400   67.9670   45.4040 N   0  0  0  0  0  0
    0.3790   67.0320   44.3690 N   0  0  0  0  0  0
   -2.0214   60.8703   43.9933 H   0  0  0  0  0  0
   -2.0737   62.2684   46.0092 H   0  0  0  0  0  0
   -0.4171   62.7031   46.5508 H   0  0  0  0  0  0
    0.0483   64.4567   47.7630 H   0  0  0  0  0  0
   -1.1804   65.6490   48.3067 H   0  0  0  0  0  0
   -2.9431   57.8611   41.3318 H   0  0  0  0  0  0
   -2.0430   58.3166   42.8181 H   0  0  0  0  0  0
   -4.4877   58.2752   43.2259 H   0  0  0  0  0  0
   -4.7257   59.4802   41.9152 H   0  0  0  0  0  0
   -3.8256   59.9357   43.4015 H   0  0  0  0  0  0
   -0.2609   60.2677   37.7702 H   0  0  0  0  0  0
    0.6143   60.1897   39.3370 H   0  0  0  0  0  0
    0.4574   61.7567   38.4728 H   0  0  0  0  0  0
   -2.4922   61.2817   37.6306 H   0  0  0  0  0  0
   -2.0090   62.8390   38.3843 H   0  0  0  0  0  0
   -3.3274   61.8599   39.1122 H   0  0  0  0  0  0
   -0.2690   63.6955   40.1257 H   0  0  0  0  0  0
   -2.5194   64.8553   46.2067 H   0  0  0  0  0  0
   -2.4965   63.8301   47.6814 H   0  0  0  0  0  0
   -0.2890   67.6272   48.7179 H   0  0  0  0  0  0
   -0.6263   69.1351   47.8019 H   0  0  0  0  0  0
    1.0702   68.6405   48.1244 H   0  0  0  0  0  0
  1  2  2  0  0  0
  1 20  1  0  0  0
  1 22  1  0  0  0
  2  3  1  0  0  0
  2  6  1  0  0  0
  3 21  2  0  0  0
  3 27  1  0  0  0
  4  6  1  0  0  0
  4 23  1  0  0  0
  4 28  1  0  0  0
  4 29  1  0  0  0
  5  6  1  0  0  0
  5  7  1  0  0  0
  5 22  2  0  0  0
  7  8  2  0  0  0
  7 26  1  0  0  0
  8  9  1  0  0  0
  8 10  1  0  0  0
  9 23  1  0  0  0
  9 30  1  0  0  0
  9 31  1  0  0  0
 10 24  1  0  0  0
 10 25  1  0  0  0
 11 12  2  0  0  0
 12 13  1  0  0  0
 12 16  1  0  0  0
 13 14  1  0  0  0
 13 21  1  0  0  0
 14 15  1  0  0  0
 14 32  1  0  0  0
 14 33  1  0  0  0
 15 34  1  0  0  0
 15 35  1  0  0  0
 15 36  1  0  0  0
 16 17  1  0  0  0
 16 18  1  0  0  0
 16 19  1  0  0  0
 17 37  1  0  0  0
 17 38  1  0  0  0
 17 39  1  0  0  0
 18 40  1  0  0  0
 18 41  1  0  0  0
 18 42  1  0  0  0
 19 20  2  0  0  0
 19 21  1  0  0  0
 20 43  1  0  0  0
 23 44  1  0  0  0
 23 45  1  0  0  0
 24 46  1  0  0  0
 24 47  1  0  0  0
 24 48  1  0  0  0
 25 26  2  0  0  0
M  END
> <s_m_source_file>
../3coh_ligand.sdf

> <i_m_source_file_index>
1

> <s_epik_input>
W0NIMl0xW0NIMl1bQ0gyXUMoW0NIXShbQ0gzXSlOPU4yKT1DMkMoPU4zKVtDSF0xYyhjMzQpW2NIXWM1YyhbY0hdNClDKFtDSDNdKShbQ0gzXSlDKD1PKU41W0NIMl1bQ0gzXQ==

> <s_epik_cmdline>
J2VwaWtfYXBwJywgJy1pbWFlJywgJ2xpZ2FuZF9wcm8ubWFlJywgJy1vbWFlJywgJ2xpZ2FuZF9wcmVwLm1hZScsICctbXMnLCAnMScsICctcGgnLCAnNycsICctcGh0JywgJzAuNScsICctbnQn

> <r_lp_tautomer_probability>
1

> <r_epik_Ionization_Penalty>
  0.0042

> <r_epik_Ionization_Penalty_Charging>
  0.0000

> <r_epik_Ionization_Penalty_Neutral>
  0.0042

> <r_epik_State_Penalty>
 -0.0000

> <r_epik_Charging_Adjusted_Penalty>
0

> <i_epik_Tot_Q>
0

> <i_epik_Tot_abs_Q>
0

> <s_epik_Chemistry_Notes>
This compound has an imine and may undergo hydrolysis.

$$$$
