3coj_ligand
                    3D
 Schrodinger Suite 2020-3.
142145  0  0  1  0            999 V2000
   -5.4670  -20.2660  -19.2680 N   0  3  0  0  0  0
   -6.1440  -19.1220  -19.8780 C   0  0  2  0  0  0
   -5.3500  -18.5590  -21.0640 C   0  0  0  0  0  0
   -5.8340  -18.5860  -22.2020 O   0  0  0  0  0  0
   -6.2260  -18.1030  -18.7260 C   0  0  0  0  0  0
   -5.3780  -18.6760  -17.5870 C   0  0  0  0  0  0
   -4.6420  -19.8740  -18.1130 C   0  0  0  0  0  0
   -4.1540  -18.0380  -20.7750 N   0  0  0  0  0  0
   -3.1480  -17.6900  -21.7760 C   0  0  2  0  0  0
   -1.8310  -18.3320  -21.3430 C   0  0  0  0  0  0
   -1.8280  -19.2210  -20.4900 O   0  0  0  0  0  0
   -3.0040  -16.1700  -21.9170 C   0  0  0  0  0  0
   -4.1070  -15.5040  -22.7380 C   0  0  0  0  0  0
   -3.7650  -14.0790  -23.1740 C   0  0  0  0  0  0
   -2.6170  -13.6360  -23.0520 O   0  0  0  0  0  0
   -4.7630  -13.3630  -23.6880 N   0  0  0  0  0  0
   -0.7220  -17.8900  -21.9280 N   0  0  0  0  0  0
    0.5940  -18.4380  -21.6030 C   0  0  1  0  0  0
    1.5000  -18.4170  -22.8280 C   0  0  0  0  0  0
    1.3360  -19.6050  -23.5690 O   0  0  0  0  0  0
    1.2770  -17.7100  -20.4510 C   0  0  0  0  0  0
    1.2910  -16.4780  -20.4170 O   0  0  0  0  0  0
    2.2810  -19.5730  -24.8600 P   0  0  0  0  0  0
    3.8250  -19.4770  -24.4100 O   0  5  0  0  0  0
    1.8880  -18.3200  -25.7950 O   0  5  0  0  0  0
    2.0140  -20.9460  -25.6480 O   0  0  0  0  0  0
    1.8520  -18.4700  -19.5190 N   0  0  0  0  0  0
    2.5410  -17.8980  -18.3660 C   0  0  2  0  0  0
    3.7220  -17.0240  -18.7710 C   0  0  0  0  0  0
    4.4280  -17.3440  -19.7310 O   0  0  0  0  0  0
    3.0520  -19.1330  -17.6160 C   0  0  0  0  0  0
    2.1980  -20.2470  -18.0770 C   0  0  0  0  0  0
    1.8850  -19.9440  -19.5030 C   0  0  0  0  0  0
    3.9150  -15.9260  -18.0470 N   0  0  0  0  0  0
    5.0800  -15.0630  -18.2180 C   0  0  2  0  0  0
    5.9550  -15.1430  -16.9710 C   0  0  0  0  0  0
    5.6030  -15.8210  -16.0110 O   0  0  0  0  0  0
    4.6540  -13.6080  -18.4910 C   0  0  2  0  0  0
    3.6590  -13.2080  -17.5420 O   0  0  0  0  0  0
    3.9350  -13.4980  -19.8300 C   0  0  0  0  0  0
    7.1010  -14.4700  -16.9840 N   0  0  0  0  0  0
    8.0140  -14.4960  -15.8410 C   0  0  2  0  0  0
    8.6350  -13.1220  -15.5860 C   0  0  0  0  0  0
    9.4540  -12.6580  -16.3740 O   0  0  0  0  0  0
    9.0950  -15.5690  -16.0360 C   0  0  0  0  0  0
    8.5610  -16.9810  -16.0390 C   0  0  0  0  0  0
    8.2910  -17.6320  -17.2350 C   0  0  0  0  0  0
    8.3260  -17.6550  -14.8430 C   0  0  0  0  0  0
    7.7960  -18.9320  -17.2390 C   0  0  0  0  0  0
    7.8300  -18.9560  -14.8380 C   0  0  0  0  0  0
    7.5620  -19.5950  -16.0390 C   0  0  0  0  0  0
    8.2210  -12.4730  -14.4980 N   0  0  0  0  0  0
    8.6120  -11.0840  -14.1830 C   0  0  2  0  0  0
   10.1070  -10.7740  -13.8840 C   0  0  0  0  0  0
   10.9280  -10.8520  -14.8050 O   0  0  0  0  0  0
    7.6990  -10.7310  -13.0000 C   0  0  0  0  0  0
    6.5850  -11.7360  -13.0940 C   0  0  0  0  0  0
    7.2700  -13.0040  -13.5080 C   0  0  0  0  0  0
   10.4490  -10.4110  -12.6390 N   0  0  0  0  0  0
   11.7450   -9.7460  -12.3430 C   0  0  2  0  0  0
   12.9050  -10.5770  -11.7700 C   0  0  0  0  0  0
   12.6920  -11.6200  -11.1510 O   0  0  0  0  0  0
   11.5410   -8.4660  -11.5180 C   0  0  0  0  0  0
   11.7580   -7.1780  -12.3060 C   0  0  0  0  0  0
   13.2290   -6.8330  -12.4970 C   0  0  0  0  0  0
   13.6590   -5.7790  -11.9860 O   0  0  0  0  0  0
   13.9610   -7.6080  -13.1510 O   0  5  0  0  0  0
   14.1200  -10.0520  -11.9630 N   0  0  0  0  0  0
   15.3870  -10.7930  -11.8600 C   0  0  2  0  0  0
   15.8480  -11.1190  -10.4390 C   0  0  0  0  0  0
   15.0360  -11.3840   -9.5560 O   0  0  0  0  0  0
   16.4900  -10.0450  -12.6230 C   0  0  0  0  0  0
   17.1630  -11.1060  -10.2360 N   0  0  0  0  0  0
   17.7550  -11.4050   -8.9380 C   0  0  0  0  0  0
   19.2090  -10.9850   -8.8820 C   0  0  0  0  0  0
   19.5690   -9.9010   -9.3410 O   0  0  0  0  0  0
   20.1071  -11.7964   -8.3307 O   0  5  0  0  0  0
   -6.2160  -20.9932  -18.9214 H   0  0  0  0  0  0
   -4.8101  -20.7421  -20.0108 H   0  0  0  0  0  0
   -7.1196  -19.4296  -20.2825 H   0  0  0  0  0  0
   -5.8305  -17.1341  -19.0647 H   0  0  0  0  0  0
   -7.2747  -17.9830  -18.4166 H   0  0  0  0  0  0
   -4.6643  -17.9134  -17.2418 H   0  0  0  0  0  0
   -6.0333  -18.9689  -16.7535 H   0  0  0  0  0  0
   -4.6028  -20.7038  -17.3919 H   0  0  0  0  0  0
   -3.6236  -19.6360  -18.4538 H   0  0  0  0  0  0
   -3.9471  -17.8740  -19.7072 H   0  0  0  0  0  0
   -3.4886  -18.0867  -22.7438 H   0  0  0  0  0  0
   -3.0222  -15.7059  -20.9199 H   0  0  0  0  0  0
   -2.0502  -15.9364  -22.4127 H   0  0  0  0  0  0
   -4.2919  -16.0922  -23.6490 H   0  0  0  0  0  0
   -5.0292  -15.4537  -22.1405 H   0  0  0  0  0  0
   -5.7674  -13.8029  -23.7754 H   0  0  0  0  0  0
   -4.5831  -12.3316  -24.0253 H   0  0  0  0  0  0
   -0.8147  -17.0886  -22.6758 H   0  0  0  0  0  0
    0.3770  -19.4689  -21.2866 H   0  0  0  0  0  0
    1.2399  -17.5563  -23.4617 H   0  0  0  0  0  0
    2.5487  -18.3324  -22.5070 H   0  0  0  0  0  0
    1.8473  -17.2527  -17.8071 H   0  0  0  0  0  0
    4.1093  -19.3033  -17.8675 H   0  0  0  0  0  0
    2.9544  -18.9704  -16.5325 H   0  0  0  0  0  0
    2.7472  -21.1950  -17.9786 H   0  0  0  0  0  0
    1.2851  -20.2869  -17.4647 H   0  0  0  0  0  0
    0.9064  -20.3361  -19.8170 H   0  0  0  0  0  0
    2.6621  -20.3009  -20.1949 H   0  0  0  0  0  0
    3.1523  -15.6776  -17.2943 H   0  0  0  0  0  0
    5.6253  -15.4530  -19.0901 H   0  0  0  0  0  0
    5.5385  -12.9590  -18.4107 H   0  0  0  0  0  0
    3.8987  -13.1892  -16.4686 H   0  0  0  0  0  0
    4.6212  -13.7876  -20.6395 H   0  0  0  0  0  0
    3.6034  -12.4605  -19.9839 H   0  0  0  0  0  0
    3.0614  -14.1665  -19.8331 H   0  0  0  0  0  0
    7.3572  -13.8846  -17.8793 H   0  0  0  0  0  0
    7.3847  -14.7568  -14.9773 H   0  0  0  0  0  0
    9.6000  -15.4097  -17.0001 H   0  0  0  0  0  0
    9.8307  -15.5007  -15.2211 H   0  0  0  0  0  0
    8.4686  -17.1194  -18.1804 H   0  0  0  0  0  0
    8.5336  -17.1563  -13.8963 H   0  0  0  0  0  0
    7.5909  -19.4325  -18.1853 H   0  0  0  0  0  0
    7.6530  -19.4703  -13.8934 H   0  0  0  0  0  0
    7.1698  -20.6120  -16.0426 H   0  0  0  0  0  0
    8.4606  -10.5085  -15.1081 H   0  0  0  0  0  0
    8.2640  -10.8229  -12.0607 H   0  0  0  0  0  0
    7.3378   -9.6980  -13.1111 H   0  0  0  0  0  0
    6.0943  -11.8321  -12.1142 H   0  0  0  0  0  0
    5.8503  -11.4003  -13.8407 H   0  0  0  0  0  0
    6.6041  -13.7327  -13.9934 H   0  0  0  0  0  0
    7.8237  -13.4976  -12.6957 H   0  0  0  0  0  0
    9.7388  -10.6186  -11.8250 H   0  0  0  0  0  0
   12.0638   -9.5435  -13.3761 H   0  0  0  0  0  0
   10.5118   -8.4397  -11.1305 H   0  0  0  0  0  0
   12.2498   -8.4550  -10.6769 H   0  0  0  0  0  0
   11.3078   -7.2788  -13.3046 H   0  0  0  0  0  0
   11.2860   -6.3388  -11.7741 H   0  0  0  0  0  0
   14.1279   -8.9816  -12.2162 H   0  0  0  0  0  0
   15.1400  -11.7604  -12.3217 H   0  0  0  0  0  0
   16.1422   -9.8186  -13.6417 H   0  0  0  0  0  0
   17.3912  -10.6736  -12.6744 H   0  0  0  0  0  0
   16.7266   -9.1070  -12.0994 H   0  0  0  0  0  0
   17.8090  -10.8583  -11.0912 H   0  0  0  0  0  0
   17.2061  -10.8660   -8.1518 H   0  0  0  0  0  0
   17.6974  -12.4872   -8.7492 H   0  0  0  0  0  0
  1  2  1  0  0  0
  1  7  1  0  0  0
  1 78  1  0  0  0
  1 79  1  0  0  0
  2  3  1  0  0  0
  2  5  1  0  0  0
  2 80  1  0  0  0
  3  4  2  0  0  0
  3  8  1  0  0  0
  5  6  1  0  0  0
  5 81  1  0  0  0
  5 82  1  0  0  0
  6  7  1  0  0  0
  6 83  1  0  0  0
  6 84  1  0  0  0
  7 85  1  0  0  0
  7 86  1  0  0  0
  8  9  1  0  0  0
  8 87  1  0  0  0
  9 10  1  0  0  0
  9 12  1  0  0  0
  9 88  1  0  0  0
 10 11  2  0  0  0
 10 17  1  0  0  0
 12 13  1  0  0  0
 12 89  1  0  0  0
 12 90  1  0  0  0
 13 14  1  0  0  0
 13 91  1  0  0  0
 13 92  1  0  0  0
 14 15  2  0  0  0
 14 16  1  0  0  0
 16 93  1  0  0  0
 16 94  1  0  0  0
 17 18  1  0  0  0
 17 95  1  0  0  0
 18 19  1  0  0  0
 18 21  1  0  0  0
 18 96  1  0  0  0
 19 20  1  0  0  0
 19 97  1  0  0  0
 19 98  1  0  0  0
 20 23  1  0  0  0
 21 22  2  0  0  0
 21 27  1  0  0  0
 23 24  1  0  0  0
 23 25  1  0  0  0
 23 26  2  0  0  0
 27 28  1  0  0  0
 27 33  1  0  0  0
 28 29  1  0  0  0
 28 31  1  0  0  0
 28 99  1  0  0  0
 29 30  2  0  0  0
 29 34  1  0  0  0
 31 32  1  0  0  0
 31100  1  0  0  0
 31101  1  0  0  0
 32 33  1  0  0  0
 32102  1  0  0  0
 32103  1  0  0  0
 33104  1  0  0  0
 33105  1  0  0  0
 34 35  1  0  0  0
 34106  1  0  0  0
 35 36  1  0  0  0
 35 38  1  0  0  0
 35107  1  0  0  0
 36 37  2  0  0  0
 36 41  1  0  0  0
 38 39  1  0  0  0
 38 40  1  0  0  0
 38108  1  0  0  0
 39109  1  0  0  0
 40110  1  0  0  0
 40111  1  0  0  0
 40112  1  0  0  0
 41 42  1  0  0  0
 41113  1  0  0  0
 42 43  1  0  0  0
 42 45  1  0  0  0
 42114  1  0  0  0
 43 44  2  0  0  0
 43 52  1  0  0  0
 45 46  1  0  0  0
 45115  1  0  0  0
 45116  1  0  0  0
 46 47  2  0  0  0
 46 48  1  0  0  0
 47 49  1  0  0  0
 47117  1  0  0  0
 48 50  2  0  0  0
 48118  1  0  0  0
 49 51  2  0  0  0
 49119  1  0  0  0
 50 51  1  0  0  0
 50120  1  0  0  0
 51121  1  0  0  0
 52 53  1  0  0  0
 52 58  1  0  0  0
 53 54  1  0  0  0
 53 56  1  0  0  0
 53122  1  0  0  0
 54 55  2  0  0  0
 54 59  1  0  0  0
 56 57  1  0  0  0
 56123  1  0  0  0
 56124  1  0  0  0
 57 58  1  0  0  0
 57125  1  0  0  0
 57126  1  0  0  0
 58127  1  0  0  0
 58128  1  0  0  0
 59 60  1  0  0  0
 59129  1  0  0  0
 60 61  1  0  0  0
 60 63  1  0  0  0
 60130  1  0  0  0
 61 62  2  0  0  0
 61 68  1  0  0  0
 63 64  1  0  0  0
 63131  1  0  0  0
 63132  1  0  0  0
 64 65  1  0  0  0
 64133  1  0  0  0
 64134  1  0  0  0
 65 66  2  0  0  0
 65 67  1  0  0  0
 68 69  1  0  0  0
 68135  1  0  0  0
 69 70  1  0  0  0
 69 72  1  0  0  0
 69136  1  0  0  0
 70 71  2  0  0  0
 70 73  1  0  0  0
 72137  1  0  0  0
 72138  1  0  0  0
 72139  1  0  0  0
 73 74  1  0  0  0
 73140  1  0  0  0
 74 75  1  0  0  0
 74141  1  0  0  0
 74142  1  0  0  0
 75 76  2  0  0  0
 75 77  1  0  0  0
M  CHG  5   1   1  24  -1  25  -1  67  -1  77  -1
M  END
> <s_m_source_file>
../3coj_ligand.sdf

> <i_m_source_file_index>
1

> <s_epik_input>
W0NIMl0xW0NIMl1bQ0gyXVtOSDIrXVtDQEBIXTFDKD1PKVtOSF1bQ0BASF0oW0NIMl1bQ0gyXUMoPU8pW05IMl0pQyg9TylbTkhdW0NAQEhdKFtDSDJdT1AoPU8pKFtPSF0pW09IXSlDKD1PKU4yW0NAQEhdKFtDSDJdW0NIMl1bQ0gyXTIpQyg9TylbTkhdW0NAQEhdKFtDQEhdKFtPSF0pW0NIM10pQyg9TylbTkhdW0NAQEhdKFtDSDJdYzNbY0hdW2NIXVtjSF1bY0hdW2NIXTMpQyg9TylONFtDQEBIXShbQ0gyXVtDSDJdW0NIMl00KUMoPU8pW05IXVtDQEBIXShbQ0gyXVtDSDJdQyg9TylbT0hdKUMoPU8pW05IXVtDQEBIXShbQ0gzXSlDKD1PKVtOSF1bQ0gyXUMoPU8pW09IXQ==

> <s_epik_cmdline>
J2VwaWtfYXBwJywgJy1pbWFlJywgJ2xpZ2FuZF9wcm8ubWFlJywgJy1vbWFlJywgJ2xpZ2FuZF9wcmVwLm1hZScsICctbXMnLCAnMScsICctcGgnLCAnNycsICctcGh0JywgJzAuNScsICctbnQn

> <r_epik_Ionization_Penalty>
  0.1227

> <r_epik_Ionization_Penalty_Charging>
  0.1227

> <r_epik_Ionization_Penalty_Neutral>
  0.0000

> <r_epik_State_Penalty>
  0.1013

> <r_epik_Charging_Adjusted_Penalty>
0.223998050978494

> <i_epik_Tot_Q>
-3

> <i_epik_Tot_abs_Q>
5

$$$$
