3cpb_ligand
                    3D
 Schrodinger Suite 2020-3.
 53 55  0  0  1  0            999 V2000
   15.3430   41.1850   33.3450 C   0  0  0  0  0  0
   14.1250   41.7170   34.0900 C   0  0  0  0  0  0
   13.4890   40.4450   34.6370 C   0  0  0  0  0  0
   13.5520   39.5050   33.4370 C   0  0  0  0  0  0
   14.8210   39.9180   32.6670 C   0  0  0  0  0  0
   15.8800   38.8240   32.7780 C   0  0  0  0  0  0
   16.2110   38.3040   31.3820 C   0  0  0  0  0  0
   16.7000   36.9160   31.4470 N   0  0  0  0  0  0
   15.8810   35.8790   31.6190 C   0  0  0  0  0  0
   14.6640   35.9970   31.7310 O   0  0  0  0  0  0
   16.5210   34.4790   31.6580 C   0  0  0  0  0  0
   15.7170   33.3890   31.3290 C   0  0  0  0  0  0
   17.8580   34.2630   31.9990 C   0  0  0  0  0  0
   18.3700   32.9630   32.0060 C   0  0  0  0  0  0
   17.5560   31.8750   31.6800 C   0  0  0  0  0  0
   18.1530   30.4630   31.7000 C   0  0  0  0  0  0
   16.2160   32.0940   31.3490 C   0  0  0  0  0  0
   15.2590   30.9740   30.9490 C   0  0  0  0  0  0
   14.9920   30.8290   29.7590 O   0  0  0  0  0  0
   14.7630   30.2180   31.9330 N   0  0  0  0  0  0
   13.9060   29.2000   31.7200 C   0  0  0  0  0  0
   13.4990   28.8210   30.4370 C   0  0  0  0  0  0
   12.6090   27.7660   30.2850 C   0  0  0  0  0  0
   12.1450   27.1090   31.4220 C   0  0  0  0  0  0
   11.2970   26.0930   31.2940 N   0  0  0  0  0  0
   12.5470   27.4910   32.6470 N   0  0  0  0  0  0
   13.3940   28.4980   32.8140 C   0  0  0  0  0  0
   15.6863   41.9371   32.6194 H   0  0  0  0  0  0
   16.1489   40.9739   34.0633 H   0  0  0  0  0  0
   14.4522   42.4052   34.8833 H   0  0  0  0  0  0
   13.4702   42.2527   33.3869 H   0  0  0  0  0  0
   14.0737   40.0826   35.4954 H   0  0  0  0  0  0
   12.4592   40.6591   34.9590 H   0  0  0  0  0  0
   13.6132   38.4646   33.7890 H   0  0  0  0  0  0
   12.6476   39.6320   32.8238 H   0  0  0  0  0  0
   14.6076   40.0822   31.6005 H   0  0  0  0  0  0
   16.7871   39.2376   33.2430 H   0  0  0  0  0  0
   15.4934   38.0009   33.3969 H   0  0  0  0  0  0
   15.3072   38.3340   30.7557 H   0  0  0  0  0  0
   16.9907   38.9353   30.9309 H   0  0  0  0  0  0
   17.7758   36.7069   31.3524 H   0  0  0  0  0  0
   14.6766   33.5568   31.0507 H   0  0  0  0  0  0
   18.4994   35.1052   32.2586 H   0  0  0  0  0  0
   19.4147   32.7959   32.2683 H   0  0  0  0  0  0
   19.2142   30.5176   31.9843 H   0  0  0  0  0  0
   18.0639   30.0131   30.7002 H   0  0  0  0  0  0
   17.6092   29.8453   32.4299 H   0  0  0  0  0  0
   15.0515   30.4143   32.9762 H   0  0  0  0  0  0
   13.8777   29.3500   29.5624 H   0  0  0  0  0  0
   12.2792   27.4574   29.2930 H   0  0  0  0  0  0
   10.9649   25.7764   30.2943 H   0  0  0  0  0  0
   10.9275   25.5690   32.1878 H   0  0  0  0  0  0
   13.6957   28.7827   33.8220 H   0  0  0  0  0  0
  1  2  1  0  0  0
  1  5  1  0  0  0
  1 28  1  0  0  0
  1 29  1  0  0  0
  2  3  1  0  0  0
  2 30  1  0  0  0
  2 31  1  0  0  0
  3  4  1  0  0  0
  3 32  1  0  0  0
  3 33  1  0  0  0
  4  5  1  0  0  0
  4 34  1  0  0  0
  4 35  1  0  0  0
  5  6  1  0  0  0
  5 36  1  0  0  0
  6  7  1  0  0  0
  6 37  1  0  0  0
  6 38  1  0  0  0
  7  8  1  0  0  0
  7 39  1  0  0  0
  7 40  1  0  0  0
  8  9  1  0  0  0
  8 41  1  0  0  0
  9 10  2  0  0  0
  9 11  1  0  0  0
 11 12  2  0  0  0
 11 13  1  0  0  0
 12 17  1  0  0  0
 12 42  1  0  0  0
 13 14  2  0  0  0
 13 43  1  0  0  0
 14 15  1  0  0  0
 14 44  1  0  0  0
 15 16  1  0  0  0
 15 17  2  0  0  0
 16 45  1  0  0  0
 16 46  1  0  0  0
 16 47  1  0  0  0
 17 18  1  0  0  0
 18 19  2  0  0  0
 18 20  1  0  0  0
 20 21  1  0  0  0
 20 48  1  0  0  0
 21 22  2  0  0  0
 21 27  1  0  0  0
 22 23  1  0  0  0
 22 49  1  0  0  0
 23 24  2  0  0  0
 23 50  1  0  0  0
 24 25  1  0  0  0
 24 26  1  0  0  0
 25 51  1  0  0  0
 25 52  1  0  0  0
 26 27  2  0  0  0
 27 53  1  0  0  0
M  END
> <s_m_source_file>
../3cpb_ligand.sdf

> <i_m_source_file_index>
1

> <s_epik_input>
W0NIMl0xW0NIMl1bQ0gyXVtDSDJdW0NIXTFbQ0gyXVtDSDJdW05IXUMoPU8pYzJbY0hdYyhjKFtDSDNdKVtjSF1bY0hdMilDKD1PKVtOSF1jM1tjSF1bY0hdYyhbTkgyXSluW2NIXTM=

> <s_epik_cmdline>
J2VwaWtfYXBwJywgJy1pbWFlJywgJ2xpZ2FuZF9wcm8ubWFlJywgJy1vbWFlJywgJ2xpZ2FuZF9wcmVwLm1hZScsICctbXMnLCAnMScsICctcGgnLCAnNycsICctcGh0JywgJzAuNScsICctbnQn

> <r_lp_tautomer_probability>
0.999999772200052

> <r_epik_Ionization_Penalty>
  0.0135

> <r_epik_Ionization_Penalty_Charging>
  0.0000

> <r_epik_Ionization_Penalty_Neutral>
  0.0135

> <r_epik_State_Penalty>
  0.0104

> <r_epik_Charging_Adjusted_Penalty>
0.0104431883587807

> <i_epik_Tot_Q>
0

> <i_epik_Tot_abs_Q>
0

$$$$
