3cpc_ligand
                    3D
 Schrodinger Suite 2020-3.
 44 47  0  0  1  0            999 V2000
   14.3860   30.6050   32.3980 C   0  0  0  0  0  0
   13.4710   29.5970   32.0970 C   0  0  0  0  0  0
   13.1090   28.6440   33.0490 C   0  0  0  0  0  0
   12.2350   27.6940   32.7370 N   0  0  0  0  0  0
   11.6840   27.6400   31.5090 C   0  0  0  0  0  0
   10.8050   26.6800   31.2330 N   0  0  0  0  0  0
   12.0060   28.5490   30.5640 N   0  0  0  0  0  0
   12.8940   29.5300   30.8300 C   0  0  0  0  0  0
   13.2340   30.4780   29.8620 C   0  0  0  0  0  0
   14.1550   31.4860   30.1630 C   0  0  0  0  0  0
   14.7370   31.5550   31.4340 C   0  0  0  0  0  0
   15.6750   32.5600   31.7250 C   0  0  0  0  0  0
   15.2750   33.9020   31.8270 C   0  0  0  0  0  0
   14.0920   34.2010   31.6720 O   0  0  0  0  0  0
   17.0390   32.2370   31.9030 C   0  0  0  0  0  0
   17.5620   30.7990   31.8040 C   0  0  0  0  0  0
   17.9800   33.2280   32.1820 C   0  0  0  0  0  0
   17.5860   34.5580   32.2920 C   0  0  0  0  0  0
   16.2320   34.9150   32.1100 N   0  0  0  0  0  0
   15.8620   36.2750   32.2320 C   0  0  0  0  0  0
   14.8410   36.6400   33.1110 C   0  0  0  0  0  0
   16.5240   37.2660   31.4990 C   0  0  0  0  0  0
   16.1600   38.6090   31.6330 C   0  0  0  0  0  0
   15.1310   38.9610   32.5100 C   0  0  0  0  0  0
   14.4720   37.9760   33.2530 C   0  0  0  0  0  0
   13.3300   38.3640   34.2010 C   0  0  0  0  0  0
   13.7330   39.2520   35.0970 F   0  0  0  0  0  0
   12.3810   38.8860   33.4320 F   0  0  0  0  0  0
   12.8450   37.3140   34.8670 F   0  0  0  0  0  0
   14.8309   30.6528   33.3919 H   0  0  0  0  0  0
   13.5431   28.6790   34.0482 H   0  0  0  0  0  0
   10.5412   25.9384   32.0014 H   0  0  0  0  0  0
   10.3422   26.6280   30.2365 H   0  0  0  0  0  0
   12.7811   30.4319   28.8716 H   0  0  0  0  0  0
   14.4211   32.2217   29.4041 H   0  0  0  0  0  0
   16.7261   30.1193   31.5818 H   0  0  0  0  0  0
   18.0251   30.5107   32.7592 H   0  0  0  0  0  0
   18.3100   30.7354   31.0000 H   0  0  0  0  0  0
   19.0281   32.9596   32.3144 H   0  0  0  0  0  0
   18.3248   35.3265   32.5193 H   0  0  0  0  0  0
   14.3279   35.8732   33.6914 H   0  0  0  0  0  0
   17.3293   36.9889   30.8187 H   0  0  0  0  0  0
   16.6759   39.3770   31.0567 H   0  0  0  0  0  0
   14.8408   40.0064   32.6156 H   0  0  0  0  0  0
  1  2  2  0  0  0
  1 11  1  0  0  0
  1 30  1  0  0  0
  2  3  1  0  0  0
  2  8  1  0  0  0
  3  4  2  0  0  0
  3 31  1  0  0  0
  4  5  1  0  0  0
  5  6  1  0  0  0
  5  7  2  0  0  0
  6 32  1  0  0  0
  6 33  1  0  0  0
  7  8  1  0  0  0
  8  9  2  0  0  0
  9 10  1  0  0  0
  9 34  1  0  0  0
 10 11  2  0  0  0
 10 35  1  0  0  0
 11 12  1  0  0  0
 12 13  1  0  0  0
 12 15  2  0  0  0
 13 14  2  0  0  0
 13 19  1  0  0  0
 15 16  1  0  0  0
 15 17  1  0  0  0
 16 36  1  0  0  0
 16 37  1  0  0  0
 16 38  1  0  0  0
 17 18  2  0  0  0
 17 39  1  0  0  0
 18 19  1  0  0  0
 18 40  1  0  0  0
 19 20  1  0  0  0
 20 21  2  0  0  0
 20 22  1  0  0  0
 21 25  1  0  0  0
 21 41  1  0  0  0
 22 23  2  0  0  0
 22 42  1  0  0  0
 23 24  1  0  0  0
 23 43  1  0  0  0
 24 25  2  0  0  0
 24 44  1  0  0  0
 25 26  1  0  0  0
 26 27  1  0  0  0
 26 28  1  0  0  0
 26 29  1  0  0  0
M  END
> <s_m_source_file>
../3cpc_ligand.sdf

> <i_m_source_file_index>
1

> <s_epik_input>
W2NIXTFuYyhbTkgyXSluYyhjMTIpW2NIXVtjSF1jKFtjSF0yKS1jM2MoPU8pbihbY0hdW2NIXWMzW0NIM10pLWM0W2NIXWMoQyhGKShGKUYpW2NIXVtjSF1bY0hdNA==

> <s_epik_cmdline>
J2VwaWtfYXBwJywgJy1pbWFlJywgJ2xpZ2FuZF9wcm8ubWFlJywgJy1vbWFlJywgJ2xpZ2FuZF9wcmVwLm1hZScsICctbXMnLCAnMScsICctcGgnLCAnNycsICctcGh0JywgJzAuNScsICctbnQn

> <r_lp_tautomer_probability>
1

> <r_epik_Ionization_Penalty>
  0.0007

> <r_epik_Ionization_Penalty_Charging>
  0.0000

> <r_epik_Ionization_Penalty_Neutral>
  0.0007

> <r_epik_State_Penalty>
 -0.0000

> <r_epik_Charging_Adjusted_Penalty>
8.63663700488383e-07

> <i_epik_Tot_Q>
0

> <i_epik_Tot_abs_Q>
0

$$$$
