3cph_ligand
                    3D
 Schrodinger Suite 2020-3.
 40 42  0  0  1  0            999 V2000
   55.8240   19.1500    8.2690 P   0  0  0  0  0  0
   55.2450   19.7770    9.5060 O   0  0  0  0  0  0
   56.8460   18.0810    8.6000 O   0  5  0  0  0  0
   54.6370   18.5920    7.5160 O   0  5  0  0  0  0
   56.5280   20.3460    7.4560 O   0  0  0  0  0  0
   58.0270   20.2280    6.8870 P   0  0  1  0  0  0
   59.0590   20.2730    7.9890 O   0  0  0  0  0  0
   58.1490   18.9400    6.1000 O   0  5  0  0  0  0
   58.1970   21.5370    5.9560 O   0  0  0  0  0  0
   57.0570   22.2240    5.4150 C   0  0  0  0  0  0
   57.4010   23.3570    4.4340 C   0  0  1  0  0  0
   57.4280   24.6300    5.1040 O   0  0  0  0  0  0
   58.7550   23.1940    3.7620 C   0  0  1  0  0  0
   58.6830   23.6310    2.4100 O   0  0  0  0  0  0
   59.6710   24.0950    4.5470 C   0  0  1  0  0  0
   60.7310   24.6230    3.7450 O   0  0  0  0  0  0
   58.7450   25.1800    5.0800 C   0  0  2  0  0  0
   59.1590   25.5750    6.4380 N   0  0  0  0  0  0
   59.3490   24.7780    7.5050 C   0  0  0  0  0  0
   59.7410   25.5010    8.5910 N   0  0  0  0  0  0
   59.8070   26.7850    8.2150 C   0  0  0  0  0  0
   60.1520   28.0800    8.8490 C   0  0  0  0  0  0
   60.4900   28.1950   10.0490 O   0  0  0  0  0  0
   60.0810   29.1610    8.0720 N   0  3  0  0  0  0
   59.7180   29.1150    6.7680 C   0  0  0  0  0  0
   59.6680   30.2670    6.0500 N   0  0  0  0  0  0
   59.3930   27.9660    6.1300 N   0  0  0  0  0  0
   59.4240   26.8080    6.7930 C   0  0  0  0  0  0
   56.4236   21.5096    4.8687 H   0  0  0  0  0  0
   56.4781   22.6754    6.2342 H   0  0  0  0  0  0
   56.6012   23.3747    3.6790 H   0  0  0  0  0  0
   59.1081   22.1548    3.6893 H   0  0  0  0  0  0
   58.0559   23.0866    1.6887 H   0  0  0  0  0  0
   60.2471   23.5705    5.3235 H   0  0  0  0  0  0
   61.4724   23.9447    3.2976 H   0  0  0  0  0  0
   58.7282   26.0875    4.4586 H   0  0  0  0  0  0
   59.2080   23.6972    7.5011 H   0  0  0  0  0  0
   59.9238   31.2243    6.5276 H   0  0  0  0  0  0
   59.3717   30.2426    4.9909 H   0  0  0  0  0  0
   60.3237   30.1515    8.4842 H   0  0  0  0  0  0
  1  2  2  0  0  0
  1  3  1  0  0  0
  1  4  1  0  0  0
  1  5  1  0  0  0
  5  6  1  0  0  0
  6  7  2  0  0  0
  6  8  1  0  0  0
  6  9  1  0  0  0
  9 10  1  0  0  0
 10 11  1  0  0  0
 10 29  1  0  0  0
 10 30  1  0  0  0
 11 12  1  0  0  0
 11 13  1  0  0  0
 11 31  1  0  0  0
 12 17  1  0  0  0
 13 14  1  0  0  0
 13 15  1  0  0  0
 13 32  1  0  0  0
 14 33  1  0  0  0
 15 16  1  0  0  0
 15 17  1  0  0  0
 15 34  1  0  0  0
 16 35  1  0  0  0
 17 18  1  0  0  0
 17 36  1  0  0  0
 18 19  1  0  0  0
 18 28  1  0  0  0
 19 20  2  0  0  0
 19 37  1  0  0  0
 20 21  1  0  0  0
 21 22  1  0  0  0
 21 28  2  0  0  0
 22 23  2  0  0  0
 22 24  1  0  0  0
 24 25  1  0  0  0
 24 40  1  0  0  0
 25 26  1  0  0  0
 25 27  2  0  0  0
 26 38  1  0  0  0
 26 39  1  0  0  0
 27 28  1  0  0  0
M  CHG  4   3  -1   4  -1   8  -1  24   1
M  END
> <s_m_source_file>
../3cph_ligand.sdf

> <i_m_source_file_index>
1

> <s_epik_input>
Tz1QKFtPSF0pKFtPSF0pT1tQQEBdKD1PKShbT0hdKU9bQ0gyXVtDQEhdMU9bQ0BIXShbQ0BIXShbT0hdKVtDQEBIXTFbT0hdKW4oW2NIXW4yKWMoYzIzKVtuSF1jKD1OXFtIXSlcW25IXWMzPU8=

> <s_epik_cmdline>
J2VwaWtfYXBwJywgJy1pbWFlJywgJ2xpZ2FuZF9wcm8ubWFlJywgJy1vbWFlJywgJ2xpZ2FuZF9wcmVwLm1hZScsICctbXMnLCAnMScsICctcGgnLCAnNycsICctcGh0JywgJzAuNScsICctbnQn

> <r_epik_Ionization_Penalty>
  2.4918

> <r_epik_Ionization_Penalty_Charging>
  2.4918

> <r_epik_Ionization_Penalty_Neutral>
  0.0000

> <r_epik_State_Penalty>
  0.1302

> <r_epik_Charging_Adjusted_Penalty>
2.62193179535438

> <i_epik_Tot_Q>
-2

> <i_epik_Tot_abs_Q>
4

> <s_epik_Chemistry_Notes>
This compound has an imine and may undergo hydrolysis. This compound contains an acetal/aminal-like group ( X-CH(R)-Y where X, Y are N, S, or O) that may be acid/base labile, releasing an aldehyde.

$$$$
