3cpj_ligand
                    3D
 Schrodinger Suite 2020-3.
 40 42  0  0  1  0            999 V2000
  -17.8080   39.4730   17.1230 P   0  0  0  0  0  0
  -16.4780   40.0850   16.7450 O   0  0  0  0  0  0
  -18.2270   38.5030   16.0320 O   0  5  0  0  0  0
  -17.6570   38.7640   18.4510 O   0  5  0  0  0  0
  -18.9250   40.6380   17.2650 O   0  0  0  0  0  0
  -19.0210   41.6630   18.5090 P   0  0  1  0  0  0
  -20.0610   41.1990   19.5010 O   0  0  0  0  0  0
  -17.6860   41.8550   19.1910 O   0  5  0  0  0  0
  -19.5190   43.0260   17.8100 O   0  0  0  0  0  0
  -18.6600   44.1550   17.6290 C   0  0  0  0  0  0
  -19.4860   45.4390   17.5500 C   0  0  1  0  0  0
  -20.6670   45.2320   16.7610 O   0  0  0  0  0  0
  -19.9320   45.9020   18.9330 C   0  0  1  0  0  0
  -19.5450   47.2650   19.1500 O   0  0  0  0  0  0
  -21.4430   45.7560   18.9300 C   0  0  1  0  0  0
  -22.1020   46.8340   19.6110 O   0  0  0  0  0  0
  -21.8170   45.7210   17.4550 C   0  0  2  0  0  0
  -23.0060   44.8530   17.2520 N   0  0  0  0  0  0
  -23.0650   43.5210   17.4480 C   0  0  0  0  0  0
  -24.3050   43.0400   17.1780 N   0  0  0  0  0  0
  -25.0730   44.0790   16.8010 C   0  0  0  0  0  0
  -26.4870   44.2730   16.3750 C   0  0  0  0  0  0
  -27.2860   43.3120   16.3020 O   0  0  0  0  0  0
  -26.8810   45.5180   16.0610 N   0  3  0  0  0  0
  -26.0490   46.5840   16.1240 C   0  0  0  0  0  0
  -26.5370   47.8070   15.7920 N   0  0  0  0  0  0
  -24.7420   46.4790   16.5070 N   0  0  0  0  0  0
  -24.2100   45.2760   16.8510 C   0  0  0  0  0  0
  -17.9641   44.2261   18.4779 H   0  0  0  0  0  0
  -18.0894   44.0358   16.6961 H   0  0  0  0  0  0
  -18.8853   46.2100   17.0453 H   0  0  0  0  0  0
  -19.4501   45.3660   19.7640 H   0  0  0  0  0  0
  -18.4793   47.5361   19.1795 H   0  0  0  0  0  0
  -21.7921   44.8875   19.5078 H   0  0  0  0  0  0
  -21.9321   46.9908   20.6864 H   0  0  0  0  0  0
  -22.0658   46.7028   17.0258 H   0  0  0  0  0  0
  -22.2260   42.9095   17.7801 H   0  0  0  0  0  0
  -27.5866   47.9144   15.4808 H   0  0  0  0  0  0
  -25.8827   48.6903   15.8343 H   0  0  0  0  0  0
  -27.9161   45.7021   15.7374 H   0  0  0  0  0  0
  1  2  2  0  0  0
  1  3  1  0  0  0
  1  4  1  0  0  0
  1  5  1  0  0  0
  5  6  1  0  0  0
  6  7  2  0  0  0
  6  8  1  0  0  0
  6  9  1  0  0  0
  9 10  1  0  0  0
 10 11  1  0  0  0
 10 29  1  0  0  0
 10 30  1  0  0  0
 11 12  1  0  0  0
 11 13  1  0  0  0
 11 31  1  0  0  0
 12 17  1  0  0  0
 13 14  1  0  0  0
 13 15  1  0  0  0
 13 32  1  0  0  0
 14 33  1  0  0  0
 15 16  1  0  0  0
 15 17  1  0  0  0
 15 34  1  0  0  0
 16 35  1  0  0  0
 17 18  1  0  0  0
 17 36  1  0  0  0
 18 19  1  0  0  0
 18 28  1  0  0  0
 19 20  2  0  0  0
 19 37  1  0  0  0
 20 21  1  0  0  0
 21 22  1  0  0  0
 21 28  2  0  0  0
 22 23  2  0  0  0
 22 24  1  0  0  0
 24 25  1  0  0  0
 24 40  1  0  0  0
 25 26  1  0  0  0
 25 27  2  0  0  0
 26 38  1  0  0  0
 26 39  1  0  0  0
 27 28  1  0  0  0
M  CHG  4   3  -1   4  -1   8  -1  24   1
M  END
> <s_m_source_file>
../3cpj_ligand.sdf

> <i_m_source_file_index>
1

> <s_epik_input>
Tz1QKFtPSF0pKFtPSF0pT1tQQEBdKD1PKShbT0hdKU9bQ0gyXVtDQEhdMU9bQ0BIXShbQ0BIXShbT0hdKVtDQEBIXTFbT0hdKW4oW2NIXW4yKWMoYzIzKVtuSF1jKD1OXFtIXSlcW25IXWMzPU8=

> <s_epik_cmdline>
J2VwaWtfYXBwJywgJy1pbWFlJywgJ2xpZ2FuZF9wcm8ubWFlJywgJy1vbWFlJywgJ2xpZ2FuZF9wcmVwLm1hZScsICctbXMnLCAnMScsICctcGgnLCAnNycsICctcGh0JywgJzAuNScsICctbnQn

> <r_epik_Ionization_Penalty>
  2.4918

> <r_epik_Ionization_Penalty_Charging>
  2.4918

> <r_epik_Ionization_Penalty_Neutral>
  0.0000

> <r_epik_State_Penalty>
  0.1302

> <r_epik_Charging_Adjusted_Penalty>
2.62193179535438

> <i_epik_Tot_Q>
-2

> <i_epik_Tot_abs_Q>
4

> <s_epik_Chemistry_Notes>
This compound has an imine and may undergo hydrolysis. This compound contains an acetal/aminal-like group ( X-CH(R)-Y where X, Y are N, S, or O) that may be acid/base labile, releasing an aldehyde.

$$$$
