3cqu_ligand
                    3D
 Schrodinger Suite 2020-3.
 33 36  0  0  1  0            999 V2000
    4.9390    3.9800   17.4130 N   0  0  0  0  0  0
    6.0130    4.5650   18.1050 C   0  0  0  0  0  0
    2.3590    2.4730   16.3870 C   0  0  0  0  0  0
    6.3450    5.9000   18.0010 C   0  0  0  0  0  0
    6.5670    0.2390   19.8470 C   0  0  0  0  0  0
    2.6400    6.5180   16.2000 C   0  0  0  0  0  0
    7.3870    6.4430   18.7080 C   0  0  0  0  0  0
    8.1690    5.6720   19.5160 C   0  0  0  0  0  0
    6.8740   -0.8950   20.7590 C   0  0  0  0  0  0
    7.0080    1.4850   20.1000 N   0  0  0  0  0  0
    5.8760    0.2380   18.7270 N   0  0  0  0  0  0
    5.8840    1.4720   18.2900 N   0  0  0  0  0  0
    6.5580    2.2810   19.0950 C   0  0  3  0  0  0
    6.7990    3.7510   18.9540 C   0  0  0  0  0  0
    7.8620    4.3360   19.6360 C   0  0  0  0  0  0
    3.8220    4.6370   16.8820 C   0  0  0  0  0  0
    2.6960    3.8720   16.4190 C   0  0  0  0  0  0
    1.5760    4.5290   15.8360 C   0  0  3  0  0  0
    0.6620    3.5870   15.5230 N   0  0  0  0  0  0
    1.1290    2.3520   15.8560 C   0  0  0  0  0  0
    1.5900    5.8560   15.7640 N   0  0  0  0  0  0
    3.7020    5.9600   16.7740 N   0  0  0  0  0  0
    3.0737    1.7264   16.7634 H   0  0  0  0  0  0
    5.7630    6.5408   17.3386 H   0  0  0  0  0  0
    2.6801    7.6128   16.1008 H   0  0  0  0  0  0
    7.5937    7.5098   18.6225 H   0  0  0  0  0  0
    9.0146    6.1023   20.0525 H   0  0  0  0  0  0
    7.4720   -0.7247   21.6664 H   0  0  0  0  0  0
    6.5030   -1.9040   20.5261 H   0  0  0  0  0  0
    8.4735    3.7132   20.2889 H   0  0  0  0  0  0
    0.5090    1.4619   15.6734 H   0  0  0  0  0  0
    7.6147    1.6823   20.9961 H   0  0  0  0  0  0
    4.5078    6.5935   17.1733 H   0  0  0  0  0  0
  1  2  1  0  0  0
  1 16  2  0  0  0
  2  4  2  0  0  0
  2 14  1  0  0  0
  3 17  2  0  0  0
  3 20  1  0  0  0
  3 23  1  0  0  0
  4  7  1  0  0  0
  4 24  1  0  0  0
  5  9  2  0  0  0
  5 10  1  0  0  0
  5 11  1  0  0  0
  6 21  2  0  0  0
  6 22  1  0  0  0
  6 25  1  0  0  0
  7  8  2  0  0  0
  7 26  1  0  0  0
  8 15  1  0  0  0
  8 27  1  0  0  0
  9 28  1  0  0  0
  9 29  1  0  0  0
 10 13  1  0  0  0
 10 32  1  0  0  0
 11 12  2  0  0  0
 12 13  1  0  0  0
 13 14  1  0  0  0
 14 15  2  0  0  0
 15 30  1  0  0  0
 16 17  1  0  0  0
 16 22  1  0  0  0
 17 18  1  0  0  0
 18 19  1  0  0  0
 18 21  1  0  0  0
 19 20  2  0  0  0
 20 31  1  0  0  0
 22 33  1  0  0  0
M  END
> <s_m_source_file>
../3cqu_ligand.sdf

> <i_m_source_file_index>
1

> <s_epik_input>
W0NIXT0xW0NIXT1OW0NIXShDMTIpTj1bQ0hdTj1DMltOSF1jM1tjSF1bY0hdW2NIXVtjSF1jM1tDSF0oTj1ONClOPUM0W0NIM10=

> <s_epik_cmdline>
J2VwaWtfYXBwJywgJy1pbWFlJywgJ2xpZ2FuZF9wcm8ubWFlJywgJy1vbWFlJywgJ2xpZ2FuZF9wcmVwLm1hZScsICctbXMnLCAnMScsICctcGgnLCAnNycsICctcGh0JywgJzAuNScsICctbnQn

> <r_epik_Ionization_Penalty>
 11.0867

> <r_epik_Ionization_Penalty_Charging>
  0.0000

> <r_epik_Ionization_Penalty_Neutral>
 11.0867

> <r_epik_State_Penalty>
  0.0129

> <r_epik_Charging_Adjusted_Penalty>
0.0129318304302254

> <i_epik_Tot_Q>
0

> <i_epik_Tot_abs_Q>
0

> <s_epik_Chemistry_Notes>
This compound has an imine and may undergo hydrolysis.

$$$$
