3cqw_ligand
                    3D
 Schrodinger Suite 2020-3.
 30 33  0  0  1  0            999 V2000
    3.5050    3.6640   15.7790 C   0  0  0  0  0  0
    4.6600    5.6530   16.1330 C   0  0  0  0  0  0
    4.6550    2.8970   16.0700 C   0  0  0  0  0  0
    8.1540    3.3920   19.3700 C   0  0  0  0  0  0
    2.4620    2.7910   15.5040 N   0  0  0  0  0  0
    8.4480    4.4160   18.3160 C   0  0  0  0  0  0
    5.1890    0.0340   16.0180 Cl  0  0  0  0  0  0
    4.2380    1.4870   15.8800 C   0  0  3  0  0  0
    2.9290    1.5050   15.5760 C   0  0  0  0  0  0
    3.5360    4.9980   15.8130 N   0  0  0  0  0  0
    5.8100    3.6280   16.4240 C   0  0  0  0  0  0
    5.7690    4.9660   16.3990 N   0  0  0  0  0  0
    7.0580    3.0390   16.7200 N   0  0  0  0  0  0
    7.1640    1.8790   17.6360 C   0  0  0  0  0  0
    7.5980    2.2150   19.0420 C   0  0  0  0  0  0
    7.6210    1.4130   20.1620 N   0  3  0  0  0  0
    8.1940    2.0980   21.1470 C   0  0  0  0  0  0
    8.5560    3.3120   20.6860 N   0  3  0  0  0  0
    8.2690    3.8790   16.8780 C   0  0  0  0  0  0
    4.6665    6.7422   16.1753 H   0  0  0  0  0  0
    7.7687    5.2726   18.4374 H   0  0  0  0  0  0
    9.4891    4.7566   18.4160 H   0  0  0  0  0  0
    2.2473    0.6613   15.3934 H   0  0  0  0  0  0
    6.1842    1.3857   17.7178 H   0  0  0  0  0  0
    7.9018    1.1655   17.2403 H   0  0  0  0  0  0
    8.3923    1.8258   22.1942 H   0  0  0  0  0  0
    8.1829    4.7241   16.1791 H   0  0  0  0  0  0
    9.1396    3.2647   16.6050 H   0  0  0  0  0  0
    9.0756    4.0195   21.3489 H   0  0  0  0  0  0
    7.2036    0.3962   20.1190 H   0  0  0  0  0  0
  1  3  2  0  0  0
  1  5  1  0  0  0
  1 10  1  0  0  0
  2 10  2  0  0  0
  2 12  1  0  0  0
  2 20  1  0  0  0
  3  8  1  0  0  0
  3 11  1  0  0  0
  4  6  1  0  0  0
  4 15  2  0  0  0
  4 18  1  0  0  0
  5  9  2  0  0  0
  6 19  1  0  0  0
  6 21  1  0  0  0
  6 22  1  0  0  0
  7  8  1  0  0  0
  8  9  1  0  0  0
  9 23  1  0  0  0
 11 12  2  0  0  0
 11 13  1  0  0  0
 13 14  1  0  0  0
 13 19  1  0  0  0
 14 15  1  0  0  0
 14 24  1  0  0  0
 14 25  1  0  0  0
 15 16  1  0  0  0
 16 17  1  0  0  0
 16 30  1  0  0  0
 17 18  2  0  0  0
 17 26  1  0  0  0
 18 29  1  0  0  0
 19 27  1  0  0  0
 19 28  1  0  0  0
M  CHG  2  16   1  18   1
M  END
> <s_m_source_file>
../3cqw_ligand.sdf

> <i_m_source_file_index>
1

> <s_epik_input>
TjE9W0NIXVtDSF0oQ2wpYyhjMTIpYyhuW2NIXW4yKU4oW0NIMl1bQ0gyXTMpW0NIMl1jKGMzNClbbkhdW2NIXW40

> <s_epik_cmdline>
J2VwaWtfYXBwJywgJy1pbWFlJywgJ2xpZ2FuZF9wcm8ubWFlJywgJy1vbWFlJywgJ2xpZ2FuZF9wcmVwLm1hZScsICctbXMnLCAnMScsICctcGgnLCAnNycsICctcGh0JywgJzAuNScsICctbnQn

> <r_lp_tautomer_probability>
1

> <r_epik_Ionization_Penalty>
 17.1007

> <r_epik_Ionization_Penalty_Charging>
 17.1002

> <r_epik_Ionization_Penalty_Neutral>
  0.0005

> <r_epik_State_Penalty>
 -0.0000

> <r_epik_Charging_Adjusted_Penalty>
17.1001843041273

> <i_epik_Tot_Q>
2

> <i_epik_Tot_abs_Q>
2

> <s_epik_Chemistry_Notes>
This compound has an imine and may undergo hydrolysis.

$$$$
