3cr4_ligand
                    3D
 Schrodinger Suite 2020-3.
 51 52  0  0  1  0            999 V2000
   -0.6780    2.6850   23.7370 C   0  0  0  0  0  0
   -1.6280    2.8480   22.7270 C   0  0  0  0  0  0
   -2.6650    1.9220   22.5850 C   0  0  0  0  0  0
   -2.7640    0.8270   23.4510 C   0  0  0  0  0  0
   -1.8120    0.6740   24.4580 C   0  0  0  0  0  0
   -0.7760    1.5950   24.6030 C   0  0  0  0  0  0
    1.6440    3.1500   24.2990 C   0  0  0  0  0  0
    2.7330    4.1850   24.0160 C   0  0  0  0  0  0
   -3.8870   -0.1740   23.3110 C   0  0  0  0  0  0
    4.0840    3.5120   23.7730 C   0  0  0  0  0  0
    3.6500   -0.4240   25.0580 C   0  0  0  0  0  0
    4.6000   -1.2790   25.6070 C   0  0  0  0  0  0
    4.2400   -2.5490   26.0450 C   0  0  0  0  0  0
    2.9190   -2.9780   25.9480 C   0  0  0  0  0  0
    1.9600   -2.1250   25.3960 C   0  0  0  0  0  0
    2.3250   -0.8530   24.9510 C   0  0  0  0  0  0
    5.0640    1.6080   25.1700 C   0  0  0  0  0  0
    4.7660    3.1060   25.0790 C   0  0  0  0  0  0
    2.5490   -4.3540   26.4330 C   0  0  0  0  0  0
    0.3480    3.5930   23.8780 O   0  0  0  0  0  0
    3.9990    0.8300   24.6110 O   0  0  0  0  0  0
   -3.8740   -1.2600   23.9530 N   0  3  0  0  0  0
   -4.9100    0.0700   22.4910 N   0  0  0  0  0  0
    3.4020   -5.2810   26.4160 N   0  3  0  0  0  0
    1.3230   -4.6090   26.8900 N   0  0  0  0  0  0
   -1.5608    3.6984   22.0485 H   0  0  0  0  0  0
   -3.4027    2.0536   21.7934 H   0  0  0  0  0  0
   -1.8786   -0.1746   25.1389 H   0  0  0  0  0  0
   -0.0396    1.4635   25.3958 H   0  0  0  0  0  0
    1.8756    2.2180   23.7625 H   0  0  0  0  0  0
    1.6004    2.9498   25.3797 H   0  0  0  0  0  0
    2.4636    4.7653   23.1212 H   0  0  0  0  0  0
    2.8279    4.8624   24.8775 H   0  0  0  0  0  0
    3.9385    2.6062   23.1661 H   0  0  0  0  0  0
    4.7495    4.2073   23.2403 H   0  0  0  0  0  0
    5.6357   -0.9508   25.6947 H   0  0  0  0  0  0
    4.9958   -3.2118   26.4663 H   0  0  0  0  0  0
    0.9240   -2.4535   25.3125 H   0  0  0  0  0  0
    1.5735   -0.1924   24.5186 H   0  0  0  0  0  0
    5.9882    1.3838   24.6173 H   0  0  0  0  0  0
    5.1892    1.3225   26.2249 H   0  0  0  0  0  0
    5.7235    3.6392   25.1738 H   0  0  0  0  0  0
    4.1163    3.3653   25.9280 H   0  0  0  0  0  0
   -3.0416   -1.4853   24.6359 H   0  0  0  0  0  0
   -4.9451    1.0094   21.9198 H   0  0  0  0  0  0
   -5.7187   -0.6682   22.3858 H   0  0  0  0  0  0
    4.4180   -5.0867   26.0419 H   0  0  0  0  0  0
    0.5668   -3.8104   26.9114 H   0  0  0  0  0  0
    1.0675   -5.6180   27.2457 H   0  0  0  0  0  0
   -4.6951   -1.9816   23.8299 H   0  0  0  0  0  0
    3.1307   -6.2847   26.7752 H   0  0  0  0  0  0
  1  2  2  0  0  0
  1  6  1  0  0  0
  1 20  1  0  0  0
  2  3  1  0  0  0
  2 26  1  0  0  0
  3  4  2  0  0  0
  3 27  1  0  0  0
  4  5  1  0  0  0
  4  9  1  0  0  0
  5  6  2  0  0  0
  5 28  1  0  0  0
  6 29  1  0  0  0
  7  8  1  0  0  0
  7 20  1  0  0  0
  7 30  1  0  0  0
  7 31  1  0  0  0
  8 10  1  0  0  0
  8 32  1  0  0  0
  8 33  1  0  0  0
  9 22  2  0  0  0
  9 23  1  0  0  0
 10 18  1  0  0  0
 10 34  1  0  0  0
 10 35  1  0  0  0
 11 12  2  0  0  0
 11 16  1  0  0  0
 11 21  1  0  0  0
 12 13  1  0  0  0
 12 36  1  0  0  0
 13 14  2  0  0  0
 13 37  1  0  0  0
 14 15  1  0  0  0
 14 19  1  0  0  0
 15 16  2  0  0  0
 15 38  1  0  0  0
 16 39  1  0  0  0
 17 18  1  0  0  0
 17 21  1  0  0  0
 17 40  1  0  0  0
 17 41  1  0  0  0
 18 42  1  0  0  0
 18 43  1  0  0  0
 19 24  2  0  0  0
 19 25  1  0  0  0
 22 44  1  0  0  0
 22 50  1  0  0  0
 23 45  1  0  0  0
 23 46  1  0  0  0
 24 47  1  0  0  0
 24 51  1  0  0  0
 25 48  1  0  0  0
 25 49  1  0  0  0
M  CHG  2  22   1  24   1
M  END
> <s_m_source_file>
../3cr4_ligand.sdf

> <i_m_source_file_index>
1

> <s_epik_input>
W0hdXE49QyhbTkgyXSlcYyhbY0hdW2NIXTEpW2NIXVtjSF1jMU9bQ0gyXVtDSDJdW0NIMl1bQ0gyXVtDSDJdT2MyW2NIXVtjSF1jKFtjSF1bY0hdMikvQyg9TlxbSF0pW05IMl0=

> <s_epik_cmdline>
J2VwaWtfYXBwJywgJy1pbWFlJywgJ2xpZ2FuZF9wcm8ubWFlJywgJy1vbWFlJywgJ2xpZ2FuZF9wcmVwLm1hZScsICctbXMnLCAnMScsICctcGgnLCAnNycsICctcGh0JywgJzAuNScsICctbnQn

> <r_lp_tautomer_probability>
1

> <r_epik_Ionization_Penalty>
  0.0002

> <r_epik_Ionization_Penalty_Charging>
  0.0002

> <r_epik_Ionization_Penalty_Neutral>
  0.0000

> <r_epik_State_Penalty>
 -0.0000

> <r_epik_Charging_Adjusted_Penalty>
0.000150897695684095

> <i_epik_Tot_Q>
2

> <i_epik_Tot_abs_Q>
2

> <s_epik_Chemistry_Notes>
This compound has an imine and may undergo hydrolysis.

$$$$
