3cr5_ligand
                    3D
 Schrodinger Suite 2020-3.
 51 52  0  0  1  0            999 V2000
   -0.9960    2.6430   24.6340 C   0  0  0  0  0  0
    0.1760    2.0610   25.0990 C   0  0  0  0  0  0
    1.1700    2.7980   25.7200 C   0  0  0  0  0  0
    0.9830    4.1570   25.8680 C   0  0  0  0  0  0
   -0.1850    4.7470   25.4200 C   0  0  0  0  0  0
   -1.1710    4.0020   24.8010 C   0  0  0  0  0  0
   -1.9160    0.5670   23.7800 C   0  0  0  0  0  0
   -0.4840    0.1840   23.4410 C   0  0  0  0  0  0
    2.0030    5.0230   26.5260 C   0  0  0  0  0  0
   -0.0820   -0.9680   24.3350 C   0  0  0  0  0  0
    2.5740   -0.7960   25.4770 C   0  0  0  0  0  0
    2.1530    0.4910   25.1540 C   0  0  0  0  0  0
    2.9650    1.4050   24.5010 C   0  0  0  0  0  0
    4.2500    1.0190   24.1880 C   0  0  0  0  0  0
    4.6860   -0.2590   24.5000 C   0  0  0  0  0  0
    3.8600   -1.1680   25.1410 C   0  0  0  0  0  0
    0.5610   -1.3430   26.7270 C   0  0  0  0  0  0
   -0.3460   -0.5820   25.7790 C   0  0  0  0  0  0
    5.2020    1.9300   23.4860 C   0  0  0  0  0  0
   -1.9970    1.9450   24.0130 O   0  0  0  0  0  0
    1.7710   -1.7140   26.1100 O   0  0  0  0  0  0
    3.2320    4.8420   26.3310 N   0  3  0  0  0  0
    1.6040    6.0190   27.3130 N   0  0  0  0  0  0
    5.1430    3.1870   23.5860 N   0  3  0  0  0  0
    6.1400    1.3680   22.7250 N   0  0  0  0  0  0
    0.3181    0.9879   24.9708 H   0  0  0  0  0  0
    2.0780    2.3165   26.0831 H   0  0  0  0  0  0
   -0.3305    5.8185   25.5575 H   0  0  0  0  0  0
   -2.0817    4.4849   24.4467 H   0  0  0  0  0  0
   -2.5752    0.3012   22.9405 H   0  0  0  0  0  0
   -2.2362    0.0265   24.6829 H   0  0  0  0  0  0
   -0.4253   -0.1174   22.3847 H   0  0  0  0  0  0
    0.1768    1.0463   23.6135 H   0  0  0  0  0  0
   -0.6724   -1.8585   24.0734 H   0  0  0  0  0  0
    0.9877   -1.1837   24.1965 H   0  0  0  0  0  0
    1.1416    0.7928   25.4262 H   0  0  0  0  0  0
    2.5983    2.3985   24.2431 H   0  0  0  0  0  0
    5.7010   -0.5555   24.2353 H   0  0  0  0  0  0
    4.2226   -2.1683   25.3779 H   0  0  0  0  0  0
    0.7966   -0.7107   27.5957 H   0  0  0  0  0  0
    0.0524   -2.2574   27.0662 H   0  0  0  0  0  0
   -0.1644    0.4950   25.9097 H   0  0  0  0  0  0
   -1.3910   -0.8113   26.0347 H   0  0  0  0  0  0
    3.5709    4.0211   25.6819 H   0  0  0  0  0  0
    0.5309    6.1847   27.4892 H   0  0  0  0  0  0
    2.3472    6.6767   27.7874 H   0  0  0  0  0  0
    4.3693    3.6531   24.2138 H   0  0  0  0  0  0
    6.1932    0.2729   22.6365 H   0  0  0  0  0  0
    6.8613    1.9991   22.1852 H   0  0  0  0  0  0
    3.9682    5.5046   26.8095 H   0  0  0  0  0  0
    5.8653    3.8163   23.0453 H   0  0  0  0  0  0
  1  2  2  0  0  0
  1  6  1  0  0  0
  1 20  1  0  0  0
  2  3  1  0  0  0
  2 26  1  0  0  0
  3  4  2  0  0  0
  3 27  1  0  0  0
  4  5  1  0  0  0
  4  9  1  0  0  0
  5  6  2  0  0  0
  5 28  1  0  0  0
  6 29  1  0  0  0
  7  8  1  0  0  0
  7 20  1  0  0  0
  7 30  1  0  0  0
  7 31  1  0  0  0
  8 10  1  0  0  0
  8 32  1  0  0  0
  8 33  1  0  0  0
  9 22  2  0  0  0
  9 23  1  0  0  0
 10 18  1  0  0  0
 10 34  1  0  0  0
 10 35  1  0  0  0
 11 12  2  0  0  0
 11 16  1  0  0  0
 11 21  1  0  0  0
 12 13  1  0  0  0
 12 36  1  0  0  0
 13 14  2  0  0  0
 13 37  1  0  0  0
 14 15  1  0  0  0
 14 19  1  0  0  0
 15 16  2  0  0  0
 15 38  1  0  0  0
 16 39  1  0  0  0
 17 18  1  0  0  0
 17 21  1  0  0  0
 17 40  1  0  0  0
 17 41  1  0  0  0
 18 42  1  0  0  0
 18 43  1  0  0  0
 19 24  2  0  0  0
 19 25  1  0  0  0
 22 44  1  0  0  0
 22 50  1  0  0  0
 23 45  1  0  0  0
 23 46  1  0  0  0
 24 47  1  0  0  0
 24 51  1  0  0  0
 25 48  1  0  0  0
 25 49  1  0  0  0
M  CHG  2  22   1  24   1
M  END
> <s_m_source_file>
../3cr5_ligand.sdf

> <i_m_source_file_index>
1

> <s_epik_input>
W0hdXE49QyhbTkgyXSlcYyhbY0hdW2NIXTEpW2NIXVtjSF1jMU9bQ0gyXVtDSDJdW0NIMl1bQ0gyXVtDSDJdT2MyW2NIXVtjSF1jKFtjSF1bY0hdMikvQyg9TlxbSF0pW05IMl0=

> <s_epik_cmdline>
J2VwaWtfYXBwJywgJy1pbWFlJywgJ2xpZ2FuZF9wcm8ubWFlJywgJy1vbWFlJywgJ2xpZ2FuZF9wcmVwLm1hZScsICctbXMnLCAnMScsICctcGgnLCAnNycsICctcGh0JywgJzAuNScsICctbnQn

> <r_lp_tautomer_probability>
1

> <r_epik_Ionization_Penalty>
  0.0002

> <r_epik_Ionization_Penalty_Charging>
  0.0002

> <r_epik_Ionization_Penalty_Neutral>
  0.0000

> <r_epik_State_Penalty>
 -0.0000

> <r_epik_Charging_Adjusted_Penalty>
0.000150897695684095

> <i_epik_Tot_Q>
2

> <i_epik_Tot_abs_Q>
2

> <s_epik_Chemistry_Notes>
This compound has an imine and may undergo hydrolysis.

$$$$
