3cs8_ligand
                    3D
 Schrodinger Suite 2020-3.
201202  0  0  1  0            999 V2000
   28.3650  -20.7720   19.3230 N   0  3  0  0  0  0
   27.4710  -19.9700   18.4990 C   0  0  2  0  0  0
   26.0260  -19.7530   18.9980 C   0  0  0  0  0  0
   25.3780  -18.8000   18.5800 O   0  0  0  0  0  0
   27.5350  -20.7220   17.1760 C   0  0  0  0  0  0
   29.0380  -21.0420   17.0710 C   0  0  0  0  0  0
   29.5530  -21.1640   18.5270 C   0  0  0  0  0  0
   25.5680  -20.6040   19.9110 N   0  0  0  0  0  0
   24.2000  -20.6130   20.4470 C   0  0  2  0  0  0
   23.2580  -19.4400   20.1610 C   0  0  0  0  0  0
   22.3520  -19.5800   19.3490 O   0  0  0  0  0  0
   24.2240  -20.9510   21.9410 C   0  0  0  0  0  0
   24.5000  -22.3310   22.1100 O   0  0  0  0  0  0
   23.4570  -18.2940   20.8020 N   0  0  0  0  0  0
   22.4340  -17.2290   20.7860 C   0  0  2  0  0  0
   22.4750  -16.3620   19.5200 C   0  0  0  0  0  0
   21.4360  -16.0410   18.9400 O   0  0  0  0  0  0
   22.5600  -16.3710   22.0360 C   0  0  0  0  0  0
   21.3430  -16.1020   22.9150 C   0  0  0  0  0  0
   20.4560  -17.3390   23.1620 C   0  0  0  0  0  0
   21.8160  -15.5200   24.2400 C   0  0  0  0  0  0
   23.6870  -16.0000   19.1060 N   0  0  0  0  0  0
   23.9390  -15.3650   17.8210 C   0  0  2  0  0  0
   23.4460  -16.2330   16.6730 C   0  0  0  0  0  0
   22.8140  -15.7320   15.7680 O   0  0  0  0  0  0
   25.4350  -15.0510   17.6300 C   0  0  0  0  0  0
   26.0060  -13.7710   18.2550 C   0  0  0  0  0  0
   27.5030  -13.6370   17.9330 C   0  0  0  0  0  0
   25.2550  -12.5430   17.7910 C   0  0  0  0  0  0
   23.7380  -17.5290   16.7150 N   0  0  0  0  0  0
   23.1490  -18.4540   15.7580 C   0  0  2  0  0  0
   21.6460  -18.2990   15.6960 C   0  0  0  0  0  0
   21.0810  -18.1760   14.6190 O   0  0  0  0  0  0
   23.4690  -19.8920   16.1030 C   0  0  0  0  0  0
   24.5420  -20.4370   15.2340 C   0  0  0  0  0  0
   24.6670  -21.9220   15.3620 C   0  0  0  0  0  0
   25.6640  -22.4440   14.3630 C   0  0  0  0  0  0
   26.6850  -23.2540   15.0740 N   0  3  0  0  0  0
   21.0020  -18.3180   16.8560 N   0  0  0  0  0  0
   19.5460  -18.2600   16.9100 C   0  0  2  0  0  0
   19.0690  -16.9830   16.2220 C   0  0  0  0  0  0
   18.1710  -17.0210   15.3930 O   0  0  0  0  0  0
   19.0560  -18.3260   18.3460 C   0  0  0  0  0  0
   19.2450  -19.6700   19.0670 C   0  0  0  0  0  0
   18.8490  -19.5010   20.5400 C   0  0  0  0  0  0
   19.1670  -20.6950   21.4540 C   0  0  0  0  0  0
   18.8120  -20.3900   22.9200 N   0  3  0  0  0  0
   19.7010  -15.8530   16.5360 N   0  0  0  0  0  0
   19.3530  -14.6020   15.8640 C   0  0  2  0  0  0
   19.5880  -14.6480   14.3580 C   0  0  0  0  0  0
   18.7670  -14.1050   13.5940 O   0  0  0  0  0  0
   20.0740  -13.4050   16.4810 C   0  0  0  0  0  0
   19.6340  -12.9680   17.8780 C   0  0  0  0  0  0
   20.4820  -11.8000   18.2680 C   0  0  0  0  0  0
   18.1110  -12.6120   17.9800 C   0  0  0  0  0  0
   20.6930  -15.2850   13.9450 N   0  0  0  0  0  0
   21.0600  -15.4020   12.5370 C   0  0  2  0  0  0
   20.1110  -16.2850   11.7190 C   0  0  0  0  0  0
   19.9750  -16.1180   10.4910 O   0  0  0  0  0  0
   22.5090  -15.8920   12.3880 C   0  0  0  0  0  0
   23.5890  -14.8290   12.6630 C   0  0  0  0  0  0
   24.9580  -15.4530   12.8360 C   0  0  0  0  0  0
   23.5940  -13.7690   11.5430 C   0  0  0  0  0  0
   19.4670  -17.2340   12.3860 N   0  0  0  0  0  0
   18.5560  -18.1690   11.7030 C   0  0  2  0  0  0
   17.1190  -17.6390   11.6000 C   0  0  0  0  0  0
   16.4090  -17.9660   10.6630 O   0  0  0  0  0  0
   18.5350  -19.5220   12.4100 C   0  0  0  0  0  0
   19.8060  -20.3410   12.3560 C   0  0  0  0  0  0
   19.8890  -21.2410   13.5420 C   0  0  0  0  0  0
   19.8720  -21.0810   11.0330 C   0  0  0  0  0  0
   16.6860  -16.8600   12.5770 N   0  0  0  0  0  0
   15.3030  -16.4020   12.6170 C   0  0  2  0  0  0
   15.0230  -15.5750   11.3750 C   0  0  0  0  0  0
   15.6220  -14.5050   11.2020 O   0  0  0  0  0  0
   15.0390  -15.5780   13.9040 C   0  0  0  0  0  0
   14.1290  -16.0740   10.4810 N   0  0  0  0  0  0
   13.6670  -15.1370    9.4510 C   0  0  2  0  0  0
   13.0070  -14.0010   10.2400 C   0  0  0  0  0  0
   12.4510  -14.2500   11.3280 O   0  0  0  0  0  0
   12.6190  -15.9450    8.6650 C   0  0  0  0  0  0
   12.8930  -17.3500    8.9760 C   0  0  0  0  0  0
   13.4760  -17.3950   10.3530 C   0  0  0  0  0  0
   13.1040  -12.7710    9.7440 N   0  0  0  0  0  0
   12.7070  -11.6230   10.5590 C   0  0  2  0  0  0
   12.8130  -10.3110    9.7910 C   0  0  0  0  0  0
   12.9340   -9.2340   10.4150 O   0  0  0  0  0  0
   13.5610  -11.5660   11.8550 C   0  0  0  0  0  0
   28.6861  -20.1837   20.1953 H   0  0  0  0  0  0
   27.8379  -21.6753   19.6639 H   0  0  0  0  0  0
   27.8475  -18.9364   18.4990 H   0  0  0  0  0  0
   26.9035  -21.6208   17.2342 H   0  0  0  0  0  0
   27.1728  -20.0713   16.3664 H   0  0  0  0  0  0
   29.1746  -21.9850   16.5214 H   0  0  0  0  0  0
   29.5496  -20.2284   16.5359 H   0  0  0  0  0  0
   30.3834  -20.4762   18.7447 H   0  0  0  0  0  0
   29.8484  -22.1904   18.7903 H   0  0  0  0  0  0
   26.3026  -21.3420   20.2657 H   0  0  0  0  0  0
   23.7765  -21.4072   19.8146 H   0  0  0  0  0  0
   25.0052  -20.3576   22.4386 H   0  0  0  0  0  0
   23.2458  -20.7160   22.3859 H   0  0  0  0  0  0
   24.5572  -22.7607   23.1210 H   0  0  0  0  0  0
   24.3989  -18.1437   21.3499 H   0  0  0  0  0  0
   21.4720  -17.7625   20.7860 H   0  0  0  0  0  0
   23.2833  -16.8312   22.7252 H   0  0  0  0  0  0
   22.9080  -15.3655   21.7570 H   0  0  0  0  0  0
   20.7151  -15.3795   22.3731 H   0  0  0  0  0  0
   20.1217  -17.7489   22.1975 H   0  0  0  0  0  0
   19.5800  -17.0484   23.7604 H   0  0  0  0  0  0
   21.0337  -18.1020   23.7042 H   0  0  0  0  0  0
   22.4469  -14.6393   24.0493 H   0  0  0  0  0  0
   22.3983  -16.2769   24.7859 H   0  0  0  0  0  0
   20.9445  -15.2233   24.8421 H   0  0  0  0  0  0
   24.5224  -16.2039   19.7919 H   0  0  0  0  0  0
   23.3520  -14.4357   17.8632 H   0  0  0  0  0  0
   26.0381  -15.8640   18.0605 H   0  0  0  0  0  0
   25.6563  -14.9592   16.5564 H   0  0  0  0  0  0
   25.8708  -13.8343   19.3448 H   0  0  0  0  0  0
   28.0339  -14.5371   18.2765 H   0  0  0  0  0  0
   27.9105  -12.7530   18.4453 H   0  0  0  0  0  0
   27.6358  -13.5250   16.8468 H   0  0  0  0  0  0
   24.1868  -12.6549   18.0286 H   0  0  0  0  0  0
   25.3786  -12.4265   16.7042 H   0  0  0  0  0  0
   25.6534  -11.6545   18.3027 H   0  0  0  0  0  0
   24.4324  -17.9004   17.4830 H   0  0  0  0  0  0
   23.6089  -18.1768   14.7980 H   0  0  0  0  0  0
   23.8052  -19.9521   17.1486 H   0  0  0  0  0  0
   22.5685  -20.5098   15.9713 H   0  0  0  0  0  0
   24.3183  -20.2006   14.1832 H   0  0  0  0  0  0
   25.5053  -19.9860   15.5142 H   0  0  0  0  0  0
   25.0063  -22.1752   16.3773 H   0  0  0  0  0  0
   23.6892  -22.3898   15.1749 H   0  0  0  0  0  0
   25.1463  -23.0695   13.6209 H   0  0  0  0  0  0
   26.1505  -21.5986   13.8545 H   0  0  0  0  0  0
   27.4175  -23.6389   14.3492 H   0  0  0  0  0  0
   26.1949  -24.0971   15.5830 H   0  0  0  0  0  0
   27.1991  -22.6261   15.8166 H   0  0  0  0  0  0
   21.5849  -18.3787   17.7869 H   0  0  0  0  0  0
   19.1703  -19.1458   16.3768 H   0  0  0  0  0  0
   19.5917  -17.5795   18.9509 H   0  0  0  0  0  0
   17.9767  -18.1155   18.3752 H   0  0  0  0  0  0
   18.6077  -20.4322   18.5948 H   0  0  0  0  0  0
   20.2985  -19.9785   18.9973 H   0  0  0  0  0  0
   19.3791  -18.6361   20.9653 H   0  0  0  0  0  0
   17.7636  -19.3372   20.6114 H   0  0  0  0  0  0
   18.5858  -21.5705   21.1290 H   0  0  0  0  0  0
   20.2410  -20.9256   21.3956 H   0  0  0  0  0  0
   19.0516  -21.2632   23.5446 H   0  0  0  0  0  0
   17.7377  -20.1669   22.9983 H   0  0  0  0  0  0
   19.3929  -19.5219   23.2649 H   0  0  0  0  0  0
   20.4878  -15.8640   17.3047 H   0  0  0  0  0  0
   18.2710  -14.5190   16.0441 H   0  0  0  0  0  0
   21.1475  -13.6286   16.5680 H   0  0  0  0  0  0
   19.9341  -12.5223   15.8397 H   0  0  0  0  0  0
   19.8143  -13.8019   18.5723 H   0  0  0  0  0  0
   21.5441  -12.0751   18.1881 H   0  0  0  0  0  0
   20.2548  -11.5120   19.3050 H   0  0  0  0  0  0
   20.2710  -10.9537   17.5978 H   0  0  0  0  0  0
   17.5099  -13.4859   17.6885 H   0  0  0  0  0  0
   17.8852  -11.7710   17.3079 H   0  0  0  0  0  0
   17.8691  -12.3293   19.0152 H   0  0  0  0  0  0
   21.3347  -15.7304   14.7195 H   0  0  0  0  0  0
   20.9506  -14.3693   12.1744 H   0  0  0  0  0  0
   22.6919  -16.7157   13.0937 H   0  0  0  0  0  0
   22.6721  -16.2471   11.3597 H   0  0  0  0  0  0
   23.3588  -14.3380   13.6200 H   0  0  0  0  0  0
   24.9203  -16.2026   13.6402 H   0  0  0  0  0  0
   25.6868  -14.6715   13.0970 H   0  0  0  0  0  0
   25.2612  -15.9381   11.8964 H   0  0  0  0  0  0
   22.5876  -13.3363   11.4432 H   0  0  0  0  0  0
   23.8862  -14.2406   10.5931 H   0  0  0  0  0  0
   24.3118  -12.9741   11.7937 H   0  0  0  0  0  0
   19.6249  -17.3142   13.4716 H   0  0  0  0  0  0
   18.9849  -18.2568   10.6939 H   0  0  0  0  0  0
   18.3223  -19.3738   13.4790 H   0  0  0  0  0  0
   17.7539  -20.1561   11.9652 H   0  0  0  0  0  0
   20.6921  -19.6926   12.4216 H   0  0  0  0  0  0
   19.8353  -20.6408   14.4622 H   0  0  0  0  0  0
   20.8409  -21.7917   13.5184 H   0  0  0  0  0  0
   19.0520  -21.9544   13.5202 H   0  0  0  0  0  0
   19.8056  -20.3593   10.2055 H   0  0  0  0  0  0
   19.0347  -21.7914   10.9681 H   0  0  0  0  0  0
   20.8236  -21.6287   10.9663 H   0  0  0  0  0  0
   17.3885  -16.5581   13.3678 H   0  0  0  0  0  0
   14.6702  -17.3018   12.6132 H   0  0  0  0  0  0
   15.2492  -16.1996   14.7869 H   0  0  0  0  0  0
   13.9873  -15.2562   13.9240 H   0  0  0  0  0  0
   15.6933  -14.6938   13.9139 H   0  0  0  0  0  0
   14.4596  -14.7496    8.7939 H   0  0  0  0  0  0
   11.6101  -15.6512    8.9902 H   0  0  0  0  0  0
   12.7310  -15.7426    7.5896 H   0  0  0  0  0  0
   11.9557  -17.9242    8.9345 H   0  0  0  0  0  0
   13.6045  -17.7560    8.2419 H   0  0  0  0  0  0
   14.2288  -18.1888   10.4677 H   0  0  0  0  0  0
   12.7086  -17.5019   11.1338 H   0  0  0  0  0  0
   13.4820  -12.6160    8.7227 H   0  0  0  0  0  0
   11.6442  -11.7961   10.7838 H   0  0  0  0  0  0
   12.7834  -10.3092    8.6914 H   0  0  0  0  0  0
   13.4720  -12.5202   12.3950 H   0  0  0  0  0  0
   13.2012  -10.7473   12.4955 H   0  0  0  0  0  0
   14.6146  -11.3901   11.5924 H   0  0  0  0  0  0
  1  2  1  0  0  0
  1  7  1  0  0  0
  1 89  1  0  0  0
  1 90  1  0  0  0
  2  3  1  0  0  0
  2  5  1  0  0  0
  2 91  1  0  0  0
  3  4  2  0  0  0
  3  8  1  0  0  0
  5  6  1  0  0  0
  5 92  1  0  0  0
  5 93  1  0  0  0
  6  7  1  0  0  0
  6 94  1  0  0  0
  6 95  1  0  0  0
  7 96  1  0  0  0
  7 97  1  0  0  0
  8  9  1  0  0  0
  8 98  1  0  0  0
  9 12  1  0  0  0
  9 10  1  0  0  0
  9 99  1  0  0  0
 10 11  2  0  0  0
 10 14  1  0  0  0
 12 13  1  0  0  0
 12100  1  0  0  0
 12101  1  0  0  0
 13102  1  0  0  0
 14 15  1  0  0  0
 14103  1  0  0  0
 15 18  1  0  0  0
 15 16  1  0  0  0
 15104  1  0  0  0
 16 17  2  0  0  0
 16 22  1  0  0  0
 18 19  1  0  0  0
 18105  1  0  0  0
 18106  1  0  0  0
 19 20  1  0  0  0
 19 21  1  0  0  0
 19107  1  0  0  0
 20108  1  0  0  0
 20109  1  0  0  0
 20110  1  0  0  0
 21111  1  0  0  0
 21112  1  0  0  0
 21113  1  0  0  0
 22 23  1  0  0  0
 22114  1  0  0  0
 23 26  1  0  0  0
 23 24  1  0  0  0
 23115  1  0  0  0
 24 25  2  0  0  0
 24 30  1  0  0  0
 26 27  1  0  0  0
 26116  1  0  0  0
 26117  1  0  0  0
 27 28  1  0  0  0
 27 29  1  0  0  0
 27118  1  0  0  0
 28119  1  0  0  0
 28120  1  0  0  0
 28121  1  0  0  0
 29122  1  0  0  0
 29123  1  0  0  0
 29124  1  0  0  0
 30 31  1  0  0  0
 30125  1  0  0  0
 31 34  1  0  0  0
 31 32  1  0  0  0
 31126  1  0  0  0
 32 33  2  0  0  0
 32 39  1  0  0  0
 34 35  1  0  0  0
 34127  1  0  0  0
 34128  1  0  0  0
 35 36  1  0  0  0
 35129  1  0  0  0
 35130  1  0  0  0
 36 37  1  0  0  0
 36131  1  0  0  0
 36132  1  0  0  0
 37 38  1  0  0  0
 37133  1  0  0  0
 37134  1  0  0  0
 38135  1  0  0  0
 38136  1  0  0  0
 38137  1  0  0  0
 39 40  1  0  0  0
 39138  1  0  0  0
 40 43  1  0  0  0
 40 41  1  0  0  0
 40139  1  0  0  0
 41 42  2  0  0  0
 41 48  1  0  0  0
 43 44  1  0  0  0
 43140  1  0  0  0
 43141  1  0  0  0
 44 45  1  0  0  0
 44142  1  0  0  0
 44143  1  0  0  0
 45 46  1  0  0  0
 45144  1  0  0  0
 45145  1  0  0  0
 46 47  1  0  0  0
 46146  1  0  0  0
 46147  1  0  0  0
 47148  1  0  0  0
 47149  1  0  0  0
 47150  1  0  0  0
 48 49  1  0  0  0
 48151  1  0  0  0
 49 52  1  0  0  0
 49 50  1  0  0  0
 49152  1  0  0  0
 50 51  2  0  0  0
 50 56  1  0  0  0
 52 53  1  0  0  0
 52153  1  0  0  0
 52154  1  0  0  0
 53 54  1  0  0  0
 53 55  1  0  0  0
 53155  1  0  0  0
 54156  1  0  0  0
 54157  1  0  0  0
 54158  1  0  0  0
 55159  1  0  0  0
 55160  1  0  0  0
 55161  1  0  0  0
 56 57  1  0  0  0
 56162  1  0  0  0
 57 60  1  0  0  0
 57 58  1  0  0  0
 57163  1  0  0  0
 58 59  2  0  0  0
 58 64  1  0  0  0
 60 61  1  0  0  0
 60164  1  0  0  0
 60165  1  0  0  0
 61 62  1  0  0  0
 61 63  1  0  0  0
 61166  1  0  0  0
 62167  1  0  0  0
 62168  1  0  0  0
 62169  1  0  0  0
 63170  1  0  0  0
 63171  1  0  0  0
 63172  1  0  0  0
 64 65  1  0  0  0
 64173  1  0  0  0
 65 68  1  0  0  0
 65 66  1  0  0  0
 65174  1  0  0  0
 66 67  2  0  0  0
 66 72  1  0  0  0
 68 69  1  0  0  0
 68175  1  0  0  0
 68176  1  0  0  0
 69 70  1  0  0  0
 69 71  1  0  0  0
 69177  1  0  0  0
 70178  1  0  0  0
 70179  1  0  0  0
 70180  1  0  0  0
 71181  1  0  0  0
 71182  1  0  0  0
 71183  1  0  0  0
 72 73  1  0  0  0
 72184  1  0  0  0
 73 76  1  0  0  0
 73 74  1  0  0  0
 73185  1  0  0  0
 74 75  2  0  0  0
 74 77  1  0  0  0
 76186  1  0  0  0
 76187  1  0  0  0
 76188  1  0  0  0
 77 78  1  0  0  0
 77 83  1  0  0  0
 78 79  1  0  0  0
 78 81  1  0  0  0
 78189  1  0  0  0
 79 80  2  0  0  0
 79 84  1  0  0  0
 81 82  1  0  0  0
 81190  1  0  0  0
 81191  1  0  0  0
 82 83  1  0  0  0
 82192  1  0  0  0
 82193  1  0  0  0
 83194  1  0  0  0
 83195  1  0  0  0
 84 85  1  0  0  0
 84196  1  0  0  0
 85 88  1  0  0  0
 85 86  1  0  0  0
 85197  1  0  0  0
 86 87  2  0  0  0
 86198  1  0  0  0
 88199  1  0  0  0
 88200  1  0  0  0
 88201  1  0  0  0
M  CHG  3   1   1  38   1  47   1
M  END
> <s_m_source_file>
../3cs8_ligand.sdf

> <i_m_source_file_index>
1

> <s_epik_input>
W0NIMl0xW0NIMl1bQ0gyXVtOSDIrXVtDQEBIXTFDKD1PKVtOSF1bQ0BASF0oW0NIMl1bT0hdKUMoPU8pW05IXVtDQEBIXShbQ0gyXVtDSF0oW0NIM10pW0NIM10pQyg9TylbTkhdW0NAQEhdKFtDSDJdW0NIXShbQ0gzXSlbQ0gzXSlDKD1PKVtOSF1bQ0BASF0oW0NIMl1bQ0gyXVtDSDJdW0NIMl1bTkgzK10pQyg9TylbTkhdW0NAQEhdKFtDSDJdW0NIMl1bQ0gyXVtDSDJdW05IMytdKUMoPU8pW05IXVtDQEBIXShbQ0gyXVtDSF0oW0NIM10pW0NIM10pQyg9TylbTkhdW0NAQEhdKFtDSDJdW0NIXShbQ0gzXSlbQ0gzXSlDKD1PKVtOSF1bQ0BASF0oW0NIMl1bQ0hdKFtDSDNdKVtDSDNdKUMoPU8pW05IXVtDQEBIXShbQ0gzXSlDKD1PKU4yW0NAQEhdKFtDSDJdW0NIMl1bQ0gyXTIpQyg9TylbTkhdW0NASF0oW0NIXT1PKVtDSDNd

> <s_epik_cmdline>
J2VwaWtfYXBwJywgJy1pbWFlJywgJ2xpZ2FuZF9wcm8ubWFlJywgJy1vbWFlJywgJ2xpZ2FuZF9wcmVwLm1hZScsICctbXMnLCAnMScsICctcGgnLCAnNycsICctcGh0JywgJzAuNScsICctbnQn

> <s_epik_pKa_notes>
Molecule size exceeds maximum supported for generating protonation states

$$$$
