3cso_ligand
                    3D
 Schrodinger Suite 2020-3.
 65 69  0  0  1  0            999 V2000
   28.4620    4.6460   31.1020 C   0  0  0  0  0  0
   27.5140    3.8360   31.9930 C   0  0  0  0  0  0
   26.2150    3.6230   31.2370 C   0  0  0  0  0  0
   25.5850    4.8330   30.5820 C   0  0  0  0  0  0
   26.3610    5.8850   30.1690 C   0  0  0  0  0  0
   27.8070    5.8450   30.4620 C   0  0  0  0  0  0
   23.1850    5.4750   29.9730 C   0  0  0  0  0  0
   24.7600    6.6570   28.6000 N   0  0  0  0  0  0
   25.8070    7.1410   29.4940 C   0  0  1  0  0  0
   21.9080    5.2900   30.4690 C   0  0  0  0  0  0
   22.4110    7.3710   28.7420 C   0  0  0  0  0  0
   25.2720    8.2480   30.4110 C   0  0  0  0  0  0
   25.0990    6.2300   27.3060 C   0  0  0  0  0  0
   24.0590    5.6640   26.3630 C   0  0  0  0  0  0
   24.7370   10.5470   30.7730 C   0  0  0  0  0  0
   24.3750    8.9570   32.5050 C   0  0  0  0  0  0
   24.8530    7.9620   31.6930 C   0  0  0  0  0  0
   23.8290   11.2510   32.8280 O   0  0  0  0  0  0
   25.0250   10.9430   34.9160 C   0  0  0  0  0  0
   27.5110   10.7650   36.1240 C   0  0  0  0  0  0
   27.3510   11.5620   34.9970 C   0  0  0  0  0  0
   26.1110   11.6430   34.3950 C   0  0  0  0  0  0
   28.1600    2.4810   32.3370 C   0  0  0  0  0  0
   27.1650    4.6100   33.2770 C   0  0  0  0  0  0
   24.6680   12.1750   30.2530 Cl  0  0  0  0  0  0
   25.2180    9.5530   29.9500 C   0  0  0  0  0  0
   24.3150   10.2550   32.0440 C   0  0  0  0  0  0
   23.6720   11.0580   34.2330 C   0  0  0  0  0  0
   26.4370   10.0630   36.6510 C   0  0  0  0  0  0
   25.1880   10.1510   36.0440 C   0  0  0  0  0  0
   28.4970    6.7960   30.2150 O   0  0  0  0  0  0
   26.2490    6.3450   26.9240 O   0  0  0  0  0  0
   23.4440    6.5160   29.1120 C   0  0  0  0  0  0
   21.1280    7.1900   29.2340 C   0  0  0  0  0  0
   20.8820    6.1450   30.1060 C   0  0  0  0  0  0
   24.2130    4.6310   30.4380 N   0  0  0  0  0  0
   29.3063    5.0135   31.7038 H   0  0  0  0  0  0
   28.8406    4.0055   30.2918 H   0  0  0  0  0  0
   25.7313    2.6385   31.1542 H   0  0  0  0  0  0
   26.6179    7.6403   28.9434 H   0  0  0  0  0  0
   21.7075    4.4641   31.1515 H   0  0  0  0  0  0
   22.6132    8.1939   28.0563 H   0  0  0  0  0  0
   23.0832    5.6319   26.8698 H   0  0  0  0  0  0
   24.3504    4.6464   26.0639 H   0  0  0  0  0  0
   23.9876    6.3024   25.4701 H   0  0  0  0  0  0
   24.0420    8.7221   33.5160 H   0  0  0  0  0  0
   24.9023    6.9379   32.0630 H   0  0  0  0  0  0
   28.4896   10.6908   36.5983 H   0  0  0  0  0  0
   28.1965   12.1181   34.5920 H   0  0  0  0  0  0
   25.9808   12.2593   33.5054 H   0  0  0  0  0  0
   28.4018    1.9437   31.4081 H   0  0  0  0  0  0
   27.4581    1.8815   32.9353 H   0  0  0  0  0  0
   29.0816    2.6500   32.9133 H   0  0  0  0  0  0
   26.7054    5.5733   33.0109 H   0  0  0  0  0  0
   28.0818    4.7891   33.8578 H   0  0  0  0  0  0
   26.4583    4.0206   33.8797 H   0  0  0  0  0  0
   25.5544    9.7920   28.9411 H   0  0  0  0  0  0
   23.1295   11.9133   34.6622 H   0  0  0  0  0  0
   23.1031   10.1343   34.4149 H   0  0  0  0  0  0
   26.5711    9.4441   37.5382 H   0  0  0  0  0  0
   24.3410    9.6001   36.4528 H   0  0  0  0  0  0
   20.3231    7.8626   28.9375 H   0  0  0  0  0  0
   19.8798    5.9948   30.5074 H   0  0  0  0  0  0
   23.7674    3.6641   30.7146 H   0  0  0  0  0  0
   29.5746    6.7653   30.4337 H   0  0  0  0  0  0
  1  2  1  0  0  0
  1  6  1  0  0  0
  1 37  1  0  0  0
  1 38  1  0  0  0
  2  3  1  0  0  0
  2 23  1  0  0  0
  2 24  1  0  0  0
  3  4  2  0  0  0
  3 39  1  0  0  0
  4  5  1  0  0  0
  4 36  1  0  0  0
  5  6  2  0  0  0
  5  9  1  0  0  0
  6 31  1  0  0  0
  7 10  2  0  0  0
  7 33  1  0  0  0
  7 36  1  0  0  0
  8  9  1  0  0  0
  8 13  1  0  0  0
  8 33  1  0  0  0
  9 12  1  0  0  0
  9 40  1  0  0  0
 10 35  1  0  0  0
 10 41  1  0  0  0
 11 33  2  0  0  0
 11 34  1  0  0  0
 11 42  1  0  0  0
 12 17  2  0  0  0
 12 26  1  0  0  0
 13 14  1  0  0  0
 13 32  2  0  0  0
 14 43  1  0  0  0
 14 44  1  0  0  0
 14 45  1  0  0  0
 15 25  1  0  0  0
 15 26  2  0  0  0
 15 27  1  0  0  0
 16 17  1  0  0  0
 16 27  2  0  0  0
 16 46  1  0  0  0
 17 47  1  0  0  0
 18 27  1  0  0  0
 18 28  1  0  0  0
 19 22  2  0  0  0
 19 28  1  0  0  0
 19 30  1  0  0  0
 20 21  2  0  0  0
 20 29  1  0  0  0
 20 48  1  0  0  0
 21 22  1  0  0  0
 21 49  1  0  0  0
 22 50  1  0  0  0
 23 51  1  0  0  0
 23 52  1  0  0  0
 23 53  1  0  0  0
 24 54  1  0  0  0
 24 55  1  0  0  0
 24 56  1  0  0  0
 26 57  1  0  0  0
 28 58  1  0  0  0
 28 59  1  0  0  0
 29 30  2  0  0  0
 29 60  1  0  0  0
 30 61  1  0  0  0
 31 65  1  0  0  0
 34 35  2  0  0  0
 34 62  1  0  0  0
 35 63  1  0  0  0
 36 64  1  0  0  0
M  END
> <s_m_source_file>
../3cso_ligand.sdf

> <i_m_source_file_index>
1

> <s_epik_input>
W2NIXTFbY0hdW2NIXVtjSF1jKFtOSF0yKWMxTihDKD1PKVtDSDNdKVtDQEhdKEMoPUMyMylDKD1PKVtDSDJdQyhbQ0gyXTMpKFtDSDNdKVtDSDNdKWM0W2NIXVtjSF1jKGMoQ2wpW2NIXTQpT1tDSDJdYzVbY0hdW2NIXVtjSF1bY0hdW2NIXTU=

> <s_epik_cmdline>
J2VwaWtfYXBwJywgJy1pbWFlJywgJ2xpZ2FuZF9wcm8ubWFlJywgJy1vbWFlJywgJ2xpZ2FuZF9wcmVwLm1hZScsICctbXMnLCAnMScsICctcGgnLCAnNycsICctcGh0JywgJzAuNScsICctbnQn

> <r_lp_tautomer_probability>
1

> <r_epik_Ionization_Penalty>
  0.0214

> <r_epik_Ionization_Penalty_Charging>
  0.0005

> <r_epik_Ionization_Penalty_Neutral>
  0.0209

> <r_epik_State_Penalty>
  0.0168

> <r_epik_Charging_Adjusted_Penalty>
0.0172905024691929

> <i_epik_Tot_Q>
0

> <i_epik_Tot_abs_Q>
0

> <s_epik_Chemistry_Notes>
This compound has an imine and may undergo hydrolysis.

$$$$
