3cst_ligand
                    3D
 Schrodinger Suite 2020-3.
 63 72  0  0  1  0            999 V2000
   51.5100   15.8340   28.9800 C   0  0  0  0  0  0
   51.9870   16.9940   29.7810 C   0  0  0  0  0  0
   51.1800   17.6720   30.7470 C   0  0  0  0  0  0
   49.9100   17.1560   30.9530 C   0  0  0  0  0  0
   49.3970   16.0620   30.1590 C   0  0  0  0  0  0
   50.1920   15.3250   29.1580 C   0  0  0  0  0  0
   45.0130   12.1200   28.7510 C   0  0  0  0  0  0
   47.8580   16.6760   31.5240 C   0  0  0  0  0  0
   48.0650   15.7310   30.5160 C   0  0  0  0  0  0
   46.7260   16.8530   32.2180 C   0  0  0  0  0  0
   45.5850   15.8990   31.9220 C   0  0  0  0  0  0
   45.7520   14.9080   30.9310 C   0  0  0  0  0  0
   46.9240   14.8170   30.2590 C   0  0  0  0  0  0
   46.8490   13.6600   29.2510 C   0  0  0  0  0  0
   45.5690   18.0590   33.8550 C   0  0  0  0  0  0
   44.4260   17.1650   33.6180 C   0  0  0  0  0  0
   44.4270   16.1160   32.7000 C   0  0  0  0  0  0
   44.8230   13.8720   30.4090 C   0  0  0  0  0  0
   43.4160   17.3420   34.2620 F   0  0  0  0  0  0
   46.6760   17.9010   33.1880 N   0  0  0  0  0  0
   48.8840   17.5450   31.7450 N   0  0  0  0  0  0
   45.5990   13.2390   29.4840 N   0  0  0  0  0  0
   52.3260   15.2240   28.0070 O   0  0  0  0  0  0
   43.7060   13.6280   30.7000 O   0  0  0  0  0  0
   47.5390   13.1400   28.4420 O   0  0  0  0  0  0
   48.1560   20.2720   31.8820 C   0  0  0  0  0  0
   47.8180   21.1220   31.1800 O   0  0  0  0  0  0
   49.4140   20.1790   34.3980 C   0  0  0  0  0  0
   48.2580   19.8120   35.0210 C   0  0  0  0  0  0
   48.2470   18.3720   35.1830 C   0  0  0  0  0  0
   49.4700   17.8650   34.6210 C   0  0  0  0  0  0
   50.1900   18.9190   34.1420 C   0  0  1  0  0  0
   47.1750   20.7120   35.4750 C   0  0  0  0  0  0
   46.5740   23.1620   35.6260 C   0  0  0  0  0  0
   47.1880   23.7910   36.8910 C   0  0  0  0  0  0
   45.1010   22.8240   35.8980 C   0  0  0  0  0  0
   46.6540   24.1550   34.4570 C   0  0  0  0  0  0
   47.4320   22.0310   35.2340 N   0  0  0  0  0  0
   46.1600   20.2990   36.0050 O   0  0  0  0  0  0
   44.5890   22.0010   34.8700 O   0  0  0  0  0  0
   48.0080   24.3460   34.0920 O   0  0  0  0  0  0
   48.3850   18.8710   33.2100 Ru  0  0  0  0  0  0
   53.0065   17.3456   29.6227 H   0  0  0  0  0  0
   51.5426   18.5446   31.2903 H   0  0  0  0  0  0
   49.8056   14.4688   28.6051 H   0  0  0  0  0  0
   45.7542   11.7149   28.0463 H   0  0  0  0  0  0
   44.1302   12.4682   28.1947 H   0  0  0  0  0  0
   44.7132   11.3341   29.4599 H   0  0  0  0  0  0
   45.4893   18.8577   34.5925 H   0  0  0  0  0  0
   43.5376   15.4776   32.5934 H   0  0  0  0  0  0
   53.3501   15.5893   27.8405 H   0  0  0  0  0  0
   49.1682   19.8516   31.7890 H   0  0  0  0  0  0
   51.2868   18.8665   34.2075 H   0  0  0  0  0  0
   46.5708   24.6424   37.2137 H   0  0  0  0  0  0
   48.2072   24.1402   36.6691 H   0  0  0  0  0  0
   47.2244   23.0395   37.6935 H   0  0  0  0  0  0
   45.0178   22.2933   36.8579 H   0  0  0  0  0  0
   44.5134   23.7530   35.9405 H   0  0  0  0  0  0
   46.0955   23.7555   33.5977 H   0  0  0  0  0  0
   46.2174   25.1173   34.7627 H   0  0  0  0  0  0
   48.3742   22.2156   34.6972 H   0  0  0  0  0  0
   43.5431   21.6623   34.9061 H   0  0  0  0  0  0
   48.2645   25.0280   33.2680 H   0  0  0  0  0  0
  1  2  2  0  0  0
  1  6  1  0  0  0
  1 23  1  0  0  0
  2  3  1  0  0  0
  2 43  1  0  0  0
  3  4  2  0  0  0
  3 44  1  0  0  0
  4  5  1  0  0  0
  4 21  1  0  0  0
  5  6  2  0  0  0
  5  9  1  0  0  0
  6 45  1  0  0  0
  7 22  1  0  0  0
  7 46  1  0  0  0
  7 47  1  0  0  0
  7 48  1  0  0  0
  8  9  2  0  0  0
  8 10  1  0  0  0
  8 21  1  0  0  0
  9 13  1  0  0  0
 10 11  2  0  0  0
 10 20  1  0  0  0
 11 12  1  0  0  0
 11 17  1  0  0  0
 12 13  2  0  0  0
 12 18  1  0  0  0
 13 14  1  0  0  0
 14 22  1  0  0  0
 14 25  2  0  0  0
 15 16  1  0  0  0
 15 20  1  0  0  0
 15 49  1  0  0  0
 16 17  2  0  0  0
 16 19  1  0  0  0
 17 50  1  0  0  0
 18 22  1  0  0  0
 18 24  2  0  0  0
 20 42  1  0  0  0
 21 42  1  0  0  0
 23 51  1  0  0  0
 26 27  2  0  0  0
 26 42  1  0  0  0
 26 52  1  0  0  0
 28 29  2  0  0  0
 28 32  1  0  0  0
 28 42  1  0  0  0
 29 30  1  0  0  0
 29 33  1  0  0  0
 30 31  2  0  0  0
 30 42  1  0  0  0
 31 32  1  0  0  0
 31 42  1  0  0  0
 32 42  1  0  0  0
 32 53  1  0  0  0
 33 38  1  0  0  0
 33 39  2  0  0  0
 34 35  1  0  0  0
 34 36  1  0  0  0
 34 37  1  0  0  0
 34 38  1  0  0  0
 35 54  1  0  0  0
 35 55  1  0  0  0
 35 56  1  0  0  0
 36 40  1  0  0  0
 36 57  1  0  0  0
 36 58  1  0  0  0
 37 41  1  0  0  0
 37 59  1  0  0  0
 37 60  1  0  0  0
 38 61  1  0  0  0
 40 62  1  0  0  0
 41 63  1  0  0  0
M  END
> <s_m_source_file>
../3cst_ligand.sdf

> <i_m_source_file_index>
1

> <s_epik_input>
W2NIXTFjKFtPSF0pW2NIXVtjSF1jKG4yMyljMWMoYzRjKEMoPU8pTihbQ0gzXSlDND1PKWM1W0NIXT1DKEYpW0NIMl02KWMyYzVONltSdUhdMzc4OShbQ0hdPU8pQz0xW0NASF05Qzg9QzdDMUMoPU8pW05IXUMoW0NIM10pKFtDSDJdW09IXSlbQ0gyXVtPSF0=

> <s_epik_cmdline>
J2VwaWtfYXBwJywgJy1pbWFlJywgJ2xpZ2FuZF9wcm8ubWFlJywgJy1vbWFlJywgJ2xpZ2FuZF9wcmVwLm1hZScsICctbXMnLCAnMScsICctcGgnLCAnNycsICctcGh0JywgJzAuNScsICctbnQn

> <r_epik_Ionization_Penalty>
  0.3629

> <r_epik_Ionization_Penalty_Charging>
  0.0000

> <r_epik_Ionization_Penalty_Neutral>
  0.3629

> <r_epik_State_Penalty>
  0.3432

> <r_epik_Charging_Adjusted_Penalty>
0.343235630153875

> <i_epik_Tot_Q>
0

> <i_epik_Tot_abs_Q>
0

$$$$
