3cth_ligand
                    3D
 Schrodinger Suite 2020-3.
 46 48  0  0  1  0            999 V2000
    0.1140    1.0530   52.6750 C   0  0  0  0  0  0
   -2.0300    1.6690   53.6840 C   0  0  0  0  0  0
    0.9190    8.0660   54.9990 C   0  0  0  0  0  0
    1.0350    9.2860   55.6690 C   0  0  0  0  0  0
    0.2130   -0.0130   53.5530 C   0  0  0  0  0  0
   -1.9210    0.5980   54.5720 C   0  0  0  0  0  0
   -1.4920   11.5640   56.3840 C   0  0  0  0  0  0
    0.2920    9.2470   52.9840 C   0  0  0  0  0  0
    0.1040   12.9810   57.4910 C   0  0  0  0  0  0
   -2.4360   12.0230   57.2860 C   0  0  0  0  0  0
   -1.0100    1.8910   52.7320 C   0  0  0  0  0  0
    0.5520    8.0480   53.6440 C   0  0  0  0  0  0
    0.7640   10.4830   55.0040 C   0  0  0  0  0  0
   -0.1910   12.0540   56.4900 C   0  0  0  0  0  0
   -0.7980   -0.2310   54.4880 C   0  0  0  0  0  0
    0.3910   10.4570   53.6600 C   0  0  0  0  0  0
   -0.9090   13.4030   58.3630 C   0  0  0  0  0  0
   -0.6440    4.3080   52.4610 C   0  0  0  0  0  0
   -0.1050    6.6130   51.7410 C   0  0  0  0  0  0
   -1.1030    3.0380   51.7840 C   0  0  0  0  0  0
   -2.1750   12.9280   58.2640 N   0  3  0  0  0  0
   -0.6020   14.3450   59.3770 N   0  0  0  0  0  0
    0.4490    6.8030   52.9920 N   0  0  0  0  0  0
   -0.6480    5.3560   51.5520 N   0  0  0  0  0  0
    0.0100    4.3220   53.4880 O   0  0  0  0  0  0
   -0.1580    7.4260   50.8290 O   0  0  0  0  0  0
    0.8600   11.6920   55.6570 O   0  0  0  0  0  0
   -0.6810   -1.2650   55.3250 F   0  0  0  0  0  0
    0.1170   11.5940   52.9890 F   0  0  0  0  0  0
    0.9024    1.2396   51.9458 H   0  0  0  0  0  0
   -2.8960    2.3296   53.7246 H   0  0  0  0  0  0
    1.1126    7.1317   55.5260 H   0  0  0  0  0  0
    1.3385    9.3035   56.7158 H   0  0  0  0  0  0
    1.0760   -0.6777   53.5135 H   0  0  0  0  0  0
   -2.6955    0.4115   55.3160 H   0  0  0  0  0  0
   -1.7579   10.8406   55.6132 H   0  0  0  0  0  0
    0.0093    9.2359   51.9314 H   0  0  0  0  0  0
    1.1154   13.3741   57.5939 H   0  0  0  0  0  0
   -3.4512   11.6342   57.2064 H   0  0  0  0  0  0
   -0.4647    2.8436   50.9095 H   0  0  0  0  0  0
   -2.1461    3.1596   51.4567 H   0  0  0  0  0  0
    0.4206   14.7395   59.4699 H   0  0  0  0  0  0
   -1.3864   14.6814   60.0709 H   0  0  0  0  0  0
    0.8255    5.8928   53.4818 H   0  0  0  0  0  0
   -1.1178    5.2269   50.5658 H   0  0  0  0  0  0
   -2.9781   13.2515   58.9425 H   0  0  0  0  0  0
  1  5  2  0  0  0
  1 11  1  0  0  0
  1 30  1  0  0  0
  2  6  1  0  0  0
  2 11  2  0  0  0
  2 31  1  0  0  0
  3  4  2  0  0  0
  3 12  1  0  0  0
  3 32  1  0  0  0
  4 13  1  0  0  0
  4 33  1  0  0  0
  5 15  1  0  0  0
  5 34  1  0  0  0
  6 15  2  0  0  0
  6 35  1  0  0  0
  7 10  2  0  0  0
  7 14  1  0  0  0
  7 36  1  0  0  0
  8 12  2  0  0  0
  8 16  1  0  0  0
  8 37  1  0  0  0
  9 14  2  0  0  0
  9 17  1  0  0  0
  9 38  1  0  0  0
 10 21  1  0  0  0
 10 39  1  0  0  0
 11 20  1  0  0  0
 12 23  1  0  0  0
 13 16  2  0  0  0
 13 27  1  0  0  0
 14 27  1  0  0  0
 15 28  1  0  0  0
 16 29  1  0  0  0
 17 21  2  0  0  0
 17 22  1  0  0  0
 18 20  1  0  0  0
 18 24  1  0  0  0
 18 25  2  0  0  0
 19 23  1  0  0  0
 19 24  1  0  0  0
 19 26  2  0  0  0
 20 40  1  0  0  0
 20 41  1  0  0  0
 21 46  1  0  0  0
 22 42  1  0  0  0
 22 43  1  0  0  0
 23 44  1  0  0  0
 24 45  1  0  0  0
M  CHG  1  21   1
M  END
> <s_m_source_file>
../3cth_ligand.sdf

> <i_m_source_file_index>
1

> <s_epik_input>
W2NIXTFbY0hdYyhGKVtjSF1bY0hdYzFbQ0gyXUMoPU8pW05IXUMoPU8pW05IXWMyW2NIXVtjSF1jKGMoRilbY0hdMilPYzNbY0hdW2NIXW5jKFtjSF0zKVtOSDJd

> <s_epik_cmdline>
J2VwaWtfYXBwJywgJy1pbWFlJywgJ2xpZ2FuZF9wcm8ubWFlJywgJy1vbWFlJywgJ2xpZ2FuZF9wcmVwLm1hZScsICctbXMnLCAnMScsICctcGgnLCAnNycsICctcGh0JywgJzAuNScsICctbnQn

> <r_lp_tautomer_probability>
0.999899029798226

> <r_epik_Ionization_Penalty>
  0.2644

> <r_epik_Ionization_Penalty_Charging>
  0.2644

> <r_epik_Ionization_Penalty_Neutral>
  0.0000

> <r_epik_State_Penalty>
  0.2562

> <r_epik_Charging_Adjusted_Penalty>
0.520583768114032

> <i_epik_Tot_Q>
1

> <i_epik_Tot_abs_Q>
1

$$$$
