3ctj_ligand
                    3D
 Schrodinger Suite 2020-3.
 46 49  0  0  1  0            999 V2000
   -1.0960   -1.0490   56.2250 F   0  0  0  0  0  0
   -1.1050   -0.1830   55.2190 C   0  0  0  0  0  0
   -2.1630    0.8240   55.1270 C   0  0  0  0  0  0
   -2.0800    1.6780   54.0920 C   0  0  0  0  0  0
   -0.1000   -0.2700   54.3280 C   0  0  0  0  0  0
   -0.0670    0.6820   53.2420 C   0  0  0  0  0  0
   -0.9660    1.6060   53.0850 C   0  0  0  0  0  0
   -0.8740    2.5940   51.8870 C   0  0  0  0  0  0
   -0.6090    3.9750   52.5600 C   0  0  0  0  0  0
   -0.2000    4.1990   53.7470 O   0  0  0  0  0  0
   -0.8940    5.1480   51.8540 N   0  0  0  0  0  0
   -0.4000    6.3580   52.1530 C   0  0  0  0  0  0
   -0.5430    7.1670   51.2690 O   0  0  0  0  0  0
    0.2320    6.5520   53.3870 N   0  0  0  0  0  0
    0.3570    7.7970   54.0550 C   0  0  0  0  0  0
    0.0490    8.9740   53.2600 C   0  0  0  0  0  0
    0.1290   10.1890   53.8570 C   0  0  0  0  0  0
   -0.1760   11.3710   53.1470 F   0  0  0  0  0  0
    0.7350    7.8700   55.3610 C   0  0  0  0  0  0
    0.8580    9.1280   55.9880 C   0  0  0  0  0  0
    0.5670   10.2740   55.2860 C   0  0  0  0  0  0
    0.6310   11.6750   55.7670 O   0  0  0  0  0  0
   -0.4500   12.0340   56.6790 C   0  0  0  0  0  0
   -1.7500   11.6440   56.5310 C   0  0  0  0  0  0
   -2.7320   12.0560   57.5340 C   0  0  0  0  0  0
   -2.3260   12.7950   58.5140 N   0  0  0  0  0  0
   -1.0660   13.2130   58.6890 C   0  0  0  0  0  0
   -0.1370   12.8550   57.8180 C   0  0  0  0  0  0
   -0.4930   14.0150   59.7410 N   0  0  0  0  0  0
    0.9310   14.1050   59.4250 C   0  0  0  0  0  0
    1.1620   13.4240   58.2480 C   0  0  0  0  0  0
   -2.9718    0.8785   55.8557 H   0  0  0  0  0  0
   -2.8444    2.4468   53.9794 H   0  0  0  0  0  0
    0.6679   -1.0377   54.4232 H   0  0  0  0  0  0
    0.7491    0.6221   52.5220 H   0  0  0  0  0  0
   -0.0506    2.2904   51.2238 H   0  0  0  0  0  0
   -1.8204    2.5799   51.3266 H   0  0  0  0  0  0
   -1.5675    5.1169   50.9848 H   0  0  0  0  0  0
    0.6810    5.6980   53.9153 H   0  0  0  0  0  0
   -0.2384    8.8827   52.2126 H   0  0  0  0  0  0
    0.9422    6.9582   55.9212 H   0  0  0  0  0  0
    1.1830    9.1913   57.0265 H   0  0  0  0  0  0
   -2.0515   11.0351   55.6787 H   0  0  0  0  0  0
   -3.7751   11.7490   57.4573 H   0  0  0  0  0  0
    1.6093   14.6545   60.0944 H   0  0  0  0  0  0
    2.1173   13.3236   57.7327 H   0  0  0  0  0  0
  1  2  1  0  0  0
  2  3  2  0  0  0
  2  5  1  0  0  0
  3  4  1  0  0  0
  3 32  1  0  0  0
  4  7  2  0  0  0
  4 33  1  0  0  0
  5  6  2  0  0  0
  5 34  1  0  0  0
  6  7  1  0  0  0
  6 35  1  0  0  0
  7  8  1  0  0  0
  8  9  1  0  0  0
  8 36  1  0  0  0
  8 37  1  0  0  0
  9 10  2  0  0  0
  9 11  1  0  0  0
 11 12  1  0  0  0
 11 38  1  0  0  0
 12 13  2  0  0  0
 12 14  1  0  0  0
 14 15  1  0  0  0
 14 39  1  0  0  0
 15 16  2  0  0  0
 15 19  1  0  0  0
 16 17  1  0  0  0
 16 40  1  0  0  0
 17 18  1  0  0  0
 17 21  2  0  0  0
 19 20  2  0  0  0
 19 41  1  0  0  0
 20 21  1  0  0  0
 20 42  1  0  0  0
 21 22  1  0  0  0
 22 23  1  0  0  0
 23 24  2  0  0  0
 23 28  1  0  0  0
 24 25  1  0  0  0
 24 43  1  0  0  0
 25 26  2  0  0  0
 25 44  1  0  0  0
 26 27  1  0  0  0
 27 28  2  0  0  0
 27 29  1  0  0  0
 28 31  1  0  0  0
 29 30  2  0  0  0
 30 31  1  0  0  0
 30 45  1  0  0  0
 31 46  1  0  0  0
M  END
> <s_m_source_file>
../3ctj_ligand.sdf

> <i_m_source_file_index>
1

> <s_epik_input>
RmMxW2NIXVtjSF1jKFtjSF1bY0hdMSlbQ0gyXUMoPU8pW05IXUMoPU8pW05IXWMyW2NIXWMoRiljKFtjSF1bY0hdMilPYyhbY0hdW2NIXW4zKWMoYzM0KVtDSDJdW0NIXT1ONA==

> <s_epik_cmdline>
J2VwaWtfYXBwJywgJy1pbWFlJywgJ2xpZ2FuZF9wcm8ubWFlJywgJy1vbWFlJywgJ2xpZ2FuZF9wcmVwLm1hZScsICctbXMnLCAnMScsICctcGgnLCAnNycsICctcGh0JywgJzAuNScsICctbnQn

> <r_lp_tautomer_probability>
0.99990000499975

> <r_epik_Ionization_Penalty>
  0.0127

> <r_epik_Ionization_Penalty_Charging>
  0.0000

> <r_epik_Ionization_Penalty_Neutral>
  0.0127

> <r_epik_State_Penalty>
  0.0097

> <r_epik_Charging_Adjusted_Penalty>
0.00967933598212745

> <i_epik_Tot_Q>
0

> <i_epik_Tot_abs_Q>
0

> <s_epik_Chemistry_Notes>
This compound has an imine and may undergo hydrolysis.

$$$$
