3ctr_ligand
                    3D
 Schrodinger Suite 2020-3.
 47 49  0  0  1  0            999 V2000
   26.4300   21.0750    0.5890 P   0  0  1  0  0  0
   25.6220   19.9890   -0.0290 O   0  0  0  0  0  0
   26.0950   22.5000    0.2920 O   0  5  0  0  0  0
   26.4290   20.8320    2.1800 O   0  0  0  0  0  0
   27.9960   20.8000    0.2440 O   0  0  0  0  0  0
   27.4430   21.6270    3.1440 P   0  0  2  0  0  0
   27.3080   23.0790    2.8820 O   0  5  0  0  0  0
   28.7760   20.9920    3.0680 O   0  0  0  0  0  0
   26.7930   21.3120    4.5780 O   0  0  0  0  0  0
   26.7610   19.8200    5.1970 P   0  0  0  0  0  0
   28.0990   19.2170    5.4330 O   0  0  0  0  0  0
   25.8340   18.8940    4.2470 O   0  5  0  0  0  0
   25.9290   19.9960    6.5790 O   0  5  0  0  0  0
   28.7450   21.6180   -0.6640 C   0  0  0  0  0  0
   29.5810   20.7880   -1.6500 C   0  0  1  0  0  0
   30.1730   19.6070   -1.0190 O   0  0  0  0  0  0
   28.6940   20.2530   -2.7780 C   0  0  1  0  0  0
   28.6240   21.2390   -3.8260 O   0  0  0  0  0  0
   29.4780   19.0240   -3.2450 C   0  0  1  0  0  0
   30.5400   19.4180   -4.1240 O   0  0  0  0  0  0
   30.0800   18.4850   -1.9320 C   0  0  2  0  0  0
   29.1760   17.4750   -1.3250 N   0  3  0  0  0  0
   28.2650   17.6910   -0.3730 C   0  0  0  0  0  0
   27.6530   16.5410   -0.1130 N   0  0  0  0  0  0
   26.5800   16.4150    0.9050 C   0  0  0  0  0  0
   28.1570   15.5670   -0.8790 C   0  0  0  0  0  0
   27.9340   14.1920   -1.0350 C   0  0  0  0  0  0
   27.0950   13.5790   -0.3710 O   0  0  0  0  0  0
   28.6950   13.4980   -1.9770 N   0  0  0  0  0  0
   29.6610   14.1870   -2.7240 C   0  0  0  0  0  0
   30.4110   13.5580   -3.6230 N   0  0  0  0  0  0
   29.8460   15.4970   -2.5530 N   0  0  0  0  0  0
   29.1360   16.1870   -1.6540 C   0  0  0  0  0  0
   28.0546   22.2439   -1.2484 H   0  0  0  0  0  0
   29.4321   22.2621   -0.0957 H   0  0  0  0  0  0
   30.4008   21.4302   -2.0044 H   0  0  0  0  0  0
   27.6412   20.0610   -2.5235 H   0  0  0  0  0  0
   28.0933   22.1872   -3.6545 H   0  0  0  0  0  0
   28.8955   18.3064   -3.8414 H   0  0  0  0  0  0
   30.3077   19.8306   -5.1169 H   0  0  0  0  0  0
   31.0703   18.0287   -2.0771 H   0  0  0  0  0  0
   28.0588   18.6470    0.1083 H   0  0  0  0  0  0
   26.3921   17.3972    1.3631 H   0  0  0  0  0  0
   26.8935   15.7020    1.6818 H   0  0  0  0  0  0
   25.6594   16.0523    0.4244 H   0  0  0  0  0  0
   30.2826   12.4780   -3.7875 H   0  0  0  0  0  0
   31.1601   14.1174   -4.2026 H   0  0  0  0  0  0
  1  2  2  0  0  0
  1  3  1  0  0  0
  1  4  1  0  0  0
  1  5  1  0  0  0
  4  6  1  0  0  0
  5 14  1  0  0  0
  6  7  1  0  0  0
  6  8  2  0  0  0
  6  9  1  0  0  0
  9 10  1  0  0  0
 10 11  2  0  0  0
 10 12  1  0  0  0
 10 13  1  0  0  0
 14 15  1  0  0  0
 14 34  1  0  0  0
 14 35  1  0  0  0
 15 16  1  0  0  0
 15 17  1  0  0  0
 15 36  1  0  0  0
 16 21  1  0  0  0
 17 18  1  0  0  0
 17 19  1  0  0  0
 17 37  1  0  0  0
 18 38  1  0  0  0
 19 20  1  0  0  0
 19 21  1  0  0  0
 19 39  1  0  0  0
 20 40  1  0  0  0
 21 22  1  0  0  0
 21 41  1  0  0  0
 22 23  2  0  0  0
 22 33  1  0  0  0
 23 24  1  0  0  0
 23 42  1  0  0  0
 24 25  1  0  0  0
 24 26  1  0  0  0
 25 43  1  0  0  0
 25 44  1  0  0  0
 25 45  1  0  0  0
 26 27  1  0  0  0
 26 33  2  0  0  0
 27 28  2  0  0  0
 27 29  1  0  0  0
 29 30  1  0  0  0
 30 31  1  0  0  0
 30 32  2  0  0  0
 31 46  1  0  0  0
 31 47  1  0  0  0
 32 33  1  0  0  0
M  CHG  5   3  -1   7  -1  12  -1  13  -1  22   1
M  END
> <s_m_source_file>
../3ctr_ligand.sdf

> <i_m_source_file_index>
1

> <s_epik_input>
Tz1QKFtPSF0pKFtPSF0pT1tQQF0oPU8pKFtPSF0pT1tQQEBdKD1PKShbT0hdKU9bQ0gyXVtDQEhdMU9bQ0BIXShbQ0BIXShbT0hdKVtDQEBIXTFbT0hdKVtuK10oW2NIXW4yW0NIM10pYyhjMjMpW25IXWMoPU5cW0hdKVxbbkhdYzM9Tw==

> <s_epik_cmdline>
J2VwaWtfYXBwJywgJy1pbWFlJywgJ2xpZ2FuZF9wcm8ubWFlJywgJy1vbWFlJywgJ2xpZ2FuZF9wcmVwLm1hZScsICctbXMnLCAnMScsICctcGgnLCAnNycsICctcGh0JywgJzAuNScsICctbnQn

> <r_epik_Ionization_Penalty>
  0.0815

> <r_epik_Ionization_Penalty_Charging>
  0.0814

> <r_epik_Ionization_Penalty_Neutral>
  0.0002

> <r_epik_State_Penalty>
  0.0708

> <r_epik_Charging_Adjusted_Penalty>
0.152188980951194

> <i_epik_Tot_Q>
-3

> <i_epik_Tot_abs_Q>
5

> <s_epik_Chemistry_Notes>
This compound has an imine and may undergo hydrolysis. This compound contains an acetal/aminal-like group ( X-CH(R)-Y where X, Y are N, S, or O) that may be acid/base labile, releasing an aldehyde.

$$$$
