3ctt_ligand
                    3D
 Schrodinger Suite 2020-3.
 30 31  0  0  1  0            999 V2000
    1.2030  -15.8810   23.4610 O   0  0  0  0  0  0
    0.8370  -16.3910   22.1910 C   0  0  1  0  0  0
    0.9850  -15.2550   21.1710 C   0  0  2  0  0  0
   -0.1130  -15.2920   20.0860 C   0  0  1  0  0  0
   -1.2480  -14.4570   20.3750 O   0  0  0  0  0  0
    0.7050  -14.7420   18.9140 C   0  0  2  0  0  0
    0.0420  -14.9370   17.6800 O   0  0  0  0  0  0
    1.8670  -15.7000   18.9980 C   0  0  1  0  0  0
    3.0530  -15.2750   18.1130 C   0  0  0  0  0  0
    3.3870  -13.9110   18.3650 O   0  0  0  0  0  0
    2.2480  -15.5560   20.4210 N   0  3  2  0  0  0
    2.8580  -16.8060   20.9590 C   0  0  0  0  0  0
    1.7950  -17.5160   21.7440 C   0  0  2  0  0  0
    1.0830  -18.3910   20.8650 O   0  0  0  0  0  0
    0.6156  -15.0714   23.9187 H   0  0  0  0  0  0
   -0.1918  -16.7551   22.3287 H   0  0  0  0  0  0
    0.9739  -14.2924   21.7032 H   0  0  0  0  0  0
   -0.6385  -16.2488   19.9501 H   0  0  0  0  0  0
   -1.9326  -14.7235   21.1937 H   0  0  0  0  0  0
    0.9075  -13.6609   18.9000 H   0  0  0  0  0  0
   -0.8391  -14.3290   17.4269 H   0  0  0  0  0  0
    1.5960  -16.7219   18.6942 H   0  0  0  0  0  0
    3.9239  -15.9080   18.3383 H   0  0  0  0  0  0
    2.7800  -15.3906   17.0537 H   0  0  0  0  0  0
    4.2155  -13.4375   17.8179 H   0  0  0  0  0  0
    3.0009  -14.7601   20.5193 H   0  0  0  0  0  0
    3.2064  -17.4325   20.1247 H   0  0  0  0  0  0
    3.7101  -16.5494   21.6055 H   0  0  0  0  0  0
    2.1961  -18.1504   22.5482 H   0  0  0  0  0  0
    0.2571  -19.0062   21.2515 H   0  0  0  0  0  0
  1  2  1  0  0  0
  1 15  1  0  0  0
  2  3  1  0  0  0
  2 13  1  0  0  0
  2 16  1  0  0  0
  3  4  1  0  0  0
  3 11  1  0  0  0
  3 17  1  0  0  0
  4  5  1  0  0  0
  4  6  1  0  0  0
  4 18  1  0  0  0
  5 19  1  0  0  0
  6  7  1  0  0  0
  6  8  1  0  0  0
  6 20  1  0  0  0
  7 21  1  0  0  0
  8  9  1  0  0  0
  8 11  1  0  0  0
  8 22  1  0  0  0
  9 10  1  0  0  0
  9 23  1  0  0  0
  9 24  1  0  0  0
 10 25  1  0  0  0
 11 12  1  0  0  0
 11 26  1  0  0  0
 12 13  1  0  0  0
 12 27  1  0  0  0
 12 28  1  0  0  0
 13 14  1  0  0  0
 13 29  1  0  0  0
 14 30  1  0  0  0
M  CHG  1  11   1
M  END
> <s_m_source_file>
../3ctt_ligand.sdf

> <i_m_source_file_index>
1

> <s_epik_input>
W09IXVtDQEBIXTFbQ0BASF0oW09IXSlbQ0gyXVtOQEgrXShbQ0BIXTEyKVtDQEhdKFtDSDJdW09IXSlbQ0BASF0oW09IXSlbQ0BASF0yW09IXQ==

> <s_epik_cmdline>
J2VwaWtfYXBwJywgJy1pbWFlJywgJ2xpZ2FuZF9wcm8ubWFlJywgJy1vbWFlJywgJ2xpZ2FuZF9wcmVwLm1hZScsICctbXMnLCAnMScsICctcGgnLCAnNycsICctcGh0JywgJzAuNScsICctbnQn

> <r_epik_Ionization_Penalty>
  0.0426

> <r_epik_Ionization_Penalty_Charging>
  0.0426

> <r_epik_Ionization_Penalty_Neutral>
  0.0000

> <r_epik_State_Penalty>
  0.0360

> <r_epik_Charging_Adjusted_Penalty>
0.0785141709654141

> <i_epik_Tot_Q>
1

> <i_epik_Tot_abs_Q>
1

$$$$
