3cvk_ligand
                    3D
 Schrodinger Suite 2020-3.
 63 66  0  0  1  0            999 V2000
   96.4350    9.1590   57.8710 C   0  0  0  0  0  0
   96.8680    9.5010   60.6470 C   0  0  0  0  0  0
   97.2100    8.2390   58.6060 C   0  0  0  0  0  0
   96.7980    8.4370   54.2290 C   0  0  0  0  0  0
   97.2340    7.5140   53.3350 C   0  0  0  0  0  0
   96.0490    9.6280   53.7070 C   0  0  0  0  0  0
   98.2050    9.6700   51.1150 C   0  0  0  0  0  0
   92.3240   12.0960   51.5320 C   0  0  0  0  0  0
   93.1420   11.1620   49.3430 C   0  0  0  0  0  0
   95.2380   10.8640   51.7300 C   0  0  0  0  0  0
   92.7430   10.8110   50.7930 C   0  0  0  0  0  0
   96.7660    7.1690   62.5740 O   0  0  0  0  0  0
   97.2610    8.4130   63.1350 S   0  0  0  0  0  0
   96.8520    8.8330   64.4600 O   0  0  0  0  0  0
   99.0300    8.2970   63.2280 C   0  0  0  0  0  0
   97.0660    9.7200   62.0470 N   0  0  0  0  0  0
   96.1100   10.4380   59.9290 C   0  0  0  0  0  0
   97.4330    8.3980   59.9870 C   0  0  0  0  0  0
   97.8950    6.8440   57.7830 S   0  0  0  0  0  0
   99.2780    6.7230   58.1690 O   0  0  0  0  0  0
   96.9620    5.7710   58.0140 O   0  0  0  0  0  0
   97.8400    7.3260   56.1530 N   0  0  0  0  0  0
   96.9140    8.3150   55.7020 C   0  0  0  0  0  0
   96.1800    9.0630   56.4880 N   0  0  0  0  0  0
   95.9000   10.2730   58.5560 C   0  0  0  0  0  0
   95.3520   10.2740   54.5030 O   0  0  0  0  0  0
   96.1000    9.8770   52.3410 N   0  0  0  0  0  0
   96.8780    9.1220   51.4500 N   0  0  2  0  0  0
   98.7620    8.5280   50.2840 C   0  0  0  0  0  0
   97.0310    7.7030   51.8340 C   0  0  1  0  0  0
   98.2010    7.2700   50.9360 C   0  0  0  0  0  0
   97.8450    6.3250   53.6670 O   0  0  0  0  0  0
   93.9260   10.1200   51.5080 C   0  0  0  0  0  0
   91.5510    9.8380   50.7420 C   0  0  0  0  0  0
   98.0832   10.6101   50.5570 H   0  0  0  0  0  0
   98.7663    9.8634   52.0410 H   0  0  0  0  0  0
   93.1752   12.7918   51.5689 H   0  0  0  0  0  0
   92.0113   11.8445   52.5562 H   0  0  0  0  0  0
   91.4864   12.5692   50.9986 H   0  0  0  0  0  0
   93.9939   11.8578   49.3554 H   0  0  0  0  0  0
   92.2899   11.6346   48.8324 H   0  0  0  0  0  0
   93.4264   10.2436   48.8084 H   0  0  0  0  0  0
   95.1195   11.7194   52.4114 H   0  0  0  0  0  0
   95.6852   11.2070   50.7853 H   0  0  0  0  0  0
   99.3085    7.4790   63.9086 H   0  0  0  0  0  0
   99.4402    9.2448   63.6067 H   0  0  0  0  0  0
   99.4374    8.0953   62.2263 H   0  0  0  0  0  0
   97.0916   10.7545   62.4199 H   0  0  0  0  0  0
   95.6827   11.2987   60.4435 H   0  0  0  0  0  0
   98.0359    7.6748   60.5362 H   0  0  0  0  0  0
   95.3166   11.0128   58.0078 H   0  0  0  0  0  0
   98.4253    8.6344   49.2422 H   0  0  0  0  0  0
   99.8612    8.5517   50.3182 H   0  0  0  0  0  0
   96.1203    7.1081   51.6705 H   0  0  0  0  0  0
   97.8529    6.5769   50.1560 H   0  0  0  0  0  0
   98.9870    6.7849   51.5334 H   0  0  0  0  0  0
   94.1115    9.2237   50.8978 H   0  0  0  0  0  0
   93.5048    9.8216   52.4793 H   0  0  0  0  0  0
   90.7039   10.3223   50.2342 H   0  0  0  0  0  0
   91.2569    9.5645   51.7661 H   0  0  0  0  0  0
   91.8406    8.9321   50.1893 H   0  0  0  0  0  0
   95.3462    9.6251   56.0422 H   0  0  0  0  0  0
   98.0414    6.0833   54.7220 H   0  0  0  0  0  0
  1  3  2  0  0  0
  1 24  1  0  0  0
  1 25  1  0  0  0
  2 16  1  0  0  0
  2 17  1  0  0  0
  2 18  2  0  0  0
  3 18  1  0  0  0
  3 19  1  0  0  0
  4  5  2  0  0  0
  4  6  1  0  0  0
  4 23  1  0  0  0
  5 30  1  0  0  0
  5 32  1  0  0  0
  6 26  2  0  0  0
  6 27  1  0  0  0
  7 28  1  0  0  0
  7 29  1  0  0  0
  7 35  1  0  0  0
  7 36  1  0  0  0
  8 11  1  0  0  0
  8 37  1  0  0  0
  8 38  1  0  0  0
  8 39  1  0  0  0
  9 11  1  0  0  0
  9 40  1  0  0  0
  9 41  1  0  0  0
  9 42  1  0  0  0
 10 27  1  0  0  0
 10 33  1  0  0  0
 10 43  1  0  0  0
 10 44  1  0  0  0
 11 33  1  0  0  0
 11 34  1  0  0  0
 12 13  2  0  0  0
 13 14  2  0  0  0
 13 15  1  0  0  0
 13 16  1  0  0  0
 15 45  1  0  0  0
 15 46  1  0  0  0
 15 47  1  0  0  0
 16 48  1  0  0  0
 17 25  2  0  0  0
 17 49  1  0  0  0
 18 50  1  0  0  0
 19 20  2  0  0  0
 19 21  2  0  0  0
 19 22  1  0  0  0
 22 23  2  0  0  0
 23 24  1  0  0  0
 24 62  1  0  0  0
 25 51  1  0  0  0
 27 28  1  0  0  0
 28 30  1  0  0  0
 29 31  1  0  0  0
 29 52  1  0  0  0
 29 53  1  0  0  0
 30 31  1  0  0  0
 30 54  1  0  0  0
 31 55  1  0  0  0
 31 56  1  0  0  0
 32 63  1  0  0  0
 33 57  1  0  0  0
 33 58  1  0  0  0
 34 59  1  0  0  0
 34 60  1  0  0  0
 34 61  1  0  0  0
M  END
> <s_m_source_file>
../3cvk_ligand.sdf

> <i_m_source_file_index>
1

> <s_epik_input>
Tz1TKD1PKShbQ0gzXSlbTkhdYyhbY0hdW2NIXTEpW2NIXWMoYzEyKVMoPU8pKD1PKVtOSF1DKD1OMilDKD1DKFtPSF0pW0NAQEhdKFtOQEgrXTM0KVtDSDJdW0NIMl1bQ0gyXTMpQyg9TylONFtDSDJdW0NIMl1DKFtDSDNdKShbQ0gzXSlbQ0gzXQ==

> <s_epik_cmdline>
J2VwaWtfYXBwJywgJy1pbWFlJywgJ2xpZ2FuZF9wcm8ubWFlJywgJy1vbWFlJywgJ2xpZ2FuZF9wcmVwLm1hZScsICctbXMnLCAnMScsICctcGgnLCAnNycsICctcGh0JywgJzAuNScsICctbnQn

> <r_lp_tautomer_probability>
1

> <r_epik_Ionization_Penalty>
  1.9345

> <r_epik_Ionization_Penalty_Charging>
  0.0000

> <r_epik_Ionization_Penalty_Neutral>
  1.9345

> <r_epik_State_Penalty>
 -0.0000

> <r_epik_Charging_Adjusted_Penalty>
0

> <i_epik_Tot_Q>
0

> <i_epik_Tot_abs_Q>
0

> <s_epik_Chemistry_Notes>
This compound has an imine and may undergo hydrolysis.

$$$$
