3cwj_ligand
                    3D
 Schrodinger Suite 2020-3.
 57 60  0  0  1  0            999 V2000
   96.5110    7.0590   61.9250 O   0  0  0  0  0  0
   97.0080    8.4050   62.1440 S   0  0  0  0  0  0
   96.9420    9.0150   63.4540 O   0  0  0  0  0  0
   98.7340    8.4720   61.7140 C   0  0  0  0  0  0
   96.2890    9.4970   61.0230 N   0  5  0  0  0  0
   96.2290    9.2790   59.6070 C   0  0  0  0  0  0
   95.6680   10.3150   58.8560 C   0  0  0  0  0  0
   96.6880    8.1140   58.9620 C   0  0  0  0  0  0
   96.5820    8.0070   57.5620 C   0  0  0  0  0  0
   97.1450    6.5410   56.7240 S   0  0  0  0  0  0
   96.2700    5.4570   57.1220 O   0  0  0  0  0  0
   98.5790    6.4320   56.9120 O   0  0  0  0  0  0
   96.8500    6.8070   55.0480 C   0  0  0  0  0  0
   96.2750    7.9470   54.6230 C   0  0  0  0  0  0
   95.8900    8.9960   55.4260 N   0  0  0  0  0  0
   96.0150    9.0540   56.8120 C   0  0  0  0  0  0
   95.5640   10.2060   57.4690 C   0  0  0  0  0  0
   96.0530    8.1330   53.2040 C   0  0  0  0  0  0
   96.6560    7.4100   52.2340 C   0  0  0  0  0  0
   97.3750    6.2520   52.4760 O   0  5  0  0  0  0
   95.1310    9.2490   52.7820 C   0  0  0  0  0  0
   94.4730    9.8750   53.6280 O   0  0  0  0  0  0
   95.0750    9.5260   51.4160 N   0  0  0  0  0  0
   94.3680   10.7040   50.9280 C   0  0  0  0  0  0
   92.8780   10.4470   50.6920 C   0  0  0  0  0  0
   92.5170    9.1910   49.8640 C   0  0  0  0  0  0
   91.0430    8.8000   49.9780 C   0  0  0  0  0  0
   92.8740    9.3670   48.3810 C   0  0  0  0  0  0
   95.8970    8.9430   50.4920 N   0  0  0  0  0  0
   96.5630    7.8820   50.8290 C   0  0  0  0  0  0
   97.4570    7.2760   49.8390 C   0  0  0  0  0  0
   97.9510    5.9920   49.7800 C   0  0  0  0  0  0
   98.0300    8.2470   48.5570 S   0  0  0  0  0  0
   98.9400    6.9530   47.9100 C   0  0  0  0  0  0
   98.8050    5.8080   48.6590 C   0  0  0  0  0  0
   99.3029    7.8022   62.3755 H   0  0  0  0  0  0
   99.1014    9.5022   61.8314 H   0  0  0  0  0  0
   98.8642    8.1531   60.6693 H   0  0  0  0  0  0
   95.3093   11.2142   59.3569 H   0  0  0  0  0  0
   97.1225    7.3005   59.5429 H   0  0  0  0  0  0
   97.1373    6.0321   54.3221 H   0  0  0  0  0  0
   95.4371    9.8933   54.9791 H   0  0  0  0  0  0
   95.1290   11.0226   56.8928 H   0  0  0  0  0  0
   94.4559   11.5159   51.6650 H   0  0  0  0  0  0
   94.8083   11.0265   49.9730 H   0  0  0  0  0  0
   92.3691   10.3256   51.6596 H   0  0  0  0  0  0
   92.4400   11.2992   50.1518 H   0  0  0  0  0  0
   93.1128    8.3705   50.2904 H   0  0  0  0  0  0
   90.7786    8.6718   51.0380 H   0  0  0  0  0  0
   90.8715    7.8557   49.4405 H   0  0  0  0  0  0
   90.4186    9.5913   49.5375 H   0  0  0  0  0  0
   93.9334    9.6485   48.2898 H   0  0  0  0  0  0
   92.2457   10.1570   47.9439 H   0  0  0  0  0  0
   92.6986    8.4215   47.8469 H   0  0  0  0  0  0
   97.7158    5.2122   50.5044 H   0  0  0  0  0  0
   99.5534    7.0266   47.0120 H   0  0  0  0  0  0
   99.2974    4.8654   48.4200 H   0  0  0  0  0  0
  1  2  2  0  0  0
  2  3  2  0  0  0
  2  4  1  0  0  0
  2  5  1  0  0  0
  4 36  1  0  0  0
  4 37  1  0  0  0
  4 38  1  0  0  0
  5  6  1  0  0  0
  6  7  2  0  0  0
  6  8  1  0  0  0
  7 17  1  0  0  0
  7 39  1  0  0  0
  8  9  2  0  0  0
  8 40  1  0  0  0
  9 10  1  0  0  0
  9 16  1  0  0  0
 10 11  2  0  0  0
 10 12  2  0  0  0
 10 13  1  0  0  0
 13 14  2  0  0  0
 13 41  1  0  0  0
 14 15  1  0  0  0
 14 18  1  0  0  0
 15 16  1  0  0  0
 15 42  1  0  0  0
 16 17  2  0  0  0
 17 43  1  0  0  0
 18 19  2  0  0  0
 18 21  1  0  0  0
 19 20  1  0  0  0
 19 30  1  0  0  0
 21 22  2  0  0  0
 21 23  1  0  0  0
 23 24  1  0  0  0
 23 29  1  0  0  0
 24 25  1  0  0  0
 24 44  1  0  0  0
 24 45  1  0  0  0
 25 26  1  0  0  0
 25 46  1  0  0  0
 25 47  1  0  0  0
 26 27  1  0  0  0
 26 28  1  0  0  0
 26 48  1  0  0  0
 27 49  1  0  0  0
 27 50  1  0  0  0
 27 51  1  0  0  0
 28 52  1  0  0  0
 28 53  1  0  0  0
 28 54  1  0  0  0
 29 30  2  0  0  0
 30 31  1  0  0  0
 31 32  2  0  0  0
 31 33  1  0  0  0
 32 35  1  0  0  0
 32 55  1  0  0  0
 33 34  1  0  0  0
 34 35  2  0  0  0
 34 56  1  0  0  0
 35 57  1  0  0  0
M  CHG  2   5  -1  20  -1
M  END
> <s_m_source_file>
../3cwj_ligand.sdf

> <i_m_source_file_index>
1

> <s_epik_input>
Tz1TKD1PKShbQ0gzXSlbTkhdYyhbY0hdMSlbY0hdW2NIXWMoYzEyKVtOSF1DKD1bQ0hdUzIoPU8pPU8pYzNjKFtPSF0pYygtYzRbY0hdW2NIXVtjSF1zNClubihjMz1PKVtDSDJdW0NIMl1bQ0hdKFtDSDNdKVtDSDNd

> <s_epik_cmdline>
J2VwaWtfYXBwJywgJy1pbWFlJywgJ2xpZ2FuZF9wcm8ubWFlJywgJy1vbWFlJywgJ2xpZ2FuZF9wcmVwLm1hZScsICctbXMnLCAnMScsICctcGgnLCAnNycsICctcGh0JywgJzAuNScsICctbnQn

> <r_epik_Ionization_Penalty>
  0.2597

> <r_epik_Ionization_Penalty_Charging>
  0.2585

> <r_epik_Ionization_Penalty_Neutral>
  0.0012

> <r_epik_State_Penalty>
  0.2501

> <r_epik_Charging_Adjusted_Penalty>
0.508661302343635

> <i_epik_Tot_Q>
-2

> <i_epik_Tot_abs_Q>
2

$$$$
