3cwk_ligand
                    3D
 Schrodinger Suite 2020-3.
 49 49  0  0  1  0            999 V2000
   22.0920   27.8830   16.4930 C   0  0  0  0  0  0
   20.9680   28.5570   15.6480 C   0  0  0  0  0  0
   20.2340   27.6050   14.6950 C   0  0  0  0  0  0
   19.5760   26.4760   15.4410 C   0  0  0  0  0  0
   20.4920   25.9110   16.5100 C   0  0  0  0  0  0
   21.6070   26.5590   17.0100 C   0  0  0  0  0  0
   22.4990   25.9570   18.0310 C   0  0  0  0  0  0
   22.0180   25.3630   19.2100 C   0  0  0  0  0  0
   22.8780   24.6790   20.1590 C   0  0  0  0  0  0
   22.1580   24.0250   21.2330 C   0  0  0  0  0  0
   22.8650   23.3470   22.2870 C   0  0  0  0  0  0
   21.9490   22.7730   23.2670 C   0  0  0  0  0  0
   22.4290   21.9920   24.3450 C   0  0  0  0  0  0
   21.4150   21.6930   25.2830 C   0  0  0  0  0  0
   21.6120   20.8450   26.4310 C   0  0  0  0  0  0
   22.4820   28.7450   17.6950 C   0  0  0  0  0  0
   23.3800   27.6340   15.6920 C   0  0  0  0  0  0
   20.0660   24.5640   16.9830 C   0  0  0  0  0  0
   24.3620   24.6900   20.0420 C   0  0  0  0  0  0
   23.8480   21.6100   24.3900 C   0  0  0  0  0  0
   22.4980   19.9380   26.3950 O   0  0  0  0  0  0
   20.8260   21.0520   27.4230 O   0  5  0  0  0  0
   20.2100   28.9847   16.3207 H   0  0  0  0  0  0
   21.4030   29.3566   15.0304 H   0  0  0  0  0  0
   19.4574   28.1601   14.1484 H   0  0  0  0  0  0
   20.9515   27.1775   13.9792 H   0  0  0  0  0  0
   18.6586   26.8420   15.9252 H   0  0  0  0  0  0
   19.3224   25.6698   14.7369 H   0  0  0  0  0  0
   23.5806   25.9896   17.8332 H   0  0  0  0  0  0
   20.9449   25.4040   19.4483 H   0  0  0  0  0  0
   21.0583   24.0432   21.2489 H   0  0  0  0  0  0
   23.9512   23.2292   22.4144 H   0  0  0  0  0  0
   20.8664   22.9447   23.1746 H   0  0  0  0  0  0
   20.4075   22.1163   25.1575 H   0  0  0  0  0  0
   21.5890   28.9518   18.3030 H   0  0  0  0  0  0
   22.9127   29.6935   17.3417 H   0  0  0  0  0  0
   23.2247   28.2095   18.3046 H   0  0  0  0  0  0
   23.1507   27.0149   14.8122 H   0  0  0  0  0  0
   24.1115   27.1125   16.3268 H   0  0  0  0  0  0
   23.7995   28.5964   15.3638 H   0  0  0  0  0  0
   19.1583   24.2560   16.4433 H   0  0  0  0  0  0
   19.8554   24.6039   18.0619 H   0  0  0  0  0  0
   20.8698   23.8375   16.7930 H   0  0  0  0  0  0
   24.6547   25.2512   19.1423 H   0  0  0  0  0  0
   24.7315   23.6567   19.9660 H   0  0  0  0  0  0
   24.7963   25.1703   20.9312 H   0  0  0  0  0  0
   24.3624   22.0050   23.5015 H   0  0  0  0  0  0
   23.9322   20.5133   24.4052 H   0  0  0  0  0  0
   24.3111   22.0259   25.2970 H   0  0  0  0  0  0
  1  2  1  0  0  0
  1  6  1  0  0  0
  1 16  1  0  0  0
  1 17  1  0  0  0
  2  3  1  0  0  0
  2 23  1  0  0  0
  2 24  1  0  0  0
  3  4  1  0  0  0
  3 25  1  0  0  0
  3 26  1  0  0  0
  4  5  1  0  0  0
  4 27  1  0  0  0
  4 28  1  0  0  0
  5  6  2  0  0  0
  5 18  1  0  0  0
  6  7  1  0  0  0
  7  8  2  0  0  0
  7 29  1  0  0  0
  8  9  1  0  0  0
  8 30  1  0  0  0
  9 10  2  0  0  0
  9 19  1  0  0  0
 10 11  1  0  0  0
 10 31  1  0  0  0
 11 12  2  0  0  0
 11 32  1  0  0  0
 12 13  1  0  0  0
 12 33  1  0  0  0
 13 14  2  0  0  0
 13 20  1  0  0  0
 14 15  1  0  0  0
 14 34  1  0  0  0
 15 21  2  0  0  0
 15 22  1  0  0  0
 16 35  1  0  0  0
 16 36  1  0  0  0
 16 37  1  0  0  0
 17 38  1  0  0  0
 17 39  1  0  0  0
 17 40  1  0  0  0
 18 41  1  0  0  0
 18 42  1  0  0  0
 18 43  1  0  0  0
 19 44  1  0  0  0
 19 45  1  0  0  0
 19 46  1  0  0  0
 20 47  1  0  0  0
 20 48  1  0  0  0
 20 49  1  0  0  0
M  CHG  1  22  -1
M  END
> <s_m_source_file>
../3cwk_ligand.sdf

> <i_m_source_file_index>
1

> <s_epik_input>
W0NIM11DMShbQ0gzXSlbQ0gyXVtDSDJdW0NIMl1DKFtDSDNdKT1DMS9bQ0hdPVtDSF0vQyhbQ0gzXSk9W0NIXS9bQ0hdPVtDSF0vQyhbQ0gzXSk9W0NIXS9DKD1PKVtPSF0=

> <s_epik_cmdline>
J2VwaWtfYXBwJywgJy1pbWFlJywgJ2xpZ2FuZF9wcm8ubWFlJywgJy1vbWFlJywgJ2xpZ2FuZF9wcmVwLm1hZScsICctbXMnLCAnMScsICctcGgnLCAnNycsICctcGh0JywgJzAuNScsICctbnQn

> <r_lp_tautomer_probability>
1

> <r_epik_Ionization_Penalty>
  0.0057

> <r_epik_Ionization_Penalty_Charging>
  0.0057

> <r_epik_Ionization_Penalty_Neutral>
  0.0000

> <r_epik_State_Penalty>
 -0.0000

> <r_epik_Charging_Adjusted_Penalty>
0.00570698066260046

> <i_epik_Tot_Q>
-1

> <i_epik_Tot_abs_Q>
1

$$$$
