3cx9_ligand
                    3D
 Schrodinger Suite 2020-3.
 74 73  0  0  1  0            999 V2000
  -35.4210    4.8070  -11.6010 O   0  0  0  0  0  0
  -35.6910    3.9310  -10.8000 C   0  0  0  0  0  0
  -35.2770    2.5850  -11.1260 O   0  0  0  0  0  0
  -36.1400    1.5170  -10.7890 C   0  0  0  0  0  0
  -35.5930    0.2200  -11.3620 C   0  0  2  0  0  0
  -34.2390    0.4190  -11.7650 O   0  0  0  0  0  0
  -36.3600   -0.2430  -12.5770 C   0  0  0  0  0  0
  -35.4600   -0.3420  -13.6600 O   0  0  0  0  0  0
  -35.8160    0.1040  -15.1680 P   0  0  2  0  0  0
  -35.6090   -1.0510  -16.1590 O   0  5  0  0  0  0
  -34.6810    1.2140  -15.4690 O   0  0  0  0  0  0
  -34.9800    2.3030  -16.3390 C   0  0  0  0  0  0
  -33.6880    2.8050  -16.9570 C   0  0  0  0  0  0
  -33.1750    1.7950  -17.8640 N   0  3  0  0  0  0
  -37.1620    0.8070  -15.1290 O   0  0  0  0  0  0
  -36.4440    4.2630   -9.5260 C   0  0  0  0  0  0
  -36.9570    5.7100   -9.5640 C   0  0  0  0  0  0
  -36.0250    6.7690   -8.9820 C   0  0  0  0  0  0
  -34.5840    6.3180   -8.8040 C   0  0  0  0  0  0
  -34.1040    6.6610   -7.4240 C   0  0  0  0  0  0
  -33.1630    7.8380   -7.4880 C   0  0  0  0  0  0
  -31.8530    7.4570   -6.8370 C   0  0  0  0  0  0
  -30.6410    7.5710   -7.7410 C   0  0  0  0  0  0
  -30.1820    6.1720   -8.1550 C   0  0  0  0  0  0
  -28.8070    6.1590   -8.8370 C   0  0  0  0  0  0
  -28.5010    5.1270   -9.8960 C   0  0  0  0  0  0
  -29.7530    4.3900  -10.3530 C   0  0  0  0  0  0
  -29.5220    2.8810  -10.3110 C   0  0  0  0  0  0
  -30.7760    2.1280   -9.9010 C   0  0  0  0  0  0
  -31.8390    2.9860   -9.2150 C   0  0  0  0  0  0
  -36.2091    1.4328   -9.6944 H   0  0  0  0  0  0
  -37.1399    1.7080  -11.2058 H   0  0  0  0  0  0
  -35.6229   -0.5530  -10.5800 H   0  0  0  0  0  0
  -33.4919    0.7603  -11.0333 H   0  0  0  0  0  0
  -36.8128   -1.2244  -12.3727 H   0  0  0  0  0  0
  -37.1514    0.4845  -12.8103 H   0  0  0  0  0  0
  -35.6640    1.9628  -17.1305 H   0  0  0  0  0  0
  -35.4568    3.1110  -15.7646 H   0  0  0  0  0  0
  -33.8834    3.7356  -17.5100 H   0  0  0  0  0  0
  -32.9523    2.9983  -16.1624 H   0  0  0  0  0  0
  -32.2378    2.1509  -18.3168 H   0  0  0  0  0  0
  -33.9147    1.6030  -18.6552 H   0  0  0  0  0  0
  -32.9836    0.8657  -17.3075 H   0  0  0  0  0  0
  -37.3021    3.5830   -9.4195 H   0  0  0  0  0  0
  -35.7732    4.1449   -8.6622 H   0  0  0  0  0  0
  -37.1405    6.0067  -10.6072 H   0  0  0  0  0  0
  -37.8939    5.7820   -8.9921 H   0  0  0  0  0  0
  -36.0043    7.6448   -9.6473 H   0  0  0  0  0  0
  -36.3885    7.0716   -7.9889 H   0  0  0  0  0  0
  -34.5200    5.2294   -8.9487 H   0  0  0  0  0  0
  -33.9472    6.8243   -9.5443 H   0  0  0  0  0  0
  -34.9651    6.9180   -6.7896 H   0  0  0  0  0  0
  -33.5766    5.7968   -6.9938 H   0  0  0  0  0  0
  -32.9890    8.1116   -8.5391 H   0  0  0  0  0  0
  -33.6072    8.6920   -6.9556 H   0  0  0  0  0  0
  -31.6686    8.1124   -5.9731 H   0  0  0  0  0  0
  -31.9016    6.4110   -6.4999 H   0  0  0  0  0  0
  -30.9055    8.1509   -8.6375 H   0  0  0  0  0  0
  -29.8281    8.0796   -7.2020 H   0  0  0  0  0  0
  -30.1153    5.5295   -7.2646 H   0  0  0  0  0  0
  -30.9062    5.7431   -8.8632 H   0  0  0  0  0  0
  -28.6409    7.1201   -9.3457 H   0  0  0  0  0  0
  -28.0238    6.0045   -8.0802 H   0  0  0  0  0  0
  -28.0546    5.6213  -10.7715 H   0  0  0  0  0  0
  -27.7944    4.3865   -9.4931 H   0  0  0  0  0  0
  -30.5915    4.6444   -9.6880 H   0  0  0  0  0  0
  -29.9985    4.6880  -11.3830 H   0  0  0  0  0  0
  -29.2187    2.5286  -11.3079 H   0  0  0  0  0  0
  -28.7289    2.6515   -9.5841 H   0  0  0  0  0  0
  -31.2478    1.6887  -10.7923 H   0  0  0  0  0  0
  -30.5088    1.3275   -9.1954 H   0  0  0  0  0  0
  -32.7050    2.3592   -8.9560 H   0  0  0  0  0  0
  -32.1579    3.7887   -9.8961 H   0  0  0  0  0  0
  -31.4189    3.4275   -8.2992 H   0  0  0  0  0  0
  1  2  2  0  0  0
  2  3  1  0  0  0
  2 16  1  0  0  0
  3  4  1  0  0  0
  4  5  1  0  0  0
  4 31  1  0  0  0
  4 32  1  0  0  0
  5  6  1  0  0  0
  5  7  1  0  0  0
  5 33  1  0  0  0
  6 34  1  0  0  0
  7  8  1  0  0  0
  7 35  1  0  0  0
  7 36  1  0  0  0
  8  9  1  0  0  0
  9 10  1  0  0  0
  9 11  1  0  0  0
  9 15  2  0  0  0
 11 12  1  0  0  0
 12 13  1  0  0  0
 12 37  1  0  0  0
 12 38  1  0  0  0
 13 14  1  0  0  0
 13 39  1  0  0  0
 13 40  1  0  0  0
 14 41  1  0  0  0
 14 42  1  0  0  0
 14 43  1  0  0  0
 16 17  1  0  0  0
 16 44  1  0  0  0
 16 45  1  0  0  0
 17 18  1  0  0  0
 17 46  1  0  0  0
 17 47  1  0  0  0
 18 19  1  0  0  0
 18 48  1  0  0  0
 18 49  1  0  0  0
 19 20  1  0  0  0
 19 50  1  0  0  0
 19 51  1  0  0  0
 20 21  1  0  0  0
 20 52  1  0  0  0
 20 53  1  0  0  0
 21 22  1  0  0  0
 21 54  1  0  0  0
 21 55  1  0  0  0
 22 23  1  0  0  0
 22 56  1  0  0  0
 22 57  1  0  0  0
 23 24  1  0  0  0
 23 58  1  0  0  0
 23 59  1  0  0  0
 24 25  1  0  0  0
 24 60  1  0  0  0
 24 61  1  0  0  0
 25 26  1  0  0  0
 25 62  1  0  0  0
 25 63  1  0  0  0
 26 27  1  0  0  0
 26 64  1  0  0  0
 26 65  1  0  0  0
 27 28  1  0  0  0
 27 66  1  0  0  0
 27 67  1  0  0  0
 28 29  1  0  0  0
 28 68  1  0  0  0
 28 69  1  0  0  0
 29 30  1  0  0  0
 29 70  1  0  0  0
 29 71  1  0  0  0
 30 72  1  0  0  0
 30 73  1  0  0  0
 30 74  1  0  0  0
M  CHG  2  10  -1  14   1
M  END
> <s_m_source_file>
../3cx9_ligand.sdf

> <i_m_source_file_index>
1

> <s_epik_input>
W05IMytdW0NIMl1bQ0gyXU9bUEBAXSg9TykoW09IXSlPW0NIMl1bQ0BASF0oW09IXSlbQ0gyXU9DKD1PKVtDSDJdW0NIMl1bQ0gyXVtDSDJdW0NIMl1bQ0gyXVtDSDJdW0NIMl1bQ0gyXVtDSDJdW0NIMl1bQ0gyXVtDSDJdW0NIMl1bQ0gzXQ==

> <s_epik_cmdline>
J2VwaWtfYXBwJywgJy1pbWFlJywgJ2xpZ2FuZF9wcm8ubWFlJywgJy1vbWFlJywgJ2xpZ2FuZF9wcmVwLm1hZScsICctbXMnLCAnMScsICctcGgnLCAnNycsICctcGh0JywgJzAuNScsICctbnQn

> <r_lp_tautomer_probability>
1

> <r_epik_Ionization_Penalty>
  0.0064

> <r_epik_Ionization_Penalty_Charging>
  0.0064

> <r_epik_Ionization_Penalty_Neutral>
  0.0000

> <r_epik_State_Penalty>
 -0.0000

> <r_epik_Charging_Adjusted_Penalty>
0.00635008088649805

> <i_epik_Tot_Q>
0

> <i_epik_Tot_abs_Q>
2

> <s_epik_Chemistry_Notes>
This compound has an ester and may undergo hydrolysis at high or low pH.

$$$$
