3cy2_ligand
                    3D
 Schrodinger Suite 2020-3.
 41 44  0  0  1  0            999 V2000
  -15.2530   33.8740   -0.9240 C   0  0  0  0  0  0
  -14.2000   33.6230   -2.0040 C   0  0  0  0  0  0
  -13.4230   34.8480   -2.3740 N   0  3  0  0  0  0
  -14.2590   36.0250   -2.6530 C   0  0  0  0  0  0
  -15.2080   36.3140   -1.4960 C   0  0  0  0  0  0
  -16.0930   35.0950   -1.1610 C   0  0  0  0  0  0
  -16.8920   34.8570   -2.3860 N   0  0  0  0  0  0
  -17.9550   35.6860   -2.6860 C   0  0  0  0  0  0
  -18.5440   35.4660   -3.7410 O   0  0  0  0  0  0
  -18.5060   36.5040   -1.7050 C   0  0  0  0  0  0
  -19.4870   37.4110   -1.7260 N   0  0  0  0  0  0
  -20.1970   37.8450   -2.9460 C   0  0  0  0  0  0
  -19.7150   37.9170   -0.5110 C   0  0  0  0  0  0
  -20.5910   38.9050   -0.0520 C   0  0  0  0  0  0
  -20.5930   39.2020    1.3070 C   0  0  0  0  0  0
  -21.7020   40.4050    1.8770 Cl  0  0  0  0  0  0
  -19.7360   38.5580    2.2070 C   0  0  0  0  0  0
  -18.8340   37.6140    1.7360 C   0  0  0  0  0  0
  -18.8260   37.2980    0.3820 C   0  0  0  0  0  0
  -18.0600   36.4020   -0.3700 C   0  0  0  0  0  0
  -16.9520   35.4290    0.0470 C   0  0  1  0  0  0
  -17.5610   34.2210    0.6310 C   0  0  0  0  0  0
  -18.0560   33.2890    1.0380 N   0  0  0  0  0  0
  -15.9376   33.0145   -0.8726 H   0  0  0  0  0  0
  -14.7565   34.0059    0.0486 H   0  0  0  0  0  0
  -13.4807   32.8713   -1.6470 H   0  0  0  0  0  0
  -14.6915   33.2557   -2.9170 H   0  0  0  0  0  0
  -12.7483   35.1176   -1.5481 H   0  0  0  0  0  0
  -12.8319   34.6476   -3.2798 H   0  0  0  0  0  0
  -13.6154   36.9037   -2.8067 H   0  0  0  0  0  0
  -14.8556   35.8445   -3.5593 H   0  0  0  0  0  0
  -14.6253   36.5738   -0.5999 H   0  0  0  0  0  0
  -15.8655   37.1547   -1.7623 H   0  0  0  0  0  0
  -16.6380   34.0212   -3.0546 H   0  0  0  0  0  0
  -19.8246   37.2743   -3.8095 H   0  0  0  0  0  0
  -20.0195   38.9179   -3.1114 H   0  0  0  0  0  0
  -21.2757   37.6660   -2.8257 H   0  0  0  0  0  0
  -21.2545   39.4285   -0.7403 H   0  0  0  0  0  0
  -19.7767   38.7961    3.2699 H   0  0  0  0  0  0
  -18.1397   37.1259    2.4199 H   0  0  0  0  0  0
  -16.3074   35.8565    0.8291 H   0  0  0  0  0  0
  1  2  1  0  0  0
  1  6  1  0  0  0
  1 24  1  0  0  0
  1 25  1  0  0  0
  2  3  1  0  0  0
  2 26  1  0  0  0
  2 27  1  0  0  0
  3  4  1  0  0  0
  3 28  1  0  0  0
  3 29  1  0  0  0
  4  5  1  0  0  0
  4 30  1  0  0  0
  4 31  1  0  0  0
  5  6  1  0  0  0
  5 32  1  0  0  0
  5 33  1  0  0  0
  6  7  1  0  0  0
  6 21  1  0  0  0
  7  8  1  0  0  0
  7 34  1  0  0  0
  8  9  2  0  0  0
  8 10  1  0  0  0
 10 11  1  0  0  0
 10 20  2  0  0  0
 11 12  1  0  0  0
 11 13  1  0  0  0
 12 35  1  0  0  0
 12 36  1  0  0  0
 12 37  1  0  0  0
 13 14  1  0  0  0
 13 19  2  0  0  0
 14 15  2  0  0  0
 14 38  1  0  0  0
 15 16  1  0  0  0
 15 17  1  0  0  0
 17 18  2  0  0  0
 17 39  1  0  0  0
 18 19  1  0  0  0
 18 40  1  0  0  0
 19 20  1  0  0  0
 20 21  1  0  0  0
 21 22  1  0  0  0
 21 41  1  0  0  0
 22 23  3  0  0  0
M  CHG  1   3   1
M  END
> <s_m_source_file>
../3cy2_ligand.sdf

> <i_m_source_file_index>
1

> <s_epik_input>
W0NIMl0xW0NIMl1bTkgyK11bQ0gyXVtDSDJdQzEyW05IXUMoPU8pYzNjKFtDQEhdMkMjTiljNGMobjNbQ0gzXSlbY0hdYyhDbClbY0hdW2NIXTQ=

> <s_epik_cmdline>
J2VwaWtfYXBwJywgJy1pbWFlJywgJ2xpZ2FuZF9wcm8ubWFlJywgJy1vbWFlJywgJ2xpZ2FuZF9wcmVwLm1hZScsICctbXMnLCAnMScsICctcGgnLCAnNycsICctcGh0JywgJzAuNScsICctbnQn

> <r_lp_tautomer_probability>
1

> <r_epik_Ionization_Penalty>
  0.0005

> <r_epik_Ionization_Penalty_Charging>
  0.0005

> <r_epik_Ionization_Penalty_Neutral>
  0.0000

> <r_epik_State_Penalty>
 -0.0000

> <r_epik_Charging_Adjusted_Penalty>
0.000456824275557716

> <i_epik_Tot_Q>
1

> <i_epik_Tot_abs_Q>
1

$$$$
