3cyy_ligand
                    3D
 Schrodinger Suite 2020-3.
158159  0  0  1  0            999 V2000
   -3.3330    2.7320   25.3860 N   0  3  0  0  0  0
   -2.5470    2.8030   26.6500 C   0  0  2  0  0  0
   -1.1620    2.1950   26.4520 C   0  0  0  0  0  0
   -1.0270    0.9700   26.4250 O   0  0  0  0  0  0
   -3.2830    2.0620   27.7640 C   0  0  0  0  0  0
   -2.9300    2.4750   29.1880 C   0  0  0  0  0  0
   -3.8880    3.5380   29.6600 C   0  0  0  0  0  0
   -4.2120    3.4260   31.0850 N   0  0  0  0  0  0
   -5.2610    4.0070   31.6670 C   0  0  0  0  0  0
   -6.1090    4.7460   30.9510 N   0  0  0  0  0  0
   -5.4640    3.8520   32.9710 N   0  0  0  0  0  0
   -0.1220    3.0450   26.3180 N   0  0  0  0  0  0
    1.2260    2.5230   26.0970 C   0  0  2  0  0  0
    1.6610    1.5630   27.2100 C   0  0  0  0  0  0
    1.7110    1.9440   28.3850 O   0  0  0  0  0  0
    2.1010    3.7830   26.1170 C   0  0  0  0  0  0
    1.1830    4.8840   25.7500 C   0  0  0  0  0  0
   -0.1280    4.5180   26.3770 C   0  0  0  0  0  0
    1.9710    0.3310   26.8340 N   0  0  0  0  0  0
    2.4990   -0.6430   27.7720 C   0  0  2  0  0  0
    3.9870   -0.8550   27.4990 C   0  0  0  0  0  0
    4.4390   -0.6600   26.3680 O   0  0  0  0  0  0
    1.7380   -1.9570   27.6500 C   0  0  0  0  0  0
    0.3020   -1.8770   28.0630 C   0  0  0  0  0  0
   -0.3570   -3.2250   27.9390 C   0  0  0  0  0  0
    0.3800   -4.2840   28.6450 N   0  0  0  0  0  0
    0.1320   -4.6840   29.8940 C   0  0  0  0  0  0
    0.8580   -5.6590   30.4330 N   0  0  0  0  0  0
   -0.8350   -4.1170   30.6090 N   0  0  0  0  0  0
    4.7650   -1.2030   28.5430 N   0  0  0  0  0  0
    6.1770   -1.5790   28.3680 C   0  0  2  0  0  0
    6.4010   -2.8150   27.4930 C   0  0  0  0  0  0
    7.4540   -2.9310   26.8720 O   0  0  0  0  0  0
    6.6510   -1.8450   29.8020 C   0  0  0  0  0  0
    5.7330   -1.0110   30.6660 C   0  0  0  0  0  0
    4.3950   -1.1920   29.9740 C   0  0  0  0  0  0
    5.4170   -3.7160   27.4450 N   0  0  0  0  0  0
    5.5260   -4.9590   26.6910 C   0  0  2  0  0  0
    4.9770   -4.8640   25.2610 C   0  0  0  0  0  0
    4.9650   -5.8570   24.5260 O   0  0  0  0  0  0
    4.8910   -6.1360   27.4690 C   0  0  0  0  0  0
    3.4520   -5.8610   27.9300 C   0  0  0  0  0  0
    2.8900   -6.7100   28.6600 O   0  0  0  0  0  0
    2.8710   -4.8210   27.5710 O   0  0  0  0  0  0
    4.5150   -3.6710   24.8740 N   0  0  0  0  0  0
    4.1350   -3.4010   23.4830 C   0  0  2  0  0  0
    5.3440   -3.6580   22.5930 C   0  0  0  0  0  0
    6.4780   -3.5820   23.0480 O   0  0  0  0  0  0
    3.6730   -1.9510   23.3140 C   0  0  0  0  0  0
    2.2790   -1.6870   23.8900 C   0  0  0  0  0  0
    1.5180   -2.6350   24.1180 O   0  0  0  0  0  0
    1.9230   -0.5090   24.1050 O   0  0  0  0  0  0
    5.1040   -3.9880   21.3260 N   0  0  0  0  0  0
    6.1920   -4.1770   20.3910 C   0  0  2  0  0  0
    6.3450   -2.9130   19.5450 C   0  0  0  0  0  0
    5.4800   -2.5930   18.7330 O   0  0  0  0  0  0
    5.9480   -5.4180   19.5220 C   0  0  0  0  0  0
    6.9470   -5.7030   18.3970 C   0  0  0  0  0  0
    8.3530   -5.9630   18.9480 C   0  0  0  0  0  0
    6.4650   -6.8510   17.5360 C   0  0  0  0  0  0
    7.4330   -2.1820   19.7750 N   0  0  0  0  0  0
    7.7420   -0.9840   19.0090 C   0  0  2  0  0  0
    8.8410   -1.2900   18.0130 C   0  0  0  0  0  0
    9.9310   -1.7050   18.3890 O   0  0  0  0  0  0
    8.1760    0.1560   19.9260 C   0  0  0  0  0  0
    7.0830    0.6360   20.8620 C   0  0  0  0  0  0
    7.5630    1.6970   21.8150 C   0  0  0  0  0  0
    7.9970    2.7760   21.3490 O   0  0  0  0  0  0
    7.5030    1.4520   23.0350 O   0  0  0  0  0  0
    8.5360   -1.1030   16.7350 N   0  0  0  0  0  0
    9.4720   -1.4220   15.6650 C   0  0  2  0  0  0
    9.6520   -0.2230   14.7380 C   0  0  0  0  0  0
   10.5720   -0.1900   13.9180 O   0  0  0  0  0  0
    9.0370   -2.6810   14.8680 C   0  0  2  0  0  0
    7.5750   -2.5520   14.4120 C   0  0  0  0  0  0
    9.2710   -3.9300   15.7060 C   0  0  0  0  0  0
    7.1900   -3.4580   13.2310 C   0  0  0  0  0  0
    8.8850    0.7410   14.8060 O   0  0  0  0  0  0
   -2.7958    3.2679   24.5896 H   0  0  0  0  0  0
   -4.3182    3.1962   25.5403 H   0  0  0  0  0  0
   -3.4651    1.6794   25.0950 H   0  0  0  0  0  0
   -2.4444    3.8667   26.9107 H   0  0  0  0  0  0
   -4.3659    2.2239   27.6588 H   0  0  0  0  0  0
   -3.0647    0.9861   27.6952 H   0  0  0  0  0  0
   -2.9998    1.6003   29.8514 H   0  0  0  0  0  0
   -1.9043    2.8718   29.2111 H   0  0  0  0  0  0
   -3.4439    4.5309   29.4957 H   0  0  0  0  0  0
   -4.8294    3.4596   29.0965 H   0  0  0  0  0  0
   -3.5691    2.8308   31.7501 H   0  0  0  0  0  0
   -5.9467    4.8783   29.8711 H   0  0  0  0  0  0
   -6.9709    5.2233   31.4402 H   0  0  0  0  0  0
   -4.7682    3.2436   33.5675 H   0  0  0  0  0  0
    1.2524    1.9523   25.1570 H   0  0  0  0  0  0
    2.5222    3.9209   27.1237 H   0  0  0  0  0  0
    2.9186    3.6732   25.3893 H   0  0  0  0  0  0
    1.5724    5.8335   26.1461 H   0  0  0  0  0  0
    1.1063    4.9477   24.6545 H   0  0  0  0  0  0
   -0.9897    4.9040   25.8126 H   0  0  0  0  0  0
   -0.2012    4.8427   27.4254 H   0  0  0  0  0  0
    1.8189    0.0537   25.7805 H   0  0  0  0  0  0
    2.3487   -0.2261   28.7788 H   0  0  0  0  0  0
    1.7536   -2.2939   26.6030 H   0  0  0  0  0  0
    2.2142   -2.7171   28.2868 H   0  0  0  0  0  0
    0.2394   -1.5431   29.1092 H   0  0  0  0  0  0
   -0.2259   -1.1600   27.4171 H   0  0  0  0  0  0
   -1.3702   -3.1783   28.3647 H   0  0  0  0  0  0
   -0.4180   -3.5071   26.8775 H   0  0  0  0  0  0
    1.2042   -4.8102   28.1411 H   0  0  0  0  0  0
    1.6602   -6.1343   29.8495 H   0  0  0  0  0  0
    0.6563   -5.9902   31.4624 H   0  0  0  0  0  0
   -1.4410   -3.3097   30.1720 H   0  0  0  0  0  0
    6.6930   -0.7652   27.8375 H   0  0  0  0  0  0
    6.5605   -2.9184   30.0249 H   0  0  0  0  0  0
    7.7020   -1.5367   29.9039 H   0  0  0  0  0  0
    5.7421   -1.4017   31.6942 H   0  0  0  0  0  0
    6.0791    0.0331   30.6674 H   0  0  0  0  0  0
    3.7015   -0.3603   30.1670 H   0  0  0  0  0  0
    3.9080   -2.1434   30.2341 H   0  0  0  0  0  0
    4.4968   -3.4907   28.0040 H   0  0  0  0  0  0
    6.6142   -5.0945   26.6052 H   0  0  0  0  0  0
    4.8659   -7.0288   26.8269 H   0  0  0  0  0  0
    5.4896   -6.3472   28.3674 H   0  0  0  0  0  0
    1.8597   -6.5416   29.0065 H   0  0  0  0  0  0
    4.4232   -2.8798   25.6327 H   0  0  0  0  0  0
    3.3053   -4.0805   23.2386 H   0  0  0  0  0  0
    4.3761   -1.2798   23.8289 H   0  0  0  0  0  0
    3.6419   -1.6984   22.2438 H   0  0  0  0  0  0
    0.9247   -0.3029   24.5185 H   0  0  0  0  0  0
    4.0637   -4.1169   20.9927 H   0  0  0  0  0  0
    7.0993   -4.3401   20.9912 H   0  0  0  0  0  0
    5.9602   -6.3173   20.1554 H   0  0  0  0  0  0
    4.9698   -5.3320   19.0263 H   0  0  0  0  0  0
    7.0064   -4.8140   17.7518 H   0  0  0  0  0  0
    8.6679   -5.1097   19.5666 H   0  0  0  0  0  0
    9.0568   -6.0895   18.1121 H   0  0  0  0  0  0
    8.3435   -6.8765   19.5608 H   0  0  0  0  0  0
    5.4555   -6.6285   17.1599 H   0  0  0  0  0  0
    6.4380   -7.7728   18.1356 H   0  0  0  0  0  0
    7.1512   -6.9858   16.6869 H   0  0  0  0  0  0
    8.1099   -2.5120   20.5768 H   0  0  0  0  0  0
    6.8135   -0.7079   18.4878 H   0  0  0  0  0  0
    9.0188   -0.1760   20.5500 H   0  0  0  0  0  0
    8.4875    1.0178   19.3175 H   0  0  0  0  0  0
    6.2560    1.0596   20.2733 H   0  0  0  0  0  0
    6.7125   -0.2111   21.4580 H   0  0  0  0  0  0
    8.3528    3.5648   22.0281 H   0  0  0  0  0  0
    7.5435   -0.6945   16.4939 H   0  0  0  0  0  0
   10.4191   -1.6280   16.1851 H   0  0  0  0  0  0
    9.6480   -2.7881   13.9596 H   0  0  0  0  0  0
    6.9065   -2.8137   15.2455 H   0  0  0  0  0  0
    7.3794   -1.5166   14.0963 H   0  0  0  0  0  0
   10.3280   -3.9770   16.0068 H   0  0  0  0  0  0
    9.0184   -4.8217   15.1135 H   0  0  0  0  0  0
    8.6356   -3.8939   16.6032 H   0  0  0  0  0  0
    6.1320   -3.2982   12.9760 H   0  0  0  0  0  0
    7.3449   -4.5105   13.5106 H   0  0  0  0  0  0
    7.8177   -3.2134   12.3614 H   0  0  0  0  0  0
    9.0218    1.6012   14.1341 H   0  0  0  0  0  0
  1  2  1  0  0  0
  1 79  1  0  0  0
  1 80  1  0  0  0
  1 81  1  0  0  0
  2  3  1  0  0  0
  2  5  1  0  0  0
  2 82  1  0  0  0
  3  4  2  0  0  0
  3 12  1  0  0  0
  5  6  1  0  0  0
  5 83  1  0  0  0
  5 84  1  0  0  0
  6  7  1  0  0  0
  6 85  1  0  0  0
  6 86  1  0  0  0
  7  8  1  0  0  0
  7 87  1  0  0  0
  7 88  1  0  0  0
  8  9  1  0  0  0
  8 89  1  0  0  0
  9 10  1  0  0  0
  9 11  2  0  0  0
 10 90  1  0  0  0
 10 91  1  0  0  0
 11 92  1  0  0  0
 12 13  1  0  0  0
 12 18  1  0  0  0
 13 14  1  0  0  0
 13 16  1  0  0  0
 13 93  1  0  0  0
 14 15  2  0  0  0
 14 19  1  0  0  0
 16 17  1  0  0  0
 16 94  1  0  0  0
 16 95  1  0  0  0
 17 18  1  0  0  0
 17 96  1  0  0  0
 17 97  1  0  0  0
 18 98  1  0  0  0
 18 99  1  0  0  0
 19 20  1  0  0  0
 19100  1  0  0  0
 20 21  1  0  0  0
 20 23  1  0  0  0
 20101  1  0  0  0
 21 22  2  0  0  0
 21 30  1  0  0  0
 23 24  1  0  0  0
 23102  1  0  0  0
 23103  1  0  0  0
 24 25  1  0  0  0
 24104  1  0  0  0
 24105  1  0  0  0
 25 26  1  0  0  0
 25106  1  0  0  0
 25107  1  0  0  0
 26 27  1  0  0  0
 26108  1  0  0  0
 27 28  1  0  0  0
 27 29  2  0  0  0
 28109  1  0  0  0
 28110  1  0  0  0
 29111  1  0  0  0
 30 31  1  0  0  0
 30 36  1  0  0  0
 31 32  1  0  0  0
 31 34  1  0  0  0
 31112  1  0  0  0
 32 33  2  0  0  0
 32 37  1  0  0  0
 34 35  1  0  0  0
 34113  1  0  0  0
 34114  1  0  0  0
 35 36  1  0  0  0
 35115  1  0  0  0
 35116  1  0  0  0
 36117  1  0  0  0
 36118  1  0  0  0
 37 38  1  0  0  0
 37119  1  0  0  0
 38 39  1  0  0  0
 38 41  1  0  0  0
 38120  1  0  0  0
 39 40  2  0  0  0
 39 45  1  0  0  0
 41 42  1  0  0  0
 41121  1  0  0  0
 41122  1  0  0  0
 42 43  1  0  0  0
 42 44  2  0  0  0
 43123  1  0  0  0
 45 46  1  0  0  0
 45124  1  0  0  0
 46 47  1  0  0  0
 46 49  1  0  0  0
 46125  1  0  0  0
 47 48  2  0  0  0
 47 53  1  0  0  0
 49 50  1  0  0  0
 49126  1  0  0  0
 49127  1  0  0  0
 50 51  2  0  0  0
 50 52  1  0  0  0
 52128  1  0  0  0
 53 54  1  0  0  0
 53129  1  0  0  0
 54 55  1  0  0  0
 54 57  1  0  0  0
 54130  1  0  0  0
 55 56  2  0  0  0
 55 61  1  0  0  0
 57 58  1  0  0  0
 57131  1  0  0  0
 57132  1  0  0  0
 58 59  1  0  0  0
 58 60  1  0  0  0
 58133  1  0  0  0
 59134  1  0  0  0
 59135  1  0  0  0
 59136  1  0  0  0
 60137  1  0  0  0
 60138  1  0  0  0
 60139  1  0  0  0
 61 62  1  0  0  0
 61140  1  0  0  0
 62 63  1  0  0  0
 62 65  1  0  0  0
 62141  1  0  0  0
 63 64  2  0  0  0
 63 70  1  0  0  0
 65 66  1  0  0  0
 65142  1  0  0  0
 65143  1  0  0  0
 66 67  1  0  0  0
 66144  1  0  0  0
 66145  1  0  0  0
 67 68  1  0  0  0
 67 69  2  0  0  0
 68146  1  0  0  0
 70 71  1  0  0  0
 70147  1  0  0  0
 71 72  1  0  0  0
 71 74  1  0  0  0
 71148  1  0  0  0
 72 73  2  0  0  0
 72 78  1  0  0  0
 74 75  1  0  0  0
 74 76  1  0  0  0
 74149  1  0  0  0
 75 77  1  0  0  0
 75150  1  0  0  0
 75151  1  0  0  0
 76152  1  0  0  0
 76153  1  0  0  0
 76154  1  0  0  0
 77155  1  0  0  0
 77156  1  0  0  0
 77157  1  0  0  0
 78158  1  0  0  0
M  CHG  1   1   1
M  END
> <s_m_source_file>
../3cyy_ligand.sdf

> <i_m_source_file_index>
1

> <s_epik_input>
W0hdL049QyhbTkgyXSlcW05IXVtDSDJdW0NIMl1bQ0gyXVtDQEhdKFtOSDMrXSlDKD1PKU4xW0NAQEhdKFtDSDJdW0NIMl1bQ0gyXTEpQyg9TylbTkhdW0NAQEhdKFtDSDJdW0NIMl1bQ0gyXVtOSF0vQyhbTkgyXSk9TlxbSF0pQyg9TylOMltDQEBIXShbQ0gyXVtDSDJdW0NIMl0yKUMoPU8pW05IXVtDQEBIXShbQ0gyXUMoPU8pW09IXSlDKD1PKVtOSF1bQ0BASF0oW0NIMl1DKD1PKVtPSF0pQyg9TylbTkhdW0NAQEhdKFtDSDJdW0NIXShbQ0gzXSlbQ0gzXSlDKD1PKVtOSF1bQ0BASF0oW0NIMl1bQ0gyXUMoPU8pW09IXSlDKD1PKVtOSF1bQ0BIXShDKD1PKVtPSF0pW0NAQEhdKFtDSDNdKVtDSDJdW0NIM10=

> <s_epik_cmdline>
J2VwaWtfYXBwJywgJy1pbWFlJywgJ2xpZ2FuZF9wcm8ubWFlJywgJy1vbWFlJywgJ2xpZ2FuZF9wcmVwLm1hZScsICctbXMnLCAnMScsICctcGgnLCAnNycsICctcGh0JywgJzAuNScsICctbnQn

> <s_epik_pKa_notes>
Molecule size exceeds maximum supported for generating protonation states

> <s_epik_Chemistry_Notes>
This compound has an imine and may undergo hydrolysis.

$$$$
