3cyz_ligand
                    3D
 Schrodinger Suite 2020-3.
 28 27  0  0  1  0            999 V2000
   14.0790   -8.5530   -1.8040 O   0  0  0  0  0  0
   13.9560   -7.4080   -2.2300 C   0  0  0  0  0  0
   12.6030   -6.8020   -2.4240 C   0  0  0  0  0  0
   15.2100   -6.6170   -2.5500 C   0  0  0  0  0  0
   15.0100   -5.1790   -3.0520 C   0  0  0  0  0  0
   15.7570   -4.1870   -2.1480 C   0  0  0  0  0  0
   16.4950   -3.0640   -2.8760 C   0  0  0  0  0  0
   17.9700   -3.4310   -2.8550 C   0  0  0  0  0  0
   18.8870   -2.6040   -3.7210 C   0  0  0  0  0  0
   20.1200   -3.1170   -3.8150 C   0  0  0  0  0  0
   21.1940   -2.4580   -4.5610 C   0  0  0  0  0  0
   22.3600   -2.8980   -4.4030 O   0  5  0  0  0  0
   20.9420   -1.4680   -5.2810 O   0  0  0  0  0  0
   11.8304   -7.5307   -2.1376 H   0  0  0  0  0  0
   12.4730   -6.5260   -3.4808 H   0  0  0  0  0  0
   12.5103   -5.9035   -1.7962 H   0  0  0  0  0  0
   15.8316   -6.5339   -1.6463 H   0  0  0  0  0  0
   15.7772   -7.1324   -3.3391 H   0  0  0  0  0  0
   15.3983   -5.0913   -4.0774 H   0  0  0  0  0  0
   13.9378   -4.9335   -3.0437 H   0  0  0  0  0  0
   15.0420   -3.7000   -1.4686 H   0  0  0  0  0  0
   16.5138   -4.7259   -1.5590 H   0  0  0  0  0  0
   16.1233   -2.9902   -3.9087 H   0  0  0  0  0  0
   16.3198   -2.1116   -2.3543 H   0  0  0  0  0  0
   18.3579   -3.3322   -1.8304 H   0  0  0  0  0  0
   18.0944   -4.4695   -3.1956 H   0  0  0  0  0  0
   18.6377   -1.6713   -4.2481 H   0  0  0  0  0  0
   20.3583   -4.0701   -3.3203 H   0  0  0  0  0  0
  1  2  2  0  0  0
  2  3  1  0  0  0
  2  4  1  0  0  0
  3 14  1  0  0  0
  3 15  1  0  0  0
  3 16  1  0  0  0
  4  5  1  0  0  0
  4 17  1  0  0  0
  4 18  1  0  0  0
  5  6  1  0  0  0
  5 19  1  0  0  0
  5 20  1  0  0  0
  6  7  1  0  0  0
  6 21  1  0  0  0
  6 22  1  0  0  0
  7  8  1  0  0  0
  7 23  1  0  0  0
  7 24  1  0  0  0
  8  9  1  0  0  0
  8 25  1  0  0  0
  8 26  1  0  0  0
  9 10  2  0  0  0
  9 27  1  0  0  0
 10 11  1  0  0  0
 10 28  1  0  0  0
 11 12  1  0  0  0
 11 13  2  0  0  0
M  CHG  1  12  -1
M  END
> <s_m_source_file>
../3cyz_ligand.sdf

> <i_m_source_file_index>
1

> <s_epik_input>
Tz1DKFtDSDNdKVtDSDJdW0NIMl1bQ0gyXVtDSDJdW0NIMl0vW0NIXT1bQ0hdL0MoPU8pW09IXQ==

> <s_epik_cmdline>
J2VwaWtfYXBwJywgJy1pbWFlJywgJ2xpZ2FuZF9wcm8ubWFlJywgJy1vbWFlJywgJ2xpZ2FuZF9wcmVwLm1hZScsICctbXMnLCAnMScsICctcGgnLCAnNycsICctcGh0JywgJzAuNScsICctbnQn

> <r_lp_tautomer_probability>
1

> <r_epik_Ionization_Penalty>
  0.0030

> <r_epik_Ionization_Penalty_Charging>
  0.0030

> <r_epik_Ionization_Penalty_Neutral>
  0.0000

> <r_epik_State_Penalty>
 -0.0000

> <r_epik_Charging_Adjusted_Penalty>
0.00299832072304931

> <i_epik_Tot_Q>
-1

> <i_epik_Tot_abs_Q>
1

$$$$
