3cz1_ligand
                    3D
 Schrodinger Suite 2020-3.
 29 29  0  0  1  0            999 V2000
   22.6970   -2.9920   -4.4790 O   0  0  0  0  0  0
   21.3030   -2.8040   -4.7850 S   0  0  0  0  0  0
   21.0150   -1.4600   -5.2100 O   0  0  0  0  0  0
   20.4060   -3.1110   -3.4980 N   0  0  3  0  0  0
   19.1040   -2.5030   -3.3470 C   0  0  0  0  0  0
   17.9900   -3.5280   -3.4060 C   0  0  0  0  0  0
   16.6740   -2.9210   -2.9340 C   0  0  0  0  0  0
   16.1860   -3.6210   -1.6840 C   0  0  0  0  0  0
   20.9720   -3.8590   -5.9380 C   0  0  0  0  0  0
   20.9860   -3.4720   -7.2800 C   0  0  0  0  0  0
   20.7210   -4.3870   -8.2950 C   0  0  0  0  0  0
   20.4380   -5.7090   -7.9650 C   0  0  0  0  0  0
   20.4340   -6.0990   -6.6300 C   0  0  0  0  0  0
   20.7060   -5.1830   -5.6180 C   0  0  0  0  0  0
   20.8589   -3.6570   -2.6573 H   0  0  0  0  0  0
   19.0490   -1.9909   -2.3750 H   0  0  0  0  0  0
   18.9438   -1.7741   -4.1551 H   0  0  0  0  0  0
   17.8687   -3.8784   -4.4416 H   0  0  0  0  0  0
   18.2412   -4.3803   -2.7576 H   0  0  0  0  0  0
   16.8213   -1.8538   -2.7117 H   0  0  0  0  0  0
   15.9159   -3.0297   -3.7236 H   0  0  0  0  0  0
   15.2368   -3.1705   -1.3583 H   0  0  0  0  0  0
   16.9360   -3.5126   -0.8866 H   0  0  0  0  0  0
   16.0306   -4.6886   -1.8986 H   0  0  0  0  0  0
   21.2081   -2.4362   -7.5368 H   0  0  0  0  0  0
   20.7350   -4.0711   -9.3381 H   0  0  0  0  0  0
   20.2207   -6.4349   -8.7486 H   0  0  0  0  0  0
   20.2150   -7.1354   -6.3730 H   0  0  0  0  0  0
   20.7101   -5.5047   -4.5766 H   0  0  0  0  0  0
  1  2  2  0  0  0
  2  3  2  0  0  0
  2  4  1  0  0  0
  2  9  1  0  0  0
  4  5  1  0  0  0
  4 15  1  0  0  0
  5  6  1  0  0  0
  5 16  1  0  0  0
  5 17  1  0  0  0
  6  7  1  0  0  0
  6 18  1  0  0  0
  6 19  1  0  0  0
  7  8  1  0  0  0
  7 20  1  0  0  0
  7 21  1  0  0  0
  8 22  1  0  0  0
  8 23  1  0  0  0
  8 24  1  0  0  0
  9 10  2  0  0  0
  9 14  1  0  0  0
 10 11  1  0  0  0
 10 25  1  0  0  0
 11 12  2  0  0  0
 11 26  1  0  0  0
 12 13  1  0  0  0
 12 27  1  0  0  0
 13 14  2  0  0  0
 13 28  1  0  0  0
 14 29  1  0  0  0
M  END
> <s_m_source_file>
../3cz1_ligand.sdf

> <i_m_source_file_index>
1

> <s_epik_input>
W0NIM11bQ0gyXVtDSDJdW0NIMl1bTkhdUyg9TykoPU8pYzFbY0hdW2NIXVtjSF1bY0hdW2NIXTE=

> <s_epik_cmdline>
J2VwaWtfYXBwJywgJy1pbWFlJywgJ2xpZ2FuZF9wcm8ubWFlJywgJy1vbWFlJywgJ2xpZ2FuZF9wcmVwLm1hZScsICctbXMnLCAnMScsICctcGgnLCAnNycsICctcGh0JywgJzAuNScsICctbnQn

> <r_lp_tautomer_probability>
1

> <r_epik_Ionization_Penalty>
  0.0000

> <r_epik_Ionization_Penalty_Charging>
  0.0000

> <r_epik_Ionization_Penalty_Neutral>
  0.0000

> <r_epik_State_Penalty>
 -0.0000

> <r_epik_Charging_Adjusted_Penalty>
0

> <i_epik_Tot_Q>
0

> <i_epik_Tot_abs_Q>
0

$$$$
