3d0b_ligand
                    3D
 Schrodinger Suite 2020-3.
 51 54  0  0  1  0            999 V2000
   -1.8740  -10.7690  -25.7390 O   0  0  0  0  0  0
   -1.5310  -11.3250  -24.7030 C   0  0  0  0  0  0
   -2.4140  -11.8260  -23.8380 N   0  0  0  0  0  0
   -0.0630  -11.5390  -24.4880 C   0  0  0  0  0  0
    0.3810  -12.5950  -23.6970 C   0  0  0  0  0  0
    1.7530  -12.8120  -23.5350 C   0  0  0  0  0  0
    0.9270  -10.6790  -25.1810 C   0  0  0  0  0  0
    0.5270   -9.6410  -25.9810 N   0  0  0  0  0  0
    1.4850   -8.7870  -26.6830 C   0  0  0  0  0  0
    0.8090   -7.7510  -27.5810 C   0  0  0  0  0  0
   -0.1760   -7.0500  -26.8170 O   0  0  0  0  0  0
   -0.1290   -5.6330  -26.9620 C   0  0  0  0  0  0
    2.2790  -10.9690  -24.9680 C   0  0  0  0  0  0
    2.7350  -12.0110  -24.1490 C   0  0  0  0  0  0
    4.0560  -12.2380  -24.0700 N   0  0  0  0  0  0
    4.9860  -11.3710  -23.6050 C   0  0  0  0  0  0
    4.9570  -10.1250  -22.9820 C   0  0  0  0  0  0
    6.1850   -9.5600  -22.5960 C   0  0  0  0  0  0
    7.4130  -10.1970  -22.8090 C   0  0  0  0  0  0
    7.5090  -11.4460  -23.4230 C   0  0  0  0  0  0
    4.5220  -13.3670  -24.6490 C   0  0  0  0  0  0
    3.8300  -14.5500  -25.2880 C   0  0  0  0  0  0
    4.8560  -15.4580  -25.9860 C   0  0  0  0  0  0
    6.1980  -15.6650  -25.2850 C   0  0  0  0  0  0
    6.8930  -14.3660  -24.9490 C   0  0  0  0  0  0
    8.0950  -14.2160  -25.0670 O   0  0  0  0  0  0
    5.9720  -13.2980  -24.4900 C   0  0  0  0  0  0
    6.3110  -12.0310  -23.8220 C   0  0  0  0  0  0
   -3.4908  -11.6678  -23.9976 H   0  0  0  0  0  0
   -2.0654  -12.3973  -22.9650 H   0  0  0  0  0  0
   -0.3382  -13.2504  -23.2057 H   0  0  0  0  0  0
    2.0773  -13.6396  -22.9041 H   0  0  0  0  0  0
   -0.5527   -9.4590  -26.0869 H   0  0  0  0  0  0
    2.0996   -8.2451  -25.9491 H   0  0  0  0  0  0
    2.1342   -9.4085  -27.3173 H   0  0  0  0  0  0
    1.5628   -7.0430  -27.9558 H   0  0  0  0  0  0
    0.3291   -8.2593  -28.4303 H   0  0  0  0  0  0
   -0.9155   -5.1749  -26.3443 H   0  0  0  0  0  0
   -0.2898   -5.3669  -28.0171 H   0  0  0  0  0  0
    0.8546   -5.2636  -26.6365 H   0  0  0  0  0  0
    3.0217  -10.3478  -25.4686 H   0  0  0  0  0  0
    4.0155   -9.6067  -22.8004 H   0  0  0  0  0  0
    6.1807   -8.5843  -22.1101 H   0  0  0  0  0  0
    8.3267   -9.6996  -22.4836 H   0  0  0  0  0  0
    8.4694  -11.9366  -23.5815 H   0  0  0  0  0  0
    3.3060  -15.1302  -24.5141 H   0  0  0  0  0  0
    3.1037  -14.1918  -26.0324 H   0  0  0  0  0  0
    4.4308  -16.4651  -26.1086 H   0  0  0  0  0  0
    5.1024  -15.0413  -26.9738 H   0  0  0  0  0  0
    6.0397  -16.2130  -24.3445 H   0  0  0  0  0  0
    6.8675  -16.2437  -25.9383 H   0  0  0  0  0  0
  1  2  2  0  0  0
  2  3  1  0  0  0
  2  4  1  0  0  0
  3 29  1  0  0  0
  3 30  1  0  0  0
  4  5  2  0  0  0
  4  7  1  0  0  0
  5  6  1  0  0  0
  5 31  1  0  0  0
  6 14  2  0  0  0
  6 32  1  0  0  0
  7  8  1  0  0  0
  7 13  2  0  0  0
  8  9  1  0  0  0
  8 33  1  0  0  0
  9 10  1  0  0  0
  9 34  1  0  0  0
  9 35  1  0  0  0
 10 11  1  0  0  0
 10 36  1  0  0  0
 10 37  1  0  0  0
 11 12  1  0  0  0
 12 38  1  0  0  0
 12 39  1  0  0  0
 12 40  1  0  0  0
 13 14  1  0  0  0
 13 41  1  0  0  0
 14 15  1  0  0  0
 15 16  1  0  0  0
 15 21  1  0  0  0
 16 17  1  0  0  0
 16 28  2  0  0  0
 17 18  2  0  0  0
 17 42  1  0  0  0
 18 19  1  0  0  0
 18 43  1  0  0  0
 19 20  2  0  0  0
 19 44  1  0  0  0
 20 28  1  0  0  0
 20 45  1  0  0  0
 21 22  1  0  0  0
 21 27  2  0  0  0
 22 23  1  0  0  0
 22 46  1  0  0  0
 22 47  1  0  0  0
 23 24  1  0  0  0
 23 48  1  0  0  0
 23 49  1  0  0  0
 24 25  1  0  0  0
 24 50  1  0  0  0
 24 51  1  0  0  0
 25 26  2  0  0  0
 25 27  1  0  0  0
 27 28  1  0  0  0
M  END
> <s_m_source_file>
../3d0b_ligand.sdf

> <i_m_source_file_index>
1

> <s_epik_input>
W0NIM11PW0NIMl1bQ0gyXVtOSF1jMVtjSF1jKFtjSF1bY0hdYzFDKD1PKVtOSDJdKS1uMmMoW0NIMl1bQ0gyXVtDSDJdQzM9TyljM2MoYzI0KVtjSF1bY0hdW2NIXVtjSF00

> <s_epik_cmdline>
J2VwaWtfYXBwJywgJy1pbWFlJywgJ2xpZ2FuZF9wcm8ubWFlJywgJy1vbWFlJywgJ2xpZ2FuZF9wcmVwLm1hZScsICctbXMnLCAnMScsICctcGgnLCAnNycsICctcGh0JywgJzAuNScsICctbnQn

> <r_lp_tautomer_probability>
1

> <r_epik_Ionization_Penalty>
  0.0000

> <r_epik_Ionization_Penalty_Charging>
  0.0000

> <r_epik_Ionization_Penalty_Neutral>
  0.0000

> <r_epik_State_Penalty>
 -0.0000

> <r_epik_Charging_Adjusted_Penalty>
0

> <i_epik_Tot_Q>
0

> <i_epik_Tot_abs_Q>
0

$$$$
