3d0e_ligand
                    3D
 Schrodinger Suite 2020-3.
 59 62  0  0  1  0            999 V2000
   23.4950  -17.2510    5.4310 C   0  0  0  0  0  0
   22.3560  -18.5990    9.7030 N   0  0  0  0  0  0
   22.8530  -16.8290    8.3640 N   0  0  0  0  0  0
   23.2300  -18.1920    6.2720 C   0  0  0  0  0  0
   22.3080  -21.4340    8.7240 O   0  0  0  0  0  0
   23.2120  -19.4600    5.8090 N   0  0  0  0  0  0
   22.9190  -17.9470    7.6130 C   0  0  0  0  0  0
   22.3620  -14.2920    9.3140 N   0  0  0  0  0  0
   22.3130  -14.8950   10.5380 C   0  0  0  0  0  0
   22.1870  -14.2090   11.6860 N   0  0  0  0  0  0
   22.1900  -15.2830   12.6420 O   0  0  0  0  0  0
   22.3110  -16.5930   12.0410 N   0  0  0  0  0  0
   22.3560  -16.2720   10.7260 C   0  0  0  0  0  0
   22.5090  -17.2610    9.5990 C   0  0  0  0  0  0
   21.9730  -19.3950   10.8850 C   0  0  0  0  0  0
   23.1600  -19.9980   11.5980 C   0  0  0  0  0  0
   23.7580  -16.5350    4.5080 C   0  0  0  0  0  0
   23.8360  -15.6260    3.3430 C   0  0  0  0  0  0
   23.0250  -14.3660    3.6270 C   0  0  0  0  0  0
   25.2950  -15.2760    3.0820 C   0  0  0  0  0  0
   23.3240  -16.2800    2.1780 O   0  0  0  0  0  0
   22.6150  -19.0290    8.4490 C   0  0  0  0  0  0
   22.6090  -20.3370    7.9460 C   0  0  0  0  0  0
   22.9220  -20.5070    6.5930 C   0  0  0  0  0  0
   22.0360  -22.7210    8.1490 C   0  0  0  0  0  0
   21.4890  -23.6990    9.1840 C   0  0  2  0  0  0
   20.1950  -23.1780    9.7950 C   0  0  0  0  0  0
   19.7470  -24.0150   10.9020 N   0  3  0  0  0  0
   20.6670  -24.6070   11.8580 C   0  0  0  0  0  0
   22.0000  -25.0130   11.2320 C   0  0  0  0  0  0
   22.5070  -23.9270   10.2930 C   0  0  0  0  0  0
   22.3233  -13.1952    9.2393 H   0  0  0  0  0  0
   22.4402  -14.9030    8.4026 H   0  0  0  0  0  0
   21.4419  -18.7529   11.6031 H   0  0  0  0  0  0
   21.3148  -20.2197   10.5741 H   0  0  0  0  0  0
   22.8111  -20.5767   12.4660 H   0  0  0  0  0  0
   23.8302  -19.1948   11.9381 H   0  0  0  0  0  0
   23.7031  -20.6617   10.9091 H   0  0  0  0  0  0
   23.4232  -13.8679    4.5233 H   0  0  0  0  0  0
   21.9725  -14.6377    3.7956 H   0  0  0  0  0  0
   23.0944  -13.6837    2.7670 H   0  0  0  0  0  0
   25.7143  -14.7707    3.9645 H   0  0  0  0  0  0
   25.3616  -14.6079    2.2107 H   0  0  0  0  0  0
   25.8629  -16.1967    2.8823 H   0  0  0  0  0  0
   22.2783  -16.6204    2.1532 H   0  0  0  0  0  0
   22.9301  -21.5109    6.1685 H   0  0  0  0  0  0
   21.2909  -22.6141    7.3469 H   0  0  0  0  0  0
   22.9641  -23.1406    7.7337 H   0  0  0  0  0  0
   21.2861  -24.6507    8.6711 H   0  0  0  0  0  0
   20.3533  -22.1576   10.1741 H   0  0  0  0  0  0
   19.4063  -23.1660    9.0283 H   0  0  0  0  0  0
   19.0698  -23.4370   11.5480 H   0  0  0  0  0  0
   19.2155  -24.8930   10.5061 H   0  0  0  0  0  0
   20.8807  -23.8829   12.6580 H   0  0  0  0  0  0
   20.2135  -25.5101   12.2925 H   0  0  0  0  0  0
   22.7445  -25.1723   12.0259 H   0  0  0  0  0  0
   21.8684  -25.9437   10.6607 H   0  0  0  0  0  0
   23.4648  -24.2409    9.8526 H   0  0  0  0  0  0
   22.6510  -22.9932   10.8562 H   0  0  0  0  0  0
  1  4  1  0  0  0
  1 17  3  0  0  0
  2 14  1  0  0  0
  2 15  1  0  0  0
  2 22  1  0  0  0
  3  7  1  0  0  0
  3 14  2  0  0  0
  4  6  1  0  0  0
  4  7  2  0  0  0
  5 23  1  0  0  0
  5 25  1  0  0  0
  6 24  2  0  0  0
  7 22  1  0  0  0
  8  9  1  0  0  0
  8 32  1  0  0  0
  8 33  1  0  0  0
  9 10  2  0  0  0
  9 13  1  0  0  0
 10 11  1  0  0  0
 11 12  1  0  0  0
 12 13  2  0  0  0
 13 14  1  0  0  0
 15 16  1  0  0  0
 15 34  1  0  0  0
 15 35  1  0  0  0
 16 36  1  0  0  0
 16 37  1  0  0  0
 16 38  1  0  0  0
 17 18  1  0  0  0
 18 19  1  0  0  0
 18 20  1  0  0  0
 18 21  1  0  0  0
 19 39  1  0  0  0
 19 40  1  0  0  0
 19 41  1  0  0  0
 20 42  1  0  0  0
 20 43  1  0  0  0
 20 44  1  0  0  0
 21 45  1  0  0  0
 22 23  2  0  0  0
 23 24  1  0  0  0
 24 46  1  0  0  0
 25 26  1  0  0  0
 25 47  1  0  0  0
 25 48  1  0  0  0
 26 27  1  0  0  0
 26 31  1  0  0  0
 26 49  1  0  0  0
 27 28  1  0  0  0
 27 50  1  0  0  0
 27 51  1  0  0  0
 28 29  1  0  0  0
 28 52  1  0  0  0
 28 53  1  0  0  0
 29 30  1  0  0  0
 29 54  1  0  0  0
 29 55  1  0  0  0
 30 31  1  0  0  0
 30 56  1  0  0  0
 30 57  1  0  0  0
 31 58  1  0  0  0
 31 59  1  0  0  0
M  CHG  1  28   1
M  END
> <s_m_source_file>
../3d0e_ligand.sdf

> <i_m_source_file_index>
1

> <s_epik_input>
W0NIMl0xW0NIMl1bQ0gyXVtOSDIrXVtDSDJdW0NASF0xW0NIMl1PYyhbY0hdbmMyQyNDQyhbQ0gzXSkoW0NIM10pW09IXSljKGMyMyluKFtDSDJdW0NIM10pYyhuMyktYzRub25jNFtOSDJd

> <s_epik_cmdline>
J2VwaWtfYXBwJywgJy1pbWFlJywgJ2xpZ2FuZF9wcm8ubWFlJywgJy1vbWFlJywgJ2xpZ2FuZF9wcmVwLm1hZScsICctbXMnLCAnMScsICctcGgnLCAnNycsICctcGh0JywgJzAuNScsICctbnQn

> <r_lp_tautomer_probability>
1

> <r_epik_Ionization_Penalty>
  0.0004

> <r_epik_Ionization_Penalty_Charging>
  0.0004

> <r_epik_Ionization_Penalty_Neutral>
  0.0000

> <r_epik_State_Penalty>
 -0.0000

> <r_epik_Charging_Adjusted_Penalty>
0.000366983151667952

> <i_epik_Tot_Q>
1

> <i_epik_Tot_abs_Q>
1

$$$$
