3d1e_ligand
                    3D
 Schrodinger Suite 2020-3.
 92 92  0  0  1  0            999 V2000
  -67.1940  -65.7640  -58.9900 N   0  3  0  0  0  0
  -68.2510  -65.5200  -60.0130 C   0  0  0  0  0  0
  -68.6320  -66.7790  -60.7660 C   0  0  0  0  0  0
  -68.2440  -67.8850  -60.3840 O   0  0  0  0  0  0
  -69.3850  -66.6070  -61.8480 N   0  0  0  0  0  0
  -69.8340  -67.7280  -62.6680 C   0  0  2  0  0  0
  -68.7000  -68.5260  -63.2960 C   0  0  0  0  0  0
  -67.7400  -67.9550  -63.8140 O   0  0  0  0  0  0
  -70.7450  -67.2330  -63.7910 C   0  0  0  0  0  0
  -71.2770  -68.3540  -64.6700 C   0  0  0  0  0  0
  -72.0850  -69.3550  -63.8720 C   0  0  0  0  0  0
  -73.0030  -68.9760  -63.1510 O   0  0  0  0  0  0
  -71.7470  -70.6410  -63.9950 N   0  0  0  0  0  0
  -68.8290  -69.8480  -63.2550 N   0  0  0  0  0  0
  -67.8430  -70.7460  -63.8440 C   0  0  2  0  0  0
  -68.3480  -71.1910  -65.2140 C   0  0  0  0  0  0
  -69.5230  -71.0180  -65.5360 O   0  0  0  0  0  0
  -67.6310  -71.9710  -62.9520 C   0  0  0  0  0  0
  -66.9300  -71.7240  -61.6160 C   0  0  0  0  0  0
  -66.9930  -72.9780  -60.7610 C   0  0  0  0  0  0
  -65.4930  -71.3120  -61.8750 C   0  0  0  0  0  0
  -67.4590  -71.7640  -66.0180 N   0  0  0  0  0  0
  -67.8530  -72.2140  -67.3390 C   0  0  0  0  0  0
  -67.7880  -73.7170  -67.5220 C   0  0  0  0  0  0
  -66.8740  -74.3730  -67.0200 O   0  0  0  0  0  0
  -68.7670  -74.2610  -68.2420 N   0  0  0  0  0  0
  -68.8310  -75.6930  -68.5190 C   0  0  2  0  0  0
  -67.7290  -76.0940  -69.4930 C   0  0  0  0  0  0
  -67.1540  -77.1740  -69.3860 O   0  0  0  0  0  0
  -70.1860  -76.0570  -69.1320 C   0  0  0  0  0  0
  -71.4430  -76.0110  -68.2630 C   0  0  0  0  0  0
  -72.6680  -76.2470  -69.1350 C   0  0  0  0  0  0
  -71.3560  -77.0670  -67.1750 C   0  0  0  0  0  0
  -67.4490  -75.2160  -70.4490 N   0  0  0  0  0  0
  -66.4270  -75.4700  -71.4530 C   0  0  2  0  0  0
  -65.9040  -74.1510  -72.0190 C   0  0  0  0  0  0
  -65.3830  -74.1600  -73.1580 O   0  5  0  0  0  0
  -67.0190  -76.3280  -72.5760 C   0  0  0  0  0  0
  -68.2620  -75.7440  -73.1970 C   0  0  0  0  0  0
  -68.1860  -74.6430  -74.0460 C   0  0  0  0  0  0
  -69.5150  -76.2790  -72.9090 C   0  0  0  0  0  0
  -69.3400  -74.0830  -74.5980 C   0  0  0  0  0  0
  -70.6720  -75.7270  -73.4550 C   0  0  0  0  0  0
  -70.5840  -74.6270  -74.3000 C   0  0  0  0  0  0
  -66.0130  -73.1270  -71.3090 O   0  0  0  0  0  0
  -66.9568  -64.8210  -58.4758 H   0  0  0  0  0  0
  -66.2896  -66.1508  -59.4823 H   0  0  0  0  0  0
  -67.5559  -66.5003  -58.2572 H   0  0  0  0  0  0
  -69.1554  -65.1332  -59.5207 H   0  0  0  0  0  0
  -67.8891  -64.7837  -60.7458 H   0  0  0  0  0  0
  -69.6690  -65.5793  -62.1184 H   0  0  0  0  0  0
  -70.3583  -68.3663  -61.9416 H   0  0  0  0  0  0
  -71.6112  -66.7117  -63.3575 H   0  0  0  0  0  0
  -70.1864  -66.5406  -64.4380 H   0  0  0  0  0  0
  -71.9246  -67.9308  -65.4520 H   0  0  0  0  0  0
  -70.4345  -68.8838  -65.1386 H   0  0  0  0  0  0
  -70.9157  -70.9305  -64.6546 H   0  0  0  0  0  0
  -72.2999  -71.4108  -63.4367 H   0  0  0  0  0  0
  -69.7180  -70.2594  -62.7545 H   0  0  0  0  0  0
  -66.9038  -70.1791  -63.9255 H   0  0  0  0  0  0
  -68.6055  -72.4170  -62.7039 H   0  0  0  0  0  0
  -67.0144  -72.7101  -63.4845 H   0  0  0  0  0  0
  -67.4307  -70.9139  -61.0655 H   0  0  0  0  0  0
  -68.0443  -73.2526  -60.5898 H   0  0  0  0  0  0
  -66.5016  -72.7884  -59.7953 H   0  0  0  0  0  0
  -66.4787  -73.8010  -61.2788 H   0  0  0  0  0  0
  -65.4781  -70.4035  -62.4949 H   0  0  0  0  0  0
  -64.9681  -72.1232  -62.4007 H   0  0  0  0  0  0
  -64.9910  -71.1106  -60.9172 H   0  0  0  0  0  0
  -66.4211  -71.8966  -65.6786 H   0  0  0  0  0  0
  -68.8907  -71.9072  -67.5365 H   0  0  0  0  0  0
  -67.1885  -71.7659  -68.0924 H   0  0  0  0  0  0
  -69.5459  -73.5898  -68.6330 H   0  0  0  0  0  0
  -68.6907  -76.1880  -67.5468 H   0  0  0  0  0  0
  -70.4075  -75.3729  -69.9644 H   0  0  0  0  0  0
  -70.1534  -77.0910  -69.5059 H   0  0  0  0  0  0
  -71.5306  -75.0256  -67.7821 H   0  0  0  0  0  0
  -72.7159  -75.4746  -69.9167 H   0  0  0  0  0  0
  -73.5749  -76.1974  -68.5144 H   0  0  0  0  0  0
  -72.5985  -77.2396  -69.6040 H   0  0  0  0  0  0
  -70.4665  -76.8821  -66.5548 H   0  0  0  0  0  0
  -71.2810  -78.0630  -67.6359 H   0  0  0  0  0  0
  -72.2574  -77.0208  -66.5463 H   0  0  0  0  0  0
  -68.0162  -74.2737  -70.4677 H   0  0  0  0  0  0
  -65.6125  -76.0038  -70.9416 H   0  0  0  0  0  0
  -66.2764  -76.4439  -73.3792 H   0  0  0  0  0  0
  -67.2869  -77.3181  -72.1786 H   0  0  0  0  0  0
  -67.2130  -74.2126  -74.2828 H   0  0  0  0  0  0
  -69.5918  -77.1417  -72.2472 H   0  0  0  0  0  0
  -69.2655  -73.2211  -75.2611 H   0  0  0  0  0  0
  -71.6453  -76.1575  -73.2196 H   0  0  0  0  0  0
  -71.4875  -74.1923  -74.7276 H   0  0  0  0  0  0
  1  2  1  0  0  0
  1 46  1  0  0  0
  1 47  1  0  0  0
  1 48  1  0  0  0
  2  3  1  0  0  0
  2 49  1  0  0  0
  2 50  1  0  0  0
  3  4  2  0  0  0
  3  5  1  0  0  0
  5  6  1  0  0  0
  5 51  1  0  0  0
  6  7  1  0  0  0
  6  9  1  0  0  0
  6 52  1  0  0  0
  7  8  2  0  0  0
  7 14  1  0  0  0
  9 10  1  0  0  0
  9 53  1  0  0  0
  9 54  1  0  0  0
 10 11  1  0  0  0
 10 55  1  0  0  0
 10 56  1  0  0  0
 11 12  2  0  0  0
 11 13  1  0  0  0
 13 57  1  0  0  0
 13 58  1  0  0  0
 14 15  1  0  0  0
 14 59  1  0  0  0
 15 16  1  0  0  0
 15 18  1  0  0  0
 15 60  1  0  0  0
 16 17  2  0  0  0
 16 22  1  0  0  0
 18 19  1  0  0  0
 18 61  1  0  0  0
 18 62  1  0  0  0
 19 20  1  0  0  0
 19 21  1  0  0  0
 19 63  1  0  0  0
 20 64  1  0  0  0
 20 65  1  0  0  0
 20 66  1  0  0  0
 21 67  1  0  0  0
 21 68  1  0  0  0
 21 69  1  0  0  0
 22 23  1  0  0  0
 22 70  1  0  0  0
 23 24  1  0  0  0
 23 71  1  0  0  0
 23 72  1  0  0  0
 24 25  2  0  0  0
 24 26  1  0  0  0
 26 27  1  0  0  0
 26 73  1  0  0  0
 27 28  1  0  0  0
 27 30  1  0  0  0
 27 74  1  0  0  0
 28 29  2  0  0  0
 28 34  1  0  0  0
 30 31  1  0  0  0
 30 75  1  0  0  0
 30 76  1  0  0  0
 31 32  1  0  0  0
 31 33  1  0  0  0
 31 77  1  0  0  0
 32 78  1  0  0  0
 32 79  1  0  0  0
 32 80  1  0  0  0
 33 81  1  0  0  0
 33 82  1  0  0  0
 33 83  1  0  0  0
 34 35  1  0  0  0
 34 84  1  0  0  0
 35 36  1  0  0  0
 35 38  1  0  0  0
 35 85  1  0  0  0
 36 37  1  0  0  0
 36 45  2  0  0  0
 38 39  1  0  0  0
 38 86  1  0  0  0
 38 87  1  0  0  0
 39 40  2  0  0  0
 39 41  1  0  0  0
 40 42  1  0  0  0
 40 88  1  0  0  0
 41 43  2  0  0  0
 41 89  1  0  0  0
 42 44  2  0  0  0
 42 90  1  0  0  0
 43 44  1  0  0  0
 43 91  1  0  0  0
 44 92  1  0  0  0
M  CHG  2   1   1  37  -1
M  END
> <s_m_source_file>
../3d1e_ligand.sdf

> <i_m_source_file_index>
1

> <s_epik_input>
W05IMytdW0NIMl1DKD1PKVtOSF1bQ0BASF0oW0NIMl1bQ0gyXUMoPU8pW05IMl0pQyg9TylbTkhdW0NAQEhdKFtDSDJdW0NIXShbQ0gzXSlbQ0gzXSlDKD1PKVtOSF1bQ0gyXUMoPU8pW05IXVtDQEBIXShbQ0gyXVtDSF0oW0NIM10pW0NIM10pQyg9TylbTkhdW0NASF0oQyg9TylbT0hdKVtDSDJdYzFbY0hdW2NIXVtjSF1bY0hdW2NIXTE=

> <s_epik_cmdline>
J2VwaWtfYXBwJywgJy1pbWFlJywgJ2xpZ2FuZF9wcm8ubWFlJywgJy1vbWFlJywgJ2xpZ2FuZF9wcmVwLm1hZScsICctbXMnLCAnMScsICctcGgnLCAnNycsICctcGh0JywgJzAuNScsICctbnQn

> <r_epik_Ionization_Penalty>
  0.1284

> <r_epik_Ionization_Penalty_Charging>
  0.1284

> <r_epik_Ionization_Penalty_Neutral>
  0.0000

> <r_epik_State_Penalty>
  0.1176

> <r_epik_Charging_Adjusted_Penalty>
0.245957340579935

> <i_epik_Tot_Q>
0

> <i_epik_Tot_abs_Q>
2

$$$$
