3d1f_ligand
                    3D
 Schrodinger Suite 2020-3.
143143  0  0  1  0            999 V2000
   46.9730   97.7320  116.0990 N   0  3  0  0  0  0
   46.9340   98.2710  114.7030 C   0  0  2  0  0  0
   47.0060   99.7950  114.7280 C   0  0  0  0  0  0
   46.3160  100.4420  115.5190 O   0  0  0  0  0  0
   45.6520   97.8230  114.0000 C   0  0  0  0  0  0
   44.5020   98.2120  114.7310 O   0  0  0  0  0  0
   47.8420  100.3670  113.8660 N   0  0  0  0  0  0
   47.9840  101.8170  113.8300 C   0  0  2  0  0  0
   46.6330  102.4930  113.6340 C   0  0  0  0  0  0
   46.3400  103.5040  114.2710 O   0  0  0  0  0  0
   48.9580  102.2440  112.7320 C   0  0  0  0  0  0
   49.3130  103.7210  112.8130 C   0  0  0  0  0  0
   50.5420  104.0860  112.0010 C   0  0  0  0  0  0
   50.5590  103.8100  110.7860 O   0  0  0  0  0  0
   51.4890  104.6590  112.5810 O   0  5  0  0  0  0
   45.8150  101.9420  112.7470 N   0  0  0  0  0  0
   44.4800  102.4850  112.5100 C   0  0  2  0  0  0
   43.5090  101.6050  113.2800 C   0  0  0  0  0  0
   43.4950  100.3840  113.1050 O   0  0  0  0  0  0
   44.1260  102.4550  111.0200 C   0  0  0  0  0  0
   42.6540  102.7510  110.7270 C   0  0  0  0  0  0
   42.2160  104.1250  111.2110 C   0  0  0  0  0  0
   41.2450  104.2530  111.9620 O   0  0  0  0  0  0
   42.9310  105.1600  110.7800 N   0  0  0  0  0  0
   42.7100  102.2170  114.1440 N   0  0  0  0  0  0
   41.7440  101.4610  114.9310 C   0  0  2  0  0  0
   40.5160  101.1490  114.0840 C   0  0  0  0  0  0
   40.0360  102.0000  113.3380 O   0  0  0  0  0  0
   41.3220  102.2440  116.1890 C   0  0  0  0  0  0
   40.3390  101.4200  117.0040 C   0  0  0  0  0  0
   42.5630  102.5870  117.0270 C   0  0  0  0  0  0
   40.0210   99.9210  114.1930 N   0  0  0  0  0  0
   38.8580   99.4860  113.4280 C   0  0  2  0  0  0
   37.5500   99.7960  114.1420 C   0  0  0  0  0  0
   37.4610   99.6760  115.3610 O   0  0  0  0  0  0
   38.9400   97.9750  113.1610 C   0  0  0  0  0  0
   40.1320   97.5550  112.3150 C   0  0  0  0  0  0
   40.0450   98.0660  110.8870 C   0  0  0  0  0  0
   41.0990   98.1460  110.2220 O   0  0  0  0  0  0
   38.9240   98.3760  110.4260 O   0  5  0  0  0  0
   36.5380  100.2000  113.3800 N   0  0  0  0  0  0
   35.2220  100.4900  113.9420 C   0  0  2  0  0  0
   34.6890   99.2040  114.5600 C   0  0  0  0  0  0
   34.8460   98.1250  113.9860 O   0  0  0  0  0  0
   34.2500  100.9500  112.8490 C   0  0  0  0  0  0
   34.2310  102.4190  112.4240 C   0  0  0  0  0  0
   33.3080  102.5910  111.2200 C   0  0  0  0  0  0
   33.7470  103.2810  113.5900 C   0  0  0  0  0  0
   34.0580   99.3220  115.7240 N   0  0  0  0  0  0
   33.5100   98.1610  116.4130 C   0  0  2  0  0  0
   31.9860   98.2030  116.4790 C   0  0  0  0  0  0
   31.4120   98.8910  117.3250 O   0  0  0  0  0  0
   34.0920   98.0730  117.8270 C   0  0  0  0  0  0
   35.6050   97.9060  117.8540 C   0  0  0  0  0  0
   36.1660   97.8090  119.2610 C   0  0  0  0  0  0
   35.7710   96.8810  119.9980 O   0  0  0  0  0  0
   37.0050   98.6610  119.6290 O   0  5  0  0  0  0
   31.3370   97.4740  115.5740 N   0  0  0  0  0  0
   29.8780   97.4180  115.5410 C   0  0  2  0  0  0
   29.4030   96.2160  116.3510 C   0  0  0  0  0  0
   28.4800   96.3200  117.1590 O   0  0  0  0  0  0
   29.3600   97.2710  114.1060 C   0  0  0  0  0  0
   29.7840   98.3750  113.1770 C   0  0  0  0  0  0
   31.0280   98.3410  112.5550 C   0  0  0  0  0  0
   28.9230   99.4330  112.8980 C   0  0  0  0  0  0
   31.4080   99.3420  111.6660 C   0  0  0  0  0  0
   29.2950  100.4400  112.0080 C   0  0  0  0  0  0
   30.5390  100.3920  111.3910 C   0  0  0  0  0  0
   30.0460   95.0750  116.1180 N   0  0  0  0  0  0
   29.7150   93.8310  116.8040 C   0  0  2  0  0  0
   29.8950   93.9890  118.3140 C   0  0  0  0  0  0
   30.3210   95.0810  118.7460 O   0  5  0  0  0  0
   30.6160   92.7050  116.2830 C   0  0  0  0  0  0
   30.1770   91.3290  116.7550 C   0  0  0  0  0  0
   30.8900   90.3470  116.4510 O   0  5  0  0  0  0
   29.1240   91.2260  117.4190 O   0  0  0  0  0  0
   29.6130   93.0190  119.0480 O   0  0  0  0  0  0
   47.8990   98.0610  116.5933 H   0  0  0  0  0  0
   46.9442   96.6328  116.0686 H   0  0  0  0  0  0
   46.1045   98.1062  116.6609 H   0  0  0  0  0  0
   47.8074   97.8705  114.1675 H   0  0  0  0  0  0
   45.6029   98.2801  113.0007 H   0  0  0  0  0  0
   45.6510   96.7273  113.9025 H   0  0  0  0  0  0
   43.4996   97.9617  114.3535 H   0  0  0  0  0  0
   48.4279   99.7397  113.1780 H   0  0  0  0  0  0
   48.3905  102.0888  114.8153 H   0  0  0  0  0  0
   49.8893  101.6657  112.8228 H   0  0  0  0  0  0
   48.5050  102.0574  111.7471 H   0  0  0  0  0  0
   48.4733  104.3213  112.4327 H   0  0  0  0  0  0
   49.5137  103.9930  113.8598 H   0  0  0  0  0  0
   46.1580  101.0607  112.1852 H   0  0  0  0  0  0
   44.4728  103.5288  112.8570 H   0  0  0  0  0  0
   44.7225  103.2095  110.4862 H   0  0  0  0  0  0
   44.3453  101.4577  110.6110 H   0  0  0  0  0  0
   42.4804  102.7082  109.6416 H   0  0  0  0  0  0
   42.0226  102.0031  111.2290 H   0  0  0  0  0  0
   43.7887  104.9956  110.1111 H   0  0  0  0  0  0
   42.6648  106.1806  111.0923 H   0  0  0  0  0  0
   42.7827  103.3081  114.2629 H   0  0  0  0  0  0
   42.2614  100.5329  115.2154 H   0  0  0  0  0  0
   40.8195  103.1780  115.8971 H   0  0  0  0  0  0
   39.4586  101.1847  116.3879 H   0  0  0  0  0  0
   40.0249  101.9934  117.8886 H   0  0  0  0  0  0
   40.8220  100.4854  117.3254 H   0  0  0  0  0  0
   43.2615  103.1826  116.4209 H   0  0  0  0  0  0
   43.0566  101.6580  117.3484 H   0  0  0  0  0  0
   42.2595  103.1660  117.9117 H   0  0  0  0  0  0
   40.5156   99.2243  114.8858 H   0  0  0  0  0  0
   38.9063  100.0731  112.4990 H   0  0  0  0  0  0
   39.0178   97.4373  114.1175 H   0  0  0  0  0  0
   38.0350   97.6471  112.6286 H   0  0  0  0  0  0
   41.0559   97.9530  112.7600 H   0  0  0  0  0  0
   40.1865   96.4570  112.2777 H   0  0  0  0  0  0
   36.7121  100.3141  112.2999 H   0  0  0  0  0  0
   35.3574  101.2897  114.6851 H   0  0  0  0  0  0
   34.4594  100.4027  111.9181 H   0  0  0  0  0  0
   33.2169  100.7483  113.1684 H   0  0  0  0  0  0
   35.2454  102.7369  112.1412 H   0  0  0  0  0  0
   33.6680  101.9657  110.3897 H   0  0  0  0  0  0
   33.3035  103.6462  110.9092 H   0  0  0  0  0  0
   32.2875  102.2850  111.4937 H   0  0  0  0  0  0
   34.4206  103.1471  114.4493 H   0  0  0  0  0  0
   32.7280  102.9775  113.8721 H   0  0  0  0  0  0
   33.7441  104.3386  113.2876 H   0  0  0  0  0  0
   33.9539  100.3238  116.1662 H   0  0  0  0  0  0
   33.8146   97.2989  115.8014 H   0  0  0  0  0  0
   33.8533   98.9936  118.3797 H   0  0  0  0  0  0
   33.6568   97.2084  118.3495 H   0  0  0  0  0  0
   35.8818   96.9851  117.3198 H   0  0  0  0  0  0
   36.0781   98.7701  117.3646 H   0  0  0  0  0  0
   31.9260   96.9052  114.8395 H   0  0  0  0  0  0
   29.5355   98.3684  115.9762 H   0  0  0  0  0  0
   29.7323   96.3293  113.6765 H   0  0  0  0  0  0
   28.2601   97.2615  114.1124 H   0  0  0  0  0  0
   31.7134   97.5203  112.7666 H   0  0  0  0  0  0
   27.9467   99.4746  113.3809 H   0  0  0  0  0  0
   32.3858   99.3029  111.1858 H   0  0  0  0  0  0
   28.6117  101.2626  111.7969 H   0  0  0  0  0  0
   30.8330  101.1758  110.6929 H   0  0  0  0  0  0
   30.8561   95.0942  115.3742 H   0  0  0  0  0  0
   28.6586   93.6245  116.5773 H   0  0  0  0  0  0
   30.6005   92.7022  115.1831 H   0  0  0  0  0  0
   31.6456   92.8668  116.6348 H   0  0  0  0  0  0
  1  2  1  0  0  0
  1 78  1  0  0  0
  1 79  1  0  0  0
  1 80  1  0  0  0
  2  3  1  0  0  0
  2  5  1  0  0  0
  2 81  1  0  0  0
  3  4  2  0  0  0
  3  7  1  0  0  0
  5  6  1  0  0  0
  5 82  1  0  0  0
  5 83  1  0  0  0
  6 84  1  0  0  0
  7  8  1  0  0  0
  7 85  1  0  0  0
  8  9  1  0  0  0
  8 11  1  0  0  0
  8 86  1  0  0  0
  9 10  2  0  0  0
  9 16  1  0  0  0
 11 12  1  0  0  0
 11 87  1  0  0  0
 11 88  1  0  0  0
 12 13  1  0  0  0
 12 89  1  0  0  0
 12 90  1  0  0  0
 13 14  2  0  0  0
 13 15  1  0  0  0
 16 17  1  0  0  0
 16 91  1  0  0  0
 17 18  1  0  0  0
 17 20  1  0  0  0
 17 92  1  0  0  0
 18 19  2  0  0  0
 18 25  1  0  0  0
 20 21  1  0  0  0
 20 93  1  0  0  0
 20 94  1  0  0  0
 21 22  1  0  0  0
 21 95  1  0  0  0
 21 96  1  0  0  0
 22 23  2  0  0  0
 22 24  1  0  0  0
 24 97  1  0  0  0
 24 98  1  0  0  0
 25 26  1  0  0  0
 25 99  1  0  0  0
 26 27  1  0  0  0
 26 29  1  0  0  0
 26100  1  0  0  0
 27 28  2  0  0  0
 27 32  1  0  0  0
 29 30  1  0  0  0
 29 31  1  0  0  0
 29101  1  0  0  0
 30102  1  0  0  0
 30103  1  0  0  0
 30104  1  0  0  0
 31105  1  0  0  0
 31106  1  0  0  0
 31107  1  0  0  0
 32 33  1  0  0  0
 32108  1  0  0  0
 33 34  1  0  0  0
 33 36  1  0  0  0
 33109  1  0  0  0
 34 35  2  0  0  0
 34 41  1  0  0  0
 36 37  1  0  0  0
 36110  1  0  0  0
 36111  1  0  0  0
 37 38  1  0  0  0
 37112  1  0  0  0
 37113  1  0  0  0
 38 39  2  0  0  0
 38 40  1  0  0  0
 41 42  1  0  0  0
 41114  1  0  0  0
 42 43  1  0  0  0
 42 45  1  0  0  0
 42115  1  0  0  0
 43 44  2  0  0  0
 43 49  1  0  0  0
 45 46  1  0  0  0
 45116  1  0  0  0
 45117  1  0  0  0
 46 47  1  0  0  0
 46 48  1  0  0  0
 46118  1  0  0  0
 47119  1  0  0  0
 47120  1  0  0  0
 47121  1  0  0  0
 48122  1  0  0  0
 48123  1  0  0  0
 48124  1  0  0  0
 49 50  1  0  0  0
 49125  1  0  0  0
 50 51  1  0  0  0
 50 53  1  0  0  0
 50126  1  0  0  0
 51 52  2  0  0  0
 51 58  1  0  0  0
 53 54  1  0  0  0
 53127  1  0  0  0
 53128  1  0  0  0
 54 55  1  0  0  0
 54129  1  0  0  0
 54130  1  0  0  0
 55 56  2  0  0  0
 55 57  1  0  0  0
 58 59  1  0  0  0
 58131  1  0  0  0
 59 60  1  0  0  0
 59 62  1  0  0  0
 59132  1  0  0  0
 60 61  2  0  0  0
 60 69  1  0  0  0
 62 63  1  0  0  0
 62133  1  0  0  0
 62134  1  0  0  0
 63 64  2  0  0  0
 63 65  1  0  0  0
 64 66  1  0  0  0
 64135  1  0  0  0
 65 67  2  0  0  0
 65136  1  0  0  0
 66 68  2  0  0  0
 66137  1  0  0  0
 67 68  1  0  0  0
 67138  1  0  0  0
 68139  1  0  0  0
 69 70  1  0  0  0
 69140  1  0  0  0
 70 71  1  0  0  0
 70 73  1  0  0  0
 70141  1  0  0  0
 71 72  1  0  0  0
 71 77  2  0  0  0
 73 74  1  0  0  0
 73142  1  0  0  0
 73143  1  0  0  0
 74 75  1  0  0  0
 74 76  2  0  0  0
M  CHG  6   1   1  15  -1  40  -1  57  -1  72  -1  75  -1
M  END
> <s_m_source_file>
../3d1f_ligand.sdf

> <i_m_source_file_index>
1

> <s_epik_input>
W09IXVtDSDJdW0NASF0oW05IMytdKUMoPU8pW05IXVtDQEBIXShbQ0gyXVtDSDJdQyg9TylbT0hdKUMoPU8pW05IXVtDQEBIXShbQ0gyXVtDSDJdQyg9TylbTkgyXSlDKD1PKVtOSF1bQ0BASF0oW0NIXShbQ0gzXSlbQ0gzXSlDKD1PKVtOSF1bQ0BASF0oW0NIMl1bQ0gyXUMoPU8pW09IXSlDKD1PKVtOSF1bQ0BASF0oW0NIMl1bQ0hdKFtDSDNdKVtDSDNdKUMoPU8pW05IXVtDQEBIXShbQ0gyXVtDSDJdQyg9TylbT0hdKUMoPU8pW05IXVtDQEhdKEMoPU8pW05IXVtDQEhdKEMoPU8pW09IXSlbQ0gyXUMoPU8pW09IXSlbQ0gyXWMxW2NIXVtjSF1bY0hdW2NIXVtjSF0x

> <s_epik_cmdline>
J2VwaWtfYXBwJywgJy1pbWFlJywgJ2xpZ2FuZF9wcm8ubWFlJywgJy1vbWFlJywgJ2xpZ2FuZF9wcmVwLm1hZScsICctbXMnLCAnMScsICctcGgnLCAnNycsICctcGh0JywgJzAuNScsICctbnQn

> <r_epik_Ionization_Penalty>
  0.1498

> <r_epik_Ionization_Penalty_Charging>
  0.1498

> <r_epik_Ionization_Penalty_Neutral>
  0.0000

> <r_epik_State_Penalty>
  0.1326

> <r_epik_Charging_Adjusted_Penalty>
0.282373002829116

> <i_epik_Tot_Q>
-4

> <i_epik_Tot_abs_Q>
6

$$$$
