3d1g_ligand
                    3D
 Schrodinger Suite 2020-3.
 36 37  0  0  1  0            999 V2000
  -43.3330 -109.2750  -40.4900 C   0  0  0  0  0  0
  -42.4980 -111.7590  -42.5850 C   0  0  0  0  0  0
  -42.1070 -110.1430  -40.6670 C   0  0  0  0  0  0
  -44.7830 -115.9450  -42.6180 C   0  0  0  0  0  0
  -45.0040 -115.6440  -41.2300 C   0  0  0  0  0  0
  -44.4110 -114.3830  -40.5950 C   0  0  0  0  0  0
  -45.3670 -117.0990  -43.2370 C   0  0  0  0  0  0
  -44.4080 -116.7380  -45.4780 C   0  0  0  0  0  0
  -44.4470 -117.4210  -46.8310 C   0  0  0  0  0  0
  -43.1150 -113.7830  -41.0890 C   0  0  1  0  0  0
  -46.1040 -116.2080  -38.5980 Br  0  0  0  0  0  0
  -47.5420 -118.8210  -40.0810 Br  0  0  0  0  0  0
  -42.4740 -111.4700  -41.2230 N   0  0  0  0  0  0
  -42.9880 -113.4040  -42.8410 S   0  0  0  0  0  0
  -45.2230 -117.5130  -44.5840 O   0  0  0  0  0  0
  -42.8100 -112.5140  -40.3550 C   0  0  0  0  0  0
  -45.8140 -116.5370  -40.4670 C   0  0  0  0  0  0
  -46.4120 -117.6630  -41.0790 C   0  0  0  0  0  0
  -46.1890 -117.9350  -42.4520 C   0  0  0  0  0  0
  -44.4480 -109.4860  -40.9570 O   0  0  0  0  0  0
  -42.1320 -110.7560  -43.8700 S   0  0  0  0  0  0
  -43.0270 -108.2010  -39.7200 O   0  5  0  0  0  0
  -42.8490 -112.4570  -39.1310 O   0  0  0  0  0  0
  -46.7840 -119.0410  -43.0410 O   0  0  0  0  0  0
  -41.4063 -109.6514  -41.3579 H   0  0  0  0  0  0
  -41.6183 -110.2905  -39.6926 H   0  0  0  0  0  0
  -44.1570 -115.2807  -43.2138 H   0  0  0  0  0  0
  -45.1249 -113.5520  -40.6943 H   0  0  0  0  0  0
  -44.2103 -114.5686  -39.5295 H   0  0  0  0  0  0
  -43.3696 -116.6983  -45.1171 H   0  0  0  0  0  0
  -44.8029 -115.7156  -45.5718 H   0  0  0  0  0  0
  -43.8318 -116.8545  -47.5456 H   0  0  0  0  0  0
  -45.4854 -117.4607  -47.1919 H   0  0  0  0  0  0
  -44.0521 -118.4434  -46.7371 H   0  0  0  0  0  0
  -42.4622 -114.5749  -40.6931 H   0  0  0  0  0  0
  -46.6133 -119.2553  -44.1063 H   0  0  0  0  0  0
  1  3  1  0  0  0
  1 20  2  0  0  0
  1 22  1  0  0  0
  2 13  1  0  0  0
  2 14  1  0  0  0
  2 21  2  0  0  0
  3 13  1  0  0  0
  3 25  1  0  0  0
  3 26  1  0  0  0
  4  5  2  0  0  0
  4  7  1  0  0  0
  4 27  1  0  0  0
  5  6  1  0  0  0
  5 17  1  0  0  0
  6 10  1  0  0  0
  6 28  1  0  0  0
  6 29  1  0  0  0
  7 15  1  0  0  0
  7 19  2  0  0  0
  8  9  1  0  0  0
  8 15  1  0  0  0
  8 30  1  0  0  0
  8 31  1  0  0  0
  9 32  1  0  0  0
  9 33  1  0  0  0
  9 34  1  0  0  0
 10 14  1  0  0  0
 10 16  1  0  0  0
 10 35  1  0  0  0
 11 17  1  0  0  0
 12 18  1  0  0  0
 13 16  1  0  0  0
 16 23  2  0  0  0
 17 18  2  0  0  0
 18 19  1  0  0  0
 19 24  1  0  0  0
 24 36  1  0  0  0
M  CHG  1  22  -1
M  END
> <s_m_source_file>
../3d1g_ligand.sdf

> <i_m_source_file_index>
1

> <s_epik_input>
Tz1DKFtPSF0pW0NIMl1OKEMxPVMpQyg9TylbQ0BIXShTMSlbQ0gyXWMyW2NIXWMoT1tDSDJdW0NIM10pYyhbT0hdKWMoQnIpYzJCcg==

> <s_epik_cmdline>
J2VwaWtfYXBwJywgJy1pbWFlJywgJ2xpZ2FuZF9wcm8ubWFlJywgJy1vbWFlJywgJ2xpZ2FuZF9wcmVwLm1hZScsICctbXMnLCAnMScsICctcGgnLCAnNycsICctcGh0JywgJzAuNScsICctbnQn

> <r_lp_tautomer_probability>
1

> <r_epik_Ionization_Penalty>
  0.0817

> <r_epik_Ionization_Penalty_Charging>
  0.0001

> <r_epik_Ionization_Penalty_Neutral>
  0.0816

> <r_epik_State_Penalty>
  0.0723

> <r_epik_Charging_Adjusted_Penalty>
0.0724459761828064

> <i_epik_Tot_Q>
-1

> <i_epik_Tot_abs_Q>
1

$$$$
