3d20_ligand
                    3D
 Schrodinger Suite 2020-3.
 75 78  0  0  1  0            999 V2000
    8.1160   14.3490   14.1960 N   0  0  0  0  0  0
    8.6440   15.5450   14.6020 C   0  0  0  0  0  0
    9.9760   15.8360   14.2900 C   0  0  0  0  0  0
   10.4970   17.0220   14.6930 C   0  0  0  0  0  0
    9.7360   17.9480   15.4070 C   0  0  0  0  0  0
    8.4220   17.6880   15.7250 C   0  0  0  0  0  0
    7.8320   16.4590   15.3260 C   0  0  0  0  0  0
   10.6250   19.3350   16.0840 S   0  0  0  0  0  0
   11.7300   19.5680   15.2000 O   0  0  0  0  0  0
    9.6790   20.3790   16.3190 O   0  0  0  0  0  0
   11.2530   18.9100   17.5790 N   0  0  1  0  0  0
   10.3020   18.6560   18.6580 C   0  0  0  0  0  0
   10.6610   19.2800   20.0120 C   0  0  0  0  0  0
   10.6970   20.8020   19.9450 C   0  0  0  0  0  0
    9.7140   18.7750   21.1010 C   0  0  0  0  0  0
   12.5730   18.2800   17.6490 C   0  0  0  0  0  0
   13.6930   19.2040   18.1700 C   0  0  1  0  0  0
   14.8190   18.3940   18.4620 O   0  0  0  0  0  0
   14.1020   20.3310   17.2110 C   0  0  1  0  0  0
   15.0100   21.2060   17.9610 N   0  0  0  0  0  0
   14.6350   22.4890   18.2550 C   0  0  0  0  0  0
   13.5790   23.0510   17.9210 O   0  0  0  0  0  0
   15.6070   23.0830   18.9850 O   0  0  0  0  0  0
   15.5490   24.5040   19.2320 C   0  0  1  0  0  0
   16.2190   24.7410   20.5930 C   0  0  0  0  0  0
   17.6190   24.6700   20.3010 O   0  0  0  0  0  0
   17.8640   25.2110   18.9930 C   0  0  1  0  0  0
   18.6910   24.3040   18.2940 O   0  0  0  0  0  0
   17.9690   23.7420   17.2010 C   0  0  0  0  0  0
   16.7760   24.6200   16.9270 C   0  0  0  0  0  0
   16.4920   25.2860   18.2510 C   0  0  1  0  0  0
   14.8750   19.8270   15.9520 C   0  0  0  0  0  0
   16.5900   21.3500   14.8810 C   0  0  0  0  0  0
   16.9820   22.4160   14.0690 C   0  0  0  0  0  0
   15.9830   23.1230   13.4320 C   0  0  0  0  0  0
   14.6700   22.7920   13.5890 C   0  0  0  0  0  0
   14.2850   21.7480   14.3860 C   0  0  0  0  0  0
   15.2560   20.9850   15.0650 C   0  0  0  0  0  0
    8.7375   13.6355   13.6350 H   0  0  0  0  0  0
    7.0702   14.1015   14.4307 H   0  0  0  0  0  0
   10.5842   15.1230   13.7333 H   0  0  0  0  0  0
   11.5341   17.2568   14.4534 H   0  0  0  0  0  0
    7.8373   18.4215   16.2802 H   0  0  0  0  0  0
    6.7947   16.2257   15.5663 H   0  0  0  0  0  0
    9.3169   19.0594   18.3810 H   0  0  0  0  0  0
   10.2200   17.5721   18.8270 H   0  0  0  0  0  0
   11.6805   18.9645   20.2785 H   0  0  0  0  0  0
   11.3889   21.1178   19.1503 H   0  0  0  0  0  0
   11.0394   21.2035   20.9102 H   0  0  0  0  0  0
    9.6887   21.1833   19.7262 H   0  0  0  0  0  0
    9.7210   17.6751   21.1118 H   0  0  0  0  0  0
    8.6945   19.1332   20.8953 H   0  0  0  0  0  0
   10.0453   19.1534   22.0793 H   0  0  0  0  0  0
   12.5305   17.4141   18.3260 H   0  0  0  0  0  0
   12.8736   17.9460   16.6450 H   0  0  0  0  0  0
   13.3663   19.6819   19.1053 H   0  0  0  0  0  0
   14.7160   17.5316   19.1371 H   0  0  0  0  0  0
   13.1973   20.8687   16.8909 H   0  0  0  0  0  0
   15.9914   20.8307   18.2866 H   0  0  0  0  0  0
   14.4827   24.7605   19.1471 H   0  0  0  0  0  0
   15.9240   25.7275   20.9801 H   0  0  0  0  0  0
   15.9009   23.9600   21.2993 H   0  0  0  0  0  0
   18.4107   26.1611   19.0850 H   0  0  0  0  0  0
   18.6196   23.6994   16.3150 H   0  0  0  0  0  0
   17.6394   22.7258   17.4630 H   0  0  0  0  0  0
   17.0301   25.3502   16.1445 H   0  0  0  0  0  0
   15.9334   23.9988   16.5891 H   0  0  0  0  0  0
   16.0382   26.2553   17.9971 H   0  0  0  0  0  0
   15.7897   19.3042   16.2683 H   0  0  0  0  0  0
   14.2364   19.1362   15.3818 H   0  0  0  0  0  0
   17.3616   20.7766   15.3948 H   0  0  0  0  0  0
   18.0325   22.6785   13.9437 H   0  0  0  0  0  0
   16.2490   23.9630   12.7904 H   0  0  0  0  0  0
   13.9088   23.3724   13.0676 H   0  0  0  0  0  0
   13.2277   21.5068   14.4955 H   0  0  0  0  0  0
  1  2  1  0  0  0
  1 39  1  0  0  0
  1 40  1  0  0  0
  2  3  2  0  0  0
  2  7  1  0  0  0
  3  4  1  0  0  0
  3 41  1  0  0  0
  4  5  2  0  0  0
  4 42  1  0  0  0
  5  6  1  0  0  0
  5  8  1  0  0  0
  6  7  2  0  0  0
  6 43  1  0  0  0
  7 44  1  0  0  0
  8  9  2  0  0  0
  8 10  2  0  0  0
  8 11  1  0  0  0
 11 12  1  0  0  0
 11 16  1  0  0  0
 12 13  1  0  0  0
 12 45  1  0  0  0
 12 46  1  0  0  0
 13 14  1  0  0  0
 13 15  1  0  0  0
 13 47  1  0  0  0
 14 48  1  0  0  0
 14 49  1  0  0  0
 14 50  1  0  0  0
 15 51  1  0  0  0
 15 52  1  0  0  0
 15 53  1  0  0  0
 16 17  1  0  0  0
 16 54  1  0  0  0
 16 55  1  0  0  0
 17 18  1  0  0  0
 17 19  1  0  0  0
 17 56  1  0  0  0
 18 57  1  0  0  0
 19 20  1  0  0  0
 19 32  1  0  0  0
 19 58  1  0  0  0
 20 21  1  0  0  0
 20 59  1  0  0  0
 21 22  2  0  0  0
 21 23  1  0  0  0
 23 24  1  0  0  0
 24 25  1  0  0  0
 24 31  1  0  0  0
 24 60  1  0  0  0
 25 26  1  0  0  0
 25 61  1  0  0  0
 25 62  1  0  0  0
 26 27  1  0  0  0
 27 28  1  0  0  0
 27 31  1  0  0  0
 27 63  1  0  0  0
 28 29  1  0  0  0
 29 30  1  0  0  0
 29 64  1  0  0  0
 29 65  1  0  0  0
 30 31  1  0  0  0
 30 66  1  0  0  0
 30 67  1  0  0  0
 31 68  1  0  0  0
 32 38  1  0  0  0
 32 69  1  0  0  0
 32 70  1  0  0  0
 33 34  2  0  0  0
 33 38  1  0  0  0
 33 71  1  0  0  0
 34 35  1  0  0  0
 34 72  1  0  0  0
 35 36  2  0  0  0
 35 73  1  0  0  0
 36 37  1  0  0  0
 36 74  1  0  0  0
 37 38  2  0  0  0
 37 75  1  0  0  0
M  END
> <s_m_source_file>
../3d20_ligand.sdf

> <i_m_source_file_index>
1

> <s_epik_input>
W05IMl1jMVtjSF1bY0hdYyhbY0hdW2NIXTEpUyg9TykoPU8pTihbQ0gyXVtDSF0oW0NIM10pW0NIM10pW0NIMl1bQ0BASF0oW09IXSlbQ0BASF0oW05IXUMoPU8pT1tDQEBIXShbQ0gyXU8yKVtDQEBIXShbQ0BASF0yMylbQ0gyXVtDSDJdTzMpW0NIMl1jNFtjSF1bY0hdW2NIXVtjSF1bY0hdNA==

> <s_epik_cmdline>
J2VwaWtfYXBwJywgJy1pbWFlJywgJ2xpZ2FuZF9wcm8ubWFlJywgJy1vbWFlJywgJ2xpZ2FuZF9wcmVwLm1hZScsICctbXMnLCAnMScsICctcGgnLCAnNycsICctcGh0JywgJzAuNScsICctbnQn

> <r_lp_tautomer_probability>
1

> <r_epik_Ionization_Penalty>
  0.0000

> <r_epik_Ionization_Penalty_Charging>
  0.0000

> <r_epik_Ionization_Penalty_Neutral>
  0.0000

> <r_epik_State_Penalty>
 -0.0000

> <r_epik_Charging_Adjusted_Penalty>
0

> <i_epik_Tot_Q>
0

> <i_epik_Tot_abs_Q>
0

> <s_epik_Chemistry_Notes>
This compound has an ester and may undergo hydrolysis at high or low pH. This compound contains an acetal/aminal-like group ( X-CH(R)-Y where X, Y are N, S, or O) that may be acid/base labile, releasing an aldehyde.

$$$$
