3d25_ligand
                    3D
 Schrodinger Suite 2020-3.
141141  0  0  1  0            999 V2000
   54.1000    4.8350   34.9170 N   0  3  0  0  0  0
   53.7440    6.1960   34.5460 C   0  0  2  0  0  0
   54.3170    7.1820   35.5690 C   0  0  0  0  0  0
   54.5000    6.8540   36.7460 O   0  0  0  0  0  0
   52.2370    6.4720   34.4480 C   0  0  0  0  0  0
   51.6340    5.6540   33.2930 C   0  0  0  0  0  0
   51.5720    6.2100   35.7780 C   0  0  0  0  0  0
   54.5600    8.3920   35.0820 N   0  0  0  0  0  0
   55.0750    9.4790   35.8980 C   0  0  2  0  0  0
   54.0480    9.9810   36.9100 C   0  0  0  0  0  0
   52.8330    9.8500   36.7080 O   0  0  0  0  0  0
   55.4480   10.6710   34.9830 C   0  0  0  0  0  0
   56.6370   10.4990   34.0560 C   0  0  0  0  0  0
   56.6680   11.6320   33.0120 C   0  0  0  0  0  0
   58.0030   10.4890   34.7340 C   0  0  0  0  0  0
   54.5860   10.5740   37.9840 N   0  0  0  0  0  0
   53.7110   11.3730   38.8940 C   0  0  2  0  0  0
   53.1270   12.5490   38.1520 C   0  0  0  0  0  0
   53.7120   13.0830   37.2060 O   0  0  0  0  0  0
   54.5270   11.7690   40.1180 C   0  0  0  0  0  0
   53.7880   12.5290   41.1850 C   0  0  0  0  0  0
   52.5990   12.1130   41.7380 N   0  0  0  0  0  0
   54.0810   13.7280   41.7750 C   0  0  0  0  0  0
   52.1800   13.0080   42.6500 C   0  0  0  0  0  0
   53.0730   13.9920   42.6860 N   0  0  0  0  0  0
   51.9390   13.0220   38.5820 N   0  0  0  0  0  0
   51.2680   14.0150   37.7580 C   0  0  2  0  0  0
   51.6930   15.4630   37.9000 C   0  0  0  0  0  0
   51.3510   16.2410   36.9900 O   0  0  0  0  0  0
   49.7620   13.9080   38.0480 C   0  0  0  0  0  0
   49.4130   14.3180   39.4760 C   0  0  0  0  0  0
   50.3250   14.5700   40.3030 O   0  0  0  0  0  0
   48.1760   14.3950   39.7410 O   0  5  0  0  0  0
   52.4100   15.8740   38.9340 N   0  0  0  0  0  0
   52.6950   17.3030   39.1520 C   0  0  2  0  0  0
   53.8750   17.4460   40.1010 C   0  0  0  0  0  0
   53.8820   16.8220   41.1730 O   0  0  0  0  0  0
   51.4420   17.9870   39.7370 C   0  0  0  0  0  0
   51.4900   19.4720   39.8890 C   0  0  0  0  0  0
   52.3310   20.0830   39.1940 O   0  0  0  0  0  0
   50.7020   20.0520   40.6830 O   0  5  0  0  0  0
   54.8830   18.2520   39.8000 N   0  0  0  0  0  0
   55.9320   18.5410   40.7600 C   0  0  2  0  0  0
   55.8750   20.0010   41.2390 C   0  0  0  0  0  0
   55.9480   20.8810   40.3530 O   0  0  0  0  0  0
   57.3320   18.3100   40.1760 C   0  0  0  0  0  0
   57.6330   16.9360   39.5950 C   0  0  0  0  0  0
   59.0220   16.8680   38.9930 C   0  0  0  0  0  0
   57.4840   15.8440   40.6770 C   0  0  0  0  0  0
   55.7920   20.2020   42.5490 N   0  0  0  0  0  0
   55.7990   21.5600   43.1160 C   0  0  2  0  0  0
   57.2380   22.0790   43.0800 C   0  0  0  0  0  0
   58.2230   21.3630   43.3050 O   0  0  0  0  0  0
   55.2430   21.5720   44.5340 C   0  0  0  0  0  0
   54.9150   22.8640   45.2690 C   0  0  0  0  0  0
   53.7390   23.5940   44.6510 C   0  0  0  0  0  0
   54.6280   22.6030   46.7640 C   0  0  0  0  0  0
   57.3710   23.3560   42.8040 N   0  0  0  0  0  0
   58.6550   24.0140   42.7800 C   0  0  2  0  0  0
   59.3100   24.0510   44.1710 C   0  0  0  0  0  0
   58.5860   24.1950   45.1750 O   0  0  0  0  0  0
   58.4730   25.4640   42.2600 C   0  0  0  0  0  0
   58.0380   25.4620   40.7820 C   0  0  0  0  0  0
   57.5350   26.7930   40.2400 C   0  0  0  0  0  0
   57.5190   27.8240   40.9440 O   0  5  0  0  0  0
   57.1320   26.8710   39.0630 O   0  0  0  0  0  0
   60.6330   23.9470   44.1770 N   0  0  0  0  0  0
   61.4560   24.0240   45.3700 C   0  0  2  0  0  0
   61.5510   25.4180   45.9830 C   0  0  0  0  0  0
   61.9840   25.5290   47.1530 O   0  0  0  0  0  0
   62.8830   23.5220   45.0660 C   0  0  0  0  0  0
   61.1970   26.4350   45.3360 O   0  5  0  0  0  0
   55.1952    4.7411   34.9596 H   0  0  0  0  0  0
   53.7008    4.1346   34.1686 H   0  0  0  0  0  0
   53.6732    4.6003   35.9033 H   0  0  0  0  0  0
   54.1910    6.2726   33.5438 H   0  0  0  0  0  0
   52.0497    7.5346   34.2341 H   0  0  0  0  0  0
   52.1634    5.8932   32.3589 H   0  0  0  0  0  0
   50.5681    5.9032   33.1846 H   0  0  0  0  0  0
   51.7394    4.5807   33.5097 H   0  0  0  0  0  0
   52.0505    6.8247   36.5546 H   0  0  0  0  0  0
   51.6762    5.1459   36.0367 H   0  0  0  0  0  0
   50.5049    6.4685   35.7116 H   0  0  0  0  0  0
   54.3555    8.5555   34.0136 H   0  0  0  0  0  0
   55.9319    9.0341   36.4250 H   0  0  0  0  0  0
   54.5989   10.9078   34.3250 H   0  0  0  0  0  0
   55.6875   11.5479   35.6025 H   0  0  0  0  0  0
   56.4766    9.5004   33.6234 H   0  0  0  0  0  0
   55.6991   11.6794   32.4934 H   0  0  0  0  0  0
   57.4659   11.4351   32.2809 H   0  0  0  0  0  0
   56.8611   12.5902   33.5165 H   0  0  0  0  0  0
   58.0302    9.6924   35.4921 H   0  0  0  0  0  0
   58.1796   11.4612   35.2173 H   0  0  0  0  0  0
   58.7844   10.3062   33.9817 H   0  0  0  0  0  0
   55.6604   10.4773   38.1990 H   0  0  0  0  0  0
   52.8513   10.7727   39.2264 H   0  0  0  0  0  0
   55.5930   11.5319   40.2499 H   0  0  0  0  0  0
   54.9093   14.4408   41.6494 H   0  0  0  0  0  0
   51.2730   12.9391   43.2506 H   0  0  0  0  0  0
   51.4760   12.6821   39.5201 H   0  0  0  0  0  0
   51.5981   13.7348   36.7468 H   0  0  0  0  0  0
   49.2088   14.5656   37.3614 H   0  0  0  0  0  0
   49.4338   12.8681   37.9038 H   0  0  0  0  0  0
   52.7957   15.1225   39.6386 H   0  0  0  0  0  0
   52.9592   17.7472   38.1810 H   0  0  0  0  0  0
   50.5769   17.7836   39.0888 H   0  0  0  0  0  0
   51.2457   17.5925   40.7449 H   0  0  0  0  0  0
   54.9141   18.7054   38.7983 H   0  0  0  0  0  0
   55.7091   17.8282   41.5676 H   0  0  0  0  0  0
   57.5074   19.0184   39.3530 H   0  0  0  0  0  0
   58.0869   18.4655   40.9608 H   0  0  0  0  0  0
   56.9122   16.7717   38.7805 H   0  0  0  0  0  0
   59.1263   17.6463   38.2227 H   0  0  0  0  0  0
   59.1763   15.8786   38.5378 H   0  0  0  0  0  0
   59.7717   17.0297   39.7816 H   0  0  0  0  0  0
   56.4753   15.8949   41.1128 H   0  0  0  0  0  0
   58.2330   16.0053   41.4663 H   0  0  0  0  0  0
   57.6376   14.8541   40.2225 H   0  0  0  0  0  0
   55.7169   19.3288   43.2138 H   0  0  0  0  0  0
   55.1365   22.1854   42.4996 H   0  0  0  0  0  0
   54.2857   21.0307   44.5570 H   0  0  0  0  0  0
   55.9574   21.0824   45.2122 H   0  0  0  0  0  0
   55.8010   23.5064   45.1582 H   0  0  0  0  0  0
   53.9419   23.7807   43.5861 H   0  0  0  0  0  0
   53.5891   24.5526   45.1693 H   0  0  0  0  0  0
   52.8327   22.9784   44.7492 H   0  0  0  0  0  0
   55.4806   22.0732   47.2140 H   0  0  0  0  0  0
   53.7213   21.9878   46.8613 H   0  0  0  0  0  0
   54.4777   23.5620   47.2814 H   0  0  0  0  0  0
   56.4563   23.9268   42.5859 H   0  0  0  0  0  0
   59.2640   23.3915   42.1079 H   0  0  0  0  0  0
   57.7021   25.9735   42.8567 H   0  0  0  0  0  0
   59.4249   26.0079   42.3496 H   0  0  0  0  0  0
   58.8904   25.1739   40.1493 H   0  0  0  0  0  0
   57.2178   24.7424   40.6421 H   0  0  0  0  0  0
   61.1022   23.7928   43.1941 H   0  0  0  0  0  0
   60.9031   23.3794   46.0692 H   0  0  0  0  0  0
   62.8313   22.5165   44.6229 H   0  0  0  0  0  0
   63.4642   23.4821   45.9991 H   0  0  0  0  0  0
   63.3708   24.2095   44.3593 H   0  0  0  0  0  0
   52.1410   11.1680   41.4107 H   0  0  0  0  0  0
  1  2  1  0  0  0
  1 73  1  0  0  0
  1 74  1  0  0  0
  1 75  1  0  0  0
  2  3  1  0  0  0
  2  5  1  0  0  0
  2 76  1  0  0  0
  3  4  2  0  0  0
  3  8  1  0  0  0
  5  6  1  0  0  0
  5  7  1  0  0  0
  5 77  1  0  0  0
  6 78  1  0  0  0
  6 79  1  0  0  0
  6 80  1  0  0  0
  7 81  1  0  0  0
  7 82  1  0  0  0
  7 83  1  0  0  0
  8  9  1  0  0  0
  8 84  1  0  0  0
  9 10  1  0  0  0
  9 12  1  0  0  0
  9 85  1  0  0  0
 10 11  2  0  0  0
 10 16  1  0  0  0
 12 13  1  0  0  0
 12 86  1  0  0  0
 12 87  1  0  0  0
 13 14  1  0  0  0
 13 15  1  0  0  0
 13 88  1  0  0  0
 14 89  1  0  0  0
 14 90  1  0  0  0
 14 91  1  0  0  0
 15 92  1  0  0  0
 15 93  1  0  0  0
 15 94  1  0  0  0
 16 17  1  0  0  0
 16 95  1  0  0  0
 17 18  1  0  0  0
 17 20  1  0  0  0
 17 96  1  0  0  0
 18 19  2  0  0  0
 18 26  1  0  0  0
 20 21  2  0  0  0
 20 97  1  0  0  0
 21 22  1  0  0  0
 21 23  1  0  0  0
 22 24  1  0  0  0
 22141  1  0  0  0
 23 25  2  0  0  0
 23 98  1  0  0  0
 24 25  1  0  0  0
 24 99  1  0  0  0
 26 27  1  0  0  0
 26100  1  0  0  0
 27 28  1  0  0  0
 27 30  1  0  0  0
 27101  1  0  0  0
 28 29  2  0  0  0
 28 34  1  0  0  0
 30 31  1  0  0  0
 30102  1  0  0  0
 30103  1  0  0  0
 31 32  2  0  0  0
 31 33  1  0  0  0
 34 35  1  0  0  0
 34104  1  0  0  0
 35 36  1  0  0  0
 35 38  1  0  0  0
 35105  1  0  0  0
 36 37  2  0  0  0
 36 42  1  0  0  0
 38 39  1  0  0  0
 38106  1  0  0  0
 38107  1  0  0  0
 39 40  2  0  0  0
 39 41  1  0  0  0
 42 43  1  0  0  0
 42108  1  0  0  0
 43 44  1  0  0  0
 43 46  1  0  0  0
 43109  1  0  0  0
 44 45  2  0  0  0
 44 50  1  0  0  0
 46 47  1  0  0  0
 46110  1  0  0  0
 46111  1  0  0  0
 47 48  1  0  0  0
 47 49  1  0  0  0
 47112  1  0  0  0
 48113  1  0  0  0
 48114  1  0  0  0
 48115  1  0  0  0
 49116  1  0  0  0
 49117  1  0  0  0
 49118  1  0  0  0
 50 51  1  0  0  0
 50119  1  0  0  0
 51 52  1  0  0  0
 51 54  1  0  0  0
 51120  1  0  0  0
 52 53  2  0  0  0
 52 58  1  0  0  0
 54 55  1  0  0  0
 54121  1  0  0  0
 54122  1  0  0  0
 55 56  1  0  0  0
 55 57  1  0  0  0
 55123  1  0  0  0
 56124  1  0  0  0
 56125  1  0  0  0
 56126  1  0  0  0
 57127  1  0  0  0
 57128  1  0  0  0
 57129  1  0  0  0
 58 59  1  0  0  0
 58130  1  0  0  0
 59 60  1  0  0  0
 59 62  1  0  0  0
 59131  1  0  0  0
 60 61  2  0  0  0
 60 67  1  0  0  0
 62 63  1  0  0  0
 62132  1  0  0  0
 62133  1  0  0  0
 63 64  1  0  0  0
 63134  1  0  0  0
 63135  1  0  0  0
 64 65  1  0  0  0
 64 66  2  0  0  0
 67 68  1  0  0  0
 67136  1  0  0  0
 68 69  1  0  0  0
 68 71  1  0  0  0
 68137  1  0  0  0
 69 70  2  0  0  0
 69 72  1  0  0  0
 71138  1  0  0  0
 71139  1  0  0  0
 71140  1  0  0  0
M  CHG  5   1   1  33  -1  41  -1  65  -1  72  -1
M  END
> <s_m_source_file>
../3d25_ligand.sdf

> <i_m_source_file_index>
1

> <s_epik_input>
W0NIM11bQ0hdKFtDSDNdKVtDQEhdKFtOSDMrXSlDKD1PKVtOSF1bQ0BASF0oW0NIMl1bQ0hdKFtDSDNdKVtDSDNdKUMoPU8pW05IXVtDQEBIXShbQ0gyXUMxPU5bQ0gyXU49W0NIXTEpQyg9TylbTkhdW0NAQEhdKFtDSDJdQyg9TylbT0hdKUMoPU8pW05IXVtDQEBIXShbQ0gyXUMoPU8pW09IXSlDKD1PKVtOSF1bQ0BASF0oW0NIMl1bQ0hdKFtDSDNdKVtDSDNdKUMoPU8pW05IXVtDQEBIXShbQ0gyXVtDSF0oW0NIM10pW0NIM10pQyg9TylbTkhdW0NAQEhdKFtDSDJdW0NIMl1DKD1PKVtPSF0pQyg9TylbTkhdW0NAQEhdKFtDSDNdKUMoPU8pW09IXQ==

> <s_epik_cmdline>
J2VwaWtfYXBwJywgJy1pbWFlJywgJ2xpZ2FuZF9wcm8ubWFlJywgJy1vbWFlJywgJ2xpZ2FuZF9wcmVwLm1hZScsICctbXMnLCAnMScsICctcGgnLCAnNycsICctcGh0JywgJzAuNScsICctbnQn

> <r_lp_tautomer_probability>
1

> <r_epik_Ionization_Penalty>
  0.0872

> <r_epik_Ionization_Penalty_Charging>
  0.0871

> <r_epik_Ionization_Penalty_Neutral>
  0.0000

> <r_epik_State_Penalty>
 -0.0000

> <r_epik_Charging_Adjusted_Penalty>
0.0871487690299016

> <i_epik_Tot_Q>
-3

> <i_epik_Tot_abs_Q>
5

> <s_epik_Chemistry_Notes>
This compound has an imine and may undergo hydrolysis.

$$$$
