3d28_ligand
                    3D
 Schrodinger Suite 2020-3.
 47 50  0  0  1  0            999 V2000
   94.0900    5.5460   56.5450 O   0  0  0  0  0  0
   94.7710    6.7180   56.0330 S   0  0  0  0  0  0
   96.1290    7.0440   56.4170 O   0  0  0  0  0  0
   93.7620    8.0760   56.4240 C   0  0  0  0  0  0
   93.4450    8.5250   57.6880 C   0  0  0  0  0  0
   92.6080    9.6440   57.7710 C   0  0  0  0  0  0
   94.6080    6.8900   54.4010 N   0  0  0  0  0  0
   93.8370    7.9020   54.1000 C   0  0  0  0  0  0
   93.2960    8.6630   55.2490 C   0  0  0  0  0  0
   92.4630    9.7740   55.3300 C   0  0  0  0  0  0
   92.1220   10.2630   56.6000 C   0  0  0  0  0  0
   93.5820    8.2430   52.6880 C   0  0  0  0  0  0
   93.1160    9.5130   52.0700 C   0  0  0  0  0  0
   92.8170   10.5320   52.6760 O   0  0  0  0  0  0
   93.0760    9.3000   50.6950 N   0  0  0  0  0  0
   93.5190    7.9590   50.3140 C   0  0  1  0  0  0
   94.7420    7.9960   49.3770 C   0  0  0  0  0  0
   95.1820    6.6050   48.9270 C   0  0  0  0  0  0
   95.9530    8.7280   49.9700 C   0  0  0  0  0  0
   93.8010    7.3940   51.6790 C   0  0  0  0  0  0
   94.2450    6.1070   51.8490 O   0  5  0  0  0  0
   92.6560   10.3120   49.7390 C   0  0  0  0  0  0
   91.2230   10.1650   49.3120 C   0  0  0  0  0  0
   90.8790   10.4270   47.9830 C   0  0  0  0  0  0
   89.5480   10.2960   47.5700 C   0  0  0  0  0  0
   90.2520    9.7680   50.2360 C   0  0  0  0  0  0
   88.9240    9.6300   49.8200 C   0  0  0  0  0  0
   88.5720    9.8980   48.4900 C   0  0  0  0  0  0
   93.8282    8.0318   58.5813 H   0  0  0  0  0  0
   92.3297   10.0401   58.7476 H   0  0  0  0  0  0
   92.0839   10.2536   54.4276 H   0  0  0  0  0  0
   91.4720   11.1340   56.6833 H   0  0  0  0  0  0
   92.7716    7.3869   49.7447 H   0  0  0  0  0  0
   94.3944    8.5613   48.4998 H   0  0  0  0  0  0
   94.3220    6.0689   48.4993 H   0  0  0  0  0  0
   95.5699    6.0457   49.7911 H   0  0  0  0  0  0
   95.9711    6.6983   48.1663 H   0  0  0  0  0  0
   95.6492    9.7329   50.2986 H   0  0  0  0  0  0
   96.7396    8.8142   49.2059 H   0  0  0  0  0  0
   96.3384    8.1617   50.8307 H   0  0  0  0  0  0
   92.7678   11.3098   50.1884 H   0  0  0  0  0  0
   93.2802   10.2446   48.8357 H   0  0  0  0  0  0
   91.6449   10.7325   47.2702 H   0  0  0  0  0  0
   89.2730   10.5032   46.5358 H   0  0  0  0  0  0
   90.5275    9.5678   51.2714 H   0  0  0  0  0  0
   88.1612    9.3134   50.5314 H   0  0  0  0  0  0
   87.5346    9.7960   48.1715 H   0  0  0  0  0  0
  1  2  2  0  0  0
  2  3  2  0  0  0
  2  4  1  0  0  0
  2  7  1  0  0  0
  4  5  2  0  0  0
  4  9  1  0  0  0
  5  6  1  0  0  0
  5 29  1  0  0  0
  6 11  2  0  0  0
  6 30  1  0  0  0
  7  8  2  0  0  0
  8  9  1  0  0  0
  8 12  1  0  0  0
  9 10  2  0  0  0
 10 11  1  0  0  0
 10 31  1  0  0  0
 11 32  1  0  0  0
 12 13  1  0  0  0
 12 20  2  0  0  0
 13 14  2  0  0  0
 13 15  1  0  0  0
 15 16  1  0  0  0
 15 22  1  0  0  0
 16 17  1  0  0  0
 16 20  1  0  0  0
 16 33  1  0  0  0
 17 18  1  0  0  0
 17 19  1  0  0  0
 17 34  1  0  0  0
 18 35  1  0  0  0
 18 36  1  0  0  0
 18 37  1  0  0  0
 19 38  1  0  0  0
 19 39  1  0  0  0
 19 40  1  0  0  0
 20 21  1  0  0  0
 22 23  1  0  0  0
 22 41  1  0  0  0
 22 42  1  0  0  0
 23 24  2  0  0  0
 23 26  1  0  0  0
 24 25  1  0  0  0
 24 43  1  0  0  0
 25 28  2  0  0  0
 25 44  1  0  0  0
 26 27  2  0  0  0
 26 45  1  0  0  0
 27 28  1  0  0  0
 27 46  1  0  0  0
 28 47  1  0  0  0
M  CHG  1  21  -1
M  END
> <s_m_source_file>
../3d28_ligand.sdf

> <i_m_source_file_index>
1

> <s_epik_input>
W2NIXTFbY0hdW2NIXVtjSF1jKGMxMilDKD1OUzIoPU8pPU8pQzM9QyhbT0hdKVtDQEhdKFtDSF0oW0NIM10pW0NIM10pTihDMz1PKVtDSDJdYzRbY0hdW2NIXVtjSF1bY0hdW2NIXTQ=

> <s_epik_cmdline>
J2VwaWtfYXBwJywgJy1pbWFlJywgJ2xpZ2FuZF9wcm8ubWFlJywgJy1vbWFlJywgJ2xpZ2FuZF9wcmVwLm1hZScsICctbXMnLCAnMScsICctcGgnLCAnNycsICctcGh0JywgJzAuNScsICctbnQn

> <r_lp_tautomer_probability>
1

> <r_epik_Ionization_Penalty>
  0.0004

> <r_epik_Ionization_Penalty_Charging>
  0.0004

> <r_epik_Ionization_Penalty_Neutral>
  0.0000

> <r_epik_State_Penalty>
 -0.0000

> <r_epik_Charging_Adjusted_Penalty>
0.000396132277278211

> <i_epik_Tot_Q>
-1

> <i_epik_Tot_abs_Q>
1

> <s_epik_Chemistry_Notes>
This compound has an imine and may undergo hydrolysis.

$$$$
