3d2e_ligand
                    3D
 Schrodinger Suite 2020-3.
 43 45  0  0  1  0            999 V2000
   88.2830   75.8590  182.1110 P   0  0  0  0  0  0
   89.2420   75.5350  183.2250 O   0  5  0  0  0  0
   88.8280   75.3100  180.8380 O   0  0  0  0  0  0
   86.8260   75.5800  182.3340 O   0  5  0  0  0  0
   87.5300   78.6660  182.7590 P   0  0  2  0  0  0
   88.5480   79.4760  183.4680 O   0  0  0  0  0  0
   86.4020   78.0720  183.5760 O   0  5  0  0  0  0
   88.3630   77.4920  181.9610 O   0  0  0  0  0  0
   85.6650   80.3020  181.2070 P   0  0  2  0  0  0
   85.4640   81.2220  182.3710 O   0  0  0  0  0  0
   84.5300   79.3940  180.7310 O   0  5  0  0  0  0
   86.9870   79.4280  181.4420 O   0  0  0  0  0  0
   85.9990   81.1680  179.9120 O   0  0  0  0  0  0
   87.1140   82.0470  179.8260 C   0  0  0  0  0  0
   87.5510   81.9130  178.3820 C   0  0  1  0  0  0
   86.4420   82.3220  177.5560 O   0  0  0  0  0  0
   88.7260   82.8150  178.0450 C   0  0  1  0  0  0
   89.5530   82.1360  177.1060 O   0  0  0  0  0  0
   88.0670   83.9860  177.3480 C   0  0  1  0  0  0
   88.9230   84.5660  176.3980 O   0  0  0  0  0  0
   86.9080   83.3340  176.6360 C   0  0  2  0  0  0
   85.8820   84.3400  176.3080 N   0  0  0  0  0  0
   85.2140   85.0830  177.2090 C   0  0  0  0  0  0
   84.3390   85.9070  176.6020 N   0  0  0  0  0  0
   84.4510   85.7020  175.2710 C   0  0  0  0  0  0
   83.8020   86.2510  174.0490 C   0  0  0  0  0  0
   82.8480   87.2040  174.1490 N   0  0  0  0  0  0
   84.2040   85.7600  172.8510 N   0  0  0  0  0  0
   85.1610   84.7920  172.7490 C   0  0  0  0  0  0
   85.7740   84.2390  173.8150 N   0  0  0  0  0  0
   85.4700   84.6520  175.0790 C   0  0  0  0  0  0
   86.7948   83.0696  180.0758 H   0  0  0  0  0  0
   87.8920   81.7227  180.5328 H   0  0  0  0  0  0
   87.8198   80.8660  178.1784 H   0  0  0  0  0  0
   89.3799   83.0812  178.8885 H   0  0  0  0  0  0
   90.1242   81.2488  177.4168 H   0  0  0  0  0  0
   87.8243   84.8335  178.0059 H   0  0  0  0  0  0
   89.8316   85.0926  176.7253 H   0  0  0  0  0  0
   87.1534   82.8580  175.6752 H   0  0  0  0  0  0
   85.3616   85.0255  178.2874 H   0  0  0  0  0  0
   82.5468   87.5790  175.1383 H   0  0  0  0  0  0
   82.3731   87.6043  173.2411 H   0  0  0  0  0  0
   85.4443   84.4483  171.7542 H   0  0  0  0  0  0
  1  2  1  0  0  0
  1  3  2  0  0  0
  1  4  1  0  0  0
  1  8  1  0  0  0
  5  6  2  0  0  0
  5  7  1  0  0  0
  5  8  1  0  0  0
  5 12  1  0  0  0
  9 10  2  0  0  0
  9 11  1  0  0  0
  9 12  1  0  0  0
  9 13  1  0  0  0
 13 14  1  0  0  0
 14 15  1  0  0  0
 14 32  1  0  0  0
 14 33  1  0  0  0
 15 16  1  0  0  0
 15 17  1  0  0  0
 15 34  1  0  0  0
 16 21  1  0  0  0
 17 18  1  0  0  0
 17 19  1  0  0  0
 17 35  1  0  0  0
 18 36  1  0  0  0
 19 20  1  0  0  0
 19 21  1  0  0  0
 19 37  1  0  0  0
 20 38  1  0  0  0
 21 22  1  0  0  0
 21 39  1  0  0  0
 22 23  1  0  0  0
 22 31  1  0  0  0
 23 24  2  0  0  0
 23 40  1  0  0  0
 24 25  1  0  0  0
 25 26  2  0  0  0
 25 31  1  0  0  0
 26 27  1  0  0  0
 26 28  1  0  0  0
 27 41  1  0  0  0
 27 42  1  0  0  0
 28 29  2  0  0  0
 29 30  1  0  0  0
 29 43  1  0  0  0
 30 31  2  0  0  0
M  CHG  4   2  -1   4  -1   7  -1  11  -1
M  END
> <s_m_source_file>
../3d2e_ligand.sdf

> <i_m_source_file_index>
1

> <s_epik_input>
W09IXVAoPU8pKFtPSF0pT1tQQF0oPU8pKFtPSF0pT1tQQF0oPU8pKFtPSF0pT1tDSDJdW0NASF0xT1tDQEhdKFtDQEhdKFtPSF0pW0NAQEhdMVtPSF0pbihbY0hdbjIpYyhjMjMpbltjSF1uYzNbTkgyXQ==

> <s_epik_cmdline>
J2VwaWtfYXBwJywgJy1pbWFlJywgJ2xpZ2FuZF9wcm8ubWFlJywgJy1vbWFlJywgJ2xpZ2FuZF9wcmVwLm1hZScsICctbXMnLCAnMScsICctcGgnLCAnNycsICctcGh0JywgJzAuNScsICctbnQn

> <r_lp_tautomer_probability>
0.999997216410988

> <r_epik_Ionization_Penalty>
  0.0818

> <r_epik_Ionization_Penalty_Charging>
  0.0813

> <r_epik_Ionization_Penalty_Neutral>
  0.0004

> <r_epik_State_Penalty>
  0.0708

> <r_epik_Charging_Adjusted_Penalty>
0.152157994418768

> <i_epik_Tot_Q>
-4

> <i_epik_Tot_abs_Q>
4

> <s_epik_Chemistry_Notes>
This compound contains an acetal/aminal-like group ( X-CH(R)-Y where X, Y are N, S, or O) that may be acid/base labile, releasing an aldehyde.

$$$$
