3d32_ligand
                    3D
 Schrodinger Suite 2020-3.
197203  0  0  1  0            999 V2000
   51.4650   11.6760   44.9890 N   0  3  0  0  0  0
   50.8660   11.6160   43.6310 C   0  0  2  0  0  0
   51.7420   12.3200   42.6010 C   0  0  0  0  0  0
   52.4250   13.2960   42.9100 O   0  0  0  0  0  0
   49.4410   12.1910   43.5890 C   0  0  0  0  0  0
   49.2850   13.5180   44.3350 C   0  0  0  0  0  0
   50.1560   13.8850   45.1550 O   0  0  0  0  0  0
   48.2360   14.1620   44.1280 O   0  0  0  0  0  0
   51.7240   11.7840   41.3850 N   0  0  0  0  0  0
   52.3270   12.4040   40.2120 C   0  0  2  0  0  0
   51.7170   13.7770   39.9590 C   0  0  0  0  0  0
   50.6670   14.1140   40.5190 O   0  0  0  0  0  0
   52.1080   11.5150   39.0000 C   0  0  0  0  0  0
   52.3980   14.5520   39.1210 N   0  0  0  0  0  0
   51.9100   15.8480   38.6730 C   0  0  2  0  0  0
   50.7740   15.6310   37.6770 C   0  0  0  0  0  0
   50.9260   14.9370   36.6680 O   0  0  0  0  0  0
   53.0420   16.6240   37.9800 C   0  0  2  0  0  0
   54.1150   16.8260   38.9120 O   0  0  0  0  0  0
   52.5520   17.9670   37.4260 C   0  0  0  0  0  0
   49.6360   16.2450   37.9680 N   0  0  0  0  0  0
   48.5250   16.2870   37.0340 C   0  0  2  0  0  0
   48.1310   17.7250   36.7730 C   0  0  0  0  0  0
   48.4120   18.6230   37.5570 O   0  0  0  0  0  0
   47.3360   15.5300   37.6170 C   0  0  0  0  0  0
   47.6160   14.0690   37.8160 C   0  0  0  0  0  0
   47.8410   13.2400   36.7290 C   0  0  0  0  0  0
   47.6720   13.5210   39.0980 C   0  0  0  0  0  0
   48.0930   11.8980   36.8960 C   0  0  0  0  0  0
   47.9210   12.1730   39.2780 C   0  0  0  0  0  0
   48.1380   11.3690   38.1700 C   0  0  0  0  0  0
   48.3960   10.0240   38.2890 O   0  0  0  0  0  0
   47.4870   17.9470   35.6370 N   0  0  0  0  0  0
   46.9210   19.2460   35.3210 C   0  0  2  0  0  0
   45.4200   19.0960   35.1010 C   0  0  0  0  0  0
   44.8920   17.9860   35.0640 O   0  0  0  0  0  0
   47.5690   19.8570   34.0580 C   0  0  2  0  0  0
   47.2710   19.0340   32.9200 O   0  0  0  0  0  0
   49.0870   19.9950   34.2240 C   0  0  0  0  0  0
   44.7440   20.2300   34.9210 N   0  0  0  0  0  0
   43.3080   20.2370   34.6980 C   0  0  2  0  0  0
   42.9210   19.3320   33.5330 C   0  0  0  0  0  0
   41.8840   18.6660   33.5580 O   0  0  0  0  0  0
   42.8130   21.6540   34.4080 C   0  0  0  0  0  0
   41.3350   21.7360   34.4940 C   0  0  0  0  0  0
   40.4300   21.7270   33.4690 C   0  0  0  0  0  0
   40.5820   21.7380   35.7070 C   0  0  0  0  0  0
   39.1580   21.7490   33.9820 N   0  0  0  0  0  0
   39.2180   21.7450   35.3520 C   0  0  0  0  0  0
   40.9390   21.7410   37.0610 C   0  0  0  0  0  0
   38.2000   21.7680   36.3100 C   0  0  0  0  0  0
   39.9330   21.7530   38.0150 C   0  0  0  0  0  0
   38.5770   21.7660   37.6310 C   0  0  0  0  0  0
   43.7690   19.3100   32.5070 N   0  0  0  0  0  0
   43.5230   18.5150   31.3030 C   0  0  2  0  0  0
   43.4830   16.9900   31.5210 C   0  0  0  0  0  0
   42.9340   16.2580   30.6890 O   0  0  0  0  0  0
   44.5440   18.9240   30.2370 C   0  0  0  0  0  0
   44.2480   20.2680   29.5700 C   0  0  0  0  0  0
   44.1300   21.4430   30.5360 C   0  0  0  0  0  0
   45.0690   21.6760   31.3210 O   0  0  0  0  0  0
   43.0920   22.1490   30.5090 O   0  0  0  0  0  0
   44.0180   16.5070   32.6420 N   0  0  0  0  0  0
   43.9500   15.0850   32.9720 C   0  0  2  0  0  0
   42.5690   14.7240   33.5070 C   0  0  0  0  0  0
   42.2890   13.5400   33.6720 O   0  0  0  0  0  0
   44.9530   14.7150   34.0670 C   0  0  0  0  0  0
   46.3690   14.6090   33.6080 C   0  0  0  0  0  0
   47.2970   15.6000   33.8400 N   0  0  0  0  0  0
   47.0360   13.6040   32.9930 C   0  0  0  0  0  0
   48.4660   15.2280   33.3480 C   0  0  0  0  0  0
   48.3350   14.0160   32.8390 N   0  0  0  0  0  0
   41.7160   15.7080   33.7840 N   0  0  0  0  0  0
   40.4370   15.4630   34.4510 C   0  0  2  0  0  0
   39.2540   15.3170   33.4900 C   0  0  0  0  0  0
   38.1200   15.1210   33.9360 O   0  0  0  0  0  0
   40.1500   16.5910   35.4490 C   0  0  0  0  0  0
   41.2910   17.0030   36.3860 C   0  0  0  0  0  0
   40.7940   18.0800   37.3500 C   0  0  0  0  0  0
   41.8670   15.8030   37.1500 C   0  0  0  0  0  0
   39.5120   15.4180   32.1890 N   0  0  0  0  0  0
   38.4500   15.5450   31.2020 C   0  0  2  0  0  0
   37.5260   14.3370   31.1380 C   0  0  0  0  0  0
   37.9860   13.2120   30.9690 O   0  0  0  0  0  0
   39.0790   15.7800   29.8400 C   0  0  0  0  0  0
   36.2230   14.5820   31.2110 N   0  0  0  0  0  0
   35.2560   13.5300   30.9000 C   0  0  2  0  0  0
   35.4800   13.0860   29.4470 C   0  0  0  0  0  0
   35.6410   13.9250   28.5620 O   0  0  0  0  0  0
   33.8190   14.0390   31.0970 C   0  0  0  0  0  0
   32.8520   12.9140   31.0780 C   0  0  0  0  0  0
   32.0120   12.5580   30.0600 C   0  0  0  0  0  0
   32.6790   11.9330   32.1060 C   0  0  0  0  0  0
   31.3190   11.4210   30.4040 N   0  0  0  0  0  0
   31.7070   11.0170   31.6560 C   0  0  0  0  0  0
   33.2550   11.7470   33.3700 C   0  0  0  0  0  0
   31.2850    9.9270   32.4330 C   0  0  0  0  0  0
   32.8340   10.6730   34.1400 C   0  0  0  0  0  0
   31.8670    9.7680   33.6630 C   0  0  0  0  0  0
   35.5090   11.7740   29.1750 N   0  0  0  0  0  0
   35.8020   11.3080   27.8150 C   0  0  2  0  0  0
   34.6280   11.5260   26.8670 C   0  0  0  0  0  0
   33.4950   11.7310   27.3050 O   0  0  0  0  0  0
   36.0910    9.8180   28.0150 C   0  0  0  0  0  0
   35.2990    9.4370   29.2280 C   0  0  0  0  0  0
   35.3570   10.6550   30.1260 C   0  0  0  0  0  0
   34.8293   11.4945   25.5527 O   0  0  0  0  0  0
   50.8069   11.1593   45.7031 H   0  0  0  0  0  0
   51.5818   12.7269   45.2921 H   0  0  0  0  0  0
   52.4498   11.1862   44.9773 H   0  0  0  0  0  0
   50.8259   10.5410   43.4014 H   0  0  0  0  0  0
   49.1481   12.3690   42.5438 H   0  0  0  0  0  0
   48.7432   11.4755   44.0485 H   0  0  0  0  0  0
   50.0407   14.8395   45.6895 H   0  0  0  0  0  0
   51.2150   10.8132   41.2935 H   0  0  0  0  0  0
   53.4002   12.5059   40.4308 H   0  0  0  0  0  0
   52.5498   10.5251   39.1868 H   0  0  0  0  0  0
   52.5866   11.9700   38.1203 H   0  0  0  0  0  0
   51.0291   11.4061   38.8153 H   0  0  0  0  0  0
   53.3687   14.1767   38.7647 H   0  0  0  0  0  0
   51.5603   16.3805   39.5697 H   0  0  0  0  0  0
   53.4648   16.0317   37.1551 H   0  0  0  0  0  0
   54.5849   15.9624   39.4053 H   0  0  0  0  0  0
   51.7312   17.7927   36.7148 H   0  0  0  0  0  0
   53.3807   18.4759   36.9119 H   0  0  0  0  0  0
   52.1926   18.5959   38.2538 H   0  0  0  0  0  0
   49.5474   16.7320   38.9503 H   0  0  0  0  0  0
   48.8744   15.8140   36.1043 H   0  0  0  0  0  0
   47.0734   15.9576   38.5959 H   0  0  0  0  0  0
   46.4763   15.6171   36.9363 H   0  0  0  0  0  0
   47.8179   13.6588   35.7229 H   0  0  0  0  0  0
   47.5179   14.1619   39.9661 H   0  0  0  0  0  0
   48.2558   11.2576   36.0292 H   0  0  0  0  0  0
   47.9464   11.7469   40.2809 H   0  0  0  0  0  0
   48.5637    9.4144   37.3889 H   0  0  0  0  0  0
   47.3866   17.1152   34.9243 H   0  0  0  0  0  0
   47.1365   19.8752   36.1972 H   0  0  0  0  0  0
   47.1339   20.8428   33.8367 H   0  0  0  0  0  0
   46.2250   18.8268   32.6499 H   0  0  0  0  0  0
   49.3043   20.6268   35.0978 H   0  0  0  0  0  0
   49.5139   20.4574   33.3219 H   0  0  0  0  0  0
   49.5317   18.9997   34.3714 H   0  0  0  0  0  0
   45.3016   21.1779   34.9445 H   0  0  0  0  0  0
   42.8854   19.8518   35.6377 H   0  0  0  0  0  0
   43.2455   22.3507   35.1412 H   0  0  0  0  0  0
   43.1217   21.9500   33.3945 H   0  0  0  0  0  0
   40.6806   21.7056   32.4084 H   0  0  0  0  0  0
   41.9874   21.7340   37.3592 H   0  0  0  0  0  0
   37.1494   21.7868   36.0204 H   0  0  0  0  0  0
   40.1936   21.7524   39.0734 H   0  0  0  0  0  0
   37.8071   21.7747   38.4025 H   0  0  0  0  0  0
   44.6818   19.9185   32.5873 H   0  0  0  0  0  0
   42.4984   18.7830   31.0057 H   0  0  0  0  0  0
   45.5408   19.0033   30.6953 H   0  0  0  0  0  0
   44.5660   18.1658   29.4403 H   0  0  0  0  0  0
   45.0564   20.5137   28.8657 H   0  0  0  0  0  0
   43.2941   20.2051   29.0258 H   0  0  0  0  0  0
   42.9880   23.0006   31.1975 H   0  0  0  0  0  0
   44.5198   17.2070   33.3262 H   0  0  0  0  0  0
   44.1767   14.5798   32.0215 H   0  0  0  0  0  0
   44.9321   15.4801   34.8571 H   0  0  0  0  0  0
   44.6844   13.7381   34.4954 H   0  0  0  0  0  0
   46.7280   12.6106   32.6349 H   0  0  0  0  0  0
   49.3813   15.8198   33.3602 H   0  0  0  0  0  0
   41.9985   16.7311   33.4950 H   0  0  0  0  0  0
   40.5879   14.4937   34.9487 H   0  0  0  0  0  0
   39.8751   17.5043   34.9010 H   0  0  0  0  0  0
   39.3205   16.2952   36.1081 H   0  0  0  0  0  0
   42.1090   17.4151   35.7768 H   0  0  0  0  0  0
   40.3875   18.9261   36.7765 H   0  0  0  0  0  0
   41.6305   18.4280   37.9738 H   0  0  0  0  0  0
   40.0064   17.6609   37.9934 H   0  0  0  0  0  0
   42.2162   15.0453   36.4331 H   0  0  0  0  0  0
   41.0867   15.3683   37.7920 H   0  0  0  0  0  0
   42.7109   16.1354   37.7724 H   0  0  0  0  0  0
   40.5636   15.4035   31.8666 H   0  0  0  0  0  0
   37.8521   16.4025   31.5442 H   0  0  0  0  0  0
   39.7459   16.6534   29.8899 H   0  0  0  0  0  0
   38.2883   15.9643   29.0979 H   0  0  0  0  0  0
   39.6585   14.8925   29.5457 H   0  0  0  0  0  0
   35.8721   15.5816   31.5070 H   0  0  0  0  0  0
   35.4384   12.7018   31.6006 H   0  0  0  0  0  0
   33.7423   14.5550   32.0654 H   0  0  0  0  0  0
   33.5636   14.7387   30.2875 H   0  0  0  0  0  0
   31.9072   13.0947   29.1171 H   0  0  0  0  0  0
   34.0178   12.4320   33.7402 H   0  0  0  0  0  0
   30.5245    9.2345   32.0722 H   0  0  0  0  0  0
   33.2597   10.5270   35.1327 H   0  0  0  0  0  0
   31.5750    8.9224   34.2858 H   0  0  0  0  0  0
   36.6364   11.8789   27.3815 H   0  0  0  0  0  0
   35.7684    9.2591   27.1242 H   0  0  0  0  0  0
   37.1702    9.6712   28.1689 H   0  0  0  0  0  0
   34.2670    9.1976   28.9318 H   0  0  0  0  0  0
   35.7573    8.5575   29.7038 H   0  0  0  0  0  0
   36.2202   10.6331   30.8074 H   0  0  0  0  0  0
   34.4337   10.7914   30.7082 H   0  0  0  0  0  0
   33.9865   11.6510   24.8633 H   0  0  0  0  0  0
  1  2  1  0  0  0
  1108  1  0  0  0
  1109  1  0  0  0
  1110  1  0  0  0
  2  5  1  0  0  0
  2  3  1  0  0  0
  2111  1  0  0  0
  3  4  2  0  0  0
  3  9  1  0  0  0
  5  6  1  0  0  0
  5112  1  0  0  0
  5113  1  0  0  0
  6  7  1  0  0  0
  6  8  2  0  0  0
  7114  1  0  0  0
  9 10  1  0  0  0
  9115  1  0  0  0
 10 13  1  0  0  0
 10 11  1  0  0  0
 10116  1  0  0  0
 11 12  2  0  0  0
 11 14  1  0  0  0
 13117  1  0  0  0
 13118  1  0  0  0
 13119  1  0  0  0
 14 15  1  0  0  0
 14120  1  0  0  0
 15 18  1  0  0  0
 15 16  1  0  0  0
 15121  1  0  0  0
 16 17  2  0  0  0
 16 21  1  0  0  0
 18 20  1  0  0  0
 18 19  1  0  0  0
 18122  1  0  0  0
 19123  1  0  0  0
 20124  1  0  0  0
 20125  1  0  0  0
 20126  1  0  0  0
 21 22  1  0  0  0
 21127  1  0  0  0
 22 25  1  0  0  0
 22 23  1  0  0  0
 22128  1  0  0  0
 23 24  2  0  0  0
 23 33  1  0  0  0
 25 26  1  0  0  0
 25129  1  0  0  0
 25130  1  0  0  0
 26 27  2  0  0  0
 26 28  1  0  0  0
 27 29  1  0  0  0
 27131  1  0  0  0
 28 30  2  0  0  0
 28132  1  0  0  0
 29 31  2  0  0  0
 29133  1  0  0  0
 30 31  1  0  0  0
 30134  1  0  0  0
 31 32  1  0  0  0
 32135  1  0  0  0
 33 34  1  0  0  0
 33136  1  0  0  0
 34 37  1  0  0  0
 34 35  1  0  0  0
 34137  1  0  0  0
 35 36  2  0  0  0
 35 40  1  0  0  0
 37 39  1  0  0  0
 37 38  1  0  0  0
 37138  1  0  0  0
 38139  1  0  0  0
 39140  1  0  0  0
 39141  1  0  0  0
 39142  1  0  0  0
 40 41  1  0  0  0
 40143  1  0  0  0
 41 44  1  0  0  0
 41 42  1  0  0  0
 41144  1  0  0  0
 42 43  2  0  0  0
 42 54  1  0  0  0
 44 45  1  0  0  0
 44145  1  0  0  0
 44146  1  0  0  0
 45 46  2  0  0  0
 45 47  1  0  0  0
 46 48  1  0  0  0
 46147  1  0  0  0
 47 50  2  0  0  0
 47 49  1  0  0  0
 48 49  1  0  0  0
 49 51  2  0  0  0
 50 52  1  0  0  0
 50148  1  0  0  0
 51 53  1  0  0  0
 51149  1  0  0  0
 52 53  2  0  0  0
 52150  1  0  0  0
 53151  1  0  0  0
 54 55  1  0  0  0
 54152  1  0  0  0
 55 58  1  0  0  0
 55 56  1  0  0  0
 55153  1  0  0  0
 56 57  2  0  0  0
 56 63  1  0  0  0
 58 59  1  0  0  0
 58154  1  0  0  0
 58155  1  0  0  0
 59 60  1  0  0  0
 59156  1  0  0  0
 59157  1  0  0  0
 60 62  1  0  0  0
 60 61  2  0  0  0
 62158  1  0  0  0
 63 64  1  0  0  0
 63159  1  0  0  0
 64 67  1  0  0  0
 64 65  1  0  0  0
 64160  1  0  0  0
 65 66  2  0  0  0
 65 73  1  0  0  0
 67 68  1  0  0  0
 67161  1  0  0  0
 67162  1  0  0  0
 68 69  2  0  0  0
 68 70  1  0  0  0
 69 71  1  0  0  0
 70 72  2  0  0  0
 70163  1  0  0  0
 71 72  1  0  0  0
 71164  1  0  0  0
 73 74  1  0  0  0
 73165  1  0  0  0
 74 77  1  0  0  0
 74 75  1  0  0  0
 74166  1  0  0  0
 75 76  2  0  0  0
 75 81  1  0  0  0
 77 78  1  0  0  0
 77167  1  0  0  0
 77168  1  0  0  0
 78 79  1  0  0  0
 78 80  1  0  0  0
 78169  1  0  0  0
 79170  1  0  0  0
 79171  1  0  0  0
 79172  1  0  0  0
 80173  1  0  0  0
 80174  1  0  0  0
 80175  1  0  0  0
 81 82  1  0  0  0
 81176  1  0  0  0
 82 85  1  0  0  0
 82 83  1  0  0  0
 82177  1  0  0  0
 83 84  2  0  0  0
 83 86  1  0  0  0
 85178  1  0  0  0
 85179  1  0  0  0
 85180  1  0  0  0
 86 87  1  0  0  0
 86181  1  0  0  0
 87 90  1  0  0  0
 87 88  1  0  0  0
 87182  1  0  0  0
 88 89  2  0  0  0
 88100  1  0  0  0
 90 91  1  0  0  0
 90183  1  0  0  0
 90184  1  0  0  0
 91 92  2  0  0  0
 91 93  1  0  0  0
 92 94  1  0  0  0
 92185  1  0  0  0
 93 96  2  0  0  0
 93 95  1  0  0  0
 94 95  1  0  0  0
 95 97  2  0  0  0
 96 98  1  0  0  0
 96186  1  0  0  0
 97 99  1  0  0  0
 97187  1  0  0  0
 98 99  2  0  0  0
 98188  1  0  0  0
 99189  1  0  0  0
100101  1  0  0  0
100106  1  0  0  0
101102  1  0  0  0
101104  1  0  0  0
101190  1  0  0  0
102103  2  0  0  0
102107  1  0  0  0
104105  1  0  0  0
104191  1  0  0  0
104192  1  0  0  0
105106  1  0  0  0
105193  1  0  0  0
105194  1  0  0  0
106195  1  0  0  0
106196  1  0  0  0
107197  1  0  0  0
M  CHG  1   1   1
M  END
> <s_m_source_file>
../3d32_ligand.sdf

> <i_m_source_file_index>
1

> <s_epik_input>
W09IXUMoPU8pW0NIMl1bQ0BIXShbTkgzK10pQyg9TylbTkhdW0NAQEhdKFtDSDNdKUMoPU8pW05IXVtDQEBIXShbQ0BIXShbT0hdKVtDSDNdKUMoPU8pW05IXVtDQEBIXShbQ0gyXWMxW2NIXVtjSF1jKFtPSF0pW2NIXVtjSF0xKUMoPU8pW05IXVtDQEBIXShbQ0BIXShbT0hdKVtDSDNdKUMoPU8pW05IXVtDQEBIXShbQ0gyXWMyW2NIXVtuSF1jKGMyMylbY0hdW2NIXVtjSF1bY0hdMylDKD1PKVtOSF1bQ0BASF0oW0NIMl1bQ0gyXUMoPU8pW09IXSlDKD1PKVtOSF1bQ0BASF0oW0NIMl1DND1OW0NIMl1OPVtDSF00KUMoPU8pW05IXVtDQEBIXShbQ0gyXVtDSF0oW0NIM10pW0NIM10pQyg9TylbTkhdW0NAQEhdKFtDSDNdKUMoPU8pW05IXVtDQEhdKEMoPU8pTjVbQ0BIXShDKD1PKVtPSF0pW0NIMl1bQ0gyXVtDSDJdNSlbQ0gyXWM2W2NIXVtuSF1jKGM2NylbY0hdW2NIXVtjSF1bY0hdNw==

> <s_epik_cmdline>
J2VwaWtfYXBwJywgJy1pbWFlJywgJ2xpZ2FuZF9wcm8ubWFlJywgJy1vbWFlJywgJ2xpZ2FuZF9wcmVwLm1hZScsICctbXMnLCAnMScsICctcGgnLCAnNycsICctcGh0JywgJzAuNScsICctbnQn

> <s_epik_pKa_notes>
Molecule size exceeds maximum supported for generating protonation states

> <s_epik_Chemistry_Notes>
This compound has an imine and may undergo hydrolysis.

$$$$
