3d3p_ligand
                    3D
 Schrodinger Suite 2020-3.
 53 56  0  0  1  0            999 V2000
   48.7370   47.4590   65.9110 O   0  0  0  0  0  0
   47.6420   47.2230   66.4350 C   0  0  0  0  0  0
   47.4610   47.3780   67.7610 N   0  0  0  0  0  0
   48.5190   47.8010   68.6620 C   0  0  0  0  0  0
   48.5640   49.3180   68.6080 C   0  0  0  0  0  0
   49.5440   50.0260   67.9310 C   0  0  0  0  0  0
   49.5300   51.4200   67.8750 C   0  0  0  0  0  0
   48.5330   52.0680   68.4860 C   0  0  0  0  0  0
   47.5450   51.4630   69.1490 C   0  0  0  0  0  0
   47.5400   50.0630   69.2020 C   0  0  0  0  0  0
   46.5230   46.9490   65.5170 C   0  0  0  0  0  0
   45.2640   47.1010   66.0630 C   0  0  0  0  0  0
   44.1410   46.9620   65.3410 N   0  0  0  0  0  0
   44.2400   46.6600   64.0360 C   0  0  0  0  0  0
   43.2520   46.4720   63.0700 N   0  0  0  0  0  0
   41.7780   46.5480   63.2910 C   0  0  0  0  0  0
   41.2190   45.1820   63.7030 C   0  0  0  0  0  0
   43.8430   46.1940   61.8630 N   0  0  0  0  0  0
   45.5280   46.5060   63.4440 C   0  0  0  0  0  0
   45.1960   46.1880   62.0650 C   0  0  0  0  0  0
   46.7060   46.6190   64.1660 C   0  0  0  0  0  0
   47.9450   46.4820   63.6620 N   0  0  0  0  0  0
   48.3760   45.8860   62.3850 C   0  0  0  0  0  0
   49.5740   44.9320   62.6020 C   0  0  0  0  0  0
   50.0370   44.3830   61.2430 C   0  0  0  0  0  0
   50.3730   45.4890   60.4310 O   0  0  0  0  0  0
   49.3040   46.3370   60.0250 C   0  0  0  0  0  0
   48.6770   46.9270   61.3080 C   0  0  0  0  0  0
   46.4553   47.1678   68.1539 H   0  0  0  0  0  0
   48.2933   47.4538   69.6811 H   0  0  0  0  0  0
   49.4759   47.3707   68.3316 H   0  0  0  0  0  0
   50.3445   49.4812   67.4305 H   0  0  0  0  0  0
   50.3115   51.9664   67.3469 H   0  0  0  0  0  0
   48.5265   53.1570   68.4400 H   0  0  0  0  0  0
   46.7619   52.0435   69.6368 H   0  0  0  0  0  0
   46.7270   49.5473   69.7131 H   0  0  0  0  0  0
   45.1786   47.3435   67.1223 H   0  0  0  0  0  0
   41.5639   47.2743   64.0889 H   0  0  0  0  0  0
   41.2839   46.8679   62.3617 H   0  0  0  0  0  0
   40.1332   45.2624   63.8600 H   0  0  0  0  0  0
   41.7012   44.8547   64.6359 H   0  0  0  0  0  0
   41.4213   44.4484   62.9087 H   0  0  0  0  0  0
   45.9317   45.9722   61.2902 H   0  0  0  0  0  0
   48.6918   46.8959   64.3556 H   0  0  0  0  0  0
   47.4957   45.3230   62.0413 H   0  0  0  0  0  0
   50.3992   45.4820   63.0780 H   0  0  0  0  0  0
   49.2664   44.0987   63.2509 H   0  0  0  0  0  0
   50.9124   43.7331   61.3891 H   0  0  0  0  0  0
   49.2222   43.8031   60.7849 H   0  0  0  0  0  0
   49.6959   47.1386   59.3817 H   0  0  0  0  0  0
   48.5612   45.7487   59.4663 H   0  0  0  0  0  0
   47.7441   47.4296   61.0130 H   0  0  0  0  0  0
   49.3846   47.6703   61.7040 H   0  0  0  0  0  0
  1  2  2  0  0  0
  2  3  1  0  0  0
  2 11  1  0  0  0
  3  4  1  0  0  0
  3 29  1  0  0  0
  4  5  1  0  0  0
  4 30  1  0  0  0
  4 31  1  0  0  0
  5  6  2  0  0  0
  5 10  1  0  0  0
  6  7  1  0  0  0
  6 32  1  0  0  0
  7  8  2  0  0  0
  7 33  1  0  0  0
  8  9  1  0  0  0
  8 34  1  0  0  0
  9 10  2  0  0  0
  9 35  1  0  0  0
 10 36  1  0  0  0
 11 12  1  0  0  0
 11 21  2  0  0  0
 12 13  2  0  0  0
 12 37  1  0  0  0
 13 14  1  0  0  0
 14 15  1  0  0  0
 14 19  2  0  0  0
 15 16  1  0  0  0
 15 18  1  0  0  0
 16 17  1  0  0  0
 16 38  1  0  0  0
 16 39  1  0  0  0
 17 40  1  0  0  0
 17 41  1  0  0  0
 17 42  1  0  0  0
 18 20  2  0  0  0
 19 20  1  0  0  0
 19 21  1  0  0  0
 20 43  1  0  0  0
 21 22  1  0  0  0
 22 23  1  0  0  0
 22 44  1  0  0  0
 23 24  1  0  0  0
 23 28  1  0  0  0
 23 45  1  0  0  0
 24 25  1  0  0  0
 24 46  1  0  0  0
 24 47  1  0  0  0
 25 26  1  0  0  0
 25 48  1  0  0  0
 25 49  1  0  0  0
 26 27  1  0  0  0
 27 28  1  0  0  0
 27 50  1  0  0  0
 27 51  1  0  0  0
 28 52  1  0  0  0
 28 53  1  0  0  0
M  END
> <s_m_source_file>
../3d3p_ligand.sdf

> <i_m_source_file_index>
1

> <s_epik_input>
W2NIXTFbY0hdW2NIXVtjSF1bY0hdYzFbQ0gyXVtOSF1DKD1PKWMoW2NIXW4yKWMoYyhjMjMpW2NIXW5uM1tDSDJdW0NIM10pW05IXVtDSF00W0NIMl1bQ0gyXU9bQ0gyXVtDSDJdNA==

> <s_epik_cmdline>
J2VwaWtfYXBwJywgJy1pbWFlJywgJ2xpZ2FuZF9wcm8ubWFlJywgJy1vbWFlJywgJ2xpZ2FuZF9wcmVwLm1hZScsICctbXMnLCAnMScsICctcGgnLCAnNycsICctcGh0JywgJzAuNScsICctbnQn

> <r_lp_tautomer_probability>
1

> <r_epik_Ionization_Penalty>
  0.0000

> <r_epik_Ionization_Penalty_Charging>
  0.0000

> <r_epik_Ionization_Penalty_Neutral>
  0.0000

> <r_epik_State_Penalty>
 -0.0000

> <r_epik_Charging_Adjusted_Penalty>
0

> <i_epik_Tot_Q>
0

> <i_epik_Tot_abs_Q>
0

$$$$
