3d4f_ligand
                    3D
 Schrodinger Suite 2020-3.
 54 56  0  0  1  0            999 V2000
   34.4240   59.9260    3.8910 O   0  0  0  0  0  0
   34.1880   60.9080    4.6010 C   0  0  0  0  0  0
   34.4240   62.3760    4.2470 C   0  0  0  0  0  0
   34.0040   63.3770    5.0240 C   0  0  0  0  0  0
   34.1730   64.5290    4.3750 C   0  0  0  0  0  0
   33.9080   65.8500    4.7300 C   0  0  0  0  0  0
   34.1820   66.8670    3.8160 C   0  0  0  0  0  0
   34.7060   66.5490    2.5660 C   0  0  0  0  0  0
   34.9710   65.2310    2.2040 C   0  0  0  0  0  0
   34.7120   64.2040    3.1240 N   0  0  0  0  0  0
   34.9080   62.8220    3.0180 C   0  0  0  0  0  0
   35.3090   61.9670    2.0750 N   0  0  0  0  0  0
   36.6560   62.1020    1.5050 C   0  0  1  0  0  0
   37.7180   61.8140    2.5690 C   0  0  0  0  0  0
   37.5070   60.8790    3.3660 O   0  0  0  0  0  0
   38.7430   62.5290    2.5510 O   0  5  0  0  0  0
   36.8010   61.1750    0.2950 C   0  0  2  0  0  0
   35.3660   61.4260   -0.8120 S   0  0  0  0  0  0
   35.6360   60.8110   -2.0800 O   0  0  0  0  0  0
   35.3040   62.9140   -0.9980 O   0  0  0  0  0  0
   36.8410   59.7000    0.7080 C   0  0  0  0  0  0
   38.0670   61.5610   -0.4520 C   0  0  0  0  0  0
   39.1970   61.3510    0.4060 O   0  0  0  0  0  0
   40.3320   61.5360   -0.3150 C   0  0  0  0  0  0
   40.5070   62.5820   -0.9390 O   0  0  0  0  0  0
   41.3860   60.4280   -0.3170 C   0  0  0  0  0  0
   42.6520   60.9910   -0.9580 C   0  0  0  0  0  0
   42.6960   61.1850   -2.3330 C   0  0  0  0  0  0
   43.7320   61.3560   -0.1630 C   0  0  0  0  0  0
   44.8610   61.9200   -0.7460 C   0  0  0  0  0  0
   44.9090   62.1170   -2.1220 C   0  0  0  0  0  0
   46.0460   62.6200   -2.6750 O   0  0  0  0  0  0
   43.8250   61.7490   -2.9160 C   0  0  0  0  0  0
   43.8500   61.9090   -4.2670 O   0  0  0  0  0  0
   33.7617   60.7706    5.6057 H   0  0  0  0  0  0
   33.5900   63.2697    6.0266 H   0  0  0  0  0  0
   33.4919   66.0855    5.7095 H   0  0  0  0  0  0
   33.9867   67.9066    4.0792 H   0  0  0  0  0  0
   34.9133   67.3491    1.8554 H   0  0  0  0  0  0
   35.3746   65.0000    1.2182 H   0  0  0  0  0  0
   34.6410   61.1666    1.7241 H   0  0  0  0  0  0
   36.7643   63.1464    1.1770 H   0  0  0  0  0  0
   35.9161   59.4447    1.2459 H   0  0  0  0  0  0
   37.7066   59.5263    1.3641 H   0  0  0  0  0  0
   36.9290   59.0702   -0.1896 H   0  0  0  0  0  0
   38.1648   60.9386   -1.3537 H   0  0  0  0  0  0
   38.0130   62.6207   -0.7420 H   0  0  0  0  0  0
   41.5890   60.1132    0.7173 H   0  0  0  0  0  0
   41.0143   59.5693   -0.8954 H   0  0  0  0  0  0
   41.8475   60.8957   -2.9531 H   0  0  0  0  0  0
   43.6939   61.2004    0.9152 H   0  0  0  0  0  0
   45.7089   62.2079   -0.1245 H   0  0  0  0  0  0
   46.8913   62.9049   -2.0313 H   0  0  0  0  0  0
   42.9813   61.6107   -4.8723 H   0  0  0  0  0  0
  1  2  2  0  0  0
  2  3  1  0  0  0
  2 35  1  0  0  0
  3  4  1  0  0  0
  3 11  2  0  0  0
  4  5  2  0  0  0
  4 36  1  0  0  0
  5  6  1  0  0  0
  5 10  1  0  0  0
  6  7  2  0  0  0
  6 37  1  0  0  0
  7  8  1  0  0  0
  7 38  1  0  0  0
  8  9  2  0  0  0
  8 39  1  0  0  0
  9 10  1  0  0  0
  9 40  1  0  0  0
 10 11  1  0  0  0
 11 12  1  0  0  0
 12 13  1  0  0  0
 12 41  1  0  0  0
 13 14  1  0  0  0
 13 17  1  0  0  0
 13 42  1  0  0  0
 14 15  2  0  0  0
 14 16  1  0  0  0
 17 18  1  0  0  0
 17 21  1  0  0  0
 17 22  1  0  0  0
 18 19  1  0  0  0
 18 20  1  0  0  0
 21 43  1  0  0  0
 21 44  1  0  0  0
 21 45  1  0  0  0
 22 23  1  0  0  0
 22 46  1  0  0  0
 22 47  1  0  0  0
 23 24  1  0  0  0
 24 25  2  0  0  0
 24 26  1  0  0  0
 26 27  1  0  0  0
 26 48  1  0  0  0
 26 49  1  0  0  0
 27 28  2  0  0  0
 27 29  1  0  0  0
 28 33  1  0  0  0
 28 50  1  0  0  0
 29 30  2  0  0  0
 29 51  1  0  0  0
 30 31  1  0  0  0
 30 52  1  0  0  0
 31 32  1  0  0  0
 31 33  2  0  0  0
 32 53  1  0  0  0
 33 34  1  0  0  0
 34 54  1  0  0  0
M  CHG  1  16  -1
M  END
> <s_m_source_file>
../3d4f_ligand.sdf

> <i_m_source_file_index>
1

> <s_epik_input>
W2NIXTFbY0hdW2NIXVtjSF1uKGMxMiljKGMoW0NIXT1PKVtjSF0yKVtOSF1bQ0BASF0oQyg9TylbT0hdKVtDQEBdKFtDSDNdKShbU0hdKFtPSF0pW09IXSlbQ0gyXU9DKD1PKVtDSDJdYzNbY0hdYyhbT0hdKWMoW09IXSlbY0hdW2NIXTM=

> <s_epik_cmdline>
J2VwaWtfYXBwJywgJy1pbWFlJywgJ2xpZ2FuZF9wcm8ubWFlJywgJy1vbWFlJywgJ2xpZ2FuZF9wcmVwLm1hZScsICctbXMnLCAnMScsICctcGgnLCAnNycsICctcGh0JywgJzAuNScsICctbnQn

> <r_lp_tautomer_probability>
1

> <r_epik_Ionization_Penalty>
  0.0041

> <r_epik_Ionization_Penalty_Charging>
  0.0005

> <r_epik_Ionization_Penalty_Neutral>
  0.0036

> <r_epik_State_Penalty>
 -0.0000

> <r_epik_Charging_Adjusted_Penalty>
0.000469486208550439

> <i_epik_Tot_Q>
-1

> <i_epik_Tot_abs_Q>
1

> <s_epik_Chemistry_Notes>
This compound has an ester and may undergo hydrolysis at high or low pH.

$$$$
