3d4l_ligand
                    3D
 Schrodinger Suite 2020-3.
 45 47  0  0  1  0            999 V2000
   34.5290   50.6440   36.2730 C   0  0  0  0  0  0
   35.8890   51.0210   36.5050 C   0  0  0  0  0  0
   36.9850   50.0950   36.3740 C   0  0  0  0  0  0
   36.7160   48.7360   35.9030 C   0  0  0  0  0  0
   35.3450   48.3500   35.6540 C   0  0  0  0  0  0
   34.2400   49.2970   35.8090 C   0  0  0  0  0  0
   38.4110   50.4910   36.6230 C   0  0  0  0  0  0
   39.0860   50.6780   35.1980 C   0  0  2  0  0  0
   40.5140   51.0440   35.3430 C   0  0  0  0  0  0
   38.3660   51.7690   34.4270 N   0  3  0  0  0  0
   41.3460   50.0200   35.9890 C   0  0  0  0  0  0
   42.7230   50.2080   36.1690 C   0  0  0  0  0  0
   43.3890   51.4280   35.7260 C   0  0  0  0  0  0
   42.5660   52.5000   35.0620 C   0  0  0  0  0  0
   41.1480   52.3080   34.8710 C   0  0  0  0  0  0
   44.8660   51.5200   35.9430 C   0  0  0  0  0  0
   45.5940   51.0480   37.1540 C   0  0  0  0  0  0
   47.0410   51.1810   37.2440 C   0  0  0  0  0  0
   47.8030   51.7740   36.1520 C   0  0  0  0  0  0
   47.0940   52.2490   34.9300 C   0  0  0  0  0  0
   45.6500   52.1060   34.8670 C   0  0  0  0  0  0
   35.0740   47.1530   35.2390 F   0  0  0  0  0  0
   36.1150   52.2280   36.9100 F   0  0  0  0  0  0
   47.7730   52.8640   33.7720 C   0  0  0  0  0  0
   47.1900   53.9200   33.1910 N   0  0  0  0  0  0
   48.8340   52.4420   33.3410 O   0  0  0  0  0  0
   33.7212   51.3561   36.4416 H   0  0  0  0  0  0
   37.5312   48.0302   35.7434 H   0  0  0  0  0  0
   33.2173   48.9973   35.5803 H   0  0  0  0  0  0
   38.4362   51.4303   37.1949 H   0  0  0  0  0  0
   38.9168   49.6995   37.1955 H   0  0  0  0  0  0
   39.0618   49.7472   34.6124 H   0  0  0  0  0  0
   37.3048   51.5010   34.3171 H   0  0  0  0  0  0
   38.8220   51.8766   33.4318 H   0  0  0  0  0  0
   38.4493   52.7201   34.9733 H   0  0  0  0  0  0
   40.8832   49.0958   36.3351 H   0  0  0  0  0  0
   43.3093   49.4255   36.6506 H   0  0  0  0  0  0
   43.0411   53.4214   34.7254 H   0  0  0  0  0  0
   40.5477   53.0785   34.3872 H   0  0  0  0  0  0
   45.0394   50.5999   37.9785 H   0  0  0  0  0  0
   47.5600   50.8335   38.1373 H   0  0  0  0  0  0
   48.8861   51.8696   36.2287 H   0  0  0  0  0  0
   45.1308   52.4532   33.9737 H   0  0  0  0  0  0
   46.2337   54.3021   33.5777 H   0  0  0  0  0  0
   47.6673   54.4055   32.3270 H   0  0  0  0  0  0
  1  2  2  0  0  0
  1  6  1  0  0  0
  1 27  1  0  0  0
  2  3  1  0  0  0
  2 23  1  0  0  0
  3  4  2  0  0  0
  3  7  1  0  0  0
  4  5  1  0  0  0
  4 28  1  0  0  0
  5  6  2  0  0  0
  5 22  1  0  0  0
  6 29  1  0  0  0
  7  8  1  0  0  0
  7 30  1  0  0  0
  7 31  1  0  0  0
  8  9  1  0  0  0
  8 10  1  0  0  0
  8 32  1  0  0  0
  9 11  2  0  0  0
  9 15  1  0  0  0
 10 33  1  0  0  0
 10 34  1  0  0  0
 10 35  1  0  0  0
 11 12  1  0  0  0
 11 36  1  0  0  0
 12 13  2  0  0  0
 12 37  1  0  0  0
 13 14  1  0  0  0
 13 16  1  0  0  0
 14 15  2  0  0  0
 14 38  1  0  0  0
 15 39  1  0  0  0
 16 17  2  0  0  0
 16 21  1  0  0  0
 17 18  1  0  0  0
 17 40  1  0  0  0
 18 19  2  0  0  0
 18 41  1  0  0  0
 19 20  1  0  0  0
 19 42  1  0  0  0
 20 21  2  0  0  0
 20 24  1  0  0  0
 21 43  1  0  0  0
 24 25  1  0  0  0
 24 26  2  0  0  0
 25 44  1  0  0  0
 25 45  1  0  0  0
M  CHG  1  10   1
M  END
> <s_m_source_file>
../3d4l_ligand.sdf

> <i_m_source_file_index>
1

> <s_epik_input>
RmMxW2NIXVtjSF1jKEYpW2NIXWMxW0NIMl1bQ0BASF0oW05IMytdKWMyW2NIXVtjSF1jKFtjSF1bY0hdMiktYzNbY0hdW2NIXVtjSF1jKFtjSF0zKUMoPU8pW05IMl0=

> <s_epik_cmdline>
J2VwaWtfYXBwJywgJy1pbWFlJywgJ2xpZ2FuZF9wcm8ubWFlJywgJy1vbWFlJywgJ2xpZ2FuZF9wcmVwLm1hZScsICctbXMnLCAnMScsICctcGgnLCAnNycsICctcGh0JywgJzAuNScsICctbnQn

> <r_epik_Ionization_Penalty>
  0.0478

> <r_epik_Ionization_Penalty_Charging>
  0.0478

> <r_epik_Ionization_Penalty_Neutral>
  0.0000

> <r_epik_State_Penalty>
  0.0408

> <r_epik_Charging_Adjusted_Penalty>
0.0885963743610817

> <i_epik_Tot_Q>
1

> <i_epik_Tot_abs_Q>
1

$$$$
