3d4q_ligand
                    3D
 Schrodinger Suite 2020-3.
 55 59  0  0  1  0            999 V2000
   87.5860    6.9220   -7.5930 C   0  0  0  0  0  0
   86.1670    7.2950   -7.6370 N   0  0  3  0  0  0
   81.6530    4.6490   -5.7640 C   0  0  0  0  0  0
   82.7000    5.5100   -6.1410 C   0  0  0  0  0  0
   82.5440    6.4220   -7.1840 C   0  0  0  0  0  0
   81.1940    6.4880   -7.9520 C   0  0  0  0  0  0
   80.1590    5.5860   -7.5350 C   0  0  0  0  0  0
   80.4380    4.6840   -6.4410 C   0  0  0  0  0  0
   81.8330    9.3240   -7.5860 C   0  0  0  0  0  0
   85.7210    8.5800   -8.0120 N   0  0  0  0  0  0
   80.9140   10.3890   -7.8650 C   0  0  0  0  0  0
   82.5030   11.5550   -9.1340 C   0  0  0  0  0  0
   89.8700    7.4050   -7.8600 C   0  0  0  0  0  0
   83.5760   10.4790   -8.9100 C   0  0  0  0  0  0
   85.1430    6.4040   -7.3060 C   0  0  0  0  0  0
   83.2120    9.4050   -8.1440 C   0  0  0  0  0  0
   83.7340    7.1640   -7.4610 C   0  0  0  0  0  0
   87.7740    5.4600   -8.0120 C   0  0  0  0  0  0
   89.2320    4.9460   -7.7250 C   0  0  0  0  0  0
   84.0570    8.4330   -7.8780 C   0  0  0  0  0  0
   81.2270   11.4930   -8.6190 N   0  3  0  0  0  0
   90.2100    5.9550   -8.2090 N   0  3  0  0  0  0
   88.4150    7.7280   -8.2820 C   0  0  0  0  0  0
   78.7450    5.3560   -8.0390 C   0  0  0  0  0  0
   78.1780    4.1230   -7.0480 C   0  0  0  0  0  0
   79.3620    3.8420   -6.1140 C   0  0  0  0  0  0
   79.4410    3.0460   -5.1830 N   0  0  0  0  0  0
   78.2300    2.3440   -5.0280 O   0  0  0  0  0  0
   87.9390    7.1705   -6.5813 H   0  0  0  0  0  0
   81.7943    3.9517   -4.9382 H   0  0  0  0  0  0
   83.6498    5.4632   -5.6083 H   0  0  0  0  0  0
   81.0403    7.1894   -8.7721 H   0  0  0  0  0  0
   81.5286    8.4722   -6.9778 H   0  0  0  0  0  0
   86.4496    9.3553   -8.2913 H   0  0  0  0  0  0
   79.9070   10.3178   -7.4540 H   0  0  0  0  0  0
   82.7680   12.4223   -9.7386 H   0  0  0  0  0  0
   89.9725    7.5547   -6.7751 H   0  0  0  0  0  0
   90.5576    8.0806   -8.3899 H   0  0  0  0  0  0
   84.5745   10.5663   -9.3385 H   0  0  0  0  0  0
   85.1781    5.5374   -7.9825 H   0  0  0  0  0  0
   85.2738    6.0643   -6.2680 H   0  0  0  0  0  0
   87.0705    4.8251   -7.4534 H   0  0  0  0  0  0
   87.5813    5.3599   -9.0904 H   0  0  0  0  0  0
   89.3615    4.7958   -6.6430 H   0  0  0  0  0  0
   89.3947    3.9929   -8.2496 H   0  0  0  0  0  0
   90.2624    5.8436   -9.3021 H   0  0  0  0  0  0
   91.1814    5.6894   -7.7664 H   0  0  0  0  0  0
   88.2868    7.5506   -9.3600 H   0  0  0  0  0  0
   88.1801    8.7779   -8.0527 H   0  0  0  0  0  0
   78.1624    6.2829   -7.9322 H   0  0  0  0  0  0
   78.7766    5.0629   -9.0988 H   0  0  0  0  0  0
   77.2880    4.4706   -6.5030 H   0  0  0  0  0  0
   77.9136    3.2503   -7.6633 H   0  0  0  0  0  0
   78.1300    1.5882   -4.2350 H   0  0  0  0  0  0
   80.4729   12.2760   -8.7872 H   0  0  0  0  0  0
  1  2  1  0  0  0
  1 18  1  0  0  0
  1 23  1  0  0  0
  1 29  1  0  0  0
  2 10  1  0  0  0
  2 15  1  0  0  0
  3  4  2  0  0  0
  3  8  1  0  0  0
  3 30  1  0  0  0
  4  5  1  0  0  0
  4 31  1  0  0  0
  5  6  2  0  0  0
  5 17  1  0  0  0
  6  7  1  0  0  0
  6 32  1  0  0  0
  7  8  2  0  0  0
  7 24  1  0  0  0
  8 26  1  0  0  0
  9 11  2  0  0  0
  9 16  1  0  0  0
  9 33  1  0  0  0
 10 20  1  0  0  0
 10 34  1  0  0  0
 11 21  1  0  0  0
 11 35  1  0  0  0
 12 14  1  0  0  0
 12 21  2  0  0  0
 12 36  1  0  0  0
 13 22  1  0  0  0
 13 23  1  0  0  0
 13 37  1  0  0  0
 13 38  1  0  0  0
 14 16  2  0  0  0
 14 39  1  0  0  0
 15 17  1  0  0  0
 15 40  1  0  0  0
 15 41  1  0  0  0
 16 20  1  0  0  0
 17 20  2  0  0  0
 18 19  1  0  0  0
 18 42  1  0  0  0
 18 43  1  0  0  0
 19 22  1  0  0  0
 19 44  1  0  0  0
 19 45  1  0  0  0
 21 55  1  0  0  0
 22 46  1  0  0  0
 22 47  1  0  0  0
 23 48  1  0  0  0
 23 49  1  0  0  0
 24 25  1  0  0  0
 24 50  1  0  0  0
 24 51  1  0  0  0
 25 26  1  0  0  0
 25 52  1  0  0  0
 25 53  1  0  0  0
 26 27  2  0  0  0
 27 28  1  0  0  0
 28 54  1  0  0  0
M  CHG  2  21   1  22   1
M  END
> <s_m_source_file>
../3d4q_ligand.sdf

> <i_m_source_file_index>
1

> <s_epik_input>
W0NIMl0xW0NIMl1bTkgyK11bQ0gyXVtDSDJdW0NIXTFbTkgrXTJbTkhdQyhjM1tjSF1bY0hdbltjSF1bY0hdMyk9QyhbQ0gyXTIpYyhbY0hdNClbY0hdW2NIXWMoYzQ1KS9DKFtDSDJdW0NIMl01KT1OL1tPSF0=

> <s_epik_cmdline>
J2VwaWtfYXBwJywgJy1pbWFlJywgJ2xpZ2FuZF9wcm8ubWFlJywgJy1vbWFlJywgJ2xpZ2FuZF9wcmVwLm1hZScsICctbXMnLCAnMScsICctcGgnLCAnNycsICctcGh0JywgJzAuNScsICctbnQn

> <r_epik_Ionization_Penalty>
  0.0344

> <r_epik_Ionization_Penalty_Charging>
  0.0344

> <r_epik_Ionization_Penalty_Neutral>
  0.0000

> <r_epik_State_Penalty>
  0.0286

> <r_epik_Charging_Adjusted_Penalty>
0.0629729993077817

> <i_epik_Tot_Q>
2

> <i_epik_Tot_abs_Q>
2

> <s_epik_Chemistry_Notes>
This compound has an imine and may undergo hydrolysis.

$$$$
