3d4y_ligand
                    3D
 Schrodinger Suite 2020-3.
 27 28  0  0  1  0            999 V2000
   30.9340   65.6600   10.2270 C   0  0  0  0  0  0
   29.8310   65.9680    9.4220 N   0  0  0  0  0  0
   32.5490   66.0090    8.2860 C   0  0  2  0  0  0
   31.2980   65.8130    7.4150 C   0  0  1  0  0  0
   29.9510   66.2590    7.9880 C   0  0  1  0  0  0
   28.8310   65.6510    7.1850 C   0  0  0  0  0  0
   29.1610   65.7970   11.5000 C   0  0  0  0  0  0
   28.7570   66.0700   10.2400 C   0  0  0  0  0  0
   30.4730   65.5630   11.4940 N   0  3  0  0  0  0
   33.6670   65.4600    7.6320 O   0  0  0  0  0  0
   33.1470   64.3740    9.9060 O   0  0  0  0  0  0
   31.4580   66.6910    6.2940 O   0  0  0  0  0  0
   32.3960   65.5560    9.6900 C   0  0  2  0  0  0
   27.5810   66.1010    7.6760 O   0  0  0  0  0  0
   32.8032   67.0738    8.3935 H   0  0  0  0  0  0
   31.2527   64.7379    7.1865 H   0  0  0  0  0  0
   29.8638   67.3545    7.9408 H   0  0  0  0  0  0
   28.9329   65.9475    6.1306 H   0  0  0  0  0  0
   28.8766   64.5548    7.2636 H   0  0  0  0  0  0
   28.5177   65.7721   12.3796 H   0  0  0  0  0  0
   27.7427   66.3276    9.9350 H   0  0  0  0  0  0
   33.8782   65.7269    6.5860 H   0  0  0  0  0  0
   33.1486   63.8968   10.8971 H   0  0  0  0  0  0
   32.3544   66.6168    5.6608 H   0  0  0  0  0  0
   32.9745   66.2040   10.3649 H   0  0  0  0  0  0
   26.6486   65.7558    7.2053 H   0  0  0  0  0  0
   31.1654   65.3228   12.3143 H   0  0  0  0  0  0
  1  2  1  0  0  0
  1  9  2  0  0  0
  1 13  1  0  0  0
  2  5  1  0  0  0
  2  8  1  0  0  0
  3  4  1  0  0  0
  3 10  1  0  0  0
  3 13  1  0  0  0
  3 15  1  0  0  0
  4  5  1  0  0  0
  4 12  1  0  0  0
  4 16  1  0  0  0
  5  6  1  0  0  0
  5 17  1  0  0  0
  6 14  1  0  0  0
  6 18  1  0  0  0
  6 19  1  0  0  0
  7  8  2  0  0  0
  7  9  1  0  0  0
  7 20  1  0  0  0
  8 21  1  0  0  0
  9 27  1  0  0  0
 10 22  1  0  0  0
 11 13  1  0  0  0
 11 23  1  0  0  0
 12 24  1  0  0  0
 13 25  1  0  0  0
 14 26  1  0  0  0
M  CHG  1   9   1
M  END
> <s_m_source_file>
../3d4y_ligand.sdf

> <i_m_source_file_index>
1

> <s_epik_input>
bjFbY0hdW2NIXW4oYzEyKVtDQEhdKFtDSDJdW09IXSlbQ0BASF0oW09IXSlbQ0BIXShbT0hdKVtDQEBIXTJbT0hd

> <s_epik_cmdline>
J2VwaWtfYXBwJywgJy1pbWFlJywgJ2xpZ2FuZF9wcm8ubWFlJywgJy1vbWFlJywgJ2xpZ2FuZF9wcmVwLm1hZScsICctbXMnLCAnMScsICctcGgnLCAnNycsICctcGh0JywgJzAuNScsICctbnQn

> <r_lp_tautomer_probability>
1

> <r_epik_Ionization_Penalty>
  0.2921

> <r_epik_Ionization_Penalty_Charging>
  0.0000

> <r_epik_Ionization_Penalty_Neutral>
  0.2921

> <r_epik_State_Penalty>
  0.2847

> <r_epik_Charging_Adjusted_Penalty>
0.284745957002556

> <i_epik_Tot_Q>
1

> <i_epik_Tot_abs_Q>
1

$$$$
