3d50_ligand
                    3D
 Schrodinger Suite 2020-3.
 50 50  0  0  1  0            999 V2000
   31.0090   66.4990    9.8830 C   0  0  1  0  0  0
   30.6640   65.6540   10.9880 N   0  3  0  0  0  0
   32.0920   65.7570    9.0390 C   0  0  2  0  0  0
   33.1750   65.4250    9.8250 O   0  0  0  0  0  0
   32.4520   66.6210    7.8710 C   0  0  1  0  0  0
   33.5420   66.2060    7.1200 O   0  0  0  0  0  0
   31.2470   66.7780    6.9260 C   0  0  2  0  0  0
   31.4800   67.7320    5.9490 O   0  0  0  0  0  0
   29.9150   67.0050    7.6700 C   0  0  0  0  0  0
   28.6920   67.3290    6.8370 C   0  0  0  0  0  0
   27.5090   67.0920    7.5090 O   0  0  0  0  0  0
   29.8170   66.8480    9.0230 C   0  0  0  0  0  0
   29.5290   66.1410   11.7530 C   0  0  0  0  0  0
   29.7400   67.5650   12.2080 C   0  0  0  0  0  0
   28.9420   67.9290   13.4760 C   0  0  0  0  0  0
   27.4620   68.1630   13.2640 C   0  0  0  0  0  0
   26.9860   68.0100   11.8560 C   0  0  0  0  0  0
   25.5470   68.5010   11.5720 C   0  0  0  0  0  0
   24.5710   67.3530   11.5300 C   0  0  0  0  0  0
   23.8660   67.1690   10.1960 C   0  0  0  0  0  0
   31.3538   67.4393   10.3379 H   0  0  0  0  0  0
   30.4065   64.6512   10.6163 H   0  0  0  0  0  0
   31.5197   65.5817   11.6755 H   0  0  0  0  0  0
   31.8096   64.7576    8.6766 H   0  0  0  0  0  0
   33.0359   64.7926   10.7142 H   0  0  0  0  0  0
   32.8455   67.5504    8.3084 H   0  0  0  0  0  0
   34.5125   66.0332    7.6081 H   0  0  0  0  0  0
   31.1538   65.8781    6.3003 H   0  0  0  0  0  0
   32.3968   67.6860    5.3429 H   0  0  0  0  0  0
   28.7114   68.3922    6.5554 H   0  0  0  0  0  0
   28.6924   66.7090    5.9284 H   0  0  0  0  0  0
   26.5464   67.2873    7.0137 H   0  0  0  0  0  0
   28.8454   66.9759    9.5226 H   0  0  0  0  0  0
   28.6237   66.1049   11.1291 H   0  0  0  0  0  0
   29.3873   65.5085   12.6417 H   0  0  0  0  0  0
   30.8051   67.7244   12.4317 H   0  0  0  0  0  0
   29.4255   68.2550   11.4111 H   0  0  0  0  0  0
   29.0271   67.1136   14.2094 H   0  0  0  0  0  0
   29.3455   68.8559   13.9097 H   0  0  0  0  0  0
   26.8872   67.4450   13.8673 H   0  0  0  0  0  0
   27.2052   69.1878   13.5704 H   0  0  0  0  0  0
   27.6427   68.5806   11.1829 H   0  0  0  0  0  0
   27.0078   66.9467   11.5750 H   0  0  0  0  0  0
   25.2336   69.1961   12.3649 H   0  0  0  0  0  0
   25.5205   69.0167   10.6007 H   0  0  0  0  0  0
   25.1013   66.4129   11.7423 H   0  0  0  0  0  0
   23.7871   67.5104   12.2854 H   0  0  0  0  0  0
   23.1778   66.3132   10.2600 H   0  0  0  0  0  0
   24.6121   66.9816    9.4098 H   0  0  0  0  0  0
   23.2979   68.0790    9.9529 H   0  0  0  0  0  0
  1  2  1  0  0  0
  1  3  1  0  0  0
  1 12  1  0  0  0
  1 21  1  0  0  0
  2 13  1  0  0  0
  2 22  1  0  0  0
  2 23  1  0  0  0
  3  4  1  0  0  0
  3  5  1  0  0  0
  3 24  1  0  0  0
  4 25  1  0  0  0
  5  6  1  0  0  0
  5  7  1  0  0  0
  5 26  1  0  0  0
  6 27  1  0  0  0
  7  8  1  0  0  0
  7  9  1  0  0  0
  7 28  1  0  0  0
  8 29  1  0  0  0
  9 10  1  0  0  0
  9 12  2  0  0  0
 10 11  1  0  0  0
 10 30  1  0  0  0
 10 31  1  0  0  0
 11 32  1  0  0  0
 12 33  1  0  0  0
 13 14  1  0  0  0
 13 34  1  0  0  0
 13 35  1  0  0  0
 14 15  1  0  0  0
 14 36  1  0  0  0
 14 37  1  0  0  0
 15 16  1  0  0  0
 15 38  1  0  0  0
 15 39  1  0  0  0
 16 17  1  0  0  0
 16 40  1  0  0  0
 16 41  1  0  0  0
 17 18  1  0  0  0
 17 42  1  0  0  0
 17 43  1  0  0  0
 18 19  1  0  0  0
 18 44  1  0  0  0
 18 45  1  0  0  0
 19 20  1  0  0  0
 19 46  1  0  0  0
 19 47  1  0  0  0
 20 48  1  0  0  0
 20 49  1  0  0  0
 20 50  1  0  0  0
M  CHG  1   2   1
M  END
> <s_m_source_file>
../3d50_ligand.sdf

> <i_m_source_file_index>
1

> <s_epik_input>
W09IXVtDSDJdQyg9W0NIXTEpW0NAQEhdKFtPSF0pW0NASF0oW09IXSlbQ0BASF0oW09IXSlbQ0BASF0xW05IMitdW0NIMl1bQ0gyXVtDSDJdW0NIMl1bQ0gyXVtDSDJdW0NIMl1bQ0gzXQ==

> <s_epik_cmdline>
J2VwaWtfYXBwJywgJy1pbWFlJywgJ2xpZ2FuZF9wcm8ubWFlJywgJy1vbWFlJywgJ2xpZ2FuZF9wcmVwLm1hZScsICctbXMnLCAnMScsICctcGgnLCAnNycsICctcGh0JywgJzAuNScsICctbnQn

> <r_epik_Ionization_Penalty>
  0.0241

> <r_epik_Ionization_Penalty_Charging>
  0.0241

> <r_epik_Ionization_Penalty_Neutral>
  0.0000

> <r_epik_State_Penalty>
  0.0196

> <r_epik_Charging_Adjusted_Penalty>
0.0436780339027087

> <i_epik_Tot_Q>
1

> <i_epik_Tot_abs_Q>
1

$$$$
