3d52_ligand
                    3D
 Schrodinger Suite 2020-3.
 39 40  0  0  1  0            999 V2000
   30.5980   65.1430   10.0330 C   0  0  0  0  0  0
   29.6260   65.8060    9.2940 N   0  0  0  0  0  0
   29.6950   65.9730    7.8240 C   0  0  2  0  0  0
   28.5110   65.3100    7.1290 C   0  0  0  0  0  0
   27.3290   65.7390    7.7610 O   0  0  0  0  0  0
   31.0410   65.5370    7.1970 C   0  0  1  0  0  0
   31.3380   66.4650    6.1820 O   0  0  0  0  0  0
   32.1680   65.4450    8.2060 C   0  0  2  0  0  0
   33.3090   64.9260    7.5660 O   0  0  0  0  0  0
   31.7360   64.4680    9.2740 C   0  0  1  0  0  0
   32.8110   64.1350   10.1190 O   0  0  0  0  0  0
   30.5570   65.0900   11.3650 N   0  0  0  0  0  0
   31.3950   67.9590   17.8590 Cl  0  0  0  0  0  0
   30.5630   67.8750   16.3350 C   0  0  0  0  0  0
   31.2040   67.3920   15.2100 C   0  0  0  0  0  0
   30.5600   67.3110   13.9940 C   0  0  0  0  0  0
   29.2390   68.2830   16.2240 C   0  0  0  0  0  0
   28.5820   68.2050   14.9960 C   0  0  0  0  0  0
   29.2410   67.7200   13.8780 C   0  0  0  0  0  0
   28.5980   67.6440   12.7150 N   0  0  0  0  0  0
   28.7600   66.6360   11.8400 C   0  0  0  0  0  0
   28.0840   66.6080   10.8170 O   0  0  0  0  0  0
   29.6010   65.6130   12.1990 O   0  0  0  0  0  0
   28.7738   66.2173    9.8549 H   0  0  0  0  0  0
   29.6150   67.0627    7.6966 H   0  0  0  0  0  0
   28.4982   65.6015    6.0684 H   0  0  0  0  0  0
   28.6048   64.2168    7.2077 H   0  0  0  0  0  0
   26.3531   65.3738    7.4085 H   0  0  0  0  0  0
   30.9805   64.5500    6.7151 H   0  0  0  0  0  0
   30.6153   66.6448    5.3725 H   0  0  0  0  0  0
   32.4598   66.4250    8.6115 H   0  0  0  0  0  0
   33.7857   65.4889    6.7500 H   0  0  0  0  0  0
   31.4600   63.4815    8.8731 H   0  0  0  0  0  0
   32.6592   63.4314   10.9508 H   0  0  0  0  0  0
   32.2419   67.0679   15.2859 H   0  0  0  0  0  0
   31.0888   66.9248   13.1226 H   0  0  0  0  0  0
   28.7127   68.6649   17.0988 H   0  0  0  0  0  0
   27.5439   68.5276   14.9155 H   0  0  0  0  0  0
   27.8890   68.4337   12.4259 H   0  0  0  0  0  0
  1  2  1  0  0  0
  1 10  1  0  0  0
  1 12  2  0  0  0
  2  3  1  0  0  0
  2 24  1  0  0  0
  3  4  1  0  0  0
  3  6  1  0  0  0
  3 25  1  0  0  0
  4  5  1  0  0  0
  4 26  1  0  0  0
  4 27  1  0  0  0
  5 28  1  0  0  0
  6  7  1  0  0  0
  6  8  1  0  0  0
  6 29  1  0  0  0
  7 30  1  0  0  0
  8  9  1  0  0  0
  8 10  1  0  0  0
  8 31  1  0  0  0
  9 32  1  0  0  0
 10 11  1  0  0  0
 10 33  1  0  0  0
 11 34  1  0  0  0
 12 23  1  0  0  0
 13 14  1  0  0  0
 14 15  2  0  0  0
 14 17  1  0  0  0
 15 16  1  0  0  0
 15 35  1  0  0  0
 16 19  2  0  0  0
 16 36  1  0  0  0
 17 18  2  0  0  0
 17 37  1  0  0  0
 18 19  1  0  0  0
 18 38  1  0  0  0
 19 20  1  0  0  0
 20 21  1  0  0  0
 20 39  1  0  0  0
 21 22  2  0  0  0
 21 23  1  0  0  0
M  END
> <s_m_source_file>
../3d52_ligand.sdf

> <i_m_source_file_index>
1

> <s_epik_input>
W09IXVtDQEBIXTFbQ0BASF0oW09IXSlbQ0BIXShbT0hdKVtDQEBIXShbQ0gyXVtPSF0pW05IXS9DMT1OXE9DKD1PKVtOSF1jKFtjSF1bY0hdMilbY0hdW2NIXWMyQ2w=

> <s_epik_cmdline>
J2VwaWtfYXBwJywgJy1pbWFlJywgJ2xpZ2FuZF9wcm8ubWFlJywgJy1vbWFlJywgJ2xpZ2FuZF9wcmVwLm1hZScsICctbXMnLCAnMScsICctcGgnLCAnNycsICctcGh0JywgJzAuNScsICctbnQn

> <r_lp_tautomer_probability>
1

> <r_epik_Ionization_Penalty>
  0.0000

> <r_epik_Ionization_Penalty_Charging>
  0.0000

> <r_epik_Ionization_Penalty_Neutral>
  0.0000

> <r_epik_State_Penalty>
 -0.0000

> <r_epik_Charging_Adjusted_Penalty>
0

> <i_epik_Tot_Q>
0

> <i_epik_Tot_abs_Q>
0

> <s_epik_Chemistry_Notes>
This compound has an imine and may undergo hydrolysis.

$$$$
