3d5m_ligand
                    3D
 Schrodinger Suite 2020-3.
 61 64  0  0  1  0            999 V2000
   93.9240   63.8280   52.5060 C   0  0  0  0  0  0
   92.6050   63.5130   52.1630 C   0  0  0  0  0  0
   94.3780   64.6020   50.2760 C   0  0  0  0  0  0
   96.5650   62.5440   57.1740 C   0  0  0  0  0  0
   94.8120   64.3810   51.5780 C   0  0  0  0  0  0
   92.1620   63.7460   50.8600 C   0  0  0  0  0  0
   97.0750   61.7570   56.0270 C   0  0  0  0  0  0
   97.1160   61.4490   53.5310 C   0  0  0  0  0  0
   96.9690   62.2050   52.2390 C   0  0  2  0  0  0
   98.6450   60.8040   50.9240 C   0  0  0  0  0  0
   98.8840   61.4870   63.6980 C   0  0  0  0  0  0
   96.2420   64.6780   51.9860 C   0  0  0  0  0  0
   98.3230   62.2230   51.4700 C   0  0  0  0  0  0
   92.5580   64.6150   48.3060 Cl  0  0  0  0  0  0
   93.0570   64.2950   49.9240 C   0  0  0  0  0  0
   90.8860   63.4300   50.5460 F   0  0  0  0  0  0
   96.6130   63.5230   52.7820 N   0  0  0  0  0  0
   99.4910   62.7170   52.3670 C   0  0  0  0  0  0
   98.3300   63.1600   50.2410 C   0  0  0  0  0  0
   97.4580   60.1310   53.5190 O   0  5  0  0  0  0
   96.5940   63.5530   54.1640 C   0  0  0  0  0  0
   96.3400   64.5140   54.8680 O   0  0  0  0  0  0
   96.8900   62.1780   54.6350 C   0  0  0  0  0  0
   95.7860   63.6910   57.2610 C   0  0  0  0  0  0
   97.7880   60.7100   56.3330 N   0  0  0  0  0  0
   97.9240   60.5160   57.9640 S   0  0  0  0  0  0
   99.3150   60.7330   58.3250 O   0  0  0  0  0  0
   97.1720   59.3680   58.4120 O   0  0  0  0  0  0
   96.9850   61.9290   58.3490 C   0  0  0  0  0  0
   96.6570   62.4080   59.6040 C   0  0  0  0  0  0
   95.8720   63.5690   59.6960 C   0  0  0  0  0  0
   95.4420   64.2070   58.5210 C   0  0  0  0  0  0
   97.1320   61.7100   60.8150 C   0  0  0  0  0  0
   97.0610   62.4990   62.0140 N   0  0  3  0  0  0
   97.1290   61.5700   63.4350 S   0  0  0  0  0  0
   96.6860   60.2160   63.1350 O   0  0  0  0  0  0
   96.5810   62.3050   64.5500 O   0  0  0  0  0  0
   94.2684   63.6376   53.5225 H   0  0  0  0  0  0
   91.9295   63.0896   52.9063 H   0  0  0  0  0  0
   95.0618   65.0120   49.5328 H   0  0  0  0  0  0
   96.2141   61.8226   51.5362 H   0  0  0  0  0  0
   98.6550   60.0846   51.7561 H   0  0  0  0  0  0
   99.6307   60.8139   50.4359 H   0  0  0  0  0  0
   97.8771   60.5092   50.1936 H   0  0  0  0  0  0
   99.3529   60.9334   62.8711 H   0  0  0  0  0  0
   99.0884   60.9706   64.6475 H   0  0  0  0  0  0
   99.2973   62.5056   63.7382 H   0  0  0  0  0  0
   96.8655   64.7843   51.0860 H   0  0  0  0  0  0
   96.2715   65.6128   52.5650 H   0  0  0  0  0  0
   99.5492   62.0920   53.2703 H   0  0  0  0  0  0
   99.3141   63.7635   52.6560 H   0  0  0  0  0  0
  100.4368   62.6453   51.8099 H   0  0  0  0  0  0
   97.5221   62.8690   49.5535 H   0  0  0  0  0  0
   99.2978   63.0798   49.7243 H   0  0  0  0  0  0
   98.1751   64.1980   50.5705 H   0  0  0  0  0  0
   95.4429   64.1889   56.3541 H   0  0  0  0  0  0
   95.5987   63.9716   60.6714 H   0  0  0  0  0  0
   94.8360   65.1105   58.5876 H   0  0  0  0  0  0
   96.5213   60.8107   60.9832 H   0  0  0  0  0  0
   98.1843   61.4189   60.6814 H   0  0  0  0  0  0
   97.1379   63.5948   61.9567 H   0  0  0  0  0  0
  1  2  2  0  0  0
  1  5  1  0  0  0
  1 38  1  0  0  0
  2  6  1  0  0  0
  2 39  1  0  0  0
  3  5  2  0  0  0
  3 15  1  0  0  0
  3 40  1  0  0  0
  4  7  1  0  0  0
  4 24  2  0  0  0
  4 29  1  0  0  0
  5 12  1  0  0  0
  6 15  2  0  0  0
  6 16  1  0  0  0
  7 23  1  0  0  0
  7 25  2  0  0  0
  8  9  1  0  0  0
  8 20  1  0  0  0
  8 23  2  0  0  0
  9 13  1  0  0  0
  9 17  1  0  0  0
  9 41  1  0  0  0
 10 13  1  0  0  0
 10 42  1  0  0  0
 10 43  1  0  0  0
 10 44  1  0  0  0
 11 35  1  0  0  0
 11 45  1  0  0  0
 11 46  1  0  0  0
 11 47  1  0  0  0
 12 17  1  0  0  0
 12 48  1  0  0  0
 12 49  1  0  0  0
 13 18  1  0  0  0
 13 19  1  0  0  0
 14 15  1  0  0  0
 17 21  1  0  0  0
 18 50  1  0  0  0
 18 51  1  0  0  0
 18 52  1  0  0  0
 19 53  1  0  0  0
 19 54  1  0  0  0
 19 55  1  0  0  0
 21 22  2  0  0  0
 21 23  1  0  0  0
 24 32  1  0  0  0
 24 56  1  0  0  0
 25 26  1  0  0  0
 26 27  2  0  0  0
 26 28  2  0  0  0
 26 29  1  0  0  0
 29 30  2  0  0  0
 30 31  1  0  0  0
 30 33  1  0  0  0
 31 32  2  0  0  0
 31 57  1  0  0  0
 32 58  1  0  0  0
 33 34  1  0  0  0
 33 59  1  0  0  0
 33 60  1  0  0  0
 34 35  1  0  0  0
 34 61  1  0  0  0
 35 36  2  0  0  0
 35 37  2  0  0  0
M  CHG  1  20  -1
M  END
> <s_m_source_file>
../3d5m_ligand.sdf

> <i_m_source_file_index>
1

> <s_epik_input>
W2NIXTFjKENsKWMoRilbY0hdW2NIXWMxW0NIMl1OKFtDQEhdMkMoW0NIM10pKFtDSDNdKVtDSDNdKUMoPU8pQyg9QzJbT0hdKUMzPU5TKD1PKSg9TyljKGMzNCljKFtjSF1bY0hdW2NIXTQpW0NIMl1bTkhdUyg9TykoPU8pW0NIM10=

> <s_epik_cmdline>
J2VwaWtfYXBwJywgJy1pbWFlJywgJ2xpZ2FuZF9wcm8ubWFlJywgJy1vbWFlJywgJ2xpZ2FuZF9wcmVwLm1hZScsICctbXMnLCAnMScsICctcGgnLCAnNycsICctcGh0JywgJzAuNScsICctbnQn

> <r_lp_tautomer_probability>
1

> <r_epik_Ionization_Penalty>
  0.0004

> <r_epik_Ionization_Penalty_Charging>
  0.0003

> <r_epik_Ionization_Penalty_Neutral>
  0.0001

> <r_epik_State_Penalty>
 -0.0000

> <r_epik_Charging_Adjusted_Penalty>
0.000344577667969231

> <i_epik_Tot_Q>
-1

> <i_epik_Tot_abs_Q>
1

> <s_epik_Chemistry_Notes>
This compound has an imine and may undergo hydrolysis.

$$$$
