3d62_ligand
                    3D
 Schrodinger Suite 2020-3.
 28 28  0  0  1  0            999 V2000
   63.1580   41.9080   42.4120 O   0  0  0  0  0  0
   64.2710   41.4650   42.3670 C   0  0  0  0  0  0
   64.3870   40.0400   41.7410 C   0  0  0  0  0  0
   65.4370   42.1920   42.9420 C   0  0  0  0  0  0
   66.4040   42.3210   41.6980 N   0  0  0  0  0  0
   66.0210   42.7590   40.4410 C   0  0  0  0  0  0
   64.8420   43.1540   40.1450 O   0  0  0  0  0  0
   67.0640   42.7750   39.3730 O   0  0  0  0  0  0
   68.2960   43.5270   39.7830 C   0  0  0  0  0  0
   69.4740   42.9510   39.0340 C   0  0  0  0  0  0
   69.9220   43.5670   37.8660 C   0  0  0  0  0  0
   71.0110   43.0320   37.1780 C   0  0  0  0  0  0
   71.6440   41.8860   37.6600 C   0  0  0  0  0  0
   71.1950   41.2650   38.8230 C   0  0  0  0  0  0
   70.1070   41.8000   39.5120 C   0  0  0  0  0  0
   63.3983   39.7139   41.3859 H   0  0  0  0  0  0
   64.7547   39.3346   42.5007 H   0  0  0  0  0  0
   65.0897   40.0672   40.8952 H   0  0  0  0  0  0
   65.1064   43.1669   43.3296 H   0  0  0  0  0  0
   65.8707   41.5997   43.7612 H   0  0  0  0  0  0
   67.4663   42.0530   41.7970 H   0  0  0  0  0  0
   68.1752   44.5918   39.5348 H   0  0  0  0  0  0
   68.4483   43.4182   40.8670 H   0  0  0  0  0  0
   69.4239   44.4618   37.4927 H   0  0  0  0  0  0
   71.3671   43.5088   36.2648 H   0  0  0  0  0  0
   72.4972   41.4731   37.1218 H   0  0  0  0  0  0
   71.6906   40.3671   39.1921 H   0  0  0  0  0  0
   69.7501   41.3205   40.4235 H   0  0  0  0  0  0
  1  2  2  0  0  0
  2  3  1  0  0  0
  2  4  1  0  0  0
  3 16  1  0  0  0
  3 17  1  0  0  0
  3 18  1  0  0  0
  4  5  1  0  0  0
  4 19  1  0  0  0
  4 20  1  0  0  0
  5  6  1  0  0  0
  5 21  1  0  0  0
  6  7  2  0  0  0
  6  8  1  0  0  0
  8  9  1  0  0  0
  9 10  1  0  0  0
  9 22  1  0  0  0
  9 23  1  0  0  0
 10 11  2  0  0  0
 10 15  1  0  0  0
 11 12  1  0  0  0
 11 24  1  0  0  0
 12 13  2  0  0  0
 12 25  1  0  0  0
 13 14  1  0  0  0
 13 26  1  0  0  0
 14 15  2  0  0  0
 14 27  1  0  0  0
 15 28  1  0  0  0
M  END
> <s_m_source_file>
../3d62_ligand.sdf

> <i_m_source_file_index>
1

> <s_epik_input>
Tz1DKFtDSDNdKVtDSDJdW05IXUMoPU8pT1tDSDJdYzFbY0hdW2NIXVtjSF1bY0hdW2NIXTE=

> <s_epik_cmdline>
J2VwaWtfYXBwJywgJy1pbWFlJywgJ2xpZ2FuZF9wcm8ubWFlJywgJy1vbWFlJywgJ2xpZ2FuZF9wcmVwLm1hZScsICctbXMnLCAnMScsICctcGgnLCAnNycsICctcGh0JywgJzAuNScsICctbnQn

> <r_lp_tautomer_probability>
1

> <r_epik_Ionization_Penalty>
  0.0000

> <r_epik_Ionization_Penalty_Charging>
  0.0000

> <r_epik_Ionization_Penalty_Neutral>
  0.0000

> <r_epik_State_Penalty>
 -0.0000

> <r_epik_Charging_Adjusted_Penalty>
0

> <i_epik_Tot_Q>
0

> <i_epik_Tot_abs_Q>
0

> <s_epik_Chemistry_Notes>
This compound has an ester and may undergo hydrolysis at high or low pH.

$$$$
