3d6p_ligand
                    3D
 Schrodinger Suite 2020-3.
 41 43  0  0  1  0            999 V2000
   34.9410   -4.6300   12.3850 C   0  0  0  0  0  0
   36.1190   -4.5230   13.1230 C   0  0  0  0  0  0
   36.9100   -3.3820   12.9620 C   0  0  0  0  0  0
   36.5330   -2.3310   12.0820 N   0  0  0  0  0  0
   34.5900   -3.6110   11.4940 N   0  0  0  0  0  0
   43.6700   -1.8000   14.8010 O   0  0  0  0  0  0
   42.7800   -2.8880   15.1260 C   0  0  0  0  0  0
   41.3900   -2.3100   15.4410 C   0  0  0  0  0  0
   43.2450   -1.1110   13.6040 C   0  0  0  0  0  0
   41.9000   -0.4480   13.9180 C   0  0  0  0  0  0
   40.9170   -1.4680   14.3280 N   0  0  0  0  0  0
   39.7520   -0.7290   14.8120 C   0  0  0  0  0  0
   38.5570   -0.8350   13.8490 C   0  0  2  0  0  0
   38.7090   -1.3550   12.4770 O   0  0  0  0  0  0
   38.0160    0.5360   13.5340 C   0  0  2  0  0  0
   37.5120    1.2540   14.6550 O   0  0  0  0  0  0
   36.8650    0.1550   12.6340 C   0  0  1  0  0  0
   36.7880    1.2580   11.7530 O   0  0  0  0  0  0
   37.3900   -1.1080   11.9060 C   0  0  2  0  0  0
   34.2210   -5.6210   12.4750 O   0  0  0  0  0  0
   35.3630   -2.4620   11.3340 C   0  0  0  0  0  0
   34.9780   -1.5790   10.5680 O   0  0  0  0  0  0
   36.4172   -5.3134   13.8118 H   0  0  0  0  0  0
   37.8392   -3.2958   13.5253 H   0  0  0  0  0  0
   33.6757   -3.7002   10.8890 H   0  0  0  0  0  0
   42.7137   -3.5756   14.2700 H   0  0  0  0  0  0
   43.1671   -3.4292   16.0019 H   0  0  0  0  0  0
   40.6768   -3.1333   15.5944 H   0  0  0  0  0  0
   41.4455   -1.6981   16.3534 H   0  0  0  0  0  0
   43.9953   -0.3546   13.3304 H   0  0  0  0  0  0
   43.1378   -1.8349   12.7827 H   0  0  0  0  0  0
   42.0305    0.2771   14.7348 H   0  0  0  0  0  0
   41.5293    0.0717   13.0221 H   0  0  0  0  0  0
   39.4419   -1.1315   15.7876 H   0  0  0  0  0  0
   40.0112    0.3346   14.9198 H   0  0  0  0  0  0
   37.9437   -1.5632   14.3999 H   0  0  0  0  0  0
   38.7763    1.2417   13.1682 H   0  0  0  0  0  0
   38.2022    1.6196   15.4295 H   0  0  0  0  0  0
   35.8674    0.0171   13.0764 H   0  0  0  0  0  0
   36.4320    2.2317   12.1206 H   0  0  0  0  0  0
   37.4365   -0.9553   10.8176 H   0  0  0  0  0  0
  1  2  1  0  0  0
  1  5  1  0  0  0
  1 20  2  0  0  0
  2  3  2  0  0  0
  2 23  1  0  0  0
  3  4  1  0  0  0
  3 24  1  0  0  0
  4 19  1  0  0  0
  4 21  1  0  0  0
  5 21  1  0  0  0
  5 25  1  0  0  0
  6  7  1  0  0  0
  6  9  1  0  0  0
  7  8  1  0  0  0
  7 26  1  0  0  0
  7 27  1  0  0  0
  8 11  1  0  0  0
  8 28  1  0  0  0
  8 29  1  0  0  0
  9 10  1  0  0  0
  9 30  1  0  0  0
  9 31  1  0  0  0
 10 11  1  0  0  0
 10 32  1  0  0  0
 10 33  1  0  0  0
 11 12  1  0  0  0
 12 13  1  0  0  0
 12 34  1  0  0  0
 12 35  1  0  0  0
 13 14  1  0  0  0
 13 15  1  0  0  0
 13 36  1  0  0  0
 14 19  1  0  0  0
 15 16  1  0  0  0
 15 17  1  0  0  0
 15 37  1  0  0  0
 16 38  1  0  0  0
 17 18  1  0  0  0
 17 19  1  0  0  0
 17 39  1  0  0  0
 18 40  1  0  0  0
 19 41  1  0  0  0
 21 22  2  0  0  0
M  END
> <s_m_source_file>
../3d6p_ligand.sdf

> <i_m_source_file_index>
1

> <s_epik_input>
Tz1jMVtjSF1bY0hdbihjKD1PKVtuSF0xKVtDQEBIXShbQ0BIXShbT0hdKVtDQEhdMltPSF0pT1tDQEhdMltDSDJdW05IK10zW0NIMl1bQ0gyXU9bQ0gyXVtDSDJdMw==

> <s_epik_cmdline>
J2VwaWtfYXBwJywgJy1pbWFlJywgJ2xpZ2FuZF9wcm8ubWFlJywgJy1vbWFlJywgJ2xpZ2FuZF9wcmVwLm1hZScsICctbXMnLCAnMScsICctcGgnLCAnNycsICctcGh0JywgJzAuNScsICctbnQn

> <r_lp_tautomer_probability>
0.999537046341301

> <r_epik_Ionization_Penalty>
  0.0964

> <r_epik_Ionization_Penalty_Charging>
  0.0042

> <r_epik_Ionization_Penalty_Neutral>
  0.0922

> <r_epik_State_Penalty>
  0.0825

> <r_epik_Charging_Adjusted_Penalty>
0.0867402031027151

> <i_epik_Tot_Q>
0

> <i_epik_Tot_abs_Q>
0

> <s_epik_Chemistry_Notes>
This compound contains an acetal/aminal-like group ( X-CH(R)-Y where X, Y are N, S, or O) that may be acid/base labile, releasing an aldehyde.

$$$$
