3d78_ligand
                    3D
 Schrodinger Suite 2020-3.
 29 29  0  0  1  0            999 V2000
   15.7640   16.5820    2.2820 O   0  0  0  0  0  0
   14.6900   17.5370    2.0290 S   0  0  0  0  0  0
   14.9500   17.9750    0.6140 O   0  0  0  0  0  0
   14.6030   18.6870    3.1040 N   0  0  3  0  0  0
   13.3370   19.3540    3.6400 C   0  0  0  0  0  0
   13.3130   19.8580    5.1230 C   0  0  0  0  0  0
   11.9490   20.1580    5.8020 C   0  0  0  0  0  0
   11.8010   21.3150    6.7910 C   0  0  0  0  0  0
   13.2840   16.7420    2.1630 C   0  0  0  0  0  0
   12.3770   16.6840    1.1190 C   0  0  0  0  0  0
   11.1630   16.0250    1.1880 C   0  0  0  0  0  0
   10.8280   15.3980    2.3690 C   0  0  0  0  0  0
   11.7040   15.4680    3.4480 C   0  0  0  0  0  0
   12.9320   16.1270    3.3550 C   0  0  0  0  0  0
   15.5904   19.1083    3.3439 H   0  0  0  0  0  0
   13.1125   20.2490    3.0412 H   0  0  0  0  0  0
   12.4953   18.6487    3.5750 H   0  0  0  0  0  0
   13.7818   19.1051    5.7737 H   0  0  0  0  0  0
   13.8688   20.8043    5.1977 H   0  0  0  0  0  0
   11.1970   20.3819    5.0310 H   0  0  0  0  0  0
   11.6281   19.2811    6.3834 H   0  0  0  0  0  0
   10.7637   21.3559    7.1549 H   0  0  0  0  0  0
   12.0509   22.2611    6.2885 H   0  0  0  0  0  0
   12.4819   21.1602    7.6409 H   0  0  0  0  0  0
   12.6348   17.1875    0.1873 H   0  0  0  0  0  0
   10.4892   16.0020    0.3315 H   0  0  0  0  0  0
    9.8878   14.8536    2.4567 H   0  0  0  0  0  0
   11.4246   14.9963    4.3901 H   0  0  0  0  0  0
   13.6067   16.1576    4.2106 H   0  0  0  0  0  0
  1  2  2  0  0  0
  2  3  2  0  0  0
  2  4  1  0  0  0
  2  9  1  0  0  0
  4  5  1  0  0  0
  4 15  1  0  0  0
  5  6  1  0  0  0
  5 16  1  0  0  0
  5 17  1  0  0  0
  6  7  1  0  0  0
  6 18  1  0  0  0
  6 19  1  0  0  0
  7  8  1  0  0  0
  7 20  1  0  0  0
  7 21  1  0  0  0
  8 22  1  0  0  0
  8 23  1  0  0  0
  8 24  1  0  0  0
  9 10  2  0  0  0
  9 14  1  0  0  0
 10 11  1  0  0  0
 10 25  1  0  0  0
 11 12  2  0  0  0
 11 26  1  0  0  0
 12 13  1  0  0  0
 12 27  1  0  0  0
 13 14  2  0  0  0
 13 28  1  0  0  0
 14 29  1  0  0  0
M  END
> <s_m_source_file>
../3d78_ligand.sdf

> <i_m_source_file_index>
1

> <s_epik_input>
W0NIM11bQ0gyXVtDSDJdW0NIMl1bTkhdUyg9TykoPU8pYzFbY0hdW2NIXVtjSF1bY0hdW2NIXTE=

> <s_epik_cmdline>
J2VwaWtfYXBwJywgJy1pbWFlJywgJ2xpZ2FuZF9wcm8ubWFlJywgJy1vbWFlJywgJ2xpZ2FuZF9wcmVwLm1hZScsICctbXMnLCAnMScsICctcGgnLCAnNycsICctcGh0JywgJzAuNScsICctbnQn

> <r_lp_tautomer_probability>
1

> <r_epik_Ionization_Penalty>
  0.0000

> <r_epik_Ionization_Penalty_Charging>
  0.0000

> <r_epik_Ionization_Penalty_Neutral>
  0.0000

> <r_epik_State_Penalty>
 -0.0000

> <r_epik_Charging_Adjusted_Penalty>
0

> <i_epik_Tot_Q>
0

> <i_epik_Tot_abs_Q>
0

$$$$
