3d7d_ligand
                    3D
 Schrodinger Suite 2020-3.
 43 43  0  0  1  0            999 V2000
   23.3590   50.3460   47.3820 F   0  0  0  0  0  0
   23.2990   49.5500   46.2740 C   0  0  0  0  0  0
   23.8850   48.2920   46.3700 C   0  0  0  0  0  0
   23.8950   47.4320   45.2760 C   0  0  0  0  0  0
   22.7150   49.9690   45.0580 C   0  0  0  0  0  0
   22.7210   49.0930   43.9480 C   0  0  0  0  0  0
   23.3160   47.8160   44.0620 C   0  0  0  0  0  0
   23.3790   46.8260   42.8950 C   0  0  0  0  0  0
   22.5380   45.3090   43.2950 S   0  0  0  0  0  0
   20.8500   45.8770   43.4020 C   0  0  0  0  0  0
   19.9710   45.0980   44.4060 C   0  0  1  0  0  0
   20.1220   45.7220   45.7830 C   0  0  0  0  0  0
   20.6320   45.0090   46.6720 O   0  0  0  0  0  0
   19.6860   46.8890   45.9740 O   0  5  0  0  0  0
   18.6570   45.4730   43.9010 N   0  0  0  0  0  0
   17.9670   44.7330   43.0320 C   0  0  0  0  0  0
   18.4020   43.6600   42.5560 O   0  0  0  0  0  0
   16.7240   45.1550   42.7020 N   0  0  0  0  0  0
   16.0380   44.4360   41.6140 C   0  0  2  0  0  0
   17.0080   44.6360   40.4370 C   0  0  0  0  0  0
   17.9050   45.5240   40.4540 O   0  0  0  0  0  0
   16.9350   43.8740   39.4100 O   0  5  0  0  0  0
   14.7710   45.2090   41.1750 C   0  0  0  0  0  0
   14.9850   46.7270   41.0920 C   0  0  0  0  0  0
   13.8570   47.4960   40.4060 C   0  0  0  0  0  0
   13.7890   48.7330   40.5830 O   0  0  0  0  0  0
   13.0100   46.8860   39.6980 O   0  5  0  0  0  0
   24.3398   47.9775   47.3093 H   0  0  0  0  0  0
   24.3585   46.4496   45.3660 H   0  0  0  0  0  0
   22.2641   50.9580   44.9761 H   0  0  0  0  0  0
   22.2676   49.4020   43.0062 H   0  0  0  0  0  0
   22.8999   47.2710   42.0104 H   0  0  0  0  0  0
   24.4299   46.5956   42.6659 H   0  0  0  0  0  0
   20.8370   46.9306   43.7178 H   0  0  0  0  0  0
   20.3685   45.7834   42.4174 H   0  0  0  0  0  0
   20.1440   44.0147   44.4864 H   0  0  0  0  0  0
   18.1855   46.4086   44.2361 H   0  0  0  0  0  0
   16.2243   45.9948   43.2070 H   0  0  0  0  0  0
   15.8022   43.4104   41.9341 H   0  0  0  0  0  0
   14.4574   44.8634   40.1789 H   0  0  0  0  0  0
   13.9618   45.0273   41.8976 H   0  0  0  0  0  0
   15.0789   47.1401   42.1072 H   0  0  0  0  0  0
   15.9033   46.9373   40.5242 H   0  0  0  0  0  0
  1  2  1  0  0  0
  2  3  2  0  0  0
  2  5  1  0  0  0
  3  4  1  0  0  0
  3 28  1  0  0  0
  4  7  2  0  0  0
  4 29  1  0  0  0
  5  6  2  0  0  0
  5 30  1  0  0  0
  6  7  1  0  0  0
  6 31  1  0  0  0
  7  8  1  0  0  0
  8  9  1  0  0  0
  8 32  1  0  0  0
  8 33  1  0  0  0
  9 10  1  0  0  0
 10 11  1  0  0  0
 10 34  1  0  0  0
 10 35  1  0  0  0
 11 12  1  0  0  0
 11 15  1  0  0  0
 11 36  1  0  0  0
 12 13  2  0  0  0
 12 14  1  0  0  0
 15 16  1  0  0  0
 15 37  1  0  0  0
 16 17  2  0  0  0
 16 18  1  0  0  0
 18 19  1  0  0  0
 18 38  1  0  0  0
 19 20  1  0  0  0
 19 23  1  0  0  0
 19 39  1  0  0  0
 20 21  2  0  0  0
 20 22  1  0  0  0
 23 24  1  0  0  0
 23 40  1  0  0  0
 23 41  1  0  0  0
 24 25  1  0  0  0
 24 42  1  0  0  0
 24 43  1  0  0  0
 25 26  2  0  0  0
 25 27  1  0  0  0
M  CHG  3  14  -1  22  -1  27  -1
M  END
> <s_m_source_file>
../3d7d_ligand.sdf

> <i_m_source_file_index>
1

> <s_epik_input>
RmMxW2NIXVtjSF1jKFtjSF1bY0hdMSlbQ0gyXVNbQ0gyXVtDQEBIXShDKD1PKVtPSF0pW05IXUMoPU8pW05IXVtDQEhdKEMoPU8pW09IXSlbQ0gyXVtDSDJdQyg9TylbT0hd

> <s_epik_cmdline>
J2VwaWtfYXBwJywgJy1pbWFlJywgJ2xpZ2FuZF9wcm8ubWFlJywgJy1vbWFlJywgJ2xpZ2FuZF9wcmVwLm1hZScsICctbXMnLCAnMScsICctcGgnLCAnNycsICctcGh0JywgJzAuNScsICctbnQn

> <r_lp_tautomer_probability>
1

> <r_epik_Ionization_Penalty>
  0.0071

> <r_epik_Ionization_Penalty_Charging>
  0.0071

> <r_epik_Ionization_Penalty_Neutral>
  0.0001

> <r_epik_State_Penalty>
 -0.0000

> <r_epik_Charging_Adjusted_Penalty>
0.00707547520446377

> <i_epik_Tot_Q>
-3

> <i_epik_Tot_abs_Q>
3

$$$$
