3d7f_ligand
                    3D
 Schrodinger Suite 2020-3.
 40 40  0  0  1  0            999 V2000
   24.5760   49.5590   43.6540 I   0  0  0  0  0  0
   23.8790   47.5590   43.8950 C   0  0  0  0  0  0
   22.6010   47.2390   43.4270 C   0  0  0  0  0  0
   24.6430   46.5490   44.5110 C   0  0  0  0  0  0
   25.8970   46.8270   45.0130 O   0  0  0  0  0  0
   24.1490   45.2570   44.6440 C   0  0  0  0  0  0
   22.8670   44.9620   44.1470 C   0  0  0  0  0  0
   22.0970   45.9470   43.5620 C   0  0  0  0  0  0
   20.7040   45.6460   43.0500 C   0  0  0  0  0  0
   19.8060   44.9950   44.1330 C   0  0  1  0  0  0
   20.0030   45.6210   45.4870 C   0  0  0  0  0  0
   19.5510   46.7840   45.6430 O   0  5  0  0  0  0
   20.5090   44.9200   46.3870 O   0  0  0  0  0  0
   18.4710   45.3440   43.6440 N   0  0  0  0  0  0
   17.8270   44.5400   42.7970 C   0  0  0  0  0  0
   18.2340   43.4600   42.3330 O   0  0  0  0  0  0
   16.5800   44.9500   42.4410 N   0  0  0  0  0  0
   15.9050   44.2590   41.3530 C   0  0  2  0  0  0
   16.8580   44.4880   40.1630 C   0  0  0  0  0  0
   17.7830   45.3780   40.1410 O   0  5  0  0  0  0
   16.7740   43.7070   39.1590 O   0  0  0  0  0  0
   14.6180   45.0170   40.9100 C   0  0  0  0  0  0
   14.8230   46.5510   40.8400 C   0  0  0  0  0  0
   13.6940   47.3310   40.1690 C   0  0  0  0  0  0
   12.9140   46.7320   39.3920 O   0  0  0  0  0  0
   13.6530   48.5760   40.4120 O   0  5  0  0  0  0
   21.9925   48.0083   42.9515 H   0  0  0  0  0  0
   26.3135   47.8410   44.9219 H   0  0  0  0  0  0
   24.7465   44.4835   45.1265 H   0  0  0  0  0  0
   22.4780   43.9467   44.2244 H   0  0  0  0  0  0
   20.2227   46.5804   42.7256 H   0  0  0  0  0  0
   20.7681   44.9520   42.1990 H   0  0  0  0  0  0
   19.9652   43.9162   44.2776 H   0  0  0  0  0  0
   17.9904   46.2764   43.9750 H   0  0  0  0  0  0
   16.0813   45.7843   42.9560 H   0  0  0  0  0  0
   15.6963   43.2318   41.6866 H   0  0  0  0  0  0
   14.3145   44.6714   39.9108 H   0  0  0  0  0  0
   13.8092   44.8173   41.6283 H   0  0  0  0  0  0
   14.9187   46.9550   41.8586 H   0  0  0  0  0  0
   15.7372   46.7731   40.2701 H   0  0  0  0  0  0
  1  2  1  0  0  0
  2  3  2  0  0  0
  2  4  1  0  0  0
  3  8  1  0  0  0
  3 27  1  0  0  0
  4  5  1  0  0  0
  4  6  2  0  0  0
  5 28  1  0  0  0
  6  7  1  0  0  0
  6 29  1  0  0  0
  7  8  2  0  0  0
  7 30  1  0  0  0
  8  9  1  0  0  0
  9 10  1  0  0  0
  9 31  1  0  0  0
  9 32  1  0  0  0
 10 11  1  0  0  0
 10 14  1  0  0  0
 10 33  1  0  0  0
 11 12  1  0  0  0
 11 13  2  0  0  0
 14 15  1  0  0  0
 14 34  1  0  0  0
 15 16  2  0  0  0
 15 17  1  0  0  0
 17 18  1  0  0  0
 17 35  1  0  0  0
 18 19  1  0  0  0
 18 22  1  0  0  0
 18 36  1  0  0  0
 19 20  1  0  0  0
 19 21  2  0  0  0
 22 23  1  0  0  0
 22 37  1  0  0  0
 22 38  1  0  0  0
 23 24  1  0  0  0
 23 39  1  0  0  0
 23 40  1  0  0  0
 24 25  2  0  0  0
 24 26  1  0  0  0
M  CHG  3  12  -1  20  -1  26  -1
M  END
> <s_m_source_file>
../3d7f_ligand.sdf

> <i_m_source_file_index>
1

> <s_epik_input>
W09IXWMxW2NIXVtjSF1jKFtjSF1jMUkpW0NIMl1bQ0BASF0oQyg9TylbT0hdKVtOSF1DKD1PKVtOSF1bQ0BIXShDKD1PKVtPSF0pW0NIMl1bQ0gyXUMoPU8pW09IXQ==

> <s_epik_cmdline>
J2VwaWtfYXBwJywgJy1pbWFlJywgJ2xpZ2FuZF9wcm8ubWFlJywgJy1vbWFlJywgJ2xpZ2FuZF9wcmVwLm1hZScsICctbXMnLCAnMScsICctcGgnLCAnNycsICctcGh0JywgJzAuNScsICctbnQn

> <r_lp_tautomer_probability>
1

> <r_epik_Ionization_Penalty>
  0.0145

> <r_epik_Ionization_Penalty_Charging>
  0.0076

> <r_epik_Ionization_Penalty_Neutral>
  0.0069

> <r_epik_State_Penalty>
 -0.0000

> <r_epik_Charging_Adjusted_Penalty>
0.00764476139577759

> <i_epik_Tot_Q>
-3

> <i_epik_Tot_abs_Q>
3

$$$$
