3d7g_ligand
                    3D
 Schrodinger Suite 2020-3.
 33 32  0  0  1  0            999 V2000
   13.7490   48.4110   40.6760 O   0  5  0  0  0  0
   13.8020   47.1700   40.4630 C   0  0  0  0  0  0
   13.0090   46.5980   39.6810 O   0  0  0  0  0  0
   14.8920   46.3870   41.1760 C   0  0  0  0  0  0
   14.7250   44.8530   41.2340 C   0  0  0  0  0  0
   16.0310   44.1220   41.6460 C   0  0  1  0  0  0
   16.9750   44.3140   40.4370 C   0  0  0  0  0  0
   16.8700   43.5680   39.3920 O   0  5  0  0  0  0
   17.8840   45.2060   40.4590 O   0  0  0  0  0  0
   16.7140   44.8350   42.7200 N   0  0  0  0  0  0
   17.9450   44.4480   43.0600 C   0  0  0  0  0  0
   18.3930   43.4060   42.5490 O   0  0  0  0  0  0
   18.6600   45.2230   43.8790 N   0  0  0  0  0  0
   19.9690   44.8800   44.3990 C   0  0  2  0  0  0
   20.1230   45.4820   45.7790 C   0  0  0  0  0  0
   20.6490   44.7780   46.6720 O   0  0  0  0  0  0
   19.6700   46.6410   45.9760 O   0  5  0  0  0  0
   20.8720   45.6850   43.4530 C   0  0  0  0  0  0
   22.5840   45.5330   43.9370 S   0  0  0  0  0  0
   23.0650   45.7260   42.2410 C   0  0  0  0  0  0
   15.8560   46.5620   40.6759 H   0  0  0  0  0  0
   14.9565   46.7184   42.2229 H   0  0  0  0  0  0
   13.9492   44.5962   41.9703 H   0  0  0  0  0  0
   14.4283   44.4787   40.2431 H   0  0  0  0  0  0
   15.8298   43.0964   41.9889 H   0  0  0  0  0  0
   16.2137   45.6714   43.2300 H   0  0  0  0  0  0
   18.1914   46.1789   44.1559 H   0  0  0  0  0  0
   20.1256   43.7925   44.4524 H   0  0  0  0  0  0
   20.7571   45.3069   42.4264 H   0  0  0  0  0  0
   20.5851   46.7464   43.4871 H   0  0  0  0  0  0
   24.1612   45.6786   42.1631 H   0  0  0  0  0  0
   22.7127   46.6992   41.8684 H   0  0  0  0  0  0
   22.6194   44.9200   41.6395 H   0  0  0  0  0  0
  1  2  1  0  0  0
  2  3  2  0  0  0
  2  4  1  0  0  0
  4  5  1  0  0  0
  4 21  1  0  0  0
  4 22  1  0  0  0
  5  6  1  0  0  0
  5 23  1  0  0  0
  5 24  1  0  0  0
  6  7  1  0  0  0
  6 10  1  0  0  0
  6 25  1  0  0  0
  7  8  1  0  0  0
  7  9  2  0  0  0
 10 11  1  0  0  0
 10 26  1  0  0  0
 11 12  2  0  0  0
 11 13  1  0  0  0
 13 14  1  0  0  0
 13 27  1  0  0  0
 14 15  1  0  0  0
 14 18  1  0  0  0
 14 28  1  0  0  0
 15 16  2  0  0  0
 15 17  1  0  0  0
 18 19  1  0  0  0
 18 29  1  0  0  0
 18 30  1  0  0  0
 19 20  1  0  0  0
 20 31  1  0  0  0
 20 32  1  0  0  0
 20 33  1  0  0  0
M  CHG  3   1  -1   8  -1  17  -1
M  END
> <s_m_source_file>
../3d7g_ligand.sdf

> <i_m_source_file_index>
1

> <s_epik_input>
W09IXUMoPU8pW0NIMl1bQ0gyXVtDQEBIXShDKD1PKVtPSF0pW05IXUMoPU8pW05IXVtDQEhdKEMoPU8pW09IXSlbQ0gyXVNbQ0gzXQ==

> <s_epik_cmdline>
J2VwaWtfYXBwJywgJy1pbWFlJywgJ2xpZ2FuZF9wcm8ubWFlJywgJy1vbWFlJywgJ2xpZ2FuZF9wcmVwLm1hZScsICctbXMnLCAnMScsICctcGgnLCAnNycsICctcGh0JywgJzAuNScsICctbnQn

> <r_lp_tautomer_probability>
1

> <r_epik_Ionization_Penalty>
  0.0070

> <r_epik_Ionization_Penalty_Charging>
  0.0069

> <r_epik_Ionization_Penalty_Neutral>
  0.0001

> <r_epik_State_Penalty>
 -0.0000

> <r_epik_Charging_Adjusted_Penalty>
0.00691761602851783

> <i_epik_Tot_Q>
-3

> <i_epik_Tot_abs_Q>
3

$$$$
