3d7h_ligand
                    3D
 Schrodinger Suite 2020-3.
 52 52  0  0  1  0            999 V2000
   23.7600   50.2890   51.1960 I   0  0  0  0  0  0
   23.5690   50.0000   49.0670 C   0  0  0  0  0  0
   23.6870   51.0340   48.1360 C   0  0  0  0  0  0
   23.5420   50.8600   46.7400 C   0  0  0  0  0  0
   23.3050   48.7450   48.4950 C   0  0  0  0  0  0
   23.1900   48.5610   47.0960 C   0  0  0  0  0  0
   23.3040   49.5940   46.1750 C   0  0  0  0  0  0
   23.1030   49.3840   44.6770 C   0  0  0  0  0  0
   22.5410   50.2630   44.0150 O   0  0  0  0  0  0
   23.4170   48.2670   44.0280 N   0  0  0  0  0  0
   23.2190   47.9360   42.6190 C   0  0  0  0  0  0
   23.2710   46.4080   42.5100 C   0  0  0  0  0  0
   22.4200   45.6140   43.5380 C   0  0  0  0  0  0
   20.9060   45.7040   43.2820 C   0  0  0  0  0  0
   19.9410   45.0280   44.2810 C   0  0  1  0  0  0
   20.1650   45.6410   45.6330 C   0  0  0  0  0  0
   20.7790   44.9610   46.4760 O   0  0  0  0  0  0
   19.6870   46.7980   45.8880 O   0  5  0  0  0  0
   18.6300   45.4440   43.7640 N   0  0  0  0  0  0
   17.9310   44.7090   42.8680 C   0  0  0  0  0  0
   18.3220   43.6340   42.3640 O   0  0  0  0  0  0
   16.7060   45.1940   42.5140 N   0  0  0  0  0  0
   16.0570   44.5180   41.4150 C   0  0  2  0  0  0
   17.0230   44.7150   40.2500 C   0  0  0  0  0  0
   17.9670   45.5940   40.2700 O   0  5  0  0  0  0
   16.9600   43.9350   39.2550 O   0  0  0  0  0  0
   14.7590   45.2980   41.0660 C   0  0  0  0  0  0
   15.0050   46.8050   40.8980 C   0  0  0  0  0  0
   13.8790   47.5820   40.1990 C   0  0  0  0  0  0
   13.1270   46.9880   39.3810 O   0  5  0  0  0  0
   13.8050   48.8030   40.4360 O   0  0  0  0  0  0
   23.9039   52.0355   48.5075 H   0  0  0  0  0  0
   23.6165   51.7285   46.0856 H   0  0  0  0  0  0
   23.1845   47.8827   49.1508 H   0  0  0  0  0  0
   23.0019   47.5547   46.7218 H   0  0  0  0  0  0
   23.8856   47.5366   44.7040 H   0  0  0  0  0  0
   22.2424   48.3177   42.2864 H   0  0  0  0  0  0
   24.0168   48.3972   42.0184 H   0  0  0  0  0  0
   22.9113   46.0988   41.5175 H   0  0  0  0  0  0
   24.3073   46.0656   42.6475 H   0  0  0  0  0  0
   22.6975   44.5502   43.4999 H   0  0  0  0  0  0
   22.6066   46.0056   44.5489 H   0  0  0  0  0  0
   20.5984   46.7600   43.2698 H   0  0  0  0  0  0
   20.6700   45.2421   42.3119 H   0  0  0  0  0  0
   20.0191   43.9358   44.3861 H   0  0  0  0  0  0
   18.1785   46.3874   44.1048 H   0  0  0  0  0  0
   16.2099   46.0426   43.0078 H   0  0  0  0  0  0
   15.8559   43.4691   41.6783 H   0  0  0  0  0  0
   14.3440   44.9155   40.1218 H   0  0  0  0  0  0
   14.0223   45.1631   41.8716 H   0  0  0  0  0  0
   15.1350   47.2678   41.8874 H   0  0  0  0  0  0
   15.9125   46.9636   40.2969 H   0  0  0  0  0  0
  1  2  1  0  0  0
  2  3  2  0  0  0
  2  5  1  0  0  0
  3  4  1  0  0  0
  3 32  1  0  0  0
  4  7  2  0  0  0
  4 33  1  0  0  0
  5  6  2  0  0  0
  5 34  1  0  0  0
  6  7  1  0  0  0
  6 35  1  0  0  0
  7  8  1  0  0  0
  8  9  2  0  0  0
  8 10  1  0  0  0
 10 11  1  0  0  0
 10 36  1  0  0  0
 11 12  1  0  0  0
 11 37  1  0  0  0
 11 38  1  0  0  0
 12 13  1  0  0  0
 12 39  1  0  0  0
 12 40  1  0  0  0
 13 14  1  0  0  0
 13 41  1  0  0  0
 13 42  1  0  0  0
 14 15  1  0  0  0
 14 43  1  0  0  0
 14 44  1  0  0  0
 15 16  1  0  0  0
 15 19  1  0  0  0
 15 45  1  0  0  0
 16 17  2  0  0  0
 16 18  1  0  0  0
 19 20  1  0  0  0
 19 46  1  0  0  0
 20 21  2  0  0  0
 20 22  1  0  0  0
 22 23  1  0  0  0
 22 47  1  0  0  0
 23 24  1  0  0  0
 23 27  1  0  0  0
 23 48  1  0  0  0
 24 25  1  0  0  0
 24 26  2  0  0  0
 27 28  1  0  0  0
 27 49  1  0  0  0
 27 50  1  0  0  0
 28 29  1  0  0  0
 28 51  1  0  0  0
 28 52  1  0  0  0
 29 30  1  0  0  0
 29 31  2  0  0  0
M  CHG  3  18  -1  25  -1  30  -1
M  END
> <s_m_source_file>
../3d7h_ligand.sdf

> <i_m_source_file_index>
1

> <s_epik_input>
SWMxW2NIXVtjSF1jKFtjSF1bY0hdMSlDKD1PKVtOSF1bQ0gyXVtDSDJdW0NIMl1bQ0gyXVtDQEBIXShDKD1PKVtPSF0pW05IXUMoPU8pW05IXVtDQEhdKEMoPU8pW09IXSlbQ0gyXVtDSDJdQyg9TylbT0hd

> <s_epik_cmdline>
J2VwaWtfYXBwJywgJy1pbWFlJywgJ2xpZ2FuZF9wcm8ubWFlJywgJy1vbWFlJywgJ2xpZ2FuZF9wcmVwLm1hZScsICctbXMnLCAnMScsICctcGgnLCAnNycsICctcGh0JywgJzAuNScsICctbnQn

> <r_lp_tautomer_probability>
1

> <r_epik_Ionization_Penalty>
  0.0077

> <r_epik_Ionization_Penalty_Charging>
  0.0077

> <r_epik_Ionization_Penalty_Neutral>
  0.0001

> <r_epik_State_Penalty>
 -0.0000

> <r_epik_Charging_Adjusted_Penalty>
0.00765106238871929

> <i_epik_Tot_Q>
-3

> <i_epik_Tot_abs_Q>
3

$$$$
