3d7m_ligand
                    3D
 Schrodinger Suite 2020-3.
 40 42  0  0  1  0            999 V2000
  -22.8750   14.3050  -12.9890 P   0  0  0  0  0  0
  -23.7490   15.1050  -12.1490 O   0  0  0  0  0  0
  -23.0890   12.8640  -12.8230 O   0  5  0  0  0  0
  -22.9110   14.8590  -14.3530 O   0  5  0  0  0  0
  -21.3420   14.5140  -12.5100 O   0  0  0  0  0  0
  -20.4090   13.7750  -11.4280 P   0  0  1  0  0  0
  -21.2520   13.5490  -10.2270 O   0  0  0  0  0  0
  -19.6170   12.6430  -12.1220 O   0  5  0  0  0  0
  -19.4280   14.8640  -10.9370 O   0  0  0  0  0  0
  -18.3630   15.3490  -11.7440 C   0  0  0  0  0  0
  -17.0840   15.4550  -11.0410 C   0  0  1  0  0  0
  -17.1210   16.4730   -9.9860 O   0  0  0  0  0  0
  -16.6620   14.1590  -10.4040 C   0  0  1  0  0  0
  -15.3030   13.9740  -10.6880 O   0  0  0  0  0  0
  -16.8770   14.4550   -8.8950 C   0  0  1  0  0  0
  -15.9810   13.8100   -8.0320 O   0  0  0  0  0  0
  -16.7220   15.9350   -8.7300 C   0  0  2  0  0  0
  -17.6400   16.4340   -7.7520 N   0  0  0  0  0  0
  -19.0200   16.2380   -7.5880 C   0  0  0  0  0  0
  -19.5720   16.8750   -6.5720 N   0  0  0  0  0  0
  -18.4370   17.5330   -6.0180 C   0  0  0  0  0  0
  -18.3280   18.4420   -4.8920 C   0  0  0  0  0  0
  -19.2270   18.8010   -4.1350 O   0  0  0  0  0  0
  -17.0130   18.9010   -4.6340 N   0  3  0  0  0  0
  -15.8950   18.5590   -5.4250 C   0  0  0  0  0  0
  -14.7040   19.0030   -5.1390 N   0  0  0  0  0  0
  -16.0050   17.7540   -6.4960 N   0  0  0  0  0  0
  -17.2830   17.2750   -6.7510 C   0  0  0  0  0  0
  -18.2099   14.6700  -12.5958 H   0  0  0  0  0  0
  -18.6130   16.3535  -12.1162 H   0  0  0  0  0  0
  -16.3752   15.7595  -11.8251 H   0  0  0  0  0  0
  -17.1327   13.2417  -10.7874 H   0  0  0  0  0  0
  -14.9809   13.7550  -11.7167 H   0  0  0  0  0  0
  -17.8324   14.0482   -8.5320 H   0  0  0  0  0  0
  -15.9399   12.7112   -8.0029 H   0  0  0  0  0  0
  -15.7099   16.2396   -8.4254 H   0  0  0  0  0  0
  -19.5988   15.6008   -8.2566 H   0  0  0  0  0  0
  -14.5572   19.6653   -4.2731 H   0  0  0  0  0  0
  -13.8453   18.7156   -5.7635 H   0  0  0  0  0  0
  -16.8196   19.5624   -3.7766 H   0  0  0  0  0  0
  1  2  2  0  0  0
  1  3  1  0  0  0
  1  4  1  0  0  0
  1  5  1  0  0  0
  5  6  1  0  0  0
  6  7  2  0  0  0
  6  8  1  0  0  0
  6  9  1  0  0  0
  9 10  1  0  0  0
 10 11  1  0  0  0
 10 29  1  0  0  0
 10 30  1  0  0  0
 11 12  1  0  0  0
 11 13  1  0  0  0
 11 31  1  0  0  0
 12 17  1  0  0  0
 13 14  1  0  0  0
 13 15  1  0  0  0
 13 32  1  0  0  0
 14 33  1  0  0  0
 15 16  1  0  0  0
 15 17  1  0  0  0
 15 34  1  0  0  0
 16 35  1  0  0  0
 17 18  1  0  0  0
 17 36  1  0  0  0
 18 19  1  0  0  0
 18 28  1  0  0  0
 19 20  2  0  0  0
 19 37  1  0  0  0
 20 21  1  0  0  0
 21 22  1  0  0  0
 21 28  2  0  0  0
 22 23  2  0  0  0
 22 24  1  0  0  0
 24 25  1  0  0  0
 24 40  1  0  0  0
 25 26  1  0  0  0
 25 27  2  0  0  0
 26 38  1  0  0  0
 26 39  1  0  0  0
 27 28  1  0  0  0
M  CHG  4   3  -1   4  -1   8  -1  24   1
M  END
> <s_m_source_file>
../3d7m_ligand.sdf

> <i_m_source_file_index>
1

> <s_epik_input>
Tz1QKFtPSF0pKFtPSF0pT1tQQEBdKD1PKShbT0hdKU9bQ0gyXVtDQEhdMU9bQ0BIXShbQ0BIXShbT0hdKVtDQEBIXTFbT0hdKW4oW2NIXW4yKWMoYzIzKVtuSF1jKD1OXFtIXSlcW25IXWMzPU8=

> <s_epik_cmdline>
J2VwaWtfYXBwJywgJy1pbWFlJywgJ2xpZ2FuZF9wcm8ubWFlJywgJy1vbWFlJywgJ2xpZ2FuZF9wcmVwLm1hZScsICctbXMnLCAnMScsICctcGgnLCAnNycsICctcGh0JywgJzAuNScsICctbnQn

> <r_epik_Ionization_Penalty>
  2.4918

> <r_epik_Ionization_Penalty_Charging>
  2.4918

> <r_epik_Ionization_Penalty_Neutral>
  0.0000

> <r_epik_State_Penalty>
  0.1302

> <r_epik_Charging_Adjusted_Penalty>
2.62193179535438

> <i_epik_Tot_Q>
-2

> <i_epik_Tot_abs_Q>
4

> <s_epik_Chemistry_Notes>
This compound has an imine and may undergo hydrolysis. This compound contains an acetal/aminal-like group ( X-CH(R)-Y where X, Y are N, S, or O) that may be acid/base labile, releasing an aldehyde.

$$$$
