3d7z_ligand
                    3D
 Schrodinger Suite 2020-3.
 46 49  0  0  1  0            999 V2000
   39.6300   32.3090   30.1810 C   0  0  0  0  0  0
   36.9710   26.7190   36.5160 C   0  0  0  0  0  0
   38.0580   27.4050   37.2550 C   0  0  0  0  0  0
   38.3730   26.6660   35.9900 C   0  0  0  0  0  0
   49.0270   33.9270   30.3930 C   0  0  0  0  0  0
   50.1850   34.2140   31.2830 C   0  0  0  0  0  0
   48.8110   34.5300   31.7230 C   0  0  0  0  0  0
   39.5470   31.3350   31.3530 C   0  0  0  0  0  0
   38.4080   30.5250   31.5890 C   0  0  0  0  0  0
   38.3120   29.6390   32.6650 C   0  0  0  0  0  0
   39.3810   29.5090   33.5710 C   0  0  0  0  0  0
   39.4050   28.5850   34.7640 C   0  0  0  0  0  0
   40.2860   28.7210   35.6310 O   0  0  0  0  0  0
   38.4170   27.6230   34.9050 N   0  0  0  0  0  0
   40.5060   30.3250   33.3110 C   0  0  0  0  0  0
   40.6100   31.2270   32.2260 C   0  0  0  0  0  0
   41.9110   31.9770   32.1760 C   0  0  0  0  0  0
   42.9870   31.5060   31.4480 C   0  0  0  0  0  0
   44.2120   32.1920   31.4660 C   0  0  0  0  0  0
   44.4000   33.3460   32.2420 C   0  0  0  0  0  0
   43.3170   33.7730   33.0100 C   0  0  0  0  0  0
   42.0990   33.0920   32.9560 C   0  0  0  0  0  0
   45.6910   34.0920   32.3920 C   0  0  0  0  0  0
   45.7880   35.2700   32.7450 O   0  0  0  0  0  0
   46.7910   33.2990   32.2650 N   0  0  0  0  0  0
   48.1440   33.6290   32.7420 C   0  0  0  0  0  0
   38.6990   32.2604   29.5972 H   0  0  0  0  0  0
   40.4804   32.0376   29.5383 H   0  0  0  0  0  0
   39.7704   33.3310   30.5628 H   0  0  0  0  0  0
   35.9397   26.7542   36.8969 H   0  0  0  0  0  0
   37.8331   27.9491   38.1842 H   0  0  0  0  0  0
   39.1029   25.9029   35.6820 H   0  0  0  0  0  0
   49.1925   33.4776   29.4027 H   0  0  0  0  0  0
   51.2063   33.9767   30.9505 H   0  0  0  0  0  0
   48.3441   35.4507   32.1029 H   0  0  0  0  0  0
   37.5676   30.5967   30.8986 H   0  0  0  0  0  0
   37.4071   29.0472   32.8030 H   0  0  0  0  0  0
   37.6357   27.6129   34.1307 H   0  0  0  0  0  0
   41.3523   30.2542   33.9942 H   0  0  0  0  0  0
   42.8841   30.5964   30.8562 H   0  0  0  0  0  0
   45.0385   31.8184   30.8615 H   0  0  0  0  0  0
   43.4220   34.6441   33.6567 H   0  0  0  0  0  0
   41.2660   33.4591   33.5555 H   0  0  0  0  0  0
   46.6053   32.3412   31.7569 H   0  0  0  0  0  0
   48.7342   32.7081   32.8591 H   0  0  0  0  0  0
   48.0829   34.1507   33.7085 H   0  0  0  0  0  0
  1  8  1  0  0  0
  1 27  1  0  0  0
  1 28  1  0  0  0
  1 29  1  0  0  0
  2  3  2  0  0  0
  2  4  1  0  0  0
  2 30  1  0  0  0
  3  4  1  0  0  0
  3 31  1  0  0  0
  4 14  1  0  0  0
  4 32  1  0  0  0
  5  6  2  0  0  0
  5  7  1  0  0  0
  5 33  1  0  0  0
  6  7  1  0  0  0
  6 34  1  0  0  0
  7 26  1  0  0  0
  7 35  1  0  0  0
  8  9  2  0  0  0
  8 16  1  0  0  0
  9 10  1  0  0  0
  9 36  1  0  0  0
 10 11  2  0  0  0
 10 37  1  0  0  0
 11 12  1  0  0  0
 11 15  1  0  0  0
 12 13  2  0  0  0
 12 14  1  0  0  0
 14 38  1  0  0  0
 15 16  2  0  0  0
 15 39  1  0  0  0
 16 17  1  0  0  0
 17 18  2  0  0  0
 17 22  1  0  0  0
 18 19  1  0  0  0
 18 40  1  0  0  0
 19 20  2  0  0  0
 19 41  1  0  0  0
 20 21  1  0  0  0
 20 23  1  0  0  0
 21 22  2  0  0  0
 21 42  1  0  0  0
 22 43  1  0  0  0
 23 24  2  0  0  0
 23 25  1  0  0  0
 25 26  1  0  0  0
 25 44  1  0  0  0
 26 45  1  0  0  0
 26 46  1  0  0  0
M  END
> <s_m_source_file>
../3d7z_ligand.sdf

> <i_m_source_file_index>
1

> <s_epik_input>
W0NIXTE9W0NIXVtDSF0xW05IXUMoPU8pYyhbY0hdW2NIXWMyW0NIM10pW2NIXWMyLWMzW2NIXVtjSF1jKFtjSF1bY0hdMylDKD1PKVtOSF1bQ0gyXVtDSF00W0NIXT1bQ0hdNA==

> <s_epik_cmdline>
J2VwaWtfYXBwJywgJy1pbWFlJywgJ2xpZ2FuZF9wcm8ubWFlJywgJy1vbWFlJywgJ2xpZ2FuZF9wcmVwLm1hZScsICctbXMnLCAnMScsICctcGgnLCAnNycsICctcGh0JywgJzAuNScsICctbnQn

> <r_lp_tautomer_probability>
1

> <r_epik_Ionization_Penalty>
  0.0000

> <r_epik_Ionization_Penalty_Charging>
  0.0000

> <r_epik_Ionization_Penalty_Neutral>
  0.0000

> <r_epik_State_Penalty>
 -0.0000

> <r_epik_Charging_Adjusted_Penalty>
0

> <i_epik_Tot_Q>
0

> <i_epik_Tot_abs_Q>
0

$$$$
