3d83_ligand
                    3D
 Schrodinger Suite 2020-3.
 65 69  0  0  1  0            999 V2000
   46.2930   34.8180   30.9770 O   0  0  0  0  0  0
   46.0010   33.6850   30.5740 C   0  0  0  0  0  0
   46.7750   33.0420   29.6770 N   0  0  0  0  0  0
   47.9870   33.6210   29.0970 C   0  0  0  0  0  0
   49.0690   32.5610   28.8470 C   0  0  0  0  0  0
   50.4230   33.1260   29.2810 C   0  0  0  0  0  0
   49.7130   32.0970   30.1540 C   0  0  0  0  0  0
   44.7130   33.0050   31.0550 C   0  0  0  0  0  0
   44.3990   31.7120   30.6360 C   0  0  0  0  0  0
   43.2190   31.0710   31.0750 C   0  0  0  0  0  0
   43.8320   33.6670   31.9150 C   0  0  0  0  0  0
   42.6540   33.0280   32.3520 C   0  0  0  0  0  0
   42.3460   31.7220   31.9440 C   0  0  0  0  0  0
   41.1220   31.1280   32.3350 C   0  0  0  0  0  0
   39.9640   31.5260   31.6450 C   0  0  0  0  0  0
   40.0470   32.5660   30.5520 C   0  0  0  0  0  0
   40.9900   30.1500   33.3360 C   0  0  0  0  0  0
   39.7240   29.6130   33.6760 C   0  0  0  0  0  0
   38.5790   30.0370   32.9910 C   0  0  0  0  0  0
   38.7050   30.9950   31.9660 C   0  0  0  0  0  0
   39.5810   28.6850   34.6690 N   0  0  0  0  0  0
   40.2020   28.7100   35.8760 C   0  0  0  0  0  0
   41.1200   29.4700   36.1680 O   0  0  0  0  0  0
   39.7990   27.7130   36.9570 C   0  0  0  0  0  0
   40.1000   27.9850   38.3110 C   0  0  0  0  0  0
   39.7450   27.0410   39.2980 C   0  0  0  0  0  0
   39.1500   25.8840   38.9140 N   0  0  0  0  0  0
   38.8610   25.5970   37.6230 C   0  0  0  0  0  0
   39.1850   26.5000   36.6040 C   0  0  0  0  0  0
   40.0600   27.2770   40.6590 N   0  0  0  0  0  0
   39.9840   26.1460   41.5840 C   0  0  0  0  0  0
   39.8540   26.6370   43.0270 C   0  0  0  0  0  0
   40.7740   27.6980   43.2700 O   0  0  0  0  0  0
   40.3550   28.8400   42.5260 C   0  0  0  0  0  0
   40.5920   28.6050   41.0320 C   0  0  0  0  0  0
   46.4541   32.0313   29.3848 H   0  0  0  0  0  0
   47.7427   34.0954   28.1351 H   0  0  0  0  0  0
   48.3980   34.3754   29.7840 H   0  0  0  0  0  0
   48.6627   32.0461   27.9639 H   0  0  0  0  0  0
   51.1794   32.8930   28.5171 H   0  0  0  0  0  0
   50.3445   34.2169   29.3985 H   0  0  0  0  0  0
   49.0461   32.3345   30.9959 H   0  0  0  0  0  0
   49.8810   31.0106   30.1145 H   0  0  0  0  0  0
   45.0744   31.1882   29.9595 H   0  0  0  0  0  0
   42.9904   30.0619   30.7321 H   0  0  0  0  0  0
   44.0566   34.6801   32.2486 H   0  0  0  0  0  0
   41.9718   33.5571   33.0174 H   0  0  0  0  0  0
   41.0936   32.8788   30.4223 H   0  0  0  0  0  0
   39.4353   33.4376   30.8280 H   0  0  0  0  0  0
   39.6726   32.1387   29.6101 H   0  0  0  0  0  0
   41.8784   29.7982   33.8604 H   0  0  0  0  0  0
   37.6009   29.6303   33.2480 H   0  0  0  0  0  0
   37.8213   31.3252   31.4200 H   0  0  0  0  0  0
   38.9139   27.8225   34.5239 H   0  0  0  0  0  0
   40.6002   28.9126   38.5894 H   0  0  0  0  0  0
   38.3720   24.6549   37.3751 H   0  0  0  0  0  0
   38.9662   26.2676   35.5618 H   0  0  0  0  0  0
   39.1072   25.5291   41.3376 H   0  0  0  0  0  0
   40.8965   25.5381   41.4957 H   0  0  0  0  0  0
   38.8304   27.0011   43.1996 H   0  0  0  0  0  0
   40.0696   25.8081   43.7172 H   0  0  0  0  0  0
   39.2834   29.0177   42.6996 H   0  0  0  0  0  0
   40.9298   29.7200   42.8503 H   0  0  0  0  0  0
   41.6706   28.6409   40.8190 H   0  0  0  0  0  0
   40.0771   29.3831   40.4494 H   0  0  0  0  0  0
  1  2  2  0  0  0
  2  3  1  0  0  0
  2  8  1  0  0  0
  3  4  1  0  0  0
  3 36  1  0  0  0
  4  5  1  0  0  0
  4 37  1  0  0  0
  4 38  1  0  0  0
  5  6  1  0  0  0
  5  7  1  0  0  0
  5 39  1  0  0  0
  6  7  1  0  0  0
  6 40  1  0  0  0
  6 41  1  0  0  0
  7 42  1  0  0  0
  7 43  1  0  0  0
  8  9  2  0  0  0
  8 11  1  0  0  0
  9 10  1  0  0  0
  9 44  1  0  0  0
 10 13  2  0  0  0
 10 45  1  0  0  0
 11 12  2  0  0  0
 11 46  1  0  0  0
 12 13  1  0  0  0
 12 47  1  0  0  0
 13 14  1  0  0  0
 14 15  2  0  0  0
 14 17  1  0  0  0
 15 16  1  0  0  0
 15 20  1  0  0  0
 16 48  1  0  0  0
 16 49  1  0  0  0
 16 50  1  0  0  0
 17 18  2  0  0  0
 17 51  1  0  0  0
 18 19  1  0  0  0
 18 21  1  0  0  0
 19 20  2  0  0  0
 19 52  1  0  0  0
 20 53  1  0  0  0
 21 22  1  0  0  0
 21 54  1  0  0  0
 22 23  2  0  0  0
 22 24  1  0  0  0
 24 25  2  0  0  0
 24 29  1  0  0  0
 25 26  1  0  0  0
 25 55  1  0  0  0
 26 27  2  0  0  0
 26 30  1  0  0  0
 27 28  1  0  0  0
 28 29  2  0  0  0
 28 56  1  0  0  0
 29 57  1  0  0  0
 30 31  1  0  0  0
 30 35  1  0  0  0
 31 32  1  0  0  0
 31 58  1  0  0  0
 31 59  1  0  0  0
 32 33  1  0  0  0
 32 60  1  0  0  0
 32 61  1  0  0  0
 33 34  1  0  0  0
 34 35  1  0  0  0
 34 62  1  0  0  0
 34 63  1  0  0  0
 35 64  1  0  0  0
 35 65  1  0  0  0
M  END
> <s_m_source_file>
../3d83_ligand.sdf

> <i_m_source_file_index>
1

> <s_epik_input>
W0NIMl0xW0NIMl1bQ0hdMVtDSDJdW05IXUMoPU8pYzJbY0hdW2NIXWMoW2NIXVtjSF0yKS1jM2MoW0NIM10pW2NIXVtjSF1jKFtjSF0zKVtOSF1DKD1PKWM0W2NIXWMobltjSF1bY0hdNClONVtDSDJdW0NIMl1PW0NIMl1bQ0gyXTU=

> <s_epik_cmdline>
J2VwaWtfYXBwJywgJy1pbWFlJywgJ2xpZ2FuZF9wcm8ubWFlJywgJy1vbWFlJywgJ2xpZ2FuZF9wcmVwLm1hZScsICctbXMnLCAnMScsICctcGgnLCAnNycsICctcGh0JywgJzAuNScsICctbnQn

> <r_lp_tautomer_probability>
1

> <r_epik_Ionization_Penalty>
  0.0000

> <r_epik_Ionization_Penalty_Charging>
  0.0000

> <r_epik_Ionization_Penalty_Neutral>
  0.0000

> <r_epik_State_Penalty>
 -0.0000

> <r_epik_Charging_Adjusted_Penalty>
0

> <i_epik_Tot_Q>
0

> <i_epik_Tot_abs_Q>
0

$$$$
