3d94_ligand
                    3D
 Schrodinger Suite 2020-3.
 69 75  0  0  1  0            999 V2000
   25.4110   13.5940   -7.6470 N   0  0  0  0  0  0
   24.5920   13.5810   -6.5360 C   0  0  0  0  0  0
   24.2220   14.8190   -5.8410 C   0  0  0  0  0  0
   23.4050   14.7300   -4.7190 N   0  0  0  0  0  0
   22.9520   13.4880   -4.2750 C   0  0  0  0  0  0
   23.3360   12.3950   -4.9700 C   0  0  0  0  0  0
   24.1530   12.4190   -6.0860 N   0  0  0  0  0  0
   23.1950   16.0030   -4.2520 C   0  0  0  0  0  0
   22.3500   16.3460   -3.0250 C   0  0  2  0  0  0
   22.1470   17.8370   -2.6380 C   0  0  0  0  0  0
   22.1160   17.2840   -1.1870 C   0  0  2  0  0  0
   22.4270   18.2710   -0.1040 N   0  3  2  0  0  0
   22.2820   19.7040   -0.4220 C   0  0  0  0  0  0
   22.3280   20.5830    0.8250 C   0  0  0  0  0  0
   23.6150   20.3230    1.5740 N   0  0  1  0  0  0
   23.6940   21.1880    2.8030 C   0  0  0  0  0  0
   23.8600   18.8530    1.8580 C   0  0  0  0  0  0
   23.7000   17.9910    0.5990 C   0  0  0  0  0  0
   23.1790   16.2950   -1.7100 C   0  0  0  0  0  0
   23.8300   16.8880   -5.0040 N   0  0  0  0  0  0
   24.4580   16.1760   -6.0040 C   0  0  0  0  0  0
   25.3340   16.8980   -6.8990 C   0  0  0  0  0  0
   25.0300   18.1480   -7.4770 C   0  0  0  0  0  0
   25.9680   18.8360   -8.2660 C   0  0  0  0  0  0
   27.2750   18.2740   -8.4140 C   0  0  0  0  0  0
   27.6120   17.0500   -7.7860 C   0  0  0  0  0  0
   26.6420   16.4030   -7.0190 C   0  0  0  0  0  0
   25.6130   20.0080   -8.8560 N   0  0  0  0  0  0
   26.5490   20.6850   -9.6020 C   0  0  0  0  0  0
   27.8420   20.1790   -9.7920 C   0  0  0  0  0  0
   28.2070   18.9680   -9.1950 C   0  0  0  0  0  0
   26.0940   21.9370  -10.2520 C   0  0  0  0  0  0
   26.8600   23.1160  -10.2980 C   0  0  0  0  0  0
   26.3910   24.2580  -10.9590 C   0  0  0  0  0  0
   25.1430   24.2420  -11.5940 C   0  0  0  0  0  0
   24.3670   23.0950  -11.5630 C   0  0  0  0  0  0
   24.8490   21.9580  -10.9160 C   0  0  0  0  0  0
   25.7891   14.5491   -8.0404 H   0  0  0  0  0  0
   25.6855   12.6492   -8.1390 H   0  0  0  0  0  0
   22.3106   13.4021   -3.3979 H   0  0  0  0  0  0
   22.9764   11.4249   -4.6269 H   0  0  0  0  0  0
   21.4963   15.7094   -3.3007 H   0  0  0  0  0  0
   23.0067   18.4271   -2.9884 H   0  0  0  0  0  0
   21.2268   18.2156   -3.1070 H   0  0  0  0  0  0
   21.2342   16.9382   -0.6278 H   0  0  0  0  0  0
   21.6005   18.1031    0.6021 H   0  0  0  0  0  0
   23.0995   20.0162   -1.0885 H   0  0  0  0  0  0
   21.3167   19.8729   -0.9217 H   0  0  0  0  0  0
   22.2820   21.6415    0.5293 H   0  0  0  0  0  0
   21.4712   20.3457    1.4727 H   0  0  0  0  0  0
   23.5074   22.2361    2.5263 H   0  0  0  0  0  0
   24.6952   21.0994    3.2500 H   0  0  0  0  0  0
   22.9371   20.8607    3.5310 H   0  0  0  0  0  0
   24.8832   18.7187    2.2389 H   0  0  0  0  0  0
   23.1394   18.4998    2.6104 H   0  0  0  0  0  0
   23.7277   16.9333    0.9000 H   0  0  0  0  0  0
   24.5445   18.2031   -0.0732 H   0  0  0  0  0  0
   23.2060   15.2618   -1.3334 H   0  0  0  0  0  0
   24.2045   16.6395   -1.9094 H   0  0  0  0  0  0
   24.0478   18.5895   -7.3085 H   0  0  0  0  0  0
   28.6081   16.6223   -7.8994 H   0  0  0  0  0  0
   26.9086   15.4842   -6.4966 H   0  0  0  0  0  0
   28.5600   20.7268  -10.4023 H   0  0  0  0  0  0
   29.2106   18.5671   -9.3369 H   0  0  0  0  0  0
   27.8348   23.1411   -9.8110 H   0  0  0  0  0  0
   26.9993   25.1622  -10.9793 H   0  0  0  0  0  0
   24.7827   25.1309  -12.1119 H   0  0  0  0  0  0
   23.3873   23.0815  -12.0406 H   0  0  0  0  0  0
   24.2422   21.0525  -10.9233 H   0  0  0  0  0  0
  1  2  1  0  0  0
  1 38  1  0  0  0
  1 39  1  0  0  0
  2  3  1  0  0  0
  2  7  2  0  0  0
  3  4  1  0  0  0
  3 21  2  0  0  0
  4  5  1  0  0  0
  4  8  1  0  0  0
  5  6  2  0  0  0
  5 40  1  0  0  0
  6  7  1  0  0  0
  6 41  1  0  0  0
  8  9  1  0  0  0
  8 20  2  0  0  0
  9 10  1  0  0  0
  9 19  1  0  0  0
  9 42  1  0  0  0
 10 11  1  0  0  0
 10 43  1  0  0  0
 10 44  1  0  0  0
 11 12  1  0  0  0
 11 19  1  0  0  0
 11 45  1  0  0  0
 12 13  1  0  0  0
 12 18  1  0  0  0
 12 46  1  0  0  0
 13 14  1  0  0  0
 13 47  1  0  0  0
 13 48  1  0  0  0
 14 15  1  0  0  0
 14 49  1  0  0  0
 14 50  1  0  0  0
 15 16  1  0  0  0
 15 17  1  0  0  0
 16 51  1  0  0  0
 16 52  1  0  0  0
 16 53  1  0  0  0
 17 18  1  0  0  0
 17 54  1  0  0  0
 17 55  1  0  0  0
 18 56  1  0  0  0
 18 57  1  0  0  0
 19 58  1  0  0  0
 19 59  1  0  0  0
 20 21  1  0  0  0
 21 22  1  0  0  0
 22 23  2  0  0  0
 22 27  1  0  0  0
 23 24  1  0  0  0
 23 60  1  0  0  0
 24 25  2  0  0  0
 24 28  1  0  0  0
 25 26  1  0  0  0
 25 31  1  0  0  0
 26 27  2  0  0  0
 26 61  1  0  0  0
 27 62  1  0  0  0
 28 29  2  0  0  0
 29 30  1  0  0  0
 29 32  1  0  0  0
 30 31  2  0  0  0
 30 63  1  0  0  0
 31 64  1  0  0  0
 32 33  2  0  0  0
 32 37  1  0  0  0
 33 34  1  0  0  0
 33 65  1  0  0  0
 34 35  2  0  0  0
 34 66  1  0  0  0
 35 36  1  0  0  0
 35 67  1  0  0  0
 36 37  2  0  0  0
 36 68  1  0  0  0
 37 69  1  0  0  0
M  CHG  1  12   1
M  END
> <s_m_source_file>
../3d94_ligand.sdf

> <i_m_source_file_index>
1

> <s_epik_input>
W0NIMl0xW0NIMl1bTkBIK10oW0NIM10pW0NIMl1bQ0gyXVtOQEgrXTFbQ0BIXShbQ0gyXTIpW0NIMl1bQ0BIXTJjKG4oYzM0KVtjSF1bY0hdbmMzW05IMl0pbmM0LWMoW2NIXTUpW2NIXVtjSF1jKGM1NilbY0hdW2NIXWMobjYpLWM3W2NIXVtjSF1bY0hdW2NIXVtjSF03

> <s_epik_cmdline>
J2VwaWtfYXBwJywgJy1pbWFlJywgJ2xpZ2FuZF9wcm8ubWFlJywgJy1vbWFlJywgJ2xpZ2FuZF9wcmVwLm1hZScsICctbXMnLCAnMScsICctcGgnLCAnNycsICctcGh0JywgJzAuNScsICctbnQn

> <r_lp_tautomer_probability>
1

> <r_epik_Ionization_Penalty>
  0.0209

> <r_epik_Ionization_Penalty_Charging>
  0.0019

> <r_epik_Ionization_Penalty_Neutral>
  0.0190

> <r_epik_State_Penalty>
 -0.0000

> <r_epik_Charging_Adjusted_Penalty>
0.00187326520158533

> <i_epik_Tot_Q>
1

> <i_epik_Tot_abs_Q>
1

$$$$
