3d9k_ligand
                    3D
 Schrodinger Suite 2020-3.
140143  0  0  1  0            999 V2000
   15.5580    4.4890   -5.0850 N   0  3  0  0  0  0
   15.2660    5.8340   -5.6710 C   0  0  2  0  0  0
   14.7210    5.7420   -7.0950 C   0  0  0  0  0  0
   15.0710    4.8390   -7.8610 O   0  0  0  0  0  0
   16.5070    6.7420   -5.6340 C   0  0  0  0  0  0
   16.2860    8.1410   -6.2070 C   0  0  0  0  0  0
   15.6730    9.1430   -5.4540 C   0  0  0  0  0  0
   16.6840    8.4520   -7.5060 C   0  0  0  0  0  0
   15.4790   10.4150   -5.9750 C   0  0  0  0  0  0
   16.4990    9.7230   -8.0410 C   0  0  0  0  0  0
   15.8980   10.7040   -7.2720 C   0  0  0  0  0  0
   15.7170   11.9690   -7.8070 O   0  0  0  0  0  0
   13.8570    6.6900   -7.4330 N   0  0  0  0  0  0
   13.2920    6.7730   -8.7590 C   0  0  1  0  0  0
   11.8820    6.1820   -8.7850 C   0  0  0  0  0  0
   11.2400    6.4970  -10.0060 O   0  0  0  0  0  0
   13.2710    8.2280   -9.1590 C   0  0  0  0  0  0
   12.7710    9.0630   -8.4020 O   0  0  0  0  0  0
   10.9540    5.1880  -10.9020 P   0  0  0  0  0  0
   10.5000    5.6730  -12.3610 O   0  0  0  0  0  0
   12.2940    4.2950  -11.0350 O   0  5  0  0  0  0
    9.7610    4.3240  -10.2500 O   0  5  0  0  0  0
   13.8380    8.5480  -10.3430 N   0  0  0  0  0  0
   13.8720    9.9290  -10.8540 C   0  0  2  0  0  0
   12.4900   10.5060  -11.2110 C   0  0  0  0  0  0
   12.3930   11.6920  -11.5360 O   0  0  0  0  0  0
   14.7650    9.8170  -12.0970 C   0  0  0  0  0  0
   14.6350    8.3860  -12.5300 C   0  0  0  0  0  0
   14.5060    7.6040  -11.2630 C   0  0  0  0  0  0
   11.4430    9.6800  -11.1510 N   0  0  0  0  0  0
   10.0550   10.1560  -11.3160 C   0  0  2  0  0  0
    9.3260   10.3570   -9.9800 C   0  0  0  0  0  0
    8.1850   10.8250   -9.9620 O   0  0  0  0  0  0
    9.1950    9.2060  -12.1940 C   0  0  2  0  0  0
    9.2940    7.8670  -11.6960 O   0  0  0  0  0  0
    9.6330    9.2430  -13.6470 C   0  0  0  0  0  0
    9.9860   10.0000   -8.8730 N   0  0  0  0  0  0
    9.3690   10.0380   -7.5390 C   0  0  1  0  0  0
   10.1080    9.1010   -6.5600 C   0  0  0  0  0  0
    9.2770    8.8820   -5.4060 O   0  0  0  0  0  0
    9.3270   11.4520   -6.9550 C   0  0  0  0  0  0
   10.3780   12.0790   -6.7960 O   0  0  0  0  0  0
    8.9370    7.2440   -5.3570 P   0  0  0  0  0  0
    8.4250    6.6850   -6.8440 O   0  5  0  0  0  0
   10.2810    6.4490   -4.8530 O   0  0  0  0  0  0
    7.5580    6.9840   -4.2840 O   0  5  0  0  0  0
    8.1090   11.9450   -6.6210 N   0  0  0  0  0  0
    7.8770   13.3000   -6.0890 C   0  0  2  0  0  0
    8.8830   13.7450   -5.0170 C   0  0  0  0  0  0
    9.2180   12.9670   -4.1160 O   0  0  0  0  0  0
    6.4690   13.2000   -5.4880 C   0  0  0  0  0  0
    5.7800   12.1840   -6.3320 C   0  0  0  0  0  0
    6.8440   11.1920   -6.7610 C   0  0  0  0  0  0
    9.3540   14.9890   -5.1340 N   0  0  0  0  0  0
   10.2820   15.5940   -4.1740 C   0  0  2  0  0  0
    9.6820   15.6670   -2.7750 C   0  0  0  0  0  0
    8.4730   15.8720   -2.6230 O   0  0  0  0  0  0
   10.6710   16.9980   -4.6330 C   0  0  0  0  0  0
   11.3010   16.9580   -5.8990 O   0  0  0  0  0  0
   10.5290   15.5060   -1.7590 N   0  0  0  0  0  0
   10.0670   15.4920   -0.3670 C   0  0  2  0  0  0
    9.4860   16.8390    0.0670 C   0  0  0  0  0  0
    9.8870   17.8930   -0.4370 O   0  0  0  0  0  0
   11.1680   14.9950    0.6000 C   0  0  0  0  0  0
   12.2520   15.9990    0.9640 C   0  0  0  0  0  0
   12.0050   17.0250    1.8830 C   0  0  0  0  0  0
   13.5370   15.8970    0.4260 C   0  0  0  0  0  0
   12.9960   17.9460    2.2290 C   0  0  0  0  0  0
   14.5430   16.8140    0.7710 C   0  0  0  0  0  0
   14.2610   17.8400    1.6680 C   0  0  0  0  0  0
   15.2350   18.7540    2.0210 O   0  0  0  0  0  0
    8.5320   16.7930    0.9930 N   0  0  0  0  0  0
    7.8950   17.9990    1.5020 C   0  0  1  0  0  0
    6.4520   17.7080    1.9070 C   0  0  0  0  0  0
    5.7730   18.9070    2.2320 O   0  0  0  0  0  0
    8.6750   18.5730    2.6800 C   0  0  0  0  0  0
    9.6460   19.3050    2.4930 O   0  0  0  0  0  0
    4.4640   19.0990    1.3080 P   0  0  0  0  0  0
    3.8780   20.5800    1.5490 O   0  0  0  0  0  0
    4.8510   18.9110   -0.2490 O   0  5  0  0  0  0
    3.3370   18.0280    1.7340 O   0  5  0  0  0  0
   14.6522    3.8663   -5.1269 H   0  0  0  0  0  0
   15.8744    4.6061   -4.0380 H   0  0  0  0  0  0
   16.3621    4.0056   -5.6592 H   0  0  0  0  0  0
   14.4771    6.2564   -5.0314 H   0  0  0  0  0  0
   16.8357    6.8714   -4.5923 H   0  0  0  0  0  0
   17.3163    6.2809   -6.2192 H   0  0  0  0  0  0
   15.3408    8.9233   -4.4394 H   0  0  0  0  0  0
   17.1517    7.6806   -8.1178 H   0  0  0  0  0  0
   15.0001   11.1857   -5.3710 H   0  0  0  0  0  0
   16.8248    9.9442   -9.0574 H   0  0  0  0  0  0
   15.2405   12.7574   -7.2058 H   0  0  0  0  0  0
   13.5735    7.4270   -6.6672 H   0  0  0  0  0  0
   13.9387    6.1898   -9.4311 H   0  0  0  0  0  0
   11.9409    5.0884   -8.6819 H   0  0  0  0  0  0
   11.2948    6.5976   -7.9529 H   0  0  0  0  0  0
   14.2515   10.5936  -10.0639 H   0  0  0  0  0  0
   14.4062   10.5124  -12.8701 H   0  0  0  0  0  0
   15.8011   10.0704  -11.8282 H   0  0  0  0  0  0
   13.7446    8.2749  -13.1663 H   0  0  0  0  0  0
   15.5302    8.0918  -13.0975 H   0  0  0  0  0  0
   15.4827    7.3159  -10.8471 H   0  0  0  0  0  0
   13.8808    6.7073  -11.3858 H   0  0  0  0  0  0
   11.6409    8.6129  -10.9719 H   0  0  0  0  0  0
   10.2142   11.1262  -11.8094 H   0  0  0  0  0  0
    8.1299    9.4744  -12.1353 H   0  0  0  0  0  0
    9.0168    7.6455  -10.6548 H   0  0  0  0  0  0
    9.5560   10.2724  -14.0270 H   0  0  0  0  0  0
    8.9849    8.5829  -14.2422 H   0  0  0  0  0  0
   10.6754    8.9005  -13.7245 H   0  0  0  0  0  0
   11.0286    9.6686   -8.9875 H   0  0  0  0  0  0
    8.3397    9.6941   -7.7184 H   0  0  0  0  0  0
   10.3147    8.1414   -7.0564 H   0  0  0  0  0  0
   11.0560    9.5663   -6.2522 H   0  0  0  0  0  0
    7.9990   14.0246   -6.9076 H   0  0  0  0  0  0
    6.5406   12.8826   -4.4372 H   0  0  0  0  0  0
    5.9768   14.1823   -5.5416 H   0  0  0  0  0  0
    4.9945   11.6890   -5.7421 H   0  0  0  0  0  0
    5.3271   12.6780   -7.2042 H   0  0  0  0  0  0
    6.7194   10.8759   -7.8072 H   0  0  0  0  0  0
    6.8713   10.3052   -6.1108 H   0  0  0  0  0  0
    9.0107   15.5658   -6.0055 H   0  0  0  0  0  0
   11.1553   14.9254   -4.1587 H   0  0  0  0  0  0
    9.7687   17.6229   -4.7063 H   0  0  0  0  0  0
   11.3664   17.4421   -3.9056 H   0  0  0  0  0  0
   11.6438   17.8899   -6.3724 H   0  0  0  0  0  0
   11.5984   15.3817   -1.9849 H   0  0  0  0  0  0
    9.2412   14.7654   -0.3746 H   0  0  0  0  0  0
   10.7091   14.6884    1.5515 H   0  0  0  0  0  0
   11.6900   14.1370    0.1514 H   0  0  0  0  0  0
   11.0181   17.1070    2.3384 H   0  0  0  0  0  0
   13.7627   15.0920   -0.2734 H   0  0  0  0  0  0
   12.7768   18.7452    2.9371 H   0  0  0  0  0  0
   15.5394   16.7227    0.3386 H   0  0  0  0  0  0
   15.0007   19.5609    2.7310 H   0  0  0  0  0  0
    8.2274   15.8072    1.3744 H   0  0  0  0  0  0
    7.9152   18.7158    0.6679 H   0  0  0  0  0  0
    5.9288   17.2177    1.0728 H   0  0  0  0  0  0
    6.4441   17.0453    2.7850 H   0  0  0  0  0  0
    8.3614   18.3264    3.7051 H   0  0  0  0  0  0
  1  2  1  0  0  0
  1 82  1  0  0  0
  1 83  1  0  0  0
  1 84  1  0  0  0
  2  3  1  0  0  0
  2  5  1  0  0  0
  2 85  1  0  0  0
  3  4  2  0  0  0
  3 13  1  0  0  0
  5  6  1  0  0  0
  5 86  1  0  0  0
  5 87  1  0  0  0
  6  7  2  0  0  0
  6  8  1  0  0  0
  7  9  1  0  0  0
  7 88  1  0  0  0
  8 10  2  0  0  0
  8 89  1  0  0  0
  9 11  2  0  0  0
  9 90  1  0  0  0
 10 11  1  0  0  0
 10 91  1  0  0  0
 11 12  1  0  0  0
 12 92  1  0  0  0
 13 14  1  0  0  0
 13 93  1  0  0  0
 14 15  1  0  0  0
 14 17  1  0  0  0
 14 94  1  0  0  0
 15 16  1  0  0  0
 15 95  1  0  0  0
 15 96  1  0  0  0
 16 19  1  0  0  0
 17 18  2  0  0  0
 17 23  1  0  0  0
 19 20  2  0  0  0
 19 21  1  0  0  0
 19 22  1  0  0  0
 23 24  1  0  0  0
 23 29  1  0  0  0
 24 25  1  0  0  0
 24 27  1  0  0  0
 24 97  1  0  0  0
 25 26  2  0  0  0
 25 30  1  0  0  0
 27 28  1  0  0  0
 27 98  1  0  0  0
 27 99  1  0  0  0
 28 29  1  0  0  0
 28100  1  0  0  0
 28101  1  0  0  0
 29102  1  0  0  0
 29103  1  0  0  0
 30 31  1  0  0  0
 30104  1  0  0  0
 31 32  1  0  0  0
 31 34  1  0  0  0
 31105  1  0  0  0
 32 33  2  0  0  0
 32 37  1  0  0  0
 34 35  1  0  0  0
 34 36  1  0  0  0
 34106  1  0  0  0
 35107  1  0  0  0
 36108  1  0  0  0
 36109  1  0  0  0
 36110  1  0  0  0
 37 38  1  0  0  0
 37111  1  0  0  0
 38 39  1  0  0  0
 38 41  1  0  0  0
 38112  1  0  0  0
 39 40  1  0  0  0
 39113  1  0  0  0
 39114  1  0  0  0
 40 43  1  0  0  0
 41 42  2  0  0  0
 41 47  1  0  0  0
 43 44  1  0  0  0
 43 45  2  0  0  0
 43 46  1  0  0  0
 47 48  1  0  0  0
 47 53  1  0  0  0
 48 49  1  0  0  0
 48 51  1  0  0  0
 48115  1  0  0  0
 49 50  2  0  0  0
 49 54  1  0  0  0
 51 52  1  0  0  0
 51116  1  0  0  0
 51117  1  0  0  0
 52 53  1  0  0  0
 52118  1  0  0  0
 52119  1  0  0  0
 53120  1  0  0  0
 53121  1  0  0  0
 54 55  1  0  0  0
 54122  1  0  0  0
 55 56  1  0  0  0
 55 58  1  0  0  0
 55123  1  0  0  0
 56 57  2  0  0  0
 56 60  1  0  0  0
 58 59  1  0  0  0
 58124  1  0  0  0
 58125  1  0  0  0
 59126  1  0  0  0
 60 61  1  0  0  0
 60127  1  0  0  0
 61 62  1  0  0  0
 61 64  1  0  0  0
 61128  1  0  0  0
 62 63  2  0  0  0
 62 72  1  0  0  0
 64 65  1  0  0  0
 64129  1  0  0  0
 64130  1  0  0  0
 65 66  2  0  0  0
 65 67  1  0  0  0
 66 68  1  0  0  0
 66131  1  0  0  0
 67 69  2  0  0  0
 67132  1  0  0  0
 68 70  2  0  0  0
 68133  1  0  0  0
 69 70  1  0  0  0
 69134  1  0  0  0
 70 71  1  0  0  0
 71135  1  0  0  0
 72 73  1  0  0  0
 72136  1  0  0  0
 73 74  1  0  0  0
 73 76  1  0  0  0
 73137  1  0  0  0
 74 75  1  0  0  0
 74138  1  0  0  0
 74139  1  0  0  0
 75 78  1  0  0  0
 76 77  2  0  0  0
 76140  1  0  0  0
 78 79  2  0  0  0
 78 80  1  0  0  0
 78 81  1  0  0  0
M  CHG  7   1   1  21  -1  22  -1  44  -1  46  -1  80  -1  81  -1
M  END
> <s_m_source_file>
../3d9k_ligand.sdf

> <i_m_source_file_index>
1

> <s_epik_input>
W2NIXTFbY0hdYyhbT0hdKVtjSF1bY0hdYzFbQ0gyXVtDQEhdKFtOSDMrXSlDKD1PKVtOSF1bQ0BASF0oW0NIMl1PUCg9TykoW09IXSlbT0hdKUMoPU8pTjJbQ0BASF0oW0NIMl1bQ0gyXVtDSDJdMilDKD1PKVtOSF1bQ0BASF0oW0NASF0oW09IXSlbQ0gzXSlDKD1PKVtOSF1bQ0BASF0oW0NIMl1PUCg9TykoW09IXSlbT0hdKUMoPU8pTjNbQ0BASF0oW0NIMl1bQ0gyXVtDSDJdMylDKD1PKVtOSF1bQ0BASF0oW0NIMl1bT0hdKUMoPU8pW05IXVtDQEhdKEMoPU8pW05IXVtDQEhdKFtDSF09TylbQ0gyXU9QKD1PKShbT0hdKVtPSF0pW0NIMl1jNFtjSF1bY0hdYyhbT0hdKVtjSF1bY0hdNA==

> <s_epik_cmdline>
J2VwaWtfYXBwJywgJy1pbWFlJywgJ2xpZ2FuZF9wcm8ubWFlJywgJy1vbWFlJywgJ2xpZ2FuZF9wcmVwLm1hZScsICctbXMnLCAnMScsICctcGgnLCAnNycsICctcGh0JywgJzAuNScsICctbnQn

> <r_lp_tautomer_probability>
0.99990000499448

> <r_epik_Ionization_Penalty>
  0.4752

> <r_epik_Ionization_Penalty_Charging>
  0.4667

> <r_epik_Ionization_Penalty_Neutral>
  0.0085

> <r_epik_State_Penalty>
  0.1339

> <r_epik_Charging_Adjusted_Penalty>
0.600632784237706

> <i_epik_Tot_Q>
-5

> <i_epik_Tot_abs_Q>
7

$$$$
