3d9l_ligand
                    3D
 Schrodinger Suite 2020-3.
155159  0  0  1  0            999 V2000
   31.2670    4.4640   11.5340 N   0  3  0  0  0  0
   32.1520    3.4510   12.1590 C   0  0  2  0  0  0
   31.6770    3.0750   13.5490 C   0  0  0  0  0  0
   31.2120    3.9220   14.3280 O   0  0  0  0  0  0
   33.6050    3.9140   12.2160 C   0  0  0  0  0  0
   34.5570    2.8400   12.7240 C   0  0  0  0  0  0
   35.0760    1.8580   11.8630 C   0  0  0  0  0  0
   34.9340    2.8030   14.0600 C   0  0  0  0  0  0
   35.9490    0.8670   12.3450 C   0  0  0  0  0  0
   35.7960    1.8440   14.5400 C   0  0  0  0  0  0
   36.2980    0.8830   13.6880 C   0  0  0  0  0  0
   37.1510   -0.0460   14.1990 O   0  0  0  0  0  0
   31.7740    1.7810   13.8190 N   0  0  0  0  0  0
   31.4980    1.2100   15.1080 C   0  0  1  0  0  0
   30.2530    0.3440   15.0570 C   0  0  0  0  0  0
   30.2010   -0.4730   16.2050 O   0  0  0  0  0  0
   32.6920    0.3550   15.4960 C   0  0  0  0  0  0
   33.2020   -0.4130   14.6670 O   0  0  0  0  0  0
   28.8770   -0.1990   17.1060 P   0  0  0  0  0  0
   28.9290   -1.2840   18.2960 O   0  0  0  0  0  0
   28.8820    1.2780   17.7130 O   0  0  0  0  0  0
   27.5470   -0.4270   16.2210 O   0  0  0  0  0  0
   33.1430    0.4860   16.7590 N   0  0  0  0  0  0
   34.2660   -0.2930   17.2780 C   0  0  2  0  0  0
   33.9660   -1.7900   17.4760 C   0  0  0  0  0  0
   34.8460   -2.5470   17.8950 O   0  0  0  0  0  0
   34.5860    0.4090   18.6020 C   0  0  0  0  0  0
   33.2600    0.9850   19.0390 C   0  0  0  0  0  0
   32.6090    1.4260   17.7630 C   0  0  0  0  0  0
   32.7420   -2.2120   17.1650 N   0  0  0  0  0  0
   32.4060   -3.6350   17.1590 C   0  0  2  0  0  0
   32.2140   -4.1850   15.7500 C   0  0  0  0  0  0
   31.9050   -5.3600   15.5940 O   0  0  0  0  0  0
   31.1360   -3.9630   17.9680 C   0  0  2  0  0  0
   30.0120   -3.2620   17.4180 O   0  0  0  0  0  0
   31.3160   -3.6240   19.4450 C   0  0  0  0  0  0
   32.3940   -3.3490   14.7290 N   0  0  0  0  0  0
   32.1260   -3.7740   13.3570 C   0  0  2  0  0  0
   33.0930   -4.8800   12.9460 C   0  0  0  0  0  0
   34.2620   -4.8490   13.3370 O   0  0  0  0  0  0
   32.2390   -2.6000   12.3990 C   0  0  0  0  0  0
   33.5650   -2.1340   12.3720 O   0  0  0  0  0  0
   32.6080   -5.8730   12.1700 N   0  0  0  0  0  0
   33.5020   -6.9590   11.7520 C   0  0  2  0  0  0
   34.7050   -6.4750   10.9320 C   0  0  0  0  0  0
   34.5880   -5.5260   10.1370 O   0  0  0  0  0  0
   32.5980   -7.8650   10.9140 C   0  0  0  0  0  0
   31.4020   -7.0320   10.5640 C   0  0  0  0  0  0
   31.2310   -6.0660   11.6820 C   0  0  0  0  0  0
   35.8570   -7.1050   11.1570 N   0  0  0  0  0  0
   37.0490   -6.8530   10.3420 C   0  0  2  0  0  0
   36.8920   -7.4730    8.9450 C   0  0  0  0  0  0
   36.1420   -8.4510    8.7870 O   0  0  0  0  0  0
   38.2910   -7.4000   11.0430 C   0  0  0  0  0  0
   38.7120   -6.5120   12.0640 O   0  0  0  0  0  0
   37.5600   -6.9040    7.9360 N   0  0  0  0  0  0
   37.4520   -7.4510    6.5710 C   0  0  2  0  0  0
   38.3540   -8.6770    6.3610 C   0  0  0  0  0  0
   39.4220   -8.7760    6.9490 O   0  0  0  0  0  0
   37.6230   -6.3780    5.4630 C   0  0  0  0  0  0
   38.9890   -5.7050    5.3860 C   0  0  0  0  0  0
   40.0660   -6.3420    4.7620 C   0  0  0  0  0  0
   39.1940   -4.4180    5.9080 C   0  0  0  0  0  0
   41.3180   -5.7340    4.6800 C   0  0  0  0  0  0
   40.4550   -3.7990    5.8390 C   0  0  0  0  0  0
   41.5130   -4.4770    5.2250 C   0  0  0  0  0  0
   42.7700   -3.9160    5.1320 O   0  0  0  0  0  0
   37.8870   -9.6250    5.5520 N   0  0  0  0  0  0
   38.6480  -10.8440    5.2420 C   0  0  1  0  0  0
   38.5110  -11.8980    6.3600 C   0  0  0  0  0  0
   37.3360  -12.6760    6.2230 O   0  0  0  0  0  0
   38.1930  -11.3850    3.8890 C   0  0  0  0  0  0
   37.1840  -10.9160    3.3620 O   0  0  0  0  0  0
   37.3590  -13.9640    7.2050 P   0  0  0  0  0  0
   36.8440  -13.4830    8.6470 O   0  0  0  0  0  0
   36.4060  -15.1300    6.6250 O   0  0  0  0  0  0
   38.8600  -14.5600    7.3240 O   0  0  0  0  0  0
   38.9420  -12.3550    3.3120 N   0  0  0  0  0  0
   38.5730  -12.9380    2.0250 C   0  0  2  0  0  0
   37.3780  -13.8750    2.1480 C   0  0  0  0  0  0
   36.2900  -13.5490    1.6810 O   0  0  0  0  0  0
   39.8180  -13.7450    1.6340 C   0  0  0  0  0  0
   40.8980  -13.2930    2.5480 C   0  0  0  0  0  0
   40.1930  -12.9440    3.8120 C   0  0  0  0  0  0
   30.2339    4.0868   11.5154 H   0  0  0  0  0  0
   31.6041    4.6608   10.5056 H   0  0  0  0  0  0
   31.3067    5.3956   12.1176 H   0  0  0  0  0  0
   32.0777    2.5719   11.5020 H   0  0  0  0  0  0
   33.9375    4.2030   11.2081 H   0  0  0  0  0  0
   33.6882    4.7782   12.8914 H   0  0  0  0  0  0
   34.7984    1.8648   10.8090 H   0  0  0  0  0  0
   34.5373    3.5521   14.7453 H   0  0  0  0  0  0
   36.3438    0.1014   11.6771 H   0  0  0  0  0  0
   36.0816    1.8439   15.5919 H   0  0  0  0  0  0
   37.5695   -0.8264   13.5464 H   0  0  0  0  0  0
   32.0863    1.1338   12.9862 H   0  0  0  0  0  0
   31.3341    2.0479   15.8016 H   0  0  0  0  0  0
   29.3607    0.9864   15.0235 H   0  0  0  0  0  0
   30.2831   -0.2889   14.1578 H   0  0  0  0  0  0
   29.7695   -1.2822   19.0056 H   0  0  0  0  0  0
   27.3760   -1.3933   15.7240 H   0  0  0  0  0  0
   35.0798   -0.2812   16.5380 H   0  0  0  0  0  0
   34.9763   -0.3257   19.3216 H   0  0  0  0  0  0
   35.3410    1.1903   18.4297 H   0  0  0  0  0  0
   32.6745    0.2085   19.5531 H   0  0  0  0  0  0
   33.4342    1.8271   19.7249 H   0  0  0  0  0  0
   32.8854    2.4541   17.4863 H   0  0  0  0  0  0
   31.5131    1.3386   17.8008 H   0  0  0  0  0  0
   31.9762   -1.4650   16.9090 H   0  0  0  0  0  0
   33.3004   -4.0679   17.6308 H   0  0  0  0  0  0
   30.8819   -5.0293   17.8760 H   0  0  0  0  0  0
   29.7443   -3.3964   16.3596 H   0  0  0  0  0  0
   32.1821   -4.1722   19.8441 H   0  0  0  0  0  0
   30.4115   -3.9129   20.0004 H   0  0  0  0  0  0
   31.4841   -2.5425   19.5551 H   0  0  0  0  0  0
   32.7491   -2.3273   14.9289 H   0  0  0  0  0  0
   31.0929   -4.1518   13.3547 H   0  0  0  0  0  0
   31.9457   -2.9216   11.3888 H   0  0  0  0  0  0
   31.5750   -1.7890   12.7329 H   0  0  0  0  0  0
   33.8360   -1.2831   11.7298 H   0  0  0  0  0  0
   33.9305   -7.4372   12.6451 H   0  0  0  0  0  0
   33.1380   -8.1886   10.0120 H   0  0  0  0  0  0
   32.3121   -8.7467   11.5063 H   0  0  0  0  0  0
   31.5844   -6.5099    9.6131 H   0  0  0  0  0  0
   30.5199   -7.6813   10.4624 H   0  0  0  0  0  0
   30.6069   -6.4668   12.4943 H   0  0  0  0  0  0
   30.8220   -5.1013   11.3473 H   0  0  0  0  0  0
   35.8981   -7.8319   11.9816 H   0  0  0  0  0  0
   37.1314   -5.7599   10.2503 H   0  0  0  0  0  0
   38.0586   -8.3773   11.4911 H   0  0  0  0  0  0
   39.1039   -7.5162   10.3111 H   0  0  0  0  0  0
   39.5966   -6.7527   12.6720 H   0  0  0  0  0  0
   38.1920   -6.0243    8.1276 H   0  0  0  0  0  0
   36.4093   -7.7989    6.5295 H   0  0  0  0  0  0
   37.4543   -6.8379    4.4781 H   0  0  0  0  0  0
   36.8938   -5.5695    5.6198 H   0  0  0  0  0  0
   39.9240   -7.3332    4.3313 H   0  0  0  0  0  0
   38.3623   -3.8899    6.3744 H   0  0  0  0  0  0
   42.1428   -6.2485    4.1869 H   0  0  0  0  0  0
   40.6057   -2.8043    6.2584 H   0  0  0  0  0  0
   43.5851   -4.4705    4.6440 H   0  0  0  0  0  0
   36.8919   -9.4704    5.1094 H   0  0  0  0  0  0
   39.7063  -10.5499    5.1833 H   0  0  0  0  0  0
   39.3753  -12.5778    6.3309 H   0  0  0  0  0  0
   38.4739  -11.3937    7.3369 H   0  0  0  0  0  0
   35.3352  -14.9362    6.4645 H   0  0  0  0  0  0
   39.6754  -13.9255    7.7016 H   0  0  0  0  0  0
   38.2850  -12.1401    1.3247 H   0  0  0  0  0  0
   37.4904  -14.8443    2.6557 H   0  0  0  0  0  0
   39.6132  -14.8185    1.7590 H   0  0  0  0  0  0
   40.0728  -13.5402    0.5837 H   0  0  0  0  0  0
   41.6211  -14.1091    2.6929 H   0  0  0  0  0  0
   41.4095  -12.4235    2.1095 H   0  0  0  0  0  0
   40.7333  -12.1996    4.4153 H   0  0  0  0  0  0
   39.9623  -13.8219    4.4333 H   0  0  0  0  0  0
  1  2  1  0  0  0
  1 85  1  0  0  0
  1 86  1  0  0  0
  1 87  1  0  0  0
  2  3  1  0  0  0
  2  5  1  0  0  0
  2 88  1  0  0  0
  3  4  2  0  0  0
  3 13  1  0  0  0
  5  6  1  0  0  0
  5 89  1  0  0  0
  5 90  1  0  0  0
  6  7  2  0  0  0
  6  8  1  0  0  0
  7  9  1  0  0  0
  7 91  1  0  0  0
  8 10  2  0  0  0
  8 92  1  0  0  0
  9 11  2  0  0  0
  9 93  1  0  0  0
 10 11  1  0  0  0
 10 94  1  0  0  0
 11 12  1  0  0  0
 12 95  1  0  0  0
 13 14  1  0  0  0
 13 96  1  0  0  0
 14 15  1  0  0  0
 14 17  1  0  0  0
 14 97  1  0  0  0
 15 16  1  0  0  0
 15 98  1  0  0  0
 15 99  1  0  0  0
 16 19  1  0  0  0
 17 18  2  0  0  0
 17 23  1  0  0  0
 19 20  1  0  0  0
 19 21  2  0  0  0
 19 22  1  0  0  0
 20100  1  0  0  0
 22101  1  0  0  0
 23 24  1  0  0  0
 23 29  1  0  0  0
 24 25  1  0  0  0
 24 27  1  0  0  0
 24102  1  0  0  0
 25 26  2  0  0  0
 25 30  1  0  0  0
 27 28  1  0  0  0
 27103  1  0  0  0
 27104  1  0  0  0
 28 29  1  0  0  0
 28105  1  0  0  0
 28106  1  0  0  0
 29107  1  0  0  0
 29108  1  0  0  0
 30 31  1  0  0  0
 30109  1  0  0  0
 31 32  1  0  0  0
 31 34  1  0  0  0
 31110  1  0  0  0
 32 33  2  0  0  0
 32 37  1  0  0  0
 34 35  1  0  0  0
 34 36  1  0  0  0
 34111  1  0  0  0
 35112  1  0  0  0
 36113  1  0  0  0
 36114  1  0  0  0
 36115  1  0  0  0
 37 38  1  0  0  0
 37116  1  0  0  0
 38 39  1  0  0  0
 38 41  1  0  0  0
 38117  1  0  0  0
 39 40  2  0  0  0
 39 43  1  0  0  0
 41 42  1  0  0  0
 41118  1  0  0  0
 41119  1  0  0  0
 42120  1  0  0  0
 43 44  1  0  0  0
 43 49  1  0  0  0
 44 45  1  0  0  0
 44 47  1  0  0  0
 44121  1  0  0  0
 45 46  2  0  0  0
 45 50  1  0  0  0
 47 48  1  0  0  0
 47122  1  0  0  0
 47123  1  0  0  0
 48 49  1  0  0  0
 48124  1  0  0  0
 48125  1  0  0  0
 49126  1  0  0  0
 49127  1  0  0  0
 50 51  1  0  0  0
 50128  1  0  0  0
 51 52  1  0  0  0
 51 54  1  0  0  0
 51129  1  0  0  0
 52 53  2  0  0  0
 52 56  1  0  0  0
 54 55  1  0  0  0
 54130  1  0  0  0
 54131  1  0  0  0
 55132  1  0  0  0
 56 57  1  0  0  0
 56133  1  0  0  0
 57 58  1  0  0  0
 57 60  1  0  0  0
 57134  1  0  0  0
 58 59  2  0  0  0
 58 68  1  0  0  0
 60 61  1  0  0  0
 60135  1  0  0  0
 60136  1  0  0  0
 61 62  2  0  0  0
 61 63  1  0  0  0
 62 64  1  0  0  0
 62137  1  0  0  0
 63 65  2  0  0  0
 63138  1  0  0  0
 64 66  2  0  0  0
 64139  1  0  0  0
 65 66  1  0  0  0
 65140  1  0  0  0
 66 67  1  0  0  0
 67141  1  0  0  0
 68 69  1  0  0  0
 68142  1  0  0  0
 69 70  1  0  0  0
 69 72  1  0  0  0
 69143  1  0  0  0
 70 71  1  0  0  0
 70144  1  0  0  0
 70145  1  0  0  0
 71 74  1  0  0  0
 72 73  2  0  0  0
 72 78  1  0  0  0
 74 75  2  0  0  0
 74 76  1  0  0  0
 74 77  1  0  0  0
 76146  1  0  0  0
 77147  1  0  0  0
 78 79  1  0  0  0
 78 84  1  0  0  0
 79 80  1  0  0  0
 79 82  1  0  0  0
 79148  1  0  0  0
 80 81  2  0  0  0
 80149  1  0  0  0
 82 83  1  0  0  0
 82150  1  0  0  0
 82151  1  0  0  0
 83 84  1  0  0  0
 83152  1  0  0  0
 83153  1  0  0  0
 84154  1  0  0  0
 84155  1  0  0  0
M  CHG  1   1   1
M  END
> <s_m_source_file>
../3d9l_ligand.sdf

> <i_m_source_file_index>
1

> <s_epik_input>
W2NIXTFbY0hdYyhbT0hdKVtjSF1bY0hdYzFbQ0gyXVtDQEhdKFtOSDMrXSlDKD1PKVtOSF1bQ0BASF0oW0NIMl1PUCg9TykoW09IXSlbT0hdKUMoPU8pTjJbQ0BASF0oW0NIMl1bQ0gyXVtDSDJdMilDKD1PKVtOSF1bQ0BASF0oW0NASF0oW09IXSlbQ0gzXSlDKD1PKVtOSF1bQ0BASF0oW0NIMl1bT0hdKUMoPU8pTjNbQ0BASF0oW0NIMl1bQ0gyXVtDSDJdMylDKD1PKVtOSF1bQ0BASF0oW0NIMl1bT0hdKUMoPU8pW05IXVtDQEBIXShbQ0gyXWM0W2NIXVtjSF1jKFtPSF0pW2NIXVtjSF00KUMoPU8pW05IXVtDQEBIXShbQ0gyXU9QKD1PKShbT0hdKVtPSF0pQyg9TylONVtDQEhdKFtDSF09TylbQ0gyXVtDSDJdW0NIMl01

> <s_epik_cmdline>
J2VwaWtfYXBwJywgJy1pbWFlJywgJ2xpZ2FuZF9wcm8ubWFlJywgJy1vbWFlJywgJ2xpZ2FuZF9wcmVwLm1hZScsICctbXMnLCAnMScsICctcGgnLCAnNycsICctcGh0JywgJzAuNScsICctbnQn

> <s_epik_pKa_notes>
Molecule size exceeds maximum supported for generating protonation states

$$$$
