3d9m_ligand
                    3D
 Schrodinger Suite 2020-3.
102104  0  0  1  0            999 V2000
   16.0580    4.9550   -4.9350 N   0  3  0  0  0  0
   15.8740    6.2390   -5.5820 C   0  0  2  0  0  0
   15.5870    6.0720   -7.0620 C   0  0  0  0  0  0
   16.2380    5.2820   -7.7450 O   0  0  0  0  0  0
   17.1030    7.1260   -5.3930 C   0  0  0  0  0  0
   16.9170    8.5010   -6.0040 C   0  0  0  0  0  0
   16.2840    9.5180   -5.2940 C   0  0  0  0  0  0
   17.3420    8.7690   -7.3050 C   0  0  0  0  0  0
   16.1050   10.7800   -5.8510 C   0  0  0  0  0  0
   17.1610   10.0360   -7.8790 C   0  0  0  0  0  0
   16.5440   11.0320   -7.1430 C   0  0  0  0  0  0
   16.3610   12.2780   -7.7020 O   0  0  0  0  0  0
   14.5980    6.8240   -7.5340 N   0  0  0  0  0  0
   14.3030    6.9430   -8.9520 C   0  0  2  0  0  0
   14.2540    8.4190   -9.3650 C   0  0  0  0  0  0
   13.6610    9.2380   -8.6570 O   0  0  0  0  0  0
   12.9670    6.2820   -9.2740 C   0  0  0  0  0  0
   12.4900    6.6910  -10.5450 O   0  0  0  0  0  0
   14.8300    8.7540  -10.5370 N   0  0  0  0  0  0
   14.7470   10.1460  -11.0040 C   0  0  2  0  0  0
   13.3360   10.5600  -11.4690 C   0  0  0  0  0  0
   13.1240   11.7220  -11.8150 O   0  0  0  0  0  0
   15.7080   10.1720  -12.2030 C   0  0  0  0  0  0
   15.6660    8.7640  -12.7320 C   0  0  0  0  0  0
   15.5420    7.8870  -11.5020 C   0  0  0  0  0  0
   12.3900    9.6170  -11.4910 N   0  0  0  0  0  0
   11.0000    9.9200  -11.8500 C   0  0  2  0  0  0
   10.1390   10.2500  -10.6230 C   0  0  0  0  0  0
    8.9670   10.6250  -10.7550 O   0  0  0  0  0  0
   10.3430    8.7480  -12.6070 C   0  0  2  0  0  0
   10.2270    7.6160  -11.7360 O   0  0  0  0  0  0
   11.1630    8.3660  -13.8330 C   0  0  0  0  0  0
   10.7210   10.0980   -9.4350 N   0  0  0  0  0  0
    9.9990   10.3230   -8.1800 C   0  0  1  0  0  0
   10.6270    9.4880   -7.0640 C   0  0  0  0  0  0
    9.7490    9.3470   -5.9610 O   0  0  0  0  0  0
    9.9950   11.8040   -7.7830 C   0  0  0  0  0  0
   11.0200   12.4770   -7.9270 O   0  0  0  0  0  0
    9.6690    7.7890   -5.5490 P   0  0  0  0  0  0
    8.4490    7.0890   -6.3350 O   0  5  0  0  0  0
   11.0570    7.0610   -5.9520 O   0  5  0  0  0  0
    9.4140    7.6770   -3.9630 O   0  0  0  0  0  0
    8.8450   12.3140   -7.2840 N   0  0  0  0  0  0
    8.7270   13.7020   -6.8130 C   0  0  2  0  0  0
    9.6920   14.0760   -5.6790 C   0  0  0  0  0  0
   10.2110   13.1980   -4.9870 O   0  0  0  0  0  0
    7.2780   13.7790   -6.3060 C   0  0  0  0  0  0
    6.5640   12.6990   -7.0250 C   0  0  0  0  0  0
    7.5610   11.5940   -7.1650 C   0  0  0  0  0  0
    9.9170   15.3770   -5.5030 N   0  0  0  0  0  0
   10.7730   15.8980   -4.4330 C   0  0  2  0  0  0
   10.0440   15.9330   -3.0900 C   0  0  0  0  0  0
    9.2789   16.8873   -2.7873 O   0  0  0  0  0  0
   11.3030   17.2910   -4.7960 C   0  0  0  0  0  0
   12.1910   17.2230   -5.9010 O   0  0  0  0  0  0
   10.2112   14.9904   -2.2707 O   0  5  0  0  0  0
   15.1608    4.3366   -5.0857 H   0  0  0  0  0  0
   16.2218    5.1073   -3.8580 H   0  0  0  0  0  0
   16.9310    4.4468   -5.3704 H   0  0  0  0  0  0
   14.9983    6.6776   -5.0812 H   0  0  0  0  0  0
   17.3012    7.2538   -4.3186 H   0  0  0  0  0  0
   17.9731    6.6541   -5.8728 H   0  0  0  0  0  0
   15.9226    9.3218   -4.2845 H   0  0  0  0  0  0
   17.8226    7.9812   -7.8851 H   0  0  0  0  0  0
   15.6214   11.5685   -5.2744 H   0  0  0  0  0  0
   17.5030   10.2340   -8.8948 H   0  0  0  0  0  0
   15.8712   13.0743   -7.1224 H   0  0  0  0  0  0
   13.9902    7.3707   -6.7980 H   0  0  0  0  0  0
   15.1228    6.4195   -9.4657 H   0  0  0  0  0  0
   13.0905    5.1890   -9.2790 H   0  0  0  0  0  0
   12.2254    6.5637   -8.5120 H   0  0  0  0  0  0
   11.5340    6.3015  -10.9251 H   0  0  0  0  0  0
   15.0037   10.8118  -10.1668 H   0  0  0  0  0  0
   15.3516   10.9040  -12.9427 H   0  0  0  0  0  0
   16.7138   10.4568  -11.8606 H   0  0  0  0  0  0
   14.8007    8.6495  -13.4014 H   0  0  0  0  0  0
   16.5909    8.5539  -13.2891 H   0  0  0  0  0  0
   16.5206    7.6033  -11.0874 H   0  0  0  0  0  0
   14.9468    6.9812  -11.6896 H   0  0  0  0  0  0
   12.6788    8.5883  -11.2296 H   0  0  0  0  0  0
   11.0992   10.8074  -12.4925 H   0  0  0  0  0  0
    9.3174    9.0057  -12.9099 H   0  0  0  0  0  0
    9.6658    7.7022  -10.7939 H   0  0  0  0  0  0
   11.2512    9.2358  -14.5006 H   0  0  0  0  0  0
   10.6638    7.5435  -14.3663 H   0  0  0  0  0  0
   12.1659    8.0429  -13.5172 H   0  0  0  0  0  0
   11.7778    9.7935   -9.4146 H   0  0  0  0  0  0
    8.9663   10.0000   -8.3779 H   0  0  0  0  0  0
   10.8670    8.4852   -7.4471 H   0  0  0  0  0  0
   11.5482    9.9770   -6.7142 H   0  0  0  0  0  0
    8.9879   14.3700   -7.6471 H   0  0  0  0  0  0
    7.2617   13.6224   -5.2173 H   0  0  0  0  0  0
    6.8596   14.7690   -6.5403 H   0  0  0  0  0  0
    5.6901   12.3824   -6.4367 H   0  0  0  0  0  0
    6.2311   13.0693   -8.0059 H   0  0  0  0  0  0
    7.3952   10.9883   -8.0681 H   0  0  0  0  0  0
    7.5893   10.9372   -6.2831 H   0  0  0  0  0  0
    9.4284   16.0704   -6.2033 H   0  0  0  0  0  0
   11.6054   15.1824   -4.3620 H   0  0  0  0  0  0
   10.4601   17.9467   -5.0597 H   0  0  0  0  0  0
   11.8415   17.7142   -3.9352 H   0  0  0  0  0  0
   12.6597   18.1402   -6.2872 H   0  0  0  0  0  0
  1  2  1  0  0  0
  1 57  1  0  0  0
  1 58  1  0  0  0
  1 59  1  0  0  0
  2  3  1  0  0  0
  2  5  1  0  0  0
  2 60  1  0  0  0
  3  4  2  0  0  0
  3 13  1  0  0  0
  5  6  1  0  0  0
  5 61  1  0  0  0
  5 62  1  0  0  0
  6  7  2  0  0  0
  6  8  1  0  0  0
  7  9  1  0  0  0
  7 63  1  0  0  0
  8 10  2  0  0  0
  8 64  1  0  0  0
  9 11  2  0  0  0
  9 65  1  0  0  0
 10 11  1  0  0  0
 10 66  1  0  0  0
 11 12  1  0  0  0
 12 67  1  0  0  0
 13 14  1  0  0  0
 13 68  1  0  0  0
 14 15  1  0  0  0
 14 17  1  0  0  0
 14 69  1  0  0  0
 15 16  2  0  0  0
 15 19  1  0  0  0
 17 18  1  0  0  0
 17 70  1  0  0  0
 17 71  1  0  0  0
 18 72  1  0  0  0
 19 20  1  0  0  0
 19 25  1  0  0  0
 20 21  1  0  0  0
 20 23  1  0  0  0
 20 73  1  0  0  0
 21 22  2  0  0  0
 21 26  1  0  0  0
 23 24  1  0  0  0
 23 74  1  0  0  0
 23 75  1  0  0  0
 24 25  1  0  0  0
 24 76  1  0  0  0
 24 77  1  0  0  0
 25 78  1  0  0  0
 25 79  1  0  0  0
 26 27  1  0  0  0
 26 80  1  0  0  0
 27 28  1  0  0  0
 27 30  1  0  0  0
 27 81  1  0  0  0
 28 29  2  0  0  0
 28 33  1  0  0  0
 30 31  1  0  0  0
 30 32  1  0  0  0
 30 82  1  0  0  0
 31 83  1  0  0  0
 32 84  1  0  0  0
 32 85  1  0  0  0
 32 86  1  0  0  0
 33 34  1  0  0  0
 33 87  1  0  0  0
 34 35  1  0  0  0
 34 37  1  0  0  0
 34 88  1  0  0  0
 35 36  1  0  0  0
 35 89  1  0  0  0
 35 90  1  0  0  0
 36 39  1  0  0  0
 37 38  2  0  0  0
 37 43  1  0  0  0
 39 40  1  0  0  0
 39 41  1  0  0  0
 39 42  2  0  0  0
 43 44  1  0  0  0
 43 49  1  0  0  0
 44 45  1  0  0  0
 44 47  1  0  0  0
 44 91  1  0  0  0
 45 46  2  0  0  0
 45 50  1  0  0  0
 47 48  1  0  0  0
 47 92  1  0  0  0
 47 93  1  0  0  0
 48 49  1  0  0  0
 48 94  1  0  0  0
 48 95  1  0  0  0
 49 96  1  0  0  0
 49 97  1  0  0  0
 50 51  1  0  0  0
 50 98  1  0  0  0
 51 52  1  0  0  0
 51 54  1  0  0  0
 51 99  1  0  0  0
 52 53  2  0  0  0
 52 56  1  0  0  0
 54 55  1  0  0  0
 54100  1  0  0  0
 54101  1  0  0  0
 55102  1  0  0  0
M  CHG  4   1   1  40  -1  41  -1  56  -1
M  END
> <s_m_source_file>
../3d9m_ligand.sdf

> <i_m_source_file_index>
1

> <s_epik_input>
W2NIXTFbY0hdYyhbT0hdKVtjSF1bY0hdYzFbQ0gyXVtDQEhdKFtOSDMrXSlDKD1PKVtOSF1bQ0BASF0oW0NIMl1bT0hdKUMoPU8pTjJbQ0BASF0oW0NIMl1bQ0gyXVtDSDJdMilDKD1PKVtOSF1bQ0BASF0oW0NASF0oW09IXSlbQ0gzXSlDKD1PKVtOSF1bQ0BASF0oW0NIMl1PUCg9TykoW09IXSlbT0hdKUMoPU8pTjNbQ0BASF0oW0NIMl1bQ0gyXVtDSDJdMylDKD1PKVtOSF1bQ0BIXShDKD1PKVtPSF0pW0NIMl1bT0hd

> <s_epik_cmdline>
J2VwaWtfYXBwJywgJy1pbWFlJywgJ2xpZ2FuZF9wcm8ubWFlJywgJy1vbWFlJywgJ2xpZ2FuZF9wcmVwLm1hZScsICctbXMnLCAnMScsICctcGgnLCAnNycsICctcGh0JywgJzAuNScsICctbnQn

> <r_lp_tautomer_probability>
1

> <r_epik_Ionization_Penalty>
  0.3029

> <r_epik_Ionization_Penalty_Charging>
  0.3002

> <r_epik_Ionization_Penalty_Neutral>
  0.0028

> <r_epik_State_Penalty>
 -0.0000

> <r_epik_Charging_Adjusted_Penalty>
0.300183657758251

> <i_epik_Tot_Q>
-2

> <i_epik_Tot_abs_Q>
4

$$$$
