3d9n_ligand
                    3D
 Schrodinger Suite 2020-3.
 91 93  0  0  1  0            999 V2000
   31.9680    3.4790   11.5130 N   0  3  0  0  0  0
   32.8830    2.5000   12.0650 C   0  0  2  0  0  0
   32.5180    2.1630   13.5000 C   0  0  0  0  0  0
   32.1940    3.0480   14.3060 O   0  0  0  0  0  0
   34.3340    2.9990   12.0300 C   0  0  0  0  0  0
   35.3070    1.9900   12.6000 C   0  0  0  0  0  0
   35.7410    0.9110   11.8320 C   0  0  0  0  0  0
   35.7740    2.0970   13.9170 C   0  0  0  0  0  0
   36.6250   -0.0310   12.3580 C   0  0  0  0  0  0
   36.6540    1.1630   14.4520 C   0  0  0  0  0  0
   37.0770    0.1060   13.6630 C   0  0  0  0  0  0
   37.9540   -0.8180   14.1700 O   0  0  0  0  0  0
   32.5840    0.8690   13.7940 N   0  0  0  0  0  0
   32.4870    0.3520   15.1520 C   0  0  1  0  0  0
   31.1930   -0.4460   15.3240 C   0  0  0  0  0  0
   31.2050   -1.1440   16.5540 O   0  0  0  0  0  0
   33.7060   -0.5410   15.4100 C   0  0  0  0  0  0
   34.1670   -1.2290   14.4880 O   0  0  0  0  0  0
   29.8350   -0.9690   17.3750 P   0  0  0  0  0  0
   30.1770   -0.9910   18.9520 O   0  5  0  0  0  0
   29.1070    0.4220   16.9960 O   0  5  0  0  0  0
   28.8510   -2.1890   17.0060 O   0  0  0  0  0  0
   34.2430   -0.5230   16.6530 N   0  0  0  0  0  0
   35.3700   -1.3910   17.0300 C   0  0  2  0  0  0
   35.0340   -2.8900   17.0190 C   0  0  0  0  0  0
   35.0390   -3.5250   18.0700 O   0  0  0  0  0  0
   35.7080   -0.9310   18.4660 C   0  0  0  0  0  0
   34.4610   -0.3010   18.9690 C   0  0  0  0  0  0
   33.8350    0.3540   17.7690 C   0  0  0  0  0  0
   34.7790   -3.4410   15.8320 N   0  0  0  0  0  0
   34.3610   -4.8450   15.6890 C   0  0  2  0  0  0
   35.4240   -5.6820   14.9760 C   0  0  0  0  0  0
   36.3470   -5.1340   14.3630 O   0  0  0  0  0  0
   33.0260   -4.9820   14.9080 C   0  0  2  0  0  0
   33.1710   -4.3990   13.6080 O   0  0  0  0  0  0
   31.8740   -4.3090   15.6470 C   0  0  0  0  0  0
   35.2790   -7.0060   15.0510 N   0  0  0  0  0  0
   36.2210   -7.9310   14.4210 C   0  0  2  0  0  0
   36.1490   -7.8810   12.8880 C   0  0  0  0  0  0
   35.0510   -7.8600   12.3200 O   0  0  0  0  0  0
   35.9880   -9.3620   14.9260 C   0  0  0  0  0  0
   36.8870  -10.2750   14.3220 O   0  0  0  0  0  0
   37.3200   -7.8570   12.2150 N   0  0  0  0  0  0
   37.3630   -7.8670   10.7530 C   0  0  2  0  0  0
   37.2410   -9.2740   10.1590 C   0  0  0  0  0  0
   36.8492  -10.2296   10.8808 O   0  5  0  0  0  0
   38.7480   -7.2950   10.4550 C   0  0  0  0  0  0
   39.5840   -7.7770   11.5830 C   0  0  0  0  0  0
   38.6780   -7.8020   12.7940 C   0  0  0  0  0  0
   37.5322   -9.4753    8.9498 O   0  0  0  0  0  0
   30.9414    3.0862   11.5554 H   0  0  0  0  0  0
   32.2388    3.6851   10.4670 H   0  0  0  0  0  0
   32.0293    4.4087   12.0977 H   0  0  0  0  0  0
   32.7516    1.6234   11.4135 H   0  0  0  0  0  0
   34.6270    3.2018   10.9893 H   0  0  0  0  0  0
   34.4185    3.9227   12.6213 H   0  0  0  0  0  0
   35.3852    0.8019   10.8075 H   0  0  0  0  0  0
   35.4401    2.9304   14.5352 H   0  0  0  0  0  0
   36.9589   -0.8700   11.7476 H   0  0  0  0  0  0
   37.0064    1.2612   15.4788 H   0  0  0  0  0  0
   38.2907   -1.6578   13.5444 H   0  0  0  0  0  0
   32.7189    0.1764   12.9501 H   0  0  0  0  0  0
   32.4708    1.2149   15.8341 H   0  0  0  0  0  0
   30.3340    0.2410   15.3099 H   0  0  0  0  0  0
   31.0968   -1.1702   14.5017 H   0  0  0  0  0  0
   36.1699   -1.2694   16.2848 H   0  0  0  0  0  0
   35.9963   -1.8026   19.0719 H   0  0  0  0  0  0
   36.5418   -0.2142   18.4347 H   0  0  0  0  0  0
   33.8050   -1.0748   19.3942 H   0  0  0  0  0  0
   34.7104    0.4360   19.7466 H   0  0  0  0  0  0
   34.2192    1.3701   17.5961 H   0  0  0  0  0  0
   32.7371    0.3827   17.8303 H   0  0  0  0  0  0
   34.8909   -2.8069   14.9402 H   0  0  0  0  0  0
   34.2483   -5.1769   16.7317 H   0  0  0  0  0  0
   32.7768   -6.0403   14.7409 H   0  0  0  0  0  0
   33.9564   -4.7602   12.9277 H   0  0  0  0  0  0
   31.7656   -4.7592   16.6448 H   0  0  0  0  0  0
   30.9426   -4.4484   15.0787 H   0  0  0  0  0  0
   32.0830   -3.2340   15.7505 H   0  0  0  0  0  0
   34.4156   -7.3961   15.6099 H   0  0  0  0  0  0
   37.2106   -7.5691   14.7368 H   0  0  0  0  0  0
   36.1360   -9.3950   16.0155 H   0  0  0  0  0  0
   34.9605   -9.6728   14.6860 H   0  0  0  0  0  0
   36.8444  -11.3428   14.5828 H   0  0  0  0  0  0
   36.5132   -7.2923   10.3560 H   0  0  0  0  0  0
   39.1007   -7.6752    9.4849 H   0  0  0  0  0  0
   38.6915   -6.1970   10.4199 H   0  0  0  0  0  0
   39.9665   -8.7823   11.3525 H   0  0  0  0  0  0
   40.4289   -7.0889   11.7334 H   0  0  0  0  0  0
   38.7783   -6.8950   13.4082 H   0  0  0  0  0  0
   38.8454   -8.6899   13.4213 H   0  0  0  0  0  0
  1  2  1  0  0  0
  1 51  1  0  0  0
  1 52  1  0  0  0
  1 53  1  0  0  0
  2  3  1  0  0  0
  2  5  1  0  0  0
  2 54  1  0  0  0
  3  4  2  0  0  0
  3 13  1  0  0  0
  5  6  1  0  0  0
  5 55  1  0  0  0
  5 56  1  0  0  0
  6  7  2  0  0  0
  6  8  1  0  0  0
  7  9  1  0  0  0
  7 57  1  0  0  0
  8 10  2  0  0  0
  8 58  1  0  0  0
  9 11  2  0  0  0
  9 59  1  0  0  0
 10 11  1  0  0  0
 10 60  1  0  0  0
 11 12  1  0  0  0
 12 61  1  0  0  0
 13 14  1  0  0  0
 13 62  1  0  0  0
 14 15  1  0  0  0
 14 17  1  0  0  0
 14 63  1  0  0  0
 15 16  1  0  0  0
 15 64  1  0  0  0
 15 65  1  0  0  0
 16 19  1  0  0  0
 17 18  2  0  0  0
 17 23  1  0  0  0
 19 20  1  0  0  0
 19 21  1  0  0  0
 19 22  2  0  0  0
 23 24  1  0  0  0
 23 29  1  0  0  0
 24 25  1  0  0  0
 24 27  1  0  0  0
 24 66  1  0  0  0
 25 26  2  0  0  0
 25 30  1  0  0  0
 27 28  1  0  0  0
 27 67  1  0  0  0
 27 68  1  0  0  0
 28 29  1  0  0  0
 28 69  1  0  0  0
 28 70  1  0  0  0
 29 71  1  0  0  0
 29 72  1  0  0  0
 30 31  1  0  0  0
 30 73  1  0  0  0
 31 32  1  0  0  0
 31 34  1  0  0  0
 31 74  1  0  0  0
 32 33  2  0  0  0
 32 37  1  0  0  0
 34 35  1  0  0  0
 34 36  1  0  0  0
 34 75  1  0  0  0
 35 76  1  0  0  0
 36 77  1  0  0  0
 36 78  1  0  0  0
 36 79  1  0  0  0
 37 38  1  0  0  0
 37 80  1  0  0  0
 38 39  1  0  0  0
 38 41  1  0  0  0
 38 81  1  0  0  0
 39 40  2  0  0  0
 39 43  1  0  0  0
 41 42  1  0  0  0
 41 82  1  0  0  0
 41 83  1  0  0  0
 42 84  1  0  0  0
 43 44  1  0  0  0
 43 49  1  0  0  0
 44 45  1  0  0  0
 44 47  1  0  0  0
 44 85  1  0  0  0
 45 46  1  0  0  0
 45 50  2  0  0  0
 47 48  1  0  0  0
 47 86  1  0  0  0
 47 87  1  0  0  0
 48 49  1  0  0  0
 48 88  1  0  0  0
 48 89  1  0  0  0
 49 90  1  0  0  0
 49 91  1  0  0  0
M  CHG  4   1   1  20  -1  21  -1  46  -1
M  END
> <s_m_source_file>
../3d9n_ligand.sdf

> <i_m_source_file_index>
1

> <s_epik_input>
W2NIXTFbY0hdYyhbT0hdKVtjSF1bY0hdYzFbQ0gyXVtDQEhdKFtOSDMrXSlDKD1PKVtOSF1bQ0BASF0oW0NIMl1PUCg9TykoW09IXSlbT0hdKUMoPU8pTjJbQ0BASF0oW0NIMl1bQ0gyXVtDSDJdMilDKD1PKVtOSF1bQ0BASF0oW0NASF0oW09IXSlbQ0gzXSlDKD1PKVtOSF1bQ0BASF0oW0NIMl1bT0hdKUMoPU8pTjNbQ0BIXShDKD1PKVtPSF0pW0NIMl1bQ0gyXVtDSDJdMw==

> <s_epik_cmdline>
J2VwaWtfYXBwJywgJy1pbWFlJywgJ2xpZ2FuZF9wcm8ubWFlJywgJy1vbWFlJywgJ2xpZ2FuZF9wcmVwLm1hZScsICctbXMnLCAnMScsICctcGgnLCAnNycsICctcGh0JywgJzAuNScsICctbnQn

> <r_lp_tautomer_probability>
1

> <r_epik_Ionization_Penalty>
  0.3099

> <r_epik_Ionization_Penalty_Charging>
  0.3072

> <r_epik_Ionization_Penalty_Neutral>
  0.0027

> <r_epik_State_Penalty>
 -0.0000

> <r_epik_Charging_Adjusted_Penalty>
0.307221520658086

> <i_epik_Tot_Q>
-2

> <i_epik_Tot_abs_Q>
4

$$$$
