3d9o_ligand
                    3D
 Schrodinger Suite 2020-3.
124127  0  0  1  0            999 V2000
   12.8560    0.9580   -1.3290 N   0  3  0  0  0  0
   12.7300    1.3370   -2.7360 C   0  0  2  0  0  0
   13.9450    2.1180   -3.2270 C   0  0  0  0  0  0
   14.4000    3.0480   -2.5560 O   0  0  0  0  0  0
   11.4790    2.2300   -2.7540 C   0  0  0  0  0  0
   11.2920    2.6740   -1.3390 C   0  0  0  0  0  0
   11.7710    1.5220   -0.5080 C   0  0  0  0  0  0
   14.4570    1.7340   -4.3930 N   0  0  0  0  0  0
   15.6220    2.3850   -4.9900 C   0  0  2  0  0  0
   15.2390    3.7140   -5.6210 C   0  0  0  0  0  0
   14.0820    3.9190   -6.0000 O   0  0  0  0  0  0
   16.2660    1.4730   -6.0340 C   0  0  0  0  0  0
   16.5400    0.1930   -5.4840 O   0  0  0  0  0  0
   16.2170    4.6120   -5.7330 N   0  0  0  0  0  0
   15.9870    5.9380   -6.2970 C   0  0  2  0  0  0
   15.6790    5.8840   -7.7880 C   0  0  0  0  0  0
   16.3790    5.2200   -8.5590 O   0  0  0  0  0  0
   17.1840    6.8610   -6.0490 C   0  0  0  0  0  0
   17.0120    8.2590   -6.6050 C   0  0  0  0  0  0
   16.3670    9.2480   -5.8660 C   0  0  0  0  0  0
   17.5100    8.5980   -7.8660 C   0  0  0  0  0  0
   16.2230   10.5340   -6.3620 C   0  0  0  0  0  0
   17.3630    9.8880   -8.3790 C   0  0  0  0  0  0
   16.7260   10.8470   -7.6200 C   0  0  0  0  0  0
   16.5820   12.1140   -8.1260 O   0  0  0  0  0  0
   14.6250    6.6000   -8.1660 N   0  0  0  0  0  0
   14.2350    6.7780   -9.5490 C   0  0  2  0  0  0
   14.2780    8.2730   -9.8740 C   0  0  0  0  0  0
   13.7790    9.0920   -9.0850 O   0  0  0  0  0  0
   12.8210    6.2330   -9.7690 C   0  0  0  0  0  0
   12.4010    6.4060  -11.1120 O   0  0  0  0  0  0
   14.8690    8.6360  -11.0320 N   0  0  0  0  0  0
   14.8700   10.0300  -11.4820 C   0  0  2  0  0  0
   13.4780   10.5140  -11.9240 C   0  0  0  0  0  0
   13.3220   11.6770  -12.2870 O   0  0  0  0  0  0
   15.8440   10.0120  -12.6690 C   0  0  0  0  0  0
   15.7450    8.6300  -13.2060 C   0  0  0  0  0  0
   15.5820    7.7590  -11.9860 C   0  0  0  0  0  0
   12.4910    9.6160  -11.9000 N   0  0  0  0  0  0
   11.0850    9.9740  -12.1440 C   0  0  2  0  0  0
   10.3280   10.3600  -10.8680 C   0  0  0  0  0  0
    9.2400   10.9410  -10.9350 O   0  0  0  0  0  0
   10.3100    8.8210  -12.8160 C   0  0  2  0  0  0
   10.4030    7.6450  -12.0030 O   0  0  0  0  0  0
   10.8620    8.5270  -14.2010 C   0  0  0  0  0  0
   10.8930   10.0170   -9.7130 N   0  0  0  0  0  0
   10.2360   10.2430   -8.4200 C   0  0  2  0  0  0
   10.2740   11.7070   -7.9760 C   0  0  0  0  0  0
   11.3290   12.3460   -8.0460 O   0  0  0  0  0  0
   10.8320    9.3350   -7.3370 C   0  0  0  0  0  0
   10.0950    8.1260   -7.2300 O   0  0  0  0  0  0
    9.1170   12.2430   -7.5330 N   0  0  0  0  0  0
    9.0000   13.6250   -7.0520 C   0  0  2  0  0  0
    9.9340   13.9690   -5.8870 C   0  0  0  0  0  0
   10.3020   13.0920   -5.0990 O   0  0  0  0  0  0
    7.5360   13.7170   -6.6030 C   0  0  0  0  0  0
    6.8340   12.6810   -7.4080 C   0  0  0  0  0  0
    7.8120   11.5510   -7.4990 C   0  0  0  0  0  0
   10.2980   15.2460   -5.7890 N   0  0  0  0  0  0
   11.1730   15.7530   -4.7260 C   0  0  2  0  0  0
   10.5020   15.8040   -3.3520 C   0  0  0  0  0  0
    9.3130   15.5060   -3.2090 O   0  0  0  0  0  0
   11.7110   17.1370   -5.1000 C   0  0  0  0  0  0
   12.5350   17.0570   -6.2550 O   0  0  0  0  0  0
   12.8208   -0.1378   -1.2399 H   0  0  0  0  0  0
   13.8139    1.3274   -0.9341 H   0  0  0  0  0  0
   12.6673    0.4345   -3.3618 H   0  0  0  0  0  0
   11.6479    3.0842   -3.4262 H   0  0  0  0  0  0
   10.6174    1.6470   -3.1114 H   0  0  0  0  0  0
   11.8865    3.5816   -1.1579 H   0  0  0  0  0  0
   10.2285    2.8906   -1.1602 H   0  0  0  0  0  0
   10.9944    0.7587   -0.3521 H   0  0  0  0  0  0
   12.1743    1.8388    0.4651 H   0  0  0  0  0  0
   13.9710    0.8939   -4.9106 H   0  0  0  0  0  0
   16.3192    2.5655   -4.1586 H   0  0  0  0  0  0
   15.5828    1.3535   -6.8878 H   0  0  0  0  0  0
   17.2098    1.9202   -6.3794 H   0  0  0  0  0  0
   17.0057   -0.5850   -6.1068 H   0  0  0  0  0  0
   17.2214    4.3289   -5.3851 H   0  0  0  0  0  0
   15.0991    6.3006   -5.7583 H   0  0  0  0  0  0
   17.3515    6.9614   -4.9665 H   0  0  0  0  0  0
   18.0809    6.4331   -6.5206 H   0  0  0  0  0  0
   15.9687    9.0063   -4.8806 H   0  0  0  0  0  0
   18.0226    7.8413   -8.4599 H   0  0  0  0  0  0
   15.7179   11.2964   -5.7689 H   0  0  0  0  0  0
   17.7475   10.1345   -9.3687 H   0  0  0  0  0  0
   16.0760   12.8893   -7.5319 H   0  0  0  0  0  0
   14.0371    7.0702   -7.3639 H   0  0  0  0  0  0
   14.9527    6.2132  -10.1621 H   0  0  0  0  0  0
   12.8014    5.1587   -9.5336 H   0  0  0  0  0  0
   12.1167    6.7650   -9.1126 H   0  0  0  0  0  0
   11.4038    6.0630  -11.4249 H   0  0  0  0  0  0
   15.1659   10.6853  -10.6495 H   0  0  0  0  0  0
   15.5338   10.7642  -13.4092 H   0  0  0  0  0  0
   16.8590   10.2437  -12.3140 H   0  0  0  0  0  0
   14.8774    8.5592  -13.8785 H   0  0  0  0  0  0
   16.6616    8.3866  -13.7633 H   0  0  0  0  0  0
   16.5475    7.4563  -11.5545 H   0  0  0  0  0  0
   14.9738    6.8648  -12.1871 H   0  0  0  0  0  0
   12.7637    8.5718  -11.6871 H   0  0  0  0  0  0
   11.1830   10.8489  -12.8035 H   0  0  0  0  0  0
    9.2390    9.0601  -12.8914 H   0  0  0  0  0  0
   10.0495    7.6670  -10.9616 H   0  0  0  0  0  0
   10.7899    9.4308  -14.8239 H   0  0  0  0  0  0
   10.2801    7.7159  -14.6630 H   0  0  0  0  0  0
   11.9155    8.2216  -14.1186 H   0  0  0  0  0  0
   11.8877    9.5489   -9.7501 H   0  0  0  0  0  0
    9.1863    9.9747   -8.6103 H   0  0  0  0  0  0
   11.8739    9.0932   -7.5938 H   0  0  0  0  0  0
   10.8043    9.8538   -6.3674 H   0  0  0  0  0  0
   10.3937    7.3629   -6.4962 H   0  0  0  0  0  0
    9.2964   14.3039   -7.8651 H   0  0  0  0  0  0
    7.4699   13.5129   -5.5241 H   0  0  0  0  0  0
    7.1520   14.7269   -6.8093 H   0  0  0  0  0  0
    5.9084   12.3822   -6.8941 H   0  0  0  0  0  0
    6.5874   13.0910   -8.3985 H   0  0  0  0  0  0
    7.6878   10.9572   -8.4166 H   0  0  0  0  0  0
    7.7723   10.8859   -6.6237 H   0  0  0  0  0  0
    9.9093   15.9325   -6.5556 H   0  0  0  0  0  0
   11.9814   15.0087   -4.6755 H   0  0  0  0  0  0
   11.0999   16.1135   -2.4821 H   0  0  0  0  0  0
   10.8691   17.8135   -5.3087 H   0  0  0  0  0  0
   12.3049   17.5374   -4.2652 H   0  0  0  0  0  0
   13.0041   17.9658   -6.6600 H   0  0  0  0  0  0
  1  2  1  0  0  0
  1  7  1  0  0  0
  1 65  1  0  0  0
  1 66  1  0  0  0
  2  3  1  0  0  0
  2  5  1  0  0  0
  2 67  1  0  0  0
  3  4  2  0  0  0
  3  8  1  0  0  0
  5  6  1  0  0  0
  5 68  1  0  0  0
  5 69  1  0  0  0
  6  7  1  0  0  0
  6 70  1  0  0  0
  6 71  1  0  0  0
  7 72  1  0  0  0
  7 73  1  0  0  0
  8  9  1  0  0  0
  8 74  1  0  0  0
  9 10  1  0  0  0
  9 12  1  0  0  0
  9 75  1  0  0  0
 10 11  2  0  0  0
 10 14  1  0  0  0
 12 13  1  0  0  0
 12 76  1  0  0  0
 12 77  1  0  0  0
 13 78  1  0  0  0
 14 15  1  0  0  0
 14 79  1  0  0  0
 15 16  1  0  0  0
 15 18  1  0  0  0
 15 80  1  0  0  0
 16 17  2  0  0  0
 16 26  1  0  0  0
 18 19  1  0  0  0
 18 81  1  0  0  0
 18 82  1  0  0  0
 19 20  2  0  0  0
 19 21  1  0  0  0
 20 22  1  0  0  0
 20 83  1  0  0  0
 21 23  2  0  0  0
 21 84  1  0  0  0
 22 24  2  0  0  0
 22 85  1  0  0  0
 23 24  1  0  0  0
 23 86  1  0  0  0
 24 25  1  0  0  0
 25 87  1  0  0  0
 26 27  1  0  0  0
 26 88  1  0  0  0
 27 28  1  0  0  0
 27 30  1  0  0  0
 27 89  1  0  0  0
 28 29  2  0  0  0
 28 32  1  0  0  0
 30 31  1  0  0  0
 30 90  1  0  0  0
 30 91  1  0  0  0
 31 92  1  0  0  0
 32 33  1  0  0  0
 32 38  1  0  0  0
 33 34  1  0  0  0
 33 36  1  0  0  0
 33 93  1  0  0  0
 34 35  2  0  0  0
 34 39  1  0  0  0
 36 37  1  0  0  0
 36 94  1  0  0  0
 36 95  1  0  0  0
 37 38  1  0  0  0
 37 96  1  0  0  0
 37 97  1  0  0  0
 38 98  1  0  0  0
 38 99  1  0  0  0
 39 40  1  0  0  0
 39100  1  0  0  0
 40 41  1  0  0  0
 40 43  1  0  0  0
 40101  1  0  0  0
 41 42  2  0  0  0
 41 46  1  0  0  0
 43 44  1  0  0  0
 43 45  1  0  0  0
 43102  1  0  0  0
 44103  1  0  0  0
 45104  1  0  0  0
 45105  1  0  0  0
 45106  1  0  0  0
 46 47  1  0  0  0
 46107  1  0  0  0
 47 48  1  0  0  0
 47 50  1  0  0  0
 47108  1  0  0  0
 48 49  2  0  0  0
 48 52  1  0  0  0
 50 51  1  0  0  0
 50109  1  0  0  0
 50110  1  0  0  0
 51111  1  0  0  0
 52 53  1  0  0  0
 52 58  1  0  0  0
 53 54  1  0  0  0
 53 56  1  0  0  0
 53112  1  0  0  0
 54 55  2  0  0  0
 54 59  1  0  0  0
 56 57  1  0  0  0
 56113  1  0  0  0
 56114  1  0  0  0
 57 58  1  0  0  0
 57115  1  0  0  0
 57116  1  0  0  0
 58117  1  0  0  0
 58118  1  0  0  0
 59 60  1  0  0  0
 59119  1  0  0  0
 60 61  1  0  0  0
 60 63  1  0  0  0
 60120  1  0  0  0
 61 62  2  0  0  0
 61121  1  0  0  0
 63 64  1  0  0  0
 63122  1  0  0  0
 63123  1  0  0  0
 64124  1  0  0  0
M  CHG  1   1   1
M  END
> <s_m_source_file>
../3d9o_ligand.sdf

> <i_m_source_file_index>
1

> <s_epik_input>
W0NIMl0xW0NIMl1bQ0gyXVtOSDIrXVtDQEBIXTFDKD1PKVtOSF1bQ0BASF0oW0NIMl1bT0hdKUMoPU8pW05IXVtDQEBIXShbQ0gyXWMyW2NIXVtjSF1jKFtPSF0pW2NIXVtjSF0yKUMoPU8pW05IXVtDQEBIXShbQ0gyXVtPSF0pQyg9TylOM1tDQEBIXShbQ0gyXVtDSDJdW0NIMl0zKUMoPU8pW05IXVtDQEBIXShbQ0BIXShbT0hdKVtDSDNdKUMoPU8pW05IXVtDQEBIXShbQ0gyXVtPSF0pQyg9TylONFtDQEBIXShbQ0gyXVtDSDJdW0NIMl00KUMoPU8pW05IXVtDQEhdKFtDSF09TylbQ0gyXVtPSF0=

> <s_epik_cmdline>
J2VwaWtfYXBwJywgJy1pbWFlJywgJ2xpZ2FuZF9wcm8ubWFlJywgJy1vbWFlJywgJ2xpZ2FuZF9wcmVwLm1hZScsICctbXMnLCAnMScsICctcGgnLCAnNycsICctcGh0JywgJzAuNScsICctbnQn

> <r_lp_tautomer_probability>
0.999900004997115

> <r_epik_Ionization_Penalty>
  0.0484

> <r_epik_Ionization_Penalty_Charging>
  0.0445

> <r_epik_Ionization_Penalty_Neutral>
  0.0039

> <r_epik_State_Penalty>
  0.0377

> <r_epik_Charging_Adjusted_Penalty>
0.082264418441394

> <i_epik_Tot_Q>
1

> <i_epik_Tot_abs_Q>
1

$$$$
