3d9p_ligand
                    3D
 Schrodinger Suite 2020-3.
119122  0  0  1  0            999 V2000
   13.3110    0.6890   -0.6660 N   0  3  0  0  0  0
   12.8130    1.4270   -1.8180 C   0  0  2  0  0  0
   13.8890    2.3430   -2.3650 C   0  0  0  0  0  0
   14.2660    3.3110   -1.7110 O   0  0  0  0  0  0
   11.6600    2.2440   -1.2330 C   0  0  0  0  0  0
   11.1420    1.4060   -0.1270 C   0  0  0  0  0  0
   12.3320    0.6680    0.4420 C   0  0  0  0  0  0
   14.3720    2.0250   -3.5610 N   0  0  0  0  0  0
   15.4840    2.7340   -4.1760 C   0  0  2  0  0  0
   15.0600    4.0400   -4.8390 C   0  0  0  0  0  0
   13.9210    4.1740   -5.3050 O   0  0  0  0  0  0
   16.2020    1.8310   -5.1890 C   0  0  0  0  0  0
   15.2900    1.2090   -6.0790 O   0  0  0  0  0  0
   15.9940    4.9920   -4.8710 N   0  0  0  0  0  0
   15.7980    6.2820   -5.5300 C   0  0  2  0  0  0
   15.4930    6.1210   -7.0180 C   0  0  0  0  0  0
   16.1250    5.3180   -7.7200 O   0  0  0  0  0  0
   17.0170    7.2070   -5.3400 C   0  0  0  0  0  0
   16.8310    8.5740   -5.9840 C   0  0  0  0  0  0
   16.1850    9.6090   -5.3000 C   0  0  0  0  0  0
   17.2640    8.8170   -7.2870 C   0  0  0  0  0  0
   15.9970   10.8550   -5.8880 C   0  0  0  0  0  0
   17.0780   10.0690   -7.8940 C   0  0  0  0  0  0
   16.4450   11.0790   -7.1860 C   0  0  0  0  0  0
   16.2580   12.3080   -7.7740 O   0  0  0  0  0  0
   14.5090    6.8840   -7.4830 N   0  0  0  0  0  0
   14.2150    6.9710   -8.9000 C   0  0  1  0  0  0
   12.9930    6.1180   -9.2630 C   0  0  0  0  0  0
   12.5580    6.4160  -10.5780 O   0  0  0  0  0  0
   14.0110    8.4290   -9.3150 C   0  0  0  0  0  0
   13.2870    9.1710   -8.6400 O   0  0  0  0  0  0
   12.4520    5.1290  -11.5500 P   0  0  0  0  0  0
   10.9930    4.4660  -11.4050 O   0  0  0  0  0  0
   12.6580    5.6390  -13.0650 O   0  5  0  0  0  0
   13.5900    4.0370  -11.2050 O   0  5  0  0  0  0
   14.6440    8.8380  -10.4380 N   0  0  0  0  0  0
   14.5320   10.2040  -10.9810 C   0  0  2  0  0  0
   13.1210   10.5770  -11.4430 C   0  0  0  0  0  0
   12.8330   11.7610  -11.6030 O   0  0  0  0  0  0
   15.4710   10.1740  -12.1940 C   0  0  0  0  0  0
   15.5380    8.7410  -12.5830 C   0  0  0  0  0  0
   15.5110    7.9940  -11.2830 C   0  0  0  0  0  0
   12.2680    9.5770  -11.6660 N   0  0  0  0  0  0
   10.8940    9.8020  -12.1360 C   0  0  2  0  0  0
    9.9510   10.2630  -11.0280 C   0  0  0  0  0  0
    8.9260   10.8930  -11.2990 O   0  0  0  0  0  0
   10.2680    8.5270  -12.7550 C   0  0  2  0  0  0
   10.4170    7.4270  -11.8480 O   0  0  0  0  0  0
   10.9050    8.1840  -14.0950 C   0  0  0  0  0  0
   10.2910    9.9340   -9.7850 N   0  0  0  0  0  0
    9.4010   10.1770   -8.6510 C   0  0  1  0  0  0
    9.5070    9.0320   -7.6410 C   0  0  0  0  0  0
   10.8610    8.7520   -7.3500 O   0  0  0  0  0  0
    9.6580   11.5220   -7.9660 C   0  0  0  0  0  0
   10.8110   11.9610   -7.8800 O   0  0  0  0  0  0
   11.0310    8.0610   -5.9040 P   0  0  0  0  0  0
   10.5720    6.5150   -5.9750 O   0  5  0  0  0  0
   12.5960    8.1540   -5.5220 O   0  0  0  0  0  0
   10.1240    8.8220   -4.8020 O   0  5  0  0  0  0
    8.5790   12.1800   -7.4840 N   0  0  0  0  0  0
    8.6750   13.4650   -6.7870 C   0  0  2  0  0  0
    9.5090   13.3810   -5.5110 C   0  0  0  0  0  0
    9.7540   14.4030   -4.8660 O   0  0  0  0  0  0
    7.2120   13.7910   -6.4400 C   0  0  0  0  0  0
    6.4000   12.9900   -7.3900 C   0  0  0  0  0  0
    7.1780   11.7290   -7.5930 C   0  0  0  0  0  0
   13.5211   -0.3502   -0.9592 H   0  0  0  0  0  0
   14.2349    1.1606   -0.2998 H   0  0  0  0  0  0
   12.5249    0.7460   -2.6324 H   0  0  0  0  0  0
   12.0414    3.2110   -0.8733 H   0  0  0  0  0  0
   10.9008    2.4155   -2.0103 H   0  0  0  0  0  0
   10.6769    2.0498    0.6340 H   0  0  0  0  0  0
   10.3930    0.7026   -0.5197 H   0  0  0  0  0  0
   12.0941   -0.3742    0.7014 H   0  0  0  0  0  0
   12.7599    1.1756    1.3191 H   0  0  0  0  0  0
   13.8946    1.1866   -4.0894 H   0  0  0  0  0  0
   16.1388    2.9789   -3.3267 H   0  0  0  0  0  0
   16.9068    2.4328   -5.7816 H   0  0  0  0  0  0
   16.7526    1.0439   -4.6529 H   0  0  0  0  0  0
   15.6611    0.5314   -6.8620 H   0  0  0  0  0  0
   16.9477    4.7696   -4.3699 H   0  0  0  0  0  0
   14.9162    6.6999   -5.0223 H   0  0  0  0  0  0
   17.1938    7.3645   -4.2658 H   0  0  0  0  0  0
   17.9046    6.7416   -5.7933 H   0  0  0  0  0  0
   15.8221    9.4356   -4.2869 H   0  0  0  0  0  0
   17.7560    8.0200   -7.8446 H   0  0  0  0  0  0
   15.5010   11.6524   -5.3346 H   0  0  0  0  0  0
   17.4276   10.2452   -8.9113 H   0  0  0  0  0  0
   15.7564   13.1134   -7.2174 H   0  0  0  0  0  0
   13.9106    7.4588   -6.7608 H   0  0  0  0  0  0
   15.1049    6.5638   -9.4023 H   0  0  0  0  0  0
   13.2597    5.0523   -9.2060 H   0  0  0  0  0  0
   12.1756    6.3296   -8.5579 H   0  0  0  0  0  0
   14.7846   10.9218  -10.1867 H   0  0  0  0  0  0
   15.0514   10.7966  -12.9980 H   0  0  0  0  0  0
   16.4573   10.5654  -11.9040 H   0  0  0  0  0  0
   14.6735    8.4921  -13.2159 H   0  0  0  0  0  0
   16.4671    8.5559  -13.1420 H   0  0  0  0  0  0
   16.5056    7.9115  -10.8204 H   0  0  0  0  0  0
   15.0668    6.9922  -11.3786 H   0  0  0  0  0  0
   12.6266    8.5530  -11.4851 H   0  0  0  0  0  0
   11.0443   10.6027  -12.8751 H   0  0  0  0  0  0
    9.1849    8.6559  -12.8977 H   0  0  0  0  0  0
   10.0145    7.4978  -10.8267 H   0  0  0  0  0  0
   10.7866    9.0324  -14.7851 H   0  0  0  0  0  0
   10.4131    7.2957  -14.5181 H   0  0  0  0  0  0
   11.9754    7.9761  -13.9496 H   0  0  0  0  0  0
   11.2734    9.4665   -9.6228 H   0  0  0  0  0  0
    8.3975   10.2114   -9.1003 H   0  0  0  0  0  0
    8.9929    9.3150   -6.7106 H   0  0  0  0  0  0
    9.0376    8.1294   -8.0593 H   0  0  0  0  0  0
    9.1823   14.1949   -7.4350 H   0  0  0  0  0  0
    9.8914   12.4086   -5.1670 H   0  0  0  0  0  0
    7.0107   13.5073   -5.3965 H   0  0  0  0  0  0
    7.0366   14.8695   -6.5671 H   0  0  0  0  0  0
    5.4113   12.7917   -6.9506 H   0  0  0  0  0  0
    6.2782   13.5485   -8.3298 H   0  0  0  0  0  0
    7.0118   11.2855   -8.5858 H   0  0  0  0  0  0
    6.9734   10.9771   -6.8167 H   0  0  0  0  0  0
  1  2  1  0  0  0
  1  7  1  0  0  0
  1 67  1  0  0  0
  1 68  1  0  0  0
  2  3  1  0  0  0
  2  5  1  0  0  0
  2 69  1  0  0  0
  3  4  2  0  0  0
  3  8  1  0  0  0
  5  6  1  0  0  0
  5 70  1  0  0  0
  5 71  1  0  0  0
  6  7  1  0  0  0
  6 72  1  0  0  0
  6 73  1  0  0  0
  7 74  1  0  0  0
  7 75  1  0  0  0
  8  9  1  0  0  0
  8 76  1  0  0  0
  9 10  1  0  0  0
  9 12  1  0  0  0
  9 77  1  0  0  0
 10 11  2  0  0  0
 10 14  1  0  0  0
 12 13  1  0  0  0
 12 78  1  0  0  0
 12 79  1  0  0  0
 13 80  1  0  0  0
 14 15  1  0  0  0
 14 81  1  0  0  0
 15 16  1  0  0  0
 15 18  1  0  0  0
 15 82  1  0  0  0
 16 17  2  0  0  0
 16 26  1  0  0  0
 18 19  1  0  0  0
 18 83  1  0  0  0
 18 84  1  0  0  0
 19 20  2  0  0  0
 19 21  1  0  0  0
 20 22  1  0  0  0
 20 85  1  0  0  0
 21 23  2  0  0  0
 21 86  1  0  0  0
 22 24  2  0  0  0
 22 87  1  0  0  0
 23 24  1  0  0  0
 23 88  1  0  0  0
 24 25  1  0  0  0
 25 89  1  0  0  0
 26 27  1  0  0  0
 26 90  1  0  0  0
 27 28  1  0  0  0
 27 30  1  0  0  0
 27 91  1  0  0  0
 28 29  1  0  0  0
 28 92  1  0  0  0
 28 93  1  0  0  0
 29 32  1  0  0  0
 30 31  2  0  0  0
 30 36  1  0  0  0
 32 33  2  0  0  0
 32 34  1  0  0  0
 32 35  1  0  0  0
 36 37  1  0  0  0
 36 42  1  0  0  0
 37 38  1  0  0  0
 37 40  1  0  0  0
 37 94  1  0  0  0
 38 39  2  0  0  0
 38 43  1  0  0  0
 40 41  1  0  0  0
 40 95  1  0  0  0
 40 96  1  0  0  0
 41 42  1  0  0  0
 41 97  1  0  0  0
 41 98  1  0  0  0
 42 99  1  0  0  0
 42100  1  0  0  0
 43 44  1  0  0  0
 43101  1  0  0  0
 44 45  1  0  0  0
 44 47  1  0  0  0
 44102  1  0  0  0
 45 46  2  0  0  0
 45 50  1  0  0  0
 47 48  1  0  0  0
 47 49  1  0  0  0
 47103  1  0  0  0
 48104  1  0  0  0
 49105  1  0  0  0
 49106  1  0  0  0
 49107  1  0  0  0
 50 51  1  0  0  0
 50108  1  0  0  0
 51 52  1  0  0  0
 51 54  1  0  0  0
 51109  1  0  0  0
 52 53  1  0  0  0
 52110  1  0  0  0
 52111  1  0  0  0
 53 56  1  0  0  0
 54 55  2  0  0  0
 54 60  1  0  0  0
 56 57  1  0  0  0
 56 58  2  0  0  0
 56 59  1  0  0  0
 60 61  1  0  0  0
 60 66  1  0  0  0
 61 62  1  0  0  0
 61 64  1  0  0  0
 61112  1  0  0  0
 62 63  2  0  0  0
 62113  1  0  0  0
 64 65  1  0  0  0
 64114  1  0  0  0
 64115  1  0  0  0
 65 66  1  0  0  0
 65116  1  0  0  0
 65117  1  0  0  0
 66118  1  0  0  0
 66119  1  0  0  0
M  CHG  5   1   1  34  -1  35  -1  57  -1  59  -1
M  END
> <s_m_source_file>
../3d9p_ligand.sdf

> <i_m_source_file_index>
1

> <s_epik_input>
W0NIMl0xW0NIMl1bQ0gyXVtOSDIrXVtDQEBIXTFDKD1PKVtOSF1bQ0BASF0oW0NIMl1bT0hdKUMoPU8pW05IXVtDQEBIXShbQ0gyXWMyW2NIXVtjSF1jKFtPSF0pW2NIXVtjSF0yKUMoPU8pW05IXVtDQEBIXShbQ0gyXU9QKD1PKShbT0hdKVtPSF0pQyg9TylOM1tDQEBIXShbQ0gyXVtDSDJdW0NIMl0zKUMoPU8pW05IXVtDQEBIXShbQ0BIXShbT0hdKVtDSDNdKUMoPU8pW05IXVtDQEBIXShbQ0gyXU9QKD1PKShbT0hdKVtPSF0pQyg9TylONFtDQEhdKFtDSF09TylbQ0gyXVtDSDJdW0NIMl00

> <s_epik_cmdline>
J2VwaWtfYXBwJywgJy1pbWFlJywgJ2xpZ2FuZF9wcm8ubWFlJywgJy1vbWFlJywgJ2xpZ2FuZF9wcmVwLm1hZScsICctbXMnLCAnMScsICctcGgnLCAnNycsICctcGh0JywgJzAuNScsICctbnQn

> <r_lp_tautomer_probability>
1

> <r_epik_Ionization_Penalty>
  0.2015

> <r_epik_Ionization_Penalty_Charging>
  0.2004

> <r_epik_Ionization_Penalty_Neutral>
  0.0011

> <r_epik_State_Penalty>
 -0.0000

> <r_epik_Charging_Adjusted_Penalty>
0.200368615313186

> <i_epik_Tot_Q>
-3

> <i_epik_Tot_abs_Q>
5

$$$$
