3d9v_ligand
                    3D
 Schrodinger Suite 2020-3.
 44 46  0  0  1  0            999 V2000
   53.4870  101.2470   30.0680 O   0  0  0  0  0  0
   52.2480  101.9000   30.4060 S   0  0  0  0  0  0
   51.1900  101.2480   31.1400 O   0  0  0  0  0  0
   52.7040  103.2520   31.2790 N   0  0  3  0  0  0
   54.0830  103.7440   31.1800 C   0  0  1  0  0  0
   54.4110  104.3480   29.8060 C   0  0  0  0  0  0
   54.6270  104.7030   32.2660 C   0  0  0  0  0  0
   54.3810  104.1290   33.6210 N   0  3  0  0  0  0
   53.1150  104.5420   34.1740 C   0  0  0  0  0  0
   52.0800  103.5830   33.5880 C   0  0  0  0  0  0
   51.6870  103.9220   32.2070 C   0  0  0  0  0  0
   51.5610  102.4130   28.8340 C   0  0  0  0  0  0
   51.2790  101.4510   27.7520 C   0  0  0  0  0  0
   51.5120   99.9720   27.8050 C   0  0  0  0  0  0
   52.0450   99.1860   29.0090 C   0  0  0  0  0  0
   50.7400  102.0040   26.4730 C   0  0  0  0  0  0
   50.4960  103.4160   26.3280 C   0  0  0  0  0  0
   50.7670  104.2770   27.3880 C   0  0  0  0  0  0
   51.2940  103.7870   28.6220 C   0  0  0  0  0  0
   50.4690  101.0950   25.4020 C   0  0  0  0  0  0
   50.7220   99.7750   25.5500 N   0  0  0  0  0  0
   51.2050   99.2280   26.6890 C   0  0  0  0  0  0
   54.5478  102.7622   31.3533 H   0  0  0  0  0  0
   54.0341  103.6840   29.0142 H   0  0  0  0  0  0
   55.5008  104.4579   29.7045 H   0  0  0  0  0  0
   53.9330  105.3346   29.7156 H   0  0  0  0  0  0
   55.7086  104.8434   32.1227 H   0  0  0  0  0  0
   54.1174  105.6745   32.1859 H   0  0  0  0  0  0
   54.3816  103.0307   33.5596 H   0  0  0  0  0  0
   55.1743  104.4582   34.3082 H   0  0  0  0  0  0
   53.1531  104.4700   35.2710 H   0  0  0  0  0  0
   52.9091  105.5823   33.8818 H   0  0  0  0  0  0
   52.4915  102.5630   33.5745 H   0  0  0  0  0  0
   51.1702  103.6032   34.2059 H   0  0  0  0  0  0
   51.7099  105.0106   32.0511 H   0  0  0  0  0  0
   50.6797  103.5407   31.9834 H   0  0  0  0  0  0
   52.2545   99.8800   29.8363 H   0  0  0  0  0  0
   52.9706   98.6637   28.7253 H   0  0  0  0  0  0
   51.2923   98.4505   29.3291 H   0  0  0  0  0  0
   50.1005  103.8092   25.3915 H   0  0  0  0  0  0
   50.5737  105.3437   27.2743 H   0  0  0  0  0  0
   51.4971  104.4939   29.4264 H   0  0  0  0  0  0
   50.0574  101.4676   24.4640 H   0  0  0  0  0  0
   51.3579   98.1494   26.7243 H   0  0  0  0  0  0
  1  2  2  0  0  0
  2  3  2  0  0  0
  2  4  1  0  0  0
  2 12  1  0  0  0
  4  5  1  0  0  0
  4 11  1  0  0  0
  5  6  1  0  0  0
  5  7  1  0  0  0
  5 23  1  0  0  0
  6 24  1  0  0  0
  6 25  1  0  0  0
  6 26  1  0  0  0
  7  8  1  0  0  0
  7 27  1  0  0  0
  7 28  1  0  0  0
  8  9  1  0  0  0
  8 29  1  0  0  0
  8 30  1  0  0  0
  9 10  1  0  0  0
  9 31  1  0  0  0
  9 32  1  0  0  0
 10 11  1  0  0  0
 10 33  1  0  0  0
 10 34  1  0  0  0
 11 35  1  0  0  0
 11 36  1  0  0  0
 12 13  2  0  0  0
 12 19  1  0  0  0
 13 14  1  0  0  0
 13 16  1  0  0  0
 14 15  1  0  0  0
 14 22  2  0  0  0
 15 37  1  0  0  0
 15 38  1  0  0  0
 15 39  1  0  0  0
 16 17  2  0  0  0
 16 20  1  0  0  0
 17 18  1  0  0  0
 17 40  1  0  0  0
 18 19  2  0  0  0
 18 41  1  0  0  0
 19 42  1  0  0  0
 20 21  2  0  0  0
 20 43  1  0  0  0
 21 22  1  0  0  0
 22 44  1  0  0  0
M  CHG  1   8   1
M  END
> <s_m_source_file>
../3d9v_ligand.sdf

> <i_m_source_file_index>
1

> <s_epik_input>
W0NIMl0xW0NIMl1bQ0gyXVtOSDIrXVtDSDJdW0NASF0oW0NIM10pTjFTKD1PKSg9TyljMltjSF1bY0hdW2NIXWMoYzIzKVtjSF1uW2NIXWMzW0NIM10=

> <s_epik_cmdline>
J2VwaWtfYXBwJywgJy1pbWFlJywgJ2xpZ2FuZF9wcm8ubWFlJywgJy1vbWFlJywgJ2xpZ2FuZF9wcmVwLm1hZScsICctbXMnLCAnMScsICctcGgnLCAnNycsICctcGh0JywgJzAuNScsICctbnQn

> <r_lp_tautomer_probability>
1

> <r_epik_Ionization_Penalty>
  0.0096

> <r_epik_Ionization_Penalty_Charging>
  0.0080

> <r_epik_Ionization_Penalty_Neutral>
  0.0016

> <r_epik_State_Penalty>
 -0.0000

> <r_epik_Charging_Adjusted_Penalty>
0.00796083755350341

> <i_epik_Tot_Q>
1

> <i_epik_Tot_abs_Q>
1

$$$$
