3da9_ligand
                    3D
 Schrodinger Suite 2020-3.
 58 60  0  0  1  0            999 V2000
   12.3680   -9.6120   20.9670 C   0  0  0  0  0  0
   13.8190   -9.7540   21.4300 C   0  0  0  0  0  0
   14.6080  -10.5260   20.3690 C   0  0  0  0  0  0
   18.0940  -11.9150   21.1850 C   0  0  1  0  0  0
   19.1180  -11.9150   20.0260 C   0  0  0  0  0  0
   20.2430  -12.8380   20.5760 C   0  0  0  0  0  0
   19.4040  -13.9100   21.3130 C   0  0  0  0  0  0
   17.4560  -13.6380   22.9020 C   0  0  0  0  0  0
   17.7290  -14.9700   23.5520 C   0  0  1  0  0  0
   18.6010  -17.2540   25.3790 C   0  0  0  0  0  0
   18.5180  -18.3870   26.1880 C   0  0  0  0  0  0
   17.9700  -18.2900   27.4660 C   0  0  0  0  0  0
   17.5220  -17.0590   27.9360 C   0  0  0  0  0  0
   19.6440  -14.1980   25.0770 C   0  0  0  0  0  0
   22.2420  -13.1420   25.2250 C   0  0  0  0  0  0
   15.9920  -10.6640   20.8190 N   0  0  0  0  0  0
   16.6700  -11.8280   20.6760 C   0  0  0  0  0  0
   16.1580  -12.8160   20.1620 O   0  0  0  0  0  0
   18.2500  -13.1920   21.9080 N   0  0  0  0  0  0
   16.5110  -12.9810   23.3160 O   0  0  0  0  0  0
   18.2290  -14.7630   25.0000 C   0  0  0  0  0  0
   18.1420  -16.0200   25.8480 C   0  0  0  0  0  0
   17.6130  -15.9280   27.1250 C   0  0  0  0  0  0
   20.6890  -14.7470   24.3330 C   0  0  0  0  0  0
   21.9760  -14.2260   24.4040 C   0  0  0  0  0  0
   21.2100  -12.5910   25.9820 C   0  0  0  0  0  0
   19.9220  -13.1170   25.9120 C   0  0  0  0  0  0
   16.4940  -15.7640   23.4780 N   0  3  0  0  0  0
   11.7940   -9.0580   21.7244 H   0  0  0  0  0  0
   11.9272  -10.6106   20.8308 H   0  0  0  0  0  0
   12.3394   -9.0653   20.0129 H   0  0  0  0  0  0
   14.2598   -8.7554   21.5662 H   0  0  0  0  0  0
   13.8476  -10.3007   22.3841 H   0  0  0  0  0  0
   14.1600  -11.5211   20.2308 H   0  0  0  0  0  0
   14.5786   -9.9752   19.4173 H   0  0  0  0  0  0
   18.2684  -11.0645   21.8604 H   0  0  0  0  0  0
   18.6432  -12.3136   19.1173 H   0  0  0  0  0  0
   19.4609  -10.8866   19.8396 H   0  0  0  0  0  0
   20.8313  -13.2386   19.7373 H   0  0  0  0  0  0
   20.9002  -12.2586   21.2412 H   0  0  0  0  0  0
   19.0689  -14.6718   20.5937 H   0  0  0  0  0  0
   20.0189  -14.3858   22.0911 H   0  0  0  0  0  0
   18.4950  -15.5361   23.0018 H   0  0  0  0  0  0
   19.0251  -17.3311   24.3779 H   0  0  0  0  0  0
   18.8812  -19.3471   25.8214 H   0  0  0  0  0  0
   17.8925  -19.1762   28.0958 H   0  0  0  0  0  0
   17.1001  -16.9788   28.9378 H   0  0  0  0  0  0
   23.2476  -12.7248   25.2781 H   0  0  0  0  0  0
   16.5062   -9.8110   21.2859 H   0  0  0  0  0  0
   17.5439  -14.0191   25.4327 H   0  0  0  0  0  0
   17.2654  -14.9648   27.4986 H   0  0  0  0  0  0
   20.4926  -15.6004   23.6839 H   0  0  0  0  0  0
   22.7767  -14.6708   23.8131 H   0  0  0  0  0  0
   21.4122  -11.7414   26.6343 H   0  0  0  0  0  0
   19.1257  -12.6801   26.5146 H   0  0  0  0  0  0
   16.1918  -15.8748   22.4261 H   0  0  0  0  0  0
   15.6959  -15.2535   24.0370 H   0  0  0  0  0  0
   16.6702  -16.7577   23.9155 H   0  0  0  0  0  0
  1  2  1  0  0  0
  1 29  1  0  0  0
  1 30  1  0  0  0
  1 31  1  0  0  0
  2  3  1  0  0  0
  2 32  1  0  0  0
  2 33  1  0  0  0
  3 16  1  0  0  0
  3 34  1  0  0  0
  3 35  1  0  0  0
  4  5  1  0  0  0
  4 17  1  0  0  0
  4 19  1  0  0  0
  4 36  1  0  0  0
  5  6  1  0  0  0
  5 37  1  0  0  0
  5 38  1  0  0  0
  6  7  1  0  0  0
  6 39  1  0  0  0
  6 40  1  0  0  0
  7 19  1  0  0  0
  7 41  1  0  0  0
  7 42  1  0  0  0
  8  9  1  0  0  0
  8 19  1  0  0  0
  8 20  2  0  0  0
  9 21  1  0  0  0
  9 28  1  0  0  0
  9 43  1  0  0  0
 10 11  2  0  0  0
 10 22  1  0  0  0
 10 44  1  0  0  0
 11 12  1  0  0  0
 11 45  1  0  0  0
 12 13  2  0  0  0
 12 46  1  0  0  0
 13 23  1  0  0  0
 13 47  1  0  0  0
 14 21  1  0  0  0
 14 24  2  0  0  0
 14 27  1  0  0  0
 15 25  2  0  0  0
 15 26  1  0  0  0
 15 48  1  0  0  0
 16 17  1  0  0  0
 16 49  1  0  0  0
 17 18  2  0  0  0
 21 22  1  0  0  0
 21 50  1  0  0  0
 22 23  2  0  0  0
 23 51  1  0  0  0
 24 25  1  0  0  0
 24 52  1  0  0  0
 25 53  1  0  0  0
 26 27  2  0  0  0
 26 54  1  0  0  0
 27 55  1  0  0  0
 28 56  1  0  0  0
 28 57  1  0  0  0
 28 58  1  0  0  0
M  CHG  1  28   1
M  END
> <s_m_source_file>
../3da9_ligand.sdf

> <i_m_source_file_index>
1

> <s_epik_input>
W0NIM11bQ0gyXVtDSDJdW05IXUMoPU8pW0NAQEhdMVtDSDJdW0NIMl1bQ0gyXU4xQyg9TylbQ0BIXShbTkgzK10pW0NIXShjMltjSF1bY0hdW2NIXVtjSF1bY0hdMiljM1tjSF1bY0hdW2NIXVtjSF1bY0hdMw==

> <s_epik_cmdline>
J2VwaWtfYXBwJywgJy1pbWFlJywgJ2xpZ2FuZF9wcm8ubWFlJywgJy1vbWFlJywgJ2xpZ2FuZF9wcmVwLm1hZScsICctbXMnLCAnMScsICctcGgnLCAnNycsICctcGh0JywgJzAuNScsICctbnQn

> <r_epik_Ionization_Penalty>
  0.2247

> <r_epik_Ionization_Penalty_Charging>
  0.2247

> <r_epik_Ionization_Penalty_Neutral>
  0.0000

> <r_epik_State_Penalty>
  0.2152

> <r_epik_Charging_Adjusted_Penalty>
0.439859807563127

> <i_epik_Tot_Q>
1

> <i_epik_Tot_abs_Q>
1

$$$$
