3dab_ligand
                    3D
 Schrodinger Suite 2020-3.
204207  0  0  1  0            999 V2000
  -11.2660  -18.3480   11.4280 N   0  3  0  0  0  0
  -10.4630  -19.0260   10.3600 C   0  0  2  0  0  0
  -10.3070  -20.5700   10.2610 C   0  0  0  0  0  0
  -10.8440  -21.2840   11.1090 O   0  0  0  0  0  0
   -9.5600  -18.0800    9.5200 C   0  0  0  0  0  0
   -8.2320  -17.5250   10.1390 C   0  0  0  0  0  0
   -8.3810  -16.7390   11.4580 C   0  0  0  0  0  0
   -7.4670  -15.9420   11.7740 O   0  0  0  0  0  0
   -9.3790  -16.9080   12.1860 O   0  0  0  0  0  0
   -9.6210  -21.0760    9.2340 N   0  0  0  0  0  0
   -9.4420  -22.5230    9.0160 C   0  0  2  0  0  0
   -8.0280  -22.9620    9.3970 C   0  0  0  0  0  0
   -7.0550  -22.3540    8.9580 O   0  0  0  0  0  0
   -9.6600  -22.8940    7.5350 C   0  0  2  0  0  0
  -10.9910  -22.5270    7.1340 O   0  0  0  0  0  0
   -9.4570  -24.3860    7.3040 C   0  0  0  0  0  0
   -7.9070  -24.0170   10.2000 N   0  0  0  0  0  0
   -6.5840  -24.4570   10.6530 C   0  0  2  0  0  0
   -5.5710  -24.5590    9.5100 C   0  0  0  0  0  0
   -4.4820  -23.9990    9.5980 O   0  0  0  0  0  0
   -6.6250  -25.8030   11.3860 C   0  0  0  0  0  0
   -5.2560  -26.3330   11.6980 C   0  0  0  0  0  0
   -4.5320  -25.8300   12.7660 C   0  0  0  0  0  0
   -4.6530  -27.2780   10.8720 C   0  0  0  0  0  0
   -3.2480  -26.2920   13.0320 C   0  0  0  0  0  0
   -3.3680  -27.7340   11.1380 C   0  0  0  0  0  0
   -2.6750  -27.2420   12.2190 C   0  0  0  0  0  0
   -5.9270  -25.2840    8.4530 N   0  0  0  0  0  0
   -5.0010  -25.5240    7.3470 C   0  0  2  0  0  0
   -4.5860  -24.2240    6.6860 C   0  0  0  0  0  0
   -3.4180  -24.0500    6.3500 O   0  0  0  0  0  0
   -5.5960  -26.4780    6.3150 C   0  0  0  0  0  0
   -6.8140  -25.9660    5.8180 O   0  0  0  0  0  0
   -5.5320  -23.2990    6.5360 N   0  0  0  0  0  0
   -5.2260  -21.9810    5.9880 C   0  0  2  0  0  0
   -4.2540  -21.1840    6.8550 C   0  0  0  0  0  0
   -3.3640  -20.5430    6.3200 O   0  0  0  0  0  0
   -6.5070  -21.1780    5.7520 C   0  0  0  0  0  0
   -7.2910  -21.6800    4.5590 C   0  0  0  0  0  0
   -6.6940  -21.8360    3.4740 O   0  0  0  0  0  0
   -8.5060  -21.9150    4.7050 O   0  0  0  0  0  0
   -4.4100  -21.2320    8.1770 N   0  0  0  0  0  0
   -3.4570  -20.5790    9.0880 C   0  0  2  0  0  0
   -2.0890  -21.2720    9.0410 C   0  0  0  0  0  0
   -1.0310  -20.6220    9.0100 O   0  0  0  0  0  0
   -3.9880  -20.5660   10.5320 C   0  0  0  0  0  0
   -5.1260  -19.5760   10.8520 C   0  0  0  0  0  0
   -5.7050  -19.8250   12.2390 C   0  0  0  0  0  0
   -4.6870  -18.1190   10.7270 C   0  0  0  0  0  0
   -2.1200  -22.5980    9.0410 N   0  0  0  0  0  0
   -0.8920  -23.3840    9.0690 C   0  0  2  0  0  0
   -0.0330  -23.1290    7.8310 C   0  0  0  0  0  0
    1.1880  -22.9850    7.9250 O   0  0  0  0  0  0
   -1.2160  -24.8750    9.2090 C   0  0  0  0  0  0
    0.0050  -25.6690    9.4950 C   0  0  0  0  0  0
    0.7810  -26.3350    8.5920 C   0  0  0  0  0  0
    0.6230  -25.8480   10.7700 C   0  0  0  0  0  0
    1.8370  -26.9270    9.2280 N   0  0  0  0  0  0
    1.7630  -26.6600   10.5680 C   0  0  0  0  0  0
    0.3090  -25.4290   12.0690 C   0  0  0  0  0  0
    2.6040  -27.0440   11.6140 C   0  0  0  0  0  0
    1.1400  -25.8200   13.1120 C   0  0  0  0  0  0
    2.2790  -26.6140   12.8730 C   0  0  0  0  0  0
   -0.6840  -23.0320    6.6780 N   0  0  0  0  0  0
    0.0070  -22.7760    5.4120 C   0  0  2  0  0  0
    0.7710  -21.4540    5.3780 C   0  0  0  0  0  0
    1.7750  -21.3340    4.6610 O   0  0  0  0  0  0
   -0.9890  -22.8560    4.2570 C   0  0  0  0  0  0
   -1.4030  -24.2880    3.9380 C   0  0  0  0  0  0
   -2.5900  -24.3530    2.9830 C   0  0  0  0  0  0
    0.3260  -20.4860    6.1790 N   0  0  0  0  0  0
    0.9720  -19.1780    6.2780 C   0  0  2  0  0  0
    2.2920  -19.1970    7.0650 C   0  0  0  0  0  0
    3.0650  -18.2450    6.9770 O   0  0  0  0  0  0
    0.0160  -18.1690    6.9320 C   0  0  0  0  0  0
   -1.3120  -17.8990    6.2170 C   0  0  0  0  0  0
   -2.3110  -17.1820    7.1410 C   0  0  0  0  0  0
   -1.0810  -17.1010    4.9450 C   0  0  0  0  0  0
    2.5500  -20.2620    7.8310 N   0  0  0  0  0  0
    3.7740  -20.3530    8.6440 C   0  0  2  0  0  0
    5.0650  -20.4020    7.8070 C   0  0  0  0  0  0
    5.1870  -21.2080    6.8800 O   0  0  0  0  0  0
    3.7340  -21.5750    9.5820 C   0  0  0  0  0  0
    2.7310  -21.5610   10.7360 C   0  0  0  0  0  0
    2.8110  -22.8680   11.5090 C   0  0  0  0  0  0
    2.9440  -20.3830   11.6710 C   0  0  0  0  0  0
    6.0430  -19.5460    8.1450 N   0  0  0  0  0  0
    7.3280  -19.6180    7.4660 C   0  0  2  0  0  0
    8.1650  -20.8300    7.8930 C   0  0  0  0  0  0
    7.8490  -21.4900    8.8970 O   0  0  0  0  0  0
    8.0100  -18.3220    7.9020 C   0  0  0  0  0  0
    7.4430  -18.0440    9.2430 C   0  0  0  0  0  0
    6.0130  -18.4660    9.1510 C   0  0  0  0  0  0
    9.2100  -21.1200    7.1200 N   0  0  0  0  0  0
   10.2340  -22.0790    7.5330 C   0  0  2  0  0  0
   11.1830  -21.3850    8.5000 C   0  0  0  0  0  0
   11.4980  -21.9190    9.5620 O   0  0  0  0  0  0
   11.0200  -22.6120    6.3310 C   0  0  0  0  0  0
   10.2600  -23.6190    5.4910 C   0  0  0  0  0  0
   11.0640  -24.1260    4.3050 C   0  0  0  0  0  0
   10.4590  -24.3550    3.2410 O   0  0  0  0  0  0
   12.2950  -24.3000    4.4260 O   0  0  0  0  0  0
   11.6766  -20.1887    8.1931 O   0  0  0  0  0  0
  -11.2224  -17.2584   11.2835 H   0  0  0  0  0  0
  -10.8533  -18.6038   12.4151 H   0  0  0  0  0  0
  -12.3118  -18.6841   11.3695 H   0  0  0  0  0  0
  -11.4092  -19.3217    9.8832 H   0  0  0  0  0  0
   -9.2350  -18.5991    8.6063 H   0  0  0  0  0  0
  -10.1275  -17.1781    9.2471 H   0  0  0  0  0  0
   -7.5510  -18.3612   10.3557 H   0  0  0  0  0  0
   -7.7537  -16.8382    9.4252 H   0  0  0  0  0  0
   -7.5392  -15.3645   12.7074 H   0  0  0  0  0  0
   -9.1781  -20.3550    8.5312 H   0  0  0  0  0  0
  -10.1932  -22.9935    9.6675 H   0  0  0  0  0  0
   -8.9721  -22.3240    6.8932 H   0  0  0  0  0  0
  -11.3253  -21.4831    7.2269 H   0  0  0  0  0  0
   -8.4391  -24.6693    7.6101 H   0  0  0  0  0  0
   -9.5958  -24.6140    6.2369 H   0  0  0  0  0  0
  -10.1895  -24.9520    7.8982 H   0  0  0  0  0  0
   -8.8076  -24.5594   10.5235 H   0  0  0  0  0  0
   -6.3027  -23.6492   11.3446 H   0  0  0  0  0  0
   -7.1664  -25.6866   12.3364 H   0  0  0  0  0  0
   -7.1398  -26.5462   10.7594 H   0  0  0  0  0  0
   -4.9731  -25.0644   13.4043 H   0  0  0  0  0  0
   -5.1945  -27.6637   10.0082 H   0  0  0  0  0  0
   -2.6948  -25.9009   13.8858 H   0  0  0  0  0  0
   -2.9094  -28.4812   10.4903 H   0  0  0  0  0  0
   -1.6697  -27.6055   12.4320 H   0  0  0  0  0  0
   -6.9421  -25.7066    8.4220 H   0  0  0  0  0  0
   -4.1210  -25.9903    7.8141 H   0  0  0  0  0  0
   -4.8909  -26.6006    5.4796 H   0  0  0  0  0  0
   -5.7825  -27.4555    6.7838 H   0  0  0  0  0  0
   -7.3798  -26.5298    5.0617 H   0  0  0  0  0  0
   -6.5617  -23.5449    6.8348 H   0  0  0  0  0  0
   -4.7283  -22.2092    5.0339 H   0  0  0  0  0  0
   -7.1540  -21.2509    6.6386 H   0  0  0  0  0  0
   -6.2508  -20.1237    5.5708 H   0  0  0  0  0  0
   -7.2418  -22.1998    2.5922 H   0  0  0  0  0  0
   -5.2755  -21.7756    8.5838 H   0  0  0  0  0  0
   -3.3674  -19.5490    8.7125 H   0  0  0  0  0  0
   -4.3822  -21.5609   10.7867 H   0  0  0  0  0  0
   -3.1703  -20.3082   11.2211 H   0  0  0  0  0  0
   -5.9160  -19.7486   10.1063 H   0  0  0  0  0  0
   -6.0190  -20.8760   12.3220 H   0  0  0  0  0  0
   -6.5739  -19.1691   12.3968 H   0  0  0  0  0  0
   -4.9401  -19.6097   12.9997 H   0  0  0  0  0  0
   -4.2702  -17.9464    9.7237 H   0  0  0  0  0  0
   -3.9204  -17.9007   11.4851 H   0  0  0  0  0  0
   -5.5541  -17.4602   10.8821 H   0  0  0  0  0  0
   -3.0965  -23.1040    9.0193 H   0  0  0  0  0  0
   -0.3462  -23.0296    9.9558 H   0  0  0  0  0  0
   -1.9281  -25.0195   10.0348 H   0  0  0  0  0  0
   -1.6608  -25.2431    8.2727 H   0  0  0  0  0  0
    0.5876  -26.3876    7.5206 H   0  0  0  0  0  0
   -0.5680  -24.8098   12.2578 H   0  0  0  0  0  0
    3.4843  -27.6615   11.4358 H   0  0  0  0  0  0
    0.9071  -25.5078   14.1300 H   0  0  0  0  0  0
    2.9176  -26.8931   13.7111 H   0  0  0  0  0  0
   -1.7775  -23.1505    6.6936 H   0  0  0  0  0  0
    0.7575  -23.5777    5.3494 H   0  0  0  0  0  0
   -1.8970  -22.2918    4.5161 H   0  0  0  0  0  0
   -0.5359  -22.4259    3.3516 H   0  0  0  0  0  0
   -0.5608  -24.8172    3.4683 H   0  0  0  0  0  0
   -1.6872  -24.8032    4.8674 H   0  0  0  0  0  0
   -2.8460  -25.4048    2.7874 H   0  0  0  0  0  0
   -2.3269  -23.8576    2.0368 H   0  0  0  0  0  0
   -3.4533  -23.8436    3.4359 H   0  0  0  0  0  0
   -0.5677  -20.7051    6.7817 H   0  0  0  0  0  0
    1.1924  -18.9295    5.2293 H   0  0  0  0  0  0
   -0.2577  -18.5218    7.9373 H   0  0  0  0  0  0
    0.5125  -17.1905    7.0094 H   0  0  0  0  0  0
   -1.7478  -18.8678    5.9314 H   0  0  0  0  0  0
   -2.4606  -17.7789    8.0528 H   0  0  0  0  0  0
   -3.2720  -17.0622    6.6194 H   0  0  0  0  0  0
   -1.9148  -16.1922    7.4116 H   0  0  0  0  0  0
   -0.3644  -17.6340    4.3028 H   0  0  0  0  0  0
   -0.6770  -16.1106    5.2018 H   0  0  0  0  0  0
   -2.0343  -16.9806    4.4095 H   0  0  0  0  0  0
    1.8190  -21.0839    7.8436 H   0  0  0  0  0  0
    3.7525  -19.4113    9.2122 H   0  0  0  0  0  0
    3.4882  -22.4757    9.0004 H   0  0  0  0  0  0
    4.7168  -21.7035   10.0590 H   0  0  0  0  0  0
    1.7247  -21.4500   10.3058 H   0  0  0  0  0  0
    2.6551  -23.7114   10.8203 H   0  0  0  0  0  0
    2.0339  -22.8818   12.2874 H   0  0  0  0  0  0
    3.8019  -22.9562   11.9785 H   0  0  0  0  0  0
    2.8836  -19.4453   11.0990 H   0  0  0  0  0  0
    3.9353  -20.4626   12.1410 H   0  0  0  0  0  0
    2.1673  -20.3881   12.4500 H   0  0  0  0  0  0
    7.1638  -19.7275    6.3839 H   0  0  0  0  0  0
    9.0987  -18.4749    7.9384 H   0  0  0  0  0  0
    7.7757  -17.5241    7.1819 H   0  0  0  0  0  0
    7.9904  -18.6246   10.0001 H   0  0  0  0  0  0
    7.5368  -16.9708    9.4655 H   0  0  0  0  0  0
    5.3570  -17.6559    8.7997 H   0  0  0  0  0  0
    5.6291  -18.8620   10.1028 H   0  0  0  0  0  0
    9.2903  -20.6150    6.1461 H   0  0  0  0  0  0
    9.7043  -22.9134    8.0158 H   0  0  0  0  0  0
   11.2889  -21.7758    5.6688 H   0  0  0  0  0  0
   11.9355  -23.1099    6.6831 H   0  0  0  0  0  0
    9.9939  -24.4875    6.1114 H   0  0  0  0  0  0
    9.3435  -23.1531    5.1000 H   0  0  0  0  0  0
   12.8851  -24.6666    3.5731 H   0  0  0  0  0  0
   12.3628  -19.6822    8.8877 H   0  0  0  0  0  0
  1  2  1  0  0  0
  1104  1  0  0  0
  1105  1  0  0  0
  1106  1  0  0  0
  2  5  1  0  0  0
  2  3  1  0  0  0
  2107  1  0  0  0
  3  4  2  0  0  0
  3 10  1  0  0  0
  5  6  1  0  0  0
  5108  1  0  0  0
  5109  1  0  0  0
  6  7  1  0  0  0
  6110  1  0  0  0
  6111  1  0  0  0
  7  9  2  0  0  0
  7  8  1  0  0  0
  8112  1  0  0  0
 10 11  1  0  0  0
 10113  1  0  0  0
 11 14  1  0  0  0
 11 12  1  0  0  0
 11114  1  0  0  0
 12 13  2  0  0  0
 12 17  1  0  0  0
 14 16  1  0  0  0
 14 15  1  0  0  0
 14115  1  0  0  0
 15116  1  0  0  0
 16117  1  0  0  0
 16118  1  0  0  0
 16119  1  0  0  0
 17 18  1  0  0  0
 17120  1  0  0  0
 18 21  1  0  0  0
 18 19  1  0  0  0
 18121  1  0  0  0
 19 20  2  0  0  0
 19 28  1  0  0  0
 21 22  1  0  0  0
 21122  1  0  0  0
 21123  1  0  0  0
 22 23  2  0  0  0
 22 24  1  0  0  0
 23 25  1  0  0  0
 23124  1  0  0  0
 24 26  2  0  0  0
 24125  1  0  0  0
 25 27  2  0  0  0
 25126  1  0  0  0
 26 27  1  0  0  0
 26127  1  0  0  0
 27128  1  0  0  0
 28 29  1  0  0  0
 28129  1  0  0  0
 29 32  1  0  0  0
 29 30  1  0  0  0
 29130  1  0  0  0
 30 31  2  0  0  0
 30 34  1  0  0  0
 32 33  1  0  0  0
 32131  1  0  0  0
 32132  1  0  0  0
 33133  1  0  0  0
 34 35  1  0  0  0
 34134  1  0  0  0
 35 38  1  0  0  0
 35 36  1  0  0  0
 35135  1  0  0  0
 36 37  2  0  0  0
 36 42  1  0  0  0
 38 39  1  0  0  0
 38136  1  0  0  0
 38137  1  0  0  0
 39 40  1  0  0  0
 39 41  2  0  0  0
 40138  1  0  0  0
 42 43  1  0  0  0
 42139  1  0  0  0
 43 46  1  0  0  0
 43 44  1  0  0  0
 43140  1  0  0  0
 44 45  2  0  0  0
 44 50  1  0  0  0
 46 47  1  0  0  0
 46141  1  0  0  0
 46142  1  0  0  0
 47 48  1  0  0  0
 47 49  1  0  0  0
 47143  1  0  0  0
 48144  1  0  0  0
 48145  1  0  0  0
 48146  1  0  0  0
 49147  1  0  0  0
 49148  1  0  0  0
 49149  1  0  0  0
 50 51  1  0  0  0
 50150  1  0  0  0
 51 54  1  0  0  0
 51 52  1  0  0  0
 51151  1  0  0  0
 52 53  2  0  0  0
 52 64  1  0  0  0
 54 55  1  0  0  0
 54152  1  0  0  0
 54153  1  0  0  0
 55 56  2  0  0  0
 55 57  1  0  0  0
 56 58  1  0  0  0
 56154  1  0  0  0
 57 60  2  0  0  0
 57 59  1  0  0  0
 58 59  1  0  0  0
 59 61  2  0  0  0
 60 62  1  0  0  0
 60155  1  0  0  0
 61 63  1  0  0  0
 61156  1  0  0  0
 62 63  2  0  0  0
 62157  1  0  0  0
 63158  1  0  0  0
 64 65  1  0  0  0
 64159  1  0  0  0
 65 68  1  0  0  0
 65 66  1  0  0  0
 65160  1  0  0  0
 66 67  2  0  0  0
 66 71  1  0  0  0
 68 69  1  0  0  0
 68161  1  0  0  0
 68162  1  0  0  0
 69 70  1  0  0  0
 69163  1  0  0  0
 69164  1  0  0  0
 70165  1  0  0  0
 70166  1  0  0  0
 70167  1  0  0  0
 71 72  1  0  0  0
 71168  1  0  0  0
 72 75  1  0  0  0
 72 73  1  0  0  0
 72169  1  0  0  0
 73 74  2  0  0  0
 73 79  1  0  0  0
 75 76  1  0  0  0
 75170  1  0  0  0
 75171  1  0  0  0
 76 77  1  0  0  0
 76 78  1  0  0  0
 76172  1  0  0  0
 77173  1  0  0  0
 77174  1  0  0  0
 77175  1  0  0  0
 78176  1  0  0  0
 78177  1  0  0  0
 78178  1  0  0  0
 79 80  1  0  0  0
 79179  1  0  0  0
 80 83  1  0  0  0
 80 81  1  0  0  0
 80180  1  0  0  0
 81 82  2  0  0  0
 81 87  1  0  0  0
 83 84  1  0  0  0
 83181  1  0  0  0
 83182  1  0  0  0
 84 85  1  0  0  0
 84 86  1  0  0  0
 84183  1  0  0  0
 85184  1  0  0  0
 85185  1  0  0  0
 85186  1  0  0  0
 86187  1  0  0  0
 86188  1  0  0  0
 86189  1  0  0  0
 87 88  1  0  0  0
 87 93  1  0  0  0
 88 89  1  0  0  0
 88 91  1  0  0  0
 88190  1  0  0  0
 89 90  2  0  0  0
 89 94  1  0  0  0
 91 92  1  0  0  0
 91191  1  0  0  0
 91192  1  0  0  0
 92 93  1  0  0  0
 92193  1  0  0  0
 92194  1  0  0  0
 93195  1  0  0  0
 93196  1  0  0  0
 94 95  1  0  0  0
 94197  1  0  0  0
 95 98  1  0  0  0
 95 96  1  0  0  0
 95198  1  0  0  0
 96 97  2  0  0  0
 96103  1  0  0  0
 98 99  1  0  0  0
 98199  1  0  0  0
 98200  1  0  0  0
 99100  1  0  0  0
 99201  1  0  0  0
 99202  1  0  0  0
100102  1  0  0  0
100101  2  0  0  0
102203  1  0  0  0
103204  1  0  0  0
M  CHG  1   1   1
M  END
> <s_m_source_file>
../3dab_ligand.sdf

> <i_m_source_file_index>
1

> <s_epik_input>
W09IXUMoPU8pW0NIMl1bQ0gyXVtDQEhdKFtOSDMrXSlDKD1PKVtOSF1bQ0BASF0oW0NASF0oW09IXSlbQ0gzXSlDKD1PKVtOSF1bQ0BASF0oW0NIMl1jMVtjSF1bY0hdW2NIXVtjSF1bY0hdMSlDKD1PKVtOSF1bQ0BASF0oW0NIMl1bT0hdKUMoPU8pW05IXVtDQEBIXShbQ0gyXUMoPU8pW09IXSlDKD1PKVtOSF1bQ0BASF0oW0NIMl1bQ0hdKFtDSDNdKVtDSDNdKUMoPU8pW05IXVtDQEBIXShbQ0gyXWMyW2NIXVtuSF1jKGMyMylbY0hdW2NIXVtjSF1bY0hdMylDKD1PKVtOSF1bQ0BASF0oW0NIMl1bQ0gyXVtDSDNdKUMoPU8pW05IXVtDQEBIXShbQ0gyXVtDSF0oW0NIM10pW0NIM10pQyg9TylbTkhdW0NAQEhdKFtDSDJdW0NIXShbQ0gzXSlbQ0gzXSlDKD1PKU40W0NAQEhdKFtDSDJdW0NIMl1bQ0gyXTQpQyg9TylbTkhdW0NASF0oQyg9TylbT0hdKVtDSDJdW0NIMl1DKD1PKVtPSF0=

> <s_epik_cmdline>
J2VwaWtfYXBwJywgJy1pbWFlJywgJ2xpZ2FuZF9wcm8ubWFlJywgJy1vbWFlJywgJ2xpZ2FuZF9wcmVwLm1hZScsICctbXMnLCAnMScsICctcGgnLCAnNycsICctcGh0JywgJzAuNScsICctbnQn

> <s_epik_pKa_notes>
Molecule size exceeds maximum supported for generating protonation states

$$$$
