3daj_ligand
                    3D
 Schrodinger Suite 2020-3.
 54 56  0  0  1  0            999 V2000
   73.1820   22.8950    7.8020 O   0  0  0  0  0  0
   72.5920   22.0780    7.1100 C   0  0  0  0  0  0
   71.2610   21.5100    7.5540 C   0  0  0  0  0  0
   70.4200   22.5610    8.2730 C   0  0  0  0  0  0
   69.3260   23.1030    7.3630 C   0  0  0  0  0  0
   69.7120   24.4670    6.8050 C   0  0  0  0  0  0
   68.5820   25.0450    5.9640 C   0  0  0  0  0  0
   68.9530   24.7540    4.5850 N   0  0  0  0  0  0
   68.1410   25.0770    3.5450 C   0  0  0  0  0  0
   68.5330   24.7830    2.2450 C   0  0  0  0  0  0
   67.6800   25.1320    1.2210 C   0  0  0  0  0  0
   68.2170   24.7710    0.0430 N   0  3  0  0  0  0
   69.4120   24.1980    0.3300 C   0  0  0  0  0  0
   69.6080   24.2030    1.6740 N   0  0  0  0  0  0
   66.4880   25.7390    1.4390 N   0  0  0  0  0  0
   66.1390   26.0100    2.7080 C   0  0  0  0  0  0
   66.9440   25.6890    3.7390 N   0  0  0  0  0  0
   73.0500   21.6220    5.9420 N   0  0  0  0  0  0
   74.2710   22.0190    5.3660 C   0  0  0  0  0  0
   74.6090   23.3650    5.2020 C   0  0  0  0  0  0
   75.8290   23.7220    4.6240 C   0  0  0  0  0  0
   76.7150   22.7300    4.2020 C   0  0  0  0  0  0
   76.3820   21.3830    4.3620 C   0  0  0  0  0  0
   75.1600   21.0330    4.9400 C   0  0  0  0  0  0
   77.3270   20.3060    3.9100 C   0  0  0  0  0  0
   78.6230   20.3940    4.2070 O   0  0  0  0  0  0
   76.8770   19.3250    3.2500 N   0  0  0  0  0  0
   77.5900   18.4270    2.8590 C   0  0  0  0  0  0
   78.3080   17.4760    2.4630 C   0  0  0  0  0  0
   78.3650   16.2320    3.2270 C   0  0  0  0  0  0
   77.4470   15.2980    3.0480 C   0  0  0  0  0  0
   70.7018   21.1565    6.6752 H   0  0  0  0  0  0
   71.4324   20.6691    8.2422 H   0  0  0  0  0  0
   69.9495   22.1105    9.1594 H   0  0  0  0  0  0
   71.0646   23.3961    8.5846 H   0  0  0  0  0  0
   69.1692   22.4086    6.5244 H   0  0  0  0  0  0
   68.3914   23.2053    7.9340 H   0  0  0  0  0  0
   69.9248   25.1561    7.6356 H   0  0  0  0  0  0
   70.6076   24.3652    6.1745 H   0  0  0  0  0  0
   67.6341   24.5604    6.2408 H   0  0  0  0  0  0
   68.5069   26.1274    6.1449 H   0  0  0  0  0  0
   69.9115   24.2608    4.3657 H   0  0  0  0  0  0
   70.1086   23.7951   -0.4052 H   0  0  0  0  0  0
   65.1855   26.4993    2.9069 H   0  0  0  0  0  0
   72.4621   20.8902    5.3686 H   0  0  0  0  0  0
   73.9161   24.1410    5.5273 H   0  0  0  0  0  0
   76.0887   24.7736    4.5027 H   0  0  0  0  0  0
   77.6665   23.0062    3.7477 H   0  0  0  0  0  0
   74.8992   19.9814    5.0590 H   0  0  0  0  0  0
   78.8959   17.5784    1.5389 H   0  0  0  0  0  0
   79.1758   16.0742    3.9534 H   0  0  0  0  0  0
   76.6362   15.4558    2.3216 H   0  0  0  0  0  0
   77.4939   14.3629    3.6254 H   0  0  0  0  0  0
   67.6733   24.9679   -0.8927 H   0  0  0  0  0  0
  1  2  2  0  0  0
  2  3  1  0  0  0
  2 18  1  0  0  0
  3  4  1  0  0  0
  3 32  1  0  0  0
  3 33  1  0  0  0
  4  5  1  0  0  0
  4 34  1  0  0  0
  4 35  1  0  0  0
  5  6  1  0  0  0
  5 36  1  0  0  0
  5 37  1  0  0  0
  6  7  1  0  0  0
  6 38  1  0  0  0
  6 39  1  0  0  0
  7  8  1  0  0  0
  7 40  1  0  0  0
  7 41  1  0  0  0
  8  9  1  0  0  0
  8 42  1  0  0  0
  9 10  2  0  0  0
  9 17  1  0  0  0
 10 11  1  0  0  0
 10 14  1  0  0  0
 11 12  2  0  0  0
 11 15  1  0  0  0
 12 13  1  0  0  0
 12 54  1  0  0  0
 13 14  2  0  0  0
 13 43  1  0  0  0
 15 16  1  0  0  0
 16 17  2  0  0  0
 16 44  1  0  0  0
 18 19  1  0  0  0
 18 45  1  0  0  0
 19 20  2  0  0  0
 19 24  1  0  0  0
 20 21  1  0  0  0
 20 46  1  0  0  0
 21 22  2  0  0  0
 21 47  1  0  0  0
 22 23  1  0  0  0
 22 48  1  0  0  0
 23 24  2  0  0  0
 23 25  1  0  0  0
 24 49  1  0  0  0
 25 26  2  0  0  0
 25 27  1  0  0  0
 27 28  2  0  0  0
 28 29  2  0  0  0
 29 30  1  0  0  0
 29 50  1  0  0  0
 30 31  2  0  0  0
 30 51  1  0  0  0
 31 52  1  0  0  0
 31 53  1  0  0  0
M  CHG  1  12   1
M  END
> <s_m_source_file>
../3daj_ligand.sdf

> <i_m_source_file_index>
1

> <s_epik_input>
W0NIMl09W0NIXVtDSF09Qz1OQyg9TyljKFtjSF0xKVtjSF1bY0hdW2NIXWMxW05IXUMoPU8pW0NIMl1bQ0gyXVtDSDJdW0NIMl1bQ0gyXVtOSF1jMm5bY0hdW25IXWMoYzIzKW5bY0hdbjM=

> <s_epik_cmdline>
J2VwaWtfYXBwJywgJy1pbWFlJywgJ2xpZ2FuZF9wcm8ubWFlJywgJy1vbWFlJywgJ2xpZ2FuZF9wcmVwLm1hZScsICctbXMnLCAnMScsICctcGgnLCAnNycsICctcGh0JywgJzAuNScsICctbnQn

> <r_epik_Ionization_Penalty>
  0.0033

> <r_epik_Ionization_Penalty_Charging>
  0.0000

> <r_epik_Ionization_Penalty_Neutral>
  0.0033

> <r_epik_State_Penalty>
  0.4100

> <r_epik_Charging_Adjusted_Penalty>
0.409957259886102

> <i_epik_Tot_Q>
1

> <i_epik_Tot_abs_Q>
1

> <s_epik_Chemistry_Notes>
This compound has an imine and may undergo hydrolysis.

$$$$
