3daz_ligand
                    3D
 Schrodinger Suite 2020-3.
 23 23  0  0  1  0            999 V2000
   -5.5550   -0.4510   16.4680 N   0  0  0  0  0  0
   -6.0000    0.5600   16.8090 S   0  0  0  0  0  0
   -7.1860    0.6660   16.6850 O   0  0  0  0  0  0
   -5.5980    0.6550   17.8500 O   0  0  0  0  0  0
   -5.1700    1.7910   15.9800 C   0  0  0  0  0  0
   -6.1000    2.9520   15.1060 S   0  0  0  0  0  0
   -4.6230    3.6330   14.5910 C   0  0  0  0  0  0
   -3.5950    3.0800   15.0830 N   0  0  0  0  0  0
   -2.2030    3.5200   14.8140 C   0  0  0  0  0  0
   -3.8850    1.9760   15.8510 N   0  0  0  0  0  0
   -4.7950    4.7370   13.7670 N   0  0  0  0  0  0
   -5.6410    5.4330   13.2030 C   0  0  0  0  0  0
   -5.5900    6.4180   12.4610 O   0  3  0  0  0  0
   -6.8890    4.9640   13.5470 C   0  0  0  0  0  0
   -6.0710   -1.2723   16.9868 H   0  0  0  0  0  0
   -4.4826   -0.4801   16.7110 H   0  0  0  0  0  0
   -2.2186    4.4195   14.1810 H   0  0  0  0  0  0
   -1.6581    2.7168   14.2964 H   0  0  0  0  0  0
   -1.7008    3.7498   15.7653 H   0  0  0  0  0  0
   -6.7833    4.0900   14.2065 H   0  0  0  0  0  0
   -7.4349    4.6731   12.6374 H   0  0  0  0  0  0
   -7.4458    5.7542   14.0719 H   0  0  0  0  0  0
   -6.5191    6.8849   12.1021 H   0  0  0  0  0  0
  1  2  1  0  0  0
  1 15  1  0  0  0
  1 16  1  0  0  0
  2  3  2  0  0  0
  2  4  2  0  0  0
  2  5  1  0  0  0
  5  6  1  0  0  0
  5 10  2  0  0  0
  6  7  1  0  0  0
  7  8  1  0  0  0
  7 11  2  0  0  0
  8  9  1  0  0  0
  8 10  1  0  0  0
  9 17  1  0  0  0
  9 18  1  0  0  0
  9 19  1  0  0  0
 11 12  1  0  0  0
 12 13  2  0  0  0
 12 14  1  0  0  0
 13 23  1  0  0  0
 14 20  1  0  0  0
 14 21  1  0  0  0
 14 22  1  0  0  0
M  CHG  1  13   1
M  END
> <s_m_source_file>
../3daz_ligand.sdf

> <i_m_source_file_index>
1

> <s_epik_input>
W05IMl1TKD1PKSg9TyljMXNjKFtuK10objEpW0NIM10pW05IXUMoPU8pW0NIM10=

> <s_epik_cmdline>
J2VwaWtfYXBwJywgJy1pbWFlJywgJ2xpZ2FuZF9wcm8ubWFlJywgJy1vbWFlJywgJ2xpZ2FuZF9wcmVwLm1hZScsICctbXMnLCAnMScsICctcGgnLCAnNycsICctcGh0JywgJzAuNScsICctbnQn

> <r_epik_Ionization_Penalty>
  1.4090

> <r_epik_Ionization_Penalty_Charging>
  1.3432

> <r_epik_Ionization_Penalty_Neutral>
  0.0658

> <r_epik_State_Penalty>
  0.3660

> <r_epik_Charging_Adjusted_Penalty>
1.70925530267399

> <i_epik_Tot_Q>
1

> <i_epik_Tot_abs_Q>
1

$$$$
