3db8_ligand
                    3D
 Schrodinger Suite 2020-3.
 51 54  0  0  1  0            999 V2000
  118.7340   57.0660   42.6340 C   0  0  0  0  0  0
  119.0730   58.3360   43.1060 C   0  0  0  0  0  0
  119.8180   58.4830   44.2760 C   0  0  0  0  0  0
  119.8760   56.0900   44.5140 C   0  0  0  0  0  0
  119.1340   55.9260   43.3380 C   0  0  0  0  0  0
  118.8000   54.5410   42.8860 C   0  0  1  0  0  0
  117.7010   58.7540   47.1490 C   0  0  0  0  0  0
  115.7900   57.7220   45.8320 C   0  0  0  0  0  0
  114.2060   57.6080   48.1150 C   0  0  0  0  0  0
  115.4990   58.1240   48.1880 C   0  0  0  0  0  0
  116.2980   58.1870   47.0470 C   0  0  0  0  0  0
  113.6970   57.1510   46.9020 C   0  0  0  0  0  0
  114.4930   57.2010   45.7580 C   0  0  0  0  0  0
  113.9500   56.7110   44.4570 C   0  0  0  0  0  0
  114.7160   55.9710   43.4040 C   0  0  0  0  0  0
  113.8300   55.7250   42.3920 C   0  0  0  0  0  0
  114.2100   55.0470   41.2380 C   0  0  0  0  0  0
  116.0270   55.5400   43.3050 C   0  0  0  0  0  0
  116.4010   54.8600   42.1390 C   0  0  0  0  0  0
  113.1970   57.5350   49.5950 Cl  0  0  0  0  0  0
  117.7890   60.1280   46.4830 C   0  0  0  0  0  0
  117.3250   61.2490   47.4050 C   0  0  0  0  0  0
  116.1840   61.9040   46.8310 O   0  0  0  0  0  0
  112.5670   56.2490   42.7240 O   0  0  0  0  0  0
  112.6620   56.8650   44.0230 N   0  0  0  0  0  0
  115.4890   54.6320   41.1470 N   0  0  0  0  0  0
  117.6750   54.4160   41.9540 N   0  0  0  0  0  0
  120.0120   53.9160   42.2000 C   0  0  0  0  0  0
  120.2210   57.3570   44.9880 C   0  0  0  0  0  0
  118.1566   56.9633   41.7152 H   0  0  0  0  0  0
  118.7525   59.2202   42.5551 H   0  0  0  0  0  0
  120.0842   59.4782   44.6322 H   0  0  0  0  0  0
  120.1914   55.2084   45.0721 H   0  0  0  0  0  0
  118.4675   54.0395   43.8068 H   0  0  0  0  0  0
  117.9783   58.8580   48.2084 H   0  0  0  0  0  0
  118.4081   58.0751   46.6499 H   0  0  0  0  0  0
  116.4079   57.7651   44.9351 H   0  0  0  0  0  0
  115.8875   58.4801   49.1421 H   0  0  0  0  0  0
  112.6824   56.7565   46.8470 H   0  0  0  0  0  0
  113.4976   54.8579   40.4350 H   0  0  0  0  0  0
  116.7433   55.7231   44.1059 H   0  0  0  0  0  0
  118.8319   60.3312   46.1981 H   0  0  0  0  0  0
  117.1543   60.1414   45.5847 H   0  0  0  0  0  0
  117.0509   60.8288   48.3839 H   0  0  0  0  0  0
  118.1384   61.9782   47.5338 H   0  0  0  0  0  0
  115.7088   62.7440   47.3588 H   0  0  0  0  0  0
  117.8174   53.9180   40.9836 H   0  0  0  0  0  0
  120.8860   53.9862   42.8643 H   0  0  0  0  0  0
  120.2199   54.4526   41.2625 H   0  0  0  0  0  0
  119.8035   52.8588   41.9789 H   0  0  0  0  0  0
  120.7996   57.4633   45.9056 H   0  0  0  0  0  0
  1  2  2  0  0  0
  1  5  1  0  0  0
  1 30  1  0  0  0
  2  3  1  0  0  0
  2 31  1  0  0  0
  3 29  2  0  0  0
  3 32  1  0  0  0
  4  5  2  0  0  0
  4 29  1  0  0  0
  4 33  1  0  0  0
  5  6  1  0  0  0
  6 27  1  0  0  0
  6 28  1  0  0  0
  6 34  1  0  0  0
  7 11  1  0  0  0
  7 21  1  0  0  0
  7 35  1  0  0  0
  7 36  1  0  0  0
  8 11  2  0  0  0
  8 13  1  0  0  0
  8 37  1  0  0  0
  9 10  2  0  0  0
  9 12  1  0  0  0
  9 20  1  0  0  0
 10 11  1  0  0  0
 10 38  1  0  0  0
 12 13  2  0  0  0
 12 39  1  0  0  0
 13 14  1  0  0  0
 14 15  1  0  0  0
 14 25  2  0  0  0
 15 16  2  0  0  0
 15 18  1  0  0  0
 16 17  1  0  0  0
 16 24  1  0  0  0
 17 26  2  0  0  0
 17 40  1  0  0  0
 18 19  2  0  0  0
 18 41  1  0  0  0
 19 26  1  0  0  0
 19 27  1  0  0  0
 21 22  1  0  0  0
 21 42  1  0  0  0
 21 43  1  0  0  0
 22 23  1  0  0  0
 22 44  1  0  0  0
 22 45  1  0  0  0
 23 46  1  0  0  0
 24 25  1  0  0  0
 27 47  1  0  0  0
 28 48  1  0  0  0
 28 49  1  0  0  0
 28 50  1  0  0  0
 29 51  1  0  0  0
M  END
> <s_m_source_file>
../3db8_ligand.sdf

> <i_m_source_file_index>
1

> <s_epik_input>
W2NIXTFbY0hdW2NIXVtjSF1bY0hdYzFbQ0BIXShbQ0gzXSlbTkhdYyhbY0hdMiluW2NIXWMoYzIzKW9uYzMtYyhbY0hdNClbY0hdYyhbY0hdYzRDbClbQ0gyXVtDSDJdW0NIMl1bT0hd

> <s_epik_cmdline>
J2VwaWtfYXBwJywgJy1pbWFlJywgJ2xpZ2FuZF9wcm8ubWFlJywgJy1vbWFlJywgJ2xpZ2FuZF9wcmVwLm1hZScsICctbXMnLCAnMScsICctcGgnLCAnNycsICctcGh0JywgJzAuNScsICctbnQn

> <r_lp_tautomer_probability>
1

> <r_epik_Ionization_Penalty>
  0.0000

> <r_epik_Ionization_Penalty_Charging>
  0.0000

> <r_epik_Ionization_Penalty_Neutral>
  0.0000

> <r_epik_State_Penalty>
 -0.0000

> <r_epik_Charging_Adjusted_Penalty>
0

> <i_epik_Tot_Q>
0

> <i_epik_Tot_abs_Q>
0

$$$$
