3dba_ligand
                    3D
 Schrodinger Suite 2020-3.
 34 37  0  0  1  0            999 V2000
   17.2480   35.9140   26.1770 P   0  0  2  0  0  0
   18.0360   36.1300   27.4490 O   0  0  0  0  0  0
   16.7590   37.0760   25.3400 O   0  5  0  0  0  0
   15.9490   35.0550   26.5650 O   0  0  0  0  0  0
   15.1960   34.4160   25.5360 C   0  0  0  0  0  0
   16.1740   33.5300   24.7910 C   0  0  1  0  0  0
   15.6770   32.8360   23.6590 O   0  0  0  0  0  0
   17.2910   34.3330   24.1870 C   0  0  1  0  0  0
   18.0470   34.9100   25.2280 O   0  0  0  0  0  0
   17.9870   33.2630   23.3920 C   0  0  1  0  0  0
   18.9460   32.6040   24.2280 O   0  0  0  0  0  0
   16.8310   32.3630   22.9740 C   0  0  2  0  0  0
   16.6140   32.4510   21.5140 N   0  0  0  0  0  0
   16.3490   33.5580   20.7850 C   0  0  0  0  0  0
   16.2260   33.2410   19.4610 N   0  0  0  0  0  0
   16.4080   31.9090   19.3420 C   0  0  0  0  0  0
   16.4340   30.9180   18.2530 C   0  0  0  0  0  0
   16.2290   31.2400   17.0670 O   0  0  0  0  0  0
   16.6630   29.6420   18.5830 N   0  3  0  0  0  0
   16.8910   29.2400   19.8460 C   0  0  0  0  0  0
   17.1290   27.9350   20.0910 N   0  0  0  0  0  0
   16.8970   30.0950   20.8880 N   0  0  0  0  0  0
   16.6690   31.4050   20.6940 C   0  0  0  0  0  0
   14.3873   33.8228   25.9879 H   0  0  0  0  0  0
   14.7640   35.1780   24.8707 H   0  0  0  0  0  0
   16.4457   32.7748   25.5432 H   0  0  0  0  0  0
   17.0586   35.2321   23.5973 H   0  0  0  0  0  0
   18.6073   33.6027   22.5495 H   0  0  0  0  0  0
   19.8262   33.1531   24.5937 H   0  0  0  0  0  0
   16.9867   31.3052   23.2325 H   0  0  0  0  0  0
   16.2476   34.5627   21.1954 H   0  0  0  0  0  0
   17.1311   27.2113   19.2626 H   0  0  0  0  0  0
   17.3209   27.5945   21.1192 H   0  0  0  0  0  0
   16.6706   28.8653   17.8041 H   0  0  0  0  0  0
  1  2  2  0  0  0
  1  3  1  0  0  0
  1  4  1  0  0  0
  1  9  1  0  0  0
  4  5  1  0  0  0
  5  6  1  0  0  0
  5 24  1  0  0  0
  5 25  1  0  0  0
  6  7  1  0  0  0
  6  8  1  0  0  0
  6 26  1  0  0  0
  7 12  1  0  0  0
  8  9  1  0  0  0
  8 10  1  0  0  0
  8 27  1  0  0  0
 10 11  1  0  0  0
 10 12  1  0  0  0
 10 28  1  0  0  0
 11 29  1  0  0  0
 12 13  1  0  0  0
 12 30  1  0  0  0
 13 14  1  0  0  0
 13 23  1  0  0  0
 14 15  2  0  0  0
 14 31  1  0  0  0
 15 16  1  0  0  0
 16 17  1  0  0  0
 16 23  2  0  0  0
 17 18  2  0  0  0
 17 19  1  0  0  0
 19 20  1  0  0  0
 19 34  1  0  0  0
 20 21  1  0  0  0
 20 22  2  0  0  0
 21 32  1  0  0  0
 21 33  1  0  0  0
 22 23  1  0  0  0
M  CHG  2   3  -1  19   1
M  END
> <s_m_source_file>
../3dba_ligand.sdf

> <i_m_source_file_index>
1

> <s_epik_input>
W0NIMl0xT1tQQF0oPU8pKFtPSF0pT1tDQEhdKFtDQEBIXTEyKVtDQEBIXShbT0hdKVtDQEBIXShPMiluKFtjSF1uMyljKGMzNClbbkhdYyg9TlxbSF0pXFtuSF1jND1P

> <s_epik_cmdline>
J2VwaWtfYXBwJywgJy1pbWFlJywgJ2xpZ2FuZF9wcm8ubWFlJywgJy1vbWFlJywgJ2xpZ2FuZF9wcmVwLm1hZScsICctbXMnLCAnMScsICctcGgnLCAnNycsICctcGh0JywgJzAuNScsICctbnQn

> <r_lp_tautomer_probability>
4.999975000125e-06

> <r_epik_Ionization_Penalty>
  2.3888

> <r_epik_Ionization_Penalty_Charging>
  2.3887

> <r_epik_Ionization_Penalty_Neutral>
  0.0001

> <r_epik_State_Penalty>
  0.2212

> <r_epik_Charging_Adjusted_Penalty>
2.60994165546953

> <i_epik_Tot_Q>
0

> <i_epik_Tot_abs_Q>
2

> <s_epik_Chemistry_Notes>
This compound has an imine and may undergo hydrolysis. This compound contains an acetal/aminal-like group ( X-CH(R)-Y where X, Y are N, S, or O) that may be acid/base labile, releasing an aldehyde.

$$$$
