3dbs_ligand
                    3D
 Schrodinger Suite 2020-3.
 61 66  0  0  1  0            999 V2000
   19.6860   59.5250   24.4390 O   0  0  0  0  0  0
   22.2550   61.7810   22.1080 C   0  0  0  0  0  0
   21.3750   65.3980   21.3670 C   0  0  0  0  0  0
   22.5920   65.2050   20.8630 C   0  0  0  0  0  0
   24.1570   63.2850   20.7550 N   0  0  0  0  0  0
   20.6910   66.7430   21.2780 C   0  0  0  0  0  0
   25.6090   61.4690   20.6670 C   0  0  0  0  0  0
   23.4480   61.2570   21.7200 N   0  0  0  0  0  0
   19.9210   68.3930   19.6720 C   0  0  0  0  0  0
   19.5300   68.5240   18.1960 C   0  0  0  0  0  0
   18.8850   66.2070   18.2080 C   0  0  0  0  0  0
   18.9810   66.1720   19.7140 C   0  0  0  0  0  0
   21.3800   60.9900   22.8100 N   0  0  0  0  0  0
   17.2570   69.1770   15.8700 C   0  0  0  0  0  0
   21.9500   59.8880   23.5830 C   0  0  0  0  0  0
   21.0620   59.6020   24.7890 C   0  0  0  0  0  0
   20.1610   66.9800   19.9550 N   0  0  0  0  0  0
   19.2330   67.3420   15.4530 O   0  0  0  0  0  0
   18.0130   67.5640   16.2420 S   0  0  0  0  0  0
   17.0380   66.4970   15.9810 O   0  0  0  0  0  0
   18.4720   67.5550   17.8980 N   0  0  2  0  0  0
   20.6610   64.0680   22.1100 S   0  0  0  0  0  0
   22.9930   63.8290   21.1100 C   0  0  0  0  0  0
   22.0320   63.1230   21.7860 C   0  0  0  0  0  0
   24.3750   61.9890   21.0520 C   0  0  0  0  0  0
   26.2540   61.9140   19.5170 C   0  0  0  0  0  0
   27.4900   61.3820   19.1820 C   0  0  0  0  0  0
   28.0880   60.4370   19.9900 C   0  0  0  0  0  0
   27.4540   60.0120   21.1410 C   0  0  0  0  0  0
   27.8630   59.0900   22.0790 N   0  0  0  0  0  0
   26.2510   60.5350   21.4380 C   0  0  0  0  0  0
   25.8280   59.9200   22.6520 C   0  0  0  0  0  0
   26.8030   59.0610   23.0310 N   0  0  0  0  0  0
   19.2500   60.7430   23.8500 C   0  0  0  0  0  0
   19.9550   60.8890   22.5000 C   0  0  0  0  0  0
   23.1909   65.9565   20.3486 H   0  0  0  0  0  0
   19.8602   66.7802   21.9980 H   0  0  0  0  0  0
   21.4142   67.5383   21.5113 H   0  0  0  0  0  0
   20.8329   68.9777   19.8630 H   0  0  0  0  0  0
   19.1035   68.7721   20.3029 H   0  0  0  0  0  0
   19.1658   69.5437   18.0023 H   0  0  0  0  0  0
   20.4079   68.3221   17.5648 H   0  0  0  0  0  0
   19.8670   65.9704   17.7724 H   0  0  0  0  0  0
   18.1459   65.4656   17.8704 H   0  0  0  0  0  0
   18.0666   66.6010   20.1497 H   0  0  0  0  0  0
   19.0937   65.1307   20.0501 H   0  0  0  0  0  0
   16.9548   69.2052   14.8127 H   0  0  0  0  0  0
   17.9862   69.9773   16.0644 H   0  0  0  0  0  0
   16.3730   69.3235   16.5080 H   0  0  0  0  0  0
   22.0111   58.9898   22.9509 H   0  0  0  0  0  0
   22.9579   60.1639   23.9265 H   0  0  0  0  0  0
   21.2096   60.4103   25.5203 H   0  0  0  0  0  0
   21.3824   58.6462   25.2292 H   0  0  0  0  0  0
   25.7922   62.6732   18.8858 H   0  0  0  0  0  0
   27.9929   61.7130   18.2734 H   0  0  0  0  0  0
   29.0607   60.0259   19.7200 H   0  0  0  0  0  0
   24.8919   60.1069   23.1783 H   0  0  0  0  0  0
   18.1594   60.7126   23.7095 H   0  0  0  0  0  0
   19.5114   61.5835   24.5097 H   0  0  0  0  0  0
   19.6290   61.7982   21.9736 H   0  0  0  0  0  0
   19.7803   60.0119   21.8595 H   0  0  0  0  0  0
  1 16  1  0  0  0
  1 34  1  0  0  0
  2  8  2  0  0  0
  2 13  1  0  0  0
  2 24  1  0  0  0
  3  4  2  0  0  0
  3  6  1  0  0  0
  3 22  1  0  0  0
  4 23  1  0  0  0
  4 36  1  0  0  0
  5 23  1  0  0  0
  5 25  2  0  0  0
  6 17  1  0  0  0
  6 37  1  0  0  0
  6 38  1  0  0  0
  7 25  1  0  0  0
  7 26  2  0  0  0
  7 31  1  0  0  0
  8 25  1  0  0  0
  9 10  1  0  0  0
  9 17  1  0  0  0
  9 39  1  0  0  0
  9 40  1  0  0  0
 10 21  1  0  0  0
 10 41  1  0  0  0
 10 42  1  0  0  0
 11 12  1  0  0  0
 11 21  1  0  0  0
 11 43  1  0  0  0
 11 44  1  0  0  0
 12 17  1  0  0  0
 12 45  1  0  0  0
 12 46  1  0  0  0
 13 15  1  0  0  0
 13 35  1  0  0  0
 14 19  1  0  0  0
 14 47  1  0  0  0
 14 48  1  0  0  0
 14 49  1  0  0  0
 15 16  1  0  0  0
 15 50  1  0  0  0
 15 51  1  0  0  0
 16 52  1  0  0  0
 16 53  1  0  0  0
 18 19  2  0  0  0
 19 20  2  0  0  0
 19 21  1  0  0  0
 22 24  1  0  0  0
 23 24  2  0  0  0
 26 27  1  0  0  0
 26 54  1  0  0  0
 27 28  2  0  0  0
 27 55  1  0  0  0
 28 29  1  0  0  0
 28 56  1  0  0  0
 29 30  1  0  0  0
 29 31  2  0  0  0
 30 33  2  0  0  0
 31 32  1  0  0  0
 32 33  1  0  0  0
 32 57  1  0  0  0
 34 35  1  0  0  0
 34 58  1  0  0  0
 34 59  1  0  0  0
 35 60  1  0  0  0
 35 61  1  0  0  0
M  END
> <s_m_source_file>
../3dbs_ligand.sdf

> <i_m_source_file_index>
1

> <s_epik_input>
TjE9TltDSDJdYyhjMTIpYyhbY0hdW2NIXVtjSF0yKS1jKG4zKW5jKE40W0NIMl1bQ0gyXU9bQ0gyXVtDSDJdNCljKGMzNSlzYyhbY0hdNSlbQ0gyXVtOSCtdNltDSDJdW0NIMl1OKFtDSDJdW0NIMl02KVMoPU8pKD1PKVtDSDNd

> <s_epik_cmdline>
J2VwaWtfYXBwJywgJy1pbWFlJywgJ2xpZ2FuZF9wcm8ubWFlJywgJy1vbWFlJywgJ2xpZ2FuZF9wcmVwLm1hZScsICctbXMnLCAnMScsICctcGgnLCAnNycsICctcGh0JywgJzAuNScsICctbnQn

> <r_epik_Ionization_Penalty>
  0.2815

> <r_epik_Ionization_Penalty_Charging>
  0.0000

> <r_epik_Ionization_Penalty_Neutral>
  0.2815

> <r_epik_State_Penalty>
  0.2741

> <r_epik_Charging_Adjusted_Penalty>
0.274077424683708

> <i_epik_Tot_Q>
0

> <i_epik_Tot_abs_Q>
0

$$$$
