3dbu_ligand
                    3D
 Schrodinger Suite 2020-3.
 26 27  0  0  1  0            999 V2000
   -3.7420    7.3070   14.8980 C   0  0  0  0  0  0
   -2.6920    8.1510   15.2590 C   0  0  0  0  0  0
   -1.8840    8.6900   14.2660 C   0  0  0  0  0  0
   -2.1030    8.4210   12.9200 C   0  0  0  0  0  0
   -3.1460    7.5680   12.5600 C   0  0  0  0  0  0
   -3.9410    7.0250   13.5560 C   0  0  0  0  0  0
   -5.1670    6.0530   13.1690 S   0  0  0  0  0  0
   -6.1580    6.2660   14.2320 O   0  0  0  0  0  0
   -5.7080    6.4880   11.8610 O   0  0  0  0  0  0
   -4.5820    4.6730   13.0350 N   0  5  0  0  0  0
   -4.5930    3.6580   13.9330 C   0  0  0  0  0  0
   -5.8540    3.4340   15.0680 S   0  0  0  0  0  0
   -3.6410    2.6990   14.0260 N   0  0  0  0  0  0
   -3.9230    1.7500   15.0500 N   0  0  0  0  0  0
   -5.0860    2.0190   15.6820 C   0  0  0  0  0  0
   -5.8550    0.9830   16.7270 S   0  0  0  0  0  0
   -5.2900    1.2210   18.0210 O   0  0  0  0  0  0
   -7.2460    1.2080   16.6850 O   0  0  0  0  0  0
   -5.5030   -0.5170   16.2880 N   0  0  0  0  0  0
   -4.3944    6.8769   15.6579 H   0  0  0  0  0  0
   -2.5077    8.3848   16.3076 H   0  0  0  0  0  0
   -1.0568    9.3407   14.5496 H   0  0  0  0  0  0
   -1.4683    8.8705   12.1563 H   0  0  0  0  0  0
   -3.3325    7.3325   11.5122 H   0  0  0  0  0  0
   -6.0020   -1.2243   16.9668 H   0  0  0  0  0  0
   -4.4145   -0.6675   16.3371 H   0  0  0  0  0  0
  1  2  2  0  0  0
  1  6  1  0  0  0
  1 20  1  0  0  0
  2  3  1  0  0  0
  2 21  1  0  0  0
  3  4  2  0  0  0
  3 22  1  0  0  0
  4  5  1  0  0  0
  4 23  1  0  0  0
  5  6  2  0  0  0
  5 24  1  0  0  0
  6  7  1  0  0  0
  7  8  2  0  0  0
  7  9  2  0  0  0
  7 10  1  0  0  0
 10 11  1  0  0  0
 11 12  1  0  0  0
 11 13  2  0  0  0
 12 15  1  0  0  0
 13 14  1  0  0  0
 14 15  2  0  0  0
 15 16  1  0  0  0
 16 17  2  0  0  0
 16 18  2  0  0  0
 16 19  1  0  0  0
 19 25  1  0  0  0
 19 26  1  0  0  0
M  CHG  1  10  -1
M  END
> <s_m_source_file>
../3dbu_ligand.sdf

> <i_m_source_file_index>
1

> <s_epik_input>
W2NIXTFbY0hdW2NIXVtjSF1bY0hdYzFTKD1PKSg9TylbTkhdYzJzYyhubjIpUyg9TykoPU8pW05IMl0=

> <s_epik_cmdline>
J2VwaWtfYXBwJywgJy1pbWFlJywgJ2xpZ2FuZF9wcm8ubWFlJywgJy1vbWFlJywgJ2xpZ2FuZF9wcmVwLm1hZScsICctbXMnLCAnMScsICctcGgnLCAnNycsICctcGh0JywgJzAuNScsICctbnQn

> <r_lp_tautomer_probability>
1

> <r_epik_Ionization_Penalty>
  0.0649

> <r_epik_Ionization_Penalty_Charging>
  0.0018

> <r_epik_Ionization_Penalty_Neutral>
  0.0631

> <r_epik_State_Penalty>
 -0.0000

> <r_epik_Charging_Adjusted_Penalty>
0.00182603251124693

> <i_epik_Tot_Q>
-1

> <i_epik_Tot_abs_Q>
1

$$$$
