3dc2_ligand
                    3D
 Schrodinger Suite 2020-3.
 14 13  0  0  1  0            999 V2000
   26.9070   79.3440   46.9410 O   0  0  0  0  0  0
   28.3660   80.8900   47.5810 O   0  5  0  0  0  0
   27.1350   80.3900   47.5300 C   0  0  0  0  0  0
   26.0060   81.1200   48.1940 C   0  0  2  0  0  0
   26.4920   82.3430   48.7610 O   0  0  0  0  0  0
   25.2990   80.2000   49.2160 C   0  0  1  0  0  0
   26.2400   79.5370   50.0710 O   0  0  0  0  0  0
   24.2620   81.0020   49.9820 C   0  0  0  0  0  0
   23.7920   82.0150   49.4790 O   0  0  0  0  0  0
   23.8510   80.6430   51.2010 O   0  5  0  0  0  0
   25.2741   81.4642   47.4484 H   0  0  0  0  0  0
   27.0125   83.0750   48.1260 H   0  0  0  0  0  0
   24.8053   79.3444   48.7320 H   0  0  0  0  0  0
   27.0420   78.9233   49.6349 H   0  0  0  0  0  0
  1  3  2  0  0  0
  2  3  1  0  0  0
  3  4  1  0  0  0
  4  5  1  0  0  0
  4  6  1  0  0  0
  4 11  1  0  0  0
  5 12  1  0  0  0
  6  7  1  0  0  0
  6  8  1  0  0  0
  6 13  1  0  0  0
  7 14  1  0  0  0
  8  9  2  0  0  0
  8 10  1  0  0  0
M  CHG  2   2  -1  10  -1
M  END
> <s_m_source_file>
../3dc2_ligand.sdf

> <i_m_source_file_index>
1

> <s_epik_input>
Tz1DKFtPSF0pW0NASF0oW09IXSlbQ0BASF0oW09IXSlDKD1PKVtPSF0=

> <s_epik_cmdline>
J2VwaWtfYXBwJywgJy1pbWFlJywgJ2xpZ2FuZF9wcm8ubWFlJywgJy1vbWFlJywgJ2xpZ2FuZF9wcmVwLm1hZScsICctbXMnLCAnMScsICctcGgnLCAnNycsICctcGh0JywgJzAuNScsICctbnQn

> <r_lp_tautomer_probability>
1

> <r_epik_Ionization_Penalty>
  0.0004

> <r_epik_Ionization_Penalty_Charging>
  0.0004

> <r_epik_Ionization_Penalty_Neutral>
  0.0000

> <r_epik_State_Penalty>
 -0.0000

> <r_epik_Charging_Adjusted_Penalty>
0.000375166810401698

> <i_epik_Tot_Q>
-2

> <i_epik_Tot_abs_Q>
2

$$$$
