3dcc_ligand
                    3D
 Schrodinger Suite 2020-3.
 22 23  0  0  1  0            999 V2000
   -7.4220    0.6900   16.6380 O   0  0  0  0  0  0
   -6.0670    0.4700   16.9070 S   0  0  0  0  0  0
   -5.6890    0.5920   18.2890 O   0  0  0  0  0  0
   -5.4780   -0.9040   16.3560 N   0  0  0  0  0  0
   -5.2280    1.6920   16.1710 C   0  0  0  0  0  0
   -5.8660    2.9570   15.2040 S   0  0  0  0  0  0
   -3.8990    1.7000   16.3010 N   0  0  0  0  0  0
   -3.3540    2.7480   15.5640 N   0  0  0  0  0  0
   -4.2460    3.5270   14.9250 C   0  0  0  0  0  0
   -3.8240    4.6320   14.1700 C   0  0  0  0  0  0
   -2.4790    4.9340   14.0500 C   0  0  0  0  0  0
   -4.7470    5.4240   13.5430 C   0  0  0  0  0  0
   -4.4270    6.5050   12.7520 C   0  0  0  0  0  0
   -3.0580    6.8110   12.6290 C   0  0  0  0  0  0
   -2.1000    6.0540   13.2730 C   0  0  0  0  0  0
   -6.4460    5.3330   13.5050 Cl  0  0  0  0  0  0
   -6.0114   -1.7451   16.8230 H   0  0  0  0  0  0
   -4.4073   -0.9680   16.6000 H   0  0  0  0  0  0
   -1.7258    4.3207   14.5447 H   0  0  0  0  0  0
   -5.1935    7.0931   12.2474 H   0  0  0  0  0  0
   -2.7502    7.6582   12.0162 H   0  0  0  0  0  0
   -1.0469    6.3203   13.1825 H   0  0  0  0  0  0
  1  2  2  0  0  0
  2  3  2  0  0  0
  2  4  1  0  0  0
  2  5  1  0  0  0
  4 17  1  0  0  0
  4 18  1  0  0  0
  5  6  1  0  0  0
  5  7  2  0  0  0
  6  9  1  0  0  0
  7  8  1  0  0  0
  8  9  2  0  0  0
  9 10  1  0  0  0
 10 11  2  0  0  0
 10 12  1  0  0  0
 11 15  1  0  0  0
 11 19  1  0  0  0
 12 13  2  0  0  0
 12 16  1  0  0  0
 13 14  1  0  0  0
 13 20  1  0  0  0
 14 15  2  0  0  0
 14 21  1  0  0  0
 15 22  1  0  0  0
M  END
> <s_m_source_file>
../3dcc_ligand.sdf

> <i_m_source_file_index>
1

> <s_epik_input>
Tz1TKD1PKShbTkgyXSljMXNjKG5uMSktYzJbY0hdW2NIXVtjSF1bY0hdYzJDbA==

> <s_epik_cmdline>
J2VwaWtfYXBwJywgJy1pbWFlJywgJ2xpZ2FuZF9wcm8ubWFlJywgJy1vbWFlJywgJ2xpZ2FuZF9wcmVwLm1hZScsICctbXMnLCAnMScsICctcGgnLCAnNycsICctcGh0JywgJzAuNScsICctbnQn

> <r_lp_tautomer_probability>
1

> <r_epik_Ionization_Penalty>
  0.1370

> <r_epik_Ionization_Penalty_Charging>
  0.0000

> <r_epik_Ionization_Penalty_Neutral>
  0.1370

> <r_epik_State_Penalty>
  0.1264

> <r_epik_Charging_Adjusted_Penalty>
0.126371657616576

> <i_epik_Tot_Q>
0

> <i_epik_Tot_abs_Q>
0

$$$$
