3dcq_ligand
                    3D
 Schrodinger Suite 2020-3.
 75 76  0  0  1  0            999 V2000
   12.1660   45.1090    8.7210 C   0  0  1  0  0  0
   13.0920   44.9160    7.5060 C   0  0  1  0  0  0
   12.4110   44.2120    6.4830 O   0  0  0  0  0  0
   13.5170   46.3010    6.9930 C   0  0  2  0  0  0
   14.4430   46.1830    5.9230 O   0  0  0  0  0  0
   14.1670   47.0880    8.0960 C   0  0  2  0  0  0
   15.3930   46.4780    8.4470 O   0  0  0  0  0  0
   13.2630   47.1590    9.3190 C   0  0  1  0  0  0
   12.8990   45.8220    9.7410 O   0  0  0  0  0  0
   13.9590   47.8450   10.4830 C   0  0  0  0  0  0
   10.8310   45.7700    8.3240 C   0  0  0  0  0  0
   10.2380   46.0930    9.6930 C   0  0  0  0  0  0
    9.9270   45.1920   10.4700 O   0  0  0  0  0  0
   10.0630   47.3750    9.9860 N   0  0  0  0  0  0
    9.5800   47.7950   11.2940 C   0  0  2  0  0  0
    8.4540   46.9920   11.9220 C   0  0  0  0  0  0
    8.5590   46.5800   13.0850 O   0  0  0  0  0  0
    9.1960   49.2830   11.2720 C   0  0  0  0  0  0
   10.4040   50.2090   11.3840 C   0  0  0  0  0  0
    7.3570   46.7630   11.1720 N   0  0  0  0  0  0
    6.2200   45.9980   11.7060 C   0  0  2  0  0  0
    6.5030   44.5480   12.0990 C   0  0  0  0  0  0
    5.6520   43.8960   12.7090 O   0  0  0  0  0  0
    5.1690   46.1070   10.6020 C   0  0  0  0  0  0
    5.9800   46.3640    9.3530 C   0  0  0  0  0  0
    7.0720   47.2830    9.8230 C   0  0  0  0  0  0
    7.6820   44.0460   11.7340 N   0  0  0  0  0  0
    8.0880   42.6830   12.0620 C   0  0  2  0  0  0
    8.7000   42.6690   13.4660 C   0  0  0  0  0  0
    9.0700   43.7670   13.9380 O   0  0  0  0  0  0
    9.1310   42.1970   11.0470 C   0  0  0  0  0  0
    8.7330   41.3920    9.8020 C   0  0  0  0  0  0
    7.2990   41.6060    9.4060 C   0  0  0  0  0  0
    9.6810   41.7540    8.6820 C   0  0  0  0  0  0
    8.8320   41.5750   14.0710 N   0  0  0  0  0  0
   11.9040   44.1539    9.1997 H   0  0  0  0  0  0
   13.9561   44.2771    7.7407 H   0  0  0  0  0  0
   12.0319   43.1969    6.6724 H   0  0  0  0  0  0
   12.6506   46.8400    6.5820 H   0  0  0  0  0  0
   14.1618   45.6380    5.0098 H   0  0  0  0  0  0
   14.4167   48.0975    7.7374 H   0  0  0  0  0  0
   16.1761   46.3400    7.6869 H   0  0  0  0  0  0
   12.3423   47.6968    9.0486 H   0  0  0  0  0  0
   14.2468   48.8650   10.1885 H   0  0  0  0  0  0
   14.8586   47.2755   10.7594 H   0  0  0  0  0  0
   13.2753   47.8909   11.3435 H   0  0  0  0  0  0
   11.0312   46.6627    7.7133 H   0  0  0  0  0  0
   10.2270   45.0569    7.7438 H   0  0  0  0  0  0
   10.2910   48.1271    9.2164 H   0  0  0  0  0  0
   10.4682   47.5658   11.9011 H   0  0  0  0  0  0
    8.6820   49.5151   10.3276 H   0  0  0  0  0  0
    8.5266   49.5015   12.1171 H   0  0  0  0  0  0
   10.0668   51.2558   11.3627 H   0  0  0  0  0  0
   11.0856   50.0261   10.5403 H   0  0  0  0  0  0
   10.9302   50.0125   12.3298 H   0  0  0  0  0  0
    5.9343   46.4440   12.6701 H   0  0  0  0  0  0
    4.6011   45.1668   10.5423 H   0  0  0  0  0  0
    4.4828   46.9361   10.8296 H   0  0  0  0  0  0
    6.3727   45.4112    8.9683 H   0  0  0  0  0  0
    5.3402   46.8316    8.5901 H   0  0  0  0  0  0
    6.7491   48.3321    9.8951 H   0  0  0  0  0  0
    7.9808   47.2207    9.2064 H   0  0  0  0  0  0
    8.3594   44.6998   11.1651 H   0  0  0  0  0  0
    7.1837   42.0582   12.0178 H   0  0  0  0  0  0
    9.6615   43.0625   10.6234 H   0  0  0  0  0  0
    9.8517   41.5355   11.5500 H   0  0  0  0  0  0
    8.8016   40.3147   10.0134 H   0  0  0  0  0  0
    6.6422   41.3323   10.2449 H   0  0  0  0  0  0
    7.0617   40.9782    8.5345 H   0  0  0  0  0  0
    7.1437   42.6642    9.1488 H   0  0  0  0  0  0
   10.7173   41.5843    9.0095 H   0  0  0  0  0  0
    9.5488   42.8136    8.4178 H   0  0  0  0  0  0
    9.4668   41.1276    7.8035 H   0  0  0  0  0  0
    8.4860   40.6420   13.6022 H   0  0  0  0  0  0
    9.2935   41.5507   15.0692 H   0  0  0  0  0  0
  1  2  1  0  0  0
  1  9  1  0  0  0
  1 11  1  0  0  0
  1 36  1  0  0  0
  2  3  1  0  0  0
  2  4  1  0  0  0
  2 37  1  0  0  0
  3 38  1  0  0  0
  4  5  1  0  0  0
  4  6  1  0  0  0
  4 39  1  0  0  0
  5 40  1  0  0  0
  6  7  1  0  0  0
  6  8  1  0  0  0
  6 41  1  0  0  0
  7 42  1  0  0  0
  8  9  1  0  0  0
  8 10  1  0  0  0
  8 43  1  0  0  0
 10 44  1  0  0  0
 10 45  1  0  0  0
 10 46  1  0  0  0
 11 12  1  0  0  0
 11 47  1  0  0  0
 11 48  1  0  0  0
 12 13  2  0  0  0
 12 14  1  0  0  0
 14 15  1  0  0  0
 14 49  1  0  0  0
 15 16  1  0  0  0
 15 18  1  0  0  0
 15 50  1  0  0  0
 16 17  2  0  0  0
 16 20  1  0  0  0
 18 19  1  0  0  0
 18 51  1  0  0  0
 18 52  1  0  0  0
 19 53  1  0  0  0
 19 54  1  0  0  0
 19 55  1  0  0  0
 20 21  1  0  0  0
 20 26  1  0  0  0
 21 22  1  0  0  0
 21 24  1  0  0  0
 21 56  1  0  0  0
 22 23  2  0  0  0
 22 27  1  0  0  0
 24 25  1  0  0  0
 24 57  1  0  0  0
 24 58  1  0  0  0
 25 26  1  0  0  0
 25 59  1  0  0  0
 25 60  1  0  0  0
 26 61  1  0  0  0
 26 62  1  0  0  0
 27 28  1  0  0  0
 27 63  1  0  0  0
 28 29  1  0  0  0
 28 31  1  0  0  0
 28 64  1  0  0  0
 29 30  2  0  0  0
 29 35  1  0  0  0
 31 32  1  0  0  0
 31 65  1  0  0  0
 31 66  1  0  0  0
 32 33  1  0  0  0
 32 34  1  0  0  0
 32 67  1  0  0  0
 33 68  1  0  0  0
 33 69  1  0  0  0
 33 70  1  0  0  0
 34 71  1  0  0  0
 34 72  1  0  0  0
 34 73  1  0  0  0
 35 74  1  0  0  0
 35 75  1  0  0  0
M  END
> <s_m_source_file>
../3dcq_ligand.sdf

> <i_m_source_file_index>
1

> <s_epik_input>
TzFbQ0BASF0oW0NIM10pW0NAQEhdKFtPSF0pW0NAQEhdKFtPSF0pW0NASF0oW09IXSlbQ0BASF0xW0NIMl1DKD1PKVtOSF1bQ0BASF0oW0NIMl1bQ0gzXSlDKD1PKU4yW0NAQEhdKFtDSDJdW0NIMl1bQ0gyXTIpQyg9TylbTkhdW0NASF0oQyg9TylbTkgyXSlbQ0gyXVtDSF0oW0NIM10pW0NIM10=

> <s_epik_cmdline>
J2VwaWtfYXBwJywgJy1pbWFlJywgJ2xpZ2FuZF9wcm8ubWFlJywgJy1vbWFlJywgJ2xpZ2FuZF9wcmVwLm1hZScsICctbXMnLCAnMScsICctcGgnLCAnNycsICctcGh0JywgJzAuNScsICctbnQn

> <r_lp_tautomer_probability>
1

> <r_epik_Ionization_Penalty>
  0.0000

> <r_epik_Ionization_Penalty_Charging>
  0.0000

> <r_epik_Ionization_Penalty_Neutral>
  0.0000

> <r_epik_State_Penalty>
 -0.0000

> <r_epik_Charging_Adjusted_Penalty>
0

> <i_epik_Tot_Q>
0

> <i_epik_Tot_abs_Q>
0

$$$$
