3dcr_ligand
                    3D
 Schrodinger Suite 2020-3.
125124  0  0  1  0            999 V2000
   -4.2910   -8.8710  -16.7770 C   0  0  0  0  0  0
   -3.4730   -8.5350  -17.6580 O   0  0  0  0  0  0
   -3.8710   -9.5530  -15.5100 C   0  0  0  0  0  0
   -5.6060   -8.7070  -16.9420 N   0  0  0  0  0  0
   -6.2210   -8.0910  -18.1090 C   0  0  2  0  0  0
   -6.8020   -6.6650  -17.9160 C   0  0  0  0  0  0
   -7.1390   -6.0150  -18.8960 O   0  0  0  0  0  0
   -7.3250   -8.9420  -18.6890 C   0  0  2  0  0  0
   -8.4100   -9.0740  -17.7600 O   0  0  0  0  0  0
   -6.7630  -10.3200  -19.0680 C   0  0  0  0  0  0
   -6.8760   -6.1870  -16.6850 N   0  0  0  0  0  0
   -7.3960   -4.8860  -16.3840 C   0  0  2  0  0  0
   -6.3190   -4.0980  -15.6510 C   0  0  0  0  0  0
   -6.1610   -4.2190  -14.4140 O   0  0  0  0  0  0
   -8.6610   -4.9400  -15.5200 C   0  0  2  0  0  0
   -9.7200   -5.8680  -16.0800 C   0  0  0  0  0  0
   -9.2740   -3.5280  -15.3560 C   0  0  0  0  0  0
  -10.2600   -5.5280  -17.4810 C   0  0  0  0  0  0
   -5.4850   -3.2460  -16.4620 N   0  0  0  0  0  0
   -4.3720   -2.5200  -15.8610 C   0  0  1  0  0  0
   -3.1390   -2.7820  -16.7420 C   0  0  0  0  0  0
   -2.7840   -4.2740  -16.9750 C   0  0  0  0  0  0
   -2.6870   -5.1070  -15.6810 C   0  0  0  0  0  0
   -1.6830   -4.4310  -14.7740 C   0  0  0  0  0  0
   -4.7210   -1.0580  -15.6330 C   0  0  0  0  0  0
   -5.0390   -0.3570  -16.9230 O   0  0  0  0  0  0
   -3.5480   -0.2820  -15.0990 O   0  0  0  0  0  0
   -5.9380   -0.8210  -14.7380 C   0  0  0  0  0  0
   -6.0000    0.4650  -13.9590 C   0  0  1  0  0  0
   -7.4150    0.6830  -13.4360 C   0  0  0  0  0  0
   -7.6430    1.9430  -12.5830 C   0  0  0  0  0  0
   -7.6080    1.4730  -11.1330 C   0  0  0  0  0  0
   -8.8560    0.6770  -10.6890 C   0  0  0  0  0  0
   -4.9590    0.4260  -12.8680 C   0  0  0  0  0  0
   -4.7060   -0.5450  -12.1010 O   0  0  0  0  0  0
   -4.3030    1.6070  -12.5360 N   0  0  0  0  0  0
   -3.2780    1.6970  -11.4850 C   0  0  2  0  0  0
   -3.2770    3.0840  -10.8800 C   0  0  0  0  0  0
   -3.3460    4.1200  -11.6060 O   0  0  0  0  0  0
   -1.9340    1.2660  -12.0190 C   0  0  0  0  0  0
   -0.7990    1.4020  -11.0070 C   0  0  0  0  0  0
   -0.2190    2.7890  -10.8690 C   0  0  0  0  0  0
   -0.2590    3.5480  -11.8190 O   0  0  0  0  0  0
    0.3570    3.1230   -9.7320 N   0  0  0  0  0  0
   -3.2500    3.1950   -9.5540 N   0  0  0  0  0  0
   -3.1680    4.4590   -8.8380 C   0  0  1  0  0  0
   -4.5870    4.6640   -8.3420 C   0  0  0  0  0  0
   -5.3330    5.7150   -9.1480 C   0  0  0  0  0  0
   -5.7120    6.9460   -8.3060 C   0  0  0  0  0  0
   -5.2090    8.1510   -8.9530 N   0  0  0  0  0  0
   -5.8940    9.1910   -9.3370 C   0  0  0  0  0  0
   -7.1830    9.4000   -8.9920 N   0  0  0  0  0  0
   -5.2540   10.0480  -10.1500 N   0  3  0  0  0  0
   -2.1540    4.3250   -7.7660 C   0  0  0  0  0  0
   -2.0230    3.3190   -7.1670 O   0  0  0  0  0  0
   -1.3480    5.3300   -7.4430 N   0  0  0  0  0  0
   -2.7742   -9.6326  -15.4827 H   0  0  0  0  0  0
   -4.3128  -10.5597  -15.4717 H   0  0  0  0  0  0
   -4.2178   -8.9672  -14.6460 H   0  0  0  0  0  0
   -6.2355   -9.0751  -16.1184 H   0  0  0  0  0  0
   -5.3325   -8.0570  -18.7567 H   0  0  0  0  0  0
   -7.7715   -8.4356  -19.5574 H   0  0  0  0  0  0
   -8.9260   -8.1774  -17.3860 H   0  0  0  0  0  0
   -5.9337  -10.1946  -19.7798 H   0  0  0  0  0  0
   -7.5563  -10.9245  -19.5320 H   0  0  0  0  0  0
   -6.3965  -10.8278  -18.1637 H   0  0  0  0  0  0
   -6.5159   -6.8366  -15.8736 H   0  0  0  0  0  0
   -7.6473   -4.4568  -17.3651 H   0  0  0  0  0  0
   -8.3478   -5.3541  -14.5502 H   0  0  0  0  0  0
   -9.3124   -6.8870  -16.1542 H   0  0  0  0  0  0
  -10.5949   -5.8707  -15.4133 H   0  0  0  0  0  0
   -8.5147   -2.8436  -14.9497 H   0  0  0  0  0  0
  -10.1296   -3.5776  -14.6664 H   0  0  0  0  0  0
   -9.6133   -3.1596  -16.3354 H   0  0  0  0  0  0
  -11.0171   -6.2709  -17.7724 H   0  0  0  0  0  0
   -9.4331   -5.5433  -18.2063 H   0  0  0  0  0  0
  -10.7156   -4.5269  -17.4653 H   0  0  0  0  0  0
   -5.6908   -3.1447  -17.5378 H   0  0  0  0  0  0
   -4.1868   -2.9034  -14.8467 H   0  0  0  0  0  0
   -3.3004   -2.3442  -17.7381 H   0  0  0  0  0  0
   -2.2532   -2.3229  -16.2789 H   0  0  0  0  0  0
   -3.5566   -4.7409  -17.6036 H   0  0  0  0  0  0
   -1.8090   -4.3445  -17.4794 H   0  0  0  0  0  0
   -3.6737   -5.1480  -15.1965 H   0  0  0  0  0  0
   -2.3559   -6.1271  -15.9255 H   0  0  0  0  0  0
   -1.5905   -5.0028  -13.8389 H   0  0  0  0  0  0
   -2.0231   -3.4098  -14.5472 H   0  0  0  0  0  0
   -0.7053   -4.3888  -15.2763 H   0  0  0  0  0  0
   -4.3152   -0.3739  -17.7511 H   0  0  0  0  0  0
   -2.5773   -0.3283  -15.6144 H   0  0  0  0  0  0
   -6.8512   -0.8288  -15.3512 H   0  0  0  0  0  0
   -5.9975   -1.6174  -13.9815 H   0  0  0  0  0  0
   -5.7585    1.3218  -14.6053 H   0  0  0  0  0  0
   -8.1110    0.7633  -14.2840 H   0  0  0  0  0  0
   -7.7065   -0.1671  -12.8016 H   0  0  0  0  0  0
   -6.8451    2.6725  -12.7860 H   0  0  0  0  0  0
   -8.6176    2.3858  -12.8361 H   0  0  0  0  0  0
   -6.7384    0.8166  -10.9812 H   0  0  0  0  0  0
   -7.5301    2.3448  -10.4667 H   0  0  0  0  0  0
   -8.7456    0.3796   -9.6357 H   0  0  0  0  0  0
   -8.9595   -0.2217  -11.3148 H   0  0  0  0  0  0
   -9.7512    1.3065  -10.8004 H   0  0  0  0  0  0
   -4.5864    2.5040  -13.1061 H   0  0  0  0  0  0
   -3.5394    0.9895  -10.6843 H   0  0  0  0  0  0
   -1.9805    0.2086  -12.3186 H   0  0  0  0  0  0
   -1.6709    1.8829  -12.8909 H   0  0  0  0  0  0
   -1.1614    1.1149  -10.0089 H   0  0  0  0  0  0
    0.0329    0.7439  -11.2983 H   0  0  0  0  0  0
    0.3741    2.4106   -8.8940 H   0  0  0  0  0  0
    0.8208    4.1142   -9.6208 H   0  0  0  0  0  0
   -3.2943    2.2484   -8.9955 H   0  0  0  0  0  0
   -2.8212    5.3085   -9.4447 H   0  0  0  0  0  0
   -5.1426    3.7177   -8.4189 H   0  0  0  0  0  0
   -4.5647    4.9919   -7.2922 H   0  0  0  0  0  0
   -4.6999    6.0565   -9.9802 H   0  0  0  0  0  0
   -6.2609    5.2801   -9.5478 H   0  0  0  0  0  0
   -6.8068    7.0070   -8.2179 H   0  0  0  0  0  0
   -5.2680    6.8555   -7.3037 H   0  0  0  0  0  0
   -4.1350    8.2523   -9.1682 H   0  0  0  0  0  0
   -7.6959    8.6909   -8.3256 H   0  0  0  0  0  0
   -7.7199   10.2793   -9.3774 H   0  0  0  0  0  0
   -4.2041    9.8667  -10.4236 H   0  0  0  0  0  0
   -1.4286    6.2913   -7.9715 H   0  0  0  0  0  0
   -0.5999    5.2010   -6.6470 H   0  0  0  0  0  0
   -5.7799   10.9310  -10.5421 H   0  0  0  0  0  0
  1  2  2  0  0  0
  1  3  1  0  0  0
  1  4  1  0  0  0
  3 57  1  0  0  0
  3 58  1  0  0  0
  3 59  1  0  0  0
  4  5  1  0  0  0
  4 60  1  0  0  0
  5  6  1  0  0  0
  5  8  1  0  0  0
  5 61  1  0  0  0
  6  7  2  0  0  0
  6 11  1  0  0  0
  8  9  1  0  0  0
  8 10  1  0  0  0
  8 62  1  0  0  0
  9 63  1  0  0  0
 10 64  1  0  0  0
 10 65  1  0  0  0
 10 66  1  0  0  0
 11 12  1  0  0  0
 11 67  1  0  0  0
 12 13  1  0  0  0
 12 15  1  0  0  0
 12 68  1  0  0  0
 13 14  2  0  0  0
 13 19  1  0  0  0
 15 16  1  0  0  0
 15 17  1  0  0  0
 15 69  1  0  0  0
 16 18  1  0  0  0
 16 70  1  0  0  0
 16 71  1  0  0  0
 17 72  1  0  0  0
 17 73  1  0  0  0
 17 74  1  0  0  0
 18 75  1  0  0  0
 18 76  1  0  0  0
 18 77  1  0  0  0
 19 20  1  0  0  0
 19 78  1  0  0  0
 20 21  1  0  0  0
 20 25  1  0  0  0
 20 79  1  0  0  0
 21 22  1  0  0  0
 21 80  1  0  0  0
 21 81  1  0  0  0
 22 23  1  0  0  0
 22 82  1  0  0  0
 22 83  1  0  0  0
 23 24  1  0  0  0
 23 84  1  0  0  0
 23 85  1  0  0  0
 24 86  1  0  0  0
 24 87  1  0  0  0
 24 88  1  0  0  0
 25 26  1  0  0  0
 25 27  1  0  0  0
 25 28  1  0  0  0
 26 89  1  0  0  0
 27 90  1  0  0  0
 28 29  1  0  0  0
 28 91  1  0  0  0
 28 92  1  0  0  0
 29 30  1  0  0  0
 29 34  1  0  0  0
 29 93  1  0  0  0
 30 31  1  0  0  0
 30 94  1  0  0  0
 30 95  1  0  0  0
 31 32  1  0  0  0
 31 96  1  0  0  0
 31 97  1  0  0  0
 32 33  1  0  0  0
 32 98  1  0  0  0
 32 99  1  0  0  0
 33100  1  0  0  0
 33101  1  0  0  0
 33102  1  0  0  0
 34 35  2  0  0  0
 34 36  1  0  0  0
 36 37  1  0  0  0
 36103  1  0  0  0
 37 38  1  0  0  0
 37 40  1  0  0  0
 37104  1  0  0  0
 38 39  2  0  0  0
 38 45  1  0  0  0
 40 41  1  0  0  0
 40105  1  0  0  0
 40106  1  0  0  0
 41 42  1  0  0  0
 41107  1  0  0  0
 41108  1  0  0  0
 42 43  2  0  0  0
 42 44  1  0  0  0
 44109  1  0  0  0
 44110  1  0  0  0
 45 46  1  0  0  0
 45111  1  0  0  0
 46 47  1  0  0  0
 46 54  1  0  0  0
 46112  1  0  0  0
 47 48  1  0  0  0
 47113  1  0  0  0
 47114  1  0  0  0
 48 49  1  0  0  0
 48115  1  0  0  0
 48116  1  0  0  0
 49 50  1  0  0  0
 49117  1  0  0  0
 49118  1  0  0  0
 50 51  1  0  0  0
 50119  1  0  0  0
 51 52  1  0  0  0
 51 53  2  0  0  0
 52120  1  0  0  0
 52121  1  0  0  0
 53122  1  0  0  0
 53125  1  0  0  0
 54 55  2  0  0  0
 54 56  1  0  0  0
 56123  1  0  0  0
 56124  1  0  0  0
M  CHG  1  53   1
M  END
> <s_m_source_file>
../3dcr_ligand.sdf

> <i_m_source_file_index>
1

> <s_epik_input>
Tz1DKFtDSDNdKVtOSF1bQ0BASF0oW0NASF0oW09IXSlbQ0gzXSlDKD1PKVtOSF1bQ0BASF0oW0NAQEhdKFtDSDNdKVtDSDJdW0NIM10pQyg9TylbTkhdW0NAQEhdKFtDSDJdW0NIMl1bQ0gyXVtDSDNdKUMoW09IXSkoW09IXSlbQ0gyXVtDQEBIXShbQ0gyXVtDSDJdW0NIMl1bQ0gzXSlDKD1PKVtOSF1bQ0BASF0oW0NIMl1bQ0gyXUMoPU8pW05IMl0pQyg9TylbTkhdW0NASF0oQyg9TylbTkgyXSlbQ0gyXVtDSDJdW0NIMl1bTkhdL0MoW05IMl0pPU5cW0hd

> <s_epik_cmdline>
J2VwaWtfYXBwJywgJy1pbWFlJywgJ2xpZ2FuZF9wcm8ubWFlJywgJy1vbWFlJywgJ2xpZ2FuZF9wcmVwLm1hZScsICctbXMnLCAnMScsICctcGgnLCAnNycsICctcGh0JywgJzAuNScsICctbnQn

> <r_lp_tautomer_probability>
1

> <r_epik_Ionization_Penalty>
  0.0000

> <r_epik_Ionization_Penalty_Charging>
  0.0000

> <r_epik_Ionization_Penalty_Neutral>
  0.0000

> <r_epik_State_Penalty>
 -0.0000

> <r_epik_Charging_Adjusted_Penalty>
2.79368778836538e-06

> <i_epik_Tot_Q>
1

> <i_epik_Tot_abs_Q>
1

> <s_epik_Chemistry_Notes>
This compound has an imine and may undergo hydrolysis.

$$$$
