3dct_ligand
                    3D
 Schrodinger Suite 2020-3.
 57 60  0  0  1  0            999 V2000
  133.8530   24.0310   81.1410 C   0  0  0  0  0  0
  133.1810   23.2660   82.0760 N   0  0  0  0  0  0
  135.2800   22.8710   82.3680 C   0  0  0  0  0  0
  136.4630   24.3460   80.5860 C   0  0  0  0  0  0
  133.0800   24.3840   78.8280 C   0  0  0  0  0  0
  132.8300   26.2210   80.5290 C   0  0  0  0  0  0
  136.5360   22.2080   82.9850 C   0  0  0  0  0  0
  136.8400   22.7410   84.4170 C   0  0  0  0  0  0
  136.3630   20.6920   83.0290 C   0  0  0  0  0  0
  137.3120   26.4580   79.6020 C   0  0  0  0  0  0
  132.0890   26.5190   78.1800 C   0  0  0  0  0  0
  137.6010   27.8520   79.6350 C   0  0  0  0  0  0
  137.8010   25.6440   78.4990 C   0  0  0  0  0  0
  138.3860   28.4320   78.6360 C   0  0  0  0  0  0
  138.6080   26.2290   77.4660 C   0  0  0  0  0  0
  138.8830   27.6620   77.5440 C   0  0  0  0  0  0
  139.7290   28.4220   76.5550 C   0  0  0  0  0  0
  140.8180   27.9740   76.0280 C   0  0  0  0  0  0
  141.8180   28.6860   75.1910 C   0  0  0  0  0  0
  142.0820   29.9970   75.5650 C   0  0  0  0  0  0
  142.5450   28.0700   74.0940 C   0  0  0  0  0  0
  143.4990   28.8840   73.3890 C   0  0  0  0  0  0
  135.2230   23.7870   81.3270 C   0  0  0  0  0  0
  133.2780   24.8700   80.1890 C   0  0  0  0  0  0
  134.0020   22.5760   82.8100 O   0  0  0  0  0  0
  136.5630   25.8240   80.6050 O   0  0  0  0  0  0
  132.5030   25.2140   77.8420 C   0  0  0  0  0  0
  133.5930   22.7630   78.2920 Cl  0  0  0  0  0  0
  132.2690   27.0290   79.5200 C   0  0  0  0  0  0
  133.0010   26.9620   82.1240 Cl  0  0  0  0  0  0
  138.6910   30.1380   78.7530 Cl  0  0  0  0  0  0
  143.0110   30.8040   74.8920 C   0  0  0  0  0  0
  143.7260   30.2440   73.7940 C   0  0  0  0  0  0
  143.2710   32.2290   75.3400 C   0  0  0  0  0  0
  144.1910   32.9830   74.6680 O   0  5  0  0  0  0
  142.6680   32.7210   76.3160 O   0  0  0  0  0  0
  137.3777   23.9535   81.0542 H   0  0  0  0  0  0
  136.4297   24.0372   79.5308 H   0  0  0  0  0  0
  137.3888   22.4506   82.3339 H   0  0  0  0  0  0
  136.9643   23.8334   84.3829 H   0  0  0  0  0  0
  137.7649   22.2783   84.7918 H   0  0  0  0  0  0
  136.0055   22.4876   85.0874 H   0  0  0  0  0  0
  136.1485   20.3179   82.0170 H   0  0  0  0  0  0
  135.5282   20.4375   83.6986 H   0  0  0  0  0  0
  137.2876   20.2282   83.4030 H   0  0  0  0  0  0
  131.6275   27.1508   77.4211 H   0  0  0  0  0  0
  137.2080   28.4688   80.4432 H   0  0  0  0  0  0
  137.5529   24.5834   78.4571 H   0  0  0  0  0  0
  139.0028   25.6239   76.6499 H   0  0  0  0  0  0
  139.3606   29.4237   76.2886 H   0  0  0  0  0  0
  141.1106   26.9244   76.1785 H   0  0  0  0  0  0
  141.5454   30.4160   76.4163 H   0  0  0  0  0  0
  142.3740   27.0301   73.8157 H   0  0  0  0  0  0
  144.0508   28.4683   72.5459 H   0  0  0  0  0  0
  132.3780   24.8473   76.8232 H   0  0  0  0  0  0
  131.9674   28.0502   79.7529 H   0  0  0  0  0  0
  144.4523   30.8532   73.2560 H   0  0  0  0  0  0
  1  2  2  0  0  0
  1 23  1  0  0  0
  1 24  1  0  0  0
  2 25  1  0  0  0
  3  7  1  0  0  0
  3 23  2  0  0  0
  3 25  1  0  0  0
  4 23  1  0  0  0
  4 26  1  0  0  0
  4 37  1  0  0  0
  4 38  1  0  0  0
  5 24  2  0  0  0
  5 27  1  0  0  0
  5 28  1  0  0  0
  6 24  1  0  0  0
  6 29  2  0  0  0
  6 30  1  0  0  0
  7  8  1  0  0  0
  7  9  1  0  0  0
  7 39  1  0  0  0
  8 40  1  0  0  0
  8 41  1  0  0  0
  8 42  1  0  0  0
  9 43  1  0  0  0
  9 44  1  0  0  0
  9 45  1  0  0  0
 10 12  2  0  0  0
 10 13  1  0  0  0
 10 26  1  0  0  0
 11 27  2  0  0  0
 11 29  1  0  0  0
 11 46  1  0  0  0
 12 14  1  0  0  0
 12 47  1  0  0  0
 13 15  2  0  0  0
 13 48  1  0  0  0
 14 16  2  0  0  0
 14 31  1  0  0  0
 15 16  1  0  0  0
 15 49  1  0  0  0
 16 17  1  0  0  0
 17 18  2  0  0  0
 17 50  1  0  0  0
 18 19  1  0  0  0
 18 51  1  0  0  0
 19 20  2  0  0  0
 19 21  1  0  0  0
 20 32  1  0  0  0
 20 52  1  0  0  0
 21 22  2  0  0  0
 21 53  1  0  0  0
 22 33  1  0  0  0
 22 54  1  0  0  0
 27 55  1  0  0  0
 29 56  1  0  0  0
 32 33  2  0  0  0
 32 34  1  0  0  0
 33 57  1  0  0  0
 34 35  1  0  0  0
 34 36  2  0  0  0
M  CHG  1  35  -1
M  END
> <s_m_source_file>
../3dct_ligand.sdf

> <i_m_source_file_index>
1

> <s_epik_input>
W2NIXTFbY0hdW2NIXWMoQ2wpYyhjMUNsKS1jMm5vYyhbQ0hdKFtDSDNdKVtDSDNdKWMyW0NIMl1PYzNbY0hdYyhDbCljKFtjSF1bY0hdMykvW0NIXT1bQ0hdL2M0W2NIXWMoQyg9TylbT0hdKVtjSF1bY0hdW2NIXTQ=

> <s_epik_cmdline>
J2VwaWtfYXBwJywgJy1pbWFlJywgJ2xpZ2FuZF9wcm8ubWFlJywgJy1vbWFlJywgJ2xpZ2FuZF9wcmVwLm1hZScsICctbXMnLCAnMScsICctcGgnLCAnNycsICctcGh0JywgJzAuNScsICctbnQn

> <r_lp_tautomer_probability>
1

> <r_epik_Ionization_Penalty>
  0.0008

> <r_epik_Ionization_Penalty_Charging>
  0.0008

> <r_epik_Ionization_Penalty_Neutral>
  0.0000

> <r_epik_State_Penalty>
 -0.0000

> <r_epik_Charging_Adjusted_Penalty>
0.000780533995772531

> <i_epik_Tot_Q>
-1

> <i_epik_Tot_abs_Q>
1

$$$$
