3dcv_ligand
                    3D
 Schrodinger Suite 2020-3.
 35 37  0  0  1  0            999 V2000
   15.6870   33.5600   -0.3660 O   0  0  0  0  0  0
   16.3220   34.3240    0.3920 C   0  0  0  0  0  0
   17.2490   35.1470   -0.1400 N   0  0  0  0  0  0
   17.9630   35.9790    0.6450 C   0  0  0  0  0  0
   18.9470   36.9030    0.0370 C   0  0  0  0  0  0
   19.7620   37.7010    0.8270 C   0  0  0  0  0  0
   20.6520   38.5900    0.2310 C   0  0  0  0  0  0
   21.5540   39.4460    1.0830 C   0  0  0  0  0  0
   20.7100   38.6860   -1.1500 C   0  0  0  0  0  0
   21.5760   39.5480   -1.7550 O   0  0  0  0  0  0
   19.8770   37.9000   -1.9370 C   0  0  0  0  0  0
   18.9910   37.0130   -1.3450 C   0  0  0  0  0  0
   17.7250   36.0130    2.0040 C   0  0  0  0  0  0
   16.7730   35.1560    2.5420 C   0  0  0  0  0  0
   16.0820   34.3260    1.7250 N   0  0  0  0  0  0
   16.5200   35.1890    4.0120 C   0  0  0  0  0  0
   17.5440   34.9210    4.9160 C   0  0  0  0  0  0
   17.2890   34.9680    6.2880 C   0  0  0  0  0  0
   16.0190   35.2930    6.7630 C   0  0  0  0  0  0
   14.9980   35.5670    5.8570 C   0  0  0  0  0  0
   15.2510   35.5200    4.4860 C   0  0  0  0  0  0
   19.7054   37.6318    1.9133 H   0  0  0  0  0  0
   21.3660   39.2322    2.1455 H   0  0  0  0  0  0
   21.3499   40.5078    0.8809 H   0  0  0  0  0  0
   22.6043   39.2226    0.8443 H   0  0  0  0  0  0
   22.2418   40.1768   -1.1456 H   0  0  0  0  0  0
   19.9203   37.9811   -3.0231 H   0  0  0  0  0  0
   18.3314   36.4043   -1.9634 H   0  0  0  0  0  0
   18.2754   36.7015    2.6452 H   0  0  0  0  0  0
   15.3231   33.6515    2.1482 H   0  0  0  0  0  0
   18.5422   34.6751    4.5538 H   0  0  0  0  0  0
   18.0899   34.7487    6.9940 H   0  0  0  0  0  0
   15.8270   35.3322    7.8352 H   0  0  0  0  0  0
   14.0010   35.8182    6.2190 H   0  0  0  0  0  0
   14.4511   35.7436    3.7802 H   0  0  0  0  0  0
  1  2  2  0  0  0
  2  3  1  0  0  0
  2 15  1  0  0  0
  3  4  2  0  0  0
  4  5  1  0  0  0
  4 13  1  0  0  0
  5  6  2  0  0  0
  5 12  1  0  0  0
  6  7  1  0  0  0
  6 22  1  0  0  0
  7  8  1  0  0  0
  7  9  2  0  0  0
  8 23  1  0  0  0
  8 24  1  0  0  0
  8 25  1  0  0  0
  9 10  1  0  0  0
  9 11  1  0  0  0
 10 26  1  0  0  0
 11 12  2  0  0  0
 11 27  1  0  0  0
 12 28  1  0  0  0
 13 14  2  0  0  0
 13 29  1  0  0  0
 14 15  1  0  0  0
 14 16  1  0  0  0
 15 30  1  0  0  0
 16 17  2  0  0  0
 16 21  1  0  0  0
 17 18  1  0  0  0
 17 31  1  0  0  0
 18 19  2  0  0  0
 18 32  1  0  0  0
 19 20  1  0  0  0
 19 33  1  0  0  0
 20 21  2  0  0  0
 20 34  1  0  0  0
 21 35  1  0  0  0
M  END
> <s_m_source_file>
../3dcv_ligand.sdf

> <i_m_source_file_index>
1

> <s_epik_input>
W2NIXTFbY0hdYyhbT0hdKWMoW0NIM10pW2NIXWMxLWMobmMyPU8pW2NIXWMoW25IXTIpLWMzW2NIXVtjSF1bY0hdW2NIXVtjSF0z

> <s_epik_cmdline>
J2VwaWtfYXBwJywgJy1pbWFlJywgJ2xpZ2FuZF9wcm8ubWFlJywgJy1vbWFlJywgJ2xpZ2FuZF9wcmVwLm1hZScsICctbXMnLCAnMScsICctcGgnLCAnNycsICctcGh0JywgJzAuNScsICctbnQn

> <r_lp_tautomer_probability>
1

> <r_epik_Ionization_Penalty>
  0.0093

> <r_epik_Ionization_Penalty_Charging>
  0.0057

> <r_epik_Ionization_Penalty_Neutral>
  0.0035

> <r_epik_State_Penalty>
 -0.0000

> <r_epik_Charging_Adjusted_Penalty>
0.00573595560872387

> <i_epik_Tot_Q>
0

> <i_epik_Tot_abs_Q>
0

$$$$
