3dcw_ligand
                    3D
 Schrodinger Suite 2020-3.
 26 27  0  0  1  0            999 V2000
   -5.4350   -0.3930   16.2740 N   0  0  0  0  0  0
   -3.6220    3.6100   15.2860 C   0  0  0  0  0  0
   -4.7550    4.2550   14.8040 C   0  0  0  0  0  0
   -4.6560    5.4720   14.0860 C   0  0  0  0  0  0
   -3.3160    5.8910   13.8480 C   0  0  0  0  0  0
   -1.8810    7.8730   13.1870 C   0  0  0  0  0  0
   -5.4950    1.0490   18.3050 O   0  0  0  0  0  0
   -7.3680    1.1190   16.7460 O   0  0  0  0  0  0
   -5.9750    0.9350   16.9030 S   0  0  0  0  0  0
   -5.2300    2.2940   16.0620 C   0  0  0  0  0  0
   -3.9160    2.4640   15.9490 N   0  0  0  0  0  0
   -6.1370    3.4830   15.3160 S   0  0  0  0  0  0
   -2.1750    5.2170   14.2850 C   0  0  0  0  0  0
   -2.2870    4.0090   14.9960 C   0  0  0  0  0  0
   -3.1140    7.0290   13.0770 O   0  0  0  0  0  0
   -1.6970    8.4610   14.6020 C   0  0  0  0  0  0
   -5.8898   -1.2532   16.7871 H   0  0  0  0  0  0
   -4.3417   -0.4344   16.3875 H   0  0  0  0  0  0
   -5.5252    6.0357   13.7470 H   0  0  0  0  0  0
   -0.9964    7.2618   12.9548 H   0  0  0  0  0  0
   -1.9451    8.7101   12.4763 H   0  0  0  0  0  0
   -1.1888    5.6303   14.0735 H   0  0  0  0  0  0
   -1.4194    3.4240   15.3011 H   0  0  0  0  0  0
   -0.7814    9.0700   14.6298 H   0  0  0  0  0  0
   -1.6149    7.6419   15.3316 H   0  0  0  0  0  0
   -2.5636    9.0902   14.8531 H   0  0  0  0  0  0
  1  9  1  0  0  0
  1 17  1  0  0  0
  1 18  1  0  0  0
  2  3  2  0  0  0
  2 11  1  0  0  0
  2 14  1  0  0  0
  3  4  1  0  0  0
  3 12  1  0  0  0
  4  5  2  0  0  0
  4 19  1  0  0  0
  5 13  1  0  0  0
  5 15  1  0  0  0
  6 15  1  0  0  0
  6 16  1  0  0  0
  6 20  1  0  0  0
  6 21  1  0  0  0
  7  9  2  0  0  0
  8  9  2  0  0  0
  9 10  1  0  0  0
 10 11  2  0  0  0
 10 12  1  0  0  0
 13 14  2  0  0  0
 13 22  1  0  0  0
 14 23  1  0  0  0
 16 24  1  0  0  0
 16 25  1  0  0  0
 16 26  1  0  0  0
M  END
> <s_m_source_file>
../3dcw_ligand.sdf

> <i_m_source_file_index>
1

> <s_epik_input>
W05IMl1TKD1PKSg9TyljKG4xKXNjKGMxMilbY0hdYyhbY0hdW2NIXTIpT1tDSDJdW0NIM10=

> <s_epik_cmdline>
J2VwaWtfYXBwJywgJy1pbWFlJywgJ2xpZ2FuZF9wcm8ubWFlJywgJy1vbWFlJywgJ2xpZ2FuZF9wcmVwLm1hZScsICctbXMnLCAnMScsICctcGgnLCAnNycsICctcGh0JywgJzAuNScsICctbnQn

> <r_epik_Ionization_Penalty>
  0.0198

> <r_epik_Ionization_Penalty_Charging>
  0.0000

> <r_epik_Ionization_Penalty_Neutral>
  0.0198

> <r_epik_State_Penalty>
  0.0158

> <r_epik_Charging_Adjusted_Penalty>
0.0158177740285826

> <i_epik_Tot_Q>
0

> <i_epik_Tot_abs_Q>
0

$$$$
