3dd8_ligand
                    3D
 Schrodinger Suite 2020-3.
 45 47  0  0  1  0            999 V2000
   -1.2860    9.8490   12.4120 C   0  0  0  0  0  0
    0.0250   10.6530   12.3690 C   0  0  0  0  0  0
    0.4180   11.2100   13.7510 C   0  0  0  0  0  0
    0.6120   10.0830   14.7850 C   0  0  0  0  0  0
   -0.7320    9.5540   15.3220 C   0  0  0  0  0  0
   -1.3660    8.4160   14.4930 C   0  0  0  0  0  0
   -1.0740    8.4340   12.9740 C   0  0  0  0  0  0
   -1.9950    7.5080   12.1680 C   0  0  0  0  0  0
   -2.7500    6.3640   12.8850 C   0  0  0  0  0  0
   -4.0600    6.2410   13.1690 C   0  0  0  0  0  0
   -1.9980    4.9250   13.4130 S   0  0  0  0  0  0
   -1.3820    4.2290   12.2230 O   0  0  0  0  0  0
   -1.0200    5.1620   14.5250 O   0  0  0  0  0  0
   -3.4190    4.1590   13.9810 C   0  0  0  0  0  0
   -3.6610    2.9100   14.5680 C   0  0  0  0  0  0
   -4.4500    5.0870   13.7630 C   0  0  0  0  0  0
   -5.7400    4.6980   14.1370 C   0  0  0  0  0  0
   -5.9870    3.4520   14.7130 C   0  0  0  0  0  0
   -4.9560    2.5520   14.9620 C   0  0  0  0  0  0
   -5.1820    1.2980   15.4940 O   0  0  0  0  0  0
   -5.8730    0.9500   16.7490 S   0  0  0  0  0  0
   -5.1280    1.4430   17.9490 O   0  0  0  0  0  0
   -7.2650    1.4680   16.7630 O   0  0  0  0  0  0
   -5.8480   -0.6380   16.7830 N   0  0  0  0  0  0
   -2.0137   10.3682   13.0530 H   0  0  0  0  0  0
   -1.6935    9.7574   11.3944 H   0  0  0  0  0  0
    0.8417   10.0042   12.0195 H   0  0  0  0  0  0
   -0.0885   11.5029   11.6800 H   0  0  0  0  0  0
    1.3618   11.7687   13.6663 H   0  0  0  0  0  0
   -0.3740   11.8812   14.1146 H   0  0  0  0  0  0
    1.1486    9.2445   14.3171 H   0  0  0  0  0  0
    1.1961   10.4629   15.6362 H   0  0  0  0  0  0
   -0.5910    9.1605   16.3395 H   0  0  0  0  0  0
   -1.4660   10.3730   15.3441 H   0  0  0  0  0  0
   -0.9997    7.4463   14.8611 H   0  0  0  0  0  0
   -2.4608    8.4561   14.5922 H   0  0  0  0  0  0
   -0.0348    8.0905   12.8639 H   0  0  0  0  0  0
   -2.7921    8.1025   11.6977 H   0  0  0  0  0  0
   -1.4104    6.9970   11.3888 H   0  0  0  0  0  0
   -4.7559    7.0554   12.9188 H   0  0  0  0  0  0
   -2.8365    2.2131   14.7188 H   0  0  0  0  0  0
   -6.5713    5.3840   13.9747 H   0  0  0  0  0  0
   -7.0093    3.1777   14.9735 H   0  0  0  0  0  0
   -6.3480   -0.9931   17.6962 H   0  0  0  0  0  0
   -4.8054   -0.9885   16.7759 H   0  0  0  0  0  0
  1  2  1  0  0  0
  1  7  1  0  0  0
  1 25  1  0  0  0
  1 26  1  0  0  0
  2  3  1  0  0  0
  2 27  1  0  0  0
  2 28  1  0  0  0
  3  4  1  0  0  0
  3 29  1  0  0  0
  3 30  1  0  0  0
  4  5  1  0  0  0
  4 31  1  0  0  0
  4 32  1  0  0  0
  5  6  1  0  0  0
  5 33  1  0  0  0
  5 34  1  0  0  0
  6  7  1  0  0  0
  6 35  1  0  0  0
  6 36  1  0  0  0
  7  8  1  0  0  0
  7 37  1  0  0  0
  8  9  1  0  0  0
  8 38  1  0  0  0
  8 39  1  0  0  0
  9 10  2  0  0  0
  9 11  1  0  0  0
 10 16  1  0  0  0
 10 40  1  0  0  0
 11 12  2  0  0  0
 11 13  2  0  0  0
 11 14  1  0  0  0
 14 15  2  0  0  0
 14 16  1  0  0  0
 15 19  1  0  0  0
 15 41  1  0  0  0
 16 17  2  0  0  0
 17 18  1  0  0  0
 17 42  1  0  0  0
 18 19  2  0  0  0
 18 43  1  0  0  0
 19 20  1  0  0  0
 20 21  1  0  0  0
 21 22  2  0  0  0
 21 23  2  0  0  0
 21 24  1  0  0  0
 24 44  1  0  0  0
 24 45  1  0  0  0
M  END
> <s_m_source_file>
../3dd8_ligand.sdf

> <i_m_source_file_index>
1

> <s_epik_input>
W0NIMl0xW0NIMl1bQ0gyXVtDSDJdW0NIMl1bQ0gyXVtDSF0xW0NIMl1DKFMyKD1PKT1PKT1bQ0hdYyhjMjMpW2NIXVtjSF1jKFtjSF0zKU9TKD1PKSg9TylbTkgyXQ==

> <s_epik_cmdline>
J2VwaWtfYXBwJywgJy1pbWFlJywgJ2xpZ2FuZF9wcm8ubWFlJywgJy1vbWFlJywgJ2xpZ2FuZF9wcmVwLm1hZScsICctbXMnLCAnMScsICctcGgnLCAnNycsICctcGh0JywgJzAuNScsICctbnQn

> <r_epik_Ionization_Penalty>
  0.0755

> <r_epik_Ionization_Penalty_Charging>
  0.0000

> <r_epik_Ionization_Penalty_Neutral>
  0.0755

> <r_epik_State_Penalty>
  0.0666

> <r_epik_Charging_Adjusted_Penalty>
0.0665771572380395

> <i_epik_Tot_Q>
0

> <i_epik_Tot_abs_Q>
0

$$$$
