3dda_ligand
                    3D
 Schrodinger Suite 2020-3.
109108  0  0  1  0            999 V2000
   26.2710   28.0530   52.9480 N   0  3  0  0  0  0
   26.3510   26.5610   52.8830 C   0  0  2  0  0  0
   25.1100   26.0210   53.5810 C   0  0  0  0  0  0
   24.8770   26.2850   54.7610 O   0  0  0  0  0  0
   27.6240   26.0760   53.5750 C   0  0  0  0  0  0
   28.1040   24.7230   53.1170 C   0  0  0  0  0  0
   29.6090   24.5770   53.2650 C   0  0  0  0  0  0
   30.1650   24.7890   54.3470 O   0  0  0  0  0  0
   30.2750   24.2050   52.1780 N   0  0  0  0  0  0
   24.3100   25.2710   52.8370 N   0  0  0  0  0  0
   23.0660   24.7230   53.3500 C   0  0  2  0  0  0
   23.1730   24.0660   54.7230 C   0  0  0  0  0  0
   22.3270   24.3310   55.6030 O   0  0  0  0  0  0
   22.5020   23.7250   52.3440 C   0  0  0  0  0  0
   21.0920   23.2950   52.6370 C   0  0  0  0  0  0
   20.7020   22.1430   51.7420 C   0  0  0  0  0  0
   21.4480   20.9270   52.0520 N   0  0  0  0  0  0
   21.2420   20.1860   53.1360 C   0  0  0  0  0  0
   20.3100   20.5350   54.0120 N   0  0  0  0  0  0
   21.9700   19.1000   53.3510 N   0  3  0  0  0  0
   24.1940   23.2260   54.9220 N   0  0  0  0  0  0
   24.3500   22.5300   56.2110 C   0  0  2  0  0  0
   25.8140   22.2600   56.5750 C   0  0  0  0  0  0
   26.7230   22.3660   55.7500 O   0  0  0  0  0  0
   23.5960   21.2130   56.2060 C   0  0  0  0  0  0
   26.0330   21.9200   57.8390 N   0  0  0  0  0  0
   27.3610   21.6350   58.3980 C   0  0  2  0  0  0
   28.0940   20.4260   57.8050 C   0  0  0  0  0  0
   29.3010   20.3260   57.9490 O   0  0  0  0  0  0
   27.2510   21.3840   59.9160 C   0  0  2  0  0  0
   26.7220   20.0640   60.1510 O   0  0  0  0  0  0
   26.3370   22.4160   60.5350 C   0  0  0  0  0  0
   27.3480   19.5160   57.1710 N   0  0  0  0  0  0
   27.8460   18.2730   56.5450 C   0  0  2  0  0  0
   27.0270   17.0730   57.0180 C   0  0  0  0  0  0
   27.1050   15.9840   56.4580 O   0  0  0  0  0  0
   29.3160   18.0130   56.8870 C   0  0  0  0  0  0
   30.3250   18.6420   55.9100 C   0  0  0  0  0  0
   30.1350   18.0910   54.4900 C   0  0  0  0  0  0
   31.1010   18.7580   53.5150 C   0  0  0  0  0  0
   30.9010   18.1850   52.1550 N   0  3  0  0  0  0
   26.2900   17.2760   58.0980 N   0  0  0  0  0  0
   25.4600   16.2280   58.6770 C   0  0  2  0  0  0
   24.0440   16.7800   58.7760 C   0  0  0  0  0  0
   23.4100   16.5890   59.8380 O   0  0  0  0  0  0
   25.9580   15.8450   60.0870 C   0  0  0  0  0  0
   27.4190   16.2110   60.3600 C   0  0  0  0  0  0
   28.3960   14.8910   61.1390 S   0  0  0  0  0  0
   27.1130   13.9710   62.0590 C   0  0  0  0  0  0
   23.5380   17.4240   57.7590 N   0  0  0  0  0  0
   25.3522   28.3930   52.4478 H   0  0  0  0  0  0
   27.1459   28.4894   52.4440 H   0  0  0  0  0  0
   26.2560   28.3739   54.0001 H   0  0  0  0  0  0
   26.3855   26.2250   51.8361 H   0  0  0  0  0  0
   28.4400   26.7881   53.3826 H   0  0  0  0  0  0
   27.4478   26.0043   54.6584 H   0  0  0  0  0  0
   27.6207   23.9394   53.7190 H   0  0  0  0  0  0
   27.8465   24.5821   52.0569 H   0  0  0  0  0  0
   29.7353   24.0277   51.2361 H   0  0  0  0  0  0
   31.3664   24.0742   52.2195 H   0  0  0  0  0  0
   24.6143   25.0675   51.7997 H   0  0  0  0  0  0
   22.4323   25.6144   53.4676 H   0  0  0  0  0  0
   22.5028   24.1757   51.3406 H   0  0  0  0  0  0
   23.1243   22.8180   52.3390 H   0  0  0  0  0  0
   21.0165   22.9768   53.6873 H   0  0  0  0  0  0
   20.4073   24.1373   52.4590 H   0  0  0  0  0  0
   19.6305   21.9278   51.8672 H   0  0  0  0  0  0
   20.9025   22.4090   50.6936 H   0  0  0  0  0  0
   22.2347   20.5750   51.3684 H   0  0  0  0  0  0
   19.7023   21.4355   53.8392 H   0  0  0  0  0  0
   20.1444   19.9241   54.9116 H   0  0  0  0  0  0
   22.7448   18.8052   52.6279 H   0  0  0  0  0  0
   24.9208   23.0564   54.1139 H   0  0  0  0  0  0
   23.9153   23.2291   56.9407 H   0  0  0  0  0  0
   22.5428   21.3945   55.9457 H   0  0  0  0  0  0
   23.6532   20.7540   57.2040 H   0  0  0  0  0  0
   24.0455   20.5360   55.4647 H   0  0  0  0  0  0
   25.1414   21.8572   58.4801 H   0  0  0  0  0  0
   27.9078   22.5463   58.1141 H   0  0  0  0  0  0
   28.2353   21.4113   60.4063 H   0  0  0  0  0  0
   27.2570   19.1813   59.7707 H   0  0  0  0  0  0
   26.7437   23.4218   60.3537 H   0  0  0  0  0  0
   26.2650   22.2393   61.6183 H   0  0  0  0  0  0
   25.3370   22.3380   60.0835 H   0  0  0  0  0  0
   26.2752   19.7569   57.1379 H   0  0  0  0  0  0
   27.7311   18.4359   55.4632 H   0  0  0  0  0  0
   29.5391   18.4242   57.8826 H   0  0  0  0  0  0
   29.5065   16.9296   56.8867 H   0  0  0  0  0  0
   30.1819   19.7324   55.8867 H   0  0  0  0  0  0
   31.3484   18.4136   56.2423 H   0  0  0  0  0  0
   30.3230   17.0072   54.4891 H   0  0  0  0  0  0
   29.1049   18.2848   54.1563 H   0  0  0  0  0  0
   30.9080   19.8407   53.4906 H   0  0  0  0  0  0
   32.1355   18.5773   53.8424 H   0  0  0  0  0  0
   31.5960   18.6638   51.4496 H   0  0  0  0  0  0
   29.8659   18.3657   51.8296 H   0  0  0  0  0  0
   31.0934   17.1023   52.1814 H   0  0  0  0  0  0
   26.3174   18.2740   58.5598 H   0  0  0  0  0  0
   25.5231   15.3554   58.0102 H   0  0  0  0  0  0
   25.3499   16.3624   60.8437 H   0  0  0  0  0  0
   25.8676   14.7574   60.2250 H   0  0  0  0  0  0
   27.9179   16.4601   59.4118 H   0  0  0  0  0  0
   27.4597   17.0788   61.0348 H   0  0  0  0  0  0
   27.5767   13.1259   62.5888 H   0  0  0  0  0  0
   26.3575   13.5923   61.3549 H   0  0  0  0  0  0
   26.6325   14.6410   62.7871 H   0  0  0  0  0  0
   24.1349   17.5666   56.8461 H   0  0  0  0  0  0
   22.5148   17.8239   57.8151 H   0  0  0  0  0  0
   21.7996   18.4932   54.2525 H   0  0  0  0  0  0
  1  2  1  0  0  0
  1 51  1  0  0  0
  1 52  1  0  0  0
  1 53  1  0  0  0
  2  3  1  0  0  0
  2  5  1  0  0  0
  2 54  1  0  0  0
  3  4  2  0  0  0
  3 10  1  0  0  0
  5  6  1  0  0  0
  5 55  1  0  0  0
  5 56  1  0  0  0
  6  7  1  0  0  0
  6 57  1  0  0  0
  6 58  1  0  0  0
  7  8  2  0  0  0
  7  9  1  0  0  0
  9 59  1  0  0  0
  9 60  1  0  0  0
 10 11  1  0  0  0
 10 61  1  0  0  0
 11 12  1  0  0  0
 11 14  1  0  0  0
 11 62  1  0  0  0
 12 13  2  0  0  0
 12 21  1  0  0  0
 14 15  1  0  0  0
 14 63  1  0  0  0
 14 64  1  0  0  0
 15 16  1  0  0  0
 15 65  1  0  0  0
 15 66  1  0  0  0
 16 17  1  0  0  0
 16 67  1  0  0  0
 16 68  1  0  0  0
 17 18  1  0  0  0
 17 69  1  0  0  0
 18 19  1  0  0  0
 18 20  2  0  0  0
 19 70  1  0  0  0
 19 71  1  0  0  0
 20 72  1  0  0  0
 20109  1  0  0  0
 21 22  1  0  0  0
 21 73  1  0  0  0
 22 23  1  0  0  0
 22 25  1  0  0  0
 22 74  1  0  0  0
 23 24  2  0  0  0
 23 26  1  0  0  0
 25 75  1  0  0  0
 25 76  1  0  0  0
 25 77  1  0  0  0
 26 27  1  0  0  0
 26 78  1  0  0  0
 27 28  1  0  0  0
 27 30  1  0  0  0
 27 79  1  0  0  0
 28 29  2  0  0  0
 28 33  1  0  0  0
 30 31  1  0  0  0
 30 32  1  0  0  0
 30 80  1  0  0  0
 31 81  1  0  0  0
 32 82  1  0  0  0
 32 83  1  0  0  0
 32 84  1  0  0  0
 33 34  1  0  0  0
 33 85  1  0  0  0
 34 35  1  0  0  0
 34 37  1  0  0  0
 34 86  1  0  0  0
 35 36  2  0  0  0
 35 42  1  0  0  0
 37 38  1  0  0  0
 37 87  1  0  0  0
 37 88  1  0  0  0
 38 39  1  0  0  0
 38 89  1  0  0  0
 38 90  1  0  0  0
 39 40  1  0  0  0
 39 91  1  0  0  0
 39 92  1  0  0  0
 40 41  1  0  0  0
 40 93  1  0  0  0
 40 94  1  0  0  0
 41 95  1  0  0  0
 41 96  1  0  0  0
 41 97  1  0  0  0
 42 43  1  0  0  0
 42 98  1  0  0  0
 43 44  1  0  0  0
 43 46  1  0  0  0
 43 99  1  0  0  0
 44 45  2  0  0  0
 44 50  1  0  0  0
 46 47  1  0  0  0
 46100  1  0  0  0
 46101  1  0  0  0
 47 48  1  0  0  0
 47102  1  0  0  0
 47103  1  0  0  0
 48 49  1  0  0  0
 49104  1  0  0  0
 49105  1  0  0  0
 49106  1  0  0  0
 50107  1  0  0  0
 50108  1  0  0  0
M  CHG  3   1   1  20   1  41   1
M  END
> <s_m_source_file>
../3dda_ligand.sdf

> <i_m_source_file_index>
1

> <s_epik_input>
Tz1DKFtOSDJdKVtDSDJdW0NIMl1bQ0BIXShbTkgzK10pQyg9TylbTkhdW0NAQEhdKFtDSDJdW0NIMl1bQ0gyXVtOSF0vQyhbTkgyXSk9TlxbSF0pQyg9TylbTkhdW0NAQEhdKFtDSDNdKUMoPU8pW05IXVtDQEBIXShbQ0BIXShbT0hdKVtDSDNdKUMoPU8pW05IXVtDQEBIXShbQ0gyXVtDSDJdW0NIMl1bQ0gyXVtOSDMrXSlDKD1PKVtOSF1bQ0BIXShDKD1PKVtOSDJdKVtDSDJdW0NIMl1TW0NIM10=

> <s_epik_cmdline>
J2VwaWtfYXBwJywgJy1pbWFlJywgJ2xpZ2FuZF9wcm8ubWFlJywgJy1vbWFlJywgJ2xpZ2FuZF9wcmVwLm1hZScsICctbXMnLCAnMScsICctcGgnLCAnNycsICctcGh0JywgJzAuNScsICctbnQn

> <r_epik_Ionization_Penalty>
  0.1735

> <r_epik_Ionization_Penalty_Charging>
  0.1735

> <r_epik_Ionization_Penalty_Neutral>
  0.0000

> <r_epik_State_Penalty>
  0.1624

> <r_epik_Charging_Adjusted_Penalty>
0.335859871538573

> <i_epik_Tot_Q>
3

> <i_epik_Tot_abs_Q>
3

> <s_epik_Chemistry_Notes>
This compound has an imine and may undergo hydrolysis.

$$$$
