3ddb_ligand
                    3D
 Schrodinger Suite 2020-3.
116115  0  0  1  0            999 V2000
   28.2550   27.8660   53.1190 N   0  3  0  0  0  0
   28.1750   26.3810   53.0380 C   0  0  2  0  0  0
   26.9100   25.9190   53.7420 C   0  0  0  0  0  0
   26.7030   26.2280   54.9210 O   0  0  0  0  0  0
   29.3940   25.7520   53.7100 C   0  0  0  0  0  0
   29.6440   24.3050   53.3150 C   0  0  0  0  0  0
   30.8110   23.7260   54.1020 C   0  0  0  0  0  0
   31.8780   24.7130   54.2650 N   0  0  0  0  0  0
   32.5210   25.3030   53.2610 C   0  0  0  0  0  0
   32.2130   25.0090   52.0050 N   0  3  0  0  0  0
   33.4690   26.1970   53.5130 N   0  0  0  0  0  0
   26.0850   25.1630   53.0180 N   0  0  0  0  0  0
   24.8140   24.6710   53.5390 C   0  0  2  0  0  0
   24.8780   24.0520   54.9280 C   0  0  0  0  0  0
   23.9980   24.2870   55.7550 O   0  0  0  0  0  0
   24.2010   23.6530   52.5790 C   0  0  0  0  0  0
   22.7890   23.2240   52.9620 C   0  0  0  0  0  0
   22.3170   22.0900   52.0770 C   0  0  0  0  0  0
   23.0320   20.8460   52.3500 N   0  0  0  0  0  0
   22.8310   20.0900   53.4240 C   0  0  0  0  0  0
   21.9300   20.4480   54.3310 N   0  0  0  0  0  0
   23.5370   18.9810   53.5960 N   0  3  0  0  0  0
   25.9070   23.2510   55.1820 N   0  0  0  0  0  0
   26.0480   22.6140   56.4810 C   0  0  2  0  0  0
   27.4430   22.0600   56.7160 C   0  0  0  0  0  0
   28.2880   22.0580   55.8170 O   0  0  0  0  0  0
   25.0190   21.4990   56.6210 C   0  0  0  0  0  0
   27.6780   21.6020   57.9410 N   0  0  0  0  0  0
   28.9550   21.0120   58.3000 C   0  0  2  0  0  0
   28.9660   19.6070   57.7110 C   0  0  0  0  0  0
   28.0380   19.2270   57.0020 O   0  0  0  0  0  0
   29.1180   20.9020   59.8240 C   0  0  2  0  0  0
   28.1630   19.9670   60.3370 O   0  0  0  0  0  0
   28.9070   22.2440   60.4840 C   0  0  0  0  0  0
   30.0020   18.8340   58.0080 N   0  0  0  0  0  0
   30.0720   17.4790   57.4950 C   0  0  2  0  0  0
   28.9400   16.6150   58.0470 C   0  0  0  0  0  0
   28.7400   15.4910   57.6050 O   0  0  0  0  0  0
   31.4230   16.8490   57.8350 C   0  0  0  0  0  0
   32.5340   17.1070   56.8240 C   0  0  0  0  0  0
   32.0470   17.9830   55.6680 C   0  0  0  0  0  0
   33.0110   17.9880   54.4850 C   0  0  0  0  0  0
   32.4650   18.8060   53.3600 N   0  3  0  0  0  0
   28.1990   17.1430   59.0150 N   0  0  0  0  0  0
   27.0820   16.4260   59.6330 C   0  0  2  0  0  0
   25.7450   16.7080   58.9680 C   0  0  0  0  0  0
   24.7180   16.2830   59.5370 O   0  0  0  0  0  0
   27.0260   16.7880   61.1210 C   0  0  0  0  0  0
   28.2980   16.5360   61.8650 C   0  0  0  0  0  0
   28.8160   14.8020   61.8450 S   0  0  0  0  0  0
   29.4120   14.5990   63.5560 C   0  0  0  0  0  0
   25.6970   17.4270   57.8080 N   0  0  0  0  0  0
   27.3729   28.3078   52.6324 H   0  0  0  0  0  0
   29.1666   28.2124   52.6100 H   0  0  0  0  0  0
   28.2846   28.1746   54.1744 H   0  0  0  0  0  0
   28.1502   26.0939   51.9764 H   0  0  0  0  0  0
   30.2958   26.3212   53.4403 H   0  0  0  0  0  0
   29.2613   25.7709   54.8018 H   0  0  0  0  0  0
   28.7441   23.7075   53.5227 H   0  0  0  0  0  0
   29.8788   24.2532   52.2416 H   0  0  0  0  0  0
   30.4634   23.4161   55.0986 H   0  0  0  0  0  0
   31.2170   22.8543   53.5679 H   0  0  0  0  0  0
   32.1992   25.0143   55.2730 H   0  0  0  0  0  0
   31.4282   24.2689   51.7900 H   0  0  0  0  0  0
   33.7288   26.4449   54.5527 H   0  0  0  0  0  0
   33.9949   26.6900   52.6821 H   0  0  0  0  0  0
   26.3929   24.9124   51.9921 H   0  0  0  0  0  0
   24.2286   25.5993   53.6136 H   0  0  0  0  0  0
   24.1495   24.0861   51.5692 H   0  0  0  0  0  0
   24.8245   22.7470   52.5580 H   0  0  0  0  0  0
   22.7797   22.8861   54.0088 H   0  0  0  0  0  0
   22.1027   24.0757   52.8455 H   0  0  0  0  0  0
   21.2448   21.9135   52.2479 H   0  0  0  0  0  0
   22.4814   22.3552   51.0222 H   0  0  0  0  0  0
   23.7920   20.4819   51.6430 H   0  0  0  0  0  0
   21.3432   21.3677   54.1902 H   0  0  0  0  0  0
   21.7703   19.8249   55.2233 H   0  0  0  0  0  0
   24.2840   18.6826   52.8457 H   0  0  0  0  0  0
   26.6567   23.0718   54.3973 H   0  0  0  0  0  0
   25.8716   23.4229   57.2053 H   0  0  0  0  0  0
   24.0116   21.9062   56.4498 H   0  0  0  0  0  0
   25.0752   21.0732   57.6337 H   0  0  0  0  0  0
   25.2274   20.7127   55.8805 H   0  0  0  0  0  0
   26.8770   21.6780   58.6911 H   0  0  0  0  0  0
   29.7375   21.6682   57.8914 H   0  0  0  0  0  0
   30.1135   20.5148   60.0869 H   0  0  0  0  0  0
   28.1597   18.9288   59.9734 H   0  0  0  0  0  0
   29.6396   22.9647   60.0917 H   0  0  0  0  0  0
   29.0385   22.1425   61.5714 H   0  0  0  0  0  0
   27.8893   22.6021   60.2696 H   0  0  0  0  0  0
   30.8096   19.2232   58.6454 H   0  0  0  0  0  0
   29.9566   17.5867   56.4064 H   0  0  0  0  0  0
   31.7793   17.2431   58.7982 H   0  0  0  0  0  0
   31.3112   15.7569   57.9045 H   0  0  0  0  0  0
   33.3704   17.6199   57.3213 H   0  0  0  0  0  0
   32.8843   16.1492   56.4117 H   0  0  0  0  0  0
   31.0761   17.6104   55.3094 H   0  0  0  0  0  0
   31.9357   19.0206   56.0158 H   0  0  0  0  0  0
   33.9747   18.4152   54.7992 H   0  0  0  0  0  0
   33.1643   16.9573   54.1325 H   0  0  0  0  0  0
   33.1754   18.7950   52.5202 H   0  0  0  0  0  0
   32.3141   19.8415   53.6991 H   0  0  0  0  0  0
   31.5036   18.3836   53.0325 H   0  0  0  0  0  0
   28.4524   18.1597   59.3497 H   0  0  0  0  0  0
   27.2983   15.3595   59.4724 H   0  0  0  0  0  0
   26.7970   17.8584   61.2296 H   0  0  0  0  0  0
   26.2425   16.1936   61.6138 H   0  0  0  0  0  0
   29.1093   17.1268   61.4148 H   0  0  0  0  0  0
   28.1714   16.8293   62.9176 H   0  0  0  0  0  0
   29.7686   13.5685   63.7002 H   0  0  0  0  0  0
   28.5898   14.8040   64.2574 H   0  0  0  0  0  0
   30.2371   15.3021   63.7427 H   0  0  0  0  0  0
   26.6281   17.7815   57.3417 H   0  0  0  0  0  0
   24.7273   17.6517   57.3399 H   0  0  0  0  0  0
   23.3757   18.3593   54.4890 H   0  0  0  0  0  0
   32.7424   25.5053   51.1783 H   0  0  0  0  0  0
  1  2  1  0  0  0
  1 53  1  0  0  0
  1 54  1  0  0  0
  1 55  1  0  0  0
  2  3  1  0  0  0
  2  5  1  0  0  0
  2 56  1  0  0  0
  3  4  2  0  0  0
  3 12  1  0  0  0
  5  6  1  0  0  0
  5 57  1  0  0  0
  5 58  1  0  0  0
  6  7  1  0  0  0
  6 59  1  0  0  0
  6 60  1  0  0  0
  7  8  1  0  0  0
  7 61  1  0  0  0
  7 62  1  0  0  0
  8  9  1  0  0  0
  8 63  1  0  0  0
  9 10  2  0  0  0
  9 11  1  0  0  0
 10 64  1  0  0  0
 10116  1  0  0  0
 11 65  1  0  0  0
 11 66  1  0  0  0
 12 13  1  0  0  0
 12 67  1  0  0  0
 13 14  1  0  0  0
 13 16  1  0  0  0
 13 68  1  0  0  0
 14 15  2  0  0  0
 14 23  1  0  0  0
 16 17  1  0  0  0
 16 69  1  0  0  0
 16 70  1  0  0  0
 17 18  1  0  0  0
 17 71  1  0  0  0
 17 72  1  0  0  0
 18 19  1  0  0  0
 18 73  1  0  0  0
 18 74  1  0  0  0
 19 20  1  0  0  0
 19 75  1  0  0  0
 20 21  1  0  0  0
 20 22  2  0  0  0
 21 76  1  0  0  0
 21 77  1  0  0  0
 22 78  1  0  0  0
 22115  1  0  0  0
 23 24  1  0  0  0
 23 79  1  0  0  0
 24 25  1  0  0  0
 24 27  1  0  0  0
 24 80  1  0  0  0
 25 26  2  0  0  0
 25 28  1  0  0  0
 27 81  1  0  0  0
 27 82  1  0  0  0
 27 83  1  0  0  0
 28 29  1  0  0  0
 28 84  1  0  0  0
 29 30  1  0  0  0
 29 32  1  0  0  0
 29 85  1  0  0  0
 30 31  2  0  0  0
 30 35  1  0  0  0
 32 33  1  0  0  0
 32 34  1  0  0  0
 32 86  1  0  0  0
 33 87  1  0  0  0
 34 88  1  0  0  0
 34 89  1  0  0  0
 34 90  1  0  0  0
 35 36  1  0  0  0
 35 91  1  0  0  0
 36 37  1  0  0  0
 36 39  1  0  0  0
 36 92  1  0  0  0
 37 38  2  0  0  0
 37 44  1  0  0  0
 39 40  1  0  0  0
 39 93  1  0  0  0
 39 94  1  0  0  0
 40 41  1  0  0  0
 40 95  1  0  0  0
 40 96  1  0  0  0
 41 42  1  0  0  0
 41 97  1  0  0  0
 41 98  1  0  0  0
 42 43  1  0  0  0
 42 99  1  0  0  0
 42100  1  0  0  0
 43101  1  0  0  0
 43102  1  0  0  0
 43103  1  0  0  0
 44 45  1  0  0  0
 44104  1  0  0  0
 45 46  1  0  0  0
 45 48  1  0  0  0
 45105  1  0  0  0
 46 47  2  0  0  0
 46 52  1  0  0  0
 48 49  1  0  0  0
 48106  1  0  0  0
 48107  1  0  0  0
 49 50  1  0  0  0
 49108  1  0  0  0
 49109  1  0  0  0
 50 51  1  0  0  0
 51110  1  0  0  0
 51111  1  0  0  0
 51112  1  0  0  0
 52113  1  0  0  0
 52114  1  0  0  0
M  CHG  4   1   1  10   1  22   1  43   1
M  END
> <s_m_source_file>
../3ddb_ligand.sdf

> <i_m_source_file_index>
1

> <s_epik_input>
W0hdL049QyhbTkgyXSlcW05IXVtDSDJdW0NIMl1bQ0gyXVtDQEhdKFtOSDMrXSlDKD1PKVtOSF1bQ0BASF0oW0NIMl1bQ0gyXVtDSDJdW05IXS9DKFtOSDJdKT1OXFtIXSlDKD1PKVtOSF1bQ0BASF0oW0NIM10pQyg9TylbTkhdW0NAQEhdKFtDQEhdKFtPSF0pW0NIM10pQyg9TylbTkhdW0NAQEhdKFtDSDJdW0NIMl1bQ0gyXVtDSDJdW05IMytdKUMoPU8pW05IXVtDQEhdKEMoPU8pW05IMl0pW0NIMl1bQ0gyXVNbQ0gzXQ==

> <s_epik_cmdline>
J2VwaWtfYXBwJywgJy1pbWFlJywgJ2xpZ2FuZF9wcm8ubWFlJywgJy1vbWFlJywgJ2xpZ2FuZF9wcmVwLm1hZScsICctbXMnLCAnMScsICctcGgnLCAnNycsICctcGh0JywgJzAuNScsICctbnQn

> <r_epik_Ionization_Penalty>
  0.1371

> <r_epik_Ionization_Penalty_Charging>
  0.1371

> <r_epik_Ionization_Penalty_Neutral>
  0.0000

> <r_epik_State_Penalty>
  0.1260

> <r_epik_Charging_Adjusted_Penalty>
0.263116538205131

> <i_epik_Tot_Q>
4

> <i_epik_Tot_abs_Q>
4

> <s_epik_Chemistry_Notes>
This compound has an imine and may undergo hydrolysis.

$$$$
