3ddf_ligand
                    3D
 Schrodinger Suite 2020-3.
 38 39  0  0  1  0            999 V2000
   27.2850   67.6370   11.5310 C   0  0  0  0  0  0
   27.0370   68.9770   11.7610 C   0  0  0  0  0  0
   27.9310   69.7900   12.4580 C   0  0  0  0  0  0
   29.1240   69.2700   12.9820 C   0  0  0  0  0  0
   29.4270   67.9340   12.8050 C   0  0  0  0  0  0
   28.5580   67.0940   12.0920 C   0  0  0  0  0  0
   28.8520   65.5910   11.8840 C   0  0  2  0  0  0
   29.1040   65.0270   13.3270 C   0  0  0  0  0  0
   29.1240   63.6170   13.1430 O   0  0  0  0  0  0
   30.0900   65.3760   11.0280 N   0  3  0  0  0  0
   29.9950   66.0980    9.7330 C   0  0  0  0  0  0
   31.0830   65.6930    8.7260 C   0  0  1  0  0  0
   30.7800   66.3990    7.4570 N   0  0  0  0  0  0
   31.7870   67.0310    6.8950 C   0  0  0  0  0  0
   31.7860   67.6410    5.8060 O   0  0  0  0  0  0
   33.0180   66.8840    7.7760 C   0  0  2  0  0  0
   33.9280   65.9840    7.0730 O   0  0  0  0  0  0
   32.4900   66.2520    9.0390 C   0  0  2  0  0  0
   33.3470   65.2080    9.5370 O   0  0  0  0  0  0
   26.5900   67.0112   10.9712 H   0  0  0  0  0  0
   26.1116   69.4133   11.3851 H   0  0  0  0  0  0
   27.6990   70.8458   12.5977 H   0  0  0  0  0  0
   29.8099   69.9184   13.5272 H   0  0  0  0  0  0
   30.3487   67.5289   13.2226 H   0  0  0  0  0  0
   28.0340   65.0958   11.3403 H   0  0  0  0  0  0
   30.0621   65.4100   13.7082 H   0  0  0  0  0  0
   28.2897   65.3477   13.9934 H   0  0  0  0  0  0
   29.2860   62.9522   14.0043 H   0  0  0  0  0  0
   30.9760   65.7447   11.5656 H   0  0  0  0  0  0
   30.2088   64.3028   10.8180 H   0  0  0  0  0  0
   29.0205   65.8893    9.2675 H   0  0  0  0  0  0
   30.0936   67.1795    9.9080 H   0  0  0  0  0  0
   31.0725   64.5936    8.6924 H   0  0  0  0  0  0
   29.7615   66.3723    7.0424 H   0  0  0  0  0  0
   33.5820   67.8040    7.9892 H   0  0  0  0  0  0
   34.3974   66.3024    6.1305 H   0  0  0  0  0  0
   32.5067   66.9881    9.8562 H   0  0  0  0  0  0
   33.0761   64.6649   10.4544 H   0  0  0  0  0  0
  1  2  2  0  0  0
  1  6  1  0  0  0
  1 20  1  0  0  0
  2  3  1  0  0  0
  2 21  1  0  0  0
  3  4  2  0  0  0
  3 22  1  0  0  0
  4  5  1  0  0  0
  4 23  1  0  0  0
  5  6  2  0  0  0
  5 24  1  0  0  0
  6  7  1  0  0  0
  7  8  1  0  0  0
  7 10  1  0  0  0
  7 25  1  0  0  0
  8  9  1  0  0  0
  8 26  1  0  0  0
  8 27  1  0  0  0
  9 28  1  0  0  0
 10 11  1  0  0  0
 10 29  1  0  0  0
 10 30  1  0  0  0
 11 12  1  0  0  0
 11 31  1  0  0  0
 11 32  1  0  0  0
 12 13  1  0  0  0
 12 18  1  0  0  0
 12 33  1  0  0  0
 13 14  1  0  0  0
 13 34  1  0  0  0
 14 15  2  0  0  0
 14 16  1  0  0  0
 16 17  1  0  0  0
 16 18  1  0  0  0
 16 35  1  0  0  0
 17 36  1  0  0  0
 18 19  1  0  0  0
 18 37  1  0  0  0
 19 38  1  0  0  0
M  CHG  1  10   1
M  END
> <s_m_source_file>
../3ddf_ligand.sdf

> <i_m_source_file_index>
1

> <s_epik_input>
W2NIXTFbY0hdW2NIXVtjSF1bY0hdYzFbQ0BIXShbQ0gyXVtPSF0pW05IMitdW0NIMl1bQ0BIXTJbTkhdQyg9TylbQ0BIXShbT0hdKVtDQEBIXTJbT0hd

> <s_epik_cmdline>
J2VwaWtfYXBwJywgJy1pbWFlJywgJ2xpZ2FuZF9wcm8ubWFlJywgJy1vbWFlJywgJ2xpZ2FuZF9wcmVwLm1hZScsICctbXMnLCAnMScsICctcGgnLCAnNycsICctcGh0JywgJzAuNScsICctbnQn

> <r_epik_Ionization_Penalty>
  0.2014

> <r_epik_Ionization_Penalty_Charging>
  0.2013

> <r_epik_Ionization_Penalty_Neutral>
  0.0000

> <r_epik_State_Penalty>
  0.1912

> <r_epik_Charging_Adjusted_Penalty>
0.392556684677047

> <i_epik_Tot_Q>
1

> <i_epik_Tot_abs_Q>
1

$$$$
