3ddg_ligand
                    3D
 Schrodinger Suite 2020-3.
 41 42  0  0  1  0            999 V2000
   29.6920   67.7980   12.8080 C   0  0  0  0  0  0
   29.4710   69.1240   13.1240 C   0  0  0  0  0  0
   28.3520   69.8560   12.7390 C   0  0  0  0  0  0
   27.3650   69.1100   12.1150 C   0  0  0  0  0  0
   27.5310   67.7610   11.8030 C   0  0  0  0  0  0
   28.6780   67.0940   12.1730 C   0  0  0  0  0  0
   28.9400   65.6190   11.8880 C   0  0  2  0  0  0
   29.1110   65.0090   13.2830 C   0  0  0  0  0  0
   29.3020   63.6050   13.2270 O   0  0  0  0  0  0
   30.1600   65.4270   11.0820 N   0  3  0  0  0  0
   30.0820   66.1180    9.7690 C   0  0  0  0  0  0
   31.1780   65.7230    8.7590 C   0  0  1  0  0  0
   30.8750   66.3990    7.4810 N   0  0  0  0  0  0
   29.5470   66.2590    6.8520 C   0  0  0  0  0  0
   31.9150   66.9950    6.9030 C   0  0  0  0  0  0
   31.9090   67.5850    5.8290 O   0  0  0  0  0  0
   33.1550   66.7440    7.7530 C   0  0  2  0  0  0
   34.1150   66.0080    7.0120 O   0  0  0  0  0  0
   32.6050   66.1790    9.0620 C   0  0  2  0  0  0
   33.4320   65.2170    9.6690 O   0  0  0  0  0  0
   30.6390   67.3162   13.0511 H   0  0  0  0  0  0
   30.2286   69.6346   13.7185 H   0  0  0  0  0  0
   28.2595   70.9279   12.9139 H   0  0  0  0  0  0
   26.4236   69.5958   11.8584 H   0  0  0  0  0  0
   26.7473   67.2304   11.2623 H   0  0  0  0  0  0
   28.1532   65.1500   11.2789 H   0  0  0  0  0  0
   29.9879   65.4564   13.7738 H   0  0  0  0  0  0
   28.2120   65.2104   13.8840 H   0  0  0  0  0  0
   29.4391   63.0311   14.1554 H   0  0  0  0  0  0
   31.0268   65.8284   11.6275 H   0  0  0  0  0  0
   30.3101   64.3536   10.8940 H   0  0  0  0  0  0
   29.1172   65.8909    9.2919 H   0  0  0  0  0  0
   30.1696   67.2040    9.9204 H   0  0  0  0  0  0
   31.1578   64.6235    8.7338 H   0  0  0  0  0  0
   28.8699   65.7299    7.5388 H   0  0  0  0  0  0
   29.6424   65.6864    5.9176 H   0  0  0  0  0  0
   29.1391   67.2563    6.6309 H   0  0  0  0  0  0
   33.8225   67.5884    7.9798 H   0  0  0  0  0  0
   34.5115   66.4139    6.0696 H   0  0  0  0  0  0
   32.6467   66.8903    9.9000 H   0  0  0  0  0  0
   33.1268   64.7482   10.6161 H   0  0  0  0  0  0
  1  2  2  0  0  0
  1  6  1  0  0  0
  1 21  1  0  0  0
  2  3  1  0  0  0
  2 22  1  0  0  0
  3  4  2  0  0  0
  3 23  1  0  0  0
  4  5  1  0  0  0
  4 24  1  0  0  0
  5  6  2  0  0  0
  5 25  1  0  0  0
  6  7  1  0  0  0
  7  8  1  0  0  0
  7 10  1  0  0  0
  7 26  1  0  0  0
  8  9  1  0  0  0
  8 27  1  0  0  0
  8 28  1  0  0  0
  9 29  1  0  0  0
 10 11  1  0  0  0
 10 30  1  0  0  0
 10 31  1  0  0  0
 11 12  1  0  0  0
 11 32  1  0  0  0
 11 33  1  0  0  0
 12 13  1  0  0  0
 12 19  1  0  0  0
 12 34  1  0  0  0
 13 14  1  0  0  0
 13 15  1  0  0  0
 14 35  1  0  0  0
 14 36  1  0  0  0
 14 37  1  0  0  0
 15 16  2  0  0  0
 15 17  1  0  0  0
 17 18  1  0  0  0
 17 19  1  0  0  0
 17 38  1  0  0  0
 18 39  1  0  0  0
 19 20  1  0  0  0
 19 40  1  0  0  0
 20 41  1  0  0  0
M  CHG  1  10   1
M  END
> <s_m_source_file>
../3ddg_ligand.sdf

> <i_m_source_file_index>
1

> <s_epik_input>
W2NIXTFbY0hdW2NIXVtjSF1bY0hdYzFbQ0BIXShbQ0gyXVtPSF0pW05IMitdW0NIMl1bQ0BIXTJOKFtDSDNdKUMoPU8pW0NASF0oW09IXSlbQ0BASF0yW09IXQ==

> <s_epik_cmdline>
J2VwaWtfYXBwJywgJy1pbWFlJywgJ2xpZ2FuZF9wcm8ubWFlJywgJy1vbWFlJywgJ2xpZ2FuZF9wcmVwLm1hZScsICctbXMnLCAnMScsICctcGgnLCAnNycsICctcGh0JywgJzAuNScsICctbnQn

> <r_epik_Ionization_Penalty>
  0.2027

> <r_epik_Ionization_Penalty_Charging>
  0.2013

> <r_epik_Ionization_Penalty_Neutral>
  0.0014

> <r_epik_State_Penalty>
  0.1912

> <r_epik_Charging_Adjusted_Penalty>
0.392556684677047

> <i_epik_Tot_Q>
1

> <i_epik_Tot_abs_Q>
1

$$$$
