3ddp_ligand
                    3D
 Schrodinger Suite 2020-3.
 61 64  0  0  1  0            999 V2000
   32.8220  -14.6680   37.8260 C   0  0  0  0  0  0
   32.4820  -13.3730   35.9020 C   0  0  0  0  0  0
   32.2520  -14.5770   35.0940 C   0  0  0  0  0  0
   32.3460  -15.8790   35.8220 C   0  0  0  0  0  0
   32.0800  -12.7690   33.8540 C   0  0  0  0  0  0
   32.5600  -10.9610   35.6400 C   0  0  0  0  0  0
   33.5820  -10.2020   34.8150 C   0  0  0  0  0  0
   33.6690  -13.4830   39.7720 C   0  0  1  0  0  0
   35.7730  -12.4220   38.8480 C   0  0  0  0  0  0
   32.5230  -14.5970   41.6180 O   0  0  0  0  0  0
   33.1970  -13.3890   41.2230 C   0  0  0  0  0  0
   35.1980  -13.5070   39.7300 C   0  0  0  0  0  0
   33.1060  -14.6740   39.1450 N   0  0  0  0  0  0
   32.6250  -15.8340   37.1520 N   0  0  0  0  0  0
   32.3660  -12.3290   35.0980 N   0  0  0  0  0  0
   31.2200  -10.2740   35.7970 C   0  0  0  0  0  0
   32.0070  -14.1300   33.8420 N   0  0  0  0  0  0
   32.7540  -13.4710   37.2190 N   0  0  0  0  0  0
   32.1450  -17.0570   35.1830 N   0  0  0  0  0  0
   32.6390  -18.3290   35.6740 C   0  0  0  0  0  0
   31.5390  -18.9790   36.4700 C   0  0  0  0  0  0
   31.6840  -19.1560   37.8490 C   0  0  0  0  0  0
   30.6600  -19.7490   38.5860 C   0  0  0  0  0  0
   29.4990  -20.1740   37.9390 C   0  0  0  0  0  0
   29.3570  -19.9850   36.5630 C   0  0  0  0  0  0
   30.3780  -19.3900   35.8250 C   0  0  0  0  0  0
   28.3890  -20.7810   38.7220 C   0  0  0  0  0  0
   28.4590  -20.7870   40.0710 N   0  0  0  0  0  0
   27.4710  -21.3040   40.8310 C   0  0  0  0  0  0
   26.3260  -21.8340   40.2290 C   0  0  0  0  0  0
   26.2190  -21.8260   38.8380 C   0  0  0  0  0  0
   27.2580  -21.2880   38.0760 C   0  0  0  0  0  0
   31.9293  -12.1285   32.9850 H   0  0  0  0  0  0
   32.9879  -11.0262   36.6513 H   0  0  0  0  0  0
   34.5147  -10.7827   34.7621 H   0  0  0  0  0  0
   33.7826   -9.2281   35.2853 H   0  0  0  0  0  0
   33.1897  -10.0449   33.7994 H   0  0  0  0  0  0
   33.2951  -12.6345   39.1801 H   0  0  0  0  0  0
   36.8711  -12.4869   38.8556 H   0  0  0  0  0  0
   35.4612  -11.4376   39.2272 H   0  0  0  0  0  0
   35.4051  -12.5521   37.8196 H   0  0  0  0  0  0
   32.1196  -14.6938   42.6368 H   0  0  0  0  0  0
   34.0645  -13.2345   41.8815 H   0  0  0  0  0  0
   32.5015  -12.5433   41.3283 H   0  0  0  0  0  0
   35.5950  -13.3621   40.7456 H   0  0  0  0  0  0
   35.5389  -14.4766   39.3380 H   0  0  0  0  0  0
   32.9140  -15.5741   39.7474 H   0  0  0  0  0  0
   31.3720   -9.2614   36.1989 H   0  0  0  0  0  0
   30.5903  -10.8524   36.4890 H   0  0  0  0  0  0
   30.7242  -10.2091   34.8172 H   0  0  0  0  0  0
   31.5732  -17.0144   34.2443 H   0  0  0  0  0  0
   32.9197  -18.9666   34.8227 H   0  0  0  0  0  0
   33.5196  -18.1592   36.3110 H   0  0  0  0  0  0
   32.5970  -18.8306   38.3477 H   0  0  0  0  0  0
   30.7658  -19.8801   39.6629 H   0  0  0  0  0  0
   28.4425  -20.3047   36.0634 H   0  0  0  0  0  0
   30.2674  -19.2478   34.7500 H   0  0  0  0  0  0
   27.5659  -21.3084   41.9168 H   0  0  0  0  0  0
   25.5248  -22.2494   40.8403 H   0  0  0  0  0  0
   25.3338  -22.2354   38.3513 H   0  0  0  0  0  0
   27.1878  -21.2637   36.9885 H   0  0  0  0  0  0
  1 13  1  0  0  0
  1 14  1  0  0  0
  1 18  2  0  0  0
  2  3  2  0  0  0
  2 15  1  0  0  0
  2 18  1  0  0  0
  3  4  1  0  0  0
  3 17  1  0  0  0
  4 14  2  0  0  0
  4 19  1  0  0  0
  5 15  1  0  0  0
  5 17  2  0  0  0
  5 33  1  0  0  0
  6  7  1  0  0  0
  6 15  1  0  0  0
  6 16  1  0  0  0
  6 34  1  0  0  0
  7 35  1  0  0  0
  7 36  1  0  0  0
  7 37  1  0  0  0
  8 11  1  0  0  0
  8 12  1  0  0  0
  8 13  1  0  0  0
  8 38  1  0  0  0
  9 12  1  0  0  0
  9 39  1  0  0  0
  9 40  1  0  0  0
  9 41  1  0  0  0
 10 11  1  0  0  0
 10 42  1  0  0  0
 11 43  1  0  0  0
 11 44  1  0  0  0
 12 45  1  0  0  0
 12 46  1  0  0  0
 13 47  1  0  0  0
 16 48  1  0  0  0
 16 49  1  0  0  0
 16 50  1  0  0  0
 19 20  1  0  0  0
 19 51  1  0  0  0
 20 21  1  0  0  0
 20 52  1  0  0  0
 20 53  1  0  0  0
 21 22  2  0  0  0
 21 26  1  0  0  0
 22 23  1  0  0  0
 22 54  1  0  0  0
 23 24  2  0  0  0
 23 55  1  0  0  0
 24 25  1  0  0  0
 24 27  1  0  0  0
 25 26  2  0  0  0
 25 56  1  0  0  0
 26 57  1  0  0  0
 27 28  2  0  0  0
 27 32  1  0  0  0
 28 29  1  0  0  0
 29 30  2  0  0  0
 29 58  1  0  0  0
 30 31  1  0  0  0
 30 59  1  0  0  0
 31 32  2  0  0  0
 31 60  1  0  0  0
 32 61  1  0  0  0
M  END
> <s_m_source_file>
../3ddp_ligand.sdf

> <i_m_source_file_index>
1

> <s_epik_input>
W0NIM11bQ0hdKFtDSDNdKW4xW2NIXW5jKGMxMiljKG5jKG4yKVtOSF1bQ0BASF0oW0NIMl1bT0hdKVtDSDJdW0NIM10pW05IXVtDSDJdYzNbY0hdW2NIXWMoW2NIXVtjSF0zKS1jNG5bY0hdW2NIXVtjSF1bY0hdNA==

> <s_epik_cmdline>
J2VwaWtfYXBwJywgJy1pbWFlJywgJ2xpZ2FuZF9wcm8ubWFlJywgJy1vbWFlJywgJ2xpZ2FuZF9wcmVwLm1hZScsICctbXMnLCAnMScsICctcGgnLCAnNycsICctcGh0JywgJzAuNScsICctbnQn

> <r_lp_tautomer_probability>
1

> <r_epik_Ionization_Penalty>
  0.0323

> <r_epik_Ionization_Penalty_Charging>
  0.0000

> <r_epik_Ionization_Penalty_Neutral>
  0.0323

> <r_epik_State_Penalty>
 -0.0000

> <r_epik_Charging_Adjusted_Penalty>
0

> <i_epik_Tot_Q>
0

> <i_epik_Tot_abs_Q>
0

$$$$
