3ddq_ligand
                    3D
 Schrodinger Suite 2020-3.
 52 54  0  0  1  0            999 V2000
  -34.3270   17.8530   35.2940 O   0  0  0  0  0  0
  -33.8910   16.6360   34.6780 C   0  0  0  0  0  0
  -34.7150   16.3620   33.4250 C   0  0  1  0  0  0
  -36.2080   16.2620   33.7610 C   0  0  0  0  0  0
  -37.0790   15.7250   32.6290 C   0  0  0  0  0  0
  -34.5710   17.5490   32.5920 N   0  0  0  0  0  0
  -34.1710   17.4670   31.3090 C   0  0  0  0  0  0
  -33.8630   16.2650   30.7640 N   0  0  0  0  0  0
  -33.4630   16.2320   29.4730 C   0  0  0  0  0  0
  -33.1080   15.2070   28.7460 N   0  0  0  0  0  0
  -33.2530   13.9370   29.4580 C   0  0  0  0  0  0
  -34.5220   13.1660   29.0410 C   0  0  0  0  0  0
  -32.0520   13.2140   30.1060 C   0  0  0  0  0  0
  -32.8010   15.6150   27.5020 C   0  0  0  0  0  0
  -33.3510   17.3690   28.7000 C   0  0  0  0  0  0
  -32.9300   16.9750   27.4770 N   0  0  0  0  0  0
  -34.0770   18.6010   30.5770 N   0  0  0  0  0  0
  -33.6780   18.5840   29.2880 C   0  0  0  0  0  0
  -33.5770   19.7200   28.5660 N   0  0  0  0  0  0
  -33.9320   21.0170   29.1270 C   0  0  0  0  0  0
  -32.7830   21.7730   29.7180 C   0  0  0  0  0  0
  -32.8560   22.1790   31.0530 C   0  0  0  0  0  0
  -31.8030   22.8960   31.6230 C   0  0  0  0  0  0
  -30.6940   23.2080   30.8370 C   0  0  0  0  0  0
  -30.6350   22.8100   29.4990 C   0  0  0  0  0  0
  -31.6830   22.0860   28.9350 C   0  0  0  0  0  0
  -33.8411   18.2082   36.2147 H   0  0  0  0  0  0
  -32.8301   16.7247   34.4014 H   0  0  0  0  0  0
  -34.0174   15.8019   35.3840 H   0  0  0  0  0  0
  -34.3635   15.4508   32.9189 H   0  0  0  0  0  0
  -36.3465   15.5864   34.6180 H   0  0  0  0  0  0
  -36.5944   17.2601   34.0148 H   0  0  0  0  0  0
  -38.1277   15.6886   32.9589 H   0  0  0  0  0  0
  -36.7446   14.7128   32.3577 H   0  0  0  0  0  0
  -36.9925   16.3865   31.7544 H   0  0  0  0  0  0
  -34.7911   18.5431   33.0083 H   0  0  0  0  0  0
  -33.4110   14.3966   30.4448 H   0  0  0  0  0  0
  -35.2489   13.8659   28.6031 H   0  0  0  0  0  0
  -34.9645   12.6830   29.9247 H   0  0  0  0  0  0
  -34.2576   12.3993   28.2979 H   0  0  0  0  0  0
  -31.2584   13.9440   30.3235 H   0  0  0  0  0  0
  -31.6676   12.4497   29.4146 H   0  0  0  0  0  0
  -32.3746   12.7334   31.0414 H   0  0  0  0  0  0
  -32.5043   14.9788   26.6682 H   0  0  0  0  0  0
  -33.2161   19.6493   27.5293 H   0  0  0  0  0  0
  -34.3613   21.6525   28.3384 H   0  0  0  0  0  0
  -34.6712   20.8793   29.9299 H   0  0  0  0  0  0
  -33.7354   21.9357   31.6493 H   0  0  0  0  0  0
  -31.8467   23.2074   32.6667 H   0  0  0  0  0  0
  -29.8653   23.7677   31.2707 H   0  0  0  0  0  0
  -29.7655   23.0670   28.8941 H   0  0  0  0  0  0
  -31.6386   21.7701   27.8927 H   0  0  0  0  0  0
  1  2  1  0  0  0
  1 27  1  0  0  0
  2  3  1  0  0  0
  2 28  1  0  0  0
  2 29  1  0  0  0
  3  4  1  0  0  0
  3  6  1  0  0  0
  3 30  1  0  0  0
  4  5  1  0  0  0
  4 31  1  0  0  0
  4 32  1  0  0  0
  5 33  1  0  0  0
  5 34  1  0  0  0
  5 35  1  0  0  0
  6  7  1  0  0  0
  6 36  1  0  0  0
  7  8  2  0  0  0
  7 17  1  0  0  0
  8  9  1  0  0  0
  9 10  1  0  0  0
  9 15  2  0  0  0
 10 11  1  0  0  0
 10 14  1  0  0  0
 11 12  1  0  0  0
 11 13  1  0  0  0
 11 37  1  0  0  0
 12 38  1  0  0  0
 12 39  1  0  0  0
 12 40  1  0  0  0
 13 41  1  0  0  0
 13 42  1  0  0  0
 13 43  1  0  0  0
 14 16  2  0  0  0
 14 44  1  0  0  0
 15 16  1  0  0  0
 15 18  1  0  0  0
 17 18  2  0  0  0
 18 19  1  0  0  0
 19 20  1  0  0  0
 19 45  1  0  0  0
 20 21  1  0  0  0
 20 46  1  0  0  0
 20 47  1  0  0  0
 21 22  2  0  0  0
 21 26  1  0  0  0
 22 23  1  0  0  0
 22 48  1  0  0  0
 23 24  2  0  0  0
 23 49  1  0  0  0
 24 25  1  0  0  0
 24 50  1  0  0  0
 25 26  2  0  0  0
 25 51  1  0  0  0
 26 52  1  0  0  0
M  END
> <s_m_source_file>
../3ddq_ligand.sdf

> <i_m_source_file_index>
1

> <s_epik_input>
W09IXVtDSDJdW0NAQEhdKFtDSDJdW0NIM10pW05IXWMobjEpbmMoYyhjMTIpbltjSF1uMltDSF0oW0NIM10pW0NIM10pW05IXVtDSDJdYzNbY0hdW2NIXVtjSF1bY0hdW2NIXTM=

> <s_epik_cmdline>
J2VwaWtfYXBwJywgJy1pbWFlJywgJ2xpZ2FuZF9wcm8ubWFlJywgJy1vbWFlJywgJ2xpZ2FuZF9wcmVwLm1hZScsICctbXMnLCAnMScsICctcGgnLCAnNycsICctcGh0JywgJzAuNScsICctbnQn

> <r_epik_Ionization_Penalty>
  0.0222

> <r_epik_Ionization_Penalty_Charging>
  0.0000

> <r_epik_Ionization_Penalty_Neutral>
  0.0222

> <r_epik_State_Penalty>
  0.0128

> <r_epik_Charging_Adjusted_Penalty>
0.0128024195703568

> <i_epik_Tot_Q>
0

> <i_epik_Tot_abs_Q>
0

$$$$
