3ddu_ligand
                    3D
 Schrodinger Suite 2020-3.
 48 51  0  0  1  0            999 V2000
   -4.8100   11.3780   34.5030 Cl  0  0  0  0  0  0
   -5.4620   11.7490   32.9340 C   0  0  0  0  0  0
   -6.8010   11.5350   32.8030 N   0  0  0  0  0  0
   -4.6870   12.1820   31.9420 C   0  0  1  0  0  0
   -5.2310   12.4510   30.7400 N   0  0  0  0  0  0
   -4.2930   12.9190   29.7590 C   0  0  2  0  0  0
   -4.1970   11.8140   28.7490 C   0  0  0  0  0  0
   -3.7610   12.2160   27.5240 N   0  0  0  0  0  0
   -3.6570   11.2790   26.4540 C   0  0  0  0  0  0
   -3.1790   12.1020   25.2780 C   0  0  0  0  0  0
   -2.4810   13.2930   25.9120 C   0  0  0  0  0  0
   -3.1980   13.5000   27.2200 C   0  0  0  0  0  0
   -4.4580   10.6690   29.0040 O   0  0  0  0  0  0
   -2.9980   13.0930   30.5550 C   0  0  0  0  0  0
   -3.2290   12.4590   31.9230 C   0  0  0  0  0  0
   -6.5480   12.2600   30.4680 C   0  0  0  0  0  0
   -7.1140   12.4610   29.4170 O   0  0  0  0  0  0
   -7.3280   11.7590   31.6470 C   0  0  3  0  0  0
   -8.6380   11.6270   31.2820 O   0  0  0  0  0  0
   -9.5340   11.5230   32.3770 C   0  0  0  0  0  0
   -9.9390   12.8310   32.9290 C   0  0  0  0  0  0
   -9.9960   13.9520   32.1430 C   0  0  0  0  0  0
  -10.3840   15.1530   32.6860 C   0  0  0  0  0  0
  -10.2750   12.8990   34.2550 C   0  0  0  0  0  0
  -10.6720   14.0950   34.7990 C   0  0  0  0  0  0
  -10.7170   15.2160   34.0170 C   0  0  0  0  0  0
  -11.1020   16.4030   34.5160 F   0  0  0  0  0  0
   -4.5079   11.1430   31.6284 H   0  0  0  0  0  0
   -4.5934   13.8469   29.2503 H   0  0  0  0  0  0
   -2.9376   10.4920   26.7244 H   0  0  0  0  0  0
   -4.6418   10.8265   26.2658 H   0  0  0  0  0  0
   -2.4919   11.5006   24.6647 H   0  0  0  0  0  0
   -4.0426   12.4072   24.6688 H   0  0  0  0  0  0
   -1.4168   13.0577   26.0609 H   0  0  0  0  0  0
   -2.5742   14.1672   25.2509 H   0  0  0  0  0  0
   -4.0046   14.2430   27.1340 H   0  0  0  0  0  0
   -2.5092   13.7981   28.0242 H   0  0  0  0  0  0
   -2.1733   12.5913   30.0276 H   0  0  0  0  0  0
   -2.7707   14.1645   30.6558 H   0  0  0  0  0  0
   -2.9748   13.1421   32.7469 H   0  0  0  0  0  0
   -2.6751   11.5164   32.0441 H   0  0  0  0  0  0
   -7.3200   11.3739   32.6774 H   0  0  0  0  0  0
  -10.4482   11.0030   32.0546 H   0  0  0  0  0  0
   -9.0563   10.9553   33.1891 H   0  0  0  0  0  0
   -9.7335   13.8909   31.0868 H   0  0  0  0  0  0
  -10.4272   16.0482   32.0657 H   0  0  0  0  0  0
  -10.2272   12.0052   34.8770 H   0  0  0  0  0  0
  -10.9506   14.1511   35.8513 H   0  0  0  0  0  0
  1  2  1  0  0  0
  2  3  2  0  0  0
  2  4  1  0  0  0
  3 18  1  0  0  0
  4  5  1  0  0  0
  4 15  1  0  0  0
  4 28  1  0  0  0
  5  6  1  0  0  0
  5 16  1  0  0  0
  6  7  1  0  0  0
  6 14  1  0  0  0
  6 29  1  0  0  0
  7  8  1  0  0  0
  7 13  2  0  0  0
  8  9  1  0  0  0
  8 12  1  0  0  0
  9 10  1  0  0  0
  9 30  1  0  0  0
  9 31  1  0  0  0
 10 11  1  0  0  0
 10 32  1  0  0  0
 10 33  1  0  0  0
 11 12  1  0  0  0
 11 34  1  0  0  0
 11 35  1  0  0  0
 12 36  1  0  0  0
 12 37  1  0  0  0
 14 15  1  0  0  0
 14 38  1  0  0  0
 14 39  1  0  0  0
 15 40  1  0  0  0
 15 41  1  0  0  0
 16 17  2  0  0  0
 16 18  1  0  0  0
 18 19  1  0  0  0
 18 42  1  0  0  0
 19 20  1  0  0  0
 20 21  1  0  0  0
 20 43  1  0  0  0
 20 44  1  0  0  0
 21 22  2  0  0  0
 21 24  1  0  0  0
 22 23  1  0  0  0
 22 45  1  0  0  0
 23 26  2  0  0  0
 23 46  1  0  0  0
 24 25  2  0  0  0
 24 47  1  0  0  0
 25 26  1  0  0  0
 25 48  1  0  0  0
 26 27  1  0  0  0
M  END
> <s_m_source_file>
../3ddu_ligand.sdf

> <i_m_source_file_index>
1

> <s_epik_input>
W2NIXTFbY0hdYyhGKVtjSF1bY0hdYzFbQ0gyXU9bQ0hdKE49QzJDbClDKD1PKU4oW0NIXTIzKVtDQEBIXShbQ0gyXVtDSDJdMylDKD1PKU40W0NIMl1bQ0gyXVtDSDJdW0NIMl00

> <s_epik_cmdline>
J2VwaWtfYXBwJywgJy1pbWFlJywgJ2xpZ2FuZF9wcm8ubWFlJywgJy1vbWFlJywgJ2xpZ2FuZF9wcmVwLm1hZScsICctbXMnLCAnMScsICctcGgnLCAnNycsICctcGh0JywgJzAuNScsICctbnQn

> <r_lp_tautomer_probability>
1

> <r_epik_Ionization_Penalty>
  0.0000

> <r_epik_Ionization_Penalty_Charging>
  0.0000

> <r_epik_Ionization_Penalty_Neutral>
  0.0000

> <r_epik_State_Penalty>
 -0.0000

> <r_epik_Charging_Adjusted_Penalty>
0

> <i_epik_Tot_Q>
0

> <i_epik_Tot_abs_Q>
0

> <s_epik_Chemistry_Notes>
This compound has an imine and may undergo hydrolysis. This compound contains an acetal/aminal-like group ( X-CH(R)-Y where X, Y are N, S, or O) that may be acid/base labile, releasing an aldehyde.

$$$$
