3dei_ligand
                    3D
 Schrodinger Suite 2020-3.
 41 43  0  0  1  0            999 V2000
  -51.4730   12.6460  -19.3440 O   0  0  0  0  0  0
  -50.3280   13.1540  -19.6610 C   0  0  0  0  0  0
  -49.2350   13.0180  -18.8390 N   0  0  0  0  0  0
  -47.9970   13.5380  -19.1210 C   0  0  0  0  0  0
  -47.0160   13.3870  -18.3430 O   0  0  0  0  0  0
  -50.1450   13.8720  -20.8510 C   0  0  0  0  0  0
  -48.8680   14.4250  -21.1760 C   0  0  0  0  0  0
  -47.7780   14.2460  -20.2810 C   0  0  0  0  0  0
  -46.5900   14.6840  -20.4330 O   0  0  0  0  0  0
  -51.2680   14.0090  -21.6710 C   0  0  0  0  0  0
  -51.1030   14.7230  -22.8340 C   0  0  0  0  0  0
  -49.8550   15.2700  -23.1840 C   0  0  0  0  0  0
  -48.7140   15.1430  -22.3820 C   0  0  0  0  0  0
  -47.5130   15.7020  -22.8000 N   0  0  0  0  0  0
  -46.4380   14.9050  -23.0100 C   0  0  0  0  0  0
  -46.3770   13.7820  -22.4970 O   0  0  0  0  0  0
  -45.1880   15.2740  -23.7960 C   0  0  1  0  0  0
  -45.4510   16.1750  -24.9040 O   0  0  0  0  0  0
  -44.6810   17.4230  -25.2420 C   0  0  0  0  0  0
  -44.7680   17.8270  -26.4210 O   0  0  0  0  0  0
  -43.8460   18.2470  -24.2690 C   0  0  0  0  0  0
  -44.1300   15.5230  -22.7350 C   0  0  0  0  0  0
  -42.7440   15.5290  -23.0350 C   0  0  0  0  0  0
  -41.7660   15.7090  -22.0300 C   0  0  0  0  0  0
  -42.1890   15.8490  -20.6990 C   0  0  0  0  0  0
  -43.5640   15.8190  -20.3880 C   0  0  0  0  0  0
  -44.5220   15.6610  -21.3900 C   0  0  0  0  0  0
  -49.3244   12.4656  -17.8920 H   0  0  0  0  0  0
  -52.2289   13.5707  -21.4014 H   0  0  0  0  0  0
  -51.9554   14.8681  -23.4977 H   0  0  0  0  0  0
  -49.7723   15.8179  -24.1227 H   0  0  0  0  0  0
  -47.4376   16.7878  -22.9592 H   0  0  0  0  0  0
  -44.7593   14.5382  -24.4923 H   0  0  0  0  0  0
  -43.8626   17.7711  -23.2774 H   0  0  0  0  0  0
  -44.2638   19.2619  -24.1957 H   0  0  0  0  0  0
  -42.8090   18.3026  -24.6317 H   0  0  0  0  0  0
  -42.4242   15.3912  -24.0679 H   0  0  0  0  0  0
  -40.7063   15.7384  -22.2834 H   0  0  0  0  0  0
  -41.4539   15.9810  -19.9051 H   0  0  0  0  0  0
  -43.8828   15.9206  -19.3506 H   0  0  0  0  0  0
  -45.5804   15.6443  -21.1298 H   0  0  0  0  0  0
  1  2  2  0  0  0
  2  3  1  0  0  0
  2  6  1  0  0  0
  3  4  1  0  0  0
  3 28  1  0  0  0
  4  5  2  0  0  0
  4  8  1  0  0  0
  6  7  2  0  0  0
  6 10  1  0  0  0
  7  8  1  0  0  0
  7 13  1  0  0  0
  8  9  2  0  0  0
 10 11  2  0  0  0
 10 29  1  0  0  0
 11 12  1  0  0  0
 11 30  1  0  0  0
 12 13  2  0  0  0
 12 31  1  0  0  0
 13 14  1  0  0  0
 14 15  1  0  0  0
 14 32  1  0  0  0
 15 16  2  0  0  0
 15 17  1  0  0  0
 17 18  1  0  0  0
 17 22  1  0  0  0
 17 33  1  0  0  0
 18 19  1  0  0  0
 19 20  2  0  0  0
 19 21  1  0  0  0
 21 34  1  0  0  0
 21 35  1  0  0  0
 21 36  1  0  0  0
 22 23  2  0  0  0
 22 27  1  0  0  0
 23 24  1  0  0  0
 23 37  1  0  0  0
 24 25  2  0  0  0
 24 38  1  0  0  0
 25 26  1  0  0  0
 25 39  1  0  0  0
 26 27  2  0  0  0
 26 40  1  0  0  0
 27 41  1  0  0  0
M  END
> <s_m_source_file>
../3dei_ligand.sdf

> <i_m_source_file_index>
1

> <s_epik_input>
Tz1DMVtOSF1DKD1PKUMoPU8pYyhjMTIpYyhbY0hdW2NIXVtjSF0yKVtOSF1DKD1PKVtDQEBIXShPQyg9TylbQ0gzXSljM1tjSF1bY0hdW2NIXVtjSF1bY0hdMw==

> <s_epik_cmdline>
J2VwaWtfYXBwJywgJy1pbWFlJywgJ2xpZ2FuZF9wcm8ubWFlJywgJy1vbWFlJywgJ2xpZ2FuZF9wcmVwLm1hZScsICctbXMnLCAnMScsICctcGgnLCAnNycsICctcGh0JywgJzAuNScsICctbnQn

> <r_epik_Ionization_Penalty>
  0.0207

> <r_epik_Ionization_Penalty_Charging>
  0.0000

> <r_epik_Ionization_Penalty_Neutral>
  0.0207

> <r_epik_State_Penalty>
  0.0166

> <r_epik_Charging_Adjusted_Penalty>
0.0165700694131414

> <i_epik_Tot_Q>
0

> <i_epik_Tot_abs_Q>
0

> <s_epik_Chemistry_Notes>
This compound has an ester and may undergo hydrolysis at high or low pH.

$$$$
