3dg8_ligand
                    3D
 Schrodinger Suite 2020-3.
 33 33  0  0  1  0            999 V2000
   26.9540    4.8220   62.1900 C   0  0  0  0  0  0
   27.3970    5.9110   62.8580 C   0  0  0  0  0  0
   28.2110    6.8610   62.3570 C   0  0  0  0  0  0
   28.6290    6.6970   61.0330 C   0  0  0  0  0  0
   28.2230    5.6040   60.2910 C   0  0  0  0  0  0
   27.3800    4.6690   60.8740 C   0  0  0  0  0  0
   26.1240    4.0090   62.8980 O   0  0  0  0  0  0
   25.4230    2.8270   62.6650 C   0  0  0  0  0  0
   28.4990    7.8820   63.2150 O   0  0  0  0  0  0
   28.9060    9.1440   62.7740 C   0  0  0  0  0  0
   28.6240    5.4280   58.9960 N   0  0  0  0  0  0
   29.5170    4.5600   58.4390 C   0  0  0  0  0  0
   29.7750    4.6620   57.1170 N   0  0  0  0  0  0
   29.2000    5.3780   56.1380 C   0  0  0  0  0  0
   28.3770    6.4150   56.3920 N   0  0  0  0  0  0
   30.0890    3.6760   59.1790 N   0  0  0  0  0  0
   29.4460    5.0520   54.9160 N   0  3  0  0  0  0
   27.0675    6.0307   63.8901 H   0  0  0  0  0  0
   29.2839    7.4412   60.5798 H   0  0  0  0  0  0
   27.0482    3.8065   60.2959 H   0  0  0  0  0  0
   24.8694    2.5441   63.5724 H   0  0  0  0  0  0
   26.1306    2.0267   62.4027 H   0  0  0  0  0  0
   24.7159    2.9774   61.8360 H   0  0  0  0  0  0
   29.0794    9.7973   63.6418 H   0  0  0  0  0  0
   28.1222    9.5803   62.1374 H   0  0  0  0  0  0
   29.8367    9.0477   62.1957 H   0  0  0  0  0  0
   28.2006    6.0567   58.1988 H   0  0  0  0  0  0
   28.1594    6.7028   57.4312 H   0  0  0  0  0  0
   27.9230    6.9734   55.5601 H   0  0  0  0  0  0
   29.8545    3.6221   60.2524 H   0  0  0  0  0  0
   30.1159    4.2077   54.6962 H   0  0  0  0  0  0
   28.9861    5.6180   54.0925 H   0  0  0  0  0  0
   30.8124    2.9743   58.7381 H   0  0  0  0  0  0
  1  2  2  0  0  0
  1  6  1  0  0  0
  1  7  1  0  0  0
  2  3  1  0  0  0
  2 18  1  0  0  0
  3  4  2  0  0  0
  3  9  1  0  0  0
  4  5  1  0  0  0
  4 19  1  0  0  0
  5  6  2  0  0  0
  5 11  1  0  0  0
  6 20  1  0  0  0
  7  8  1  0  0  0
  8 21  1  0  0  0
  8 22  1  0  0  0
  8 23  1  0  0  0
  9 10  1  0  0  0
 10 24  1  0  0  0
 10 25  1  0  0  0
 10 26  1  0  0  0
 11 12  1  0  0  0
 11 27  1  0  0  0
 12 13  2  0  0  0
 12 16  1  0  0  0
 13 14  1  0  0  0
 14 15  1  0  0  0
 14 17  2  0  0  0
 15 28  1  0  0  0
 15 29  1  0  0  0
 16 30  1  0  0  0
 16 33  1  0  0  0
 17 31  1  0  0  0
 17 32  1  0  0  0
M  CHG  1  17   1
M  END
> <s_m_source_file>
../3dg8_ligand.sdf

> <i_m_source_file_index>
1

> <s_epik_input>
W0NIM11PYzFbY0hdYyhPW0NIM10pW2NIXWMoW2NIXTEpW05IXS9DKD1OXFtIXSlbTkhdL0MoW05IMl0pPU5cW0hd

> <s_epik_cmdline>
J2VwaWtfYXBwJywgJy1pbWFlJywgJ2xpZ2FuZF9wcm8ubWFlJywgJy1vbWFlJywgJ2xpZ2FuZF9wcmVwLm1hZScsICctbXMnLCAnMScsICctcGgnLCAnNycsICctcGh0JywgJzAuNScsICctbnQn

> <r_lp_tautomer_probability>
1

> <r_epik_Ionization_Penalty>
  0.0060

> <r_epik_Ionization_Penalty_Charging>
  0.0060

> <r_epik_Ionization_Penalty_Neutral>
  0.0000

> <r_epik_State_Penalty>
 -0.0000

> <r_epik_Charging_Adjusted_Penalty>
0.00596315060208171

> <i_epik_Tot_Q>
1

> <i_epik_Tot_abs_Q>
1

> <s_epik_Chemistry_Notes>
This compound has an imine and may undergo hydrolysis.

$$$$
