3dgl_ligand
                    3D
 Schrodinger Suite 2020-3.
 43 45  0  0  1  0            999 V2000
   25.4120  -13.1530  -18.5240 P   0  0  0  0  0  0
   25.5750  -14.4010  -17.6950 O   0  0  0  0  0  0
   24.2430  -13.2210  -19.4840 O   0  5  0  0  0  0
   25.4970  -11.8660  -17.7300 O   0  5  0  0  0  0
   27.0240  -11.8110  -20.4090 P   0  0  2  0  0  0
   27.6140  -10.7100  -19.5590 O   0  5  0  0  0  0
   25.7940  -11.5470  -21.2440 O   0  0  0  0  0  0
   26.7260  -13.0800  -19.4600 O   0  0  0  0  0  0
   29.5490  -13.0230  -21.0010 P   0  0  2  0  0  0
   29.7650  -12.8990  -19.5160 O   0  0  0  0  0  0
   30.6360  -12.5860  -21.9480 O   0  5  0  0  0  0
   28.1700  -12.3040  -21.4330 O   0  0  0  0  0  0
   29.2300  -14.5740  -21.3330 O   0  0  0  0  0  0
   28.7710  -15.0140  -22.6130 C   0  0  0  0  0  0
   27.7740  -16.1490  -22.3900 C   0  0  1  0  0  0
   28.4430  -17.2420  -21.7450 O   0  0  0  0  0  0
   26.6180  -15.7580  -21.4810 C   0  0  1  0  0  0
   25.4400  -16.4270  -21.9510 O   0  0  0  0  0  0
   27.0160  -16.3330  -20.1270 C   0  0  1  0  0  0
   25.9120  -16.6930  -19.3090 O   0  0  0  0  0  0
   27.7630  -17.5830  -20.5270 C   0  0  2  0  0  0
   28.7420  -18.0370  -19.5110 N   0  0  0  0  0  0
   29.3810  -17.2910  -18.5820 C   0  0  0  0  0  0
   30.2270  -18.0520  -17.8460 N   0  0  0  0  0  0
   30.1040  -19.3170  -18.3190 C   0  0  0  0  0  0
   30.7240  -20.6220  -18.0180 C   0  0  0  0  0  0
   31.6210  -20.7120  -17.0080 N   0  0  0  0  0  0
   30.3350  -21.6960  -18.7560 N   0  0  0  0  0  0
   29.4280  -21.6160  -19.7520 C   0  0  0  0  0  0
   28.8370  -20.4480  -20.0980 N   0  0  0  0  0  0
   29.1400  -19.3000  -19.4230 C   0  0  0  0  0  0
   28.2844  -14.1772  -23.1355 H   0  0  0  0  0  0
   29.6260  -15.3696  -23.2068 H   0  0  0  0  0  0
   27.3974  -16.4687  -23.3728 H   0  0  0  0  0  0
   26.3715  -14.6861  -21.4646 H   0  0  0  0  0  0
   24.9980  -16.1476  -22.9188 H   0  0  0  0  0  0
   27.5394  -15.6154  -19.4781 H   0  0  0  0  0  0
   25.2422  -15.9143  -18.9152 H   0  0  0  0  0  0
   27.0810  -18.4333  -20.6751 H   0  0  0  0  0  0
   29.2351  -16.2197  -18.4434 H   0  0  0  0  0  0
   31.9027  -19.8126  -16.4408 H   0  0  0  0  0  0
   32.0681  -21.6845  -16.7546 H   0  0  0  0  0  0
   29.1622  -22.5222  -20.2963 H   0  0  0  0  0  0
  1  2  2  0  0  0
  1  3  1  0  0  0
  1  4  1  0  0  0
  1  8  1  0  0  0
  5  6  1  0  0  0
  5  7  2  0  0  0
  5  8  1  0  0  0
  5 12  1  0  0  0
  9 10  2  0  0  0
  9 11  1  0  0  0
  9 12  1  0  0  0
  9 13  1  0  0  0
 13 14  1  0  0  0
 14 15  1  0  0  0
 14 32  1  0  0  0
 14 33  1  0  0  0
 15 16  1  0  0  0
 15 17  1  0  0  0
 15 34  1  0  0  0
 16 21  1  0  0  0
 17 18  1  0  0  0
 17 19  1  0  0  0
 17 35  1  0  0  0
 18 36  1  0  0  0
 19 20  1  0  0  0
 19 21  1  0  0  0
 19 37  1  0  0  0
 20 38  1  0  0  0
 21 22  1  0  0  0
 21 39  1  0  0  0
 22 23  1  0  0  0
 22 31  1  0  0  0
 23 24  2  0  0  0
 23 40  1  0  0  0
 24 25  1  0  0  0
 25 26  2  0  0  0
 25 31  1  0  0  0
 26 27  1  0  0  0
 26 28  1  0  0  0
 27 41  1  0  0  0
 27 42  1  0  0  0
 28 29  2  0  0  0
 29 30  1  0  0  0
 29 43  1  0  0  0
 30 31  2  0  0  0
M  CHG  4   3  -1   4  -1   6  -1  11  -1
M  END
> <s_m_source_file>
../3dgl_ligand.sdf

> <i_m_source_file_index>
1

> <s_epik_input>
Tz1QKFtPSF0pKFtPSF0pT1tQQEBdKD1PKShbT0hdKU9bUEBdKD1PKShbT0hdKU9bQ0gyXVtDQEhdMU9bQ0BIXShbQ0BIXShbT0hdKVtDQEBIXTFbT0hdKW4oW2NIXW4yKWMoYzIzKW5bY0hdbmMzW05IMl0=

> <s_epik_cmdline>
J2VwaWtfYXBwJywgJy1pbWFlJywgJ2xpZ2FuZF9wcm8ubWFlJywgJy1vbWFlJywgJ2xpZ2FuZF9wcmVwLm1hZScsICctbXMnLCAnMScsICctcGgnLCAnNycsICctcGh0JywgJzAuNScsICctbnQn

> <r_lp_tautomer_probability>
0.999997216410988

> <r_epik_Ionization_Penalty>
  0.0818

> <r_epik_Ionization_Penalty_Charging>
  0.0813

> <r_epik_Ionization_Penalty_Neutral>
  0.0004

> <r_epik_State_Penalty>
  0.0708

> <r_epik_Charging_Adjusted_Penalty>
0.152157994418768

> <i_epik_Tot_Q>
-4

> <i_epik_Tot_abs_Q>
4

> <s_epik_Chemistry_Notes>
This compound contains an acetal/aminal-like group ( X-CH(R)-Y where X, Y are N, S, or O) that may be acid/base labile, releasing an aldehyde.

$$$$
