3dgn_ligand
                    3D
 Schrodinger Suite 2020-3.
 39 41  0  0  1  0            999 V2000
   23.2420  -11.7800  -17.0160 P   0  0  0  0  0  0
   23.0670  -12.4140  -15.6310 O   0  5  0  0  0  0
   21.9830  -11.3650  -17.7770 O   0  0  0  0  0  0
   24.4450  -10.7920  -17.1410 O   0  5  0  0  0  0
   24.9910  -13.7930  -17.3060 P   0  0  2  0  0  0
   24.5210  -14.8380  -16.2900 O   0  0  0  0  0  0
   26.1210  -12.7630  -17.0320 O   0  5  0  0  0  0
   23.7160  -13.0360  -17.8600 O   0  0  0  0  0  0
   25.2260  -14.5420  -18.7380 O   0  0  0  0  0  0
   25.8420  -14.0290  -19.9540 C   0  0  0  0  0  0
   25.5880  -15.0150  -21.1410 C   0  0  1  0  0  0
   26.7780  -15.8280  -21.3040 O   0  0  0  0  0  0
   24.4520  -16.0100  -20.8660 C   0  0  1  0  0  0
   23.9320  -16.6350  -22.0600 O   0  0  0  0  0  0
   25.1790  -17.0340  -20.0270 C   0  0  1  0  0  0
   24.4820  -18.2670  -20.0230 O   0  0  0  0  0  0
   26.5260  -17.1190  -20.7460 C   0  0  2  0  0  0
   27.6090  -17.5330  -19.8310 N   0  0  0  0  0  0
   28.1890  -16.7100  -18.9400 C   0  0  0  0  0  0
   29.1020  -17.4650  -18.2880 N   0  0  0  0  0  0
   29.1640  -18.7540  -18.7390 C   0  0  0  0  0  0
   29.9580  -19.9900  -18.4040 C   0  0  0  0  0  0
   30.9460  -20.0120  -17.4000 N   0  0  0  0  0  0
   29.6380  -21.1110  -19.1320 N   0  0  0  0  0  0
   28.6500  -21.0630  -20.0880 C   0  0  0  0  0  0
   27.9340  -19.9810  -20.4430 N   0  0  0  0  0  0
   28.1470  -18.8050  -19.7870 C   0  0  0  0  0  0
   25.4079  -13.0485  -20.1994 H   0  0  0  0  0  0
   26.9257  -13.9217  -19.7989 H   0  0  0  0  0  0
   25.3719  -14.4383  -22.0524 H   0  0  0  0  0  0
   23.5408  -15.5663  -20.4385 H   0  0  0  0  0  0
   23.3702  -16.0378  -22.7933 H   0  0  0  0  0  0
   25.2325  -16.8298  -18.9475 H   0  0  0  0  0  0
   23.4980  -18.3410  -19.5370 H   0  0  0  0  0  0
   26.5351  -17.8521  -21.5660 H   0  0  0  0  0  0
   27.9693  -15.6549  -18.7772 H   0  0  0  0  0  0
   31.1775  -19.0964  -16.8360 H   0  0  0  0  0  0
   31.4860  -20.9448  -17.1801 H   0  0  0  0  0  0
   28.4252  -21.9935  -20.6092 H   0  0  0  0  0  0
  1  2  1  0  0  0
  1  3  2  0  0  0
  1  4  1  0  0  0
  1  8  1  0  0  0
  5  6  2  0  0  0
  5  7  1  0  0  0
  5  8  1  0  0  0
  5  9  1  0  0  0
  9 10  1  0  0  0
 10 11  1  0  0  0
 10 28  1  0  0  0
 10 29  1  0  0  0
 11 12  1  0  0  0
 11 13  1  0  0  0
 11 30  1  0  0  0
 12 17  1  0  0  0
 13 14  1  0  0  0
 13 15  1  0  0  0
 13 31  1  0  0  0
 14 32  1  0  0  0
 15 16  1  0  0  0
 15 17  1  0  0  0
 15 33  1  0  0  0
 16 34  1  0  0  0
 17 18  1  0  0  0
 17 35  1  0  0  0
 18 19  1  0  0  0
 18 27  1  0  0  0
 19 20  2  0  0  0
 19 36  1  0  0  0
 20 21  1  0  0  0
 21 22  2  0  0  0
 21 27  1  0  0  0
 22 23  1  0  0  0
 22 24  1  0  0  0
 23 37  1  0  0  0
 23 38  1  0  0  0
 24 25  2  0  0  0
 25 26  1  0  0  0
 25 39  1  0  0  0
 26 27  2  0  0  0
M  CHG  3   2  -1   4  -1   7  -1
M  END
> <s_m_source_file>
../3dgn_ligand.sdf

> <i_m_source_file_index>
1

> <s_epik_input>
W09IXVAoPU8pKFtPSF0pT1tQQF0oPU8pKFtPSF0pT1tDSDJdW0NASF0xT1tDQEhdKFtDQEhdKFtPSF0pW0NAQEhdMVtPSF0pbihbY0hdbjIpYyhjMjMpbltjSF1uYzNbTkgyXQ==

> <s_epik_cmdline>
J2VwaWtfYXBwJywgJy1pbWFlJywgJ2xpZ2FuZF9wcm8ubWFlJywgJy1vbWFlJywgJ2xpZ2FuZF9wcmVwLm1hZScsICctbXMnLCAnMScsICctcGgnLCAnNycsICctcGh0JywgJzAuNScsICctbnQn

> <r_lp_tautomer_probability>
0.999997216410988

> <r_epik_Ionization_Penalty>
  0.1037

> <r_epik_Ionization_Penalty_Charging>
  0.1033

> <r_epik_Ionization_Penalty_Neutral>
  0.0004

> <r_epik_State_Penalty>
  0.0922

> <r_epik_Charging_Adjusted_Penalty>
0.19546844050481

> <i_epik_Tot_Q>
-3

> <i_epik_Tot_abs_Q>
3

> <s_epik_Chemistry_Notes>
This compound contains an acetal/aminal-like group ( X-CH(R)-Y where X, Y are N, S, or O) that may be acid/base labile, releasing an aldehyde.

$$$$
