3dgo_ligand
                    3D
 Schrodinger Suite 2020-3.
 43 45  0  0  1  0            999 V2000
  -24.5410   10.2270  -17.4600 P   0  0  0  0  0  0
  -24.2040    9.9670  -18.9220 O   0  0  0  0  0  0
  -25.8070    9.5150  -17.0000 O   0  5  0  0  0  0
  -23.3600   10.1910  -16.4730 O   0  5  0  0  0  0
  -23.9830   13.0730  -17.7870 P   0  0  2  0  0  0
  -22.6920   12.4170  -18.3050 O   0  5  0  0  0  0
  -24.0030   13.9840  -16.5660 O   0  0  0  0  0  0
  -24.9830   11.8090  -17.4580 O   0  0  0  0  0  0
  -25.5880   12.9030  -20.0670 P   0  0  2  0  0  0
  -26.8160   12.5210  -19.2410 O   0  0  0  0  0  0
  -24.7710   11.7890  -20.7670 O   0  5  0  0  0  0
  -24.6680   13.8120  -19.0690 O   0  0  0  0  0  0
  -26.0010   13.9390  -21.2410 O   0  0  0  0  0  0
  -25.4300   13.8760  -22.5460 C   0  0  0  0  0  0
  -25.1940   15.3450  -22.7780 C   0  0  1  0  0  0
  -26.4130   15.9610  -22.3530 O   0  0  0  0  0  0
  -24.1020   15.8210  -21.8430 C   0  0  1  0  0  0
  -23.3870   16.8630  -22.5000 O   0  0  0  0  0  0
  -24.8500   16.4910  -20.7480 C   0  0  1  0  0  0
  -24.0700   17.6140  -20.3730 O   0  0  0  0  0  0
  -26.0660   16.9940  -21.4950 C   0  0  2  0  0  0
  -27.1460   17.2810  -20.5920 N   0  0  0  0  0  0
  -27.7430   16.4510  -19.7290 C   0  0  0  0  0  0
  -28.7010   17.1400  -19.0200 N   0  0  0  0  0  0
  -28.7070   18.4230  -19.4270 C   0  0  0  0  0  0
  -29.4430   19.6370  -19.0930 C   0  0  0  0  0  0
  -30.4120   19.6120  -18.1420 N   0  0  0  0  0  0
  -29.1320   20.7840  -19.7490 N   0  0  0  0  0  0
  -28.1980   20.7670  -20.6910 C   0  0  0  0  0  0
  -27.4850   19.6830  -21.0640 N   0  0  0  0  0  0
  -27.6840   18.5080  -20.4580 C   0  0  0  0  0  0
  -24.5130   13.2692  -22.5161 H   0  0  0  0  0  0
  -26.1504   13.4179  -23.2397 H   0  0  0  0  0  0
  -24.9557   15.5925  -23.8230 H   0  0  0  0  0  0
  -23.3923   15.0413  -21.5295 H   0  0  0  0  0  0
  -22.7441   16.6303  -23.3617 H   0  0  0  0  0  0
  -25.0430   15.8997  -19.8407 H   0  0  0  0  0  0
  -23.1329   17.4711  -19.8150 H   0  0  0  0  0  0
  -25.9106   17.9137  -22.0782 H   0  0  0  0  0  0
  -27.5075   15.3938  -19.6064 H   0  0  0  0  0  0
  -30.6484   18.6718  -17.6223 H   0  0  0  0  0  0
  -30.9605   20.5320  -17.8914 H   0  0  0  0  0  0
  -27.9892   21.7048  -21.2058 H   0  0  0  0  0  0
  1  2  2  0  0  0
  1  3  1  0  0  0
  1  4  1  0  0  0
  1  8  1  0  0  0
  5  6  1  0  0  0
  5  7  2  0  0  0
  5  8  1  0  0  0
  5 12  1  0  0  0
  9 10  2  0  0  0
  9 11  1  0  0  0
  9 12  1  0  0  0
  9 13  1  0  0  0
 13 14  1  0  0  0
 14 15  1  0  0  0
 14 32  1  0  0  0
 14 33  1  0  0  0
 15 16  1  0  0  0
 15 17  1  0  0  0
 15 34  1  0  0  0
 16 21  1  0  0  0
 17 18  1  0  0  0
 17 19  1  0  0  0
 17 35  1  0  0  0
 18 36  1  0  0  0
 19 20  1  0  0  0
 19 21  1  0  0  0
 19 37  1  0  0  0
 20 38  1  0  0  0
 21 22  1  0  0  0
 21 39  1  0  0  0
 22 23  1  0  0  0
 22 31  1  0  0  0
 23 24  2  0  0  0
 23 40  1  0  0  0
 24 25  1  0  0  0
 25 26  2  0  0  0
 25 31  1  0  0  0
 26 27  1  0  0  0
 26 28  1  0  0  0
 27 41  1  0  0  0
 27 42  1  0  0  0
 28 29  2  0  0  0
 29 30  1  0  0  0
 29 43  1  0  0  0
 30 31  2  0  0  0
M  CHG  4   3  -1   4  -1   6  -1  11  -1
M  END
> <s_m_source_file>
../3dgo_ligand.sdf

> <i_m_source_file_index>
1

> <s_epik_input>
Tz1QKFtPSF0pKFtPSF0pT1tQQEBdKD1PKShbT0hdKU9bUEBdKD1PKShbT0hdKU9bQ0gyXVtDQEhdMU9bQ0BIXShbQ0BIXShbT0hdKVtDQEBIXTFbT0hdKW4oW2NIXW4yKWMoYzIzKW5bY0hdbmMzW05IMl0=

> <s_epik_cmdline>
J2VwaWtfYXBwJywgJy1pbWFlJywgJ2xpZ2FuZF9wcm8ubWFlJywgJy1vbWFlJywgJ2xpZ2FuZF9wcmVwLm1hZScsICctbXMnLCAnMScsICctcGgnLCAnNycsICctcGh0JywgJzAuNScsICctbnQn

> <r_lp_tautomer_probability>
0.999997216410988

> <r_epik_Ionization_Penalty>
  0.0818

> <r_epik_Ionization_Penalty_Charging>
  0.0813

> <r_epik_Ionization_Penalty_Neutral>
  0.0004

> <r_epik_State_Penalty>
  0.0708

> <r_epik_Charging_Adjusted_Penalty>
0.152157994418768

> <i_epik_Tot_Q>
-4

> <i_epik_Tot_abs_Q>
4

> <s_epik_Chemistry_Notes>
This compound contains an acetal/aminal-like group ( X-CH(R)-Y where X, Y are N, S, or O) that may be acid/base labile, releasing an aldehyde.

$$$$
