3diw_ligand
                    3D
 Schrodinger Suite 2020-3.
152154  0  0  1  0            999 V2000
    3.0740   16.2780   12.9080 N   0  3  0  0  0  0
    3.6440   15.9860   14.2530 C   0  0  2  0  0  0
    3.7180   14.4810   14.5150 C   0  0  0  0  0  0
    4.7490   13.9760   14.9600 O   0  0  0  0  0  0
    2.7970   16.6630   15.3380 C   0  0  0  0  0  0
    3.1520   16.2760   16.7740 C   0  0  0  0  0  0
    4.5330   16.7450   17.2050 C   0  0  0  0  0  0
    5.5510   16.3110   16.6620 O   0  0  0  0  0  0
    4.5710   17.6360   18.1890 N   0  0  0  0  0  0
    2.6280   13.7690   14.2350 N   0  0  0  0  0  0
    2.5850   12.3260   14.4600 C   0  0  2  0  0  0
    3.3540   11.5810   13.3700 C   0  0  0  0  0  0
    3.0210   11.6660   12.1850 O   0  0  0  0  0  0
    1.1300   11.8400   14.5130 C   0  0  0  0  0  0
    0.8780   10.4170   15.0250 C   0  0  0  0  0  0
    1.4510   10.2610   16.4270 C   0  0  0  0  0  0
   -0.6210   10.1320   15.0290 C   0  0  0  0  0  0
    4.3830   10.8510   13.7880 N   0  0  0  0  0  0
    5.2340   10.0950   12.8790 C   0  0  2  0  0  0
    4.6340    8.7790   12.3770 C   0  0  0  0  0  0
    3.7070    8.2250   12.9710 O   0  0  0  0  0  0
    6.5790    9.8230   13.5510 C   0  0  0  0  0  0
    5.1850    8.2940   11.2670 N   0  0  0  0  0  0
    4.7570    7.0440   10.6510 C   0  0  2  0  0  0
    5.2760    5.9310   11.5570 C   0  0  0  0  0  0
    6.4750    5.8830   11.8520 O   0  0  0  0  0  0
    5.3970    6.9020    9.2610 C   0  0  0  0  0  0
    4.6420    6.0320    8.2960 C   0  0  0  0  0  0
    3.6220    6.4140    7.4770 C   0  0  0  0  0  0
    4.8510    4.6360    8.0500 C   0  0  0  0  0  0
    3.1820    5.3460    6.7320 N   0  0  0  0  0  0
    3.9180    4.2410    7.0650 C   0  0  0  0  0  0
    5.7340    3.6790    8.5670 C   0  0  0  0  0  0
    3.8420    2.9280    6.5830 C   0  0  0  0  0  0
    5.6570    2.3680    8.0850 C   0  0  0  0  0  0
    4.7160    2.0100    7.1030 C   0  0  0  0  0  0
    4.3860    5.0590   12.0190 N   0  0  0  0  0  0
    4.8040    3.9420   12.8700 C   0  0  2  0  0  0
    3.8940    2.7440   12.6510 C   0  0  0  0  0  0
    2.7940    2.8890   12.1090 O   0  0  0  0  0  0
    4.8030    4.3290   14.3610 C   0  0  0  0  0  0
    3.4280    4.5690   14.9420 C   0  0  0  0  0  0
    2.8640    5.8420   14.9350 C   0  0  0  0  0  0
    2.7120    3.5230   15.5250 C   0  0  0  0  0  0
    1.6020    6.0750   15.5070 C   0  0  0  0  0  0
    1.4480    3.7400   16.0990 C   0  0  0  0  0  0
    0.8950    5.0160   16.0910 C   0  0  0  0  0  0
    4.3470    1.5640   13.0750 N   0  0  0  0  0  0
    3.5510    0.3610   12.8960 C   0  0  2  0  0  0
    3.1420   -0.3190   14.1990 C   0  0  0  0  0  0
    3.7150   -0.0670   15.2600 O   0  0  0  0  0  0
    4.2850   -0.6320   11.9780 C   0  0  0  0  0  0
    5.5820   -1.1560   12.5780 C   0  0  0  0  0  0
    6.0200   -0.6460   13.6330 O   0  0  0  0  0  0
    6.1690   -2.0850   11.9800 O   0  0  0  0  0  0
    2.1360   -1.1810   14.0950 N   0  0  0  0  0  0
    1.6000   -1.9140   15.2350 C   0  0  2  0  0  0
    1.4120   -3.3820   14.8560 C   0  0  0  0  0  0
    1.0380   -3.6930   13.7190 O   0  0  0  0  0  0
    0.2380   -1.3090   15.6830 C   0  0  2  0  0  0
   -0.6630   -1.2780   14.5730 O   0  0  0  0  0  0
    0.4210    0.1160   16.1750 C   0  0  0  0  0  0
    1.6680   -4.2770   15.8100 N   0  0  0  0  0  0
    1.5530   -5.7140   15.5760 C   0  0  2  0  0  0
    0.1350   -6.2400   15.7920 C   0  0  0  0  0  0
   -0.5490   -5.8460   16.7380 O   0  0  0  0  0  0
    2.5270   -6.4790   16.4790 C   0  0  0  0  0  0
    3.9400   -5.9220   16.4190 C   0  0  0  0  0  0
    4.4180   -5.6140   15.3050 O   0  0  0  0  0  0
    4.5780   -5.8010   17.4900 O   0  0  0  0  0  0
   -0.2920   -7.1370   14.9060 N   0  0  0  0  0  0
   -1.6310   -7.7230   14.9510 C   0  0  2  0  0  0
   -1.5750   -9.2450   14.8700 C   0  0  0  0  0  0
   -2.5650   -9.8940   15.2670 O   0  0  0  0  0  0
   -2.4800   -7.1830   13.7950 C   0  0  0  0  0  0
   -3.1980   -5.8330   13.9320 C   0  0  0  0  0  0
   -2.2520   -4.7550   14.4250 C   0  0  0  0  0  0
   -3.7760   -5.4510   12.5810 C   0  0  0  0  0  0
   -0.5510   -9.7690   14.3840 O   0  0  0  0  0  0
    3.6867   15.7893   12.1362 H   0  0  0  0  0  0
    3.0704   17.3650   12.7394 H   0  0  0  0  0  0
    2.0441   15.8953   12.8553 H   0  0  0  0  0  0
    4.6656   16.3937   14.2515 H   0  0  0  0  0  0
    2.9161   17.7543   15.2684 H   0  0  0  0  0  0
    1.7386   16.3998   15.1944 H   0  0  0  0  0  0
    2.4221   16.7226   17.4652 H   0  0  0  0  0  0
    3.1299   15.1808   16.8748 H   0  0  0  0  0  0
    3.6353   17.9942   18.6430 H   0  0  0  0  0  0
    5.5382   18.0158   18.5500 H   0  0  0  0  0  0
    1.7486   14.2884   13.8266 H   0  0  0  0  0  0
    3.0789   12.1632   15.4293 H   0  0  0  0  0  0
    0.5484   12.4957   15.1777 H   0  0  0  0  0  0
    0.6975   11.8663   13.5019 H   0  0  0  0  0  0
    1.3758    9.6917   14.3647 H   0  0  0  0  0  0
    2.5309   10.4695   16.4070 H   0  0  0  0  0  0
    1.2826    9.2328   16.7796 H   0  0  0  0  0  0
    0.9535   10.9680   17.1072 H   0  0  0  0  0  0
   -1.0191   10.2488   14.0103 H   0  0  0  0  0  0
   -1.1267   10.8385   15.7036 H   0  0  0  0  0  0
   -0.7977    9.1032   15.3760 H   0  0  0  0  0  0
    4.5806   10.8324   14.8699 H   0  0  0  0  0  0
    5.3193   10.7647   12.0105 H   0  0  0  0  0  0
    7.0074   10.7702   13.9105 H   0  0  0  0  0  0
    7.2651    9.3624   12.8250 H   0  0  0  0  0  0
    6.4327    9.1406   14.4013 H   0  0  0  0  0  0
    5.9974    8.8808   10.8134 H   0  0  0  0  0  0
    3.6608    7.0475   10.5598 H   0  0  0  0  0  0
    5.4782    7.8936    8.7917 H   0  0  0  0  0  0
    6.3997    6.4611    9.3623 H   0  0  0  0  0  0
    3.2133    7.4229    7.4207 H   0  0  0  0  0  0
    6.4653    3.9501    9.3285 H   0  0  0  0  0  0
    3.1141    2.6469    5.8220 H   0  0  0  0  0  0
    6.3372    1.6118    8.4768 H   0  0  0  0  0  0
    4.6813    0.9800    6.7480 H   0  0  0  0  0  0
    3.3252    5.1829   11.7558 H   0  0  0  0  0  0
    5.8283    3.7062   12.5455 H   0  0  0  0  0  0
    5.2640    3.5221   14.9495 H   0  0  0  0  0  0
    5.3766    5.2574   14.4993 H   0  0  0  0  0  0
    3.4089    6.6690   14.4796 H   0  0  0  0  0  0
    3.1403    2.5207   15.5353 H   0  0  0  0  0  0
    1.1741    7.0774   15.4964 H   0  0  0  0  0  0
    0.9025    2.9107   16.5492 H   0  0  0  0  0  0
   -0.0840    5.1913   16.5371 H   0  0  0  0  0  0
    5.3309    1.5049   13.5633 H   0  0  0  0  0  0
    2.6308    0.7468   12.4330 H   0  0  0  0  0  0
    3.6359   -1.4981   11.7813 H   0  0  0  0  0  0
    4.5343   -0.1373   11.0277 H   0  0  0  0  0  0
    7.1090   -2.4907   12.3823 H   0  0  0  0  0  0
    1.7060   -1.3304   13.0936 H   0  0  0  0  0  0
    2.3533   -1.8174   16.0307 H   0  0  0  0  0  0
   -0.2316   -1.9296   16.4604 H   0  0  0  0  0  0
   -0.9365   -2.2120   14.0604 H   0  0  0  0  0  0
    1.1115    0.1224   17.0313 H   0  0  0  0  0  0
   -0.5520    0.5245   16.4855 H   0  0  0  0  0  0
    0.8361    0.7332   15.3646 H   0  0  0  0  0  0
    1.9742   -3.9035   16.7983 H   0  0  0  0  0  0
    1.8115   -5.8287   14.5130 H   0  0  0  0  0  0
    2.1842   -6.4184   17.5225 H   0  0  0  0  0  0
    2.5660   -7.5330   16.1665 H   0  0  0  0  0  0
    5.6026   -5.4008   17.4777 H   0  0  0  0  0  0
    0.4121   -7.4342   14.1149 H   0  0  0  0  0  0
   -2.0456   -7.4223   15.9245 H   0  0  0  0  0  0
   -1.8480   -7.0574   12.9035 H   0  0  0  0  0  0
   -3.2906   -7.8926   13.5728 H   0  0  0  0  0  0
   -4.0068   -5.9149   14.6730 H   0  0  0  0  0  0
   -1.8422   -5.0462   15.4034 H   0  0  0  0  0  0
   -2.7981   -3.8053   14.5242 H   0  0  0  0  0  0
   -1.4296   -4.6316   13.7050 H   0  0  0  0  0  0
   -4.4591   -6.2419   12.2376 H   0  0  0  0  0  0
   -2.9596   -5.3304   11.8538 H   0  0  0  0  0  0
   -4.3281   -4.5040   12.6729 H   0  0  0  0  0  0
   -0.4758  -10.8639   14.3098 H   0  0  0  0  0  0
  1  2  1  0  0  0
  1 80  1  0  0  0
  1 81  1  0  0  0
  1 82  1  0  0  0
  2  3  1  0  0  0
  2  5  1  0  0  0
  2 83  1  0  0  0
  3  4  2  0  0  0
  3 10  1  0  0  0
  5  6  1  0  0  0
  5 84  1  0  0  0
  5 85  1  0  0  0
  6  7  1  0  0  0
  6 86  1  0  0  0
  6 87  1  0  0  0
  7  8  2  0  0  0
  7  9  1  0  0  0
  9 88  1  0  0  0
  9 89  1  0  0  0
 10 11  1  0  0  0
 10 90  1  0  0  0
 11 12  1  0  0  0
 11 14  1  0  0  0
 11 91  1  0  0  0
 12 13  2  0  0  0
 12 18  1  0  0  0
 14 15  1  0  0  0
 14 92  1  0  0  0
 14 93  1  0  0  0
 15 16  1  0  0  0
 15 17  1  0  0  0
 15 94  1  0  0  0
 16 95  1  0  0  0
 16 96  1  0  0  0
 16 97  1  0  0  0
 17 98  1  0  0  0
 17 99  1  0  0  0
 17100  1  0  0  0
 18 19  1  0  0  0
 18101  1  0  0  0
 19 20  1  0  0  0
 19 22  1  0  0  0
 19102  1  0  0  0
 20 21  2  0  0  0
 20 23  1  0  0  0
 22103  1  0  0  0
 22104  1  0  0  0
 22105  1  0  0  0
 23 24  1  0  0  0
 23106  1  0  0  0
 24 25  1  0  0  0
 24 27  1  0  0  0
 24107  1  0  0  0
 25 26  2  0  0  0
 25 37  1  0  0  0
 27 28  1  0  0  0
 27108  1  0  0  0
 27109  1  0  0  0
 28 29  2  0  0  0
 28 30  1  0  0  0
 29 31  1  0  0  0
 29110  1  0  0  0
 30 32  2  0  0  0
 30 33  1  0  0  0
 31 32  1  0  0  0
 32 34  1  0  0  0
 33 35  2  0  0  0
 33111  1  0  0  0
 34 36  2  0  0  0
 34112  1  0  0  0
 35 36  1  0  0  0
 35113  1  0  0  0
 36114  1  0  0  0
 37 38  1  0  0  0
 37115  1  0  0  0
 38 39  1  0  0  0
 38 41  1  0  0  0
 38116  1  0  0  0
 39 40  2  0  0  0
 39 48  1  0  0  0
 41 42  1  0  0  0
 41117  1  0  0  0
 41118  1  0  0  0
 42 43  2  0  0  0
 42 44  1  0  0  0
 43 45  1  0  0  0
 43119  1  0  0  0
 44 46  2  0  0  0
 44120  1  0  0  0
 45 47  2  0  0  0
 45121  1  0  0  0
 46 47  1  0  0  0
 46122  1  0  0  0
 47123  1  0  0  0
 48 49  1  0  0  0
 48124  1  0  0  0
 49 50  1  0  0  0
 49 52  1  0  0  0
 49125  1  0  0  0
 50 51  2  0  0  0
 50 56  1  0  0  0
 52 53  1  0  0  0
 52126  1  0  0  0
 52127  1  0  0  0
 53 54  2  0  0  0
 53 55  1  0  0  0
 55128  1  0  0  0
 56 57  1  0  0  0
 56129  1  0  0  0
 57 58  1  0  0  0
 57 60  1  0  0  0
 57130  1  0  0  0
 58 59  2  0  0  0
 58 63  1  0  0  0
 60 61  1  0  0  0
 60 62  1  0  0  0
 60131  1  0  0  0
 61132  1  0  0  0
 62133  1  0  0  0
 62134  1  0  0  0
 62135  1  0  0  0
 63 64  1  0  0  0
 63136  1  0  0  0
 64 65  1  0  0  0
 64 67  1  0  0  0
 64137  1  0  0  0
 65 66  2  0  0  0
 65 71  1  0  0  0
 67 68  1  0  0  0
 67138  1  0  0  0
 67139  1  0  0  0
 68 69  2  0  0  0
 68 70  1  0  0  0
 70140  1  0  0  0
 71 72  1  0  0  0
 71141  1  0  0  0
 72 73  1  0  0  0
 72 75  1  0  0  0
 72142  1  0  0  0
 73 74  2  0  0  0
 73 79  1  0  0  0
 75 76  1  0  0  0
 75143  1  0  0  0
 75144  1  0  0  0
 76 77  1  0  0  0
 76 78  1  0  0  0
 76145  1  0  0  0
 77146  1  0  0  0
 77147  1  0  0  0
 77148  1  0  0  0
 78149  1  0  0  0
 78150  1  0  0  0
 78151  1  0  0  0
 79152  1  0  0  0
M  CHG  1   1   1
M  END
> <s_m_source_file>
../3diw_ligand.sdf

> <i_m_source_file_index>
1

> <s_epik_input>
Tz1DKFtOSDJdKVtDSDJdW0NIMl1bQ0BIXShbTkgzK10pQyg9TylbTkhdW0NAQEhdKFtDSDJdW0NIXShbQ0gzXSlbQ0gzXSlDKD1PKVtOSF1bQ0BASF0oW0NIM10pQyg9TylbTkhdW0NAQEhdKFtDSDJdYzFbY0hdW25IXWMoYzEyKVtjSF1bY0hdW2NIXVtjSF0yKUMoPU8pW05IXVtDQEBIXShbQ0gyXWMzW2NIXVtjSF1bY0hdW2NIXVtjSF0zKUMoPU8pW05IXVtDQEBIXShbQ0gyXUMoPU8pW09IXSlDKD1PKVtOSF1bQ0BASF0oW0NASF0oW09IXSlbQ0gzXSlDKD1PKVtOSF1bQ0BASF0oW0NIMl1DKD1PKVtPSF0pQyg9TylbTkhdW0NASF0oQyg9TylbT0hdKVtDSDJdW0NIXShbQ0gzXSlbQ0gzXQ==

> <s_epik_cmdline>
J2VwaWtfYXBwJywgJy1pbWFlJywgJ2xpZ2FuZF9wcm8ubWFlJywgJy1vbWFlJywgJ2xpZ2FuZF9wcmVwLm1hZScsICctbXMnLCAnMScsICctcGgnLCAnNycsICctcGh0JywgJzAuNScsICctbnQn

> <s_epik_pKa_notes>
Molecule size exceeds maximum supported for generating protonation states

$$$$
