3djf_ligand
                    3D
 Schrodinger Suite 2020-3.
 27 29  0  0  1  0            999 V2000
  -19.1310   -2.7640   24.5600 N   0  0  0  0  0  0
  -19.4950   -2.6900   25.8370 C   0  0  0  0  0  0
  -18.6820   -3.1690   26.7920 N   0  0  0  0  0  0
  -19.0240   -3.1080   28.0880 C   0  0  0  0  0  0
  -18.3870   -3.5160   29.2510 C   0  0  0  0  0  0
  -17.0200   -4.1970   29.3430 C   0  0  0  0  0  0
  -15.9480   -3.1500   29.6520 C   0  0  0  0  0  0
  -14.6340   -3.5370   29.8720 C   0  0  0  0  0  0
  -13.6950   -2.5540   30.1490 C   0  0  0  0  0  0
  -14.0990   -1.2240   30.1970 C   0  0  0  0  0  0
  -15.3610   -0.8910   29.9830 N   0  0  0  0  0  0
  -16.2810   -1.8020   29.7160 C   0  0  0  0  0  0
  -19.1850   -3.2080   30.2720 C   0  0  0  0  0  0
  -20.2930   -2.6250   29.8100 N   0  0  0  0  0  0
  -20.2280   -2.5480   28.4830 C   0  0  0  0  0  0
  -21.0950   -2.0430   27.5240 C   0  0  0  0  0  0
  -22.1690   -1.5420   27.8530 O   0  0  0  0  0  0
  -20.7260   -2.1140   26.1780 N   0  0  0  0  0  0
  -18.1653   -3.2155   24.2886 H   0  0  0  0  0  0
  -17.0387   -4.9500   30.1446 H   0  0  0  0  0  0
  -16.7890   -4.6865   28.3854 H   0  0  0  0  0  0
  -14.3465   -4.5875   29.8283 H   0  0  0  0  0  0
  -12.6532   -2.8208   30.3269 H   0  0  0  0  0  0
  -13.3665   -0.4465   30.4137 H   0  0  0  0  0  0
  -17.3120   -1.4927   29.5442 H   0  0  0  0  0  0
  -18.9669   -3.4021   31.3222 H   0  0  0  0  0  0
  -19.7956   -2.3737   23.7752 H   0  0  0  0  0  0
  1  2  1  0  0  0
  1 19  1  0  0  0
  1 27  1  0  0  0
  2  3  2  0  0  0
  2 18  1  0  0  0
  3  4  1  0  0  0
  4  5  2  0  0  0
  4 15  1  0  0  0
  5  6  1  0  0  0
  5 13  1  0  0  0
  6  7  1  0  0  0
  6 20  1  0  0  0
  6 21  1  0  0  0
  7  8  2  0  0  0
  7 12  1  0  0  0
  8  9  1  0  0  0
  8 22  1  0  0  0
  9 10  2  0  0  0
  9 23  1  0  0  0
 10 11  1  0  0  0
 10 24  1  0  0  0
 11 12  2  0  0  0
 12 25  1  0  0  0
 13 14  1  0  0  0
 13 26  1  0  0  0
 14 15  2  0  0  0
 15 16  1  0  0  0
 16 17  2  0  0  0
 16 18  1  0  0  0
M  END
> <s_m_source_file>
../3djf_ligand.sdf

> <i_m_source_file_index>
1

> <s_epik_input>
W0hdL049YygvW25IXTEpW25IXWMoPU8pYyhjMT0yKT1OW0NIMl1DMltDSDJdYzNbY0hdW2NIXVtjSF1uW2NIXTM=

> <s_epik_cmdline>
J2VwaWtfYXBwJywgJy1pbWFlJywgJ2xpZ2FuZF9wcm8ubWFlJywgJy1vbWFlJywgJ2xpZ2FuZF9wcmVwLm1hZScsICctbXMnLCAnMScsICctcGgnLCAnNycsICctcGh0JywgJzAuNScsICctbnQn

> <r_lp_tautomer_probability>
1

> <r_epik_Ionization_Penalty>
  0.0067

> <r_epik_Ionization_Penalty_Charging>
  0.0009

> <r_epik_Ionization_Penalty_Neutral>
  0.0058

> <r_epik_State_Penalty>
 -0.0000

> <r_epik_Charging_Adjusted_Penalty>
0.000892231837487165

> <i_epik_Tot_Q>
0

> <i_epik_Tot_abs_Q>
0

> <s_epik_Chemistry_Notes>
This compound has an imine and may undergo hydrolysis.

$$$$
