3djo_ligand
                    3D
 Schrodinger Suite 2020-3.
 32 33  0  0  1  0            999 V2000
   29.5560   42.9480    8.5150 O   0  0  0  0  0  0
   29.9580   44.1320    7.8140 C   0  0  0  0  0  0
   29.7720   43.9900    6.2870 C   0  0  1  0  0  0
   30.8190   43.1020    5.7800 O   0  0  0  0  0  0
   30.2830   42.3440    4.6760 C   0  0  1  0  0  0
   30.2060   40.9060    5.0540 N   0  0  0  0  0  0
   30.2830   40.4680    6.4010 C   0  0  0  0  0  0
   30.1960   39.1110    6.7030 C   0  0  0  0  0  0
   30.0460   38.1860    5.6650 C   0  0  0  0  0  0
   29.9740   36.9820    5.8920 O   0  0  0  0  0  0
   29.9590   38.6210    4.3440 N   0  0  0  0  0  0
   30.0550   39.9750    4.0280 C   0  0  0  0  0  0
   29.9900   40.3510    2.8550 O   0  0  0  0  0  0
   28.8880   42.8990    4.4080 C   0  0  2  0  0  0
   29.0380   44.0040    3.5050 O   0  0  0  0  0  0
   27.8270   44.3730    2.5090 P   0  0  0  0  0  0
   26.5810   44.6030    3.2610 O   0  0  0  0  0  0
   28.3320   45.6690    1.6570 O   0  5  0  0  0  0
   27.7220   43.1760    1.4520 O   0  5  0  0  0  0
   28.4680   43.3410    5.8050 C   0  0  2  0  0  0
   27.4020   44.2980    5.7440 O   0  0  0  0  0  0
   29.6330   42.9051    9.6115 H   0  0  0  0  0  0
   29.3526   44.9842    8.1565 H   0  0  0  0  0  0
   31.0208   44.3334    8.0138 H   0  0  0  0  0  0
   29.8242   45.0152    5.8916 H   0  0  0  0  0  0
   30.9524   42.4334    3.8077 H   0  0  0  0  0  0
   30.4107   41.1957    7.2024 H   0  0  0  0  0  0
   30.2444   38.7734    7.7383 H   0  0  0  0  0  0
   29.8125   37.8920    3.5334 H   0  0  0  0  0  0
   28.1524   42.2504    3.9098 H   0  0  0  0  0  0
   28.0308   42.5675    6.4535 H   0  0  0  0  0  0
   26.9846   44.7162    6.6718 H   0  0  0  0  0  0
  1  2  1  0  0  0
  1 22  1  0  0  0
  2  3  1  0  0  0
  2 23  1  0  0  0
  2 24  1  0  0  0
  3  4  1  0  0  0
  3 20  1  0  0  0
  3 25  1  0  0  0
  4  5  1  0  0  0
  5  6  1  0  0  0
  5 14  1  0  0  0
  5 26  1  0  0  0
  6  7  1  0  0  0
  6 12  1  0  0  0
  7  8  2  0  0  0
  7 27  1  0  0  0
  8  9  1  0  0  0
  8 28  1  0  0  0
  9 10  2  0  0  0
  9 11  1  0  0  0
 11 12  1  0  0  0
 11 29  1  0  0  0
 12 13  2  0  0  0
 14 15  1  0  0  0
 14 20  1  0  0  0
 14 30  1  0  0  0
 15 16  1  0  0  0
 16 17  2  0  0  0
 16 18  1  0  0  0
 16 19  1  0  0  0
 20 21  1  0  0  0
 20 31  1  0  0  0
 21 32  1  0  0  0
M  CHG  2  18  -1  19  -1
M  END
> <s_m_source_file>
../3djo_ligand.sdf

> <i_m_source_file_index>
1

> <s_epik_input>
W09IXVtDSDJdW0NASF0xT1tDQEhdKFtDQEBIXShbQ0BASF0xW09IXSlPUCg9TykoW09IXSlbT0hdKW4yW2NIXVtjSF1jKD1PKVtuSF1jMj1P

> <s_epik_cmdline>
J2VwaWtfYXBwJywgJy1pbWFlJywgJ2xpZ2FuZF9wcm8ubWFlJywgJy1vbWFlJywgJ2xpZ2FuZF9wcmVwLm1hZScsICctbXMnLCAnMScsICctcGgnLCAnNycsICctcGh0JywgJzAuNScsICctbnQn

> <r_lp_tautomer_probability>
0.999537046341301

> <r_epik_Ionization_Penalty>
  0.0844

> <r_epik_Ionization_Penalty_Charging>
  0.0844

> <r_epik_Ionization_Penalty_Neutral>
  0.0000

> <r_epik_State_Penalty>
  0.0726

> <r_epik_Charging_Adjusted_Penalty>
0.156974390749676

> <i_epik_Tot_Q>
-2

> <i_epik_Tot_abs_Q>
2

> <s_epik_Chemistry_Notes>
This compound contains an acetal/aminal-like group ( X-CH(R)-Y where X, Y are N, S, or O) that may be acid/base labile, releasing an aldehyde.

$$$$
