3djp_ligand
                    3D
 Schrodinger Suite 2020-3.
 32 33  0  0  1  0            999 V2000
   29.8500   39.5820    6.6920 N   0  0  0  0  0  0
   29.5960   38.5630    5.7440 C   0  0  0  0  0  0
   29.4950   37.3800    6.1200 O   0  0  0  0  0  0
   29.4910   38.8800    4.4460 N   0  0  0  0  0  0
   29.6270   40.1420    4.0100 C   0  0  0  0  0  0
   29.5410   40.3830    2.7830 O   0  0  0  0  0  0
   29.8570   41.1750    4.9190 C   0  0  0  0  0  0
   29.9470   40.8560    6.2740 C   0  0  0  0  0  0
   30.7980   42.6090    9.0280 O   0  0  0  0  0  0
   30.6840   41.9340   10.2880 C   0  0  0  0  0  0
   30.2010   40.4960   10.1070 C   0  0  1  0  0  0
   29.4660   40.4010    8.8850 O   0  0  0  0  0  0
   31.3140   39.4540   10.0530 C   0  0  1  0  0  0
   31.1090   38.4530   11.0250 O   0  0  0  0  0  0
   31.1200   38.6360    8.7970 C   0  0  2  0  0  0
   32.3370   38.5620    8.0840 O   0  0  0  0  0  0
   29.8890   39.2580    8.1270 C   0  0  2  0  0  0
   32.2810   39.8300   12.9660 O   0  5  0  0  0  0
   32.2010   38.2390   12.1790 P   0  0  0  0  0  0
   33.6240   37.8620   11.5530 O   0  0  0  0  0  0
   31.7100   36.9470   13.2920 O   0  5  0  0  0  0
   29.2876   38.0949    3.7028 H   0  0  0  0  0  0
   29.9637   42.2051    4.5791 H   0  0  0  0  0  0
   30.0981   41.6510    7.0042 H   0  0  0  0  0  0
   31.1355   43.6554    8.9932 H   0  0  0  0  0  0
   31.6662   41.9131   10.7829 H   0  0  0  0  0  0
   29.9634   42.4670   10.9257 H   0  0  0  0  0  0
   29.5364   40.2637   10.9522 H   0  0  0  0  0  0
   32.2835   39.9522   10.2005 H   0  0  0  0  0  0
   30.9769   37.5500    8.8980 H   0  0  0  0  0  0
   33.2252   38.1174    8.5567 H   0  0  0  0  0  0
   29.1486   38.4445    8.1337 H   0  0  0  0  0  0
  1  2  1  0  0  0
  1  8  1  0  0  0
  1 17  1  0  0  0
  2  3  2  0  0  0
  2  4  1  0  0  0
  4  5  1  0  0  0
  4 22  1  0  0  0
  5  6  2  0  0  0
  5  7  1  0  0  0
  7  8  2  0  0  0
  7 23  1  0  0  0
  8 24  1  0  0  0
  9 10  1  0  0  0
  9 25  1  0  0  0
 10 11  1  0  0  0
 10 26  1  0  0  0
 10 27  1  0  0  0
 11 12  1  0  0  0
 11 13  1  0  0  0
 11 28  1  0  0  0
 12 17  1  0  0  0
 13 14  1  0  0  0
 13 15  1  0  0  0
 13 29  1  0  0  0
 14 19  1  0  0  0
 15 16  1  0  0  0
 15 17  1  0  0  0
 15 30  1  0  0  0
 16 31  1  0  0  0
 17 32  1  0  0  0
 18 19  1  0  0  0
 19 20  2  0  0  0
 19 21  1  0  0  0
M  CHG  2  18  -1  21  -1
M  END
> <s_m_source_file>
../3djp_ligand.sdf

> <i_m_source_file_index>
1

> <s_epik_input>
W2NIXTFbY0hdYyg9TylbbkhdYyg9TyluMVtDQEhdKE9bQ0BASF0yW0NIMl1bT0hdKVtDQEBIXShbT0hdKVtDQEBIXTJPUCg9TykoW09IXSlbT0hd

> <s_epik_cmdline>
J2VwaWtfYXBwJywgJy1pbWFlJywgJ2xpZ2FuZF9wcm8ubWFlJywgJy1vbWFlJywgJ2xpZ2FuZF9wcmVwLm1hZScsICctbXMnLCAnMScsICctcGgnLCAnNycsICctcGh0JywgJzAuNScsICctbnQn

> <r_lp_tautomer_probability>
0.999537046341301

> <r_epik_Ionization_Penalty>
  0.0878

> <r_epik_Ionization_Penalty_Charging>
  0.0878

> <r_epik_Ionization_Penalty_Neutral>
  0.0000

> <r_epik_State_Penalty>
  0.0744

> <r_epik_Charging_Adjusted_Penalty>
0.162184601682533

> <i_epik_Tot_Q>
-2

> <i_epik_Tot_abs_Q>
2

> <s_epik_Chemistry_Notes>
This compound contains an acetal/aminal-like group ( X-CH(R)-Y where X, Y are N, S, or O) that may be acid/base labile, releasing an aldehyde.

$$$$
