3djq_ligand
                    3D
 Schrodinger Suite 2020-3.
 36 37  0  0  1  0            999 V2000
   29.7440   39.5150    6.6750 N   0  0  0  0  0  0
   29.5600   38.5460    5.7010 C   0  0  0  0  0  0
   29.4210   38.9070    4.3720 N   0  0  0  0  0  0
   29.4610   40.2310    3.9890 C   0  0  0  0  0  0
   29.6350   41.2120    4.9650 C   0  0  0  0  0  0
   29.7110   40.8400    6.3090 C   0  0  0  0  0  0
   29.5330   37.3600    6.0100 O   0  0  0  0  0  0
   29.3350   40.5240    2.7970 O   0  0  0  0  0  0
   29.8760   39.1140    8.1010 C   0  0  1  0  0  0
   31.3200   38.8960    8.5430 C   0  0  2  0  0  0
   31.4590   37.5900    9.0710 O   0  0  0  0  0  0
   31.5760   39.9600    9.5980 C   0  0  1  0  0  0
   30.2050   40.5130    9.9520 C   0  0  2  0  0  0
   29.3050   40.1040    8.9350 O   0  0  0  0  0  0
   32.1860   39.4280   10.7510 O   0  0  0  0  0  0
   30.2340   42.0330   10.1230 C   0  0  0  0  0  0
   29.6140   42.7130    9.0500 O   0  0  0  0  0  0
   30.2710   44.0450    8.4120 P   0  0  2  0  0  0
   30.1030   44.0570    6.9400 O   0  0  0  0  0  0
   31.7130   44.1540    8.7480 O   0  5  0  0  0  0
   29.4130   45.2640    9.0200 O   0  0  0  0  0  0
   29.4210   45.6410   10.5870 P   0  0  0  0  0  0
   28.5390   44.6880   11.3020 O   0  5  0  0  0  0
   28.8940   47.0180   10.7320 O   0  5  0  0  0  0
   30.7910   45.5620   11.1420 O   0  0  0  0  0  0
   29.2762   38.1329    3.6040 H   0  0  0  0  0  0
   29.7111   42.2616    4.6808 H   0  0  0  0  0  0
   29.7446   41.6110    7.0788 H   0  0  0  0  0  0
   29.2919   38.1894    8.2192 H   0  0  0  0  0  0
   32.0644   38.9130    7.7333 H   0  0  0  0  0  0
   31.3030   36.7152    8.4227 H   0  0  0  0  0  0
   32.3094   40.7122    9.2720 H   0  0  0  0  0  0
   29.8162   40.0791   10.8851 H   0  0  0  0  0  0
   33.1890   38.9811   10.6861 H   0  0  0  0  0  0
   29.7053   42.3081   11.0475 H   0  0  0  0  0  0
   31.2777   42.3756   10.1817 H   0  0  0  0  0  0
  1  2  1  0  0  0
  1  6  1  0  0  0
  1  9  1  0  0  0
  2  3  1  0  0  0
  2  7  2  0  0  0
  3  4  1  0  0  0
  3 26  1  0  0  0
  4  5  1  0  0  0
  4  8  2  0  0  0
  5  6  2  0  0  0
  5 27  1  0  0  0
  6 28  1  0  0  0
  9 10  1  0  0  0
  9 14  1  0  0  0
  9 29  1  0  0  0
 10 11  1  0  0  0
 10 12  1  0  0  0
 10 30  1  0  0  0
 11 31  1  0  0  0
 12 13  1  0  0  0
 12 15  1  0  0  0
 12 32  1  0  0  0
 13 14  1  0  0  0
 13 16  1  0  0  0
 13 33  1  0  0  0
 15 34  1  0  0  0
 16 17  1  0  0  0
 16 35  1  0  0  0
 16 36  1  0  0  0
 17 18  1  0  0  0
 18 19  2  0  0  0
 18 20  1  0  0  0
 18 21  1  0  0  0
 21 22  1  0  0  0
 22 23  1  0  0  0
 22 24  1  0  0  0
 22 25  2  0  0  0
M  CHG  3  20  -1  23  -1  24  -1
M  END
> <s_m_source_file>
../3djq_ligand.sdf

> <i_m_source_file_index>
1

> <s_epik_input>
W2NIXTFbY0hdYyg9TylbbkhdYyg9TyluMVtDQEhdMltDQEhdKFtPSF0pW0NASF0oW09IXSlbQ0BIXShPMilbQ0gyXU9bUEBdKD1PKShbT0hdKU9QKD1PKShbT0hdKVtPSF0=

> <s_epik_cmdline>
J2VwaWtfYXBwJywgJy1pbWFlJywgJ2xpZ2FuZF9wcm8ubWFlJywgJy1vbWFlJywgJ2xpZ2FuZF9wcmVwLm1hZScsICctbXMnLCAnMScsICctcGgnLCAnNycsICctcGh0JywgJzAuNScsICctbnQn

> <r_lp_tautomer_probability>
0.999537046341301

> <r_epik_Ionization_Penalty>
  0.1061

> <r_epik_Ionization_Penalty_Charging>
  0.1061

> <r_epik_Ionization_Penalty_Neutral>
  0.0000

> <r_epik_State_Penalty>
  0.0923

> <r_epik_Charging_Adjusted_Penalty>
0.198376686346359

> <i_epik_Tot_Q>
-3

> <i_epik_Tot_abs_Q>
3

> <s_epik_Chemistry_Notes>
This compound contains an acetal/aminal-like group ( X-CH(R)-Y where X, Y are N, S, or O) that may be acid/base labile, releasing an aldehyde.

$$$$
