3djv_ligand
                    3D
 Schrodinger Suite 2020-3.
 33 34  0  0  1  0            999 V2000
   32.0930   38.1280   12.1670 P   0  0  0  0  0  0
   32.9580   39.3740   12.1560 O   0  5  0  0  0  0
   32.8480   36.8280   12.0200 O   0  5  0  0  0  0
   31.0490   38.1190   13.2580 O   0  0  0  0  0  0
   31.2960   42.2590    8.9820 O   0  0  0  0  0  0
   30.9030   41.5590   10.1730 C   0  0  0  0  0  0
   30.3010   40.1870    9.8600 C   0  0  1  0  0  0
   29.6400   40.1940    8.5890 O   0  0  0  0  0  0
   31.3530   39.0760    9.7820 C   0  0  1  0  0  0
   31.1870   38.1560   10.8380 O   0  0  0  0  0  0
   31.0940   38.3500    8.4750 C   0  0  2  0  0  0
   32.3320   37.8720    7.9670 O   0  0  0  0  0  0
   30.5630   39.5450    7.7110 C   0  0  1  0  0  0
   30.1230   39.5120    6.3130 N   0  0  0  0  0  0
   29.7620   38.3900    5.5080 C   0  0  0  0  0  0
   29.4220   38.6270    4.2200 N   0  0  0  0  0  0
   29.4280   39.8770    3.6870 C   0  0  0  0  0  0
   29.7910   40.9650    4.4590 C   0  0  0  0  0  0
   30.1350   40.7390    5.7740 C   0  0  0  0  0  0
   29.7370   37.2070    5.9270 O   0  0  0  0  0  0
   29.0840   40.0930    2.3980 N   0  0  0  0  0  0
   31.7452   43.2604    9.0555 H   0  0  0  0  0  0
   31.7820   41.4093   10.8172 H   0  0  0  0  0  0
   30.1486   42.1497   10.7134 H   0  0  0  0  0  0
   29.5528   39.9851   10.6406 H   0  0  0  0  0  0
   32.3810   39.4484    9.9024 H   0  0  0  0  0  0
   30.4822   37.4361    8.4528 H   0  0  0  0  0  0
   32.8219   37.0064    8.4369 H   0  0  0  0  0  0
   31.4408   40.1559    7.4536 H   0  0  0  0  0  0
   29.8047   41.9712    4.0400 H   0  0  0  0  0  0
   30.4263   41.5854    6.3959 H   0  0  0  0  0  0
   28.7904   39.2478    1.7581 H   0  0  0  0  0  0
   29.0976   41.1140    1.9888 H   0  0  0  0  0  0
  1  2  1  0  0  0
  1  3  1  0  0  0
  1  4  2  0  0  0
  1 10  1  0  0  0
  5  6  1  0  0  0
  5 22  1  0  0  0
  6  7  1  0  0  0
  6 23  1  0  0  0
  6 24  1  0  0  0
  7  8  1  0  0  0
  7  9  1  0  0  0
  7 25  1  0  0  0
  8 13  1  0  0  0
  9 10  1  0  0  0
  9 11  1  0  0  0
  9 26  1  0  0  0
 11 12  1  0  0  0
 11 13  1  0  0  0
 11 27  1  0  0  0
 12 28  1  0  0  0
 13 14  1  0  0  0
 13 29  1  0  0  0
 14 15  1  0  0  0
 14 19  1  0  0  0
 15 16  1  0  0  0
 15 20  2  0  0  0
 16 17  2  0  0  0
 17 18  1  0  0  0
 17 21  1  0  0  0
 18 19  2  0  0  0
 18 30  1  0  0  0
 19 31  1  0  0  0
 21 32  1  0  0  0
 21 33  1  0  0  0
M  CHG  2   2  -1   3  -1
M  END
> <s_m_source_file>
../3djv_ligand.sdf

> <i_m_source_file_index>
1

> <s_epik_input>
W09IXVAoPU8pKFtPSF0pT1tDQEhdMVtDQEhdKFtPSF0pW0NASF0oT1tDQEBIXTFbQ0gyXVtPSF0pbjJjKD1PKVtuSF0vYyg9TlxbSF0pW2NIXVtjSF0y

> <s_epik_cmdline>
J2VwaWtfYXBwJywgJy1pbWFlJywgJ2xpZ2FuZF9wcm8ubWFlJywgJy1vbWFlJywgJ2xpZ2FuZF9wcmVwLm1hZScsICctbXMnLCAnMScsICctcGgnLCAnNycsICctcGh0JywgJzAuNScsICctbnQn

> <r_lp_tautomer_probability>
0.999959729267721

> <r_epik_Ionization_Penalty>
  0.0785

> <r_epik_Ionization_Penalty_Charging>
  0.0778

> <r_epik_Ionization_Penalty_Neutral>
  0.0007

> <r_epik_State_Penalty>
  0.0687

> <r_epik_Charging_Adjusted_Penalty>
0.146452308643358

> <i_epik_Tot_Q>
-2

> <i_epik_Tot_abs_Q>
2

> <s_epik_Chemistry_Notes>
This compound contains an acetal/aminal-like group ( X-CH(R)-Y where X, Y are N, S, or O) that may be acid/base labile, releasing an aldehyde.

$$$$
