3dk1_ligand
                    3D
 Schrodinger Suite 2020-3.
 80 83  0  0  1  0            999 V2000
   20.8680   27.7330   14.8850 C   0  0  0  0  0  0
   21.4580   28.9590   14.7130 O   0  0  0  0  0  0
   22.8290   28.9460   15.0250 C   0  0  0  0  0  0
   21.4340   26.6140   15.4840 C   0  0  0  0  0  0
   20.6410   25.5190   15.7310 C   0  0  0  0  0  0
   19.2830   25.5310   15.4250 C   0  0  0  0  0  0
   18.7090   26.6500   14.8530 C   0  0  0  0  0  0
   19.5250   27.7590   14.6000 C   0  0  0  0  0  0
   18.2990   24.1590   15.9000 S   0  0  0  0  0  0
   17.1840   24.0540   14.9470 O   0  0  0  0  0  0
   19.1870   23.0200   16.0500 O   0  0  0  0  0  0
   17.6260   24.4540   17.3920 N   0  0  1  0  0  0
   18.5710   24.7340   18.4620 C   0  0  0  0  0  0
   18.2970   24.0360   19.8010 C   0  0  0  0  0  0
   18.3460   22.5130   19.6590 C   0  0  0  0  0  0
   19.3290   24.5420   20.8460 C   0  0  0  0  0  0
   16.3340   25.1440   17.4410 C   0  0  0  0  0  0
   15.2320   24.2270   17.9790 C   0  0  1  0  0  0
   14.0600   25.0110   18.2740 O   0  0  0  0  0  0
   14.8660   23.0850   17.0340 C   0  0  1  0  0  0
   13.9520   22.1820   17.7540 N   0  0  0  0  0  0
   14.2950   20.9940   18.1590 C   0  0  0  0  0  0
   15.4020   20.4420   18.0020 O   0  0  0  0  0  0
   13.3030   20.3560   18.8090 O   0  0  0  0  0  0
   13.5610   18.9970   19.2350 C   0  0  1  0  0  0
   12.3380   18.6100   20.0800 C   0  0  0  0  0  0
   11.3020   18.0090   19.1070 C   0  0  1  0  0  0
   10.6550   19.1440   18.4210 O   0  0  0  0  0  0
    9.9330   18.7060   17.2580 C   0  0  0  0  0  0
   10.9550   18.1230   16.2780 C   0  0  0  0  0  0
   11.5180   16.9510   16.8810 O   0  0  0  0  0  0
   12.1490   17.2850   18.1360 C   0  0  1  0  0  0
   13.4480   18.0590   18.0260 C   0  0  0  0  0  0
   14.1440   23.5310   15.7810 C   0  0  0  0  0  0
   12.5080   21.8350   14.8170 C   0  0  0  0  0  0
   12.2340   20.6820   14.0940 C   0  0  0  0  0  0
   13.2230   20.0520   13.3500 C   0  0  0  0  0  0
   14.5000   20.6090   13.3780 C   0  0  0  0  0  0
   14.7820   21.7640   14.1240 C   0  0  0  0  0  0
   13.7850   22.3820   14.8560 C   0  0  0  0  0  0
   23.2498   29.9504   14.8700 H   0  0  0  0  0  0
   23.3466   28.2270   14.3730 H   0  0  0  0  0  0
   22.9630   28.6504   16.0760 H   0  0  0  0  0  0
   22.4901   26.6049   15.7536 H   0  0  0  0  0  0
   21.0827   24.6263   16.1739 H   0  0  0  0  0  0
   17.6478   26.6689   14.6050 H   0  0  0  0  0  0
   19.0865   28.6591   14.1691 H   0  0  0  0  0  0
   19.5785   24.4181   18.1534 H   0  0  0  0  0  0
   18.5744   25.8131   18.6752 H   0  0  0  0  0  0
   17.2752   24.2766   20.1298 H   0  0  0  0  0  0
   17.6046   22.1903   18.9133 H   0  0  0  0  0  0
   18.1176   22.0468   20.6288 H   0  0  0  0  0  0
   19.3511   22.2073   19.3329 H   0  0  0  0  0  0
   19.2665   25.6376   20.9222 H   0  0  0  0  0  0
   20.3424   24.2536   20.5299 H   0  0  0  0  0  0
   19.1088   24.0931   21.8258 H   0  0  0  0  0  0
   16.4115   26.0211   18.1003 H   0  0  0  0  0  0
   16.0538   25.4701   16.4285 H   0  0  0  0  0  0
   15.5787   23.7825   18.9236 H   0  0  0  0  0  0
   14.1343   25.8810   18.9431 H   0  0  0  0  0  0
   15.7969   22.5829   16.7320 H   0  0  0  0  0  0
   12.9227   22.5019   17.9737 H   0  0  0  0  0  0
   14.5464   18.9760   19.7234 H   0  0  0  0  0  0
   12.6359   17.8727   20.8401 H   0  0  0  0  0  0
   11.9365   19.5060   20.5759 H   0  0  0  0  0  0
   10.5196   17.3684   19.5400 H   0  0  0  0  0  0
    9.1983   17.9409   17.5492 H   0  0  0  0  0  0
    9.4110   19.5625   16.8063 H   0  0  0  0  0  0
   10.4519   17.8637   15.3348 H   0  0  0  0  0  0
   11.7409   18.8673   16.0819 H   0  0  0  0  0  0
   12.3076   16.2540   18.4850 H   0  0  0  0  0  0
   13.4537   18.6524   17.0998 H   0  0  0  0  0  0
   14.2999   17.3631   18.0209 H   0  0  0  0  0  0
   13.2084   24.0389   16.0581 H   0  0  0  0  0  0
   14.7843   24.2244   15.2160 H   0  0  0  0  0  0
   11.7030   22.3226   15.3668 H   0  0  0  0  0  0
   11.2271   20.2648   14.1105 H   0  0  0  0  0  0
   13.0087   19.1565   12.7667 H   0  0  0  0  0  0
   15.2991   20.1364   12.8069 H   0  0  0  0  0  0
   15.7913   22.1755   14.1263 H   0  0  0  0  0  0
  1  2  1  0  0  0
  1  4  2  0  0  0
  1  8  1  0  0  0
  2  3  1  0  0  0
  3 41  1  0  0  0
  3 42  1  0  0  0
  3 43  1  0  0  0
  4  5  1  0  0  0
  4 44  1  0  0  0
  5  6  2  0  0  0
  5 45  1  0  0  0
  6  7  1  0  0  0
  6  9  1  0  0  0
  7  8  2  0  0  0
  7 46  1  0  0  0
  8 47  1  0  0  0
  9 10  2  0  0  0
  9 11  2  0  0  0
  9 12  1  0  0  0
 12 13  1  0  0  0
 12 17  1  0  0  0
 13 14  1  0  0  0
 13 48  1  0  0  0
 13 49  1  0  0  0
 14 15  1  0  0  0
 14 16  1  0  0  0
 14 50  1  0  0  0
 15 51  1  0  0  0
 15 52  1  0  0  0
 15 53  1  0  0  0
 16 54  1  0  0  0
 16 55  1  0  0  0
 16 56  1  0  0  0
 17 18  1  0  0  0
 17 57  1  0  0  0
 17 58  1  0  0  0
 18 19  1  0  0  0
 18 20  1  0  0  0
 18 59  1  0  0  0
 19 60  1  0  0  0
 20 21  1  0  0  0
 20 34  1  0  0  0
 20 61  1  0  0  0
 21 22  1  0  0  0
 21 62  1  0  0  0
 22 23  2  0  0  0
 22 24  1  0  0  0
 24 25  1  0  0  0
 25 26  1  0  0  0
 25 33  1  0  0  0
 25 63  1  0  0  0
 26 27  1  0  0  0
 26 64  1  0  0  0
 26 65  1  0  0  0
 27 28  1  0  0  0
 27 32  1  0  0  0
 27 66  1  0  0  0
 28 29  1  0  0  0
 29 30  1  0  0  0
 29 67  1  0  0  0
 29 68  1  0  0  0
 30 31  1  0  0  0
 30 69  1  0  0  0
 30 70  1  0  0  0
 31 32  1  0  0  0
 32 33  1  0  0  0
 32 71  1  0  0  0
 33 72  1  0  0  0
 33 73  1  0  0  0
 34 40  1  0  0  0
 34 74  1  0  0  0
 34 75  1  0  0  0
 35 36  2  0  0  0
 35 40  1  0  0  0
 35 76  1  0  0  0
 36 37  1  0  0  0
 36 77  1  0  0  0
 37 38  2  0  0  0
 37 78  1  0  0  0
 38 39  1  0  0  0
 38 79  1  0  0  0
 39 40  2  0  0  0
 39 80  1  0  0  0
M  END
> <s_m_source_file>
../3dk1_ligand.sdf

> <i_m_source_file_index>
1

> <s_epik_input>
W0NIM11PYzFbY0hdW2NIXWMoW2NIXVtjSF0xKVMoPU8pKD1PKU4oW0NIMl1bQ0hdKFtDSDNdKVtDSDNdKVtDSDJdW0NAQEhdKFtPSF0pW0NASF0oW0NIMl1jMltjSF1bY0hdW2NIXVtjSF1bY0hdMilbTkhdQyg9TylPW0NAQEhdKFtDSDJdMylbQ0gyXVtDQEBIXShbQ0BASF0zNClPW0NIMl1bQ0gyXU80

> <s_epik_cmdline>
J2VwaWtfYXBwJywgJy1pbWFlJywgJ2xpZ2FuZF9wcm8ubWFlJywgJy1vbWFlJywgJ2xpZ2FuZF9wcmVwLm1hZScsICctbXMnLCAnMScsICctcGgnLCAnNycsICctcGh0JywgJzAuNScsICctbnQn

> <r_lp_tautomer_probability>
1

> <r_epik_Ionization_Penalty>
  0.0000

> <r_epik_Ionization_Penalty_Charging>
  0.0000

> <r_epik_Ionization_Penalty_Neutral>
  0.0000

> <r_epik_State_Penalty>
 -0.0000

> <r_epik_Charging_Adjusted_Penalty>
0

> <i_epik_Tot_Q>
0

> <i_epik_Tot_abs_Q>
0

> <s_epik_Chemistry_Notes>
This compound has an ester and may undergo hydrolysis at high or low pH.

$$$$
