3dla_ligand
                    3D
 Schrodinger Suite 2020-3.
 68 72  0  0  1  0            999 V2000
  155.1570   75.7270   65.9380 O   0  5  0  0  0  0
  154.2690   76.5890   66.1940 C   0  0  0  0  0  0
  153.0570   76.3970   65.9080 O   0  0  0  0  0  0
  154.6510   77.9050   66.8420 C   0  0  0  0  0  0
  155.1100   78.9430   66.0330 C   0  0  0  0  0  0
  155.4550   80.1580   66.5980 C   0  0  0  0  0  0
  155.3290   80.3000   67.9750 C   0  0  0  0  0  0
  154.5530   78.1120   68.2280 C   0  0  0  0  0  0
  154.8870   79.2980   68.7740 N   0  0  0  0  0  0
  154.7810   79.4980   70.2430 C   0  0  1  0  0  0
  156.1030   80.0370   70.7750 C   0  0  2  0  0  0
  156.3180   79.5910   72.1200 O   0  0  0  0  0  0
  155.8900   81.5390   70.7010 C   0  0  2  0  0  0
  156.7520   82.2630   71.5770 O   0  0  0  0  0  0
  153.7860   80.4820   70.6090 O   0  0  0  0  0  0
  154.4140   81.6970   71.0380 C   0  0  2  0  0  0
  153.8260   82.9150   70.3420 C   0  0  0  0  0  0
  154.1210   84.0340   71.1780 O   0  0  0  0  0  0
  153.1550   85.3070   71.3650 P   0  0  1  0  0  0
  151.7420   84.8390   71.1050 O   0  0  0  0  0  0
  153.4270   85.9090   72.7260 O   0  5  0  0  0  0
  153.7630   86.3050   70.2170 O   0  0  0  0  0  0
  153.1940   86.8670   68.7910 P   0  0  1  0  0  0
  154.2520   87.6980   68.1090 O   0  5  0  0  0  0
  152.6100   85.7670   67.9600 O   0  0  0  0  0  0
  152.0280   87.8750   69.2520 O   0  0  0  0  0  0
  152.2670   88.8270   70.2740 C   0  0  0  0  0  0
  152.5180   90.1540   69.5670 C   0  0  2  0  0  0
  153.1890   91.1710   70.4790 C   0  0  1  0  0  0
  153.8210   92.1490   69.6340 O   0  0  0  0  0  0
  152.0270   91.7910   71.2230 C   0  0  1  0  0  0
  152.3600   93.1150   71.6440 O   0  0  0  0  0  0
  150.9560   91.8150   70.1310 C   0  0  1  0  0  0
  151.2830   90.7640   69.1880 O   0  0  0  0  0  0
  149.5370   91.6980   70.5950 N   0  0  0  0  0  0
  149.0320   90.9910   71.6320 C   0  0  0  0  0  0
  147.6870   91.1540   71.6560 N   0  0  0  0  0  0
  147.3560   91.9810   70.6160 C   0  0  0  0  0  0
  148.5320   92.3080   69.9500 C   0  0  0  0  0  0
  146.1590   92.5210   70.1130 C   0  0  0  0  0  0
  144.9670   92.2370   70.7020 N   0  0  0  0  0  0
  146.1940   93.3290   69.0100 N   0  0  0  0  0  0
  147.3460   93.6240   68.3830 C   0  0  0  0  0  0
  148.5010   93.1220   68.8490 N   0  0  0  0  0  0
  155.1977   78.7959   64.9464 H   0  0  0  0  0  0
  155.8204   80.9984   65.9896 H   0  0  0  0  0  0
  155.5925   81.2535   68.4560 H   0  0  0  0  0  0
  154.2026   77.3035   68.8696 H   0  0  0  0  0  0
  154.4644   78.5308   70.6604 H   0  0  0  0  0  0
  157.0112   79.6813   70.2665 H   0  0  0  0  0  0
  156.4869   78.5236   72.3251 H   0  0  0  0  0  0
  156.1873   81.9986   69.7469 H   0  0  0  0  0  0
  157.8417   82.2251   71.4316 H   0  0  0  0  0  0
  154.2224   81.8112   72.1152 H   0  0  0  0  0  0
  154.2884   83.0296   69.3505 H   0  0  0  0  0  0
  152.7400   82.7830   70.2270 H   0  0  0  0  0  0
  151.3869   88.8884   70.9309 H   0  0  0  0  0  0
  153.1437   88.5201   70.8633 H   0  0  0  0  0  0
  153.1102   89.9360   68.6660 H   0  0  0  0  0  0
  153.9776   90.7895   71.1442 H   0  0  0  0  0  0
  154.6879   91.8663   69.0187 H   0  0  0  0  0  0
  151.7438   91.3047   72.1682 H   0  0  0  0  0  0
  153.1174   93.2691   72.4267 H   0  0  0  0  0  0
  150.9732   92.7931   69.6280 H   0  0  0  0  0  0
  149.6114   90.3896   72.3325 H   0  0  0  0  0  0
  144.9328   91.5878   71.5893 H   0  0  0  0  0  0
  144.0368   92.6565   70.2912 H   0  0  0  0  0  0
  147.3425   94.2663   67.5024 H   0  0  0  0  0  0
  1  2  1  0  0  0
  2  3  2  0  0  0
  2  4  1  0  0  0
  4  5  2  0  0  0
  4  8  1  0  0  0
  5  6  1  0  0  0
  5 45  1  0  0  0
  6  7  2  0  0  0
  6 46  1  0  0  0
  7  9  1  0  0  0
  7 47  1  0  0  0
  8  9  1  0  0  0
  8 48  1  0  0  0
  9 10  1  0  0  0
 10 11  1  0  0  0
 10 15  1  0  0  0
 10 49  1  0  0  0
 11 12  1  0  0  0
 11 13  1  0  0  0
 11 50  1  0  0  0
 12 51  1  0  0  0
 13 14  1  0  0  0
 13 16  1  0  0  0
 13 52  1  0  0  0
 14 53  1  0  0  0
 15 16  1  0  0  0
 16 17  1  0  0  0
 16 54  1  0  0  0
 17 18  1  0  0  0
 17 55  1  0  0  0
 17 56  1  0  0  0
 18 19  1  0  0  0
 19 20  2  0  0  0
 19 21  1  0  0  0
 19 22  1  0  0  0
 22 23  1  0  0  0
 23 24  1  0  0  0
 23 25  2  0  0  0
 23 26  1  0  0  0
 26 27  1  0  0  0
 27 28  1  0  0  0
 27 57  1  0  0  0
 27 58  1  0  0  0
 28 29  1  0  0  0
 28 34  1  0  0  0
 28 59  1  0  0  0
 29 30  1  0  0  0
 29 31  1  0  0  0
 29 60  1  0  0  0
 30 61  1  0  0  0
 31 32  1  0  0  0
 31 33  1  0  0  0
 31 62  1  0  0  0
 32 63  1  0  0  0
 33 34  1  0  0  0
 33 35  1  0  0  0
 33 64  1  0  0  0
 35 36  1  0  0  0
 35 39  1  0  0  0
 36 37  2  0  0  0
 36 65  1  0  0  0
 37 38  1  0  0  0
 38 39  2  0  0  0
 38 40  1  0  0  0
 39 44  1  0  0  0
 40 41  1  0  0  0
 40 42  2  0  0  0
 41 66  1  0  0  0
 41 67  1  0  0  0
 42 43  1  0  0  0
 43 44  2  0  0  0
 43 68  1  0  0  0
M  CHG  3   1  -1  21  -1  24  -1
M  END
> <s_m_source_file>
../3dla_ligand.sdf

> <i_m_source_file_index>
1

> <s_epik_input>
W09IXUMoPU8pQzE9W0NIXVtDSF09W0NIXU4oW0NIMl0xKVtDQEhdMltDQEhdKFtPSF0pW0NASF0oW09IXSlbQ0BIXShPMilbQ0gyXU9bUEBAXSg9TykoW09IXSlPW1BAXSg9TykoW09IXSlPW0NIMl1bQ0BASF0zW0NAQEhdKFtPSF0pW0NAQEhdKFtPSF0pW0NAQEhdKE8zKW4oW2NIXW40KWMoYzQ1KW5bY0hdbmM1W05IMl0=

> <s_epik_cmdline>
J2VwaWtfYXBwJywgJy1pbWFlJywgJ2xpZ2FuZF9wcm8ubWFlJywgJy1vbWFlJywgJ2xpZ2FuZF9wcmVwLm1hZScsICctbXMnLCAnMScsICctcGgnLCAnNycsICctcGh0JywgJzAuNScsICctbnQn

> <r_lp_tautomer_probability>
1

> <r_epik_Ionization_Penalty>
  0.0012

> <r_epik_Ionization_Penalty_Charging>
  0.0008

> <r_epik_Ionization_Penalty_Neutral>
  0.0004

> <r_epik_State_Penalty>
 -0.0000

> <r_epik_Charging_Adjusted_Penalty>
0.000780004266234724

> <i_epik_Tot_Q>
-3

> <i_epik_Tot_abs_Q>
3

> <s_epik_Chemistry_Notes>
This compound contains an acetal/aminal-like group ( X-CH(R)-Y where X, Y are N, S, or O) that may be acid/base labile, releasing an aldehyde.

$$$$
