3dm6_ligand
                    3D
 Schrodinger Suite 2020-3.
105108  0  0  1  0            999 V2000
    2.5070   17.7160   30.2080 O   0  0  0  0  0  0
    1.6370   17.2530   30.9560 C   0  0  0  0  0  0
    0.3680   17.6180   30.7880 N   0  0  0  0  0  0
   -0.0850   18.4220   29.6770 C   0  0  1  0  0  0
   -0.5080   17.5060   28.5660 C   0  0  0  0  0  0
   -1.5590   16.5910   28.7170 C   0  0  0  0  0  0
   -1.9480   15.7490   27.6660 C   0  0  0  0  0  0
   -1.2600   15.7920   26.4430 C   0  0  0  0  0  0
   -0.1940   16.6920   26.2810 C   0  0  0  0  0  0
    0.1750   17.5420   27.3320 C   0  0  0  0  0  0
   -1.2020   19.3420   30.1490 C   0  0  0  0  0  0
    2.0320   16.3190   32.0750 C   0  0  0  0  0  0
    3.2330   15.5890   32.0180 C   0  0  0  0  0  0
    3.6140   14.7240   33.0400 C   0  0  0  0  0  0
    4.8280   14.0030   32.9710 N   0  0  0  0  0  0
    5.5170   13.7230   34.2220 C   0  0  0  0  0  0
    5.5280   13.5200   31.6770 S   0  0  0  0  0  0
    4.6050   13.3760   30.5500 O   0  0  0  0  0  0
    6.7020   14.6350   31.2640 C   0  0  0  0  0  0
    6.2090   12.2740   31.9700 O   0  0  0  0  0  0
    2.7830   14.6220   34.1570 C   0  0  0  0  0  0
    1.2290   16.1880   33.1910 C   0  0  0  0  0  0
    1.5870   15.3350   34.2360 C   0  0  0  0  0  0
    0.6470   15.2960   35.4290 C   0  0  0  0  0  0
    1.1170   15.3350   36.5570 O   0  0  0  0  0  0
   -0.6690   15.2860   35.2020 N   0  0  0  0  0  0
   -1.7340   15.3410   36.1830 C   0  0  1  0  0  0
   -2.7450   16.3920   35.7030 C   0  0  0  0  0  0
   -2.2890   17.2960   34.6830 O   0  0  0  0  0  0
   -1.4560   18.3860   34.8690 C   0  0  0  0  0  0
   -0.9080   18.6450   36.1170 C   0  0  0  0  0  0
   -0.0540   19.7220   36.3250 C   0  0  0  0  0  0
    0.4330   19.9170   37.5520 F   0  0  0  0  0  0
    0.2730   20.5870   35.2940 C   0  0  0  0  0  0
   -0.2630   20.3470   34.0380 C   0  0  0  0  0  0
    0.0750   21.1950   33.0400 F   0  0  0  0  0  0
   -1.1280   19.2580   33.8220 C   0  0  0  0  0  0
   -2.5270   14.0720   36.4140 C   0  0  1  0  0  0
   -2.8590   13.5780   35.1130 O   0  0  0  0  0  0
   -1.7820   13.0560   37.3060 C   0  0  0  0  0  0
   -1.6690   13.4810   38.7790 C   0  0  0  0  0  0
   -0.6950   14.1400   39.1130 O   0  0  0  0  0  0
   -2.5780   13.1710   39.7350 N   0  0  0  0  0  0
   -2.3680   13.5850   41.1320 C   0  0  1  0  0  0
   -3.4660   13.3100   42.1690 C   0  0  0  0  0  0
   -3.6660   14.5510   43.0450 C   0  0  0  0  0  0
   -4.7750   12.8150   41.6000 C   0  0  0  0  0  0
   -1.2160   12.8660   41.7780 C   0  0  0  0  0  0
   -1.0470   11.6730   41.5840 O   0  0  0  0  0  0
   -0.4340   13.5530   42.6200 N   0  0  0  0  0  0
    0.6050   12.9770   43.2270 C   0  0  0  0  0  0
    1.8490   13.0560   42.6320 C   0  0  0  0  0  0
    2.9640   12.4680   43.2140 C   0  0  0  0  0  0
    4.2740   12.6140   42.4790 C   0  0  0  0  0  0
    4.3420   12.2550   41.2780 O   0  0  0  0  0  0
    5.2710   13.1250   43.0460 O   0  5  0  0  0  0
    0.4340   12.3090   44.4130 C   0  0  0  0  0  0
    1.5300   11.7180   45.0070 C   0  0  0  0  0  0
    2.8050   11.7830   44.4280 C   0  0  0  0  0  0
    1.2540   11.0080   46.2860 C   0  0  0  0  0  0
    0.9000   11.6810   47.2850 O   0  0  0  0  0  0
    1.3500    9.7560   46.3140 O   0  5  0  0  0  0
   -0.3497   17.2762   31.5483 H   0  0  0  0  0  0
    0.7513   19.0375   29.3139 H   0  0  0  0  0  0
   -2.0841   16.5331   29.6704 H   0  0  0  0  0  0
   -2.7836   15.0617   27.7981 H   0  0  0  0  0  0
   -1.5508   15.1321   25.6256 H   0  0  0  0  0  0
    0.3474   16.7293   25.3357 H   0  0  0  0  0  0
    1.0006   18.2403   27.1944 H   0  0  0  0  0  0
   -0.8294   19.9848   30.9602 H   0  0  0  0  0  0
   -2.0439   18.7374   30.5174 H   0  0  0  0  0  0
   -1.5399   19.9686   29.3104 H   0  0  0  0  0  0
    3.8827   15.7037   31.1504 H   0  0  0  0  0  0
    4.9238   14.1125   35.0625 H   0  0  0  0  0  0
    6.5040   14.2086   34.2137 H   0  0  0  0  0  0
    5.6440   12.6363   34.3354 H   0  0  0  0  0  0
    6.2264   15.5996   31.0328 H   0  0  0  0  0  0
    7.2533   14.2772   30.3819 H   0  0  0  0  0  0
    7.3991   14.7622   32.1054 H   0  0  0  0  0  0
    3.0743   13.9730   34.9829 H   0  0  0  0  0  0
    0.3027   16.7588   33.2565 H   0  0  0  0  0  0
   -0.9107   15.2284   34.1304 H   0  0  0  0  0  0
   -1.1775   15.5466   37.1093 H   0  0  0  0  0  0
   -3.6288   15.8870   35.2860 H   0  0  0  0  0  0
   -3.0492   17.0225   36.5515 H   0  0  0  0  0  0
   -1.1525   17.9895   36.9529 H   0  0  0  0  0  0
    0.9354   21.4355   35.4657 H   0  0  0  0  0  0
   -1.5473   19.0910   32.8298 H   0  0  0  0  0  0
   -3.4839   14.2632   36.9218 H   0  0  0  0  0  0
   -3.3913   14.2235   34.3989 H   0  0  0  0  0  0
   -2.3125   12.0926   37.2862 H   0  0  0  0  0  0
   -0.7579   12.9185   36.9287 H   0  0  0  0  0  0
   -3.4795   12.6045   39.4588 H   0  0  0  0  0  0
   -2.2493   14.6567   40.9143 H   0  0  0  0  0  0
   -3.1237   12.4596   42.7770 H   0  0  0  0  0  0
   -2.6941   14.8813   43.4402 H   0  0  0  0  0  0
   -4.3375   14.3054   43.8809 H   0  0  0  0  0  0
   -4.1101   15.3573   42.4427 H   0  0  0  0  0  0
   -4.5919   11.9259   40.9787 H   0  0  0  0  0  0
   -5.2294   13.6053   40.9844 H   0  0  0  0  0  0
   -5.4568   12.5534   42.4226 H   0  0  0  0  0  0
   -0.6427   14.6138   42.8229 H   0  0  0  0  0  0
    1.9574   13.5899   41.6879 H   0  0  0  0  0  0
   -0.5500   12.2463   44.8776 H   0  0  0  0  0  0
    3.6586   11.3093   44.9129 H   0  0  0  0  0  0
  1  2  2  0  0  0
  2  3  1  0  0  0
  2 12  1  0  0  0
  3  4  1  0  0  0
  3 63  1  0  0  0
  4  5  1  0  0  0
  4 11  1  0  0  0
  4 64  1  0  0  0
  5  6  2  0  0  0
  5 10  1  0  0  0
  6  7  1  0  0  0
  6 65  1  0  0  0
  7  8  2  0  0  0
  7 66  1  0  0  0
  8  9  1  0  0  0
  8 67  1  0  0  0
  9 10  2  0  0  0
  9 68  1  0  0  0
 10 69  1  0  0  0
 11 70  1  0  0  0
 11 71  1  0  0  0
 11 72  1  0  0  0
 12 13  2  0  0  0
 12 22  1  0  0  0
 13 14  1  0  0  0
 13 73  1  0  0  0
 14 15  1  0  0  0
 14 21  2  0  0  0
 15 16  1  0  0  0
 15 17  1  0  0  0
 16 74  1  0  0  0
 16 75  1  0  0  0
 16 76  1  0  0  0
 17 18  2  0  0  0
 17 19  1  0  0  0
 17 20  2  0  0  0
 19 77  1  0  0  0
 19 78  1  0  0  0
 19 79  1  0  0  0
 21 23  1  0  0  0
 21 80  1  0  0  0
 22 23  2  0  0  0
 22 81  1  0  0  0
 23 24  1  0  0  0
 24 25  2  0  0  0
 24 26  1  0  0  0
 26 27  1  0  0  0
 26 82  1  0  0  0
 27 28  1  0  0  0
 27 38  1  0  0  0
 27 83  1  0  0  0
 28 29  1  0  0  0
 28 84  1  0  0  0
 28 85  1  0  0  0
 29 30  1  0  0  0
 30 31  2  0  0  0
 30 37  1  0  0  0
 31 32  1  0  0  0
 31 86  1  0  0  0
 32 33  1  0  0  0
 32 34  2  0  0  0
 34 35  1  0  0  0
 34 87  1  0  0  0
 35 36  1  0  0  0
 35 37  2  0  0  0
 37 88  1  0  0  0
 38 39  1  0  0  0
 38 40  1  0  0  0
 38 89  1  0  0  0
 39 90  1  0  0  0
 40 41  1  0  0  0
 40 91  1  0  0  0
 40 92  1  0  0  0
 41 42  2  0  0  0
 41 43  1  0  0  0
 43 44  1  0  0  0
 43 93  1  0  0  0
 44 45  1  0  0  0
 44 48  1  0  0  0
 44 94  1  0  0  0
 45 46  1  0  0  0
 45 47  1  0  0  0
 45 95  1  0  0  0
 46 96  1  0  0  0
 46 97  1  0  0  0
 46 98  1  0  0  0
 47 99  1  0  0  0
 47100  1  0  0  0
 47101  1  0  0  0
 48 49  2  0  0  0
 48 50  1  0  0  0
 50 51  1  0  0  0
 50102  1  0  0  0
 51 52  2  0  0  0
 51 57  1  0  0  0
 52 53  1  0  0  0
 52103  1  0  0  0
 53 54  1  0  0  0
 53 59  2  0  0  0
 54 55  2  0  0  0
 54 56  1  0  0  0
 57 58  2  0  0  0
 57104  1  0  0  0
 58 59  1  0  0  0
 58 60  1  0  0  0
 59105  1  0  0  0
 60 61  2  0  0  0
 60 62  1  0  0  0
M  CHG  2  56  -1  62  -1
M  END
> <s_m_source_file>
../3dm6_ligand.sdf

> <i_m_source_file_index>
1

> <s_epik_input>
W2NIXTFbY0hdW2NIXVtjSF1bY0hdYzFbQ0BASF0oW0NIM10pW05IXUMoPU8pYzJbY0hdYyhOKFtDSDNdKVMoPU8pKD1PKVtDSDNdKVtjSF1jKFtjSF0yKUMoPU8pW05IXVtDQEBIXShbQ0gyXU9jM1tjSF1jKEYpW2NIXWMoRilbY0hdMylbQ0BASF0oW09IXSlbQ0gyXUMoPU8pW05IXVtDQEBIXShbQ0hdKFtDSDNdKVtDSDNdKUMoPU8pW05IXWM0W2NIXWMoQyg9TylbT0hdKVtjSF1jKFtjSF00KUMoPU8pW09IXQ==

> <s_epik_cmdline>
J2VwaWtfYXBwJywgJy1pbWFlJywgJ2xpZ2FuZF9wcm8ubWFlJywgJy1vbWFlJywgJ2xpZ2FuZF9wcmVwLm1hZScsICctbXMnLCAnMScsICctcGgnLCAnNycsICctcGh0JywgJzAuNScsICctbnQn

> <r_lp_tautomer_probability>
1

> <r_epik_Ionization_Penalty>
  0.0010

> <r_epik_Ionization_Penalty_Charging>
  0.0010

> <r_epik_Ionization_Penalty_Neutral>
  0.0000

> <r_epik_State_Penalty>
 -0.0000

> <r_epik_Charging_Adjusted_Penalty>
0.00101623815049175

> <i_epik_Tot_Q>
-2

> <i_epik_Tot_abs_Q>
2

$$$$
