3dne_ligand
                    3D
 Schrodinger Suite 2020-3.
 24 26  0  0  1  0            999 V2000
    8.1770   10.4530    3.5880 C   0  0  0  0  0  0
    8.4900   10.9060    4.8980 C   0  0  0  0  0  0
    9.8320   11.1480    5.3000 C   0  0  0  0  0  0
   10.8840   10.9750    4.3630 C   0  0  0  0  0  0
   10.5770   10.5050    3.0310 C   0  0  0  0  0  0
    9.2460   10.2780    2.6400 C   0  0  0  0  0  0
    8.6750    9.9220    1.4520 N   0  3  0  0  0  0
    7.4230    9.8510    1.6070 N   0  0  0  0  0  0
    6.9890   10.1560    2.8550 C   0  0  0  0  0  0
    5.6030   10.1850    3.2950 C   0  0  0  0  0  0
    4.5770   10.2690    2.3320 C   0  0  0  0  0  0
    3.2090   10.2580    2.6860 C   0  0  0  0  0  0
    2.9070   10.2090    4.0030 N   0  0  0  0  0  0
    3.7950   10.1120    5.0010 C   0  0  0  0  0  0
    5.2030   10.0990    4.6690 C   0  0  0  0  0  0
    7.6825   11.0718    5.6111 H   0  0  0  0  0  0
   10.0513   11.4640    6.3199 H   0  0  0  0  0  0
   11.9137   11.1945    4.6452 H   0  0  0  0  0  0
   11.3856   10.3248    2.3227 H   0  0  0  0  0  0
    4.8480   10.3450    1.2790 H   0  0  0  0  0  0
    2.4275   10.2879    1.9267 H   0  0  0  0  0  0
    3.4650   10.0445    6.0376 H   0  0  0  0  0  0
    5.9530   10.0245    5.4564 H   0  0  0  0  0  0
    9.1205    9.7087    0.4691 H   0  0  0  0  0  0
  1  2  2  0  0  0
  1  6  1  0  0  0
  1  9  1  0  0  0
  2  3  1  0  0  0
  2 16  1  0  0  0
  3  4  2  0  0  0
  3 17  1  0  0  0
  4  5  1  0  0  0
  4 18  1  0  0  0
  5  6  2  0  0  0
  5 19  1  0  0  0
  6  7  1  0  0  0
  7  8  1  0  0  0
  7 24  1  0  0  0
  8  9  2  0  0  0
  9 10  1  0  0  0
 10 11  2  0  0  0
 10 15  1  0  0  0
 11 12  1  0  0  0
 11 20  1  0  0  0
 12 13  2  0  0  0
 12 21  1  0  0  0
 13 14  1  0  0  0
 14 15  2  0  0  0
 14 22  1  0  0  0
 15 23  1  0  0  0
M  CHG  1   7   1
M  END
> <s_m_source_file>
../3dne_ligand.sdf

> <i_m_source_file_index>
1

> <s_epik_input>
W2NIXTFbY0hdW2NIXVtjSF1jKGMxMilbbkhdbmMyLWMzW2NIXVtjSF1uW2NIXVtjSF0z

> <s_epik_cmdline>
J2VwaWtfYXBwJywgJy1pbWFlJywgJ2xpZ2FuZF9wcm8ubWFlJywgJy1vbWFlJywgJ2xpZ2FuZF9wcmVwLm1hZScsICctbXMnLCAnMScsICctcGgnLCAnNycsICctcGh0JywgJzAuNScsICctbnQn

> <r_epik_Ionization_Penalty>
  0.0007

> <r_epik_Ionization_Penalty_Charging>
  0.0000

> <r_epik_Ionization_Penalty_Neutral>
  0.0007

> <r_epik_State_Penalty>
  0.3975

> <r_epik_Charging_Adjusted_Penalty>
0.397487272026717

> <i_epik_Tot_Q>
1

> <i_epik_Tot_abs_Q>
1

> <s_epik_Chemistry_Notes>
This compound has an imine and may undergo hydrolysis.

$$$$
