3dnj_ligand
                    3D
 Schrodinger Suite 2020-3.
 53 53  0  0  1  0            999 V2000
   17.4910   -6.0820   12.8190 N   0  3  0  0  0  0
   17.9170   -6.6820   11.5350 C   0  0  2  0  0  0
   19.0640   -5.8790   10.9580 C   0  0  0  0  0  0
   19.3230   -4.7680   11.3980 O   0  0  0  0  0  0
   16.7510   -6.7180   10.5660 C   0  0  0  0  0  0
   15.6270   -7.6220   11.0200 C   0  0  0  0  0  0
   14.3150   -7.1610   11.0520 C   0  0  0  0  0  0
   15.8800   -8.9170   11.4350 C   0  0  0  0  0  0
   13.2790   -7.9880   11.4450 C   0  0  0  0  0  0
   14.8490   -9.7540   11.8410 C   0  0  0  0  0  0
   13.5510   -9.2740   11.8530 C   0  0  0  0  0  0
   12.4990  -10.0920   12.2120 O   0  0  0  0  0  0
   19.7530   -6.4510    9.9770 N   0  0  0  0  0  0
   20.9140   -5.8140    9.3560 C   0  0  2  0  0  0
   20.5550   -4.9100    8.2100 C   0  0  0  0  0  0
   19.7180   -5.2330    7.3860 O   0  0  0  0  0  0
   21.8730   -6.8660    8.8190 C   0  0  0  0  0  0
   22.8980   -7.2310    9.8640 C   0  0  0  0  0  0
   22.1440   -7.5820   11.0760 C   0  0  0  0  0  0
   23.8450   -8.3530    9.4060 C   0  0  0  0  0  0
   21.2540   -3.7830    8.1570 N   0  0  0  0  0  0
   21.1510   -2.8140    7.0640 C   0  0  2  0  0  0
   19.8980   -1.9510    7.1630 C   0  0  0  0  0  0
   19.5551   -1.4367    8.2610 O   0  0  0  0  0  0
   21.2130   -3.5140    5.7140 C   0  0  0  0  0  0
   19.1974   -1.7498    6.1352 O   0  5  0  0  0  0
   18.3431   -6.0605   13.5143 H   0  0  0  0  0  0
   16.6786   -6.6834   13.2531 H   0  0  0  0  0  0
   17.1346   -5.0562   12.6440 H   0  0  0  0  0  0
   18.2520   -7.7110   11.7322 H   0  0  0  0  0  0
   16.3374   -5.7051   10.4523 H   0  0  0  0  0  0
   17.0978   -7.0843    9.5885 H   0  0  0  0  0  0
   14.1004   -6.1322   10.7629 H   0  0  0  0  0  0
   16.9054   -9.2865   11.4435 H   0  0  0  0  0  0
   12.2519   -7.6233   11.4318 H   0  0  0  0  0  0
   15.0599  -10.7787   12.1471 H   0  0  0  0  0  0
   11.4723   -9.6973   12.2171 H   0  0  0  0  0  0
   19.4202   -7.4418    9.6340 H   0  0  0  0  0  0
   21.3441   -5.2122   10.1702 H   0  0  0  0  0  0
   21.3090   -7.7688    8.5417 H   0  0  0  0  0  0
   22.3917   -6.4712    7.9330 H   0  0  0  0  0  0
   23.5444   -6.3702   10.0901 H   0  0  0  0  0  0
   21.4867   -6.7450   11.3542 H   0  0  0  0  0  0
   22.8457   -7.7861   11.8981 H   0  0  0  0  0  0
   21.5353   -8.4776   10.8826 H   0  0  0  0  0  0
   24.3796   -8.0342    8.4990 H   0  0  0  0  0  0
   23.2611   -9.2594    9.1879 H   0  0  0  0  0  0
   24.5716   -8.5679   10.2035 H   0  0  0  0  0  0
   21.9403   -3.5950    8.9958 H   0  0  0  0  0  0
   22.0289   -2.1636    7.1915 H   0  0  0  0  0  0
   22.1225   -4.1306    5.6621 H   0  0  0  0  0  0
   21.2337   -2.7619    4.9116 H   0  0  0  0  0  0
   20.3277   -4.1554    5.5926 H   0  0  0  0  0  0
  1  2  1  0  0  0
  1 27  1  0  0  0
  1 28  1  0  0  0
  1 29  1  0  0  0
  2  3  1  0  0  0
  2  5  1  0  0  0
  2 30  1  0  0  0
  3  4  2  0  0  0
  3 13  1  0  0  0
  5  6  1  0  0  0
  5 31  1  0  0  0
  5 32  1  0  0  0
  6  7  2  0  0  0
  6  8  1  0  0  0
  7  9  1  0  0  0
  7 33  1  0  0  0
  8 10  2  0  0  0
  8 34  1  0  0  0
  9 11  2  0  0  0
  9 35  1  0  0  0
 10 11  1  0  0  0
 10 36  1  0  0  0
 11 12  1  0  0  0
 12 37  1  0  0  0
 13 14  1  0  0  0
 13 38  1  0  0  0
 14 15  1  0  0  0
 14 17  1  0  0  0
 14 39  1  0  0  0
 15 16  2  0  0  0
 15 21  1  0  0  0
 17 18  1  0  0  0
 17 40  1  0  0  0
 17 41  1  0  0  0
 18 19  1  0  0  0
 18 20  1  0  0  0
 18 42  1  0  0  0
 19 43  1  0  0  0
 19 44  1  0  0  0
 19 45  1  0  0  0
 20 46  1  0  0  0
 20 47  1  0  0  0
 20 48  1  0  0  0
 21 22  1  0  0  0
 21 49  1  0  0  0
 22 23  1  0  0  0
 22 25  1  0  0  0
 22 50  1  0  0  0
 23 24  2  0  0  0
 23 26  1  0  0  0
 25 51  1  0  0  0
 25 52  1  0  0  0
 25 53  1  0  0  0
M  CHG  2   1   1  26  -1
M  END
> <s_m_source_file>
../3dnj_ligand.sdf

> <i_m_source_file_index>
1

> <s_epik_input>
W2NIXTFbY0hdYyhbT0hdKVtjSF1bY0hdYzFbQ0gyXVtDQEhdKFtOSDMrXSlDKD1PKVtOSF1bQ0BASF0oW0NIMl1bQ0hdKFtDSDNdKVtDSDNdKUMoPU8pW05IXVtDQEBIXShbQ0gzXSlDKD1PKVtPSF0=

> <s_epik_cmdline>
J2VwaWtfYXBwJywgJy1pbWFlJywgJ2xpZ2FuZF9wcm8ubWFlJywgJy1vbWFlJywgJ2xpZ2FuZF9wcmVwLm1hZScsICctbXMnLCAnMScsICctcGgnLCAnNycsICctcGh0JywgJzAuNScsICctbnQn

> <r_lp_tautomer_probability>
0.999999999997365

> <r_epik_Ionization_Penalty>
  0.1996

> <r_epik_Ionization_Penalty_Charging>
  0.1969

> <r_epik_Ionization_Penalty_Neutral>
  0.0027

> <r_epik_State_Penalty>
  0.1865

> <r_epik_Charging_Adjusted_Penalty>
0.383401052033801

> <i_epik_Tot_Q>
0

> <i_epik_Tot_abs_Q>
2

$$$$
