3dnt_ligand
                    3D
 Schrodinger Suite 2020-3.
 43 45  0  0  1  0            999 V2000
   -4.4040   12.0620   48.3560 P   0  0  0  0  0  0
   -5.8210   11.6230   48.2870 O   0  5  0  0  0  0
   -3.5360   11.4430   47.3560 O   0  0  0  0  0  0
   -4.3480   13.5790   48.2820 O   0  5  0  0  0  0
   -2.9320   12.6450   50.8000 P   0  0  1  0  0  0
   -1.4770   12.6360   50.6150 O   0  5  0  0  0  0
   -3.8390   13.3630   51.6890 O   0  0  0  0  0  0
   -3.7160   11.5890   49.8090 O   0  0  0  0  0  0
   -3.3040   10.5290   53.0940 P   0  0  1  0  0  0
   -3.5970   11.2620   54.3700 O   0  5  0  0  0  0
   -4.4220    9.8050   52.5150 O   0  0  0  0  0  0
   -2.6170   11.4660   51.8690 O   0  0  0  0  0  0
   -2.0980    9.5820   53.4610 O   0  0  0  0  0  0
   -1.4020    8.7800   52.4690 C   0  0  0  0  0  0
   -1.6530    7.2860   52.6040 C   0  0  1  0  0  0
   -0.9880    6.7640   53.7870 O   0  0  0  0  0  0
   -3.1030    6.8060   52.7250 C   0  0  1  0  0  0
   -3.5620    6.5010   51.3910 O   0  0  0  0  0  0
   -3.0000    5.6310   53.6770 C   0  0  1  0  0  0
   -2.7460    4.4200   52.9960 O   0  0  0  0  0  0
   -1.8480    5.9300   54.5970 C   0  0  2  0  0  0
   -2.1270    6.6630   55.8760 N   0  0  0  0  0  0
   -2.5890    7.9540   56.1000 C   0  0  0  0  0  0
   -2.7000    8.2910   57.3520 N   0  0  0  0  0  0
   -2.2780    7.1350   58.0100 C   0  0  0  0  0  0
   -2.1270    6.8020   59.4060 C   0  0  0  0  0  0
   -2.4200    7.7100   60.3560 N   0  0  0  0  0  0
   -1.6740    5.5410   59.7580 N   0  0  0  0  0  0
   -1.3740    4.6250   58.7900 C   0  0  0  0  0  0
   -1.4680    4.8210   57.4230 N   0  0  0  0  0  0
   -1.9340    6.1260   57.1120 C   0  0  0  0  0  0
   -1.7297    9.0771   51.4618 H   0  0  0  0  0  0
   -0.3177    8.9394   52.5637 H   0  0  0  0  0  0
   -1.2262    6.8927   51.6696 H   0  0  0  0  0  0
   -3.8718    7.5088   53.0785 H   0  0  0  0  0  0
   -3.6612    7.3045   50.6463 H   0  0  0  0  0  0
   -3.9502    5.4392   54.1969 H   0  0  0  0  0  0
   -3.4786    4.0312   52.2734 H   0  0  0  0  0  0
   -1.4184    4.9759   54.9363 H   0  0  0  0  0  0
   -2.8401    8.6347   55.2866 H   0  0  0  0  0  0
   -2.7792    8.7094   60.0695 H   0  0  0  0  0  0
   -2.3001    7.4524   61.4187 H   0  0  0  0  0  0
   -1.0279    3.6475   59.1258 H   0  0  0  0  0  0
  1  2  1  0  0  0
  1  3  2  0  0  0
  1  4  1  0  0  0
  1  8  1  0  0  0
  5  6  1  0  0  0
  5  7  2  0  0  0
  5  8  1  0  0  0
  5 12  1  0  0  0
  9 10  1  0  0  0
  9 11  2  0  0  0
  9 12  1  0  0  0
  9 13  1  0  0  0
 13 14  1  0  0  0
 14 15  1  0  0  0
 14 32  1  0  0  0
 14 33  1  0  0  0
 15 16  1  0  0  0
 15 17  1  0  0  0
 15 34  1  0  0  0
 16 21  1  0  0  0
 17 18  1  0  0  0
 17 19  1  0  0  0
 17 35  1  0  0  0
 18 36  1  0  0  0
 19 20  1  0  0  0
 19 21  1  0  0  0
 19 37  1  0  0  0
 20 38  1  0  0  0
 21 22  1  0  0  0
 21 39  1  0  0  0
 22 23  1  0  0  0
 22 31  1  0  0  0
 23 24  2  0  0  0
 23 40  1  0  0  0
 24 25  1  0  0  0
 25 26  2  0  0  0
 25 31  1  0  0  0
 26 27  1  0  0  0
 26 28  1  0  0  0
 27 41  1  0  0  0
 27 42  1  0  0  0
 28 29  2  0  0  0
 29 30  1  0  0  0
 29 43  1  0  0  0
 30 31  2  0  0  0
M  CHG  4   2  -1   4  -1   6  -1  10  -1
M  END
> <s_m_source_file>
../3dnt_ligand.sdf

> <i_m_source_file_index>
1

> <s_epik_input>
W09IXVAoPU8pKFtPSF0pT1tQQF0oPU8pKFtPSF0pT1tQQF0oPU8pKFtPSF0pT1tDSDJdW0NASF0xT1tDQEhdKFtDQEhdKFtPSF0pW0NAQEhdMVtPSF0pbihbY0hdbjIpYyhjMjMpbltjSF1uYzNbTkgyXQ==

> <s_epik_cmdline>
J2VwaWtfYXBwJywgJy1pbWFlJywgJ2xpZ2FuZF9wcm8ubWFlJywgJy1vbWFlJywgJ2xpZ2FuZF9wcmVwLm1hZScsICctbXMnLCAnMScsICctcGgnLCAnNycsICctcGh0JywgJzAuNScsICctbnQn

> <r_lp_tautomer_probability>
0.999997216410988

> <r_epik_Ionization_Penalty>
  0.0818

> <r_epik_Ionization_Penalty_Charging>
  0.0813

> <r_epik_Ionization_Penalty_Neutral>
  0.0004

> <r_epik_State_Penalty>
  0.0708

> <r_epik_Charging_Adjusted_Penalty>
0.152157994418768

> <i_epik_Tot_Q>
-4

> <i_epik_Tot_abs_Q>
4

> <s_epik_Chemistry_Notes>
This compound contains an acetal/aminal-like group ( X-CH(R)-Y where X, Y are N, S, or O) that may be acid/base labile, releasing an aldehyde.

$$$$
