3dog_ligand
                    3D
 Schrodinger Suite 2020-3.
 53 55  0  0  1  0            999 V2000
  -33.6070  -17.9420  -35.2170 O   0  0  0  0  0  0
  -34.2530  -16.6810  -34.9680 C   0  0  0  0  0  0
  -34.7920  -16.5670  -33.5380 C   0  0  1  0  0  0
  -36.2790  -16.2500  -33.5680 C   0  0  0  0  0  0
  -36.6020  -15.2060  -32.5030 C   0  0  0  0  0  0
  -34.5710  -17.7550  -32.7310 N   0  0  0  0  0  0
  -34.1180  -17.6270  -31.4690 C   0  0  0  0  0  0
  -33.9410  -18.7270  -30.7090 N   0  0  0  0  0  0
  -33.4900  -18.6450  -29.4390 C   0  0  0  0  0  0
  -33.2090  -17.4470  -28.9460 N   0  0  0  0  0  0
  -32.7340  -17.1790  -27.6570 N   0  0  0  0  0  0
  -32.5930  -15.8270  -27.5670 C   0  0  0  0  0  0
  -32.9680  -15.3060  -28.7920 C   0  0  0  0  0  0
  -32.9700  -13.8590  -29.0910 C   0  0  0  0  0  0
  -32.2310  -13.5200  -30.3810 C   0  0  0  0  0  0
  -34.4000  -13.3540  -29.1270 C   0  0  0  0  0  0
  -33.3840  -16.3880  -29.6980 C   0  0  0  0  0  0
  -33.8310  -16.4100  -30.9650 N   0  3  0  0  0  0
  -33.3260  -19.7480  -28.6920 N   0  0  0  0  0  0
  -33.9150  -21.0080  -29.0920 C   0  0  0  0  0  0
  -32.8930  -21.7680  -29.8820 C   0  0  0  0  0  0
  -31.7590  -22.2440  -29.2490 C   0  0  0  0  0  0
  -30.8020  -22.9380  -29.9730 C   0  0  0  0  0  0
  -30.9800  -23.1490  -31.3360 C   0  0  0  0  0  0
  -32.1200  -22.6690  -31.9750 C   0  0  0  0  0  0
  -33.0800  -21.9720  -31.2400 C   0  0  0  0  0  0
  -33.1753  -18.1529  -36.2065 H   0  0  0  0  0  0
  -33.5337  -15.8635  -35.1239 H   0  0  0  0  0  0
  -35.1005  -16.5604  -35.6588 H   0  0  0  0  0  0
  -34.2156  -15.7861  -33.0203 H   0  0  0  0  0  0
  -36.5502  -15.8570  -34.5589 H   0  0  0  0  0  0
  -36.8534  -17.1664  -33.3673 H   0  0  0  0  0  0
  -37.6780  -14.9786  -32.5269 H   0  0  0  0  0  0
  -36.0288  -14.2887  -32.7031 H   0  0  0  0  0  0
  -36.3320  -15.5982  -31.5114 H   0  0  0  0  0  0
  -34.7735  -18.7511  -33.1515 H   0  0  0  0  0  0
  -32.2510  -15.2649  -26.6980 H   0  0  0  0  0  0
  -32.4192  -13.3769  -28.2699 H   0  0  0  0  0  0
  -31.1999  -13.8987  -30.3232 H   0  0  0  0  0  0
  -32.2137  -12.4287  -30.5177 H   0  0  0  0  0  0
  -32.7464  -13.9881  -31.2326 H   0  0  0  0  0  0
  -34.9044  -13.6138  -28.1846 H   0  0  0  0  0  0
  -34.9326  -13.8207  -29.9687 H   0  0  0  0  0  0
  -34.3999  -12.2613  -29.2538 H   0  0  0  0  0  0
  -32.7356  -19.6862  -27.7659 H   0  0  0  0  0  0
  -34.2037  -21.5783  -28.1968 H   0  0  0  0  0  0
  -34.8059  -20.8171  -29.7083 H   0  0  0  0  0  0
  -31.6180  -22.0735  -28.1817 H   0  0  0  0  0  0
  -29.9105  -23.3181  -29.4742 H   0  0  0  0  0  0
  -30.2252  -23.6914  -31.9054 H   0  0  0  0  0  0
  -32.2618  -22.8365  -33.0427 H   0  0  0  0  0  0
  -33.9740  -21.5893  -31.7324 H   0  0  0  0  0  0
  -33.9676  -15.5117  -31.5850 H   0  0  0  0  0  0
  1  2  1  0  0  0
  1 27  1  0  0  0
  2  3  1  0  0  0
  2 28  1  0  0  0
  2 29  1  0  0  0
  3  4  1  0  0  0
  3  6  1  0  0  0
  3 30  1  0  0  0
  4  5  1  0  0  0
  4 31  1  0  0  0
  4 32  1  0  0  0
  5 33  1  0  0  0
  5 34  1  0  0  0
  5 35  1  0  0  0
  6  7  1  0  0  0
  6 36  1  0  0  0
  7  8  1  0  0  0
  7 18  2  0  0  0
  8  9  2  0  0  0
  9 10  1  0  0  0
  9 19  1  0  0  0
 10 11  1  0  0  0
 10 17  1  0  0  0
 11 12  2  0  0  0
 12 13  1  0  0  0
 12 37  1  0  0  0
 13 14  1  0  0  0
 13 17  2  0  0  0
 14 15  1  0  0  0
 14 16  1  0  0  0
 14 38  1  0  0  0
 15 39  1  0  0  0
 15 40  1  0  0  0
 15 41  1  0  0  0
 16 42  1  0  0  0
 16 43  1  0  0  0
 16 44  1  0  0  0
 17 18  1  0  0  0
 18 53  1  0  0  0
 19 20  1  0  0  0
 19 45  1  0  0  0
 20 21  1  0  0  0
 20 46  1  0  0  0
 20 47  1  0  0  0
 21 22  2  0  0  0
 21 26  1  0  0  0
 22 23  1  0  0  0
 22 48  1  0  0  0
 23 24  2  0  0  0
 23 49  1  0  0  0
 24 25  1  0  0  0
 24 50  1  0  0  0
 25 26  2  0  0  0
 25 51  1  0  0  0
 26 52  1  0  0  0
M  CHG  1  18   1
M  END
> <s_m_source_file>
../3dog_ligand.sdf

> <i_m_source_file_index>
1

> <s_epik_input>
bjFbY0hdYyhbQ0hdKFtDSDNdKVtDSDNdKWMobjEyKW5jKFtOSF1bQ0BASF0oW0NIMl1bT0hdKVtDSDJdW0NIM10pbmMyW05IXVtDSDJdYzNbY0hdW2NIXVtjSF1bY0hdW2NIXTM=

> <s_epik_cmdline>
J2VwaWtfYXBwJywgJy1pbWFlJywgJ2xpZ2FuZF9wcm8ubWFlJywgJy1vbWFlJywgJ2xpZ2FuZF9wcmVwLm1hZScsICctbXMnLCAnMScsICctcGgnLCAnNycsICctcGh0JywgJzAuNScsICctbnQn

> <r_epik_Ionization_Penalty>
  0.2767

> <r_epik_Ionization_Penalty_Charging>
  0.2766

> <r_epik_Ionization_Penalty_Neutral>
  0.0001

> <r_epik_State_Penalty>
  0.2689

> <r_epik_Charging_Adjusted_Penalty>
0.545504398503393

> <i_epik_Tot_Q>
1

> <i_epik_Tot_abs_Q>
1

$$$$
