3dow_ligand
                    3D
 Schrodinger Suite 2020-3.
120124  0  0  1  0            999 V2000
   -3.4180    5.2640   31.8160 N   0  3  0  0  0  0
   -3.2670    6.2450   30.7470 C   0  0  2  0  0  0
   -2.7380    7.5610   31.3140 C   0  0  0  0  0  0
   -1.8280    8.1680   30.7500 O   0  0  0  0  0  0
   -4.6080    6.4720   30.0470 C   0  0  0  0  0  0
   -4.4520    7.0830   28.6670 C   0  0  0  0  0  0
   -3.3510    6.9810   28.0830 O   0  5  0  0  0  0
   -5.4380    7.6580   28.1630 O   0  0  0  0  0  0
   -3.3120    7.9930   32.4330 N   0  0  0  0  0  0
   -2.8660    9.2070   33.1050 C   0  0  2  0  0  0
   -1.7120    8.9140   34.0520 C   0  0  0  0  0  0
   -1.7460    7.9500   34.8150 O   0  0  0  0  0  0
   -4.0070    9.8370   33.9040 C   0  0  0  0  0  0
   -5.1000   10.4170   33.0710 C   0  0  0  0  0  0
   -6.2080    9.7690   32.6110 C   0  0  0  0  0  0
   -5.2070   11.7640   32.6070 C   0  0  0  0  0  0
   -6.9940   10.6260   31.8850 N   0  3  0  0  0  0
   -6.3950   11.8700   31.8670 C   0  0  0  0  0  0
   -4.4020   12.9060   32.7450 C   0  0  0  0  0  0
   -6.8120   13.0490   31.2630 C   0  0  0  0  0  0
   -4.8120   14.0830   32.1460 C   0  0  0  0  0  0
   -6.0060   14.1460   31.4140 C   0  0  0  0  0  0
   -0.6950    9.7640   34.0060 N   0  0  0  0  0  0
    0.4420    9.6470   34.9040 C   0  0  2  0  0  0
    0.2650   10.6210   36.0660 C   0  0  0  0  0  0
    0.0470   11.8110   35.8590 O   0  0  0  0  0  0
    1.7360    9.9470   34.1440 C   0  0  0  0  0  0
    2.9510    9.2870   34.7690 C   0  0  0  0  0  0
    3.1490    9.4240   35.9960 O   0  5  0  0  0  0
    3.7140    8.6340   34.0250 O   0  0  0  0  0  0
    0.3490   10.1110   37.2880 N   0  0  0  0  0  0
    0.1920   10.9470   38.4720 C   0  0  2  0  0  0
    1.5210   11.5940   38.8410 C   0  0  0  0  0  0
    2.5540   10.9290   38.8850 O   0  0  0  0  0  0
   -0.3530   10.1180   39.6330 C   0  0  0  0  0  0
   -1.7230    9.5580   39.3770 C   0  0  0  0  0  0
   -1.9050    8.5270   38.4680 C   0  0  0  0  0  0
   -2.8290   10.0680   40.0360 C   0  0  0  0  0  0
   -3.1640    8.0120   38.2230 C   0  0  0  0  0  0
   -4.0910    9.5570   39.7970 C   0  0  0  0  0  0
   -4.2590    8.5260   38.8880 C   0  0  0  0  0  0
    1.4870   12.8970   39.1020 N   0  0  0  0  0  0
    2.7060   13.6680   39.2990 C   0  0  2  0  0  0
    2.5490   14.6850   40.4260 C   0  0  0  0  0  0
    1.9230   15.7260   40.2370 O   0  0  0  0  0  0
    3.0610   14.4000   38.0040 C   0  0  0  0  0  0
    4.5380   14.7240   37.8010 C   0  0  0  0  0  0
    5.2790   13.4840   37.3370 C   0  0  0  0  0  0
    4.7030   15.8450   36.7970 C   0  0  0  0  0  0
    3.1230   14.3900   41.6060 N   0  0  0  0  0  0
    3.8450   13.1520   41.9190 C   0  0  2  0  0  0
    2.8820   11.9990   42.1540 C   0  0  0  0  0  0
    1.7200   12.2410   42.4820 O   0  0  0  0  0  0
    4.5830   13.4880   43.2260 C   0  0  0  0  0  0
    4.4340   14.9690   43.4180 C   0  0  0  0  0  0
    3.1690   15.3400   42.7270 C   0  0  0  0  0  0
    3.3570   10.7560   41.9910 N   0  0  0  0  0  0
    2.5120    9.5800   42.2250 C   0  0  2  0  0  0
    1.9120    9.5700   43.6310 C   0  0  0  0  0  0
    0.6990    9.3870   43.7570 O   0  0  0  0  0  0
    3.4850    8.4090   42.0440 C   0  0  0  0  0  0
    4.5640    8.9430   41.1650 C   0  0  0  0  0  0
    4.7090   10.3880   41.5380 C   0  0  0  0  0  0
    2.6120   10.0610   44.6520 N   0  0  0  0  0  0
   -2.4481    5.1094   32.3114 H   0  0  0  0  0  0
   -3.7695    4.3115   31.3926 H   0  0  0  0  0  0
   -4.1502    5.6314   32.5500 H   0  0  0  0  0  0
   -2.5394    5.8203   30.0398 H   0  0  0  0  0  0
   -5.1293    5.5102   29.9326 H   0  0  0  0  0  0
   -5.2254    7.1543   30.6497 H   0  0  0  0  0  0
   -4.1445    7.4075   32.8503 H   0  0  0  0  0  0
   -2.5381    9.8711   32.2917 H   0  0  0  0  0  0
   -4.4675    9.0744   34.5493 H   0  0  0  0  0  0
   -3.6118   10.6536   34.5261 H   0  0  0  0  0  0
   -6.3593    8.7047   32.8444 H   0  0  0  0  0  0
   -3.4725   12.8656   33.3129 H   0  0  0  0  0  0
   -7.7401   13.0991   30.6937 H   0  0  0  0  0  0
   -4.1963   14.9770   32.2447 H   0  0  0  0  0  0
   -6.2996   15.0898   30.9545 H   0  0  0  0  0  0
   -0.7276   10.5741   33.2626 H   0  0  0  0  0  0
    0.4569    8.6110   35.2734 H   0  0  0  0  0  0
    1.6481    9.5796   33.1109 H   0  0  0  0  0  0
    1.9116   11.0328   34.1332 H   0  0  0  0  0  0
    0.5415    9.0335   37.3971 H   0  0  0  0  0  0
   -0.5324   11.7307   38.2056 H   0  0  0  0  0  0
    0.3196    9.2690   39.8247 H   0  0  0  0  0  0
   -0.4167   10.7460   40.5339 H   0  0  0  0  0  0
   -1.0441    8.1173   37.9398 H   0  0  0  0  0  0
   -2.7031   10.8811   40.7509 H   0  0  0  0  0  0
   -3.2920    7.2012   37.5058 H   0  0  0  0  0  0
   -4.9534    9.9654   40.3238 H   0  0  0  0  0  0
   -5.2532    8.1214   38.6981 H   0  0  0  0  0  0
    0.5067   13.3916   39.1678 H   0  0  0  0  0  0
    3.4751   12.9312   39.5740 H   0  0  0  0  0  0
    2.7623   13.7856   37.1418 H   0  0  0  0  0  0
    2.5301   15.3628   37.9696 H   0  0  0  0  0  0
    4.9691   15.0585   38.7561 H   0  0  0  0  0  0
    5.1487   12.6806   38.0770 H   0  0  0  0  0  0
    6.3493   13.7147   37.2308 H   0  0  0  0  0  0
    4.8762   13.1577   36.3668 H   0  0  0  0  0  0
    4.1603   16.7349   37.1486 H   0  0  0  0  0  0
    4.2977   15.5288   35.8245 H   0  0  0  0  0  0
    5.7708   16.0858   36.6885 H   0  0  0  0  0  0
    4.4930   12.8639   41.0781 H   0  0  0  0  0  0
    4.1265   12.9320   44.0582 H   0  0  0  0  0  0
    5.6417   13.2044   43.1326 H   0  0  0  0  0  0
    4.3837   15.1961   44.4931 H   0  0  0  0  0  0
    5.2982   15.4851   42.9743 H   0  0  0  0  0  0
    3.1836   16.3681   42.3360 H   0  0  0  0  0  0
    2.2812   15.2016   43.3616 H   0  0  0  0  0  0
    1.6588    9.5835   41.5308 H   0  0  0  0  0  0
    3.8740    8.1005   43.0256 H   0  0  0  0  0  0
    2.9588    7.5639   41.5761 H   0  0  0  0  0  0
    5.4949    8.3863   41.3478 H   0  0  0  0  0  0
    4.2691    8.8284   40.1115 H   0  0  0  0  0  0
    4.9928   11.0174   40.6817 H   0  0  0  0  0  0
    5.4251   10.5411   42.3588 H   0  0  0  0  0  0
    3.6944   10.2271   44.5475 H   0  0  0  0  0  0
    2.1078   10.3005   45.5999 H   0  0  0  0  0  0
   -7.9311   10.2656   31.4356 H   0  0  0  0  0  0
  1  2  1  0  0  0
  1 65  1  0  0  0
  1 66  1  0  0  0
  1 67  1  0  0  0
  2  3  1  0  0  0
  2  5  1  0  0  0
  2 68  1  0  0  0
  3  4  2  0  0  0
  3  9  1  0  0  0
  5  6  1  0  0  0
  5 69  1  0  0  0
  5 70  1  0  0  0
  6  7  1  0  0  0
  6  8  2  0  0  0
  9 10  1  0  0  0
  9 71  1  0  0  0
 10 11  1  0  0  0
 10 13  1  0  0  0
 10 72  1  0  0  0
 11 12  2  0  0  0
 11 23  1  0  0  0
 13 14  1  0  0  0
 13 73  1  0  0  0
 13 74  1  0  0  0
 14 15  2  0  0  0
 14 16  1  0  0  0
 15 17  1  0  0  0
 15 75  1  0  0  0
 16 18  2  0  0  0
 16 19  1  0  0  0
 17 18  1  0  0  0
 17120  1  0  0  0
 18 20  1  0  0  0
 19 21  2  0  0  0
 19 76  1  0  0  0
 20 22  2  0  0  0
 20 77  1  0  0  0
 21 22  1  0  0  0
 21 78  1  0  0  0
 22 79  1  0  0  0
 23 24  1  0  0  0
 23 80  1  0  0  0
 24 25  1  0  0  0
 24 27  1  0  0  0
 24 81  1  0  0  0
 25 26  2  0  0  0
 25 31  1  0  0  0
 27 28  1  0  0  0
 27 82  1  0  0  0
 27 83  1  0  0  0
 28 29  1  0  0  0
 28 30  2  0  0  0
 31 32  1  0  0  0
 31 84  1  0  0  0
 32 33  1  0  0  0
 32 35  1  0  0  0
 32 85  1  0  0  0
 33 34  2  0  0  0
 33 42  1  0  0  0
 35 36  1  0  0  0
 35 86  1  0  0  0
 35 87  1  0  0  0
 36 37  2  0  0  0
 36 38  1  0  0  0
 37 39  1  0  0  0
 37 88  1  0  0  0
 38 40  2  0  0  0
 38 89  1  0  0  0
 39 41  2  0  0  0
 39 90  1  0  0  0
 40 41  1  0  0  0
 40 91  1  0  0  0
 41 92  1  0  0  0
 42 43  1  0  0  0
 42 93  1  0  0  0
 43 44  1  0  0  0
 43 46  1  0  0  0
 43 94  1  0  0  0
 44 45  2  0  0  0
 44 50  1  0  0  0
 46 47  1  0  0  0
 46 95  1  0  0  0
 46 96  1  0  0  0
 47 48  1  0  0  0
 47 49  1  0  0  0
 47 97  1  0  0  0
 48 98  1  0  0  0
 48 99  1  0  0  0
 48100  1  0  0  0
 49101  1  0  0  0
 49102  1  0  0  0
 49103  1  0  0  0
 50 51  1  0  0  0
 50 56  1  0  0  0
 51 52  1  0  0  0
 51 54  1  0  0  0
 51104  1  0  0  0
 52 53  2  0  0  0
 52 57  1  0  0  0
 54 55  1  0  0  0
 54105  1  0  0  0
 54106  1  0  0  0
 55 56  1  0  0  0
 55107  1  0  0  0
 55108  1  0  0  0
 56109  1  0  0  0
 56110  1  0  0  0
 57 58  1  0  0  0
 57 63  1  0  0  0
 58 59  1  0  0  0
 58 61  1  0  0  0
 58111  1  0  0  0
 59 60  2  0  0  0
 59 64  1  0  0  0
 61 62  1  0  0  0
 61112  1  0  0  0
 61113  1  0  0  0
 62 63  1  0  0  0
 62114  1  0  0  0
 62115  1  0  0  0
 63116  1  0  0  0
 63117  1  0  0  0
 64118  1  0  0  0
 64119  1  0  0  0
M  CHG  4   1   1   7  -1  17   1  29  -1
M  END
> <s_m_source_file>
../3dow_ligand.sdf

> <i_m_source_file_index>
1

> <s_epik_input>
W2NIXTFbY0hdW2NIXVtjSF1jKGMxMilbbkhdW2NIXWMyW0NIMl1bQ0BIXShbTkhdQyg9TylbQ0BASF0oW05IMytdKVtDSDJdQyg9TylbT0hdKUMoPU8pW05IXVtDQEBIXShbQ0gyXUMoPU8pW09IXSlDKD1PKVtOSF1bQ0BASF0oW0NIMl1jM1tjSF1bY0hdW2NIXVtjSF1bY0hdMylDKD1PKVtOSF1bQ0BASF0oW0NIMl1bQ0hdKFtDSDNdKVtDSDNdKUMoPU8pTjRbQ0BASF0oW0NIMl1bQ0gyXVtDSDJdNClDKD1PKU41W0NASF0oQyg9TylbTkgyXSlbQ0gyXVtDSDJdW0NIMl01

> <s_epik_cmdline>
J2VwaWtfYXBwJywgJy1pbWFlJywgJ2xpZ2FuZF9wcm8ubWFlJywgJy1vbWFlJywgJ2xpZ2FuZF9wcmVwLm1hZScsICctbXMnLCAnMScsICctcGgnLCAnNycsICctcGh0JywgJzAuNScsICctbnQn

> <r_epik_Ionization_Penalty>
  0.0221

> <r_epik_Ionization_Penalty_Charging>
  0.0221

> <r_epik_Ionization_Penalty_Neutral>
  0.0000

> <r_epik_State_Penalty>
  0.0167

> <r_epik_Charging_Adjusted_Penalty>
0.0388785052074494

> <i_epik_Tot_Q>
0

> <i_epik_Tot_abs_Q>
4

$$$$
