3doz_ligand
                    3D
 Schrodinger Suite 2020-3.
 30 31  0  0  1  0            999 V2000
  -18.6040   15.6990   11.8590 C   0  0  0  0  0  0
  -19.6890   14.8210   11.7800 C   0  0  0  0  0  0
  -21.4670   15.4180   11.6830 Br  0  0  0  0  0  0
  -19.4720   13.4600   11.7640 C   0  0  0  0  0  0
  -18.1770   12.9680   11.8280 C   0  0  0  0  0  0
  -17.0970   13.8390   11.9040 C   0  0  0  0  0  0
  -17.2960   15.2080   11.9060 C   0  0  0  0  0  0
  -16.0590   16.1150   12.0350 C   0  0  0  0  0  0
  -16.1250   17.1500   12.6890 O   0  0  0  0  0  0
  -14.9170   15.6440   11.5220 N   0  0  0  0  0  0
  -13.8580   16.2750   11.6140 N   0  0  0  0  0  0
  -13.8270   17.4360   12.2420 C   0  0  0  0  0  0
  -12.6790   18.1990   12.4750 C   0  0  0  0  0  0
  -11.3940   17.7520   12.1660 C   0  0  0  0  0  0
  -10.2830   18.5490   12.4560 C   0  0  0  0  0  0
   -8.5140   18.0030   12.0440 Br  0  0  0  0  0  0
  -10.4680   19.7830   13.0630 C   0  0  0  0  0  0
   -9.3980   20.5610   13.3480 O   0  5  0  0  0  0
  -11.7420   20.2280   13.3850 C   0  0  0  0  0  0
  -11.9700   21.9090   14.2180 Br  0  0  0  0  0  0
  -12.8400   19.4320   13.0940 C   0  0  0  0  0  0
  -14.0820   19.8630   13.4100 O   0  0  0  0  0  0
  -18.7792   16.7745   11.8841 H   0  0  0  0  0  0
  -20.3156   12.7726   11.7012 H   0  0  0  0  0  0
  -18.0053   11.8916   11.8186 H   0  0  0  0  0  0
  -16.0843   13.4401   11.9625 H   0  0  0  0  0  0
  -14.4563   18.1606   11.7044 H   0  0  0  0  0  0
  -14.2073   17.3091   13.2663 H   0  0  0  0  0  0
  -11.2560   16.7779   11.6968 H   0  0  0  0  0  0
  -14.9565   19.2360   13.1816 H   0  0  0  0  0  0
  1  2  2  0  0  0
  1  7  1  0  0  0
  1 23  1  0  0  0
  2  3  1  0  0  0
  2  4  1  0  0  0
  4  5  2  0  0  0
  4 24  1  0  0  0
  5  6  1  0  0  0
  5 25  1  0  0  0
  6  7  2  0  0  0
  6 26  1  0  0  0
  7  8  1  0  0  0
  8  9  2  0  0  0
  8 10  1  0  0  0
 10 11  2  0  0  0
 11 12  1  0  0  0
 12 13  1  0  0  0
 12 27  1  0  0  0
 12 28  1  0  0  0
 13 14  2  0  0  0
 13 21  1  0  0  0
 14 15  1  0  0  0
 14 29  1  0  0  0
 15 16  1  0  0  0
 15 17  2  0  0  0
 17 18  1  0  0  0
 17 19  1  0  0  0
 19 20  1  0  0  0
 19 21  2  0  0  0
 21 22  1  0  0  0
 22 30  1  0  0  0
M  CHG  1  18  -1
M  END
> <s_m_source_file>
../3doz_ligand.sdf

> <i_m_source_file_index>
1

> <s_epik_input>
QnJjMVtjSF1jKFtjSF1bY0hdW2NIXTEpQyg9TykvTj1OXFtDSDJdYzJbY0hdYyhCciljKFtPSF0pYyhCciljMltPSF0=

> <s_epik_cmdline>
J2VwaWtfYXBwJywgJy1pbWFlJywgJ2xpZ2FuZF9wcm8ubWFlJywgJy1vbWFlJywgJ2xpZ2FuZF9wcmVwLm1hZScsICctbXMnLCAnMScsICctcGgnLCAnNycsICctcGh0JywgJzAuNScsICctbnQn

> <r_lp_tautomer_probability>
1

> <r_epik_Ionization_Penalty>
  0.1785

> <r_epik_Ionization_Penalty_Charging>
  0.1719

> <r_epik_Ionization_Penalty_Neutral>
  0.0066

> <r_epik_State_Penalty>
 -0.0000

> <r_epik_Charging_Adjusted_Penalty>
0.17185434504728

> <i_epik_Tot_Q>
-1

> <i_epik_Tot_abs_Q>
1

$$$$
