3dp3_ligand
                    3D
 Schrodinger Suite 2020-3.
 42 43  0  0  1  0            999 V2000
  -21.4840   15.4610   11.9790 C   0  0  0  0  0  0
  -20.3780   14.5230   11.5300 C   0  0  0  0  0  0
  -20.5190   14.2380   10.0410 C   0  0  0  0  0  0
  -20.3990   13.2470   12.3480 C   0  0  0  0  0  0
  -19.0340   15.1800   11.7590 C   0  0  0  0  0  0
  -17.8800   14.4220   11.6830 C   0  0  0  0  0  0
  -16.6400   14.9980   11.8880 C   0  0  0  0  0  0
  -18.9650   16.5280   12.0410 C   0  0  0  0  0  0
  -17.7190   17.1060   12.2510 C   0  0  0  0  0  0
  -16.5620   16.3460   12.1740 C   0  0  0  0  0  0
  -15.2230   17.0320   12.4160 C   0  0  0  0  0  0
  -15.1730   17.9280   13.2530 O   0  0  0  0  0  0
  -14.1810   16.6030   11.6920 N   0  0  0  0  0  0
  -13.0750   17.1240   11.8340 N   0  0  0  0  0  0
  -12.9560   18.1170   12.6960 C   0  0  0  0  0  0
  -11.7680   18.7680   13.0040 C   0  0  0  0  0  0
  -10.5460   18.3060   12.5310 C   0  0  0  0  0  0
   -9.3770   18.9640   12.8760 C   0  0  0  0  0  0
   -7.7320   18.3260   12.2260 Br  0  0  0  0  0  0
   -9.4280   20.0830   13.6930 C   0  0  0  0  0  0
   -8.2870   20.7310   14.0320 O   0  5  0  0  0  0
  -10.6530   20.5480   14.1680 C   0  0  0  0  0  0
  -10.7640   22.0730   15.2830 Br  0  0  0  0  0  0
  -11.8180   19.8850   13.8230 C   0  0  0  0  0  0
  -13.0080   20.3430   14.2880 O   0  0  0  0  0  0
  -22.4605   14.9828   11.8123 H   0  0  0  0  0  0
  -21.4297   16.3952   11.4008 H   0  0  0  0  0  0
  -21.3632   15.6846   13.0492 H   0  0  0  0  0  0
  -21.4907   13.7592    9.8497 H   0  0  0  0  0  0
  -19.7096   13.5668    9.7179 H   0  0  0  0  0  0
  -20.4586   15.1821    9.4797 H   0  0  0  0  0  0
  -21.3639   12.7376   12.2081 H   0  0  0  0  0  0
  -20.2642   13.4913   13.4120 H   0  0  0  0  0  0
  -19.5841   12.5861   12.0175 H   0  0  0  0  0  0
  -17.9488   13.3575   11.4588 H   0  0  0  0  0  0
  -15.7345   14.3946   11.8245 H   0  0  0  0  0  0
  -19.8721   17.1297   12.0982 H   0  0  0  0  0  0
  -17.6504   18.1697   12.4790 H   0  0  0  0  0  0
  -13.5845   18.9601   12.3732 H   0  0  0  0  0  0
  -13.2791   17.7790   13.6917 H   0  0  0  0  0  0
  -10.5073   17.4262   11.8887 H   0  0  0  0  0  0
  -13.9399   19.8237   14.0200 H   0  0  0  0  0  0
  1  2  1  0  0  0
  1 26  1  0  0  0
  1 27  1  0  0  0
  1 28  1  0  0  0
  2  3  1  0  0  0
  2  4  1  0  0  0
  2  5  1  0  0  0
  3 29  1  0  0  0
  3 30  1  0  0  0
  3 31  1  0  0  0
  4 32  1  0  0  0
  4 33  1  0  0  0
  4 34  1  0  0  0
  5  6  2  0  0  0
  5  8  1  0  0  0
  6  7  1  0  0  0
  6 35  1  0  0  0
  7 10  2  0  0  0
  7 36  1  0  0  0
  8  9  2  0  0  0
  8 37  1  0  0  0
  9 10  1  0  0  0
  9 38  1  0  0  0
 10 11  1  0  0  0
 11 12  2  0  0  0
 11 13  1  0  0  0
 13 14  2  0  0  0
 14 15  1  0  0  0
 15 16  1  0  0  0
 15 39  1  0  0  0
 15 40  1  0  0  0
 16 17  2  0  0  0
 16 24  1  0  0  0
 17 18  1  0  0  0
 17 41  1  0  0  0
 18 19  1  0  0  0
 18 20  2  0  0  0
 20 21  1  0  0  0
 20 22  1  0  0  0
 22 23  1  0  0  0
 22 24  2  0  0  0
 24 25  1  0  0  0
 25 42  1  0  0  0
M  CHG  1  21  -1
M  END
> <s_m_source_file>
../3dp3_ligand.sdf

> <i_m_source_file_index>
1

> <s_epik_input>
W0NIM11DKFtDSDNdKShbQ0gzXSljMVtjSF1bY0hdYyhbY0hdW2NIXTEpQyg9TykvTj1OXFtDSDJdYzJbY0hdYyhCciljKFtPSF0pYyhCciljMltPSF0=

> <s_epik_cmdline>
J2VwaWtfYXBwJywgJy1pbWFlJywgJ2xpZ2FuZF9wcm8ubWFlJywgJy1vbWFlJywgJ2xpZ2FuZF9wcmVwLm1hZScsICctbXMnLCAnMScsICctcGgnLCAnNycsICctcGh0JywgJzAuNScsICctbnQn

> <r_lp_tautomer_probability>
1

> <r_epik_Ionization_Penalty>
  0.1785

> <r_epik_Ionization_Penalty_Charging>
  0.1719

> <r_epik_Ionization_Penalty_Neutral>
  0.0066

> <r_epik_State_Penalty>
 -0.0000

> <r_epik_Charging_Adjusted_Penalty>
0.17185434504728

> <i_epik_Tot_Q>
-1

> <i_epik_Tot_abs_Q>
1

$$$$
