3dp9_ligand
                    3D
 Schrodinger Suite 2020-3.
 47 49  0  0  1  0            999 V2000
   -1.3210   -4.1280    5.2950 C   0  0  0  0  0  0
   -3.9340   -3.4640    4.5930 C   0  0  0  0  0  0
   -3.2350   -2.9140    5.7560 C   0  0  0  0  0  0
   -5.3260   -2.0460    5.6130 C   0  0  0  0  0  0
   -1.2630    2.0820    8.2140 O   0  0  0  0  0  0
   -1.2190    1.1140    7.1580 C   0  0  2  0  0  0
   -2.1170    1.5100    5.9920 C   0  0  1  0  0  0
   -1.6440    0.8960    4.6760 C   0  0  0  0  0  0
   -0.3930    1.8620    3.8830 S   0  0  0  0  0  0
   -1.3380    3.1080    3.0540 C   0  0  0  0  0  0
   -0.4020    4.1510    2.4530 C   0  0  0  0  0  0
   -1.1350    5.4570    2.1610 C   0  0  0  0  0  0
   -0.9770    5.8260    0.7040 C   0  0  0  0  0  0
   -3.4590    0.8790    6.3220 C   0  0  0  0  0  0
   -3.2550    0.1140    7.5710 N   0  0  2  0  0  0
   -1.8250   -0.1550    7.7090 C   0  0  0  0  0  0
   -3.9750   -1.1760    7.6470 C   0  0  0  0  0  0
   -5.1580   -2.9030    4.5550 N   0  0  0  0  0  0
   -3.1590   -4.4310    3.7900 C   0  0  0  0  0  0
   -3.6840   -5.0230    2.6890 N   0  0  0  0  0  0
   -1.9620   -3.2580    6.0820 N   0  0  0  0  0  0
   -4.1760   -1.9810    6.3960 C   0  0  3  0  0  0
   -1.8920   -4.6950    4.2040 N   0  0  0  0  0  0
   -0.2930   -4.3934    5.5416 H   0  0  0  0  0  0
   -6.2823   -1.5193    5.7477 H   0  0  0  0  0  0
   -0.8722    3.0966    8.0467 H   0  0  0  0  0  0
   -0.1629    1.0492    6.8571 H   0  0  0  0  0  0
   -2.1363    2.6033    5.8721 H   0  0  0  0  0  0
   -1.2271   -0.1039    4.8668 H   0  0  0  0  0  0
   -2.4947    0.8126    3.9836 H   0  0  0  0  0  0
   -1.9306    2.6452    2.2511 H   0  0  0  0  0  0
   -2.0126    3.5957    3.7731 H   0  0  0  0  0  0
    0.4152    4.3605    3.1589 H   0  0  0  0  0  0
    0.0167    3.7683    1.5106 H   0  0  0  0  0  0
   -2.2043    5.3362    2.3891 H   0  0  0  0  0  0
   -0.7155    6.2603    2.7846 H   0  0  0  0  0  0
   -1.5087    6.7681    0.5046 H   0  0  0  0  0  0
   -1.3980    5.0272    0.0757 H   0  0  0  0  0  0
    0.0908    5.9513    0.4712 H   0  0  0  0  0  0
   -4.2119    1.6692    6.4589 H   0  0  0  0  0  0
   -3.7663    0.2186    5.4977 H   0  0  0  0  0  0
   -1.4860   -1.0132    7.1103 H   0  0  0  0  0  0
   -1.5084   -0.2890    8.7539 H   0  0  0  0  0  0
   -3.4385   -1.8559    8.3252 H   0  0  0  0  0  0
   -4.9928   -1.0060    8.0279 H   0  0  0  0  0  0
   -4.7129   -4.7902    2.3772 H   0  0  0  0  0  0
   -3.0811   -5.7360    2.1076 H   0  0  0  0  0  0
  1 21  2  0  0  0
  1 23  1  0  0  0
  1 24  1  0  0  0
  2  3  2  0  0  0
  2 18  1  0  0  0
  2 19  1  0  0  0
  3 21  1  0  0  0
  3 22  1  0  0  0
  4 18  2  0  0  0
  4 22  1  0  0  0
  4 25  1  0  0  0
  5  6  1  0  0  0
  5 26  1  0  0  0
  6  7  1  0  0  0
  6 16  1  0  0  0
  6 27  1  0  0  0
  7  8  1  0  0  0
  7 14  1  0  0  0
  7 28  1  0  0  0
  8  9  1  0  0  0
  8 29  1  0  0  0
  8 30  1  0  0  0
  9 10  1  0  0  0
 10 11  1  0  0  0
 10 31  1  0  0  0
 10 32  1  0  0  0
 11 12  1  0  0  0
 11 33  1  0  0  0
 11 34  1  0  0  0
 12 13  1  0  0  0
 12 35  1  0  0  0
 12 36  1  0  0  0
 13 37  1  0  0  0
 13 38  1  0  0  0
 13 39  1  0  0  0
 14 15  1  0  0  0
 14 40  1  0  0  0
 14 41  1  0  0  0
 15 16  1  0  0  0
 15 17  1  0  0  0
 16 42  1  0  0  0
 16 43  1  0  0  0
 17 22  1  0  0  0
 17 44  1  0  0  0
 17 45  1  0  0  0
 19 20  1  0  0  0
 19 23  2  0  0  0
 20 46  1  0  0  0
 20 47  1  0  0  0
M  END
> <s_m_source_file>
../3dp9_ligand.sdf

> <i_m_source_file_index>
1

> <s_epik_input>
W05IMl1jMW5bY0hdbmMoYzEyKVtDSF0oW0NIXT1OMilbQ0gyXVtOQEBIK10oW0NIMl0zKVtDSDJdW0NAQEhdKFtDQEhdM1tPSF0pW0NIMl1TW0NIMl1bQ0gyXVtDSDJdW0NIM10=

> <s_epik_cmdline>
J2VwaWtfYXBwJywgJy1pbWFlJywgJ2xpZ2FuZF9wcm8ubWFlJywgJy1vbWFlJywgJ2xpZ2FuZF9wcmVwLm1hZScsICctbXMnLCAnMScsICctcGgnLCAnNycsICctcGh0JywgJzAuNScsICctbnQn

> <r_epik_Ionization_Penalty>
  0.0403

> <r_epik_Ionization_Penalty_Charging>
  0.0000

> <r_epik_Ionization_Penalty_Neutral>
  0.0403

> <r_epik_State_Penalty>
  0.0296

> <r_epik_Charging_Adjusted_Penalty>
0.0295800909866344

> <i_epik_Tot_Q>
0

> <i_epik_Tot_abs_Q>
0

> <s_epik_Chemistry_Notes>
This compound has an imine and may undergo hydrolysis.

$$$$
