3dpc_ligand
                    3D
 Schrodinger Suite 2020-3.
160162  0  0  1  0            999 V2000
   15.6630   16.9420  -14.9720 N   0  3  0  0  0  0
   15.5770   17.9510  -16.0200 C   0  0  2  0  0  0
   14.5030   18.9860  -15.7030 C   0  0  0  0  0  0
   14.5410   20.1080  -16.2070 O   0  0  0  0  0  0
   15.2910   17.2950  -17.3730 C   0  0  0  0  0  0
   16.4760   16.6020  -17.9700 C   0  0  0  0  0  0
   16.3960   15.8530  -19.1250 N   0  0  0  0  0  0
   17.7690   16.5440  -17.5730 C   0  0  0  0  0  0
   17.5890   15.3640  -19.4130 C   0  0  0  0  0  0
   18.4400   15.7680  -18.4870 N   0  0  0  0  0  0
   13.5480   18.6010  -14.8630 N   0  0  0  0  0  0
   13.2000   19.3880  -13.6860 C   0  0  2  0  0  0
   13.3520   18.5680  -12.4090 C   0  0  0  0  0  0
   12.7700   17.4910  -12.2790 O   0  0  0  0  0  0
   11.7820   19.9260  -13.8080 C   0  0  0  0  0  0
   14.1370   19.0850  -11.4700 N   0  0  0  0  0  0
   14.1040   18.6040  -10.0940 C   0  0  1  0  0  0
   14.5250   17.1260  -10.0020 C   0  0  1  0  0  0
   15.9510   17.0060  -10.0180 C   0  0  0  0  0  0
   13.9810   16.4960   -8.7280 O   0  0  0  0  0  0
   12.7660   15.6680   -8.4300 P   0  0  0  0  0  0
   12.6360   15.0120   -7.1080 O   0  0  0  0  0  0
   11.4620   16.5760   -8.6840 O   0  0  0  0  0  0
   12.6570   14.5370   -9.5680 O   0  0  0  0  0  0
   15.0110   19.4380   -9.1960 C   0  0  0  0  0  0
   15.9230   18.9120   -8.5580 O   0  0  0  0  0  0
   14.7550   20.7420   -9.1520 N   0  0  0  0  0  0
   14.3010   21.4790  -10.3350 C   0  0  2  0  0  0
   15.4480   21.7630  -11.2990 C   0  0  0  0  0  0
   16.5990   21.8680  -10.8740 O   0  0  0  0  0  0
   13.7740   22.7880   -9.7450 C   0  0  0  0  0  0
   14.5560   22.9710   -8.4930 C   0  0  0  0  0  0
   14.7870   21.5910   -7.9480 C   0  0  0  0  0  0
   15.1310   21.8850  -12.5840 N   0  0  0  0  0  0
   16.1520   22.1070  -13.6120 C   0  0  2  0  0  0
   17.0090   23.3300  -13.3050 C   0  0  0  0  0  0
   16.7100   24.0730  -12.3700 O   0  0  0  0  0  0
   15.3240   22.3480  -14.8750 C   0  0  0  0  0  0
   14.0420   22.9120  -14.3740 C   0  0  0  0  0  0
   13.7800   22.2340  -13.0590 C   0  0  0  0  0  0
   18.0620   23.5330  -14.0900 N   0  0  0  0  0  0
   18.4200   24.8650  -14.5630 C   0  0  2  0  0  0
   18.0780   25.0360  -16.0390 C   0  0  0  0  0  0
   17.9820   24.0590  -16.7810 O   0  0  0  0  0  0
   19.9090   25.1330  -14.3340 C   0  0  0  0  0  0
   20.7660   23.8790  -14.2940 C   0  0  0  0  0  0
   21.2680   23.5080  -15.6800 C   0  0  0  0  0  0
   21.6540   22.0400  -15.7530 C   0  0  0  0  0  0
   22.6570   21.7830  -16.8230 N   0  3  0  0  0  0
   17.8960   26.2840  -16.4590 N   0  0  0  0  0  0
   16.9770   26.6000  -17.5460 C   0  0  2  0  0  0
   15.5640   26.1190  -17.2320 C   0  0  0  0  0  0
   15.0230   26.4080  -16.1650 O   0  0  0  0  0  0
   17.4650   25.9800  -18.8570 C   0  0  0  0  0  0
   18.1370   26.9660  -19.7980 C   0  0  0  0  0  0
   19.2130   27.7670  -19.0830 C   0  0  0  0  0  0
   18.7520   29.1890  -18.8090 C   0  0  0  0  0  0
   19.8260   30.1830  -19.0830 N   0  3  0  0  0  0
   14.9730   25.3850  -18.1690 N   0  0  0  0  0  0
   13.5310   25.1700  -18.1770 C   0  0  2  0  0  0
   12.7760   26.4890  -18.0540 C   0  0  0  0  0  0
   12.1440   26.7610  -17.0340 O   0  0  0  0  0  0
   13.1240   24.2240  -17.0450 C   0  0  0  0  0  0
   11.6980   24.4200  -16.5550 C   0  0  0  0  0  0
   11.6260   24.6930  -15.0660 C   0  0  0  0  0  0
   11.3520   23.7460  -14.2980 O   0  0  0  0  0  0
   11.8430   25.8550  -14.6620 O   0  0  0  0  0  0
   12.8470   27.3050  -19.1010 N   0  0  0  0  0  0
   12.8360   28.7550  -18.9450 C   0  0  2  0  0  0
   12.2900   29.4390  -20.1930 C   0  0  0  0  0  0
   12.0560   28.7940  -21.2150 O   0  0  0  0  0  0
   14.2330   29.2640  -18.6260 C   0  0  0  0  0  0
   12.0890   30.7500  -20.1030 N   0  0  0  0  0  0
   12.6490   31.6800  -21.0770 C   0  0  2  0  0  0
   13.8410   31.0660  -21.8040 C   0  0  0  0  0  0
   14.4550   31.7040  -22.6590 O   0  0  0  0  0  0
   13.0640   32.9850  -20.3950 C   0  0  0  0  0  0
   14.5230   33.3250  -20.6270 C   0  0  0  0  0  0
   15.3950   32.5830  -20.1260 O   0  0  0  0  0  0
   14.7990   34.3330  -21.3100 O   0  0  0  0  0  0
   14.2210   29.9190  -21.4950 O   0  0  0  0  0  0
   15.8686   17.4309  -14.0083 H   0  0  0  0  0  0
   16.4749   16.2379  -15.2066 H   0  0  0  0  0  0
   14.7103   16.3956  -14.9101 H   0  0  0  0  0  0
   16.5630   18.4386  -16.0293 H   0  0  0  0  0  0
   14.4974   16.5424  -17.2551 H   0  0  0  0  0  0
   14.9651   18.0621  -18.0909 H   0  0  0  0  0  0
   18.3089   16.9784  -16.7187 H   0  0  0  0  0  0
   17.8301   14.7341  -20.2693 H   0  0  0  0  0  0
   13.0150   17.6622  -15.0742 H   0  0  0  0  0  0
   13.9166   20.2224  -13.6688 H   0  0  0  0  0  0
   11.6912   20.5138  -14.7333 H   0  0  0  0  0  0
   11.5574   20.5671  -12.9428 H   0  0  0  0  0  0
   11.0723   19.0860  -13.8361 H   0  0  0  0  0  0
   14.8242   19.8960  -11.7528 H   0  0  0  0  0  0
   13.0527   18.7299   -9.7958 H   0  0  0  0  0  0
   14.1752   16.5737  -10.8866 H   0  0  0  0  0  0
   16.3469   17.4607  -10.9381 H   0  0  0  0  0  0
   16.2298   15.9424   -9.9852 H   0  0  0  0  0  0
   16.3723   17.5226   -9.1430 H   0  0  0  0  0  0
   11.2653   17.4477   -8.0425 H   0  0  0  0  0  0
   13.4283   13.7563   -9.6432 H   0  0  0  0  0  0
   13.5598   20.8883  -10.8933 H   0  0  0  0  0  0
   13.9443   23.6069  -10.4594 H   0  0  0  0  0  0
   12.6963   22.6930   -9.5463 H   0  0  0  0  0  0
   15.5072   23.4724   -8.7248 H   0  0  0  0  0  0
   13.9794   23.5869   -7.7872 H   0  0  0  0  0  0
   13.9937   21.2744   -7.2549 H   0  0  0  0  0  0
   15.7655   21.4918   -7.4553 H   0  0  0  0  0  0
   16.8378   21.2484  -13.6618 H   0  0  0  0  0  0
   15.8544   23.0528  -15.5322 H   0  0  0  0  0  0
   15.1754   21.3948  -15.4035 H   0  0  0  0  0  0
   14.1446   23.9999  -14.2477 H   0  0  0  0  0  0
   13.2409   22.7008  -15.0976 H   0  0  0  0  0  0
   13.1822   21.3173  -13.1700 H   0  0  0  0  0  0
   13.2962   22.9013  -12.3305 H   0  0  0  0  0  0
   18.6697   22.6639  -14.3821 H   0  0  0  0  0  0
   17.8092   25.5563  -13.9638 H   0  0  0  0  0  0
   20.2971   25.7645  -15.1468 H   0  0  0  0  0  0
   20.0450   25.6488  -13.3720 H   0  0  0  0  0  0
   21.6349   24.0494  -13.6414 H   0  0  0  0  0  0
   20.1714   23.0409  -13.9015 H   0  0  0  0  0  0
   20.4766   23.6988  -16.4198 H   0  0  0  0  0  0
   22.1524   24.1148  -15.9243 H   0  0  0  0  0  0
   22.0874   21.7266  -14.7918 H   0  0  0  0  0  0
   20.7598   21.4359  -15.9664 H   0  0  0  0  0  0
   22.9075   20.7121  -16.8411 H   0  0  0  0  0  0
   23.5660   22.3689  -16.6218 H   0  0  0  0  0  0
   22.2384   22.0782  -17.7965 H   0  0  0  0  0  0
   18.4600   27.0884  -15.9643 H   0  0  0  0  0  0
   16.9816   27.6978  -17.6157 H   0  0  0  0  0  0
   18.1987   25.1902  -18.6383 H   0  0  0  0  0  0
   16.6108   25.5472  -19.3983 H   0  0  0  0  0  0
   18.6035   26.4187  -20.6304 H   0  0  0  0  0  0
   17.3858   27.6651  -20.1941 H   0  0  0  0  0  0
   19.4517   27.2854  -18.1233 H   0  0  0  0  0  0
   20.1171   27.8065  -19.7083 H   0  0  0  0  0  0
   17.8913   29.4257  -19.4518 H   0  0  0  0  0  0
   18.4576   29.2820  -17.7532 H   0  0  0  0  0  0
   19.4510   31.1954  -18.8723 H   0  0  0  0  0  0
   20.1271   30.1158  -20.1389 H   0  0  0  0  0  0
   20.6934   29.9721  -18.4402 H   0  0  0  0  0  0
   15.6006   24.9345  -18.9521 H   0  0  0  0  0  0
   13.3143   24.7148  -19.1547 H   0  0  0  0  0  0
   13.2077   23.1827  -17.3894 H   0  0  0  0  0  0
   13.7873   24.3790  -16.1813 H   0  0  0  0  0  0
   11.2451   25.2755  -17.0775 H   0  0  0  0  0  0
   11.1116   23.5124  -16.7607 H   0  0  0  0  0  0
   11.2935   23.9171  -13.2130 H   0  0  0  0  0  0
   12.9154   26.8603  -20.1048 H   0  0  0  0  0  0
   12.1632   28.9556  -18.0982 H   0  0  0  0  0  0
   14.6098   28.7598  -17.7239 H   0  0  0  0  0  0
   14.1967   30.3494  -18.4514 H   0  0  0  0  0  0
   14.9029   29.0509  -19.4720 H   0  0  0  0  0  0
   11.4826   31.1283  -19.2669 H   0  0  0  0  0  0
   11.8379   31.8651  -21.7967 H   0  0  0  0  0  0
   12.4572   33.8136  -20.7889 H   0  0  0  0  0  0
   12.9057   32.8981  -19.3099 H   0  0  0  0  0  0
   16.4612   32.8065  -20.2787 H   0  0  0  0  0  0
   15.0795   29.4660  -22.0124 H   0  0  0  0  0  0
  1  2  1  0  0  0
  1 82  1  0  0  0
  1 83  1  0  0  0
  1 84  1  0  0  0
  2  3  1  0  0  0
  2  5  1  0  0  0
  2 85  1  0  0  0
  3  4  2  0  0  0
  3 11  1  0  0  0
  5  6  1  0  0  0
  5 86  1  0  0  0
  5 87  1  0  0  0
  6  7  2  0  0  0
  6  8  1  0  0  0
  7  9  1  0  0  0
  8 10  2  0  0  0
  8 88  1  0  0  0
  9 10  1  0  0  0
  9 89  1  0  0  0
 11 12  1  0  0  0
 11 90  1  0  0  0
 12 13  1  0  0  0
 12 15  1  0  0  0
 12 91  1  0  0  0
 13 14  2  0  0  0
 13 16  1  0  0  0
 15 92  1  0  0  0
 15 93  1  0  0  0
 15 94  1  0  0  0
 16 17  1  0  0  0
 16 95  1  0  0  0
 17 18  1  0  0  0
 17 25  1  0  0  0
 17 96  1  0  0  0
 18 19  1  0  0  0
 18 20  1  0  0  0
 18 97  1  0  0  0
 19 98  1  0  0  0
 19 99  1  0  0  0
 19100  1  0  0  0
 20 21  1  0  0  0
 21 22  2  0  0  0
 21 23  1  0  0  0
 21 24  1  0  0  0
 23101  1  0  0  0
 24102  1  0  0  0
 25 26  2  0  0  0
 25 27  1  0  0  0
 27 28  1  0  0  0
 27 33  1  0  0  0
 28 29  1  0  0  0
 28 31  1  0  0  0
 28103  1  0  0  0
 29 30  2  0  0  0
 29 34  1  0  0  0
 31 32  1  0  0  0
 31104  1  0  0  0
 31105  1  0  0  0
 32 33  1  0  0  0
 32106  1  0  0  0
 32107  1  0  0  0
 33108  1  0  0  0
 33109  1  0  0  0
 34 35  1  0  0  0
 34 40  1  0  0  0
 35 36  1  0  0  0
 35 38  1  0  0  0
 35110  1  0  0  0
 36 37  2  0  0  0
 36 41  1  0  0  0
 38 39  1  0  0  0
 38111  1  0  0  0
 38112  1  0  0  0
 39 40  1  0  0  0
 39113  1  0  0  0
 39114  1  0  0  0
 40115  1  0  0  0
 40116  1  0  0  0
 41 42  1  0  0  0
 41117  1  0  0  0
 42 43  1  0  0  0
 42 45  1  0  0  0
 42118  1  0  0  0
 43 44  2  0  0  0
 43 50  1  0  0  0
 45 46  1  0  0  0
 45119  1  0  0  0
 45120  1  0  0  0
 46 47  1  0  0  0
 46121  1  0  0  0
 46122  1  0  0  0
 47 48  1  0  0  0
 47123  1  0  0  0
 47124  1  0  0  0
 48 49  1  0  0  0
 48125  1  0  0  0
 48126  1  0  0  0
 49127  1  0  0  0
 49128  1  0  0  0
 49129  1  0  0  0
 50 51  1  0  0  0
 50130  1  0  0  0
 51 52  1  0  0  0
 51 54  1  0  0  0
 51131  1  0  0  0
 52 53  2  0  0  0
 52 59  1  0  0  0
 54 55  1  0  0  0
 54132  1  0  0  0
 54133  1  0  0  0
 55 56  1  0  0  0
 55134  1  0  0  0
 55135  1  0  0  0
 56 57  1  0  0  0
 56136  1  0  0  0
 56137  1  0  0  0
 57 58  1  0  0  0
 57138  1  0  0  0
 57139  1  0  0  0
 58140  1  0  0  0
 58141  1  0  0  0
 58142  1  0  0  0
 59 60  1  0  0  0
 59143  1  0  0  0
 60 61  1  0  0  0
 60 63  1  0  0  0
 60144  1  0  0  0
 61 62  2  0  0  0
 61 68  1  0  0  0
 63 64  1  0  0  0
 63145  1  0  0  0
 63146  1  0  0  0
 64 65  1  0  0  0
 64147  1  0  0  0
 64148  1  0  0  0
 65 66  1  0  0  0
 65 67  2  0  0  0
 66149  1  0  0  0
 68 69  1  0  0  0
 68150  1  0  0  0
 69 70  1  0  0  0
 69 72  1  0  0  0
 69151  1  0  0  0
 70 71  2  0  0  0
 70 73  1  0  0  0
 72152  1  0  0  0
 72153  1  0  0  0
 72154  1  0  0  0
 73 74  1  0  0  0
 73155  1  0  0  0
 74 75  1  0  0  0
 74 77  1  0  0  0
 74156  1  0  0  0
 75 76  2  0  0  0
 75 81  1  0  0  0
 77 78  1  0  0  0
 77157  1  0  0  0
 77158  1  0  0  0
 78 79  1  0  0  0
 78 80  2  0  0  0
 79159  1  0  0  0
 81160  1  0  0  0
M  CHG  3   1   1  49   1  58   1
M  END
> <s_m_source_file>
../3dpc_ligand.sdf

> <i_m_source_file_index>
1

> <s_epik_input>
W0NIXTE9TltDSDJdTj1DMVtDSDJdW0NASF0oW05IMytdKUMoPU8pW05IXVtDQEBIXShbQ0gzXSlDKD1PKVtOSF1bQ0BASF0oW0NAQEhdKFtDSDNdKU9QKD1PKShbT0hdKVtPSF0pQyg9TylOMltDQEBIXShbQ0gyXVtDSDJdW0NIMl0yKUMoPU8pTjNbQ0BASF0oW0NIMl1bQ0gyXVtDSDJdMylDKD1PKVtOSF1bQ0BASF0oW0NIMl1bQ0gyXVtDSDJdW0NIMl1bTkgzK10pQyg9TylbTkhdW0NAQEhdKFtDSDJdW0NIMl1bQ0gyXVtDSDJdW05IMytdKUMoPU8pW05IXVtDQEBIXShbQ0gyXVtDSDJdQyg9TylbT0hdKUMoPU8pW05IXVtDQEBIXShbQ0gzXSlDKD1PKVtOSF1bQ0BIXShDKD1PKVtPSF0pW0NIMl1DKD1PKVtPSF0=

> <s_epik_cmdline>
J2VwaWtfYXBwJywgJy1pbWFlJywgJ2xpZ2FuZF9wcm8ubWFlJywgJy1vbWFlJywgJ2xpZ2FuZF9wcmVwLm1hZScsICctbXMnLCAnMScsICctcGgnLCAnNycsICctcGh0JywgJzAuNScsICctbnQn

> <s_epik_pKa_notes>
Molecule size exceeds maximum supported for generating protonation states

> <s_epik_Chemistry_Notes>
This compound has an imine and may undergo hydrolysis.

$$$$
