3dpd_ligand
                    3D
 Schrodinger Suite 2020-3.
 36 38  0  0  1  0            999 V2000
   24.1900   63.5150   17.3780 C   0  0  0  0  0  0
   24.1550   63.1820   18.8730 C   0  0  0  0  0  0
   24.5710   64.4310   19.6530 C   0  0  0  0  0  0
   22.6950   62.7410   19.2510 C   0  0  0  0  0  0
   22.5850   61.9090   20.5080 C   0  0  0  0  0  0
   23.6610   61.2170   21.0160 C   0  0  0  0  0  0
   24.9960   61.2130   20.4380 C   0  0  0  0  0  0
   25.1700   62.0270   19.1610 C   0  0  0  0  0  0
   25.9150   60.5800   20.9300 O   0  0  0  0  0  0
   23.2060   60.3710   22.4610 S   0  0  0  0  0  0
   21.5800   61.0030   22.2570 C   0  0  0  0  0  0
   20.5900   60.6840   23.1420 N   0  0  0  0  0  0
   20.4760   59.2650   23.4940 C   0  0  0  0  0  0
   19.3790   59.0630   24.5280 C   0  0  0  0  0  0
   18.1390   59.6190   24.1170 O   0  0  0  0  0  0
   18.2640   61.0130   23.8510 C   0  0  0  0  0  0
   19.2750   61.2880   22.7640 C   0  0  0  0  0  0
   21.4160   61.7760   21.2090 N   0  0  0  0  0  0
   23.4786   64.3269   17.1665 H   0  0  0  0  0  0
   23.9119   62.6232   16.7971 H   0  0  0  0  0  0
   25.2046   63.8340   17.0971 H   0  0  0  0  0  0
   23.8578   65.2438   19.4511 H   0  0  0  0  0  0
   25.5786   64.7408   19.3388 H   0  0  0  0  0  0
   24.5756   64.2062   20.7298 H   0  0  0  0  0  0
   22.0715   63.6335   19.4081 H   0  0  0  0  0  0
   22.2716   62.1369   18.4350 H   0  0  0  0  0  0
   25.1257   61.2885   18.3470 H   0  0  0  0  0  0
   26.1873   62.4405   19.2259 H   0  0  0  0  0  0
   20.2318   58.6823   22.5935 H   0  0  0  0  0  0
   21.4311   58.9127   23.9108 H   0  0  0  0  0  0
   19.2290   57.9866   24.6979 H   0  0  0  0  0  0
   19.6715   59.5459   25.4721 H   0  0  0  0  0  0
   17.2918   61.4132   23.5275 H   0  0  0  0  0  0
   18.5889   61.5329   24.7643 H   0  0  0  0  0  0
   19.3929   62.3745   22.6392 H   0  0  0  0  0  0
   18.9266   60.8461   21.8188 H   0  0  0  0  0  0
  1  2  1  0  0  0
  1 19  1  0  0  0
  1 20  1  0  0  0
  1 21  1  0  0  0
  2  3  1  0  0  0
  2  4  1  0  0  0
  2  8  1  0  0  0
  3 22  1  0  0  0
  3 23  1  0  0  0
  3 24  1  0  0  0
  4  5  1  0  0  0
  4 25  1  0  0  0
  4 26  1  0  0  0
  5  6  2  0  0  0
  5 18  1  0  0  0
  6  7  1  0  0  0
  6 10  1  0  0  0
  7  8  1  0  0  0
  7  9  2  0  0  0
  8 27  1  0  0  0
  8 28  1  0  0  0
 10 11  1  0  0  0
 11 12  1  0  0  0
 11 18  2  0  0  0
 12 13  1  0  0  0
 12 17  1  0  0  0
 13 14  1  0  0  0
 13 29  1  0  0  0
 13 30  1  0  0  0
 14 15  1  0  0  0
 14 31  1  0  0  0
 14 32  1  0  0  0
 15 16  1  0  0  0
 16 17  1  0  0  0
 16 33  1  0  0  0
 16 34  1  0  0  0
 17 35  1  0  0  0
 17 36  1  0  0  0
M  END
> <s_m_source_file>
../3dpd_ligand.sdf

> <i_m_source_file_index>
1

> <s_epik_input>
W0NIM11DKFtDSDNdKShbQ0gyXTEpW0NIMl1DKD1PKWMoYzEyKXNjKG4yKU4zW0NIMl1bQ0gyXU9bQ0gyXVtDSDJdMw==

> <s_epik_cmdline>
J2VwaWtfYXBwJywgJy1pbWFlJywgJ2xpZ2FuZF9wcm8ubWFlJywgJy1vbWFlJywgJ2xpZ2FuZF9wcmVwLm1hZScsICctbXMnLCAnMScsICctcGgnLCAnNycsICctcGh0JywgJzAuNScsICctbnQn

> <r_lp_tautomer_probability>
1

> <r_epik_Ionization_Penalty>
  0.0000

> <r_epik_Ionization_Penalty_Charging>
  0.0000

> <r_epik_Ionization_Penalty_Neutral>
  0.0000

> <r_epik_State_Penalty>
 -0.0000

> <r_epik_Charging_Adjusted_Penalty>
0

> <i_epik_Tot_Q>
0

> <i_epik_Tot_abs_Q>
0

$$$$
