3dpf_ligand
                    3D
 Schrodinger Suite 2020-3.
 58 63  0  0  1  0            999 V2000
   14.4250   31.5970   19.1950 N   0  0  0  0  0  0
   13.6030   32.5630   18.7920 C   0  0  0  0  0  0
   13.5700   34.0500   18.9400 C   0  0  0  0  0  0
   14.3200   34.9200   19.5000 O   0  0  0  0  0  0
   12.2770   34.0960   18.2040 C   0  0  0  0  0  0
   11.4860   34.9530   17.8120 O   0  0  0  0  0  0
   12.4120   32.5790   18.0690 C   0  0  3  0  0  0
   11.6950   31.6480   17.4430 N   0  0  2  0  0  0
   10.2810   32.0410   17.3450 C   0  0  0  0  0  0
    9.6220   31.2170   16.2360 C   0  0  0  0  0  0
   11.7980   30.3360   18.1000 C   0  0  0  0  0  0
   11.0160   29.3360   17.2460 C   0  0  0  0  0  0
   11.3470   27.9880   17.3260 C   0  0  0  0  0  0
   10.0000   29.7430   16.3870 C   0  0  0  0  0  0
    9.3250   28.8000   15.6210 C   0  0  0  0  0  0
    9.6570   27.4510   15.7010 C   0  0  0  0  0  0
   10.6730   27.0460   16.5580 C   0  0  0  0  0  0
   11.0650   25.5700   16.6760 C   0  0  0  0  0  0
   10.3380   24.7390   15.7050 N   0  0  0  0  0  0
   10.6780   24.6720   14.4210 C   0  0  0  0  0  0
   11.5960   25.3120   13.9100 O   0  0  0  0  0  0
    9.8050   23.7350   13.5850 C   0  0  0  0  0  0
    8.8330   23.0350   14.1850 N   0  0  0  0  0  0
    8.0330   22.2130   13.4920 C   0  0  0  0  0  0
    6.7280   21.2280   13.9980 S   0  0  0  0  0  0
    6.3350   20.5850   12.4610 C   0  0  0  0  0  0
    5.2300   19.5690   12.1590 C   0  0  0  0  0  0
    4.8970   19.4910   10.3640 S   0  0  0  0  0  0
    4.2750   18.1710   10.0130 O   0  0  0  0  0  0
    3.9910   20.6210    9.9730 O   0  0  0  0  0  0
    6.5350   19.6650    9.5730 C   0  0  0  0  0  0
    7.2010   20.9640   10.0320 C   0  0  0  0  0  0
    7.2310   21.1560   11.5530 C   0  0  0  0  0  0
    8.1590   22.0360   12.1160 C   0  0  0  0  0  0
    9.1670   22.7510   11.4770 C   0  0  0  0  0  0
    9.3390   22.6390   10.2640 O   0  0  0  0  0  0
   10.0000   23.6080   12.2060 N   0  0  0  0  0  0
   14.2008   30.5476   18.9531 H   0  0  0  0  0  0
   11.8813   31.6866   17.7058 H   0  0  0  0  0  0
    9.7793   31.8472   18.3045 H   0  0  0  0  0  0
   10.2140   33.1126   17.1060 H   0  0  0  0  0  0
    8.5289   31.3196   16.3033 H   0  0  0  0  0  0
    9.9648   31.5806   15.2560 H   0  0  0  0  0  0
   12.8558   30.0417   18.1672 H   0  0  0  0  0  0
   11.3696   30.3977   19.1113 H   0  0  0  0  0  0
   12.1430   27.6668   17.9978 H   0  0  0  0  0  0
    8.5274   29.1204   14.9507 H   0  0  0  0  0  0
    9.1241   26.7175   15.0959 H   0  0  0  0  0  0
   12.1434   25.4609   16.4884 H   0  0  0  0  0  0
   10.8304   25.2081   17.6879 H   0  0  0  0  0  0
    9.4749   24.1401   16.0310 H   0  0  0  0  0  0
    5.5427   18.5731   12.5061 H   0  0  0  0  0  0
    4.3072   19.8654   12.6791 H   0  0  0  0  0  0
    7.1707   18.8126    9.8548 H   0  0  0  0  0  0
    6.4139   19.6864    8.4799 H   0  0  0  0  0  0
    8.2447   20.9834    9.6851 H   0  0  0  0  0  0
    6.6585   21.8231    9.6104 H   0  0  0  0  0  0
   10.7992   24.1773   11.7088 H   0  0  0  0  0  0
  1  2  2  0  0  0
  1 38  1  0  0  0
  2  3  1  0  0  0
  2  7  1  0  0  0
  3  4  2  0  0  0
  3  5  1  0  0  0
  5  6  2  0  0  0
  5  7  1  0  0  0
  7  8  1  0  0  0
  7 39  1  0  0  0
  8  9  1  0  0  0
  8 11  1  0  0  0
  9 10  1  0  0  0
  9 40  1  0  0  0
  9 41  1  0  0  0
 10 14  1  0  0  0
 10 42  1  0  0  0
 10 43  1  0  0  0
 11 12  1  0  0  0
 11 44  1  0  0  0
 11 45  1  0  0  0
 12 13  2  0  0  0
 12 14  1  0  0  0
 13 17  1  0  0  0
 13 46  1  0  0  0
 14 15  2  0  0  0
 15 16  1  0  0  0
 15 47  1  0  0  0
 16 17  2  0  0  0
 16 48  1  0  0  0
 17 18  1  0  0  0
 18 19  1  0  0  0
 18 49  1  0  0  0
 18 50  1  0  0  0
 19 20  1  0  0  0
 19 51  1  0  0  0
 20 21  2  0  0  0
 20 22  1  0  0  0
 22 23  2  0  0  0
 22 37  1  0  0  0
 23 24  1  0  0  0
 24 25  1  0  0  0
 24 34  2  0  0  0
 25 26  1  0  0  0
 26 27  1  0  0  0
 26 33  2  0  0  0
 27 28  1  0  0  0
 27 52  1  0  0  0
 27 53  1  0  0  0
 28 29  2  0  0  0
 28 30  2  0  0  0
 28 31  1  0  0  0
 31 32  1  0  0  0
 31 54  1  0  0  0
 31 55  1  0  0  0
 32 33  1  0  0  0
 32 56  1  0  0  0
 32 57  1  0  0  0
 33 34  1  0  0  0
 34 35  1  0  0  0
 35 36  2  0  0  0
 35 37  1  0  0  0
 37 58  1  0  0  0
M  END
> <s_m_source_file>
../3dpf_ligand.sdf

> <i_m_source_file_index>
1

> <s_epik_input>
W0hdL049QzEvQyg9TylDKD1PKVtDSF0xW05AQEgrXShbQ0gyXTIpW0NIMl1bQ0gyXWMoYzIzKVtjSF1bY0hdYyhbY0hdMylbQ0gyXVtOSF1DKD1PKWMobjQpW25IXWMoPU8pYyhjNDUpYzZjKHM1KVtDSDJdUyg9TykoPU8pW0NIMl1bQ0gyXTY=

> <s_epik_cmdline>
J2VwaWtfYXBwJywgJy1pbWFlJywgJ2xpZ2FuZF9wcm8ubWFlJywgJy1vbWFlJywgJ2xpZ2FuZF9wcmVwLm1hZScsICctbXMnLCAnMScsICctcGgnLCAnNycsICctcGh0JywgJzAuNScsICctbnQn

> <r_epik_Ionization_Penalty>
  0.0424

> <r_epik_Ionization_Penalty_Charging>
  0.0013

> <r_epik_Ionization_Penalty_Neutral>
  0.0412

> <r_epik_State_Penalty>
  0.0348

> <r_epik_Charging_Adjusted_Penalty>
0.0360962747277818

> <i_epik_Tot_Q>
0

> <i_epik_Tot_abs_Q>
0

> <s_epik_Chemistry_Notes>
This compound has an imine and may undergo hydrolysis.

$$$$
