3dpk_ligand
                    3D
 Schrodinger Suite 2020-3.
 71 75  0  0  1  0            999 V2000
   10.5750   20.2780    3.8290 C   0  0  0  0  0  0
    9.1840   20.5580    4.0830 O   0  0  0  0  0  0
    8.9300   21.7140    4.8030 N   0  0  0  0  0  0
    8.1400   22.7880    4.3020 C   0  0  0  0  0  0
    7.5770   22.7950    3.2110 O   0  0  0  0  0  0
    7.6990   23.8810    5.2840 C   0  0  0  0  0  0
    6.7760   24.8060    4.8920 C   0  0  0  0  0  0
    6.4820   25.9810    5.5640 N   0  0  0  0  0  0
    6.9230   26.1680    6.8980 C   0  0  0  0  0  0
    6.5840   27.2810    7.6170 N   0  0  0  0  0  0
    7.0810   27.3670    8.9570 C   0  0  0  0  0  0
    7.8780   26.4280    9.5120 N   0  0  0  0  0  0
    8.1700   25.3910    8.7230 C   0  0  0  0  0  0
    7.7440   25.1650    7.4200 C   0  0  0  0  0  0
    8.1500   23.9510    6.6790 C   0  0  0  0  0  0
    8.8680   23.0950    7.2350 O   0  0  0  0  0  0
    6.6640   28.5620    9.5580 N   0  0  0  0  0  0
    5.6360   29.5710    9.1820 C   0  0  0  0  0  0
    5.3710   29.9530    7.8660 C   0  0  0  0  0  0
    4.3530   30.8810    7.5520 C   0  0  0  0  0  0
    3.5530   31.5060    8.4990 C   0  0  0  0  0  0
    3.8150   31.1030    9.8170 C   0  0  0  0  0  0
    4.8140   30.1950   10.1520 C   0  0  0  0  0  0
    2.3450   32.3680    8.1220 C   0  0  0  0  0  0
    0.9960   31.5910    8.3420 C   0  0  0  0  0  0
   -0.2520   32.2860    7.8520 N   0  3  0  0  0  0
   -0.0410   33.1120    6.6340 C   0  0  0  0  0  0
   -1.4500   33.5850    6.2310 C   0  0  0  0  0  0
   -2.3920   32.5620    6.8390 C   0  0  0  0  0  0
   -1.4960   31.5320    7.5440 C   0  0  0  0  0  0
    5.8230   27.1630    4.8020 C   0  0  0  0  0  0
    6.7760   27.8110    3.7830 C   0  0  0  0  0  0
    6.1580   29.0520    3.1280 C   0  0  0  0  0  0
    4.9640   28.7180    2.2910 C   0  0  0  0  0  0
    3.9710   27.9820    3.1610 C   0  0  0  0  0  0
    4.5330   26.8310    4.0590 C   0  0  0  0  0  0
   10.6620   19.3441    3.2544 H   0  0  0  0  0  0
   11.1081   20.1712    4.7853 H   0  0  0  0  0  0
   11.0163   21.1051    3.2535 H   0  0  0  0  0  0
    9.3464   21.8350    5.8139 H   0  0  0  0  0  0
    6.2242   24.6037    3.9740 H   0  0  0  0  0  0
    8.8211   24.6300    9.1531 H   0  0  0  0  0  0
    7.1326   28.8995   10.4942 H   0  0  0  0  0  0
    5.9652   29.5240    7.0591 H   0  0  0  0  0  0
    4.1855   31.1209    6.5020 H   0  0  0  0  0  0
    3.2058   31.5220   10.6178 H   0  0  0  0  0  0
    4.9706   29.9540   11.2034 H   0  0  0  0  0  0
    2.3321   33.2740    8.7457 H   0  0  0  0  0  0
    2.4148   32.6536    7.0620 H   0  0  0  0  0  0
    1.0377   30.6271    7.8137 H   0  0  0  0  0  0
    0.8461   31.4136    9.4172 H   0  0  0  0  0  0
   -0.4446   32.8441    8.7801 H   0  0  0  0  0  0
    0.6199   33.9578    6.8746 H   0  0  0  0  0  0
    0.4225   32.4963    5.8491 H   0  0  0  0  0  0
   -1.6278   34.5928    6.6343 H   0  0  0  0  0  0
   -1.5287   33.6099    5.1341 H   0  0  0  0  0  0
   -3.0636   33.0609    7.5532 H   0  0  0  0  0  0
   -2.9876   32.0927    6.0421 H   0  0  0  0  0  0
   -1.2557   30.6783    6.8933 H   0  0  0  0  0  0
   -1.9437   31.1654    8.4795 H   0  0  0  0  0  0
    5.5628   27.8627    5.6099 H   0  0  0  0  0  0
    7.7031   28.1159    4.2904 H   0  0  0  0  0  0
    7.0132   27.0861    2.9903 H   0  0  0  0  0  0
    5.8395   29.7584    3.9087 H   0  0  0  0  0  0
    6.9041   29.5343    2.4794 H   0  0  0  0  0  0
    4.5154   29.6455    1.9055 H   0  0  0  0  0  0
    5.2732   28.0824    1.4482 H   0  0  0  0  0  0
    3.4933   28.6913    3.8528 H   0  0  0  0  0  0
    3.2032   27.5150    2.5267 H   0  0  0  0  0  0
    4.7028   25.9695    3.3965 H   0  0  0  0  0  0
    3.7444   26.5851    4.7854 H   0  0  0  0  0  0
  1  2  1  0  0  0
  1 37  1  0  0  0
  1 38  1  0  0  0
  1 39  1  0  0  0
  2  3  1  0  0  0
  3  4  1  0  0  0
  3 40  1  0  0  0
  4  5  2  0  0  0
  4  6  1  0  0  0
  6  7  2  0  0  0
  6 15  1  0  0  0
  7  8  1  0  0  0
  7 41  1  0  0  0
  8  9  1  0  0  0
  8 31  1  0  0  0
  9 10  2  0  0  0
  9 14  1  0  0  0
 10 11  1  0  0  0
 11 12  2  0  0  0
 11 17  1  0  0  0
 12 13  1  0  0  0
 13 14  2  0  0  0
 13 42  1  0  0  0
 14 15  1  0  0  0
 15 16  2  0  0  0
 17 18  1  0  0  0
 17 43  1  0  0  0
 18 19  2  0  0  0
 18 23  1  0  0  0
 19 20  1  0  0  0
 19 44  1  0  0  0
 20 21  2  0  0  0
 20 45  1  0  0  0
 21 22  1  0  0  0
 21 24  1  0  0  0
 22 23  2  0  0  0
 22 46  1  0  0  0
 23 47  1  0  0  0
 24 25  1  0  0  0
 24 48  1  0  0  0
 24 49  1  0  0  0
 25 26  1  0  0  0
 25 50  1  0  0  0
 25 51  1  0  0  0
 26 27  1  0  0  0
 26 30  1  0  0  0
 26 52  1  0  0  0
 27 28  1  0  0  0
 27 53  1  0  0  0
 27 54  1  0  0  0
 28 29  1  0  0  0
 28 55  1  0  0  0
 28 56  1  0  0  0
 29 30  1  0  0  0
 29 57  1  0  0  0
 29 58  1  0  0  0
 30 59  1  0  0  0
 30 60  1  0  0  0
 31 32  1  0  0  0
 31 36  1  0  0  0
 31 61  1  0  0  0
 32 33  1  0  0  0
 32 62  1  0  0  0
 32 63  1  0  0  0
 33 34  1  0  0  0
 33 64  1  0  0  0
 33 65  1  0  0  0
 34 35  1  0  0  0
 34 66  1  0  0  0
 34 67  1  0  0  0
 35 36  1  0  0  0
 35 68  1  0  0  0
 35 69  1  0  0  0
 36 70  1  0  0  0
 36 71  1  0  0  0
M  CHG  1  26   1
M  END
> <s_m_source_file>
../3dpk_ligand.sdf

> <i_m_source_file_index>
1

> <s_epik_input>
W0NIMl0xW0NIMl1bQ0gyXVtDSDJdW0NIMl1bQ0hdMW4yW2NIXWMoQyg9TylbTkhdT1tDSDNdKWMoPU8pYyhjMjMpW2NIXW5jKG4zKVtOSF1jNFtjSF1bY0hdYyhbY0hdW2NIXTQpW0NIMl1bQ0gyXVtOSCtdNVtDSDJdW0NIMl1bQ0gyXVtDSDJdNQ==

> <s_epik_cmdline>
J2VwaWtfYXBwJywgJy1pbWFlJywgJ2xpZ2FuZF9wcm8ubWFlJywgJy1vbWFlJywgJ2xpZ2FuZF9wcmVwLm1hZScsICctbXMnLCAnMScsICctcGgnLCAnNycsICctcGh0JywgJzAuNScsICctbnQn

> <r_lp_tautomer_probability>
1

> <r_epik_Ionization_Penalty>
  0.0008

> <r_epik_Ionization_Penalty_Charging>
  0.0008

> <r_epik_Ionization_Penalty_Neutral>
  0.0000

> <r_epik_State_Penalty>
 -0.0000

> <r_epik_Charging_Adjusted_Penalty>
0.000806519427878278

> <i_epik_Tot_Q>
1

> <i_epik_Tot_abs_Q>
1

> <s_epik_Chemistry_Notes>
This compound has an imine and may undergo hydrolysis. This compound has a N-S or N-O group and may undergo hydrolysis at high or low pH.

$$$$
