3dpo_ligand
                    3D
 Schrodinger Suite 2020-3.
175178  0  0  1  0            999 V2000
  -44.4590   27.1690  -23.6940 N   0  3  0  0  0  0
  -44.5560   28.2620  -24.7130 C   0  0  2  0  0  0
  -44.4260   29.6070  -24.0250 C   0  0  0  0  0  0
  -43.6470   30.4750  -24.4470 O   0  0  0  0  0  0
  -45.9000   28.2110  -25.4170 C   0  0  0  0  0  0
  -46.1120   29.3720  -26.3810 C   0  0  0  0  0  0
  -47.2690   29.0990  -27.3310 C   0  0  0  0  0  0
  -47.0000   27.8870  -28.1930 C   0  0  0  0  0  0
  -47.8970   27.8780  -29.3840 N   0  3  0  0  0  0
  -45.2350   29.7670  -22.9810 N   0  0  0  0  0  0
  -45.0890   30.9070  -22.0410 C   0  0  2  0  0  0
  -44.3230   30.4790  -20.8100 C   0  0  0  0  0  0
  -44.8570   29.8290  -19.9370 O   0  0  0  0  0  0
  -46.4470   31.5050  -21.6190 C   0  0  0  0  0  0
  -46.3580   32.7310  -20.6900 C   0  0  0  0  0  0
  -45.5000   33.8150  -21.3140 C   0  0  0  0  0  0
  -47.7540   33.2960  -20.3280 C   0  0  0  0  0  0
  -43.0660   30.8840  -20.7510 N   0  0  0  0  0  0
  -42.2040   30.5790  -19.6080 C   0  0  2  0  0  0
  -42.2700   31.6640  -18.5060 C   0  0  0  0  0  0
  -42.6440   32.8090  -18.7650 O   0  0  0  0  0  0
  -40.7610   30.3760  -20.0590 C   0  0  0  0  0  0
  -40.5620   29.0480  -20.7270 C   0  0  0  0  0  0
  -40.3400   27.9100  -19.9730 C   0  0  0  0  0  0
  -40.6090   28.9260  -22.1080 C   0  0  0  0  0  0
  -40.1560   26.6790  -20.5760 C   0  0  0  0  0  0
  -40.4320   27.7080  -22.7170 C   0  0  0  0  0  0
  -40.2130   26.5850  -21.9490 C   0  0  0  0  0  0
  -40.0240   25.3560  -22.5480 O   0  0  0  0  0  0
  -41.9310   31.1950  -17.2900 N   0  0  0  0  0  0
  -42.1840   32.0880  -16.1800 C   0  0  2  0  0  0
  -40.8660   32.4460  -15.5190 C   0  0  0  0  0  0
  -40.0000   31.5840  -15.4560 O   0  0  0  0  0  0
  -43.1040   31.4450  -15.1580 C   0  0  0  0  0  0
  -44.3910   30.9410  -15.7990 C   0  0  0  0  0  0
  -45.2620   30.4080  -14.6900 C   0  0  0  0  0  0
  -46.4760   29.7670  -15.3120 C   0  0  0  0  0  0
  -47.2960   30.8850  -15.9360 C   0  0  0  0  0  0
  -46.4390   31.5810  -16.9820 C   0  0  0  0  0  0
  -45.1760   32.1040  -16.3290 C   0  0  0  0  0  0
  -40.7900   33.5220  -14.8190 N   0  0  0  0  0  0
  -39.5650   34.1520  -14.2490 C   0  0  2  0  0  0
  -39.5970   34.2160  -12.7260 C   0  0  0  0  0  0
  -40.5750   34.6480  -12.1220 O   0  0  0  0  0  0
  -39.4040   35.5690  -14.7810 C   0  0  0  0  0  0
  -39.0190   35.7000  -16.2490 C   0  0  0  0  0  0
  -38.9830   37.1790  -16.6490 C   0  0  0  0  0  0
  -37.6910   35.0420  -16.4910 C   0  0  0  0  0  0
  -38.4970   33.8450  -12.0930 N   0  0  0  0  0  0
  -38.5370   34.0100  -10.6470 C   0  0  2  0  0  0
  -38.4680   35.4530  -10.1620 C   0  0  0  0  0  0
  -37.9740   36.3460  -10.8350 O   0  0  0  0  0  0
  -37.2950   33.2480  -10.1820 C   0  0  0  0  0  0
  -36.3300   33.3500  -11.3130 C   0  0  0  0  0  0
  -37.1610   33.4650  -12.5890 C   0  0  0  0  0  0
  -38.9700   35.6310   -8.9550 N   0  0  0  0  0  0
  -38.8170   36.8890   -8.2030 C   0  0  2  0  0  0
  -37.3750   37.0670   -7.7490 C   0  0  0  0  0  0
  -36.6280   36.0840   -7.6030 O   0  0  0  0  0  0
  -39.7360   36.9410   -6.9760 C   0  0  0  0  0  0
  -39.3810   35.9260   -5.8890 C   0  0  0  0  0  0
  -40.2850   36.0300   -4.6660 C   0  0  0  0  0  0
  -39.6630   36.8400   -3.6210 N   0  0  0  0  0  0
  -38.5480   36.5020   -2.9690 C   0  0  0  0  0  0
  -37.9190   35.3600   -3.2510 N   0  0  0  0  0  0
  -38.0540   37.3140   -2.0380 N   0  0  0  0  0  0
  -36.9670   38.3280   -7.5260 N   0  0  0  0  0  0
  -35.6090   38.5060   -7.0430 C   0  0  2  0  0  0
  -35.4480   38.1300   -5.5970 C   0  0  0  0  0  0
  -36.3920   38.1900   -4.8000 O   0  0  0  0  0  0
  -35.3330   40.0050   -7.2410 C   0  0  0  0  0  0
  -36.4640   40.5250   -8.0910 C   0  0  0  0  0  0
  -37.6150   39.6010   -7.8740 C   0  0  0  0  0  0
  -34.2250   37.7020   -5.3290 N   0  0  0  0  0  0
  -33.7110   37.3930   -3.9940 C   0  0  2  0  0  0
  -34.2740   36.0850   -3.4910 C   0  0  0  0  0  0
  -33.6550   35.0420   -3.6860 O   0  0  0  0  0  0
  -34.0120   38.4920   -2.9610 C   0  0  2  0  0  0
  -33.7340   39.7870   -3.5190 O   0  0  0  0  0  0
  -33.1410   38.2820   -1.7290 C   0  0  0  0  0  0
  -43.4807   27.2199  -23.1937 H   0  0  0  0  0  0
  -44.5663   26.1936  -24.1912 H   0  0  0  0  0  0
  -45.2588   27.2906  -22.9486 H   0  0  0  0  0  0
  -43.7448   28.1160  -25.4414 H   0  0  0  0  0  0
  -45.9757   27.2785  -25.9955 H   0  0  0  0  0  0
  -46.7068   28.2456  -24.6700 H   0  0  0  0  0  0
  -46.3360   30.2857  -25.8109 H   0  0  0  0  0  0
  -45.1998   29.5256  -26.9762 H   0  0  0  0  0  0
  -48.1854   28.9179  -26.7502 H   0  0  0  0  0  0
  -47.4171   29.9688  -27.9879 H   0  0  0  0  0  0
  -45.9548   27.9052  -28.5352 H   0  0  0  0  0  0
  -47.1780   26.9733  -27.6069 H   0  0  0  0  0  0
  -47.6846   26.9892  -29.9963 H   0  0  0  0  0  0
  -47.7224   28.7850  -29.9814 H   0  0  0  0  0  0
  -48.9457   27.8532  -29.0530 H   0  0  0  0  0  0
  -46.0303   29.0234  -22.8244 H   0  0  0  0  0  0
  -44.5141   31.6626  -22.5964 H   0  0  0  0  0  0
  -46.9997   31.8272  -22.5138 H   0  0  0  0  0  0
  -47.0316   30.7440  -21.0813 H   0  0  0  0  0  0
  -45.8692   32.4012  -19.7614 H   0  0  0  0  0  0
  -44.5125   33.4012  -21.5661 H   0  0  0  0  0  0
  -45.3792   34.6433  -20.6003 H   0  0  0  0  0  0
  -45.9861   34.1866  -22.2281 H   0  0  0  0  0  0
  -48.3657   32.5008  -19.8769 H   0  0  0  0  0  0
  -48.2473   33.6659  -21.2389 H   0  0  0  0  0  0
  -47.6404   34.1225  -19.6111 H   0  0  0  0  0  0
  -42.6725   31.4674  -21.5964 H   0  0  0  0  0  0
  -42.6132   29.6358  -19.2170 H   0  0  0  0  0  0
  -40.4861   31.1648  -20.7747 H   0  0  0  0  0  0
  -40.0937   30.4244  -19.1859 H   0  0  0  0  0  0
  -40.3096   27.9845  -18.8860 H   0  0  0  0  0  0
  -40.7892   29.8104  -22.7191 H   0  0  0  0  0  0
  -39.9678   25.7922  -19.9708 H   0  0  0  0  0  0
  -40.4646   27.6298  -23.8037 H   0  0  0  0  0  0
  -39.8496   24.4635  -21.9291 H   0  0  0  0  0  0
  -41.4885   30.2043  -17.1091 H   0  0  0  0  0  0
  -42.6735   32.9738  -16.6109 H   0  0  0  0  0  0
  -42.5923   30.5912  -14.6899 H   0  0  0  0  0  0
  -43.3671   32.1830  -14.3859 H   0  0  0  0  0  0
  -44.1531   30.2098  -16.5856 H   0  0  0  0  0  0
  -44.6989   29.6647  -14.1066 H   0  0  0  0  0  0
  -45.5664   31.2358  -14.0327 H   0  0  0  0  0  0
  -46.1573   29.0440  -16.0773 H   0  0  0  0  0  0
  -47.0548   29.2468  -14.5346 H   0  0  0  0  0  0
  -48.1952   30.4612  -16.4070 H   0  0  0  0  0  0
  -47.5936   31.6009  -15.1557 H   0  0  0  0  0  0
  -46.1742   30.8654  -17.7743 H   0  0  0  0  0  0
  -47.0017   32.4194  -17.4183 H   0  0  0  0  0  0
  -45.4360   32.7790  -15.5003 H   0  0  0  0  0  0
  -44.5708   32.6482  -17.0690 H   0  0  0  0  0  0
  -41.7740   33.9857  -14.6553 H   0  0  0  0  0  0
  -38.7336   33.5064  -14.5684 H   0  0  0  0  0  0
  -40.3533   36.1131  -14.6679 H   0  0  0  0  0  0
  -38.6154   36.0859  -14.2146 H   0  0  0  0  0  0
  -39.7592   35.1783  -16.8735 H   0  0  0  0  0  0
  -39.9668   37.6337  -16.4611 H   0  0  0  0  0  0
  -38.7380   37.2638  -17.7180 H   0  0  0  0  0  0
  -38.2183   37.7010  -16.0550 H   0  0  0  0  0  0
  -37.7468   33.9839  -16.1955 H   0  0  0  0  0  0
  -36.9169   35.5486  -15.8959 H   0  0  0  0  0  0
  -37.4366   35.1115  -17.5589 H   0  0  0  0  0  0
  -39.5090   33.6387  -10.2901 H   0  0  0  0  0  0
  -36.8989   33.7153   -9.2684 H   0  0  0  0  0  0
  -37.5637   32.2022   -9.9721 H   0  0  0  0  0  0
  -35.6975   34.2395  -11.1762 H   0  0  0  0  0  0
  -35.6974   32.4505  -11.3375 H   0  0  0  0  0  0
  -37.2294   32.5112  -13.1327 H   0  0  0  0  0  0
  -36.7851   34.2466  -13.2656 H   0  0  0  0  0  0
  -39.5225   34.7892   -8.5121 H   0  0  0  0  0  0
  -39.1008   37.6775   -8.9156 H   0  0  0  0  0  0
  -39.6801   37.9396   -6.5181 H   0  0  0  0  0  0
  -40.7718   36.7367   -7.2848 H   0  0  0  0  0  0
  -39.4778   34.9074   -6.2928 H   0  0  0  0  0  0
  -38.3456   36.0917   -5.5566 H   0  0  0  0  0  0
  -41.2383   36.4974   -4.9534 H   0  0  0  0  0  0
  -40.4763   35.0238   -4.2648 H   0  0  0  0  0  0
  -40.1153   37.7981   -3.3254 H   0  0  0  0  0  0
  -38.3230   34.6849   -4.0198 H   0  0  0  0  0  0
  -36.9963   35.0934   -2.7147 H   0  0  0  0  0  0
  -38.5686   38.2570   -1.8014 H   0  0  0  0  0  0
  -34.9448   37.8245   -7.5947 H   0  0  0  0  0  0
  -35.3081   40.5057   -6.2619 H   0  0  0  0  0  0
  -34.3638   40.1360   -7.7445 H   0  0  0  0  0  0
  -36.7169   41.5488   -7.7783 H   0  0  0  0  0  0
  -36.1568   40.5296   -9.1472 H   0  0  0  0  0  0
  -38.2229   39.4671   -8.7810 H   0  0  0  0  0  0
  -38.2610   39.9226   -7.0438 H   0  0  0  0  0  0
  -33.5762   37.5830   -6.2093 H   0  0  0  0  0  0
  -32.6253   37.3142   -4.1524 H   0  0  0  0  0  0
  -35.2330   36.0630   -2.9526 H   0  0  0  0  0  0
  -35.0797   38.5023   -2.6966 H   0  0  0  0  0  0
  -34.2680   40.1239   -4.4197 H   0  0  0  0  0  0
  -33.3493   37.2920   -1.2971 H   0  0  0  0  0  0
  -33.3642   39.0609   -0.9851 H   0  0  0  0  0  0
  -32.0806   38.3415   -2.0152 H   0  0  0  0  0  0
  1  2  1  0  0  0
  1 81  1  0  0  0
  1 82  1  0  0  0
  1 83  1  0  0  0
  2  3  1  0  0  0
  2  5  1  0  0  0
  2 84  1  0  0  0
  3  4  2  0  0  0
  3 10  1  0  0  0
  5  6  1  0  0  0
  5 85  1  0  0  0
  5 86  1  0  0  0
  6  7  1  0  0  0
  6 87  1  0  0  0
  6 88  1  0  0  0
  7  8  1  0  0  0
  7 89  1  0  0  0
  7 90  1  0  0  0
  8  9  1  0  0  0
  8 91  1  0  0  0
  8 92  1  0  0  0
  9 93  1  0  0  0
  9 94  1  0  0  0
  9 95  1  0  0  0
 10 11  1  0  0  0
 10 96  1  0  0  0
 11 12  1  0  0  0
 11 14  1  0  0  0
 11 97  1  0  0  0
 12 13  2  0  0  0
 12 18  1  0  0  0
 14 15  1  0  0  0
 14 98  1  0  0  0
 14 99  1  0  0  0
 15 16  1  0  0  0
 15 17  1  0  0  0
 15100  1  0  0  0
 16101  1  0  0  0
 16102  1  0  0  0
 16103  1  0  0  0
 17104  1  0  0  0
 17105  1  0  0  0
 17106  1  0  0  0
 18 19  1  0  0  0
 18107  1  0  0  0
 19 20  1  0  0  0
 19 22  1  0  0  0
 19108  1  0  0  0
 20 21  2  0  0  0
 20 30  1  0  0  0
 22 23  1  0  0  0
 22109  1  0  0  0
 22110  1  0  0  0
 23 24  2  0  0  0
 23 25  1  0  0  0
 24 26  1  0  0  0
 24111  1  0  0  0
 25 27  2  0  0  0
 25112  1  0  0  0
 26 28  2  0  0  0
 26113  1  0  0  0
 27 28  1  0  0  0
 27114  1  0  0  0
 28 29  1  0  0  0
 29115  1  0  0  0
 30 31  1  0  0  0
 30116  1  0  0  0
 31 32  1  0  0  0
 31 34  1  0  0  0
 31117  1  0  0  0
 32 33  2  0  0  0
 32 41  1  0  0  0
 34 35  1  0  0  0
 34118  1  0  0  0
 34119  1  0  0  0
 35 36  1  0  0  0
 35 40  1  0  0  0
 35120  1  0  0  0
 36 37  1  0  0  0
 36121  1  0  0  0
 36122  1  0  0  0
 37 38  1  0  0  0
 37123  1  0  0  0
 37124  1  0  0  0
 38 39  1  0  0  0
 38125  1  0  0  0
 38126  1  0  0  0
 39 40  1  0  0  0
 39127  1  0  0  0
 39128  1  0  0  0
 40129  1  0  0  0
 40130  1  0  0  0
 41 42  1  0  0  0
 41131  1  0  0  0
 42 43  1  0  0  0
 42 45  1  0  0  0
 42132  1  0  0  0
 43 44  2  0  0  0
 43 49  1  0  0  0
 45 46  1  0  0  0
 45133  1  0  0  0
 45134  1  0  0  0
 46 47  1  0  0  0
 46 48  1  0  0  0
 46135  1  0  0  0
 47136  1  0  0  0
 47137  1  0  0  0
 47138  1  0  0  0
 48139  1  0  0  0
 48140  1  0  0  0
 48141  1  0  0  0
 49 50  1  0  0  0
 49 55  1  0  0  0
 50 51  1  0  0  0
 50 53  1  0  0  0
 50142  1  0  0  0
 51 52  2  0  0  0
 51 56  1  0  0  0
 53 54  1  0  0  0
 53143  1  0  0  0
 53144  1  0  0  0
 54 55  1  0  0  0
 54145  1  0  0  0
 54146  1  0  0  0
 55147  1  0  0  0
 55148  1  0  0  0
 56 57  1  0  0  0
 56149  1  0  0  0
 57 58  1  0  0  0
 57 60  1  0  0  0
 57150  1  0  0  0
 58 59  2  0  0  0
 58 67  1  0  0  0
 60 61  1  0  0  0
 60151  1  0  0  0
 60152  1  0  0  0
 61 62  1  0  0  0
 61153  1  0  0  0
 61154  1  0  0  0
 62 63  1  0  0  0
 62155  1  0  0  0
 62156  1  0  0  0
 63 64  1  0  0  0
 63157  1  0  0  0
 64 65  1  0  0  0
 64 66  2  0  0  0
 65158  1  0  0  0
 65159  1  0  0  0
 66160  1  0  0  0
 67 68  1  0  0  0
 67 73  1  0  0  0
 68 69  1  0  0  0
 68 71  1  0  0  0
 68161  1  0  0  0
 69 70  2  0  0  0
 69 74  1  0  0  0
 71 72  1  0  0  0
 71162  1  0  0  0
 71163  1  0  0  0
 72 73  1  0  0  0
 72164  1  0  0  0
 72165  1  0  0  0
 73166  1  0  0  0
 73167  1  0  0  0
 74 75  1  0  0  0
 74168  1  0  0  0
 75 76  1  0  0  0
 75 78  1  0  0  0
 75169  1  0  0  0
 76 77  2  0  0  0
 76170  1  0  0  0
 78 79  1  0  0  0
 78 80  1  0  0  0
 78171  1  0  0  0
 79172  1  0  0  0
 80173  1  0  0  0
 80174  1  0  0  0
 80175  1  0  0  0
M  CHG  2   1   1   9   1
M  END
> <s_m_source_file>
../3dpo_ligand.sdf

> <i_m_source_file_index>
1

> <s_epik_input>
W05IMytdW0NIMl1bQ0gyXVtDSDJdW0NIMl1bQ0BIXShbTkgzK10pQyg9TylbTkhdW0NAQEhdKFtDSDJdW0NIXShbQ0gzXSlbQ0gzXSlDKD1PKVtOSF1bQ0BASF0oW0NIMl1jMVtjSF1bY0hdYyhbT0hdKVtjSF1bY0hdMSlDKD1PKVtOSF1bQ0BASF0oW0NIMl1bQ0hdMltDSDJdW0NIMl1bQ0gyXVtDSDJdW0NIMl0yKUMoPU8pW05IXVtDQEBIXShbQ0gyXVtDSF0oW0NIM10pW0NIM10pQyg9TylOM1tDQEBIXShbQ0gyXVtDSDJdW0NIMl0zKUMoPU8pW05IXVtDQEBIXShbQ0gyXVtDSDJdW0NIMl1bTkhdL0MoW05IMl0pPU5cW0hdKUMoPU8pTjRbQ0BASF0oW0NIMl1bQ0gyXVtDSDJdNClDKD1PKVtOSF1bQ0BIXShbQ0hdPU8pW0NASF0oW09IXSlbQ0gzXQ==

> <s_epik_cmdline>
J2VwaWtfYXBwJywgJy1pbWFlJywgJ2xpZ2FuZF9wcm8ubWFlJywgJy1vbWFlJywgJ2xpZ2FuZF9wcmVwLm1hZScsICctbXMnLCAnMScsICctcGgnLCAnNycsICctcGh0JywgJzAuNScsICctbnQn

> <s_epik_pKa_notes>
Molecule size exceeds maximum supported for generating protonation states

> <s_epik_Chemistry_Notes>
This compound has an imine and may undergo hydrolysis.

$$$$
