3drf_ligand
                    3D
 Schrodinger Suite 2020-3.
 96 95  0  0  1  0            999 V2000
   19.3070   45.7990   20.8730 N   0  3  0  0  0  0
   18.1080   45.5290   21.6420 C   0  0  2  0  0  0
   18.1600   46.3540   22.9600 C   0  0  0  0  0  0
   19.1420   46.3510   23.6510 O   0  0  0  0  0  0
   17.9970   43.9620   21.8380 C   0  0  0  0  0  0
   17.0640   47.0250   23.2710 N   0  0  0  0  0  0
   17.0630   47.9510   24.3930 C   0  0  2  0  0  0
   15.6560   48.0240   25.0170 C   0  0  0  0  0  0
   14.7150   47.6050   24.4720 O   0  0  0  0  0  0
   17.5560   49.3200   23.9460 C   0  0  0  0  0  0
   16.6370   49.8240   23.0160 O   0  0  0  0  0  0
   15.6010   48.5680   26.2020 N   0  0  0  0  0  0
   14.3260   48.8350   26.8910 C   0  0  2  0  0  0
   13.6730   50.0630   26.2760 C   0  0  0  0  0  0
   14.3260   51.0180   26.0560 O   0  0  0  0  0  0
   14.5150   49.0830   28.4100 C   0  0  0  0  0  0
   15.0990   47.8890   29.1540 C   0  0  0  0  0  0
   14.4820   46.8760   29.2880 O   0  0  0  0  0  0
   16.3250   48.0330   29.6040 N   0  0  0  0  0  0
   12.3680   49.9650   26.0100 N   0  0  0  0  0  0
   11.5750   51.0650   25.4310 C   0  0  2  0  0  0
   10.2780   51.2400   26.2230 C   0  0  0  0  0  0
    9.6740   50.3170   26.6070 O   0  0  0  0  0  0
   11.3010   50.8280   23.9280 C   0  0  0  0  0  0
   12.5380   50.9600   23.1540 O   0  0  0  0  0  0
    9.9130   52.4850   26.4270 N   0  0  0  0  0  0
    8.6790   52.8420   27.1130 C   0  0  2  0  0  0
    7.4700   52.5930   26.2220 C   0  0  0  0  0  0
    7.3910   53.0890   25.1220 O   0  0  0  0  0  0
    8.6820   54.3440   27.4010 C   0  0  2  0  0  0
    9.8940   54.7700   28.2560 C   0  0  0  0  0  0
    7.4270   54.7520   28.0670 C   0  0  0  0  0  0
    9.9940   56.3340   28.4150 C   0  0  0  0  0  0
    6.5500   51.8030   26.7130 N   0  0  0  0  0  0
    5.3650   51.4160   25.9590 C   0  0  2  0  0  0
    4.1590   52.2530   26.4190 C   0  0  0  0  0  0
    4.0760   52.6160   27.4990 O   0  0  0  0  0  0
    5.0800   49.8860   26.1400 C   0  0  0  0  0  0
    3.2610   52.5340   25.4900 N   0  0  0  0  0  0
    2.0820   53.3590   25.7960 C   0  0  2  0  0  0
    0.9810   52.6430   26.5560 C   0  0  0  0  0  0
    0.2770   53.2900   27.2750 O   0  0  0  0  0  0
    1.5580   53.9880   24.5400 C   0  0  0  0  0  0
    1.1640   53.0100   23.6040 O   0  0  0  0  0  0
    0.8950   51.3360   26.4520 N   0  0  0  0  0  0
   -0.1770   50.6380   27.1320 C   0  0  0  0  0  0
    0.3210   50.1770   28.4570 C   0  0  0  0  0  0
    1.0881   49.1775   28.4403 O   0  5  0  0  0  0
   -0.0048   50.7515   29.5300 O   0  0  0  0  0  0
   19.4090   46.8838   20.7216 H   0  0  0  0  0  0
   19.2370   45.2975   19.8965 H   0  0  0  0  0  0
   20.1847   45.4206   21.4174 H   0  0  0  0  0  0
   17.2380   45.8892   21.0734 H   0  0  0  0  0  0
   17.9669   43.4707   20.8543 H   0  0  0  0  0  0
   17.0775   43.7262   22.3939 H   0  0  0  0  0  0
   18.8694   43.6003   22.4020 H   0  0  0  0  0  0
   16.1499   46.8802   22.6765 H   0  0  0  0  0  0
   17.7744   47.5489   25.1294 H   0  0  0  0  0  0
   17.6225   49.9882   24.8173 H   0  0  0  0  0  0
   18.5494   49.2193   23.4845 H   0  0  0  0  0  0
   16.8012   50.8116   22.5603 H   0  0  0  0  0  0
   16.5533   48.8292   26.6867 H   0  0  0  0  0  0
   13.7198   47.9313   26.7303 H   0  0  0  0  0  0
   15.1993   49.9309   28.5607 H   0  0  0  0  0  0
   13.5414   49.3116   28.8681 H   0  0  0  0  0  0
   16.8562   48.9851   29.4580 H   0  0  0  0  0  0
   16.8202   47.2015   30.1268 H   0  0  0  0  0  0
   11.8865   49.0042   26.2447 H   0  0  0  0  0  0
   12.1843   51.9750   25.5344 H   0  0  0  0  0  0
   10.8959   49.8154   23.7844 H   0  0  0  0  0  0
   10.5726   51.5689   23.5668 H   0  0  0  0  0  0
   12.5215   50.8216   22.0629 H   0  0  0  0  0  0
   10.5836   53.2737   26.0552 H   0  0  0  0  0  0
    8.6594   52.2143   28.0161 H   0  0  0  0  0  0
    8.7181   54.8677   26.4343 H   0  0  0  0  0  0
    9.8066   54.3306   29.2606 H   0  0  0  0  0  0
   10.8207   54.4162   27.7805 H   0  0  0  0  0  0
    6.5686   54.4448   27.4515 H   0  0  0  0  0  0
    7.4165   55.8449   28.1915 H   0  0  0  0  0  0
    7.3620   54.2699   29.0536 H   0  0  0  0  0  0
   10.8708   56.5847   29.0302 H   0  0  0  0  0  0
    9.0835   56.7119   28.9030 H   0  0  0  0  0  0
   10.0976   56.7975   27.4228 H   0  0  0  0  0  0
    6.6973   51.4282   27.7366 H   0  0  0  0  0  0
    5.5955   51.6465   24.9084 H   0  0  0  0  0  0
    5.9541   49.3081   25.8054 H   0  0  0  0  0  0
    4.2021   49.6032   25.5406 H   0  0  0  0  0  0
    4.8837   49.6726   27.2011 H   0  0  0  0  0  0
    3.4073   52.1392   24.4738 H   0  0  0  0  0  0
    2.4612   54.1344   26.4779 H   0  0  0  0  0  0
    0.6862   54.6145   24.7798 H   0  0  0  0  0  0
    2.3433   54.6106   24.0864 H   0  0  0  0  0  0
    0.7567   53.3147   22.6287 H   0  0  0  0  0  0
    1.6272   50.7720   25.8556 H   0  0  0  0  0  0
   -1.0294   51.3196   27.2690 H   0  0  0  0  0  0
   -0.4921   49.7735   26.5292 H   0  0  0  0  0  0
  1  2  1  0  0  0
  1 50  1  0  0  0
  1 51  1  0  0  0
  1 52  1  0  0  0
  2  3  1  0  0  0
  2  5  1  0  0  0
  2 53  1  0  0  0
  3  4  2  0  0  0
  3  6  1  0  0  0
  5 54  1  0  0  0
  5 55  1  0  0  0
  5 56  1  0  0  0
  6  7  1  0  0  0
  6 57  1  0  0  0
  7  8  1  0  0  0
  7 10  1  0  0  0
  7 58  1  0  0  0
  8  9  2  0  0  0
  8 12  1  0  0  0
 10 11  1  0  0  0
 10 59  1  0  0  0
 10 60  1  0  0  0
 11 61  1  0  0  0
 12 13  1  0  0  0
 12 62  1  0  0  0
 13 14  1  0  0  0
 13 16  1  0  0  0
 13 63  1  0  0  0
 14 15  2  0  0  0
 14 20  1  0  0  0
 16 17  1  0  0  0
 16 64  1  0  0  0
 16 65  1  0  0  0
 17 18  2  0  0  0
 17 19  1  0  0  0
 19 66  1  0  0  0
 19 67  1  0  0  0
 20 21  1  0  0  0
 20 68  1  0  0  0
 21 22  1  0  0  0
 21 24  1  0  0  0
 21 69  1  0  0  0
 22 23  2  0  0  0
 22 26  1  0  0  0
 24 25  1  0  0  0
 24 70  1  0  0  0
 24 71  1  0  0  0
 25 72  1  0  0  0
 26 27  1  0  0  0
 26 73  1  0  0  0
 27 28  1  0  0  0
 27 30  1  0  0  0
 27 74  1  0  0  0
 28 29  2  0  0  0
 28 34  1  0  0  0
 30 31  1  0  0  0
 30 32  1  0  0  0
 30 75  1  0  0  0
 31 33  1  0  0  0
 31 76  1  0  0  0
 31 77  1  0  0  0
 32 78  1  0  0  0
 32 79  1  0  0  0
 32 80  1  0  0  0
 33 81  1  0  0  0
 33 82  1  0  0  0
 33 83  1  0  0  0
 34 35  1  0  0  0
 34 84  1  0  0  0
 35 36  1  0  0  0
 35 38  1  0  0  0
 35 85  1  0  0  0
 36 37  2  0  0  0
 36 39  1  0  0  0
 38 86  1  0  0  0
 38 87  1  0  0  0
 38 88  1  0  0  0
 39 40  1  0  0  0
 39 89  1  0  0  0
 40 41  1  0  0  0
 40 43  1  0  0  0
 40 90  1  0  0  0
 41 42  2  0  0  0
 41 45  1  0  0  0
 43 44  1  0  0  0
 43 91  1  0  0  0
 43 92  1  0  0  0
 44 93  1  0  0  0
 45 46  1  0  0  0
 45 94  1  0  0  0
 46 47  1  0  0  0
 46 95  1  0  0  0
 46 96  1  0  0  0
 47 48  1  0  0  0
 47 49  2  0  0  0
M  CHG  2   1   1  48  -1
M  END
> <s_m_source_file>
../3drf_ligand.sdf

> <i_m_source_file_index>
1

> <s_epik_input>
W05IMytdW0NAQEhdKFtDSDNdKUMoPU8pW05IXVtDQEBIXShbQ0gyXVtPSF0pQyg9TylbTkhdW0NAQEhdKFtDSDJdQyg9TylbTkgyXSlDKD1PKVtOSF1bQ0BASF0oW0NIMl1bT0hdKUMoPU8pW05IXVtDQEBIXShbQ0BASF0oW0NIM10pW0NIMl1bQ0gzXSlDKD1PKVtOSF1bQ0BASF0oW0NIM10pQyg9TylbTkhdW0NAQEhdKFtDSDJdW09IXSlDKD1PKVtOSF1bQ0gyXUMoPU8pW09IXQ==

> <s_epik_cmdline>
J2VwaWtfYXBwJywgJy1pbWFlJywgJ2xpZ2FuZF9wcm8ubWFlJywgJy1vbWFlJywgJ2xpZ2FuZF9wcmVwLm1hZScsICctbXMnLCAnMScsICctcGgnLCAnNycsICctcGh0JywgJzAuNScsICctbnQn

> <r_epik_Ionization_Penalty>
  0.1348

> <r_epik_Ionization_Penalty_Charging>
  0.1348

> <r_epik_Ionization_Penalty_Neutral>
  0.0000

> <r_epik_State_Penalty>
  0.1240

> <r_epik_Charging_Adjusted_Penalty>
0.258837824266975

> <i_epik_Tot_Q>
0

> <i_epik_Tot_abs_Q>
2

$$$$
