3drg_ligand
                    3D
 Schrodinger Suite 2020-3.
137141  0  0  1  0            999 V2000
  -15.2920   -4.4520   24.6480 N   0  3  0  0  0  0
  -15.6150   -3.4110   23.6270 C   0  0  2  0  0  0
  -15.0980   -3.7860   22.2270 C   0  0  0  0  0  0
  -15.9050   -4.1050   21.3590 O   0  0  0  0  0  0
  -15.1210   -2.0230   24.0750 C   0  0  0  0  0  0
  -15.0830   -0.9510   22.9770 C   0  0  0  0  0  0
  -14.0650    0.1490   23.2800 C   0  0  0  0  0  0
  -12.6900   -0.3410   23.3860 N   0  0  0  0  0  0
  -11.9850   -0.3980   24.5160 C   0  0  0  0  0  0
  -10.7440   -0.8690   24.4970 N   0  3  0  0  0  0
  -12.5100    0.0160   25.6630 N   0  0  0  0  0  0
  -13.7630   -3.7600   22.0020 N   0  0  0  0  0  0
  -13.2960   -3.9720   20.6340 C   0  0  2  0  0  0
  -13.0990   -5.4580   20.3120 C   0  0  0  0  0  0
  -13.0210   -6.2750   21.2340 O   0  0  0  0  0  0
  -11.9530   -3.2340   20.6140 C   0  0  0  0  0  0
  -11.4700   -3.2560   22.0450 C   0  0  0  0  0  0
  -12.6260   -3.6540   22.9390 C   0  0  0  0  0  0
  -13.0300   -5.8150   19.0130 N   0  0  0  0  0  0
  -12.7300   -7.2080   18.6740 C   0  0  2  0  0  0
  -11.3410   -7.6230   19.1690 C   0  0  0  0  0  0
  -10.4200   -6.8040   19.1910 O   0  0  0  0  0  0
  -12.7870   -7.2230   17.1410 C   0  0  0  0  0  0
  -12.6200   -5.8010   16.7290 C   0  0  0  0  0  0
  -13.2620   -4.9960   17.8090 C   0  0  0  0  0  0
  -11.2090   -8.8810   19.5810 N   0  0  0  0  0  0
   -9.9350   -9.4080   20.0650 C   0  0  0  0  0  0
   -9.7360  -10.8730   19.7310 C   0  0  0  0  0  0
  -10.6910  -11.6520   19.7310 O   0  0  0  0  0  0
   -8.4920  -11.2440   19.4380 N   0  0  0  0  0  0
   -8.1320  -12.6390   19.1960 C   0  0  2  0  0  0
   -8.2160  -13.4360   20.4970 C   0  0  0  0  0  0
   -7.6260  -13.0540   21.5090 O   0  0  0  0  0  0
   -6.7210  -12.7450   18.6070 C   0  0  0  0  0  0
   -6.6040  -12.2360   17.1940 C   0  0  0  0  0  0
   -6.7680  -13.1000   16.1160 C   0  0  0  0  0  0
   -6.3160  -10.8990   16.9400 C   0  0  0  0  0  0
   -6.6560  -12.6400   14.8080 C   0  0  0  0  0  0
   -6.2060  -10.4300   15.6370 C   0  0  0  0  0  0
   -6.3740  -11.3030   14.5680 C   0  0  0  0  0  0
   -8.9670  -14.5330   20.4650 N   0  0  0  0  0  0
   -9.1120  -15.4060   21.6240 C   0  0  2  0  0  0
   -8.4080  -16.7380   21.3620 C   0  0  0  0  0  0
   -8.2520  -17.1250   20.2020 O   0  0  0  0  0  0
  -10.5930  -15.6250   21.9500 C   0  0  0  0  0  0
  -11.2820  -16.2050   20.8560 O   0  0  0  0  0  0
   -7.9640  -17.4290   22.4350 N   0  0  0  0  0  0
   -7.2730  -18.7250   22.3290 C   0  0  2  0  0  0
   -8.0390  -19.8250   21.5730 C   0  0  0  0  0  0
   -7.4210  -20.5630   20.8030 O   0  0  0  0  0  0
   -7.0410  -19.1320   23.7950 C   0  0  0  0  0  0
   -7.8630  -18.1860   24.6160 C   0  0  0  0  0  0
   -7.9550  -16.9320   23.8210 C   0  0  0  0  0  0
   -9.3530  -19.9300   21.7980 N   0  0  0  0  0  0
  -10.2380  -20.9010   21.1130 C   0  0  2  0  0  0
  -11.3230  -21.4380   22.0610 C   0  0  0  0  0  0
  -11.6480  -22.6300   22.0440 O   0  0  0  0  0  0
   -9.4420  -22.0670   20.4970 C   0  0  0  0  0  0
  -10.0270  -22.6020   19.2120 C   0  0  0  0  0  0
   -9.7590  -21.9770   17.9960 C   0  0  0  0  0  0
  -10.8290  -23.7450   19.2140 C   0  0  0  0  0  0
  -10.2910  -22.4710   16.8040 C   0  0  0  0  0  0
  -11.3660  -24.2480   18.0260 C   0  0  0  0  0  0
  -11.0950  -23.6090   16.8190 C   0  0  0  0  0  0
  -11.8750  -20.5460   22.8840 N   0  0  0  0  0  0
  -12.9000  -20.9030   23.8700 C   0  0  2  0  0  0
  -13.7880  -19.7040   24.2210 C   0  0  0  0  0  0
  -13.5880  -19.0182   25.2589 O   0  5  0  0  0  0
  -12.2550  -21.4910   25.1280 C   0  0  0  0  0  0
  -14.7396  -19.3972   23.4543 O   0  0  0  0  0  0
  -15.6559   -5.4306   24.3017 H   0  0  0  0  0  0
  -15.7796   -4.1955   25.6001 H   0  0  0  0  0  0
  -14.2027   -4.4966   24.7942 H   0  0  0  0  0  0
  -16.7133   -3.3879   23.5702 H   0  0  0  0  0  0
  -15.7817   -1.6359   24.8647 H   0  0  0  0  0  0
  -14.0953   -2.1066   24.4635 H   0  0  0  0  0  0
  -14.8082   -1.4168   22.0191 H   0  0  0  0  0  0
  -16.0747   -0.4837   22.8863 H   0  0  0  0  0  0
  -14.0860    0.8995   22.4761 H   0  0  0  0  0  0
  -14.3180    0.6293   24.2367 H   0  0  0  0  0  0
  -12.1627   -0.6982   22.4891 H   0  0  0  0  0  0
  -10.3011   -1.2141   23.5511 H   0  0  0  0  0  0
  -13.5376    0.4077   25.6879 H   0  0  0  0  0  0
  -11.9174   -0.0327   26.5884 H   0  0  0  0  0  0
  -14.0438   -3.5985   19.9190 H   0  0  0  0  0  0
  -11.2564   -3.7584   19.9434 H   0  0  0  0  0  0
  -12.1049   -2.2059   20.2536 H   0  0  0  0  0  0
  -10.6516   -3.9842   22.1446 H   0  0  0  0  0  0
  -11.1071   -2.2560   22.3249 H   0  0  0  0  0  0
  -12.8485   -2.8924   23.7008 H   0  0  0  0  0  0
  -12.4625   -4.6254   23.4285 H   0  0  0  0  0  0
  -13.4507   -7.8805   19.1622 H   0  0  0  0  0  0
  -11.9758   -7.8548   16.7501 H   0  0  0  0  0  0
  -13.7564   -7.6271   16.8140 H   0  0  0  0  0  0
  -11.5486   -5.5692   16.6376 H   0  0  0  0  0  0
  -13.1141   -5.6397   15.7595 H   0  0  0  0  0  0
  -14.3437   -4.8679   17.6555 H   0  0  0  0  0  0
  -12.7910   -4.0106   17.9395 H   0  0  0  0  0  0
  -12.0964   -9.5303   19.5495 H   0  0  0  0  0  0
   -9.1079   -8.8453   19.6075 H   0  0  0  0  0  0
   -9.8875   -9.3050   21.1591 H   0  0  0  0  0  0
   -7.7229  -10.4596   19.3806 H   0  0  0  0  0  0
   -8.8683  -13.0136   18.4696 H   0  0  0  0  0  0
   -6.0223  -12.1580   19.2212 H   0  0  0  0  0  0
   -6.4054  -13.7987   18.5984 H   0  0  0  0  0  0
   -6.9873  -14.1519   16.2989 H   0  0  0  0  0  0
   -6.1749  -10.2109   17.7735 H   0  0  0  0  0  0
   -6.7895  -13.3284   13.9735 H   0  0  0  0  0  0
   -5.9881   -9.3780   15.4528 H   0  0  0  0  0  0
   -6.2844  -10.9382   13.5448 H   0  0  0  0  0  0
   -9.4878  -14.7738   19.5265 H   0  0  0  0  0  0
   -8.6274  -14.8861   22.4636 H   0  0  0  0  0  0
  -10.6823  -16.2979   22.8156 H   0  0  0  0  0  0
  -11.0631  -14.6591   22.1865 H   0  0  0  0  0  0
  -12.3570  -16.4238   20.9366 H   0  0  0  0  0  0
   -6.3668  -18.5689   21.7253 H   0  0  0  0  0  0
   -7.3646  -20.1730   23.9421 H   0  0  0  0  0  0
   -5.9713  -19.0432   24.0353 H   0  0  0  0  0  0
   -8.8580  -18.6213   24.7904 H   0  0  0  0  0  0
   -7.3653  -18.0105   25.5812 H   0  0  0  0  0  0
   -7.0885  -16.2704   23.9677 H   0  0  0  0  0  0
   -8.8813  -16.3715   24.0156 H   0  0  0  0  0  0
   -9.7697  -19.2373   22.5440 H   0  0  0  0  0  0
  -10.7105  -20.3207   20.3068 H   0  0  0  0  0  0
   -8.4181  -21.7337   20.2723 H   0  0  0  0  0  0
   -9.4070  -22.9041   21.2098 H   0  0  0  0  0  0
   -9.1254  -21.0903   17.9753 H   0  0  0  0  0  0
  -11.0392  -24.2521   20.1557 H   0  0  0  0  0  0
  -10.0776  -21.9667   15.8615 H   0  0  0  0  0  0
  -11.9951  -25.1379   18.0442 H   0  0  0  0  0  0
  -11.5103  -23.9976   15.8891 H   0  0  0  0  0  0
  -11.5307  -19.5046   22.8010 H   0  0  0  0  0  0
  -13.5181  -21.6681   23.3776 H   0  0  0  0  0  0
  -11.6241  -22.3482   24.8501 H   0  0  0  0  0  0
  -13.0411  -21.8239   25.8217 H   0  0  0  0  0  0
  -11.6364  -20.7233   25.6159 H   0  0  0  0  0  0
  -10.1585   -0.9141   25.4272 H   0  0  0  0  0  0
  1  2  1  0  0  0
  1 71  1  0  0  0
  1 72  1  0  0  0
  1 73  1  0  0  0
  2  3  1  0  0  0
  2  5  1  0  0  0
  2 74  1  0  0  0
  3  4  2  0  0  0
  3 12  1  0  0  0
  5  6  1  0  0  0
  5 75  1  0  0  0
  5 76  1  0  0  0
  6  7  1  0  0  0
  6 77  1  0  0  0
  6 78  1  0  0  0
  7  8  1  0  0  0
  7 79  1  0  0  0
  7 80  1  0  0  0
  8  9  1  0  0  0
  8 81  1  0  0  0
  9 10  2  0  0  0
  9 11  1  0  0  0
 10 82  1  0  0  0
 10137  1  0  0  0
 11 83  1  0  0  0
 11 84  1  0  0  0
 12 13  1  0  0  0
 12 18  1  0  0  0
 13 14  1  0  0  0
 13 16  1  0  0  0
 13 85  1  0  0  0
 14 15  2  0  0  0
 14 19  1  0  0  0
 16 17  1  0  0  0
 16 86  1  0  0  0
 16 87  1  0  0  0
 17 18  1  0  0  0
 17 88  1  0  0  0
 17 89  1  0  0  0
 18 90  1  0  0  0
 18 91  1  0  0  0
 19 20  1  0  0  0
 19 25  1  0  0  0
 20 21  1  0  0  0
 20 23  1  0  0  0
 20 92  1  0  0  0
 21 22  2  0  0  0
 21 26  1  0  0  0
 23 24  1  0  0  0
 23 93  1  0  0  0
 23 94  1  0  0  0
 24 25  1  0  0  0
 24 95  1  0  0  0
 24 96  1  0  0  0
 25 97  1  0  0  0
 25 98  1  0  0  0
 26 27  1  0  0  0
 26 99  1  0  0  0
 27 28  1  0  0  0
 27100  1  0  0  0
 27101  1  0  0  0
 28 29  2  0  0  0
 28 30  1  0  0  0
 30 31  1  0  0  0
 30102  1  0  0  0
 31 32  1  0  0  0
 31 34  1  0  0  0
 31103  1  0  0  0
 32 33  2  0  0  0
 32 41  1  0  0  0
 34 35  1  0  0  0
 34104  1  0  0  0
 34105  1  0  0  0
 35 36  2  0  0  0
 35 37  1  0  0  0
 36 38  1  0  0  0
 36106  1  0  0  0
 37 39  2  0  0  0
 37107  1  0  0  0
 38 40  2  0  0  0
 38108  1  0  0  0
 39 40  1  0  0  0
 39109  1  0  0  0
 40110  1  0  0  0
 41 42  1  0  0  0
 41111  1  0  0  0
 42 43  1  0  0  0
 42 45  1  0  0  0
 42112  1  0  0  0
 43 44  2  0  0  0
 43 47  1  0  0  0
 45 46  1  0  0  0
 45113  1  0  0  0
 45114  1  0  0  0
 46115  1  0  0  0
 47 48  1  0  0  0
 47 53  1  0  0  0
 48 49  1  0  0  0
 48 51  1  0  0  0
 48116  1  0  0  0
 49 50  2  0  0  0
 49 54  1  0  0  0
 51 52  1  0  0  0
 51117  1  0  0  0
 51118  1  0  0  0
 52 53  1  0  0  0
 52119  1  0  0  0
 52120  1  0  0  0
 53121  1  0  0  0
 53122  1  0  0  0
 54 55  1  0  0  0
 54123  1  0  0  0
 55 56  1  0  0  0
 55 58  1  0  0  0
 55124  1  0  0  0
 56 57  2  0  0  0
 56 65  1  0  0  0
 58 59  1  0  0  0
 58125  1  0  0  0
 58126  1  0  0  0
 59 60  2  0  0  0
 59 61  1  0  0  0
 60 62  1  0  0  0
 60127  1  0  0  0
 61 63  2  0  0  0
 61128  1  0  0  0
 62 64  2  0  0  0
 62129  1  0  0  0
 63 64  1  0  0  0
 63130  1  0  0  0
 64131  1  0  0  0
 65 66  1  0  0  0
 65132  1  0  0  0
 66 67  1  0  0  0
 66 69  1  0  0  0
 66133  1  0  0  0
 67 68  1  0  0  0
 67 70  2  0  0  0
 69134  1  0  0  0
 69135  1  0  0  0
 69136  1  0  0  0
M  CHG  3   1   1  10   1  68  -1
M  END
> <s_m_source_file>
../3drg_ligand.sdf

> <i_m_source_file_index>
1

> <s_epik_input>
W0hdL049QyhbTkgyXSlcW05IXVtDSDJdW0NIMl1bQ0gyXVtDQEhdKFtOSDMrXSlDKD1PKU4xW0NAQEhdKFtDSDJdW0NIMl1bQ0gyXTEpQyg9TylOMltDQEBIXShbQ0gyXVtDSDJdW0NIMl0yKUMoPU8pW05IXVtDSDJdQyg9TylbTkhdW0NAQEhdKFtDSDJdYzNbY0hdW2NIXVtjSF1bY0hdW2NIXTMpQyg9TylbTkhdW0NAQEhdKFtDSDJdW09IXSlDKD1PKU40W0NAQEhdKFtDSDJdW0NIMl1bQ0gyXTQpQyg9TylbTkhdW0NASF0oQyg9TylbTkhdW0NAQEhdKFtDSDNdKUMoPU8pW09IXSlbQ0gyXWM1W2NIXVtjSF1bY0hdW2NIXVtjSF01

> <s_epik_cmdline>
J2VwaWtfYXBwJywgJy1pbWFlJywgJ2xpZ2FuZF9wcm8ubWFlJywgJy1vbWFlJywgJ2xpZ2FuZF9wcmVwLm1hZScsICctbXMnLCAnMScsICctcGgnLCAnNycsICctcGh0JywgJzAuNScsICctbnQn

> <r_epik_Ionization_Penalty>
  0.1268

> <r_epik_Ionization_Penalty_Charging>
  0.1268

> <r_epik_Ionization_Penalty_Neutral>
  0.0000

> <r_epik_State_Penalty>
  0.1161

> <r_epik_Charging_Adjusted_Penalty>
0.242819941357733

> <i_epik_Tot_Q>
1

> <i_epik_Tot_abs_Q>
3

> <s_epik_Chemistry_Notes>
This compound has an imine and may undergo hydrolysis.

$$$$
