3dri_ligand
                    3D
 Schrodinger Suite 2020-3.
 65 64  0  0  1  0            999 V2000
   -3.6910   21.7610   -1.4650 N   0  3  0  0  0  0
   -3.8750   20.5110   -2.2770 C   0  0  2  0  0  0
   -2.6900   19.5610   -2.1860 C   0  0  0  0  0  0
   -2.7690   18.4180   -2.6540 O   0  0  0  0  0  0
   -4.1530   20.8610   -3.7160 C   0  0  0  0  0  0
   -1.5920   20.0460   -1.6110 N   0  0  0  0  0  0
   -0.4270   19.2250   -1.3090 C   0  0  2  0  0  0
   -0.4580   18.8200    0.1610 C   0  0  0  0  0  0
   -0.2540   17.6610    0.5050 O   0  0  0  0  0  0
    0.8390   20.0180   -1.5960 C   0  0  0  0  0  0
   -0.7070   19.7970    1.0250 N   0  0  0  0  0  0
   -0.5960   19.6010    2.4550 C   0  0  2  0  0  0
   -1.9790   19.3680    3.0590 C   0  0  0  0  0  0
   -2.9850   19.8330    2.5180 O   0  0  0  0  0  0
    0.0980   20.8110    3.0860 C   0  0  0  0  0  0
    1.3620   21.0450    2.4550 O   0  0  0  0  0  0
   -2.0080   18.6420    4.1750 N   0  0  0  0  0  0
   -3.2520   18.2770    4.8540 C   0  0  2  0  0  0
   -3.2120   18.7060    6.3060 C   0  0  0  0  0  0
   -2.1570   18.6860    6.9390 O   0  0  0  0  0  0
   -3.4660   16.7620    4.7870 C   0  0  0  0  0  0
   -4.3800   19.0650    6.8310 N   0  0  0  0  0  0
   -4.5800   19.1550    8.2730 C   0  0  2  0  0  0
   -4.1130   17.8430    8.9170 C   0  0  0  0  0  0
   -4.5140   16.7560    8.4950 O   0  0  0  0  0  0
   -6.0640   19.4040    8.5970 C   0  0  0  0  0  0
   -6.5120   20.6850    8.1420 O   0  0  0  0  0  0
   -3.2410   17.9380    9.9110 N   0  0  0  0  0  0
   -2.7820   16.7600   10.6310 C   0  0  2  0  0  0
   -1.5020   17.0280   11.3810 C   0  0  0  0  0  0
   -0.9947   16.1115   12.0812 O   0  5  0  0  0  0
   -2.5940   15.5570    9.6820 C   0  0  0  0  0  0
   -0.9456   18.1561   11.3085 O   0  0  0  0  0  0
   -3.4890   21.4915   -0.4178 H   0  0  0  0  0  0
   -4.6056   22.3700   -1.5170 H   0  0  0  0  0  0
   -2.8437   22.3369   -1.8655 H   0  0  0  0  0  0
   -4.7456   19.9923   -1.8493 H   0  0  0  0  0  0
   -5.0110   21.5475   -3.7672 H   0  0  0  0  0  0
   -4.3830   19.9441   -4.2785 H   0  0  0  0  0  0
   -3.2680   21.3469   -4.1527 H   0  0  0  0  0  0
   -1.5890   21.1176   -1.3626 H   0  0  0  0  0  0
   -0.4784   18.3370   -1.9561 H   0  0  0  0  0  0
    0.8574   20.3080   -2.6569 H   0  0  0  0  0  0
    1.7191   19.3980   -1.3700 H   0  0  0  0  0  0
    0.8559   20.9213   -0.9686 H   0  0  0  0  0  0
   -1.0052   20.7777    0.6258 H   0  0  0  0  0  0
    0.0180   18.7007    2.6047 H   0  0  0  0  0  0
   -0.5349   21.7022    2.9628 H   0  0  0  0  0  0
    0.2613   20.6226    4.1574 H   0  0  0  0  0  0
    1.9963   21.8801    2.7870 H   0  0  0  0  0  0
   -1.0412   18.3143    4.5847 H   0  0  0  0  0  0
   -4.0523   18.8162    4.3260 H   0  0  0  0  0  0
   -3.4963   16.4422    3.7350 H   0  0  0  0  0  0
   -4.4169   16.5040    5.2762 H   0  0  0  0  0  0
   -2.6386   16.2517    5.3017 H   0  0  0  0  0  0
   -5.2082   19.2972    6.1453 H   0  0  0  0  0  0
   -3.9770   20.0059    8.6228 H   0  0  0  0  0  0
   -6.6800   18.6346    8.1086 H   0  0  0  0  0  0
   -6.2144   19.3576    9.6857 H   0  0  0  0  0  0
   -7.5546   20.9940    8.3082 H   0  0  0  0  0  0
   -2.8639   18.9335   10.1880 H   0  0  0  0  0  0
   -3.5826   16.5672   11.3602 H   0  0  0  0  0  0
   -3.5318   15.3683    9.1390 H   0  0  0  0  0  0
   -2.3241   14.6662   10.2682 H   0  0  0  0  0  0
   -1.7921   15.7793    8.9626 H   0  0  0  0  0  0
  1  2  1  0  0  0
  1 34  1  0  0  0
  1 35  1  0  0  0
  1 36  1  0  0  0
  2  3  1  0  0  0
  2  5  1  0  0  0
  2 37  1  0  0  0
  3  4  2  0  0  0
  3  6  1  0  0  0
  5 38  1  0  0  0
  5 39  1  0  0  0
  5 40  1  0  0  0
  6  7  1  0  0  0
  6 41  1  0  0  0
  7  8  1  0  0  0
  7 10  1  0  0  0
  7 42  1  0  0  0
  8  9  2  0  0  0
  8 11  1  0  0  0
 10 43  1  0  0  0
 10 44  1  0  0  0
 10 45  1  0  0  0
 11 12  1  0  0  0
 11 46  1  0  0  0
 12 13  1  0  0  0
 12 15  1  0  0  0
 12 47  1  0  0  0
 13 14  2  0  0  0
 13 17  1  0  0  0
 15 16  1  0  0  0
 15 48  1  0  0  0
 15 49  1  0  0  0
 16 50  1  0  0  0
 17 18  1  0  0  0
 17 51  1  0  0  0
 18 19  1  0  0  0
 18 21  1  0  0  0
 18 52  1  0  0  0
 19 20  2  0  0  0
 19 22  1  0  0  0
 21 53  1  0  0  0
 21 54  1  0  0  0
 21 55  1  0  0  0
 22 23  1  0  0  0
 22 56  1  0  0  0
 23 24  1  0  0  0
 23 26  1  0  0  0
 23 57  1  0  0  0
 24 25  2  0  0  0
 24 28  1  0  0  0
 26 27  1  0  0  0
 26 58  1  0  0  0
 26 59  1  0  0  0
 27 60  1  0  0  0
 28 29  1  0  0  0
 28 61  1  0  0  0
 29 30  1  0  0  0
 29 32  1  0  0  0
 29 62  1  0  0  0
 30 31  1  0  0  0
 30 33  2  0  0  0
 32 63  1  0  0  0
 32 64  1  0  0  0
 32 65  1  0  0  0
M  CHG  2   1   1  31  -1
M  END
> <s_m_source_file>
../3dri_ligand.sdf

> <i_m_source_file_index>
1

> <s_epik_input>
W05IMytdW0NAQEhdKFtDSDNdKUMoPU8pW05IXVtDQEBIXShbQ0gzXSlDKD1PKVtOSF1bQ0BASF0oW0NIMl1bT0hdKUMoPU8pW05IXVtDQEBIXShbQ0gzXSlDKD1PKVtOSF1bQ0BASF0oW0NIMl1bT0hdKUMoPU8pW05IXVtDQEBIXShbQ0gzXSlDKD1PKVtPSF0=

> <s_epik_cmdline>
J2VwaWtfYXBwJywgJy1pbWFlJywgJ2xpZ2FuZF9wcm8ubWFlJywgJy1vbWFlJywgJ2xpZ2FuZF9wcmVwLm1hZScsICctbXMnLCAnMScsICctcGgnLCAnNycsICctcGh0JywgJzAuNScsICctbnQn

> <r_epik_Ionization_Penalty>
  0.1241

> <r_epik_Ionization_Penalty_Charging>
  0.1241

> <r_epik_Ionization_Penalty_Neutral>
  0.0000

> <r_epik_State_Penalty>
  0.1134

> <r_epik_Charging_Adjusted_Penalty>
0.237493361415492

> <i_epik_Tot_Q>
0

> <i_epik_Tot_abs_Q>
2

$$$$
