3drp_ligand
                    3D
 Schrodinger Suite 2020-3.
 42 45  0  0  1  0            999 V2000
   13.0190   11.9830   15.4960 Cl  0  0  0  0  0  0
   11.3250   12.3690   15.1180 C   0  0  0  0  0  0
   10.5430   12.2520   16.1620 C   0  0  0  0  0  0
   11.2340   11.9040   17.2670 O   0  0  0  0  0  0
   10.8940   12.5120   18.4920 C   0  0  0  0  0  0
   10.4590   11.6940   19.5590 C   0  0  0  0  0  0
   10.1010   12.2370   20.7920 C   0  0  0  0  0  0
    9.7680   11.4910   21.7840 C   0  0  0  0  0  0
    9.4830   10.8500   22.6380 N   0  0  0  0  0  0
   10.9420   13.9140   18.6470 C   0  0  0  0  0  0
   10.5810   14.4390   19.9220 C   0  0  0  0  0  0
   10.6090   16.1840   20.2970 Cl  0  0  0  0  0  0
   10.1750   13.6450   20.9950 C   0  0  0  0  0  0
   10.8900   12.7720   13.8970 C   0  0  0  0  0  0
    9.5550   13.0510   13.8650 C   0  0  0  0  0  0
    8.7310   12.9360   14.9050 C   0  0  0  0  0  0
    9.1780   12.5060   16.0970 C   0  0  0  0  0  0
    7.4210   13.2700   14.7690 O   0  0  0  0  0  0
    6.6560   13.1210   13.6150 C   0  0  0  0  0  0
    6.6020   11.6260   13.5530 C   0  0  0  0  0  0
    6.8550   10.9040   12.4500 N   0  3  0  0  0  0
    6.7180    9.5560   12.8370 N   0  0  0  0  0  0
    6.3820    9.3850   14.0850 C   0  0  0  0  0  0
    6.1500    8.2880   14.8010 N   0  0  0  0  0  0
    5.8060    8.3490   16.1080 C   0  0  0  0  0  0
    5.6010    7.0530   16.7920 N   0  0  0  0  0  0
    5.6760    9.5640   16.7650 C   0  0  0  0  0  0
    5.9270   10.7390   16.0250 C   0  0  0  0  0  0
    6.2770   10.6300   14.6620 C   0  0  0  0  0  0
   10.4022   10.6151   19.4148 H   0  0  0  0  0  0
   11.2421   14.5669   17.8274 H   0  0  0  0  0  0
    9.9224   14.0881   21.9583 H   0  0  0  0  0  0
   11.5424   12.8636   13.0286 H   0  0  0  0  0  0
    9.1323   13.3927   12.9202 H   0  0  0  0  0  0
    8.5170   12.3663   16.9524 H   0  0  0  0  0  0
    5.6781   13.6038   13.7585 H   0  0  0  0  0  0
    7.1760   13.5908   12.7671 H   0  0  0  0  0  0
    5.7141    6.1123   16.2332 H   0  0  0  0  0  0
    5.3355    7.0303   17.8592 H   0  0  0  0  0  0
    5.3900    9.6094   17.8158 H   0  0  0  0  0  0
    5.8516   11.7174   16.4995 H   0  0  0  0  0  0
    7.1053   11.4108   11.5063 H   0  0  0  0  0  0
  1  2  1  0  0  0
  2  3  2  0  0  0
  2 14  1  0  0  0
  3  4  1  0  0  0
  3 17  1  0  0  0
  4  5  1  0  0  0
  5  6  2  0  0  0
  5 10  1  0  0  0
  6  7  1  0  0  0
  6 30  1  0  0  0
  7  8  1  0  0  0
  7 13  2  0  0  0
  8  9  3  0  0  0
 10 11  2  0  0  0
 10 31  1  0  0  0
 11 12  1  0  0  0
 11 13  1  0  0  0
 13 32  1  0  0  0
 14 15  2  0  0  0
 14 33  1  0  0  0
 15 16  1  0  0  0
 15 34  1  0  0  0
 16 17  2  0  0  0
 16 18  1  0  0  0
 17 35  1  0  0  0
 18 19  1  0  0  0
 19 20  1  0  0  0
 19 36  1  0  0  0
 19 37  1  0  0  0
 20 21  2  0  0  0
 20 29  1  0  0  0
 21 22  1  0  0  0
 21 42  1  0  0  0
 22 23  1  0  0  0
 23 24  1  0  0  0
 23 29  2  0  0  0
 24 25  2  0  0  0
 25 26  1  0  0  0
 25 27  1  0  0  0
 26 38  1  0  0  0
 26 39  1  0  0  0
 27 28  2  0  0  0
 27 40  1  0  0  0
 28 29  1  0  0  0
 28 41  1  0  0  0
M  CHG  1  21   1
M  END
> <s_m_source_file>
../3drp_ligand.sdf

> <i_m_source_file_index>
1

> <s_epik_input>
W2NIXTFjKENsKVtjSF1jKEMjTilbY0hdYzFPYyhjMkNsKVtjSF1jKFtjSF1bY0hdMilPW0NIMl1jKG5bbkhdMyljKGMzNClbY0hdW2NIXWMobjQpW05IMl0=

> <s_epik_cmdline>
J2VwaWtfYXBwJywgJy1pbWFlJywgJ2xpZ2FuZF9wcm8ubWFlJywgJy1vbWFlJywgJ2xpZ2FuZF9wcmVwLm1hZScsICctbXMnLCAnMScsICctcGgnLCAnNycsICctcGh0JywgJzAuNScsICctbnQn

> <r_lp_tautomer_probability>
1

> <r_epik_Ionization_Penalty>
  0.0000

> <r_epik_Ionization_Penalty_Charging>
  0.0000

> <r_epik_Ionization_Penalty_Neutral>
  0.0000

> <r_epik_State_Penalty>
 -0.0000

> <r_epik_Charging_Adjusted_Penalty>
0

> <i_epik_Tot_Q>
1

> <i_epik_Tot_abs_Q>
1

$$$$
