3drr_ligand
                    3D
 Schrodinger Suite 2020-3.
 42 45  0  0  1  0            999 V2000
   13.0100   12.0850   15.4700 Cl  0  0  0  0  0  0
   11.3280   12.4730   15.0580 C   0  0  0  0  0  0
   10.4920   12.4030   16.1240 C   0  0  0  0  0  0
   11.0970   12.0340   17.3620 O   0  0  0  0  0  0
   10.8090   12.4970   18.6100 C   0  0  0  0  0  0
   10.5220   11.6790   19.6610 C   0  0  0  0  0  0
   10.1980   12.2470   20.9090 C   0  0  0  0  0  0
    9.9950   11.4250   21.7820 C   0  0  0  0  0  0
    9.8160   10.6890   22.5610 N   0  0  0  0  0  0
   10.8160   13.8130   18.8230 C   0  0  0  0  0  0
   10.5120   14.3770   20.0560 C   0  0  0  0  0  0
   10.5630   16.1340   19.9710 Cl  0  0  0  0  0  0
   10.1790   13.6430   21.1860 C   0  0  0  0  0  0
   10.9100   12.8050   13.7610 C   0  0  0  0  0  0
    9.5590   13.0700   13.5820 C   0  0  0  0  0  0
    8.6630   12.9970   14.6390 C   0  0  0  0  0  0
    9.1270   12.6530   15.9120 C   0  0  0  0  0  0
    7.3170   13.2470   14.4890 O   0  0  0  0  0  0
    6.5500   12.8610   13.4190 C   0  0  0  0  0  0
    6.5460   11.3600   13.4680 C   0  0  0  0  0  0
    6.8270   10.4970   12.4500 N   0  3  0  0  0  0
    6.6640    9.1960   12.9070 N   0  0  0  0  0  0
    6.2990    9.2130   14.1750 C   0  0  0  0  0  0
    6.0480    8.2270   15.0050 N   0  0  0  0  0  0
    5.7130    8.4670   16.2640 C   0  0  0  0  0  0
    5.4530    7.2800   17.0600 N   0  0  0  0  0  0
    5.6540    9.7390   16.8220 C   0  0  0  0  0  0
    5.8610   10.8100   15.9480 C   0  0  0  0  0  0
    6.2140   10.5020   14.6270 C   0  0  0  0  0  0
   10.5428   10.5962   19.5376 H   0  0  0  0  0  0
   11.0709   14.4745   17.9950 H   0  0  0  0  0  0
    9.9356   14.0774   22.1556 H   0  0  0  0  0  0
   11.6144   12.8528   12.9306 H   0  0  0  0  0  0
    9.1948   13.3409   12.5910 H   0  0  0  0  0  0
    8.4261   12.5786   16.7434 H   0  0  0  0  0  0
    5.5362   13.2742   13.5265 H   0  0  0  0  0  0
    7.0023   13.2364   12.4892 H   0  0  0  0  0  0
    5.5057    6.2841   16.5959 H   0  0  0  0  0  0
    5.2034    7.3770   18.1269 H   0  0  0  0  0  0
    5.4571    9.8927   17.8830 H   0  0  0  0  0  0
    5.7523   11.8425   16.2802 H   0  0  0  0  0  0
    7.1255   10.8864   11.4655 H   0  0  0  0  0  0
  1  2  1  0  0  0
  2  3  2  0  0  0
  2 14  1  0  0  0
  3  4  1  0  0  0
  3 17  1  0  0  0
  4  5  1  0  0  0
  5  6  2  0  0  0
  5 10  1  0  0  0
  6  7  1  0  0  0
  6 30  1  0  0  0
  7  8  1  0  0  0
  7 13  2  0  0  0
  8  9  3  0  0  0
 10 11  2  0  0  0
 10 31  1  0  0  0
 11 12  1  0  0  0
 11 13  1  0  0  0
 13 32  1  0  0  0
 14 15  2  0  0  0
 14 33  1  0  0  0
 15 16  1  0  0  0
 15 34  1  0  0  0
 16 17  2  0  0  0
 16 18  1  0  0  0
 17 35  1  0  0  0
 18 19  1  0  0  0
 19 20  1  0  0  0
 19 36  1  0  0  0
 19 37  1  0  0  0
 20 21  2  0  0  0
 20 29  1  0  0  0
 21 22  1  0  0  0
 21 42  1  0  0  0
 22 23  1  0  0  0
 23 24  1  0  0  0
 23 29  2  0  0  0
 24 25  2  0  0  0
 25 26  1  0  0  0
 25 27  1  0  0  0
 26 38  1  0  0  0
 26 39  1  0  0  0
 27 28  2  0  0  0
 27 40  1  0  0  0
 28 29  1  0  0  0
 28 41  1  0  0  0
M  CHG  1  21   1
M  END
> <s_m_source_file>
../3drr_ligand.sdf

> <i_m_source_file_index>
1

> <s_epik_input>
W2NIXTFjKENsKVtjSF1jKEMjTilbY0hdYzFPYyhjMkNsKVtjSF1jKFtjSF1bY0hdMilPW0NIMl1jKG5bbkhdMyljKGMzNClbY0hdW2NIXWMobjQpW05IMl0=

> <s_epik_cmdline>
J2VwaWtfYXBwJywgJy1pbWFlJywgJ2xpZ2FuZF9wcm8ubWFlJywgJy1vbWFlJywgJ2xpZ2FuZF9wcmVwLm1hZScsICctbXMnLCAnMScsICctcGgnLCAnNycsICctcGh0JywgJzAuNScsICctbnQn

> <r_lp_tautomer_probability>
1

> <r_epik_Ionization_Penalty>
  0.0000

> <r_epik_Ionization_Penalty_Charging>
  0.0000

> <r_epik_Ionization_Penalty_Neutral>
  0.0000

> <r_epik_State_Penalty>
 -0.0000

> <r_epik_Charging_Adjusted_Penalty>
0

> <i_epik_Tot_Q>
1

> <i_epik_Tot_abs_Q>
1

$$$$
