3ds0_ligand
                    3D
 Schrodinger Suite 2020-3.
200203  0  0  1  0            999 V2000
  -16.1670   -1.5670  -21.2580 N   0  3  0  0  0  0
  -17.6340   -1.3130  -21.1870 C   0  0  2  0  0  0
  -17.8970    0.1360  -21.5760 C   0  0  0  0  0  0
  -16.9630    0.9470  -21.5750 O   0  0  0  0  0  0
  -18.2400   -1.6510  -19.7900 C   0  0  2  0  0  0
  -17.8730   -0.5960  -18.7490 C   0  0  0  0  0  0
  -17.8380   -3.0780  -19.3350 C   0  0  0  0  0  0
  -18.8330   -0.5050  -17.5910 C   0  0  0  0  0  0
  -19.1500    0.4400  -21.9110 N   0  0  0  0  0  0
  -19.5380    1.7620  -22.4050 C   0  0  2  0  0  0
  -20.4580    2.4740  -21.4200 C   0  0  0  0  0  0
  -20.9120    1.8900  -20.4310 O   0  0  0  0  0  0
  -20.3030    1.6490  -23.7340 C   0  0  2  0  0  0
  -21.4600    0.8210  -23.5440 O   0  0  0  0  0  0
  -19.4180    1.0490  -24.8270 C   0  0  0  0  0  0
  -20.7470    3.7390  -21.6940 N   0  0  0  0  0  0
  -21.6480    4.4810  -20.8260 C   0  0  2  0  0  0
  -23.0530    3.8750  -20.8540 C   0  0  0  0  0  0
  -23.7090    3.7860  -19.8070 O   0  0  0  0  0  0
  -21.6720    5.9640  -21.2050 C   0  0  0  0  0  0
  -22.5110    6.8110  -20.2810 C   0  0  0  0  0  0
  -22.3400    6.7620  -18.8950 C   0  0  0  0  0  0
  -23.4600    7.6680  -20.8080 C   0  0  0  0  0  0
  -23.1330    7.5500  -18.0470 C   0  0  0  0  0  0
  -24.2420    8.4580  -19.9700 C   0  0  0  0  0  0
  -24.0730    8.3980  -18.5990 C   0  0  0  0  0  0
  -23.4990    3.4460  -22.0380 N   0  0  0  0  0  0
  -24.7730    2.7220  -22.1590 C   0  0  2  0  0  0
  -24.8610    1.4770  -21.2740 C   0  0  0  0  0  0
  -25.9350    1.1610  -20.7680 O   0  0  0  0  0  0
  -25.0540    2.3740  -23.6150 C   0  0  0  0  0  0
  -25.4180    3.6010  -24.4020 C   0  0  0  0  0  0
  -25.7200    3.3440  -25.8780 C   0  0  0  0  0  0
  -26.1210    2.2220  -26.2530 O   0  0  0  0  0  0
  -25.5820    4.3050  -26.6690 O   0  0  0  0  0  0
  -23.7430    0.7740  -21.0850 N   0  0  0  0  0  0
  -23.6960   -0.3760  -20.1620 C   0  0  2  0  0  0
  -23.9710    0.0700  -18.7250 C   0  0  0  0  0  0
  -24.6850   -0.6250  -17.9960 O   0  0  0  0  0  0
  -22.3520   -1.0930  -20.1990 C   0  0  0  0  0  0
  -22.0590   -1.7280  -21.5450 C   0  0  0  0  0  0
  -23.0120   -2.1250  -22.2490 O   0  0  0  0  0  0
  -20.8730   -1.8560  -21.8890 O   0  0  0  0  0  0
  -23.4260    1.2230  -18.3240 N   0  0  0  0  0  0
  -23.6950    1.7440  -16.9770 C   0  0  2  0  0  0
  -25.1560    2.1300  -16.8430 C   0  0  0  0  0  0
  -25.7800    1.8230  -15.8320 O   0  0  0  0  0  0
  -22.7880    2.9400  -16.6270 C   0  0  0  0  0  0
  -21.2870    2.6140  -16.6210 C   0  0  0  0  0  0
  -20.4520    3.8870  -16.4220 C   0  0  0  0  0  0
  -20.9540    1.5550  -15.5410 C   0  0  0  0  0  0
  -25.6980    2.7690  -17.8750 N   0  0  0  0  0  0
  -27.1070    3.1560  -17.8610 C   0  0  2  0  0  0
  -28.0240    1.9430  -17.7080 C   0  0  0  0  0  0
  -29.0070    1.9940  -16.9410 O   0  0  0  0  0  0
  -27.4610    3.9770  -19.1140 C   0  0  0  0  0  0
  -26.8220    5.3590  -19.2140 C   0  0  0  0  0  0
  -26.9490    5.8910  -20.6400 C   0  0  0  0  0  0
  -27.4520    6.3420  -18.2050 C   0  0  0  0  0  0
  -27.7040    0.8630  -18.4220 N   0  0  0  0  0  0
  -28.4900   -0.3840  -18.3450 C   0  0  2  0  0  0
  -28.3560   -1.0180  -16.9610 C   0  0  0  0  0  0
  -29.3170   -1.5550  -16.3970 O   0  0  0  0  0  0
  -28.0320   -1.3990  -19.4020 C   0  0  0  0  0  0
  -28.4620   -1.0310  -20.8220 C   0  0  0  0  0  0
  -29.2510   -0.0840  -21.0210 O   0  0  0  0  0  0
  -27.9740   -1.7050  -21.7560 O   0  0  0  0  0  0
  -27.1400   -0.9770  -16.4190 N   0  0  0  0  0  0
  -26.8470   -1.6670  -15.1700 C   0  0  2  0  0  0
  -27.5930   -1.0060  -14.0130 C   0  0  0  0  0  0
  -28.2150   -1.6910  -13.1790 O   0  0  0  0  0  0
  -25.3390   -1.6350  -14.9280 C   0  0  0  0  0  0
  -24.8550   -2.4960  -13.7850 C   0  0  0  0  0  0
  -24.6430   -3.8630  -13.9570 C   0  0  0  0  0  0
  -24.5400   -1.9360  -12.5490 C   0  0  0  0  0  0
  -24.1680   -4.6500  -12.9030 C   0  0  0  0  0  0
  -24.0670   -2.7150  -11.4900 C   0  0  0  0  0  0
  -23.8790   -4.0690  -11.6690 C   0  0  0  0  0  0
  -23.4150   -4.8550  -10.6110 O   0  0  0  0  0  0
  -27.5560    0.3190  -13.9730 N   0  0  0  0  0  0
  -28.1380    1.0530  -12.8420 C   0  0  2  0  0  0
  -29.5560    1.5630  -13.0840 C   0  0  0  0  0  0
  -30.2350    1.9990  -12.1390 O   0  0  0  0  0  0
  -27.2260    2.2160  -12.4430 C   0  0  0  0  0  0
  -25.9180    1.7770  -11.8420 C   0  0  0  0  0  0
  -24.7170    1.9790  -12.5280 C   0  0  0  0  0  0
  -25.8670    1.1450  -10.5920 C   0  0  0  0  0  0
  -23.5060    1.5660  -11.9860 C   0  0  0  0  0  0
  -24.6470    0.7330  -10.0390 C   0  0  0  0  0  0
  -23.4690    0.9580  -10.7500 C   0  0  0  0  0  0
  -22.2450    0.5640  -10.2410 O   0  0  0  0  0  0
  -29.9860    1.5120  -14.3450 N   0  0  0  0  0  0
  -31.2910    2.0360  -14.7780 C   0  0  0  0  0  0
  -32.4040    1.0010  -14.7780 C   0  0  0  0  0  0
  -32.3680    0.0650  -13.9670 O   0  0  0  0  0  0
  -33.3920    1.1240  -15.7020 N   0  0  0  0  0  0
  -33.5540    1.8960  -16.9550 C   0  0  2  0  0  0
  -32.7460    3.1880  -17.1250 C   0  0  0  0  0  0
  -31.9380    3.3050  -18.0650 O   0  0  0  0  0  0
  -35.0530    2.2020  -16.9660 C   0  0  0  0  0  0
  -35.6680    0.9930  -16.3240 C   0  0  0  0  0  0
  -34.6210    0.3620  -15.4070 C   0  0  0  0  0  0
  -32.8930    4.1530  -16.3610 O   0  0  0  0  0  0
  -15.7988   -1.3112  -22.2625 H   0  0  0  0  0  0
  -15.9686   -2.6296  -21.0543 H   0  0  0  0  0  0
  -15.6510   -0.9476  -20.5096 H   0  0  0  0  0  0
  -18.1027   -1.9846  -21.9213 H   0  0  0  0  0  0
  -19.3368   -1.6239  -19.8690 H   0  0  0  0  0  0
  -16.8829   -0.8251  -18.3281 H   0  0  0  0  0  0
  -17.8487    0.3956  -19.2246 H   0  0  0  0  0  0
  -18.1199   -3.8037  -20.1121 H   0  0  0  0  0  0
  -18.3582   -3.3241  -18.3975 H   0  0  0  0  0  0
  -16.7508   -3.1184  -19.1726 H   0  0  0  0  0  0
  -18.4937    0.2754  -16.8940 H   0  0  0  0  0  0
  -18.8701   -1.4723  -17.0686 H   0  0  0  0  0  0
  -19.8359   -0.2517  -17.9652 H   0  0  0  0  0  0
  -19.9069   -0.3509  -21.8036 H   0  0  0  0  0  0
  -18.5821    2.2949  -22.5156 H   0  0  0  0  0  0
  -20.6725    2.6346  -24.0533 H   0  0  0  0  0  0
  -22.2157    1.0957  -22.7933 H   0  0  0  0  0  0
  -18.5319    1.6846  -24.9714 H   0  0  0  0  0  0
  -19.9853    0.9916  -25.7677 H   0  0  0  0  0  0
  -19.1002    0.0392  -24.5282 H   0  0  0  0  0  0
  -20.3066    4.2272  -22.5759 H   0  0  0  0  0  0
  -21.2291    4.3739  -19.8145 H   0  0  0  0  0  0
  -20.6483    6.3657  -21.1791 H   0  0  0  0  0  0
  -22.0846    6.0768  -22.2184 H   0  0  0  0  0  0
  -21.5825    6.1047  -18.4681 H   0  0  0  0  0  0
  -23.5967    7.7253  -21.8879 H   0  0  0  0  0  0
  -23.0086    7.4935  -16.9656 H   0  0  0  0  0  0
  -24.9902    9.1263  -20.3962 H   0  0  0  0  0  0
  -24.6854    9.0238  -17.9499 H   0  0  0  0  0  0
  -22.8919    3.6444  -22.9336 H   0  0  0  0  0  0
  -25.5199    3.4391  -21.7876 H   0  0  0  0  0  0
  -24.1575    1.9209  -24.0633 H   0  0  0  0  0  0
  -25.8901    1.6611  -23.6668 H   0  0  0  0  0  0
  -26.3178    4.0614  -23.9680 H   0  0  0  0  0  0
  -24.5856    4.3192  -24.3673 H   0  0  0  0  0  0
  -25.7876    4.1689  -27.7410 H   0  0  0  0  0  0
  -22.8406    1.0718  -21.6391 H   0  0  0  0  0  0
  -24.4822   -1.0522  -20.5289 H   0  0  0  0  0  0
  -21.5471   -0.3744  -19.9851 H   0  0  0  0  0  0
  -22.3414   -1.8914  -19.4424 H   0  0  0  0  0  0
  -22.8174   -2.5878  -23.2277 H   0  0  0  0  0  0
  -22.7726    1.7823  -19.0097 H   0  0  0  0  0  0
  -23.4706    0.9086  -16.2975 H   0  0  0  0  0  0
  -22.9400    3.7432  -17.3631 H   0  0  0  0  0  0
  -23.0409    3.3105  -15.6226 H   0  0  0  0  0  0
  -21.0295    2.1964  -17.6055 H   0  0  0  0  0  0
  -20.7089    4.6196  -17.2013 H   0  0  0  0  0  0
  -19.3826    3.6385  -16.4906 H   0  0  0  0  0  0
  -20.6662    4.3149  -15.4315 H   0  0  0  0  0  0
  -21.5656    0.6561  -15.7081 H   0  0  0  0  0  0
  -21.1718    1.9666  -14.5444 H   0  0  0  0  0  0
  -19.8882    1.2902  -15.6035 H   0  0  0  0  0  0
  -25.0712    3.0060  -18.7473 H   0  0  0  0  0  0
  -27.2181    3.7832  -16.9642 H   0  0  0  0  0  0
  -27.1431    3.4290  -20.0133 H   0  0  0  0  0  0
  -28.5481    4.1411  -19.1498 H   0  0  0  0  0  0
  -25.7539    5.2572  -18.9715 H   0  0  0  0  0  0
  -26.4939    5.1751  -21.3403 H   0  0  0  0  0  0
  -26.4322    6.8589  -20.7176 H   0  0  0  0  0  0
  -28.0124    6.0221  -20.8891 H   0  0  0  0  0  0
  -27.3488    5.9386  -17.1869 H   0  0  0  0  0  0
  -28.5182    6.4756  -18.4402 H   0  0  0  0  0  0
  -26.9380    7.3124  -18.2687 H   0  0  0  0  0  0
  -26.8261    0.9199  -19.0824 H   0  0  0  0  0  0
  -29.5303   -0.0805  -18.5337 H   0  0  0  0  0  0
  -26.9340   -1.4648  -19.3956 H   0  0  0  0  0  0
  -28.4598   -2.3860  -19.1722 H   0  0  0  0  0  0
  -28.2497   -1.4823  -22.7974 H   0  0  0  0  0  0
  -26.3499   -0.4090  -16.9320 H   0  0  0  0  0  0
  -27.1984   -2.7033  -15.2824 H   0  0  0  0  0  0
  -24.8155   -1.9863  -15.8294 H   0  0  0  0  0  0
  -25.0260   -0.6054  -14.7000 H   0  0  0  0  0  0
  -24.8496   -4.3234  -14.9232 H   0  0  0  0  0  0
  -24.6657   -0.8630  -12.4044 H   0  0  0  0  0  0
  -24.0233   -5.7208  -13.0467 H   0  0  0  0  0  0
  -23.8476   -2.2544  -10.5268 H   0  0  0  0  0  0
  -23.2648   -5.9354  -10.7531 H   0  0  0  0  0  0
  -27.0823    0.8684  -14.7999 H   0  0  0  0  0  0
  -28.1997    0.2907  -12.0513 H   0  0  0  0  0  0
  -26.9926    2.8205  -13.3319 H   0  0  0  0  0  0
  -27.7363    2.8429  -11.6969 H   0  0  0  0  0  0
  -24.7306    2.4676  -13.5023 H   0  0  0  0  0  0
  -26.7913    0.9711  -10.0410 H   0  0  0  0  0  0
  -22.5812    1.7237  -12.5410 H   0  0  0  0  0  0
  -24.6194    0.2430   -9.0657 H   0  0  0  0  0  0
  -21.3252    0.7492  -10.8152 H   0  0  0  0  0  0
  -29.3088    1.0486  -15.0776 H   0  0  0  0  0  0
  -31.6024    2.8473  -14.1036 H   0  0  0  0  0  0
  -31.2084    2.4236  -15.8041 H   0  0  0  0  0  0
  -33.1535    1.2707  -17.7665 H   0  0  0  0  0  0
  -31.3611    4.2343  -18.1819 H   0  0  0  0  0  0
  -35.2438    3.1210  -16.3923 H   0  0  0  0  0  0
  -35.3914    2.3405  -18.0035 H   0  0  0  0  0  0
  -36.5504    1.2962  -15.7413 H   0  0  0  0  0  0
  -35.9711    0.2782  -17.1032 H   0  0  0  0  0  0
  -34.4560   -0.7018  -15.6331 H   0  0  0  0  0  0
  -34.8763    0.4754  -14.3431 H   0  0  0  0  0  0
  1  2  1  0  0  0
  1104  1  0  0  0
  1105  1  0  0  0
  1106  1  0  0  0
  2  3  1  0  0  0
  2  5  1  0  0  0
  2107  1  0  0  0
  3  4  2  0  0  0
  3  9  1  0  0  0
  5  6  1  0  0  0
  5  7  1  0  0  0
  5108  1  0  0  0
  6  8  1  0  0  0
  6109  1  0  0  0
  6110  1  0  0  0
  7111  1  0  0  0
  7112  1  0  0  0
  7113  1  0  0  0
  8114  1  0  0  0
  8115  1  0  0  0
  8116  1  0  0  0
  9 10  1  0  0  0
  9117  1  0  0  0
 10 11  1  0  0  0
 10 13  1  0  0  0
 10118  1  0  0  0
 11 12  2  0  0  0
 11 16  1  0  0  0
 13 14  1  0  0  0
 13 15  1  0  0  0
 13119  1  0  0  0
 14120  1  0  0  0
 15121  1  0  0  0
 15122  1  0  0  0
 15123  1  0  0  0
 16 17  1  0  0  0
 16124  1  0  0  0
 17 18  1  0  0  0
 17 20  1  0  0  0
 17125  1  0  0  0
 18 19  2  0  0  0
 18 27  1  0  0  0
 20 21  1  0  0  0
 20126  1  0  0  0
 20127  1  0  0  0
 21 22  2  0  0  0
 21 23  1  0  0  0
 22 24  1  0  0  0
 22128  1  0  0  0
 23 25  2  0  0  0
 23129  1  0  0  0
 24 26  2  0  0  0
 24130  1  0  0  0
 25 26  1  0  0  0
 25131  1  0  0  0
 26132  1  0  0  0
 27 28  1  0  0  0
 27133  1  0  0  0
 28 29  1  0  0  0
 28 31  1  0  0  0
 28134  1  0  0  0
 29 30  2  0  0  0
 29 36  1  0  0  0
 31 32  1  0  0  0
 31135  1  0  0  0
 31136  1  0  0  0
 32 33  1  0  0  0
 32137  1  0  0  0
 32138  1  0  0  0
 33 34  2  0  0  0
 33 35  1  0  0  0
 35139  1  0  0  0
 36 37  1  0  0  0
 36140  1  0  0  0
 37 38  1  0  0  0
 37 40  1  0  0  0
 37141  1  0  0  0
 38 39  2  0  0  0
 38 44  1  0  0  0
 40 41  1  0  0  0
 40142  1  0  0  0
 40143  1  0  0  0
 41 42  1  0  0  0
 41 43  2  0  0  0
 42144  1  0  0  0
 44 45  1  0  0  0
 44145  1  0  0  0
 45 46  1  0  0  0
 45 48  1  0  0  0
 45146  1  0  0  0
 46 47  2  0  0  0
 46 52  1  0  0  0
 48 49  1  0  0  0
 48147  1  0  0  0
 48148  1  0  0  0
 49 50  1  0  0  0
 49 51  1  0  0  0
 49149  1  0  0  0
 50150  1  0  0  0
 50151  1  0  0  0
 50152  1  0  0  0
 51153  1  0  0  0
 51154  1  0  0  0
 51155  1  0  0  0
 52 53  1  0  0  0
 52156  1  0  0  0
 53 54  1  0  0  0
 53 56  1  0  0  0
 53157  1  0  0  0
 54 55  2  0  0  0
 54 60  1  0  0  0
 56 57  1  0  0  0
 56158  1  0  0  0
 56159  1  0  0  0
 57 58  1  0  0  0
 57 59  1  0  0  0
 57160  1  0  0  0
 58161  1  0  0  0
 58162  1  0  0  0
 58163  1  0  0  0
 59164  1  0  0  0
 59165  1  0  0  0
 59166  1  0  0  0
 60 61  1  0  0  0
 60167  1  0  0  0
 61 62  1  0  0  0
 61 64  1  0  0  0
 61168  1  0  0  0
 62 63  2  0  0  0
 62 68  1  0  0  0
 64 65  1  0  0  0
 64169  1  0  0  0
 64170  1  0  0  0
 65 66  2  0  0  0
 65 67  1  0  0  0
 67171  1  0  0  0
 68 69  1  0  0  0
 68172  1  0  0  0
 69 70  1  0  0  0
 69 72  1  0  0  0
 69173  1  0  0  0
 70 71  2  0  0  0
 70 80  1  0  0  0
 72 73  1  0  0  0
 72174  1  0  0  0
 72175  1  0  0  0
 73 74  2  0  0  0
 73 75  1  0  0  0
 74 76  1  0  0  0
 74176  1  0  0  0
 75 77  2  0  0  0
 75177  1  0  0  0
 76 78  2  0  0  0
 76178  1  0  0  0
 77 78  1  0  0  0
 77179  1  0  0  0
 78 79  1  0  0  0
 79180  1  0  0  0
 80 81  1  0  0  0
 80181  1  0  0  0
 81 82  1  0  0  0
 81 84  1  0  0  0
 81182  1  0  0  0
 82 83  2  0  0  0
 82 92  1  0  0  0
 84 85  1  0  0  0
 84183  1  0  0  0
 84184  1  0  0  0
 85 86  2  0  0  0
 85 87  1  0  0  0
 86 88  1  0  0  0
 86185  1  0  0  0
 87 89  2  0  0  0
 87186  1  0  0  0
 88 90  2  0  0  0
 88187  1  0  0  0
 89 90  1  0  0  0
 89188  1  0  0  0
 90 91  1  0  0  0
 91189  1  0  0  0
 92 93  1  0  0  0
 92190  1  0  0  0
 93 94  1  0  0  0
 93191  1  0  0  0
 93192  1  0  0  0
 94 95  2  0  0  0
 94 96  1  0  0  0
 96 97  1  0  0  0
 96102  1  0  0  0
 97 98  1  0  0  0
 97100  1  0  0  0
 97193  1  0  0  0
 98 99  1  0  0  0
 98103  2  0  0  0
 99194  1  0  0  0
100101  1  0  0  0
100195  1  0  0  0
100196  1  0  0  0
101102  1  0  0  0
101197  1  0  0  0
101198  1  0  0  0
102199  1  0  0  0
102200  1  0  0  0
M  CHG  1   1   1
M  END
> <s_m_source_file>
../3ds0_ligand.sdf

> <i_m_source_file_index>
1

> <s_epik_input>
W0NIM11bQ0gyXVtDQEhdKFtDSDNdKVtDQEhdKFtOSDMrXSlDKD1PKVtOSF1bQ0BASF0oW0NASF0oW09IXSlbQ0gzXSlDKD1PKVtOSF1bQ0BASF0oW0NIMl1jMVtjSF1bY0hdW2NIXVtjSF1bY0hdMSlDKD1PKVtOSF1bQ0BASF0oW0NIMl1bQ0gyXUMoPU8pW09IXSlDKD1PKVtOSF1bQ0BASF0oW0NIMl1DKD1PKVtPSF0pQyg9TylbTkhdW0NAQEhdKFtDSDJdW0NIXShbQ0gzXSlbQ0gzXSlDKD1PKVtOSF1bQ0BASF0oW0NIMl1bQ0hdKFtDSDNdKVtDSDNdKUMoPU8pW05IXVtDQEBIXShbQ0gyXUMoPU8pW09IXSlDKD1PKVtOSF1bQ0BASF0oW0NIMl1jMltjSF1bY0hdYyhbT0hdKVtjSF1bY0hdMilDKD1PKVtOSF1bQ0BASF0oW0NIMl1jM1tjSF1bY0hdYyhbT0hdKVtjSF1bY0hdMylDKD1PKVtOSF1bQ0gyXUMoPU8pTjRbQ0BIXShDKD1PKVtPSF0pW0NIMl1bQ0gyXVtDSDJdNA==

> <s_epik_cmdline>
J2VwaWtfYXBwJywgJy1pbWFlJywgJ2xpZ2FuZF9wcm8ubWFlJywgJy1vbWFlJywgJ2xpZ2FuZF9wcmVwLm1hZScsICctbXMnLCAnMScsICctcGgnLCAnNycsICctcGh0JywgJzAuNScsICctbnQn

> <s_epik_pKa_notes>
Molecule size exceeds maximum supported for generating protonation states

$$$$
