3ds1_ligand
                    3D
 Schrodinger Suite 2020-3.
185187  0  0  1  0            999 V2000
    5.3740   22.9580   43.9430 N   0  3  0  0  0  0
    3.9100   22.6490   43.9020 C   0  0  2  0  0  0
    3.6910   21.1920   44.2610 C   0  0  0  0  0  0
    4.6380   20.3930   44.2550 O   0  0  0  0  0  0
    3.2220   22.9640   42.5380 C   0  0  2  0  0  0
    3.7370   22.0620   41.4220 C   0  0  0  0  0  0
    3.3590   24.4480   42.1860 C   0  0  0  0  0  0
    2.7070   21.7800   40.3140 C   0  0  0  0  0  0
    2.4370   20.8680   44.5640 N   0  0  0  0  0  0
    2.0670   19.5310   45.0050 C   0  0  2  0  0  0
    1.1360   18.8750   43.9770 C   0  0  0  0  0  0
    0.6660   19.5230   43.0320 O   0  0  0  0  0  0
    1.3100   19.5950   46.3370 C   0  0  2  0  0  0
    0.1620   20.4550   46.1960 O   0  0  0  0  0  0
    2.2060   20.1290   47.4570 C   0  0  0  0  0  0
    0.8710   17.5840   44.1630 N   0  0  0  0  0  0
   -0.0300   16.8610   43.2710 C   0  0  2  0  0  0
   -1.4330   17.4750   43.3820 C   0  0  0  0  0  0
   -2.1550   17.5710   42.4040 O   0  0  0  0  0  0
   -0.0560   15.3780   43.6360 C   0  0  0  0  0  0
   -0.9420   14.5550   42.7610 C   0  0  0  0  0  0
   -0.8000   14.5830   41.3800 C   0  0  0  0  0  0
   -1.9240   13.7460   43.3150 C   0  0  0  0  0  0
   -1.6320   13.8170   40.5610 C   0  0  0  0  0  0
   -2.7460   12.9710   42.4900 C   0  0  0  0  0  0
   -2.6040   13.0140   41.1270 C   0  0  0  0  0  0
   -1.7930   17.8870   44.5900 N   0  0  0  0  0  0
   -3.0650   18.5690   44.8240 C   0  0  2  0  0  0
   -3.2500   19.8140   43.9560 C   0  0  0  0  0  0
   -4.3520   20.0920   43.5160 O   0  0  0  0  0  0
   -3.1900   18.9170   46.3080 C   0  0  0  0  0  0
   -3.2990   17.6580   47.1560 C   0  0  0  0  0  0
   -3.3230   17.9600   48.6520 C   0  0  0  0  0  0
   -4.2630   18.6600   49.1030 O   0  0  0  0  0  0
   -2.4060   17.5010   49.3680 O   0  0  0  0  0  0
   -2.1730   20.5600   43.7250 N   0  0  0  0  0  0
   -2.1900   21.7340   42.8260 C   0  0  2  0  0  0
   -2.4820   21.2750   41.3980 C   0  0  0  0  0  0
   -3.2170   21.9390   40.6640 O   0  0  0  0  0  0
   -0.8610   22.4820   42.8530 C   0  0  0  0  0  0
   -0.5410   23.0670   44.2240 C   0  0  0  0  0  0
   -1.4740   23.4530   44.9360 O   0  0  0  0  0  0
    0.6490   23.1420   44.5640 O   0  0  0  0  0  0
   -1.9040   20.1410   41.0040 N   0  0  0  0  0  0
   -2.1690   19.6030   39.6600 C   0  0  2  0  0  0
   -3.6290   19.2080   39.5510 C   0  0  0  0  0  0
   -4.2970   19.5560   38.5640 O   0  0  0  0  0  0
   -1.2610   18.4180   39.3340 C   0  0  0  0  0  0
    0.2370   18.7630   39.2210 C   0  0  0  0  0  0
    1.0590   17.5060   39.0510 C   0  0  0  0  0  0
    0.4960   19.7000   38.0360 C   0  0  0  0  0  0
   -4.1350   18.5180   40.5680 N   0  0  0  0  0  0
   -5.5570   18.1100   40.5650 C   0  0  2  0  0  0
   -6.4990   19.3030   40.4500 C   0  0  0  0  0  0
   -7.5220   19.2430   39.7200 O   0  0  0  0  0  0
   -5.8890   17.2790   41.8170 C   0  0  0  0  0  0
   -5.2690   15.8800   41.8680 C   0  0  0  0  0  0
   -5.3880   15.3020   43.2770 C   0  0  0  0  0  0
   -5.8880   14.9470   40.8350 C   0  0  0  0  0  0
   -6.1660   20.3710   41.1670 N   0  0  0  0  0  0
   -6.9540   21.6020   41.1490 C   0  0  2  0  0  0
   -6.8780   22.2630   39.7810 C   0  0  0  0  0  0
   -7.8670   22.8160   39.2970 O   0  0  0  0  0  0
   -6.4690   22.5850   42.2150 C   0  0  0  0  0  0
   -6.8890   22.1950   43.6380 C   0  0  0  0  0  0
   -7.7200   21.2780   43.8360 O   0  0  0  0  0  0
   -6.3590   22.8350   44.5720 O   0  0  0  0  0  0
   -5.6980   22.2190   39.1580 N   0  0  0  0  0  0
   -5.4600   22.9580   37.9120 C   0  0  2  0  0  0
   -6.2290   22.3010   36.7790 C   0  0  0  0  0  0
   -6.9160   22.9730   36.0000 O   0  0  0  0  0  0
   -3.9670   22.9220   37.5750 C   0  0  0  0  0  0
   -3.5430   23.7710   36.3850 C   0  0  0  0  0  0
   -3.4380   25.1590   36.4900 C   0  0  0  0  0  0
   -3.1950   23.1790   35.1710 C   0  0  0  0  0  0
   -3.0330   25.9350   35.4120 C   0  0  0  0  0  0
   -2.7690   23.9500   34.0850 C   0  0  0  0  0  0
   -2.6920   25.3250   34.2110 C   0  0  0  0  0  0
   -2.2890   26.1170   33.1460 O   0  0  0  0  0  0
   -6.0890   20.9880   36.6810 N   0  0  0  0  0  0
   -6.6640   20.2290   35.5740 C   0  0  2  0  0  0
   -8.0870   19.7460   35.8350 C   0  0  0  0  0  0
   -8.8180   19.4480   34.8860 O   0  0  0  0  0  0
   -5.7480   19.0590   35.1990 C   0  0  0  0  0  0
   -4.4480   19.5140   34.5660 C   0  0  0  0  0  0
   -3.2270   19.3350   35.2220 C   0  0  0  0  0  0
   -4.4370   20.1430   33.3180 C   0  0  0  0  0  0
   -2.0430   19.7750   34.6620 C   0  0  0  0  0  0
   -3.2510   20.5840   32.7390 C   0  0  0  0  0  0
   -2.0420   20.3700   33.4150 C   0  0  0  0  0  0
   -0.8400   20.7920   32.8770 O   0  0  0  0  0  0
   -8.4690   19.6730   37.1110 N   0  0  0  0  0  0
   -9.8210   19.2750   37.5280 C   0  0  0  0  0  0
  -10.8300   20.4100   37.4660 C   0  0  0  0  0  0
  -10.6520   21.3430   36.6730 O   0  0  0  0  0  0
    5.7742   22.7064   44.9363 H   0  0  0  0  0  0
    5.5283   24.0292   43.7461 H   0  0  0  0  0  0
    5.8954   22.3655   43.1768 H   0  0  0  0  0  0
    3.4694   23.3080   44.6646 H   0  0  0  0  0  0
    2.1463   22.7497   42.6215 H   0  0  0  0  0  0
    4.6072   22.5333   40.9417 H   0  0  0  0  0  0
    4.0326   21.0898   41.8433 H   0  0  0  0  0  0
    2.9764   25.0588   43.0170 H   0  0  0  0  0  0
    2.7805   24.6638   41.2756 H   0  0  0  0  0  0
    4.4185   24.6874   42.0125 H   0  0  0  0  0  0
    3.1571   21.1256   39.5530 H   0  0  0  0  0  0
    2.4012   22.7282   39.8478 H   0  0  0  0  0  0
    1.8266   21.2847   40.7493 H   0  0  0  0  0  0
    1.6682   21.6493   44.4722 H   0  0  0  0  0  0
    3.0207   18.9919   45.1041 H   0  0  0  0  0  0
    0.9310   18.5969   46.6019 H   0  0  0  0  0  0
   -0.6018   20.2326   45.4363 H   0  0  0  0  0  0
    3.0836   19.4751   47.5677 H   0  0  0  0  0  0
    1.6413   20.1478   48.4008 H   0  0  0  0  0  0
    2.5371   21.1479   47.2074 H   0  0  0  0  0  0
    1.3449   17.0620   45.0073 H   0  0  0  0  0  0
    0.3641   16.9700   42.2498 H   0  0  0  0  0  0
    0.9592   14.9624   43.5541 H   0  0  0  0  0  0
   -0.4180   15.2607   44.6681 H   0  0  0  0  0  0
   -0.0303   15.2101   40.9301 H   0  0  0  0  0  0
   -2.0553   13.7143   44.3966 H   0  0  0  0  0  0
   -1.5151   13.8523   39.4779 H   0  0  0  0  0  0
   -3.5055   12.3277   42.9344 H   0  0  0  0  0  0
   -3.2566   12.4159   40.4909 H   0  0  0  0  0  0
   -1.1051   17.7032   45.4284 H   0  0  0  0  0  0
   -3.8324   17.8422   44.5193 H   0  0  0  0  0  0
   -2.3022   19.4822   46.6281 H   0  0  0  0  0  0
   -4.0906   19.5283   46.4667 H   0  0  0  0  0  0
   -4.2276   17.1252   46.9035 H   0  0  0  0  0  0
   -2.4361   17.0056   46.9564 H   0  0  0  0  0  0
   -4.3078   18.8948   50.1767 H   0  0  0  0  0  0
   -1.2423   20.2717   44.2356 H   0  0  0  0  0  0
   -2.9814   22.3985   43.2029 H   0  0  0  0  0  0
   -0.0470   21.7931   42.5830 H   0  0  0  0  0  0
   -0.8928   23.3123   42.1322 H   0  0  0  0  0  0
    0.9151   23.5589   45.5465 H   0  0  0  0  0  0
   -1.2270   19.6066   41.6867 H   0  0  0  0  0  0
   -1.9455   20.4146   38.9520 H   0  0  0  0  0  0
   -1.3524   17.6579   40.1239 H   0  0  0  0  0  0
   -1.5594   17.9819   38.3692 H   0  0  0  0  0  0
    0.5492   19.2609   40.1509 H   0  0  0  0  0  0
    0.8759   16.8306   39.8997 H   0  0  0  0  0  0
    2.1267   17.7682   39.0147 H   0  0  0  0  0  0
    0.7726   17.0044   38.1148 H   0  0  0  0  0  0
   -0.1006   20.6164   38.1559 H   0  0  0  0  0  0
    0.2102   19.1961   37.1009 H   0  0  0  0  0  0
    1.5643   19.9599   38.0008 H   0  0  0  0  0  0
   -3.4878   18.2505   41.4163 H   0  0  0  0  0  0
   -5.6747   17.4978   39.6587 H   0  0  0  0  0  0
   -5.5320   17.8076   42.7132 H   0  0  0  0  0  0
   -6.9777   17.1367   41.8846 H   0  0  0  0  0  0
   -4.2026   15.9679   41.6128 H   0  0  0  0  0  0
   -4.9331   15.9971   43.9981 H   0  0  0  0  0  0
   -4.8668   14.3344   43.3216 H   0  0  0  0  0  0
   -6.4498   15.1584   43.5259 H   0  0  0  0  0  0
   -5.7866   15.3901   39.8333 H   0  0  0  0  0  0
   -6.9537   14.8006   41.0651 H   0  0  0  0  0  0
   -5.3706   13.9766   40.8607 H   0  0  0  0  0  0
   -5.2616   20.3060   41.7897 H   0  0  0  0  0  0
   -7.9851   21.2863   41.3661 H   0  0  0  0  0  0
   -5.3702   22.6337   42.1961 H   0  0  0  0  0  0
   -6.8838   23.5829   42.0095 H   0  0  0  0  0  0
   -8.0102   21.0110   44.8629 H   0  0  0  0  0  0
   -4.8942   21.6113   39.5991 H   0  0  0  0  0  0
   -5.8097   23.9884   38.0732 H   0  0  0  0  0  0
   -3.3877   23.2848   38.4369 H   0  0  0  0  0  0
   -3.6687   21.8894   37.3412 H   0  0  0  0  0  0
   -3.6786   25.6431   37.4365 H   0  0  0  0  0  0
   -3.2562   22.0957   35.0669 H   0  0  0  0  0  0
   -2.9827   27.0196   35.5077 H   0  0  0  0  0  0
   -2.4991   23.4699   33.1444 H   0  0  0  0  0  0
   -2.2332   27.2093   33.2631 H   0  0  0  0  0  0
   -5.5192   20.4694   37.4661 H   0  0  0  0  0  0
   -6.7199   20.9640   34.7576 H   0  0  0  0  0  0
   -5.4995   18.4836   36.1030 H   0  0  0  0  0  0
   -6.2631   18.4062   34.4789 H   0  0  0  0  0  0
   -3.2084   18.8395   36.1927 H   0  0  0  0  0  0
   -5.3773   20.2913   32.7870 H   0  0  0  0  0  0
   -1.1064   19.6523   35.2059 H   0  0  0  0  0  0
   -3.2621   21.0889   31.7731 H   0  0  0  0  0  0
    0.0989   20.6152   33.4222 H   0  0  0  0  0  0
   -7.7131   19.9293   37.8679 H   0  0  0  0  0  0
  -10.1860   18.4721   36.8706 H   0  0  0  0  0  0
   -9.7930   18.9141   38.5667 H   0  0  0  0  0  0
  -11.7141   20.4055   38.1204 H   0  0  0  0  0  0
  1  2  1  0  0  0
  1 96  1  0  0  0
  1 97  1  0  0  0
  1 98  1  0  0  0
  2  3  1  0  0  0
  2  5  1  0  0  0
  2 99  1  0  0  0
  3  4  2  0  0  0
  3  9  1  0  0  0
  5  6  1  0  0  0
  5  7  1  0  0  0
  5100  1  0  0  0
  6  8  1  0  0  0
  6101  1  0  0  0
  6102  1  0  0  0
  7103  1  0  0  0
  7104  1  0  0  0
  7105  1  0  0  0
  8106  1  0  0  0
  8107  1  0  0  0
  8108  1  0  0  0
  9 10  1  0  0  0
  9109  1  0  0  0
 10 11  1  0  0  0
 10 13  1  0  0  0
 10110  1  0  0  0
 11 12  2  0  0  0
 11 16  1  0  0  0
 13 14  1  0  0  0
 13 15  1  0  0  0
 13111  1  0  0  0
 14112  1  0  0  0
 15113  1  0  0  0
 15114  1  0  0  0
 15115  1  0  0  0
 16 17  1  0  0  0
 16116  1  0  0  0
 17 18  1  0  0  0
 17 20  1  0  0  0
 17117  1  0  0  0
 18 19  2  0  0  0
 18 27  1  0  0  0
 20 21  1  0  0  0
 20118  1  0  0  0
 20119  1  0  0  0
 21 22  2  0  0  0
 21 23  1  0  0  0
 22 24  1  0  0  0
 22120  1  0  0  0
 23 25  2  0  0  0
 23121  1  0  0  0
 24 26  2  0  0  0
 24122  1  0  0  0
 25 26  1  0  0  0
 25123  1  0  0  0
 26124  1  0  0  0
 27 28  1  0  0  0
 27125  1  0  0  0
 28 29  1  0  0  0
 28 31  1  0  0  0
 28126  1  0  0  0
 29 30  2  0  0  0
 29 36  1  0  0  0
 31 32  1  0  0  0
 31127  1  0  0  0
 31128  1  0  0  0
 32 33  1  0  0  0
 32129  1  0  0  0
 32130  1  0  0  0
 33 34  1  0  0  0
 33 35  2  0  0  0
 34131  1  0  0  0
 36 37  1  0  0  0
 36132  1  0  0  0
 37 38  1  0  0  0
 37 40  1  0  0  0
 37133  1  0  0  0
 38 39  2  0  0  0
 38 44  1  0  0  0
 40 41  1  0  0  0
 40134  1  0  0  0
 40135  1  0  0  0
 41 42  2  0  0  0
 41 43  1  0  0  0
 43136  1  0  0  0
 44 45  1  0  0  0
 44137  1  0  0  0
 45 46  1  0  0  0
 45 48  1  0  0  0
 45138  1  0  0  0
 46 47  2  0  0  0
 46 52  1  0  0  0
 48 49  1  0  0  0
 48139  1  0  0  0
 48140  1  0  0  0
 49 50  1  0  0  0
 49 51  1  0  0  0
 49141  1  0  0  0
 50142  1  0  0  0
 50143  1  0  0  0
 50144  1  0  0  0
 51145  1  0  0  0
 51146  1  0  0  0
 51147  1  0  0  0
 52 53  1  0  0  0
 52148  1  0  0  0
 53 54  1  0  0  0
 53 56  1  0  0  0
 53149  1  0  0  0
 54 55  2  0  0  0
 54 60  1  0  0  0
 56 57  1  0  0  0
 56150  1  0  0  0
 56151  1  0  0  0
 57 58  1  0  0  0
 57 59  1  0  0  0
 57152  1  0  0  0
 58153  1  0  0  0
 58154  1  0  0  0
 58155  1  0  0  0
 59156  1  0  0  0
 59157  1  0  0  0
 59158  1  0  0  0
 60 61  1  0  0  0
 60159  1  0  0  0
 61 62  1  0  0  0
 61 64  1  0  0  0
 61160  1  0  0  0
 62 63  2  0  0  0
 62 68  1  0  0  0
 64 65  1  0  0  0
 64161  1  0  0  0
 64162  1  0  0  0
 65 66  1  0  0  0
 65 67  2  0  0  0
 66163  1  0  0  0
 68 69  1  0  0  0
 68164  1  0  0  0
 69 70  1  0  0  0
 69 72  1  0  0  0
 69165  1  0  0  0
 70 71  2  0  0  0
 70 80  1  0  0  0
 72 73  1  0  0  0
 72166  1  0  0  0
 72167  1  0  0  0
 73 74  2  0  0  0
 73 75  1  0  0  0
 74 76  1  0  0  0
 74168  1  0  0  0
 75 77  2  0  0  0
 75169  1  0  0  0
 76 78  2  0  0  0
 76170  1  0  0  0
 77 78  1  0  0  0
 77171  1  0  0  0
 78 79  1  0  0  0
 79172  1  0  0  0
 80 81  1  0  0  0
 80173  1  0  0  0
 81 82  1  0  0  0
 81 84  1  0  0  0
 81174  1  0  0  0
 82 83  2  0  0  0
 82 92  1  0  0  0
 84 85  1  0  0  0
 84175  1  0  0  0
 84176  1  0  0  0
 85 86  2  0  0  0
 85 87  1  0  0  0
 86 88  1  0  0  0
 86177  1  0  0  0
 87 89  2  0  0  0
 87178  1  0  0  0
 88 90  2  0  0  0
 88179  1  0  0  0
 89 90  1  0  0  0
 89180  1  0  0  0
 90 91  1  0  0  0
 91181  1  0  0  0
 92 93  1  0  0  0
 92182  1  0  0  0
 93 94  1  0  0  0
 93183  1  0  0  0
 93184  1  0  0  0
 94 95  2  0  0  0
 94185  1  0  0  0
M  CHG  1   1   1
M  END
> <s_m_source_file>
../3ds1_ligand.sdf

> <i_m_source_file_index>
1

> <s_epik_input>
W0NIM11bQ0gyXVtDQEhdKFtDSDNdKVtDQEhdKFtOSDMrXSlDKD1PKVtOSF1bQ0BASF0oW0NASF0oW09IXSlbQ0gzXSlDKD1PKVtOSF1bQ0BASF0oW0NIMl1jMVtjSF1bY0hdW2NIXVtjSF1bY0hdMSlDKD1PKVtOSF1bQ0BASF0oW0NIMl1bQ0gyXUMoPU8pW09IXSlDKD1PKVtOSF1bQ0BASF0oW0NIMl1DKD1PKVtPSF0pQyg9TylbTkhdW0NAQEhdKFtDSDJdW0NIXShbQ0gzXSlbQ0gzXSlDKD1PKVtOSF1bQ0BASF0oW0NIMl1bQ0hdKFtDSDNdKVtDSDNdKUMoPU8pW05IXVtDQEBIXShbQ0gyXUMoPU8pW09IXSlDKD1PKVtOSF1bQ0BASF0oW0NIMl1jMltjSF1bY0hdYyhbT0hdKVtjSF1bY0hdMilDKD1PKVtOSF1bQ0BIXShDKD1PKVtOSF1bQ0gyXVtDSF09TylbQ0gyXWMzW2NIXVtjSF1jKFtPSF0pW2NIXVtjSF0z

> <s_epik_cmdline>
J2VwaWtfYXBwJywgJy1pbWFlJywgJ2xpZ2FuZF9wcm8ubWFlJywgJy1vbWFlJywgJ2xpZ2FuZF9wcmVwLm1hZScsICctbXMnLCAnMScsICctcGgnLCAnNycsICctcGh0JywgJzAuNScsICctbnQn

> <s_epik_pKa_notes>
Molecule size exceeds maximum supported for generating protonation states

$$$$
