3ds3_ligand
                    3D
 Schrodinger Suite 2020-3.
200203  0  0  1  0            999 V2000
   42.4600  -13.1590   20.5220 N   0  3  0  0  0  0
   41.6870  -12.0660   19.8620 C   0  0  2  0  0  0
   40.2040  -12.1480   20.2500 C   0  0  0  0  0  0
   39.5530  -13.1800   20.0730 O   0  0  0  0  0  0
   41.9190  -12.0590   18.3170 C   0  0  2  0  0  0
   41.3880  -10.7740   17.6740 C   0  0  0  0  0  0
   41.3350  -13.3010   17.6630 C   0  0  0  0  0  0
   40.0740  -10.9360   16.9470 C   0  0  0  0  0  0
   39.6830  -11.0580   20.8030 N   0  0  0  0  0  0
   38.3360  -11.0510   21.3640 C   0  0  2  0  0  0
   37.2660  -10.8810   20.2970 C   0  0  0  0  0  0
   37.5640  -10.6240   19.1320 O   0  0  0  0  0  0
   38.1730   -9.9330   22.4110 C   0  0  2  0  0  0
   38.1910   -8.6570   21.7580 O   0  0  0  0  0  0
   39.2970   -9.9860   23.4370 C   0  0  0  0  0  0
   36.0120  -11.0240   20.7060 N   0  0  0  0  0  0
   34.8910  -10.8270   19.8000 C   0  0  2  0  0  0
   34.6560   -9.3400   19.5710 C   0  0  0  0  0  0
   34.1470   -8.9350   18.5270 O   0  0  0  0  0  0
   33.6360  -11.4980   20.3550 C   0  0  0  0  0  0
   32.3810  -11.1630   19.6070 C   0  0  0  0  0  0
   32.2530  -11.4670   18.2640 C   0  0  0  0  0  0
   31.3150  -10.5660   20.2570 C   0  0  0  0  0  0
   31.0890  -11.1630   17.5770 C   0  0  0  0  0  0
   30.1490  -10.2660   19.5790 C   0  0  0  0  0  0
   30.0370  -10.5630   18.2360 C   0  0  0  0  0  0
   35.0410   -8.5220   20.5440 N   0  0  0  0  0  0
   34.9020   -7.0760   20.4070 C   0  0  2  0  0  0
   35.9080   -6.4940   19.4210 C   0  0  0  0  0  0
   35.6860   -5.4230   18.8590 O   0  0  0  0  0  0
   35.0130   -6.3970   21.7700 C   0  0  0  0  0  0
   33.7360   -6.5150   22.5830 C   0  0  0  0  0  0
   33.9930   -6.7490   24.0630 C   0  0  0  0  0  0
   33.2970   -6.1150   24.8900 O   0  0  0  0  0  0
   34.8830   -7.5700   24.3970 O   0  0  0  0  0  0
   37.0090   -7.2090   19.2110 N   0  0  0  0  0  0
   37.9750   -6.8290   18.1910 C   0  0  2  0  0  0
   37.3640   -6.9960   16.8060 C   0  0  0  0  0  0
   37.6100   -6.1880   15.9160 O   0  0  0  0  0  0
   39.2560   -7.6520   18.3130 C   0  0  0  0  0  0
   39.9810   -7.4090   19.6240 C   0  0  0  0  0  0
   40.9830   -8.1070   19.9020 O   0  0  0  0  0  0
   39.5380   -6.5190   20.3820 O   0  0  0  0  0  0
   36.5530   -8.0350   16.6340 N   0  0  0  0  0  0
   35.8620   -8.2660   15.3670 C   0  0  2  0  0  0
   34.8070   -7.2030   15.0810 C   0  0  0  0  0  0
   34.5420   -6.8780   13.9270 O   0  0  0  0  0  0
   35.2080   -9.6480   15.3480 C   0  0  0  0  0  0
   36.1050  -10.8470   15.0610 C   0  0  0  0  0  0
   35.2880  -12.1160   15.0890 C   0  0  0  0  0  0
   36.7780  -10.6850   13.7200 C   0  0  0  0  0  0
   34.2050   -6.6680   16.1360 N   0  0  0  0  0  0
   33.1750   -5.6520   15.9820 C   0  0  2  0  0  0
   33.7700   -4.2600   15.7810 C   0  0  0  0  0  0
   33.1520   -3.4050   15.1480 O   0  0  0  0  0  0
   32.2150   -5.6710   17.1710 C   0  0  0  0  0  0
   31.4030   -6.9610   17.3330 C   0  0  0  0  0  0
   30.5190   -6.8720   18.5650 C   0  0  0  0  0  0
   30.5740   -7.2510   16.0860 C   0  0  0  0  0  0
   34.9650   -4.0340   16.3200 N   0  0  0  0  0  0
   35.7180   -2.8240   16.0100 C   0  0  2  0  0  0
   36.0780   -2.8370   14.5340 C   0  0  0  0  0  0
   36.0970   -1.8010   13.8710 O   0  0  0  0  0  0
   37.0100   -2.7620   16.8260 C   0  0  0  0  0  0
   36.7730   -2.3980   18.2760 C   0  0  0  0  0  0
   35.6170   -2.0820   18.6310 O   0  0  0  0  0  0
   37.7460   -2.4290   19.0610 O   0  0  0  0  0  0
   36.3610   -4.0300   14.0280 N   0  0  0  0  0  0
   36.8710   -4.1880   12.6820 C   0  0  2  0  0  0
   35.7470   -4.2380   11.6510 C   0  0  0  0  0  0
   35.8790   -3.6960   10.5610 O   0  0  0  0  0  0
   37.7360   -5.4460   12.6020 C   0  0  0  0  0  0
   38.6640   -5.4840   11.4160 C   0  0  0  0  0  0
   39.9610   -5.0050   11.5100 C   0  0  0  0  0  0
   38.2430   -6.0020   10.2000 C   0  0  0  0  0  0
   40.8140   -5.0390   10.4220 C   0  0  0  0  0  0
   39.0830   -6.0410    9.1080 C   0  0  0  0  0  0
   40.3670   -5.5580    9.2220 C   0  0  0  0  0  0
   41.2040   -5.5940    8.1320 O   0  0  0  0  0  0
   34.6390   -4.8850   11.9900 N   0  0  0  0  0  0
   33.5530   -5.0420   11.0240 C   0  0  2  0  0  0
   32.3150   -4.2020   11.3420 C   0  0  0  0  0  0
   31.5130   -3.9190   10.4520 O   0  0  0  0  0  0
   33.2050   -6.5160   10.8310 C   0  0  0  0  0  0
   34.3100   -7.2820   10.1420 C   0  0  0  0  0  0
   35.2610   -7.9770   10.8740 C   0  0  0  0  0  0
   34.4170   -7.2880    8.7600 C   0  0  0  0  0  0
   36.2790   -8.6740   10.2450 C   0  0  0  0  0  0
   35.4310   -7.9780    8.1230 C   0  0  0  0  0  0
   36.3590   -8.6700    8.8690 C   0  0  0  0  0  0
   37.3700   -9.3580    8.2370 O   0  0  0  0  0  0
   32.1660   -3.8090   12.6050 N   0  0  0  0  0  0
   31.1400   -2.8370   12.9900 C   0  0  0  0  0  0
   29.8080   -3.3770   13.4890 C   0  0  0  0  0  0
   29.7690   -4.2620   14.3520 O   0  0  0  0  0  0
   28.7000   -2.8460   12.9390 N   0  0  0  0  0  0
   27.3410   -3.1140   13.4160 C   0  0  2  0  0  0
   26.8660   -4.5470   13.1430 C   0  0  0  0  0  0
   25.7000   -4.8800   13.3820 O   0  0  0  0  0  0
   26.4920   -2.1120   12.6260 C   0  0  0  0  0  0
   27.2450   -1.9030   11.3520 C   0  0  0  0  0  0
   28.7080   -2.0440   11.6990 C   0  0  0  0  0  0
   27.6260   -5.4070   12.6830 O   0  0  0  0  0  0
   42.2749  -13.1360   21.6061 H   0  0  0  0  0  0
   43.5337  -13.0161   20.3302 H   0  0  0  0  0  0
   42.1411  -14.1303   20.1161 H   0  0  0  0  0  0
   42.0747  -11.1188   20.2651 H   0  0  0  0  0  0
   43.0004  -12.0879   18.1179 H   0  0  0  0  0  0
   41.2320  -10.0121   18.4519 H   0  0  0  0  0  0
   42.1174  -10.4033   16.9388 H   0  0  0  0  0  0
   41.7408  -14.1985   18.1527 H   0  0  0  0  0  0
   41.6017  -13.3133   16.5959 H   0  0  0  0  0  0
   40.2400  -13.2898   17.7672 H   0  0  0  0  0  0
   39.7701   -9.9693   16.5192 H   0  0  0  0  0  0
   39.3048  -11.2827   17.6528 H   0  0  0  0  0  0
   40.1902  -11.6740   16.1396 H   0  0  0  0  0  0
   40.2953  -10.1446   20.8312 H   0  0  0  0  0  0
   38.2471  -12.0495   21.8169 H   0  0  0  0  0  0
   37.1981  -10.0114   22.9145 H   0  0  0  0  0  0
   37.4492   -8.4274   20.9789 H   0  0  0  0  0  0
   39.2875  -10.9636   23.9411 H   0  0  0  0  0  0
   39.1524   -9.1885   24.1807 H   0  0  0  0  0  0
   40.2630   -9.8441   22.9303 H   0  0  0  0  0  0
   35.8293  -11.2977   21.7556 H   0  0  0  0  0  0
   35.1754  -11.3041   18.8505 H   0  0  0  0  0  0
   33.7556  -12.5907   20.3134 H   0  0  0  0  0  0
   33.4840  -11.1852   21.3986 H   0  0  0  0  0  0
   33.0771  -11.9512   17.7401 H   0  0  0  0  0  0
   31.3963  -10.3293   21.3179 H   0  0  0  0  0  0
   31.0049  -11.3980   16.5160 H   0  0  0  0  0  0
   29.3183   -9.7951   20.1046 H   0  0  0  0  0  0
   29.1197  -10.3240   17.6979 H   0  0  0  0  0  0
   35.4697   -8.9487   21.4628 H   0  0  0  0  0  0
   33.8933   -6.9274   19.9942 H   0  0  0  0  0  0
   35.8261   -6.8625   22.3464 H   0  0  0  0  0  0
   35.2284   -5.3274   21.6304 H   0  0  0  0  0  0
   33.1537   -5.5866   22.4879 H   0  0  0  0  0  0
   33.1405   -7.3612   22.2097 H   0  0  0  0  0  0
   35.0876   -7.7566   25.4616 H   0  0  0  0  0  0
   37.1826   -8.1038   19.8268 H   0  0  0  0  0  0
   38.2039   -5.7696   18.3789 H   0  0  0  0  0  0
   39.0108   -8.7228   18.2554 H   0  0  0  0  0  0
   39.9408   -7.3881   17.4936 H   0  0  0  0  0  0
   41.5210   -7.9449   20.8477 H   0  0  0  0  0  0
   36.4077   -8.7298   17.4743 H   0  0  0  0  0  0
   36.6599   -8.1970   14.6130 H   0  0  0  0  0  0
   34.7543   -9.8524   16.3290 H   0  0  0  0  0  0
   34.4295   -9.6746   14.5713 H   0  0  0  0  0  0
   36.8869  -10.9161   15.8316 H   0  0  0  0  0  0
   34.8046  -12.2193   16.0717 H   0  0  0  0  0  0
   35.9458  -12.9796   14.9114 H   0  0  0  0  0  0
   34.5182  -12.0739   14.3043 H   0  0  0  0  0  0
   37.3685   -9.7570   13.7159 H   0  0  0  0  0  0
   36.0142  -10.6371   12.9299 H   0  0  0  0  0  0
   37.4418  -11.5428   13.5369 H   0  0  0  0  0  0
   34.4979   -7.0063   17.1408 H   0  0  0  0  0  0
   32.6406   -5.9389   15.0643 H   0  0  0  0  0  0
   32.7836   -5.5395   18.1034 H   0  0  0  0  0  0
   31.4866   -4.8533   17.0673 H   0  0  0  0  0  0
   32.0988   -7.8020   17.4697 H   0  0  0  0  0  0
   31.1407   -6.6626   19.4480 H   0  0  0  0  0  0
   29.9903   -7.8262   18.7066 H   0  0  0  0  0  0
   29.7858   -6.0627   18.4325 H   0  0  0  0  0  0
   31.2372   -7.3102   15.2104 H   0  0  0  0  0  0
   29.8412   -6.4442   15.9371 H   0  0  0  0  0  0
   30.0457   -8.2077   16.2112 H   0  0  0  0  0  0
   35.3836   -4.7804   17.0112 H   0  0  0  0  0  0
   35.0629   -1.9780   16.2650 H   0  0  0  0  0  0
   37.5054   -3.7439   16.8034 H   0  0  0  0  0  0
   37.6799   -2.0034   16.3950 H   0  0  0  0  0  0
   37.6061   -2.1698   20.1208 H   0  0  0  0  0  0
   36.1981   -4.9142   14.6617 H   0  0  0  0  0  0
   37.4738   -3.2865   12.4978 H   0  0  0  0  0  0
   38.3620   -5.5184   13.5036 H   0  0  0  0  0  0
   37.0884   -6.3325   12.5331 H   0  0  0  0  0  0
   40.3143   -4.5951   12.4562 H   0  0  0  0  0  0
   37.2272   -6.3860   10.1062 H   0  0  0  0  0  0
   41.8318   -4.6590   10.5105 H   0  0  0  0  0  0
   38.7331   -6.4514    8.1608 H   0  0  0  0  0  0
   42.2315   -5.2101    8.2146 H   0  0  0  0  0  0
   34.5396   -5.3039   13.0022 H   0  0  0  0  0  0
   33.9789   -4.6357   10.0947 H   0  0  0  0  0  0
   33.0281   -6.9824   11.8114 H   0  0  0  0  0  0
   32.2973   -6.6009   10.2154 H   0  0  0  0  0  0
   35.2063   -7.9746   11.9626 H   0  0  0  0  0  0
   33.6879   -6.7384    8.1646 H   0  0  0  0  0  0
   37.0131   -9.2228   10.8349 H   0  0  0  0  0  0
   35.4959   -7.9745    7.0349 H   0  0  0  0  0  0
   38.1128   -9.9117    8.8300 H   0  0  0  0  0  0
   32.8363   -4.2324   13.3676 H   0  0  0  0  0  0
   31.5207   -2.2062   13.8068 H   0  0  0  0  0  0
   30.8902   -2.2053   12.1248 H   0  0  0  0  0  0
   27.3161   -2.9982   14.5096 H   0  0  0  0  0  0
   25.4939   -2.5383   12.4466 H   0  0  0  0  0  0
   26.3945   -1.1798   13.2018 H   0  0  0  0  0  0
   26.9381   -2.6609   10.6162 H   0  0  0  0  0  0
   27.0269   -0.8996   10.9575 H   0  0  0  0  0  0
   29.1850   -1.0722   11.8940 H   0  0  0  0  0  0
   29.2708   -2.5790   10.9199 H   0  0  0  0  0  0
   27.2556   -6.4261   12.4981 H   0  0  0  0  0  0
  1  2  1  0  0  0
  1104  1  0  0  0
  1105  1  0  0  0
  1106  1  0  0  0
  2  3  1  0  0  0
  2  5  1  0  0  0
  2107  1  0  0  0
  3  4  2  0  0  0
  3  9  1  0  0  0
  5  6  1  0  0  0
  5  7  1  0  0  0
  5108  1  0  0  0
  6  8  1  0  0  0
  6109  1  0  0  0
  6110  1  0  0  0
  7111  1  0  0  0
  7112  1  0  0  0
  7113  1  0  0  0
  8114  1  0  0  0
  8115  1  0  0  0
  8116  1  0  0  0
  9 10  1  0  0  0
  9117  1  0  0  0
 10 11  1  0  0  0
 10 13  1  0  0  0
 10118  1  0  0  0
 11 12  2  0  0  0
 11 16  1  0  0  0
 13 14  1  0  0  0
 13 15  1  0  0  0
 13119  1  0  0  0
 14120  1  0  0  0
 15121  1  0  0  0
 15122  1  0  0  0
 15123  1  0  0  0
 16 17  1  0  0  0
 16124  1  0  0  0
 17 18  1  0  0  0
 17 20  1  0  0  0
 17125  1  0  0  0
 18 19  2  0  0  0
 18 27  1  0  0  0
 20 21  1  0  0  0
 20126  1  0  0  0
 20127  1  0  0  0
 21 22  2  0  0  0
 21 23  1  0  0  0
 22 24  1  0  0  0
 22128  1  0  0  0
 23 25  2  0  0  0
 23129  1  0  0  0
 24 26  2  0  0  0
 24130  1  0  0  0
 25 26  1  0  0  0
 25131  1  0  0  0
 26132  1  0  0  0
 27 28  1  0  0  0
 27133  1  0  0  0
 28 29  1  0  0  0
 28 31  1  0  0  0
 28134  1  0  0  0
 29 30  2  0  0  0
 29 36  1  0  0  0
 31 32  1  0  0  0
 31135  1  0  0  0
 31136  1  0  0  0
 32 33  1  0  0  0
 32137  1  0  0  0
 32138  1  0  0  0
 33 34  2  0  0  0
 33 35  1  0  0  0
 35139  1  0  0  0
 36 37  1  0  0  0
 36140  1  0  0  0
 37 38  1  0  0  0
 37 40  1  0  0  0
 37141  1  0  0  0
 38 39  2  0  0  0
 38 44  1  0  0  0
 40 41  1  0  0  0
 40142  1  0  0  0
 40143  1  0  0  0
 41 42  1  0  0  0
 41 43  2  0  0  0
 42144  1  0  0  0
 44 45  1  0  0  0
 44145  1  0  0  0
 45 46  1  0  0  0
 45 48  1  0  0  0
 45146  1  0  0  0
 46 47  2  0  0  0
 46 52  1  0  0  0
 48 49  1  0  0  0
 48147  1  0  0  0
 48148  1  0  0  0
 49 50  1  0  0  0
 49 51  1  0  0  0
 49149  1  0  0  0
 50150  1  0  0  0
 50151  1  0  0  0
 50152  1  0  0  0
 51153  1  0  0  0
 51154  1  0  0  0
 51155  1  0  0  0
 52 53  1  0  0  0
 52156  1  0  0  0
 53 54  1  0  0  0
 53 56  1  0  0  0
 53157  1  0  0  0
 54 55  2  0  0  0
 54 60  1  0  0  0
 56 57  1  0  0  0
 56158  1  0  0  0
 56159  1  0  0  0
 57 58  1  0  0  0
 57 59  1  0  0  0
 57160  1  0  0  0
 58161  1  0  0  0
 58162  1  0  0  0
 58163  1  0  0  0
 59164  1  0  0  0
 59165  1  0  0  0
 59166  1  0  0  0
 60 61  1  0  0  0
 60167  1  0  0  0
 61 62  1  0  0  0
 61 64  1  0  0  0
 61168  1  0  0  0
 62 63  2  0  0  0
 62 68  1  0  0  0
 64 65  1  0  0  0
 64169  1  0  0  0
 64170  1  0  0  0
 65 66  2  0  0  0
 65 67  1  0  0  0
 67171  1  0  0  0
 68 69  1  0  0  0
 68172  1  0  0  0
 69 70  1  0  0  0
 69 72  1  0  0  0
 69173  1  0  0  0
 70 71  2  0  0  0
 70 80  1  0  0  0
 72 73  1  0  0  0
 72174  1  0  0  0
 72175  1  0  0  0
 73 74  2  0  0  0
 73 75  1  0  0  0
 74 76  1  0  0  0
 74176  1  0  0  0
 75 77  2  0  0  0
 75177  1  0  0  0
 76 78  2  0  0  0
 76178  1  0  0  0
 77 78  1  0  0  0
 77179  1  0  0  0
 78 79  1  0  0  0
 79180  1  0  0  0
 80 81  1  0  0  0
 80181  1  0  0  0
 81 82  1  0  0  0
 81 84  1  0  0  0
 81182  1  0  0  0
 82 83  2  0  0  0
 82 92  1  0  0  0
 84 85  1  0  0  0
 84183  1  0  0  0
 84184  1  0  0  0
 85 86  2  0  0  0
 85 87  1  0  0  0
 86 88  1  0  0  0
 86185  1  0  0  0
 87 89  2  0  0  0
 87186  1  0  0  0
 88 90  2  0  0  0
 88187  1  0  0  0
 89 90  1  0  0  0
 89188  1  0  0  0
 90 91  1  0  0  0
 91189  1  0  0  0
 92 93  1  0  0  0
 92190  1  0  0  0
 93 94  1  0  0  0
 93191  1  0  0  0
 93192  1  0  0  0
 94 95  2  0  0  0
 94 96  1  0  0  0
 96 97  1  0  0  0
 96102  1  0  0  0
 97 98  1  0  0  0
 97100  1  0  0  0
 97193  1  0  0  0
 98 99  2  0  0  0
 98103  1  0  0  0
100101  1  0  0  0
100194  1  0  0  0
100195  1  0  0  0
101102  1  0  0  0
101196  1  0  0  0
101197  1  0  0  0
102198  1  0  0  0
102199  1  0  0  0
103200  1  0  0  0
M  CHG  1   1   1
M  END
> <s_m_source_file>
../3ds3_ligand.sdf

> <i_m_source_file_index>
1

> <s_epik_input>
W0NIM11bQ0gyXVtDQEhdKFtDSDNdKVtDQEhdKFtOSDMrXSlDKD1PKVtOSF1bQ0BASF0oW0NASF0oW09IXSlbQ0gzXSlDKD1PKVtOSF1bQ0BASF0oW0NIMl1jMVtjSF1bY0hdW2NIXVtjSF1bY0hdMSlDKD1PKVtOSF1bQ0BASF0oW0NIMl1bQ0gyXUMoPU8pW09IXSlDKD1PKVtOSF1bQ0BASF0oW0NIMl1DKD1PKVtPSF0pQyg9TylbTkhdW0NAQEhdKFtDSDJdW0NIXShbQ0gzXSlbQ0gzXSlDKD1PKVtOSF1bQ0BASF0oW0NIMl1bQ0hdKFtDSDNdKVtDSDNdKUMoPU8pW05IXVtDQEBIXShbQ0gyXUMoPU8pW09IXSlDKD1PKVtOSF1bQ0BASF0oW0NIMl1jMltjSF1bY0hdYyhbT0hdKVtjSF1bY0hdMilDKD1PKVtOSF1bQ0BASF0oW0NIMl1jM1tjSF1bY0hdYyhbT0hdKVtjSF1bY0hdMylDKD1PKVtOSF1bQ0gyXUMoPU8pTjRbQ0BIXShDKD1PKVtPSF0pW0NIMl1bQ0gyXVtDSDJdNA==

> <s_epik_cmdline>
J2VwaWtfYXBwJywgJy1pbWFlJywgJ2xpZ2FuZF9wcm8ubWFlJywgJy1vbWFlJywgJ2xpZ2FuZF9wcmVwLm1hZScsICctbXMnLCAnMScsICctcGgnLCAnNycsICctcGh0JywgJzAuNScsICctbnQn

> <s_epik_pKa_notes>
Molecule size exceeds maximum supported for generating protonation states

$$$$
