3ds4_ligand
                    3D
 Schrodinger Suite 2020-3.
200203  0  0  1  0            999 V2000
   14.4140  -10.8550   10.2400 N   0  3  0  0  0  0
   14.4770  -11.2960    8.8110 C   0  0  2  0  0  0
   14.7970  -10.1620    7.8530 C   0  0  0  0  0  0
   14.6780   -8.9820    8.1850 O   0  0  0  0  0  0
   13.1870  -12.0160    8.3230 C   0  0  2  0  0  0
   11.9640  -11.0940    8.4310 C   0  0  0  0  0  0
   13.0110  -13.3450    9.0520 C   0  0  0  0  0  0
   10.7350  -11.6000    7.7110 C   0  0  0  0  0  0
   15.1840  -10.5580    6.6480 N   0  0  0  0  0  0
   15.5540   -9.6420    5.5910 C   0  0  2  0  0  0
   14.5360   -9.7060    4.4610 C   0  0  0  0  0  0
   13.5930  -10.5140    4.4790 O   0  0  0  0  0  0
   16.9190  -10.0310    5.0100 C   0  0  2  0  0  0
   16.7930  -11.2940    4.3440 O   0  0  0  0  0  0
   17.9730  -10.1280    6.1040 C   0  0  0  0  0  0
   14.7270   -8.8380    3.4790 N   0  0  0  0  0  0
   13.8870   -8.8380    2.2970 C   0  0  2  0  0  0
   14.0880  -10.1380    1.5090 C   0  0  0  0  0  0
   13.1450  -10.6910    0.9400 O   0  0  0  0  0  0
   14.1870   -7.6080    1.4350 C   0  0  0  0  0  0
   13.3790   -7.5310    0.1790 C   0  0  0  0  0  0
   11.9940   -7.3970    0.2220 C   0  0  0  0  0  0
   14.0000   -7.5860   -1.0530 C   0  0  0  0  0  0
   11.2410   -7.3280   -0.9540 C   0  0  0  0  0  0
   13.2620   -7.5090   -2.2250 C   0  0  0  0  0  0
   11.8790   -7.3810   -2.1790 C   0  0  0  0  0  0
   15.3170  -10.6390    1.4900 N   0  0  0  0  0  0
   15.5850  -11.8990    0.8070 C   0  0  2  0  0  0
   14.8250  -13.0520    1.4680 C   0  0  0  0  0  0
   14.3100  -13.9400    0.7730 O   0  0  0  0  0  0
   17.0870  -12.1500    0.7020 C   0  0  0  0  0  0
   17.7700  -11.1630   -0.2410 C   0  0  0  0  0  0
   19.2780  -11.2930   -0.2500 C   0  0  0  0  0  0
   19.8340  -11.6650   -1.3030 O   0  0  0  0  0  0
   19.9050  -11.0360    0.7970 O   0  0  0  0  0  0
   14.7160  -13.0170    2.7970 N   0  0  0  0  0  0
   13.8910  -13.9950    3.5070 C   0  0  2  0  0  0
   12.4360  -13.9250    3.0530 C   0  0  0  0  0  0
   11.7790  -14.9570    2.8960 O   0  0  0  0  0  0
   13.9670  -13.7990    5.0250 C   0  0  0  0  0  0
   15.3460  -14.0870    5.5880 C   0  0  0  0  0  0
   16.0260  -15.0030    5.0810 O   0  0  0  0  0  0
   15.7360  -13.4040    6.5580 O   0  0  0  0  0  0
   11.9250  -12.7070    2.8720 N   0  0  0  0  0  0
   10.5580  -12.5310    2.3840 C   0  0  2  0  0  0
   10.3780  -13.0180    0.9470 C   0  0  0  0  0  0
    9.3800  -13.6710    0.6280 O   0  0  0  0  0  0
   10.0910  -11.0840    2.5240 C   0  0  0  0  0  0
    9.9900  -10.5310    3.9460 C   0  0  0  0  0  0
    9.5710   -9.0870    3.9070 C   0  0  0  0  0  0
    9.0010  -11.3440    4.7600 C   0  0  0  0  0  0
   11.3600  -12.7140    0.1020 N   0  0  0  0  0  0
   11.3760  -13.2510   -1.2580 C   0  0  2  0  0  0
   11.2990  -14.7820   -1.2390 C   0  0  0  0  0  0
   10.5410  -15.3790   -2.0070 O   0  0  0  0  0  0
   12.6290  -12.8050   -2.0070 C   0  0  0  0  0  0
   12.7190  -11.3400   -2.4450 C   0  0  0  0  0  0
   14.1300  -11.0110   -2.8790 C   0  0  0  0  0  0
   11.7420  -11.0280   -3.5640 C   0  0  0  0  0  0
   12.0800  -15.4060   -0.3520 N   0  0  0  0  0  0
   12.1030  -16.8670   -0.2170 C   0  0  2  0  0  0
   10.7810  -17.4300    0.2850 C   0  0  0  0  0  0
   10.3920  -18.5360   -0.0920 O   0  0  0  0  0  0
   13.2070  -17.3170    0.7450 C   0  0  0  0  0  0
   14.6020  -17.0940    0.2060 C   0  0  0  0  0  0
   14.7630  -16.8960   -1.0140 O   0  0  0  0  0  0
   15.5410  -17.1240    1.0340 O   0  0  0  0  0  0
   10.1110  -16.6790    1.1580 N   0  0  0  0  0  0
    8.8690  -17.1090    1.7990 C   0  0  2  0  0  0
    7.6810  -17.0440    0.8380 C   0  0  0  0  0  0
    6.8720  -17.9750    0.7590 O   0  0  0  0  0  0
    8.6120  -16.2390    3.0400 C   0  0  0  0  0  0
    7.3580  -16.5580    3.8250 C   0  0  0  0  0  0
    7.3800  -17.4950    4.8590 C   0  0  0  0  0  0
    6.1560  -15.9100    3.5550 C   0  0  0  0  0  0
    6.2350  -17.7760    5.5990 C   0  0  0  0  0  0
    5.0110  -16.1920    4.2760 C   0  0  0  0  0  0
    5.0540  -17.1250    5.3020 C   0  0  0  0  0  0
    3.9090  -17.3990    6.0170 O   0  0  0  0  0  0
    7.5830  -15.9260    0.1250 N   0  0  0  0  0  0
    6.4410  -15.6330   -0.7210 C   0  0  2  0  0  0
    6.6160  -16.0430   -2.1690 C   0  0  0  0  0  0
    5.6300  -16.3670   -2.8330 O   0  0  0  0  0  0
    6.1570  -14.1400   -0.6920 C   0  0  0  0  0  0
    5.5220  -13.6520    0.5830 C   0  0  0  0  0  0
    6.1860  -12.7500    1.4040 C   0  0  0  0  0  0
    4.2480  -14.0780    0.9610 C   0  0  0  0  0  0
    5.5970  -12.2750    2.5610 C   0  0  0  0  0  0
    3.6450  -13.6060    2.1230 C   0  0  0  0  0  0
    4.3380  -12.7080    2.9210 C   0  0  0  0  0  0
    3.7770  -12.2230    4.0790 O   0  0  0  0  0  0
    7.8460  -15.9870   -2.6690 N   0  0  0  0  0  0
    8.0620  -16.0430   -4.1060 C   0  0  0  0  0  0
    7.6400  -14.7460   -4.7660 C   0  0  0  0  0  0
    7.2570  -13.7800   -4.0870 O   0  0  0  0  0  0
    7.7360  -14.6920   -6.0980 N   0  0  0  0  0  0
    7.4020  -13.4700   -6.8380 C   0  0  2  0  0  0
    5.9200  -13.1070   -6.7900 C   0  0  0  0  0  0
    5.5560  -11.9660   -7.1030 O   0  0  0  0  0  0
    7.7920  -13.8050   -8.2790 C   0  0  0  0  0  0
    8.6700  -15.0110   -8.1940 C   0  0  0  0  0  0
    8.2150  -15.7670   -6.9840 C   0  0  0  0  0  0
    5.0500  -13.9180   -6.4460 O   0  0  0  0  0  0
   15.3563  -10.3568   10.5118 H   0  0  0  0  0  0
   14.2622  -11.7310   10.8877 H   0  0  0  0  0  0
   13.5772  -10.1531   10.3705 H   0  0  0  0  0  0
   15.3243  -11.9973    8.8249 H   0  0  0  0  0  0
   13.2748  -12.2681    7.2559 H   0  0  0  0  0  0
   11.6887  -10.9726    9.4890 H   0  0  0  0  0  0
   12.2064  -10.1114    8.0001 H   0  0  0  0  0  0
   13.9208  -13.9517    8.9330 H   0  0  0  0  0  0
   12.1519  -13.8851    8.6274 H   0  0  0  0  0  0
   12.8334  -13.1561   10.1210 H   0  0  0  0  0  0
    9.9123  -10.8814    7.8405 H   0  0  0  0  0  0
   10.4403  -12.5740    8.1287 H   0  0  0  0  0  0
   10.9581  -11.7128    6.6398 H   0  0  0  0  0  0
   15.2159  -11.6433    6.4715 H   0  0  0  0  0  0
   15.5707   -8.6496    6.0651 H   0  0  0  0  0  0
   17.2467   -9.3029    4.2534 H   0  0  0  0  0  0
   16.0738  -11.4120    3.5201 H   0  0  0  0  0  0
   18.0653   -9.1564    6.6114 H   0  0  0  0  0  0
   18.9404  -10.4021    5.6578 H   0  0  0  0  0  0
   17.6749  -10.8956    6.8333 H   0  0  0  0  0  0
   15.5432   -8.1067    3.5737 H   0  0  0  0  0  0
   12.8497   -8.7839    2.6590 H   0  0  0  0  0  0
   13.9761   -6.6956    2.0121 H   0  0  0  0  0  0
   15.2462   -7.6176    1.1384 H   0  0  0  0  0  0
   11.4892   -7.3451    1.1867 H   0  0  0  0  0  0
   15.0836   -7.6912   -1.1053 H   0  0  0  0  0  0
   10.1563   -7.2329   -0.9050 H   0  0  0  0  0  0
   13.7702   -7.5492   -3.1884 H   0  0  0  0  0  0
   11.3018   -7.3228   -3.1018 H   0  0  0  0  0  0
   16.1346  -10.1006    1.9916 H   0  0  0  0  0  0
   15.1943  -11.7803   -0.2144 H   0  0  0  0  0  0
   17.5463  -12.0474    1.6963 H   0  0  0  0  0  0
   17.2631  -13.1664    0.3199 H   0  0  0  0  0  0
   17.4158  -11.3326   -1.2685 H   0  0  0  0  0  0
   17.5270  -10.1349    0.0656 H   0  0  0  0  0  0
   20.9285  -11.7688   -1.3400 H   0  0  0  0  0  0
   15.2556  -12.2408    3.3595 H   0  0  0  0  0  0
   14.3241  -14.9675    3.2302 H   0  0  0  0  0  0
   13.7141  -12.7577    5.2734 H   0  0  0  0  0  0
   13.2550  -14.4769    5.5184 H   0  0  0  0  0  0
   16.7301  -13.5840    6.9931 H   0  0  0  0  0  0
   12.5468  -11.8275    3.0952 H   0  0  0  0  0  0
    9.9656  -13.1760    3.0496 H   0  0  0  0  0  0
   10.7898  -10.4203    1.9938 H   0  0  0  0  0  0
    9.0855  -10.9796    2.0902 H   0  0  0  0  0  0
   10.9744  -10.5897    4.4333 H   0  0  0  0  0  0
   10.2965   -8.5106    3.3142 H   0  0  0  0  0  0
    9.5350   -8.6879    4.9314 H   0  0  0  0  0  0
    8.5751   -9.0065    3.4469 H   0  0  0  0  0  0
    9.3200  -12.3966    4.7797 H   0  0  0  0  0  0
    8.0030  -11.2718    4.3030 H   0  0  0  0  0  0
    8.9629  -10.9531    5.7875 H   0  0  0  0  0  0
   12.1677  -12.0481    0.4399 H   0  0  0  0  0  0
   10.4832  -12.8292   -1.7429 H   0  0  0  0  0  0
   13.5130  -12.9696   -1.3734 H   0  0  0  0  0  0
   12.7289  -13.3881   -2.9344 H   0  0  0  0  0  0
   12.4541  -10.7055   -1.5864 H   0  0  0  0  0  0
   14.8283  -11.2410   -2.0608 H   0  0  0  0  0  0
   14.1969   -9.9418   -3.1285 H   0  0  0  0  0  0
   14.3909  -11.6110   -3.7633 H   0  0  0  0  0  0
   10.7202  -11.2711   -3.2370 H   0  0  0  0  0  0
   11.9959  -11.6280   -4.4503 H   0  0  0  0  0  0
   11.8019   -9.9588   -3.8156 H   0  0  0  0  0  0
   12.7209  -14.7841    0.2903 H   0  0  0  0  0  0
   12.2893  -17.2133   -1.2443 H   0  0  0  0  0  0
   13.1236  -16.7555    1.6872 H   0  0  0  0  0  0
   13.1000  -18.3927    0.9486 H   0  0  0  0  0  0
   16.5765  -16.9680    0.6972 H   0  0  0  0  0  0
   10.5360  -15.6912    1.3895 H   0  0  0  0  0  0
    9.0255  -18.1616    2.0774 H   0  0  0  0  0  0
    9.4497  -16.3486    3.7445 H   0  0  0  0  0  0
    8.5231  -15.1853    2.7371 H   0  0  0  0  0  0
    8.3092  -18.0154    5.0910 H   0  0  0  0  0  0
    6.1170  -15.1658    2.7596 H   0  0  0  0  0  0
    6.2704  -18.5056    6.4081 H   0  0  0  0  0  0
    4.0768  -15.6828    4.0392 H   0  0  0  0  0  0
    3.9331  -18.1371    6.8322 H   0  0  0  0  0  0
    8.4139  -15.2086    0.1952 H   0  0  0  0  0  0
    5.6414  -16.2445   -0.2775 H   0  0  0  0  0  0
    7.0990  -13.5852   -0.8139 H   0  0  0  0  0  0
    5.4704  -13.8813   -1.5116 H   0  0  0  0  0  0
    7.1859  -12.4117    1.1323 H   0  0  0  0  0  0
    3.7154  -14.7936    0.3346 H   0  0  0  0  0  0
    6.1274  -11.5586    3.1884 H   0  0  0  0  0  0
    2.6444  -13.9367    2.4014 H   0  0  0  0  0  0
    4.3355  -11.5111    4.7045 H   0  0  0  0  0  0
    8.7043  -15.8976   -1.9869 H   0  0  0  0  0  0
    9.1295  -16.2130   -4.3100 H   0  0  0  0  0  0
    7.4713  -16.8664   -4.5338 H   0  0  0  0  0  0
    7.9373  -12.6269   -6.3769 H   0  0  0  0  0  0
    6.8849  -14.0127   -8.8655 H   0  0  0  0  0  0
    8.3276  -12.9522   -8.7216 H   0  0  0  0  0  0
    8.5541  -15.6140   -9.1067 H   0  0  0  0  0  0
    9.7188  -14.6947   -8.0943 H   0  0  0  0  0  0
    9.0320  -16.3130   -6.4895 H   0  0  0  0  0  0
    7.3885  -16.4602   -7.1995 H   0  0  0  0  0  0
    3.9928  -13.6148   -6.4254 H   0  0  0  0  0  0
  1  2  1  0  0  0
  1104  1  0  0  0
  1105  1  0  0  0
  1106  1  0  0  0
  2  3  1  0  0  0
  2  5  1  0  0  0
  2107  1  0  0  0
  3  4  2  0  0  0
  3  9  1  0  0  0
  5  6  1  0  0  0
  5  7  1  0  0  0
  5108  1  0  0  0
  6  8  1  0  0  0
  6109  1  0  0  0
  6110  1  0  0  0
  7111  1  0  0  0
  7112  1  0  0  0
  7113  1  0  0  0
  8114  1  0  0  0
  8115  1  0  0  0
  8116  1  0  0  0
  9 10  1  0  0  0
  9117  1  0  0  0
 10 11  1  0  0  0
 10 13  1  0  0  0
 10118  1  0  0  0
 11 12  2  0  0  0
 11 16  1  0  0  0
 13 14  1  0  0  0
 13 15  1  0  0  0
 13119  1  0  0  0
 14120  1  0  0  0
 15121  1  0  0  0
 15122  1  0  0  0
 15123  1  0  0  0
 16 17  1  0  0  0
 16124  1  0  0  0
 17 18  1  0  0  0
 17 20  1  0  0  0
 17125  1  0  0  0
 18 19  2  0  0  0
 18 27  1  0  0  0
 20 21  1  0  0  0
 20126  1  0  0  0
 20127  1  0  0  0
 21 22  2  0  0  0
 21 23  1  0  0  0
 22 24  1  0  0  0
 22128  1  0  0  0
 23 25  2  0  0  0
 23129  1  0  0  0
 24 26  2  0  0  0
 24130  1  0  0  0
 25 26  1  0  0  0
 25131  1  0  0  0
 26132  1  0  0  0
 27 28  1  0  0  0
 27133  1  0  0  0
 28 29  1  0  0  0
 28 31  1  0  0  0
 28134  1  0  0  0
 29 30  2  0  0  0
 29 36  1  0  0  0
 31 32  1  0  0  0
 31135  1  0  0  0
 31136  1  0  0  0
 32 33  1  0  0  0
 32137  1  0  0  0
 32138  1  0  0  0
 33 34  1  0  0  0
 33 35  2  0  0  0
 34139  1  0  0  0
 36 37  1  0  0  0
 36140  1  0  0  0
 37 38  1  0  0  0
 37 40  1  0  0  0
 37141  1  0  0  0
 38 39  2  0  0  0
 38 44  1  0  0  0
 40 41  1  0  0  0
 40142  1  0  0  0
 40143  1  0  0  0
 41 42  2  0  0  0
 41 43  1  0  0  0
 43144  1  0  0  0
 44 45  1  0  0  0
 44145  1  0  0  0
 45 46  1  0  0  0
 45 48  1  0  0  0
 45146  1  0  0  0
 46 47  2  0  0  0
 46 52  1  0  0  0
 48 49  1  0  0  0
 48147  1  0  0  0
 48148  1  0  0  0
 49 50  1  0  0  0
 49 51  1  0  0  0
 49149  1  0  0  0
 50150  1  0  0  0
 50151  1  0  0  0
 50152  1  0  0  0
 51153  1  0  0  0
 51154  1  0  0  0
 51155  1  0  0  0
 52 53  1  0  0  0
 52156  1  0  0  0
 53 54  1  0  0  0
 53 56  1  0  0  0
 53157  1  0  0  0
 54 55  2  0  0  0
 54 60  1  0  0  0
 56 57  1  0  0  0
 56158  1  0  0  0
 56159  1  0  0  0
 57 58  1  0  0  0
 57 59  1  0  0  0
 57160  1  0  0  0
 58161  1  0  0  0
 58162  1  0  0  0
 58163  1  0  0  0
 59164  1  0  0  0
 59165  1  0  0  0
 59166  1  0  0  0
 60 61  1  0  0  0
 60167  1  0  0  0
 61 62  1  0  0  0
 61 64  1  0  0  0
 61168  1  0  0  0
 62 63  2  0  0  0
 62 68  1  0  0  0
 64 65  1  0  0  0
 64169  1  0  0  0
 64170  1  0  0  0
 65 66  2  0  0  0
 65 67  1  0  0  0
 67171  1  0  0  0
 68 69  1  0  0  0
 68172  1  0  0  0
 69 70  1  0  0  0
 69 72  1  0  0  0
 69173  1  0  0  0
 70 71  2  0  0  0
 70 80  1  0  0  0
 72 73  1  0  0  0
 72174  1  0  0  0
 72175  1  0  0  0
 73 74  2  0  0  0
 73 75  1  0  0  0
 74 76  1  0  0  0
 74176  1  0  0  0
 75 77  2  0  0  0
 75177  1  0  0  0
 76 78  2  0  0  0
 76178  1  0  0  0
 77 78  1  0  0  0
 77179  1  0  0  0
 78 79  1  0  0  0
 79180  1  0  0  0
 80 81  1  0  0  0
 80181  1  0  0  0
 81 82  1  0  0  0
 81 84  1  0  0  0
 81182  1  0  0  0
 82 83  2  0  0  0
 82 92  1  0  0  0
 84 85  1  0  0  0
 84183  1  0  0  0
 84184  1  0  0  0
 85 86  2  0  0  0
 85 87  1  0  0  0
 86 88  1  0  0  0
 86185  1  0  0  0
 87 89  2  0  0  0
 87186  1  0  0  0
 88 90  2  0  0  0
 88187  1  0  0  0
 89 90  1  0  0  0
 89188  1  0  0  0
 90 91  1  0  0  0
 91189  1  0  0  0
 92 93  1  0  0  0
 92190  1  0  0  0
 93 94  1  0  0  0
 93191  1  0  0  0
 93192  1  0  0  0
 94 95  2  0  0  0
 94 96  1  0  0  0
 96 97  1  0  0  0
 96102  1  0  0  0
 97 98  1  0  0  0
 97100  1  0  0  0
 97193  1  0  0  0
 98 99  2  0  0  0
 98103  1  0  0  0
100101  1  0  0  0
100194  1  0  0  0
100195  1  0  0  0
101102  1  0  0  0
101196  1  0  0  0
101197  1  0  0  0
102198  1  0  0  0
102199  1  0  0  0
103200  1  0  0  0
M  CHG  1   1   1
M  END
> <s_m_source_file>
../3ds4_ligand.sdf

> <i_m_source_file_index>
1

> <s_epik_input>
W0NIM11bQ0gyXVtDQEhdKFtDSDNdKVtDQEhdKFtOSDMrXSlDKD1PKVtOSF1bQ0BASF0oW0NASF0oW09IXSlbQ0gzXSlDKD1PKVtOSF1bQ0BASF0oW0NIMl1jMVtjSF1bY0hdW2NIXVtjSF1bY0hdMSlDKD1PKVtOSF1bQ0BASF0oW0NIMl1bQ0gyXUMoPU8pW09IXSlDKD1PKVtOSF1bQ0BASF0oW0NIMl1DKD1PKVtPSF0pQyg9TylbTkhdW0NAQEhdKFtDSDJdW0NIXShbQ0gzXSlbQ0gzXSlDKD1PKVtOSF1bQ0BASF0oW0NIMl1bQ0hdKFtDSDNdKVtDSDNdKUMoPU8pW05IXVtDQEBIXShbQ0gyXUMoPU8pW09IXSlDKD1PKVtOSF1bQ0BASF0oW0NIMl1jMltjSF1bY0hdYyhbT0hdKVtjSF1bY0hdMilDKD1PKVtOSF1bQ0BASF0oW0NIMl1jM1tjSF1bY0hdYyhbT0hdKVtjSF1bY0hdMylDKD1PKVtOSF1bQ0gyXUMoPU8pTjRbQ0BIXShDKD1PKVtPSF0pW0NIMl1bQ0gyXVtDSDJdNA==

> <s_epik_cmdline>
J2VwaWtfYXBwJywgJy1pbWFlJywgJ2xpZ2FuZF9wcm8ubWFlJywgJy1vbWFlJywgJ2xpZ2FuZF9wcmVwLm1hZScsICctbXMnLCAnMScsICctcGgnLCAnNycsICctcGh0JywgJzAuNScsICctbnQn

> <s_epik_pKa_notes>
Molecule size exceeds maximum supported for generating protonation states

$$$$
