3ds6_ligand
                    3D
 Schrodinger Suite 2020-3.
 53 57  0  0  1  0            999 V2000
   32.8580   28.2820   61.5970 C   0  0  0  0  0  0
   31.5310   28.7610   61.2360 C   0  0  0  0  0  0
   30.4450   27.9900   61.8540 C   0  0  0  0  0  0
   30.6030   26.8550   62.7570 C   0  0  0  0  0  0
   34.0770   28.9360   61.1690 C   0  0  0  0  0  0
   32.2720   24.0930   63.7260 C   0  0  0  0  0  0
   32.7600   23.0250   64.5770 C   0  0  0  0  0  0
   32.8610   25.8060   65.4580 C   0  0  0  0  0  0
   32.3220   21.5960   62.7420 O   0  0  0  0  0  0
   33.3300   24.7020   66.3000 C   0  0  0  0  0  0
   31.9360   26.4200   63.1110 C   0  0  0  0  0  0
   33.0140   27.1600   62.4970 C   0  0  0  0  0  0
   33.9520   30.1050   60.3850 N   0  0  0  0  0  0
   32.6230   30.6290   60.0000 N   0  0  0  0  0  0
   31.4440   29.9580   60.4070 C   0  0  0  0  0  0
   32.3110   25.4840   64.1410 C   0  0  0  0  0  0
   33.3050   23.2960   65.8960 C   0  0  0  0  0  0
   33.1050   27.1580   65.9490 C   0  0  0  0  0  0
   32.5390   21.6710   63.9480 C   0  0  0  0  0  0
   32.3990   19.2150   64.3420 C   0  0  0  0  0  0
   33.2340   18.3170   65.1090 C   0  0  0  0  0  0
   33.6340   18.7220   63.7760 C   0  0  0  0  0  0
   30.1920   30.4980   59.8930 C   0  0  0  0  0  0
   29.8290   31.8340   60.3520 C   0  0  0  0  0  0
   28.5960   32.4750   59.9190 C   0  0  0  0  0  0
   27.6810   31.8220   59.0080 C   0  0  0  0  0  0
   28.0610   30.4970   58.5590 C   0  0  0  0  0  0
   29.2810   29.8160   58.9750 C   0  0  0  0  0  0
   29.5000   28.4730   58.4490 C   0  0  0  0  0  0
   32.5630   20.5710   64.7070 N   0  0  0  0  0  0
   29.4257   28.2939   61.6160 H   0  0  0  0  0  0
   29.7291   26.3424   63.1590 H   0  0  0  0  0  0
   35.0556   28.5409   61.4417 H   0  0  0  0  0  0
   31.8640   23.8444   62.7463 H   0  0  0  0  0  0
   33.7216   24.9432   67.2882 H   0  0  0  0  0  0
   34.0312   26.8465   62.7316 H   0  0  0  0  0  0
   33.6726   22.5009   66.5447 H   0  0  0  0  0  0
   33.5205   27.1092   66.9664 H   0  0  0  0  0  0
   32.1586   27.7183   65.9659 H   0  0  0  0  0  0
   33.8199   27.6658   65.2849 H   0  0  0  0  0  0
   31.3328   19.2317   64.0719 H   0  0  0  0  0  0
   33.5456   18.8119   66.0406 H   0  0  0  0  0  0
   32.6675   17.4054   65.3499 H   0  0  0  0  0  0
   33.4173   18.1633   62.8535 H   0  0  0  0  0  0
   34.2954   19.5699   63.5443 H   0  0  0  0  0  0
   30.4949   32.3634   61.0335 H   0  0  0  0  0  0
   28.3561   33.4714   60.2901 H   0  0  0  0  0  0
   26.7583   32.2993   58.6780 H   0  0  0  0  0  0
   27.3947   29.9790   57.8692 H   0  0  0  0  0  0
   30.4494   28.0769   58.8386 H   0  0  0  0  0  0
   29.5421   28.5118   57.3505 H   0  0  0  0  0  0
   28.6736   27.8176   58.7613 H   0  0  0  0  0  0
   32.7413   20.8398   65.7586 H   0  0  0  0  0  0
  1  2  1  0  0  0
  1  5  2  0  0  0
  1 12  1  0  0  0
  2  3  1  0  0  0
  2 15  2  0  0  0
  3  4  2  0  0  0
  3 31  1  0  0  0
  4 11  1  0  0  0
  4 32  1  0  0  0
  5 13  1  0  0  0
  5 33  1  0  0  0
  6  7  2  0  0  0
  6 16  1  0  0  0
  6 34  1  0  0  0
  7 17  1  0  0  0
  7 19  1  0  0  0
  8 10  1  0  0  0
  8 16  2  0  0  0
  8 18  1  0  0  0
  9 19  2  0  0  0
 10 17  2  0  0  0
 10 35  1  0  0  0
 11 12  2  0  0  0
 11 16  1  0  0  0
 12 36  1  0  0  0
 13 14  2  0  0  0
 14 15  1  0  0  0
 15 23  1  0  0  0
 17 37  1  0  0  0
 18 38  1  0  0  0
 18 39  1  0  0  0
 18 40  1  0  0  0
 19 30  1  0  0  0
 20 21  1  0  0  0
 20 22  1  0  0  0
 20 30  1  0  0  0
 20 41  1  0  0  0
 21 22  1  0  0  0
 21 42  1  0  0  0
 21 43  1  0  0  0
 22 44  1  0  0  0
 22 45  1  0  0  0
 23 24  2  0  0  0
 23 28  1  0  0  0
 24 25  1  0  0  0
 24 46  1  0  0  0
 25 26  2  0  0  0
 25 47  1  0  0  0
 26 27  1  0  0  0
 26 48  1  0  0  0
 27 28  2  0  0  0
 27 49  1  0  0  0
 28 29  1  0  0  0
 29 50  1  0  0  0
 29 51  1  0  0  0
 29 52  1  0  0  0
 30 53  1  0  0  0
M  END
> <s_m_source_file>
../3ds6_ligand.sdf

> <i_m_source_file_index>
1

> <s_epik_input>
W0NIM11jMVtjSF1bY0hdW2NIXVtjSF1jMS1jKG5uW2NIXTIpYyhjMjMpW2NIXVtjSF1jKFtjSF0zKS1jKGMoW0NIM10pW2NIXVtjSF00KVtjSF1jNEMoPU8pW05IXVtDSF01W0NIMl1bQ0gyXTU=

> <s_epik_cmdline>
J2VwaWtfYXBwJywgJy1pbWFlJywgJ2xpZ2FuZF9wcm8ubWFlJywgJy1vbWFlJywgJ2xpZ2FuZF9wcmVwLm1hZScsICctbXMnLCAnMScsICctcGgnLCAnNycsICctcGh0JywgJzAuNScsICctbnQn

> <r_lp_tautomer_probability>
1

> <r_epik_Ionization_Penalty>
  0.0001

> <r_epik_Ionization_Penalty_Charging>
  0.0000

> <r_epik_Ionization_Penalty_Neutral>
  0.0001

> <r_epik_State_Penalty>
 -0.0000

> <r_epik_Charging_Adjusted_Penalty>
0

> <i_epik_Tot_Q>
0

> <i_epik_Tot_abs_Q>
0

$$$$
