3ds9_ligand
                    3D
 Schrodinger Suite 2020-3.
148150  0  0  1  0            999 V2000
  -14.2320   38.6990  -20.7520 O   0  5  0  0  0  0
  -13.6410   38.8020  -19.6920 N   0  3  0  0  0  0
  -13.9620   39.6870  -18.9250 O   0  0  0  0  0  0
  -12.6140   37.9030  -19.3360 C   0  0  0  0  0  0
  -12.0470   37.9710  -18.0660 C   0  0  0  0  0  0
  -11.0460   37.0760  -17.6970 C   0  0  0  0  0  0
  -12.1690   36.9300  -20.2300 C   0  0  0  0  0  0
  -11.1620   36.0410  -19.8620 C   0  0  0  0  0  0
  -10.7150   35.0630  -20.7690 N   0  3  0  0  0  0
   -9.5590   34.6740  -20.7340 O   0  0  0  0  0  0
  -11.4730   34.5970  -21.6050 O   0  5  0  0  0  0
  -10.6020   36.1090  -18.5950 C   0  0  0  0  0  0
   -9.6250   35.2320  -18.2480 N   0  0  0  0  0  0
   -9.2890   34.9570  -16.8620 C   0  0  0  0  0  0
  -10.4440   34.3170  -16.1030 C   0  0  0  0  0  0
  -10.1760   34.3610  -14.6080 C   0  0  2  0  0  0
  -11.2550   33.6630  -13.9440 N   0  3  0  0  0  0
  -10.2250   35.7970  -14.1390 C   0  0  0  0  0  0
  -11.2880   36.3370  -13.9460 O   0  0  0  0  0  0
   -9.0750   36.4270  -13.9680 N   0  0  0  0  0  0
   -9.0740   37.8130  -13.5080 C   0  0  2  0  0  0
   -9.0070   38.7540  -14.7000 C   0  0  0  0  0  0
   -8.6310   38.3460  -15.7980 O   0  0  0  0  0  0
   -7.9200   38.0600  -12.5300 C   0  0  0  0  0  0
   -6.5460   37.8690  -13.1290 C   0  0  0  0  0  0
   -5.4650   37.7360  -12.0380 C   0  0  0  0  0  0
   -5.5540   38.7840  -11.0160 N   0  0  0  0  0  0
   -6.0550   38.6100   -9.7920 C   0  0  0  0  0  0
   -6.5210   37.4230   -9.4200 N   0  3  0  0  0  0
   -6.0850   39.6250   -8.9340 N   0  0  0  0  0  0
   -9.3710   40.0180  -14.4910 N   0  0  0  0  0  0
   -9.4920   40.9300  -15.6160 C   0  0  2  0  0  0
   -8.1540   41.1620  -16.2870 C   0  0  0  0  0  0
   -8.0610   41.2120  -17.5100 O   0  0  0  0  0  0
  -10.1200   42.2620  -15.1930 C   0  0  0  0  0  0
  -10.6700   43.0350  -16.3700 C   0  0  0  0  0  0
  -11.3110   42.5150  -17.4580 C   0  0  0  0  0  0
  -10.6440   44.4560  -16.5650 C   0  0  0  0  0  0
  -11.6750   43.5170  -18.3190 N   0  3  0  0  0  0
  -11.2790   44.7170  -17.7940 C   0  0  0  0  0  0
  -10.1330   45.5250  -15.8250 C   0  0  0  0  0  0
  -11.4220   46.0100  -18.2980 C   0  0  0  0  0  0
  -10.2780   46.8090  -16.3280 C   0  0  0  0  0  0
  -10.9150   47.0390  -17.5520 C   0  0  0  0  0  0
   -7.1140   41.3090  -15.4760 N   0  0  0  0  0  0
   -5.7800   41.5350  -16.0010 C   0  0  2  0  0  0
   -5.4470   40.5090  -17.0780 C   0  0  0  0  0  0
   -4.7670   40.8160  -18.0450 O   0  0  0  0  0  0
   -4.7460   41.4870  -14.8740 C   0  0  2  0  0  0
   -5.1510   42.3920  -13.8370 O   0  0  0  0  0  0
   -3.3730   41.8810  -15.3850 C   0  0  0  0  0  0
   -5.9440   39.2900  -16.9200 N   0  0  0  0  0  0
   -5.6690   38.2230  -17.9260 C   0  0  2  0  0  0
   -6.0310   38.6360  -19.3300 C   0  0  0  0  0  0
   -5.4190   38.1190  -20.2910 O   0  0  0  0  0  0
   -6.3560   36.9130  -17.5550 C   0  0  0  0  0  0
   -5.9280   35.7650  -18.4730 C   0  0  0  0  0  0
   -4.4920   35.5300  -18.3950 N   0  3  0  0  0  0
   -6.9800   39.5560  -19.4810 N   0  0  0  0  0  0
   -7.4160   39.9980  -20.8080 C   0  0  2  0  0  0
   -6.3360   40.7500  -21.5740 C   0  0  0  0  0  0
   -6.4690   41.0010  -22.7740 O   0  0  0  0  0  0
   -8.6590   40.8760  -20.7020 C   0  0  0  0  0  0
   -9.8510   40.1560  -20.1370 C   0  0  0  0  0  0
  -11.3790   40.8700  -20.7410 S   0  0  0  0  0  0
  -11.1540   40.7220  -22.5130 C   0  0  0  0  0  0
   -5.2760   41.1240  -20.8710 N   0  0  0  0  0  0
   -4.1480   41.7980  -21.5020 C   0  0  2  0  0  0
   -3.1260   40.7860  -22.0250 C   0  0  0  0  0  0
   -2.3260   41.0930  -22.9080 O   0  0  0  0  0  0
   -3.4980   42.7650  -20.5160 C   0  0  0  0  0  0
   -4.4070   43.8940  -20.0380 C   0  0  0  0  0  0
   -3.7190   44.7110  -18.9570 C   0  0  0  0  0  0
   -4.8350   44.7820  -21.2170 C   0  0  0  0  0  0
   -3.1660   39.5750  -21.4780 N   0  0  0  0  0  0
  -12.3877   38.7270  -17.3586 H   0  0  0  0  0  0
  -10.6080   37.1327  -16.7005 H   0  0  0  0  0  0
  -12.6122   36.8646  -21.2237 H   0  0  0  0  0  0
   -9.0811   34.7227  -19.0572 H   0  0  0  0  0  0
   -8.4322   34.2683  -16.8221 H   0  0  0  0  0  0
   -9.0275   35.8973  -16.3546 H   0  0  0  0  0  0
  -11.3730   34.8649  -16.3190 H   0  0  0  0  0  0
  -10.5544   33.2691  -16.4188 H   0  0  0  0  0  0
   -9.2165   33.8840  -14.3592 H   0  0  0  0  0  0
  -11.2573   32.6086  -14.2574 H   0  0  0  0  0  0
  -12.2142   34.1282  -14.2150 H   0  0  0  0  0  0
  -11.1140   33.7214  -12.8546 H   0  0  0  0  0  0
   -8.1232   35.9138  -14.1699 H   0  0  0  0  0  0
  -10.0273   37.9677  -12.9814 H   0  0  0  0  0  0
   -7.9686   39.0945  -12.1594 H   0  0  0  0  0  0
   -8.0016   37.3629  -11.6830 H   0  0  0  0  0  0
   -6.5365   36.9547  -13.7405 H   0  0  0  0  0  0
   -6.2976   38.7349  -13.7602 H   0  0  0  0  0  0
   -5.5719   36.7649  -11.5324 H   0  0  0  0  0  0
   -4.4685   37.8015  -12.4992 H   0  0  0  0  0  0
   -5.1923   39.7992  -11.2363 H   0  0  0  0  0  0
   -6.4996   36.5783  -10.1243 H   0  0  0  0  0  0
   -5.7009   40.6109   -9.2347 H   0  0  0  0  0  0
   -6.4939   39.4789   -7.9233 H   0  0  0  0  0  0
   -9.5798   40.3724  -13.4708 H   0  0  0  0  0  0
  -10.1578   40.4076  -16.3187 H   0  0  0  0  0  0
  -10.9472   42.0716  -14.4934 H   0  0  0  0  0  0
   -9.3596   42.8859  -14.7005 H   0  0  0  0  0  0
  -11.4647   41.4288  -17.5387 H   0  0  0  0  0  0
   -9.6311   45.3535  -14.8727 H   0  0  0  0  0  0
  -11.9191   46.1937  -19.2505 H   0  0  0  0  0  0
   -9.8889   47.6538  -15.7598 H   0  0  0  0  0  0
  -11.0096   48.0607  -17.9197 H   0  0  0  0  0  0
   -7.2759   41.2571  -14.3892 H   0  0  0  0  0  0
   -5.8055   42.5407  -16.4458 H   0  0  0  0  0  0
   -4.6968   40.4835  -14.4262 H   0  0  0  0  0  0
   -6.1257   42.2626  -13.3438 H   0  0  0  0  0  0
   -3.0643   41.1861  -16.1799 H   0  0  0  0  0  0
   -2.6481   41.8383  -14.5587 H   0  0  0  0  0  0
   -3.4111   42.9042  -15.7869 H   0  0  0  0  0  0
   -6.5635   39.0683  -16.0385 H   0  0  0  0  0  0
   -4.5782   38.0829  -17.9038 H   0  0  0  0  0  0
   -6.0961   36.6427  -16.5209 H   0  0  0  0  0  0
   -7.4461   37.0339  -17.6394 H   0  0  0  0  0  0
   -6.4495   34.8434  -18.1751 H   0  0  0  0  0  0
   -6.1855   36.0120  -19.5135 H   0  0  0  0  0  0
   -4.2192   34.7012  -19.0649 H   0  0  0  0  0  0
   -4.2184   35.2714  -17.3614 H   0  0  0  0  0  0
   -3.9545   36.4400  -18.6998 H   0  0  0  0  0  0
   -7.4397   39.9867  -18.5793 H   0  0  0  0  0  0
   -7.6321   39.0575  -21.3360 H   0  0  0  0  0  0
   -8.4480   41.7324  -20.0447 H   0  0  0  0  0  0
   -8.9366   41.2409  -21.7019 H   0  0  0  0  0  0
   -9.8148   39.0976  -20.4343 H   0  0  0  0  0  0
   -9.8374   40.2292  -19.0395 H   0  0  0  0  0  0
  -12.0352   41.1299  -23.0298 H   0  0  0  0  0  0
  -11.0305   39.6620  -22.7796 H   0  0  0  0  0  0
  -10.2582   41.2833  -22.8170 H   0  0  0  0  0  0
   -5.2585   40.9163  -19.7909 H   0  0  0  0  0  0
   -4.5701   42.3559  -22.3509 H   0  0  0  0  0  0
   -3.1768   42.2140  -19.6198 H   0  0  0  0  0  0
   -2.6244   43.2381  -20.9882 H   0  0  0  0  0  0
   -5.3095   43.4493  -19.5933 H   0  0  0  0  0  0
   -3.4251   44.0495  -18.1287 H   0  0  0  0  0  0
   -4.4101   45.4811  -18.5838 H   0  0  0  0  0  0
   -2.8238   45.1937  -19.3761 H   0  0  0  0  0  0
   -5.3288   44.1638  -21.9813 H   0  0  0  0  0  0
   -3.9481   45.2651  -21.6530 H   0  0  0  0  0  0
   -5.5344   45.5526  -20.8606 H   0  0  0  0  0  0
   -3.9012   39.3510  -20.6910 H   0  0  0  0  0  0
   -2.4639   38.7970  -21.8124 H   0  0  0  0  0  0
  -12.1989   43.2743  -19.2553 H   0  0  0  0  0  0
   -6.9283   37.2847   -8.4076 H   0  0  0  0  0  0
  1  2  1  0  0  0
  2  3  2  0  0  0
  2  4  1  0  0  0
  4  5  2  0  0  0
  4  7  1  0  0  0
  5  6  1  0  0  0
  5 76  1  0  0  0
  6 12  2  0  0  0
  6 77  1  0  0  0
  7  8  2  0  0  0
  7 78  1  0  0  0
  8  9  1  0  0  0
  8 12  1  0  0  0
  9 10  2  0  0  0
  9 11  1  0  0  0
 12 13  1  0  0  0
 13 14  1  0  0  0
 13 79  1  0  0  0
 14 15  1  0  0  0
 14 80  1  0  0  0
 14 81  1  0  0  0
 15 16  1  0  0  0
 15 82  1  0  0  0
 15 83  1  0  0  0
 16 17  1  0  0  0
 16 18  1  0  0  0
 16 84  1  0  0  0
 17 85  1  0  0  0
 17 86  1  0  0  0
 17 87  1  0  0  0
 18 19  2  0  0  0
 18 20  1  0  0  0
 20 21  1  0  0  0
 20 88  1  0  0  0
 21 22  1  0  0  0
 21 24  1  0  0  0
 21 89  1  0  0  0
 22 23  2  0  0  0
 22 31  1  0  0  0
 24 25  1  0  0  0
 24 90  1  0  0  0
 24 91  1  0  0  0
 25 26  1  0  0  0
 25 92  1  0  0  0
 25 93  1  0  0  0
 26 27  1  0  0  0
 26 94  1  0  0  0
 26 95  1  0  0  0
 27 28  1  0  0  0
 27 96  1  0  0  0
 28 29  2  0  0  0
 28 30  1  0  0  0
 29 97  1  0  0  0
 29148  1  0  0  0
 30 98  1  0  0  0
 30 99  1  0  0  0
 31 32  1  0  0  0
 31100  1  0  0  0
 32 33  1  0  0  0
 32 35  1  0  0  0
 32101  1  0  0  0
 33 34  2  0  0  0
 33 45  1  0  0  0
 35 36  1  0  0  0
 35102  1  0  0  0
 35103  1  0  0  0
 36 37  2  0  0  0
 36 38  1  0  0  0
 37 39  1  0  0  0
 37104  1  0  0  0
 38 40  2  0  0  0
 38 41  1  0  0  0
 39 40  1  0  0  0
 39147  1  0  0  0
 40 42  1  0  0  0
 41 43  2  0  0  0
 41105  1  0  0  0
 42 44  2  0  0  0
 42106  1  0  0  0
 43 44  1  0  0  0
 43107  1  0  0  0
 44108  1  0  0  0
 45 46  1  0  0  0
 45109  1  0  0  0
 46 47  1  0  0  0
 46 49  1  0  0  0
 46110  1  0  0  0
 47 48  2  0  0  0
 47 52  1  0  0  0
 49 50  1  0  0  0
 49 51  1  0  0  0
 49111  1  0  0  0
 50112  1  0  0  0
 51113  1  0  0  0
 51114  1  0  0  0
 51115  1  0  0  0
 52 53  1  0  0  0
 52116  1  0  0  0
 53 54  1  0  0  0
 53 56  1  0  0  0
 53117  1  0  0  0
 54 55  2  0  0  0
 54 59  1  0  0  0
 56 57  1  0  0  0
 56118  1  0  0  0
 56119  1  0  0  0
 57 58  1  0  0  0
 57120  1  0  0  0
 57121  1  0  0  0
 58122  1  0  0  0
 58123  1  0  0  0
 58124  1  0  0  0
 59 60  1  0  0  0
 59125  1  0  0  0
 60 61  1  0  0  0
 60 63  1  0  0  0
 60126  1  0  0  0
 61 62  2  0  0  0
 61 67  1  0  0  0
 63 64  1  0  0  0
 63127  1  0  0  0
 63128  1  0  0  0
 64 65  1  0  0  0
 64129  1  0  0  0
 64130  1  0  0  0
 65 66  1  0  0  0
 66131  1  0  0  0
 66132  1  0  0  0
 66133  1  0  0  0
 67 68  1  0  0  0
 67134  1  0  0  0
 68 69  1  0  0  0
 68 71  1  0  0  0
 68135  1  0  0  0
 69 70  2  0  0  0
 69 75  1  0  0  0
 71 72  1  0  0  0
 71136  1  0  0  0
 71137  1  0  0  0
 72 73  1  0  0  0
 72 74  1  0  0  0
 72138  1  0  0  0
 73139  1  0  0  0
 73140  1  0  0  0
 73141  1  0  0  0
 74142  1  0  0  0
 74143  1  0  0  0
 74144  1  0  0  0
 75145  1  0  0  0
 75146  1  0  0  0
M  CHG  8   1  -1   2   1   9   1  11  -1  17   1  29   1  39   1  58   1
M  END
> <s_m_source_file>
../3ds9_ligand.sdf

> <i_m_source_file_index>
1

> <s_epik_input>
W08tXVtOK10oPU8pYzFbY0hdW2NIXWMoYyhbY0hdMSlbTitdKD1PKVtPLV0pW05IXVtDSDJdW0NIMl1bQ0BIXShbTkgzK10pQyg9TylbTkhdW0NAQEhdKFtDSDJdW0NIMl1bQ0gyXVtOSF0vQyg9TlxbSF0pW05IMl0pQyg9TylbTkhdW0NAQEhdKFtDSDJdYzJbY0hdW25IXWMoYzIzKVtjSF1bY0hdW2NIXVtjSF0zKUMoPU8pW05IXVtDQEBIXShbQ0BIXShbT0hdKVtDSDNdKUMoPU8pW05IXVtDQEBIXShbQ0gyXVtDSDJdW05IMytdKUMoPU8pW05IXVtDQEBIXShbQ0gyXVtDSDJdU1tDSDNdKUMoPU8pW05IXVtDQEhdKEMoPU8pW05IMl0pW0NIMl1bQ0hdKFtDSDNdKVtDSDNd

> <s_epik_cmdline>
J2VwaWtfYXBwJywgJy1pbWFlJywgJ2xpZ2FuZF9wcm8ubWFlJywgJy1vbWFlJywgJ2xpZ2FuZF9wcmVwLm1hZScsICctbXMnLCAnMScsICctcGgnLCAnNycsICctcGh0JywgJzAuNScsICctbnQn

> <r_epik_Ionization_Penalty>
  0.0992

> <r_epik_Ionization_Penalty_Charging>
  0.0991

> <r_epik_Ionization_Penalty_Neutral>
  0.0001

> <r_epik_State_Penalty>
  0.0867

> <r_epik_Charging_Adjusted_Penalty>
0.185772579422279

> <i_epik_Tot_Q>
4

> <i_epik_Tot_abs_Q>
8

> <s_epik_Chemistry_Notes>
This compound has an imine and may undergo hydrolysis.

$$$$
