3dst_ligand
                    3D
 Schrodinger Suite 2020-3.
 62 61  0  0  1  0            999 V2000
    3.5530   26.5290   18.2310 C   0  0  0  0  0  0
    5.1100   28.5920   17.7190 C   0  0  0  0  0  0
    4.9480   27.1710   18.2780 C   0  0  0  0  0  0
    6.0270   26.4410   18.8050 C   0  0  0  0  0  0
    7.3660   26.8390   18.9460 C   0  0  0  0  0  0
    8.9550   24.6690   20.8870 C   0  0  0  0  0  0
    8.3960   24.5220   19.4830 C   0  0  0  0  0  0
    8.3920   25.7430   18.5350 C   0  0  0  0  0  0
    7.8860   23.3060   19.0550 C   0  0  0  0  0  0
    7.8120   22.1150   19.7830 C   0  0  0  0  0  0
    7.5970   20.9100   18.8610 C   0  0  0  0  0  0
    7.6040   19.5700   19.6180 C   0  0  0  0  0  0
    8.9490   18.9860   20.0440 C   0  0  0  0  0  0
    6.4060   18.9040   19.8750 C   0  0  0  0  0  0
    6.2490   17.6770   20.5180 C   0  0  0  0  0  0
    5.1650   17.6950   21.5960 C   0  0  0  0  0  0
    4.7970   16.2600   22.0090 C   0  0  0  0  0  0
    3.3320   15.8260   21.9250 C   0  0  0  0  0  0
    5.8050   15.3890   22.4430 C   0  0  0  0  0  0
    5.7110   14.0620   22.8630 C   0  0  0  0  0  0
    6.6760   13.2470   22.1650 O   0  0  0  0  0  0
    7.0710   11.7480   22.6550 P   0  0  1  0  0  0
    8.2410   11.7980   23.5570 O   0  5  0  0  0  0
    5.8390   11.3010   23.5790 O   0  0  0  0  0  0
    7.0960   10.8740   21.4670 O   0  0  0  0  0  0
    4.6460   10.4030   22.9600 P   0  0  0  0  0  0
    3.8030    9.9200   24.2580 O   0  5  0  0  0  0
    5.3720    9.0710   22.4070 O   0  5  0  0  0  0
    3.8710   11.1550   21.9280 O   0  0  0  0  0  0
    2.8372   27.2391   17.7911 H   0  0  0  0  0  0
    3.2335   26.2711   19.2515 H   0  0  0  0  0  0
    3.5895   25.6172   17.6168 H   0  0  0  0  0  0
    4.1358   28.9599   17.3646 H   0  0  0  0  0  0
    5.8232   28.5775   16.8816 H   0  0  0  0  0  0
    5.4871   29.2565   18.5103 H   0  0  0  0  0  0
    5.8703   25.4164   19.1733 H   0  0  0  0  0  0
    7.5557   27.7185   18.3131 H   0  0  0  0  0  0
    7.5638   27.0944   19.9975 H   0  0  0  0  0  0
    9.3084   25.7002   21.0348 H   0  0  0  0  0  0
    9.7942   23.9708   21.0225 H   0  0  0  0  0  0
    8.1674   24.4425   21.6208 H   0  0  0  0  0  0
    8.1532   25.3774   17.5254 H   0  0  0  0  0  0
    9.4060   26.1695   18.5403 H   0  0  0  0  0  0
    7.4801   23.2074   18.0374 H   0  0  0  0  0  0
    8.7492   21.9665   20.3394 H   0  0  0  0  0  0
    6.9707   22.1688   20.4897 H   0  0  0  0  0  0
    6.6250   21.0045   18.3548 H   0  0  0  0  0  0
    8.3997   20.8753   18.1097 H   0  0  0  0  0  0
    9.7570   19.6699   19.7447 H   0  0  0  0  0  0
    9.0956   18.0102   19.5578 H   0  0  0  0  0  0
    8.9633   18.8572   21.1363 H   0  0  0  0  0  0
    5.4508   19.3483   19.5585 H   0  0  0  0  0  0
    5.9709   16.9096   19.7806 H   0  0  0  0  0  0
    7.1947   17.3936   21.0032 H   0  0  0  0  0  0
    5.5342   18.2385   22.4782 H   0  0  0  0  0  0
    4.2676   18.1969   21.2053 H   0  0  0  0  0  0
    2.7211   16.6656   21.5617 H   0  0  0  0  0  0
    2.9818   15.5224   22.9226 H   0  0  0  0  0  0
    3.2401   14.9781   21.2303 H   0  0  0  0  0  0
    6.8489   15.7333   22.4849 H   0  0  0  0  0  0
    5.9070   14.0048   23.9439 H   0  0  0  0  0  0
    4.7004   13.6816   22.6530 H   0  0  0  0  0  0
  1  3  1  0  0  0
  1 30  1  0  0  0
  1 31  1  0  0  0
  1 32  1  0  0  0
  2  3  1  0  0  0
  2 33  1  0  0  0
  2 34  1  0  0  0
  2 35  1  0  0  0
  3  4  2  0  0  0
  4  5  1  0  0  0
  4 36  1  0  0  0
  5  8  1  0  0  0
  5 37  1  0  0  0
  5 38  1  0  0  0
  6  7  1  0  0  0
  6 39  1  0  0  0
  6 40  1  0  0  0
  6 41  1  0  0  0
  7  8  1  0  0  0
  7  9  2  0  0  0
  8 42  1  0  0  0
  8 43  1  0  0  0
  9 10  1  0  0  0
  9 44  1  0  0  0
 10 11  1  0  0  0
 10 45  1  0  0  0
 10 46  1  0  0  0
 11 12  1  0  0  0
 11 47  1  0  0  0
 11 48  1  0  0  0
 12 13  1  0  0  0
 12 14  2  0  0  0
 13 49  1  0  0  0
 13 50  1  0  0  0
 13 51  1  0  0  0
 14 15  1  0  0  0
 14 52  1  0  0  0
 15 16  1  0  0  0
 15 53  1  0  0  0
 15 54  1  0  0  0
 16 17  1  0  0  0
 16 55  1  0  0  0
 16 56  1  0  0  0
 17 18  1  0  0  0
 17 19  2  0  0  0
 18 57  1  0  0  0
 18 58  1  0  0  0
 18 59  1  0  0  0
 19 20  1  0  0  0
 19 60  1  0  0  0
 20 21  1  0  0  0
 20 61  1  0  0  0
 20 62  1  0  0  0
 21 22  1  0  0  0
 22 23  1  0  0  0
 22 24  1  0  0  0
 22 25  2  0  0  0
 24 26  1  0  0  0
 26 27  1  0  0  0
 26 28  1  0  0  0
 26 29  2  0  0  0
M  CHG  3  23  -1  27  -1  28  -1
M  END
> <s_m_source_file>
../3dst_ligand.sdf

> <i_m_source_file_index>
1

> <s_epik_input>
W0NIM11DKFtDSDNdKT1bQ0hdW0NIMl1bQ0gyXUMoXFtDSDNdKT1bQ0hdXFtDSDJdW0NIMl0vQyhbQ0gzXSk9W0NIXS9bQ0gyXVtDSDJdL0MoW0NIM10pPVtDSF0vW0NIMl1PW1BAQF0oPU8pKFtPSF0pT1AoPU8pKFtPSF0pW09IXQ==

> <s_epik_cmdline>
J2VwaWtfYXBwJywgJy1pbWFlJywgJ2xpZ2FuZF9wcm8ubWFlJywgJy1vbWFlJywgJ2xpZ2FuZF9wcmVwLm1hZScsICctbXMnLCAnMScsICctcGgnLCAnNycsICctcGh0JywgJzAuNScsICctbnQn

> <r_epik_Ionization_Penalty>
  0.0891

> <r_epik_Ionization_Penalty_Charging>
  0.0891

> <r_epik_Ionization_Penalty_Neutral>
  0.0000

> <r_epik_State_Penalty>
  0.0782

> <r_epik_Charging_Adjusted_Penalty>
0.167359848631231

> <i_epik_Tot_Q>
-3

> <i_epik_Tot_abs_Q>
3

$$$$
