3dsu_ligand
                    3D
 Schrodinger Suite 2020-3.
 49 48  0  0  1  0            999 V2000
    8.1360   17.4420   20.3000 C   0  0  0  0  0  0
    8.0570   17.6070   21.7260 O   0  0  0  0  0  0
    8.2990   18.6840   19.6740 C   0  0  0  0  0  0
    7.3200   19.6640   19.4770 C   0  0  0  0  0  0
    5.8590   19.4600   19.9340 C   0  0  0  0  0  0
    7.6880   20.9740   18.7570 C   0  0  0  0  0  0
    7.2420   22.1960   19.5750 C   0  0  0  0  0  0
    7.4330   23.3870   18.8710 C   0  0  0  0  0  0
    7.9830   24.5740   19.3460 C   0  0  0  0  0  0
    8.4360   24.6940   20.8020 C   0  0  0  0  0  0
    8.0920   25.7760   18.3970 C   0  0  0  0  0  0
    7.1440   26.9510   18.7700 C   0  0  0  0  0  0
    5.7810   26.6360   18.7700 C   0  0  0  0  0  0
    4.7180   27.4100   18.2630 C   0  0  0  0  0  0
    4.9260   28.7580   17.5680 C   0  0  0  0  0  0
    3.2710   26.9060   18.3730 C   0  0  0  0  0  0
    7.6410   16.4310   22.7790 P   0  0  2  0  0  0
    6.8020   17.0590   23.8230 O   0  5  0  0  0  0
    8.8690   15.7050   23.1570 O   0  0  0  0  0  0
    6.7120   15.4310   21.8810 O   0  0  0  0  0  0
    5.7820   14.2130   22.4600 P   0  0  0  0  0  0
    4.3920   14.2920   21.9420 O   0  0  0  0  0  0
    6.5420   12.8430   22.0320 O   0  5  0  0  0  0
    5.8270   14.2270   24.0820 O   0  5  0  0  0  0
    8.9943   16.8002   20.0522 H   0  0  0  0  0  0
    7.2104   16.9743   19.9331 H   0  0  0  0  0  0
    9.3263   18.8536   19.3191 H   0  0  0  0  0  0
    5.7625   18.4818   20.4278 H   0  0  0  0  0  0
    5.1928   19.4966   19.0595 H   0  0  0  0  0  0
    5.5812   20.2563   20.6402 H   0  0  0  0  0  0
    8.7780   21.0218   18.6172 H   0  0  0  0  0  0
    7.1909   21.0055   17.7762 H   0  0  0  0  0  0
    6.1729   22.1048   19.8171 H   0  0  0  0  0  0
    7.8257   22.2469   20.5060 H   0  0  0  0  0  0
    7.0907   23.3181   17.8279 H   0  0  0  0  0  0
    8.2791   23.7338   21.3151 H   0  0  0  0  0  0
    7.8509   25.4782   21.3046 H   0  0  0  0  0  0
    9.5038   24.9563   20.8333 H   0  0  0  0  0  0
    9.1207   26.1653   18.4150 H   0  0  0  0  0  0
    7.8374   25.4602   17.3745 H   0  0  0  0  0  0
    7.3839   27.3085   19.7822 H   0  0  0  0  0  0
    7.2768   27.7720   18.0501 H   0  0  0  0  0  0
    5.5781   25.6588   19.2325 H   0  0  0  0  0  0
    5.9984   29.0023   17.5553 H   0  0  0  0  0  0
    4.3781   29.5403   18.1138 H   0  0  0  0  0  0
    4.5509   28.7000   16.5356 H   0  0  0  0  0  0
    3.2593   25.9346   18.8890 H   0  0  0  0  0  0
    2.8452   26.7911   17.3653 H   0  0  0  0  0  0
    2.6724   27.6314   18.9435 H   0  0  0  0  0  0
  1  2  1  0  0  0
  1  3  1  0  0  0
  1 25  1  0  0  0
  1 26  1  0  0  0
  2 17  1  0  0  0
  3  4  2  0  0  0
  3 27  1  0  0  0
  4  5  1  0  0  0
  4  6  1  0  0  0
  5 28  1  0  0  0
  5 29  1  0  0  0
  5 30  1  0  0  0
  6  7  1  0  0  0
  6 31  1  0  0  0
  6 32  1  0  0  0
  7  8  1  0  0  0
  7 33  1  0  0  0
  7 34  1  0  0  0
  8  9  2  0  0  0
  8 35  1  0  0  0
  9 10  1  0  0  0
  9 11  1  0  0  0
 10 36  1  0  0  0
 10 37  1  0  0  0
 10 38  1  0  0  0
 11 12  1  0  0  0
 11 39  1  0  0  0
 11 40  1  0  0  0
 12 13  1  0  0  0
 12 41  1  0  0  0
 12 42  1  0  0  0
 13 14  2  0  0  0
 13 43  1  0  0  0
 14 15  1  0  0  0
 14 16  1  0  0  0
 15 44  1  0  0  0
 15 45  1  0  0  0
 15 46  1  0  0  0
 16 47  1  0  0  0
 16 48  1  0  0  0
 16 49  1  0  0  0
 17 18  1  0  0  0
 17 19  2  0  0  0
 17 20  1  0  0  0
 20 21  1  0  0  0
 21 22  2  0  0  0
 21 23  1  0  0  0
 21 24  1  0  0  0
M  CHG  3  18  -1  23  -1  24  -1
M  END
> <s_m_source_file>
../3dsu_ligand.sdf

> <i_m_source_file_index>
1

> <s_epik_input>
Tz1QKFtPSF0pKFtPSF0pT1tQQF0oPU8pKFtPSF0pT1tDSDJdL1tDSF09QyhcW0NIM10pW0NIMl1bQ0gyXS9bQ0hdPUMoXFtDSDNdKVtDSDJdW0NIMl1bQ0hdPUMoW0NIM10pW0NIM10=

> <s_epik_cmdline>
J2VwaWtfYXBwJywgJy1pbWFlJywgJ2xpZ2FuZF9wcm8ubWFlJywgJy1vbWFlJywgJ2xpZ2FuZF9wcmVwLm1hZScsICctbXMnLCAnMScsICctcGgnLCAnNycsICctcGh0JywgJzAuNScsICctbnQn

> <r_epik_Ionization_Penalty>
  0.0891

> <r_epik_Ionization_Penalty_Charging>
  0.0891

> <r_epik_Ionization_Penalty_Neutral>
  0.0000

> <r_epik_State_Penalty>
  0.0782

> <r_epik_Charging_Adjusted_Penalty>
0.167378343084534

> <i_epik_Tot_Q>
-3

> <i_epik_Tot_abs_Q>
3

$$$$
