3dsz_ligand
                    3D
 Schrodinger Suite 2020-3.
 93 94  0  0  1  0            999 V2000
   -1.1940   57.3830   68.6820 N   0  0  1  0  0  0
    0.5960   61.6400   67.4580 N   0  0  0  0  0  0
   -0.4540   57.1230   69.9240 C   0  0  0  0  0  0
   -1.5890   58.5140   65.2810 C   0  0  0  0  0  0
   -0.0880   58.7930   65.3010 C   0  0  0  0  0  0
    0.1460   62.2210   69.7970 C   0  0  0  0  0  0
    1.2260   62.0240   68.7310 C   0  0  0  0  0  0
   -0.0290   62.8220   66.8510 C   0  0  0  0  0  0
    1.7460   59.5670   66.6930 C   0  0  1  0  0  0
    2.6860   59.0460   65.6040 C   0  0  0  0  0  0
    3.8840   61.2720   65.5710 C   0  0  0  0  0  0
   -0.5750   54.3430   65.4220 C   0  0  0  0  0  0
   -0.0840   53.6380   64.3330 C   0  0  0  0  0  0
    1.1600   52.9980   64.4100 C   0  0  0  0  0  0
    1.3760   53.7840   66.6900 C   0  0  0  0  0  0
    1.3550   52.1310   62.1570 C   0  0  0  0  0  0
    1.9310   51.0710   59.9800 C   0  0  0  0  0  0
   -1.0140   61.8640   69.5030 O   0  0  0  0  0  0
    0.5010   62.7090   70.8910 O   0  0  0  0  0  0
   -1.0250   62.3860   65.7730 C   0  0  0  0  0  0
   -1.2070   63.1670   64.8160 O   0  0  0  0  0  0
   -1.5870   61.2820   65.9370 O   0  0  0  0  0  0
    1.5610   61.0710   66.5060 C   0  0  2  0  0  0
    2.9110   61.7820   66.6330 C   0  0  0  0  0  0
    4.0410   59.7530   65.6680 C   0  0  0  0  0  0
    0.4690   58.8310   66.6630 N   0  3  2  0  0  0
   -2.0710   58.0300   64.2340 O   0  0  0  0  0  0
   -2.2520   58.8010   66.3030 O   0  5  0  0  0  0
    0.7200   57.4570   67.1340 C   0  0  0  0  0  0
   -0.5720   56.7350   67.5150 C   0  0  1  0  0  0
    0.5480   58.2510   70.1940 C   0  0  0  0  0  0
    1.4440   58.0320   71.0360 O   0  0  0  0  0  0
    0.3960   59.3100   69.5490 O   0  5  0  0  0  0
   -2.5900   56.9380   68.8260 C   0  0  0  0  0  0
   -3.3910   58.0080   69.5690 C   0  0  0  0  0  0
   -4.5020   57.6650   70.0300 O   0  0  0  0  0  0
   -2.8800   59.1450   69.6640 O   0  0  0  0  0  0
   -0.3230   55.2490   67.8090 C   0  0  0  0  0  0
    0.1580   54.4360   66.6080 C   0  0  0  0  0  0
    1.8650   53.0640   65.6010 C   0  0  0  0  0  0
    1.7400   52.3220   63.4250 N   0  0  0  0  0  0
    0.0470   53.0500   61.4440 S   0  0  0  0  0  0
    2.1410   51.3630   61.4050 N   0  0  0  0  0  0
    2.2350   52.3110   59.1360 C   0  0  0  0  0  0
    3.6250   52.6330   59.2170 O   0  0  0  0  0  0
    0.4990   50.6180   59.6960 C   0  0  0  0  0  0
    0.4750   49.2140   59.4300 O   0  0  0  0  0  0
    2.8920   49.9510   59.5820 C   0  0  0  0  0  0
    4.2360   50.3130   59.9140 O   0  0  0  0  0  0
   -1.1599   57.0615   70.7654 H   0  0  0  0  0  0
    0.0921   56.1724   69.8333 H   0  0  0  0  0  0
    0.4391   58.0035   64.7452 H   0  0  0  0  0  0
    0.1102   59.7674   64.8305 H   0  0  0  0  0  0
    1.9171   61.2307   69.0520 H   0  0  0  0  0  0
    1.7829   62.9629   68.5960 H   0  0  0  0  0  0
   -0.5594   63.3950   67.6259 H   0  0  0  0  0  0
    0.7474   63.4538   66.3948 H   0  0  0  0  0  0
    2.1481   59.3767   67.6990 H   0  0  0  0  0  0
    2.8439   57.9661   65.7418 H   0  0  0  0  0  0
    2.2387   59.2280   64.6157 H   0  0  0  0  0  0
    3.5025   61.5273   64.5714 H   0  0  0  0  0  0
    4.8676   61.7417   65.7190 H   0  0  0  0  0  0
   -1.5468   54.8316   65.3516 H   0  0  0  0  0  0
   -0.6679   53.5817   63.4143 H   0  0  0  0  0  0
    1.9563   53.8337   67.6114 H   0  0  0  0  0  0
   -0.2399   62.8693   71.6881 H   0  0  0  0  0  0
   -2.3120   60.9182   65.1941 H   0  0  0  0  0  0
    1.1152   61.2462   65.5158 H   0  0  0  0  0  0
    3.3253   61.5878   67.6333 H   0  0  0  0  0  0
    2.7597   62.8637   66.5025 H   0  0  0  0  0  0
    4.5348   59.5136   66.6213 H   0  0  0  0  0  0
    4.6715   59.4135   64.8330 H   0  0  0  0  0  0
   -0.2609   59.3392   67.3103 H   0  0  0  0  0  0
    1.2124   56.8804   66.3371 H   0  0  0  0  0  0
    1.3703   57.4864   68.0207 H   0  0  0  0  0  0
   -1.2825   56.8247   66.6800 H   0  0  0  0  0  0
   -3.0281   56.7771   67.8299 H   0  0  0  0  0  0
   -2.6181   55.9972   69.3952 H   0  0  0  0  0  0
   -5.1208   58.3941   70.5736 H   0  0  0  0  0  0
    0.4474   55.1535   68.5884 H   0  0  0  0  0  0
   -1.2565   54.7826   68.1571 H   0  0  0  0  0  0
    2.8189   52.5437   65.6880 H   0  0  0  0  0  0
    2.6959   51.8066   63.6001 H   0  0  0  0  0  0
    1.9712   52.1138   58.0865 H   0  0  0  0  0  0
    1.6456   53.1617   59.5086 H   0  0  0  0  0  0
    4.0215   53.5003   58.6688 H   0  0  0  0  0  0
   -0.1334   50.8319   60.5703 H   0  0  0  0  0  0
    0.1100   51.1591   58.8209 H   0  0  0  0  0  0
   -0.4779   48.7133   59.2037 H   0  0  0  0  0  0
    2.6238   49.0295   60.1195 H   0  0  0  0  0  0
    2.8230   49.7766   58.4981 H   0  0  0  0  0  0
    5.0620   49.6200   59.6962 H   0  0  0  0  0  0
    3.0049   50.9331   61.9330 H   0  0  0  0  0  0
  1  3  1  0  0  0
  1 30  1  0  0  0
  1 34  1  0  0  0
  2  7  1  0  0  0
  2  8  1  0  0  0
  2 23  1  0  0  0
  3 31  1  0  0  0
  3 50  1  0  0  0
  3 51  1  0  0  0
  4  5  1  0  0  0
  4 27  2  0  0  0
  4 28  1  0  0  0
  5 26  1  0  0  0
  5 52  1  0  0  0
  5 53  1  0  0  0
  6  7  1  0  0  0
  6 18  2  0  0  0
  6 19  1  0  0  0
  7 54  1  0  0  0
  7 55  1  0  0  0
  8 20  1  0  0  0
  8 56  1  0  0  0
  8 57  1  0  0  0
  9 10  1  0  0  0
  9 23  1  0  0  0
  9 26  1  0  0  0
  9 58  1  0  0  0
 10 25  1  0  0  0
 10 59  1  0  0  0
 10 60  1  0  0  0
 11 24  1  0  0  0
 11 25  1  0  0  0
 11 61  1  0  0  0
 11 62  1  0  0  0
 12 13  2  0  0  0
 12 39  1  0  0  0
 12 63  1  0  0  0
 13 14  1  0  0  0
 13 64  1  0  0  0
 14 40  2  0  0  0
 14 41  1  0  0  0
 15 39  2  0  0  0
 15 40  1  0  0  0
 15 65  1  0  0  0
 16 41  1  0  0  0
 16 42  2  0  0  0
 16 43  1  0  0  0
 17 43  1  0  0  0
 17 44  1  0  0  0
 17 46  1  0  0  0
 17 48  1  0  0  0
 19 66  1  0  0  0
 20 21  2  0  0  0
 20 22  1  0  0  0
 22 67  1  0  0  0
 23 24  1  0  0  0
 23 68  1  0  0  0
 24 69  1  0  0  0
 24 70  1  0  0  0
 25 71  1  0  0  0
 25 72  1  0  0  0
 26 29  1  0  0  0
 26 73  1  0  0  0
 29 30  1  0  0  0
 29 74  1  0  0  0
 29 75  1  0  0  0
 30 38  1  0  0  0
 30 76  1  0  0  0
 31 32  2  0  0  0
 31 33  1  0  0  0
 34 35  1  0  0  0
 34 77  1  0  0  0
 34 78  1  0  0  0
 35 36  1  0  0  0
 35 37  2  0  0  0
 36 79  1  0  0  0
 38 39  1  0  0  0
 38 80  1  0  0  0
 38 81  1  0  0  0
 40 82  1  0  0  0
 41 83  1  0  0  0
 43 93  1  0  0  0
 44 45  1  0  0  0
 44 84  1  0  0  0
 44 85  1  0  0  0
 45 86  1  0  0  0
 46 47  1  0  0  0
 46 87  1  0  0  0
 46 88  1  0  0  0
 47 89  1  0  0  0
 48 49  1  0  0  0
 48 90  1  0  0  0
 48 91  1  0  0  0
 49 92  1  0  0  0
M  CHG  3  26   1  28  -1  33  -1
M  END
> <s_m_source_file>
../3dsz_ligand.sdf

> <i_m_source_file_index>
1

> <s_epik_input>
W09IXVtDSDJdQyhbQ0gyXVtPSF0pKFtDSDJdW09IXSlcTj1DKFtTSF0pXFtOSF1jMVtjSF1bY0hdYyhbY0hdW2NIXTEpW0NIMl1bQ0BASF0oW05IK10oW0NIMl1DKD1PKVtPSF0pW0NIMl1DKD1PKVtPSF0pW0NIMl1bTkBIK10oW0NIMl1DKD1PKVtPSF0pW0NASF0yW0NIMl1bQ0gyXVtDSDJdW0NIMl1bQ0BASF0yW05IK10oW0NIMl1DKD1PKVtPSF0pW0NIMl1DKD1PKVtPSF0=

> <s_epik_cmdline>
J2VwaWtfYXBwJywgJy1pbWFlJywgJ2xpZ2FuZF9wcm8ubWFlJywgJy1vbWFlJywgJ2xpZ2FuZF9wcmVwLm1hZScsICctbXMnLCAnMScsICctcGgnLCAnNycsICctcGh0JywgJzAuNScsICctbnQn

> <r_epik_Ionization_Penalty>
  5.0510

> <r_epik_Ionization_Penalty_Charging>
  0.0483

> <r_epik_Ionization_Penalty_Neutral>
  5.0026

> <r_epik_State_Penalty>
  0.2118

> <r_epik_Charging_Adjusted_Penalty>
0.260145212349952

> <i_epik_Tot_Q>
-1

> <i_epik_Tot_abs_Q>
3

$$$$
