3dt1_ligand
                    3D
 Schrodinger Suite 2020-3.
 62 66  0  0  1  0            999 V2000
   26.1570    7.6530   31.8850 C   0  0  0  0  0  0
   27.4880    7.1130   32.1160 C   0  0  0  0  0  0
   29.5840   10.0780   32.4770 C   0  0  0  0  0  0
   29.0720    8.9170   31.7600 C   0  0  0  0  0  0
   20.6310    9.8700   28.8660 C   0  0  0  0  0  0
   20.0940   11.1780   29.2480 C   0  0  0  0  0  0
   20.9400   11.9650   30.1370 C   0  0  0  0  0  0
   22.2380   11.4550   30.5750 C   0  0  0  0  0  0
   18.8730   11.8230   28.8090 C   0  0  0  0  0  0
   18.9440   12.8120   27.7450 C   0  0  0  0  0  0
   17.8160   13.6310   27.3090 C   0  0  0  0  0  0
   16.5310   13.4800   27.9630 C   0  0  0  0  0  0
   17.9290   14.5910   26.1380 C   0  0  0  0  0  0
   17.0720   16.3140   24.7570 C   0  0  0  0  0  0
   17.0930   15.6900   23.4470 C   0  0  0  0  0  0
   15.9370   16.4620   23.8560 C   0  0  0  0  0  0
   23.7880    7.6480   29.3340 N   0  0  0  0  0  0
   22.5040    8.0740   28.9130 C   0  0  0  0  0  0
   28.3710    8.0740   32.6630 N   0  3  0  0  0  0
   28.7940    7.8140   33.9930 C   0  0  0  0  0  0
   29.3840    9.0050   34.5860 C   0  0  0  0  0  0
   30.0920    9.6850   33.6650 O   0  0  0  0  0  0
   16.4470   12.4960   29.0310 C   0  0  0  0  0  0
   17.5750   11.6840   29.4490 C   0  0  0  0  0  0
   17.2820   10.7900   30.5520 C   0  0  0  0  0  0
   18.9130   14.5550   25.4100 O   0  0  0  0  0  0
   21.9270    9.3490   29.3120 C   0  0  0  0  0  0
   22.7870   10.1500   30.1940 C   0  0  0  0  0  0
   24.0660    9.6970   30.6010 N   0  0  0  0  0  0
   24.5920    8.4530   30.1790 C   0  0  0  0  0  0
   25.9130    8.1290   30.5740 N   0  0  0  0  0  0
   16.9630   15.4730   25.8940 N   0  0  0  0  0  0
   25.4062    6.8723   32.0770 H   0  0  0  0  0  0
   25.9836    8.5028   32.5615 H   0  0  0  0  0  0
   27.4246    6.2698   32.8196 H   0  0  0  0  0  0
   27.9127    6.7642   31.1631 H   0  0  0  0  0  0
   30.3741   10.5579   31.8809 H   0  0  0  0  0  0
   28.7665   10.7942   32.6465 H   0  0  0  0  0  0
   28.3896    9.2494   30.9638 H   0  0  0  0  0  0
   29.9108    8.3612   31.3156 H   0  0  0  0  0  0
   20.0286    9.2437   28.2080 H   0  0  0  0  0  0
   20.6013   12.9432   30.4784 H   0  0  0  0  0  0
   22.8382   12.0876   31.2290 H   0  0  0  0  0  0
   19.9003   12.9509   27.2407 H   0  0  0  0  0  0
   15.6676   14.0763   27.6680 H   0  0  0  0  0  0
   17.7145   17.0059   25.3213 H   0  0  0  0  0  0
   17.9421   16.0819   22.8678 H   0  0  0  0  0  0
   17.1985   14.6010   23.5612 H   0  0  0  0  0  0
   15.0355   16.0476   24.3308 H   0  0  0  0  0  0
   15.7790   17.5284   23.6374 H   0  0  0  0  0  0
   21.9239    7.4191   28.2628 H   0  0  0  0  0  0
   27.7998    8.9700   32.9474 H   0  0  0  0  0  0
   27.9294    7.5056   34.5991 H   0  0  0  0  0  0
   29.5443    7.0096   33.9885 H   0  0  0  0  0  0
   28.5862    9.6541   34.9761 H   0  0  0  0  0  0
   30.0533    8.7121   35.4084 H   0  0  0  0  0  0
   15.4929   12.3623   29.5409 H   0  0  0  0  0  0
   18.1838   10.2137   30.8063 H   0  0  0  0  0  0
   16.4760   10.1003   30.2608 H   0  0  0  0  0  0
   16.9639   11.3777   31.4257 H   0  0  0  0  0  0
   26.7476    8.2458   29.8671 H   0  0  0  0  0  0
   16.0898   15.5560   26.5578 H   0  0  0  0  0  0
  1  2  1  0  0  0
  1 31  1  0  0  0
  1 33  1  0  0  0
  1 34  1  0  0  0
  2 19  1  0  0  0
  2 35  1  0  0  0
  2 36  1  0  0  0
  3  4  1  0  0  0
  3 22  1  0  0  0
  3 37  1  0  0  0
  3 38  1  0  0  0
  4 19  1  0  0  0
  4 39  1  0  0  0
  4 40  1  0  0  0
  5  6  2  0  0  0
  5 27  1  0  0  0
  5 41  1  0  0  0
  6  7  1  0  0  0
  6  9  1  0  0  0
  7  8  2  0  0  0
  7 42  1  0  0  0
  8 28  1  0  0  0
  8 43  1  0  0  0
  9 10  2  0  0  0
  9 24  1  0  0  0
 10 11  1  0  0  0
 10 44  1  0  0  0
 11 12  2  0  0  0
 11 13  1  0  0  0
 12 23  1  0  0  0
 12 45  1  0  0  0
 13 26  2  0  0  0
 13 32  1  0  0  0
 14 15  1  0  0  0
 14 16  1  0  0  0
 14 32  1  0  0  0
 14 46  1  0  0  0
 15 16  1  0  0  0
 15 47  1  0  0  0
 15 48  1  0  0  0
 16 49  1  0  0  0
 16 50  1  0  0  0
 17 18  1  0  0  0
 17 30  2  0  0  0
 18 27  2  0  0  0
 18 51  1  0  0  0
 19 20  1  0  0  0
 19 52  1  0  0  0
 20 21  1  0  0  0
 20 53  1  0  0  0
 20 54  1  0  0  0
 21 22  1  0  0  0
 21 55  1  0  0  0
 21 56  1  0  0  0
 23 24  2  0  0  0
 23 57  1  0  0  0
 24 25  1  0  0  0
 25 58  1  0  0  0
 25 59  1  0  0  0
 25 60  1  0  0  0
 27 28  1  0  0  0
 28 29  2  0  0  0
 29 30  1  0  0  0
 30 31  1  0  0  0
 31 61  1  0  0  0
 32 62  1  0  0  0
M  CHG  1  19   1
M  END
> <s_m_source_file>
../3dt1_ligand.sdf

> <i_m_source_file_index>
1

> <s_epik_input>
W0NIMl0xW0NIMl1PW0NIMl1bQ0gyXVtOSCtdMVtDSDJdW0NIMl1bTkhdYyhuW2NIXTIpbmMoYzIzKVtjSF1bY0hdYyhbY0hdMyktYzRbY0hdYyhbY0hdW2NIXWM0W0NIM10pQyg9TylbTkhdW0NIXTVbQ0gyXVtDSDJdNQ==

> <s_epik_cmdline>
J2VwaWtfYXBwJywgJy1pbWFlJywgJ2xpZ2FuZF9wcm8ubWFlJywgJy1vbWFlJywgJ2xpZ2FuZF9wcmVwLm1hZScsICctbXMnLCAnMScsICctcGgnLCAnNycsICctcGh0JywgJzAuNScsICctbnQn

> <r_epik_Ionization_Penalty>
  0.1660

> <r_epik_Ionization_Penalty_Charging>
  0.1653

> <r_epik_Ionization_Penalty_Neutral>
  0.0006

> <r_epik_State_Penalty>
  0.1547

> <r_epik_Charging_Adjusted_Penalty>
0.320009128358321

> <i_epik_Tot_Q>
1

> <i_epik_Tot_abs_Q>
1

$$$$
