3dux_ligand
                    3D
 Schrodinger Suite 2020-3.
 58 60  0  0  1  0            999 V2000
   17.9320  -14.9390   24.5340 C   0  0  0  0  0  0
   16.1710  -15.9180   23.2080 N   0  3  0  0  0  0
   17.3660  -15.0440   23.0940 C   0  0  1  0  0  0
   17.0830  -13.6790   22.5060 C   0  0  0  0  0  0
   16.1630  -13.0030   22.9900 O   0  0  0  0  0  0
   17.7750  -13.1570   21.4440 N   0  0  0  0  0  0
   18.8890  -13.8440   20.7900 C   0  0  0  0  0  0
   19.3320  -12.8270   19.7330 C   0  0  0  0  0  0
   18.3990  -11.6260   19.7770 C   0  0  0  0  0  0
   17.4290  -11.8450   20.9360 C   0  0  1  0  0  0
   15.9810  -11.7680   20.4910 C   0  0  0  0  0  0
   15.3670  -10.6120   20.8330 N   0  0  0  0  0  0
   14.0480  -10.3120   20.2910 C   0  0  0  0  0  0
   13.0700  -10.3010   21.4780 C   0  0  0  0  0  0
   13.0740   -9.2230   22.3770 C   0  0  0  0  0  0
   12.1770   -9.2260   23.4530 C   0  0  0  0  0  0
   11.2870  -10.2800   23.6420 C   0  0  0  0  0  0
   11.2970  -11.3430   22.7390 C   0  0  0  0  0  0
   12.1820  -11.3530   21.6650 C   0  0  0  0  0  0
   15.4240  -12.6860   19.9010 O   0  0  0  0  0  0
   19.2230  -14.1140   24.5550 C   0  0  0  0  0  0
   19.4910  -13.7480   26.0370 C   0  0  0  0  0  0
   20.8000  -12.9330   26.1570 C   0  0  0  0  0  0
   21.9860  -13.7640   25.5820 C   0  0  0  0  0  0
   21.7380  -14.0550   24.0710 C   0  0  0  0  0  0
   20.4160  -14.8770   23.9260 C   0  0  0  0  0  0
   12.1650   -7.9020   24.5830 Cl  0  0  0  0  0  0
   17.1906  -14.4523   25.1848 H   0  0  0  0  0  0
   18.1502  -15.9470   24.9167 H   0  0  0  0  0  0
   16.4642  -16.8852   23.6423 H   0  0  0  0  0  0
   15.7389  -16.0803   22.2095 H   0  0  0  0  0  0
   15.4247  -15.4359   23.8566 H   0  0  0  0  0  0
   18.0550  -15.4943   22.3642 H   0  0  0  0  0  0
   19.6733  -14.0585   21.5309 H   0  0  0  0  0  0
   18.5314  -14.7872   20.3512 H   0  0  0  0  0  0
   20.3620  -12.5037   19.9442 H   0  0  0  0  0  0
   19.2906  -13.2918   18.7369 H   0  0  0  0  0  0
   18.9875  -10.7101   19.9345 H   0  0  0  0  0  0
   17.8522  -11.5514   18.8254 H   0  0  0  0  0  0
   17.5258  -11.1001   21.7396 H   0  0  0  0  0  0
   15.8562   -9.9009   21.5149 H   0  0  0  0  0  0
   14.0701   -9.3305   19.7948 H   0  0  0  0  0  0
   13.7668  -11.0855   19.5612 H   0  0  0  0  0  0
   13.7671   -8.3931   22.2394 H   0  0  0  0  0  0
   10.5932  -10.2745   24.4826 H   0  0  0  0  0  0
   10.6050  -12.1739   22.8758 H   0  0  0  0  0  0
   12.1784  -12.1903   20.9671 H   0  0  0  0  0  0
   19.0973  -13.2107   23.9400 H   0  0  0  0  0  0
   18.6552  -13.1460   26.4229 H   0  0  0  0  0  0
   19.5844  -14.6691   26.6311 H   0  0  0  0  0  0
   20.7014  -11.9954   25.5903 H   0  0  0  0  0  0
   20.9932  -12.7032   27.2152 H   0  0  0  0  0  0
   22.9210  -13.1958   25.6957 H   0  0  0  0  0  0
   22.0663  -14.7152   26.1286 H   0  0  0  0  0  0
   21.6476  -13.1046   23.5246 H   0  0  0  0  0  0
   22.5820  -14.6322   23.6654 H   0  0  0  0  0  0
   20.5418  -15.8442   24.4347 H   0  0  0  0  0  0
   20.2196  -15.0477   22.8572 H   0  0  0  0  0  0
  1  3  1  0  0  0
  1 21  1  0  0  0
  1 28  1  0  0  0
  1 29  1  0  0  0
  2  3  1  0  0  0
  2 30  1  0  0  0
  2 31  1  0  0  0
  2 32  1  0  0  0
  3  4  1  0  0  0
  3 33  1  0  0  0
  4  5  2  0  0  0
  4  6  1  0  0  0
  6  7  1  0  0  0
  6 10  1  0  0  0
  7  8  1  0  0  0
  7 34  1  0  0  0
  7 35  1  0  0  0
  8  9  1  0  0  0
  8 36  1  0  0  0
  8 37  1  0  0  0
  9 10  1  0  0  0
  9 38  1  0  0  0
  9 39  1  0  0  0
 10 11  1  0  0  0
 10 40  1  0  0  0
 11 12  1  0  0  0
 11 20  2  0  0  0
 12 13  1  0  0  0
 12 41  1  0  0  0
 13 14  1  0  0  0
 13 42  1  0  0  0
 13 43  1  0  0  0
 14 15  2  0  0  0
 14 19  1  0  0  0
 15 16  1  0  0  0
 15 44  1  0  0  0
 16 17  2  0  0  0
 16 27  1  0  0  0
 17 18  1  0  0  0
 17 45  1  0  0  0
 18 19  2  0  0  0
 18 46  1  0  0  0
 19 47  1  0  0  0
 21 22  1  0  0  0
 21 26  1  0  0  0
 21 48  1  0  0  0
 22 23  1  0  0  0
 22 49  1  0  0  0
 22 50  1  0  0  0
 23 24  1  0  0  0
 23 51  1  0  0  0
 23 52  1  0  0  0
 24 25  1  0  0  0
 24 53  1  0  0  0
 24 54  1  0  0  0
 25 26  1  0  0  0
 25 55  1  0  0  0
 25 56  1  0  0  0
 26 57  1  0  0  0
 26 58  1  0  0  0
M  CHG  1   2   1
M  END
> <s_m_source_file>
../3dux_ligand.sdf

> <i_m_source_file_index>
1

> <s_epik_input>
W0NIMl0xW0NIMl1bQ0gyXVtDSDJdW0NIMl1bQ0hdMVtDSDJdW0NAQEhdKFtOSDMrXSlDKD1PKU4yW0NIMl1bQ0gyXVtDSDJdW0NASF0yQyg9TylbTkhdW0NIMl1jM1tjSF1jKENsKVtjSF1bY0hdW2NIXTM=

> <s_epik_cmdline>
J2VwaWtfYXBwJywgJy1pbWFlJywgJ2xpZ2FuZF9wcm8ubWFlJywgJy1vbWFlJywgJ2xpZ2FuZF9wcmVwLm1hZScsICctbXMnLCAnMScsICctcGgnLCAnNycsICctcGh0JywgJzAuNScsICctbnQn

> <r_epik_Ionization_Penalty>
  0.0811

> <r_epik_Ionization_Penalty_Charging>
  0.0811

> <r_epik_Ionization_Penalty_Neutral>
  0.0000

> <r_epik_State_Penalty>
  0.0719

> <r_epik_Charging_Adjusted_Penalty>
0.152972503051488

> <i_epik_Tot_Q>
1

> <i_epik_Tot_abs_Q>
1

$$$$
