3duy_ligand
                    3D
 Schrodinger Suite 2020-3.
 82 81  0  0  1  0            999 V2000
   23.9040    4.8680   16.1720 S   0  0  0  0  0  0
   25.4990    5.0830   17.0310 C   0  0  0  0  0  0
   26.5190    5.8000   16.1070 C   0  0  0  0  0  0
   27.9370    5.9450   16.7470 C   0  0  2  0  0  0
   27.9500    7.0180   17.7500 N   0  0  0  0  0  0
   27.7520    6.8110   19.0820 C   0  0  0  0  0  0
   27.5450    5.7110   19.5890 O   0  0  0  0  0  0
   27.7930    8.0430   19.9580 C   0  0  0  0  0  0
   29.0150    8.0950   20.9190 C   0  0  0  0  0  0
   30.3870    8.4210   20.2540 C   0  0  0  0  0  0
   31.5580    7.8190   21.0780 C   0  0  0  0  0  0
   30.5880    9.9570   20.1720 C   0  0  0  0  0  0
   29.0190    6.2190   15.7180 C   0  0  0  0  0  0
   28.7180    6.5750   14.5780 O   0  0  0  0  0  0
   30.3100    6.0520   16.1160 N   0  0  0  0  0  0
   31.4620    6.2870   15.2300 C   0  0  2  0  0  0
   32.0930    4.9250   14.8010 C   0  0  1  0  0  0
   32.7860    4.3010   15.8980 O   0  0  0  0  0  0
   31.1290    3.9220   14.0810 C   0  0  0  0  0  0
   31.7960    2.9880   13.0270 C   0  0  1  0  0  0
   30.9660    1.6830   12.9020 C   0  0  0  0  0  0
   31.8860    3.6190   11.6490 C   0  0  0  0  0  0
   30.9540    4.2930   11.2260 O   0  0  0  0  0  0
   33.0170    3.3960   10.9450 N   0  0  0  0  0  0
   33.2180    3.9330    9.6050 C   0  0  0  0  0  0
   34.4680    3.3380    8.9220 C   0  0  0  0  0  0
   34.4180    3.5570    7.3930 C   0  0  0  0  0  0
   34.7520    5.0090    6.9950 C   0  0  0  0  0  0
   32.4500    7.3220   15.8550 C   0  0  0  0  0  0
   31.8260    8.7150   16.2030 C   0  0  0  0  0  0
   31.4770    9.5620   14.9450 C   0  0  0  0  0  0
   32.8010    9.5140   17.1150 C   0  0  0  0  0  0
   22.7940    4.7770   17.6100 C   0  0  0  0  0  0
   25.3489    5.6888   17.9368 H   0  0  0  0  0  0
   25.9004    4.0979   17.3111 H   0  0  0  0  0  0
   26.6335    5.2285   15.1741 H   0  0  0  0  0  0
   26.1553    6.8118   15.8748 H   0  0  0  0  0  0
   28.1887    5.0084   17.2660 H   0  0  0  0  0  0
   28.1270    8.0585   17.4401 H   0  0  0  0  0  0
   27.8391    8.9415   19.3251 H   0  0  0  0  0  0
   26.8876    8.0798   20.5816 H   0  0  0  0  0  0
   28.8500    8.8717   21.6803 H   0  0  0  0  0  0
   29.1361    7.1188   21.4114 H   0  0  0  0  0  0
   30.3870    7.9847   19.2442 H   0  0  0  0  0  0
   31.4342    6.7282   21.1482 H   0  0  0  0  0  0
   31.5570    8.2540   22.0884 H   0  0  0  0  0  0
   32.5121    8.0485   20.5809 H   0  0  0  0  0  0
   29.7675   10.4037   19.5912 H   0  0  0  0  0  0
   31.5471   10.1755   19.6796 H   0  0  0  0  0  0
   30.5920   10.3810   21.1870 H   0  0  0  0  0  0
   30.4720    5.7254   17.1538 H   0  0  0  0  0  0
   31.0685    6.7605   14.3184 H   0  0  0  0  0  0
   32.8942    5.1604   14.0850 H   0  0  0  0  0  0
   33.4995    4.8828   16.5001 H   0  0  0  0  0  0
   30.6617    3.2628   14.8273 H   0  0  0  0  0  0
   30.3479    4.4832   13.5473 H   0  0  0  0  0  0
   32.8281    2.7973   13.3564 H   0  0  0  0  0  0
   30.8849    1.2041   13.8889 H   0  0  0  0  0  0
   31.4646    0.9970   12.2014 H   0  0  0  0  0  0
   29.9601    1.9228   12.5270 H   0  0  0  0  0  0
   33.8015    2.7858   11.4164 H   0  0  0  0  0  0
   32.3428    3.6989    8.9811 H   0  0  0  0  0  0
   33.3459    5.0240    9.6626 H   0  0  0  0  0  0
   35.3702    3.8257    9.3197 H   0  0  0  0  0  0
   34.5164    2.2576    9.1230 H   0  0  0  0  0  0
   35.1474    2.8947    6.9037 H   0  0  0  0  0  0
   33.4080    3.3274    7.0225 H   0  0  0  0  0  0
   34.7023    5.1099    5.9008 H   0  0  0  0  0  0
   35.7656    5.2600    7.3408 H   0  0  0  0  0  0
   34.0263    5.6927    7.4596 H   0  0  0  0  0  0
   32.8579    6.9189   16.7937 H   0  0  0  0  0  0
   33.2727    7.5151   15.1508 H   0  0  0  0  0  0
   30.8790    8.5233   16.7288 H   0  0  0  0  0  0
   30.7877    8.9957   14.3014 H   0  0  0  0  0  0
   32.3981    9.7869   14.3873 H   0  0  0  0  0  0
   30.9985   10.5020   15.2571 H   0  0  0  0  0  0
   33.0466    8.9140   18.0036 H   0  0  0  0  0  0
   32.3230   10.4540   17.4279 H   0  0  0  0  0  0
   33.7226    9.7389   16.5582 H   0  0  0  0  0  0
   21.7579    4.6435   17.2655 H   0  0  0  0  0  0
   22.8701    5.7077   18.1914 H   0  0  0  0  0  0
   23.0828    3.9248   18.2427 H   0  0  0  0  0  0
  1  2  1  0  0  0
  1 33  1  0  0  0
  2  3  1  0  0  0
  2 34  1  0  0  0
  2 35  1  0  0  0
  3  4  1  0  0  0
  3 36  1  0  0  0
  3 37  1  0  0  0
  4  5  1  0  0  0
  4 13  1  0  0  0
  4 38  1  0  0  0
  5  6  1  0  0  0
  5 39  1  0  0  0
  6  7  2  0  0  0
  6  8  1  0  0  0
  8  9  1  0  0  0
  8 40  1  0  0  0
  8 41  1  0  0  0
  9 10  1  0  0  0
  9 42  1  0  0  0
  9 43  1  0  0  0
 10 11  1  0  0  0
 10 12  1  0  0  0
 10 44  1  0  0  0
 11 45  1  0  0  0
 11 46  1  0  0  0
 11 47  1  0  0  0
 12 48  1  0  0  0
 12 49  1  0  0  0
 12 50  1  0  0  0
 13 14  2  0  0  0
 13 15  1  0  0  0
 15 16  1  0  0  0
 15 51  1  0  0  0
 16 17  1  0  0  0
 16 29  1  0  0  0
 16 52  1  0  0  0
 17 18  1  0  0  0
 17 19  1  0  0  0
 17 53  1  0  0  0
 18 54  1  0  0  0
 19 20  1  0  0  0
 19 55  1  0  0  0
 19 56  1  0  0  0
 20 21  1  0  0  0
 20 22  1  0  0  0
 20 57  1  0  0  0
 21 58  1  0  0  0
 21 59  1  0  0  0
 21 60  1  0  0  0
 22 23  2  0  0  0
 22 24  1  0  0  0
 24 25  1  0  0  0
 24 61  1  0  0  0
 25 26  1  0  0  0
 25 62  1  0  0  0
 25 63  1  0  0  0
 26 27  1  0  0  0
 26 64  1  0  0  0
 26 65  1  0  0  0
 27 28  1  0  0  0
 27 66  1  0  0  0
 27 67  1  0  0  0
 28 68  1  0  0  0
 28 69  1  0  0  0
 28 70  1  0  0  0
 29 30  1  0  0  0
 29 71  1  0  0  0
 29 72  1  0  0  0
 30 31  1  0  0  0
 30 32  1  0  0  0
 30 73  1  0  0  0
 31 74  1  0  0  0
 31 75  1  0  0  0
 31 76  1  0  0  0
 32 77  1  0  0  0
 32 78  1  0  0  0
 32 79  1  0  0  0
 33 80  1  0  0  0
 33 81  1  0  0  0
 33 82  1  0  0  0
M  END
> <s_m_source_file>
../3duy_ligand.sdf

> <i_m_source_file_index>
1

> <s_epik_input>
W0NIM11bQ0hdKFtDSDNdKVtDSDJdW0NIMl1DKD1PKVtOSF1bQ0BASF0oW0NIMl1bQ0gyXVNbQ0gzXSlDKD1PKVtOSF1bQ0BASF0oW0NIMl1bQ0hdKFtDSDNdKVtDSDNdKVtDQEBIXShbT0hdKVtDSDJdW0NAQEhdKFtDSDNdKUMoPU8pW05IXVtDSDJdW0NIMl1bQ0gyXVtDSDNd

> <s_epik_cmdline>
J2VwaWtfYXBwJywgJy1pbWFlJywgJ2xpZ2FuZF9wcm8ubWFlJywgJy1vbWFlJywgJ2xpZ2FuZF9wcmVwLm1hZScsICctbXMnLCAnMScsICctcGgnLCAnNycsICctcGh0JywgJzAuNScsICctbnQn

> <r_lp_tautomer_probability>
1

> <r_epik_Ionization_Penalty>
  0.0000

> <r_epik_Ionization_Penalty_Charging>
  0.0000

> <r_epik_Ionization_Penalty_Neutral>
  0.0000

> <r_epik_State_Penalty>
 -0.0000

> <r_epik_Charging_Adjusted_Penalty>
0

> <i_epik_Tot_Q>
0

> <i_epik_Tot_abs_Q>
0

$$$$
