3dv5_ligand
                    3D
 Schrodinger Suite 2020-3.
 85 86  0  0  1  0            999 V2000
   27.3080    6.5180   16.8590 N   0  0  0  0  0  0
   27.3450    5.4120   15.9210 C   0  0  2  0  0  0
   28.4650    5.6510   14.9550 C   0  0  0  0  0  0
   29.7200    5.7230   15.4620 N   0  0  0  0  0  0
   30.8710    5.9170   14.5620 C   0  0  1  0  0  0
   31.8550    6.8270   15.3360 C   0  0  0  0  0  0
   31.1400    8.1530   15.8080 C   0  0  1  0  0  0
   32.2520    9.0140   16.4350 C   0  0  0  0  0  0
   31.7310   10.3030   17.1290 C   0  0  0  0  0  0
   30.7020   10.0510   18.2430 C   0  0  0  0  0  0
   31.2710    9.1130   19.3320 C   0  0  0  0  0  0
   30.3860    9.1930   20.6230 C   0  0  0  0  0  0
   28.8680    8.9940   20.3280 C   0  0  0  0  0  0
   28.6300    7.6050   19.6310 C   0  0  0  0  0  0
   27.1080    7.3890   19.2320 C   0  0  0  0  0  0
   27.0930    6.2370   18.1990 C   0  0  0  0  0  0
   26.8830    5.0960   18.6070 O   0  0  0  0  0  0
   30.4730    8.9090   14.5690 C   0  0  0  0  0  0
   31.5880    4.5730   14.2720 C   0  0  2  0  0  0
   32.8220    4.8200   13.5960 O   0  0  0  0  0  0
   30.7210    3.6020   13.4430 C   0  0  0  0  0  0
   31.4290    2.3110   13.1910 N   0  3  0  0  0  0
   30.7960    1.5220   12.0900 C   0  0  0  0  0  0
   30.7310    2.2940   10.7270 C   0  0  0  0  0  0
   31.8930    2.8580   10.1620 C   0  0  0  0  0  0
   31.8330    3.5250    8.9150 C   0  0  0  0  0  0
   30.6090    3.6510    8.2380 C   0  0  0  0  0  0
   29.4550    3.0950    8.8070 C   0  0  0  0  0  0
   29.4990    2.4210   10.0530 C   0  0  0  0  0  0
   33.0540    4.1100    8.2650 C   0  0  0  0  0  0
   34.0950    2.9830    8.0840 C   0  0  0  0  0  0
   33.6620    5.2340    9.1090 C   0  0  0  0  0  0
   28.2100    5.7650   13.7730 O   0  0  0  0  0  0
   25.9740    5.2100   15.1840 C   0  0  0  0  0  0
   27.4650    7.9260   16.4010 C   0  0  0  0  0  0
   27.5704    4.5173   16.5198 H   0  0  0  0  0  0
   29.8787    5.6364   16.5470 H   0  0  0  0  0  0
   30.4967    6.3444   13.6201 H   0  0  0  0  0  0
   32.2300    6.2922   16.2211 H   0  0  0  0  0  0
   32.6995    7.0928   14.6831 H   0  0  0  0  0  0
   30.3495    7.9547   16.5467 H   0  0  0  0  0  0
   32.7856    8.4261   17.1964 H   0  0  0  0  0  0
   32.9584    9.3274   15.6522 H   0  0  0  0  0  0
   32.5751   10.8398   17.5866 H   0  0  0  0  0  0
   31.2457   10.9502   16.3836 H   0  0  0  0  0  0
   30.4288   11.0073   18.7130 H   0  0  0  0  0  0
   29.8036    9.5837   17.8135 H   0  0  0  0  0  0
   31.2748    8.0782   18.9591 H   0  0  0  0  0  0
   32.2989    9.4179   19.5780 H   0  0  0  0  0  0
   30.6966    8.4092   21.3296 H   0  0  0  0  0  0
   30.5105   10.1800   21.0924 H   0  0  0  0  0  0
   28.3039    9.0254   21.2718 H   0  0  0  0  0  0
   28.5154    9.7963   19.6632 H   0  0  0  0  0  0
   29.2358    7.5460   18.7147 H   0  0  0  0  0  0
   28.9223    6.7959   20.3165 H   0  0  0  0  0  0
   26.5279    7.1247   20.1285 H   0  0  0  0  0  0
   26.7079    8.3166   18.7967 H   0  0  0  0  0  0
   29.6827    8.2777   14.1366 H   0  0  0  0  0  0
   31.2398    9.1105   13.8065 H   0  0  0  0  0  0
   30.0372    9.8594   14.9108 H   0  0  0  0  0  0
   31.8614    4.0887   15.2211 H   0  0  0  0  0  0
   33.5688    5.4929   14.0427 H   0  0  0  0  0  0
   29.7894    3.3867   13.9869 H   0  0  0  0  0  0
   30.4812    4.0616   12.4728 H   0  0  0  0  0  0
   32.4724    2.5142   12.9080 H   0  0  0  0  0  0
   31.4096    1.6978   14.1040 H   0  0  0  0  0  0
   31.3731    0.6011   11.9203 H   0  0  0  0  0  0
   29.7649    1.2619   12.3713 H   0  0  0  0  0  0
   32.8440    2.7799   10.6890 H   0  0  0  0  0  0
   30.5571    4.1740    7.2831 H   0  0  0  0  0  0
   28.5046    3.1827    8.2806 H   0  0  0  0  0  0
   28.5894    2.0049   10.4860 H   0  0  0  0  0  0
   32.7403    4.5409    7.3028 H   0  0  0  0  0  0
   33.6591    2.1752    7.4779 H   0  0  0  0  0  0
   34.3825    2.5878    9.0694 H   0  0  0  0  0  0
   34.9845    3.3837    7.5758 H   0  0  0  0  0  0
   32.9214    6.0370    9.2384 H   0  0  0  0  0  0
   34.5516    5.6341    8.6006 H   0  0  0  0  0  0
   33.9496    4.8382   10.0942 H   0  0  0  0  0  0
   25.1806    5.0380   15.9262 H   0  0  0  0  0  0
   26.0430    4.3411   14.5129 H   0  0  0  0  0  0
   25.7376    6.1093   14.5964 H   0  0  0  0  0  0
   27.6261    7.9418   15.3130 H   0  0  0  0  0  0
   28.3293    8.3817   16.9063 H   0  0  0  0  0  0
   26.5556    8.4946   16.6454 H   0  0  0  0  0  0
  1  2  1  0  0  0
  1 16  1  0  0  0
  1 35  1  0  0  0
  2  3  1  0  0  0
  2 34  1  0  0  0
  2 36  1  0  0  0
  3  4  1  0  0  0
  3 33  2  0  0  0
  4  5  1  0  0  0
  4 37  1  0  0  0
  5  6  1  0  0  0
  5 19  1  0  0  0
  5 38  1  0  0  0
  6  7  1  0  0  0
  6 39  1  0  0  0
  6 40  1  0  0  0
  7  8  1  0  0  0
  7 18  1  0  0  0
  7 41  1  0  0  0
  8  9  1  0  0  0
  8 42  1  0  0  0
  8 43  1  0  0  0
  9 10  1  0  0  0
  9 44  1  0  0  0
  9 45  1  0  0  0
 10 11  1  0  0  0
 10 46  1  0  0  0
 10 47  1  0  0  0
 11 12  1  0  0  0
 11 48  1  0  0  0
 11 49  1  0  0  0
 12 13  1  0  0  0
 12 50  1  0  0  0
 12 51  1  0  0  0
 13 14  1  0  0  0
 13 52  1  0  0  0
 13 53  1  0  0  0
 14 15  1  0  0  0
 14 54  1  0  0  0
 14 55  1  0  0  0
 15 16  1  0  0  0
 15 56  1  0  0  0
 15 57  1  0  0  0
 16 17  2  0  0  0
 18 58  1  0  0  0
 18 59  1  0  0  0
 18 60  1  0  0  0
 19 20  1  0  0  0
 19 21  1  0  0  0
 19 61  1  0  0  0
 20 62  1  0  0  0
 21 22  1  0  0  0
 21 63  1  0  0  0
 21 64  1  0  0  0
 22 23  1  0  0  0
 22 65  1  0  0  0
 22 66  1  0  0  0
 23 24  1  0  0  0
 23 67  1  0  0  0
 23 68  1  0  0  0
 24 25  2  0  0  0
 24 29  1  0  0  0
 25 26  1  0  0  0
 25 69  1  0  0  0
 26 27  2  0  0  0
 26 30  1  0  0  0
 27 28  1  0  0  0
 27 70  1  0  0  0
 28 29  2  0  0  0
 28 71  1  0  0  0
 29 72  1  0  0  0
 30 31  1  0  0  0
 30 32  1  0  0  0
 30 73  1  0  0  0
 31 74  1  0  0  0
 31 75  1  0  0  0
 31 76  1  0  0  0
 32 77  1  0  0  0
 32 78  1  0  0  0
 32 79  1  0  0  0
 34 80  1  0  0  0
 34 81  1  0  0  0
 34 82  1  0  0  0
 35 83  1  0  0  0
 35 84  1  0  0  0
 35 85  1  0  0  0
M  CHG  1  22   1
M  END
> <s_m_source_file>
../3dv5_ligand.sdf

> <i_m_source_file_index>
1

> <s_epik_input>
W2NIXTFbY0hdW2NIXWMoW0NIXShbQ0gzXSlbQ0gzXSlbY0hdYzFbQ0gyXVtOSDIrXVtDSDJdW0NAQEhdKFtPSF0pW0NAQEhdKFtOSF1DKD1PKVtDQEhdKFtDSDNdKU4yW0NIM10pW0NIMl1bQ0BIXShbQ0gzXSlbQ0gyXVtDSDJdW0NIMl1bQ0gyXVtDSDJdW0NIMl1bQ0gyXVtDSDJdQzI9Tw==

> <s_epik_cmdline>
J2VwaWtfYXBwJywgJy1pbWFlJywgJ2xpZ2FuZF9wcm8ubWFlJywgJy1vbWFlJywgJ2xpZ2FuZF9wcmVwLm1hZScsICctbXMnLCAnMScsICctcGgnLCAnNycsICctcGh0JywgJzAuNScsICctbnQn

> <r_epik_Ionization_Penalty>
  0.0182

> <r_epik_Ionization_Penalty_Charging>
  0.0182

> <r_epik_Ionization_Penalty_Neutral>
  0.0000

> <r_epik_State_Penalty>
  0.0144

> <r_epik_Charging_Adjusted_Penalty>
0.0325934021800016

> <i_epik_Tot_Q>
1

> <i_epik_Tot_abs_Q>
1

$$$$
