3dvp_ligand
                    3D
 Schrodinger Suite 2020-3.
128128  0  0  1  0            999 V2000
   15.6030    9.9530  -16.3890 N   0  3  0  0  0  0
   14.7200   10.5890  -15.4050 C   0  0  2  0  0  0
   14.9740   10.0850  -13.9820 C   0  0  0  0  0  0
   14.1240    9.3450  -13.4940 O   0  0  0  0  0  0
   13.2390   10.3700  -15.8650 C   0  0  0  0  0  0
   16.0810   10.4960  -13.3150 N   0  0  0  0  0  0
   16.5660    9.8840  -12.0290 C   0  0  2  0  0  0
   17.2450   10.7890  -11.0190 C   0  0  0  0  0  0
   17.9080   11.7390  -11.4460 O   0  0  0  0  0  0
   17.5940    8.7830  -12.3370 C   0  0  2  0  0  0
   16.8690    7.6430  -12.7790 O   0  0  0  0  0  0
   18.3750    8.4120  -11.1180 C   0  0  0  0  0  0
   17.1110   10.4520   -9.7080 N   0  0  0  0  0  0
   17.7150   11.1660   -8.5640 C   0  0  2  0  0  0
   18.2910   10.2460   -7.4810 C   0  0  0  0  0  0
   17.7500    9.1870   -7.2490 O   0  0  0  0  0  0
   16.6910   12.0940   -7.8980 C   0  0  0  0  0  0
   16.2200   13.3280   -8.7000 C   0  0  0  0  0  0
   15.6360   14.3560   -7.6980 C   0  0  0  0  0  0
   15.5560   15.6950   -8.2250 N   0  0  0  0  0  0
   14.5050   16.1070   -8.9430 C   0  0  0  0  0  0
   13.4800   15.2520   -9.1520 N   0  0  0  0  0  0
   14.4500   17.3600   -9.4380 N   0  3  0  0  0  0
   19.3440   10.6740   -6.7820 N   0  0  0  0  0  0
   19.9220    9.9180   -5.6880 C   0  0  2  0  0  0
   19.5640   10.6030   -4.4420 C   0  0  0  0  0  0
   19.8800   11.8180   -4.2840 O   0  0  0  0  0  0
   21.4530    9.8400   -5.7470 C   0  0  0  0  0  0
   21.9500    9.0940   -6.9440 C   0  0  0  0  0  0
   21.2510    8.1460   -7.3740 O   0  0  0  0  0  0
   23.0510    9.4380   -7.4600 O   0  5  0  0  0  0
   19.0060    9.8590   -3.4980 N   0  0  0  0  0  0
   18.6150   10.5290   -2.2370 C   0  0  2  0  0  0
   18.9510    9.6020   -1.0710 C   0  0  0  0  0  0
   18.7940    8.3990   -1.2250 O   0  0  0  0  0  0
   17.1250   10.9710   -2.2040 C   0  0  0  0  0  0
   16.3020    9.7410   -2.0780 C   0  0  0  0  0  0
   16.8760   12.0050   -1.0720 C   0  0  0  0  0  0
   19.5010   10.1710    0.0170 N   0  0  0  0  0  0
   19.5220    9.5380    1.3640 C   0  0  2  0  0  0
   18.3040    9.8650    2.2620 C   0  0  0  0  0  0
   17.7800   10.9970    2.2690 O   0  0  0  0  0  0
   20.7910    9.9170    2.1140 C   0  0  0  0  0  0
   17.8720    8.8530    3.0190 N   0  0  0  0  0  0
   16.9050    9.0040    4.1430 C   0  0  2  0  0  0
   17.6060    8.6910    5.4390 C   0  0  0  0  0  0
   18.4040    7.7880    5.5240 O   0  0  0  0  0  0
   15.6190    8.1350    3.9050 C   0  0  2  0  0  0
   15.8490    6.7080    4.0710 O   0  0  0  0  0  0
   14.9930    8.4050    2.4770 C   0  0  0  0  0  0
   17.2730    9.4640    6.4460 N   0  0  0  0  0  0
   17.6650    9.3070    7.8880 C   0  0  2  0  0  0
   16.5640    8.8760    8.8680 C   0  0  0  0  0  0
   15.4400    9.3600    8.7770 O   0  0  0  0  0  0
   18.2670   10.6380    8.3730 C   0  0  0  0  0  0
   19.3160   11.0850    7.5250 O   0  0  0  0  0  0
   16.8760    8.0040    9.8320 N   0  0  0  0  0  0
   15.7790    7.7030   10.8320 C   0  0  2  0  0  0
   15.2310    8.9360   11.5240 C   0  0  0  0  0  0
   15.9700    9.9280   11.7010 O   0  0  0  0  0  0
   16.4400    6.7910   11.8690 C   0  0  0  0  0  0
   18.0480    6.8910   11.5900 C   0  0  0  0  0  0
   18.1170    7.2220   10.0720 C   0  0  0  0  0  0
   14.0470    8.9680   11.9420 O   0  5  0  0  0  0
   16.6511   10.0941  -16.0863 H   0  0  0  0  0  0
   15.4417   10.4106  -17.3762 H   0  0  0  0  0  0
   15.3783    8.8775  -16.4422 H   0  0  0  0  0  0
   14.9899   11.6552  -15.3885 H   0  0  0  0  0  0
   13.1136   10.7488  -16.8901 H   0  0  0  0  0  0
   12.5611   10.9113  -15.1886 H   0  0  0  0  0  0
   13.0021    9.2961  -15.8394 H   0  0  0  0  0  0
   16.6347   11.3303  -13.7702 H   0  0  0  0  0  0
   15.6173    9.5610  -11.5756 H   0  0  0  0  0  0
   18.3005    9.0810  -13.1257 H   0  0  0  0  0  0
   16.2275    7.7106  -13.6700 H   0  0  0  0  0  0
   18.9414    9.2865  -10.7652 H   0  0  0  0  0  0
   19.0728    7.5978  -11.3633 H   0  0  0  0  0  0
   17.6856    8.0787  -10.3283 H   0  0  0  0  0  0
   16.4886    9.5618   -9.5342 H   0  0  0  0  0  0
   18.5392   11.7191   -9.0380 H   0  0  0  0  0  0
   15.7757   11.5275   -7.6714 H   0  0  0  0  0  0
   17.1132   12.4968   -6.9655 H   0  0  0  0  0  0
   17.0751   13.7645   -9.2370 H   0  0  0  0  0  0
   15.4497   13.0229   -9.4235 H   0  0  0  0  0  0
   14.6171   14.0535   -7.4144 H   0  0  0  0  0  0
   16.2704   14.3941   -6.8002 H   0  0  0  0  0  0
   16.3727   16.4084   -8.0404 H   0  0  0  0  0  0
   13.5253   14.2299   -8.7480 H   0  0  0  0  0  0
   12.6002   15.5780   -9.7262 H   0  0  0  0  0  0
   15.2848   18.0558   -9.2676 H   0  0  0  0  0  0
   19.7744   11.6453   -7.0671 H   0  0  0  0  0  0
   19.4828    8.9118   -5.7567 H   0  0  0  0  0  0
   21.8706   10.8568   -5.7878 H   0  0  0  0  0  0
   21.8287    9.3250   -4.8506 H   0  0  0  0  0  0
   18.8302    8.7806   -3.6253 H   0  0  0  0  0  0
   19.2207   11.4459   -2.1878 H   0  0  0  0  0  0
   16.8064   11.4573   -3.1378 H   0  0  0  0  0  0
   16.5316    9.0594   -2.9103 H   0  0  0  0  0  0
   15.2355   10.0089   -2.1069 H   0  0  0  0  0  0
   16.5295    9.2438   -1.1235 H   0  0  0  0  0  0
   17.5171   12.8845   -1.2313 H   0  0  0  0  0  0
   17.1143   11.5488   -0.0998 H   0  0  0  0  0  0
   15.8203   12.3139   -1.0833 H   0  0  0  0  0  0
   19.9534   11.1625   -0.1319 H   0  0  0  0  0  0
   19.4980    8.4650    1.1228 H   0  0  0  0  0  0
   21.6676    9.6908    1.4892 H   0  0  0  0  0  0
   20.8495    9.3418    3.0498 H   0  0  0  0  0  0
   20.7730   10.9923    2.3451 H   0  0  0  0  0  0
   18.2751    7.8603    2.7699 H   0  0  0  0  0  0
   16.6023   10.0602    4.1953 H   0  0  0  0  0  0
   14.9131    8.3634    4.7171 H   0  0  0  0  0  0
   16.2824    6.3260    5.0071 H   0  0  0  0  0  0
   14.8189    9.4838    2.3510 H   0  0  0  0  0  0
   14.0380    7.8665    2.3876 H   0  0  0  0  0  0
   15.6870    8.0523    1.6998 H   0  0  0  0  0  0
   16.6343   10.3050    6.1381 H   0  0  0  0  0  0
   18.3739    8.4661    7.8697 H   0  0  0  0  0  0
   17.4840   11.4104    8.3889 H   0  0  0  0  0  0
   18.6747   10.5084    9.3864 H   0  0  0  0  0  0
   19.8411   12.0254    7.7486 H   0  0  0  0  0  0
   14.9167    7.2597   10.3125 H   0  0  0  0  0  0
   16.1879    7.1427   12.8803 H   0  0  0  0  0  0
   16.0755    5.7615   11.7374 H   0  0  0  0  0  0
   18.4802    7.6849   12.2168 H   0  0  0  0  0  0
   18.5233    5.9300   11.8361 H   0  0  0  0  0  0
   18.1078    6.3181    9.4451 H   0  0  0  0  0  0
   18.9928    7.8365    9.8165 H   0  0  0  0  0  0
   13.5704   17.6864  -10.0122 H   0  0  0  0  0  0
  1  2  1  0  0  0
  1 65  1  0  0  0
  1 66  1  0  0  0
  1 67  1  0  0  0
  2  3  1  0  0  0
  2  5  1  0  0  0
  2 68  1  0  0  0
  3  4  2  0  0  0
  3  6  1  0  0  0
  5 69  1  0  0  0
  5 70  1  0  0  0
  5 71  1  0  0  0
  6  7  1  0  0  0
  6 72  1  0  0  0
  7  8  1  0  0  0
  7 10  1  0  0  0
  7 73  1  0  0  0
  8  9  2  0  0  0
  8 13  1  0  0  0
 10 11  1  0  0  0
 10 12  1  0  0  0
 10 74  1  0  0  0
 11 75  1  0  0  0
 12 76  1  0  0  0
 12 77  1  0  0  0
 12 78  1  0  0  0
 13 14  1  0  0  0
 13 79  1  0  0  0
 14 15  1  0  0  0
 14 17  1  0  0  0
 14 80  1  0  0  0
 15 16  2  0  0  0
 15 24  1  0  0  0
 17 18  1  0  0  0
 17 81  1  0  0  0
 17 82  1  0  0  0
 18 19  1  0  0  0
 18 83  1  0  0  0
 18 84  1  0  0  0
 19 20  1  0  0  0
 19 85  1  0  0  0
 19 86  1  0  0  0
 20 21  1  0  0  0
 20 87  1  0  0  0
 21 22  1  0  0  0
 21 23  2  0  0  0
 22 88  1  0  0  0
 22 89  1  0  0  0
 23 90  1  0  0  0
 23128  1  0  0  0
 24 25  1  0  0  0
 24 91  1  0  0  0
 25 26  1  0  0  0
 25 28  1  0  0  0
 25 92  1  0  0  0
 26 27  2  0  0  0
 26 32  1  0  0  0
 28 29  1  0  0  0
 28 93  1  0  0  0
 28 94  1  0  0  0
 29 30  2  0  0  0
 29 31  1  0  0  0
 32 33  1  0  0  0
 32 95  1  0  0  0
 33 34  1  0  0  0
 33 36  1  0  0  0
 33 96  1  0  0  0
 34 35  2  0  0  0
 34 39  1  0  0  0
 36 37  1  0  0  0
 36 38  1  0  0  0
 36 97  1  0  0  0
 37 98  1  0  0  0
 37 99  1  0  0  0
 37100  1  0  0  0
 38101  1  0  0  0
 38102  1  0  0  0
 38103  1  0  0  0
 39 40  1  0  0  0
 39104  1  0  0  0
 40 41  1  0  0  0
 40 43  1  0  0  0
 40105  1  0  0  0
 41 42  2  0  0  0
 41 44  1  0  0  0
 43106  1  0  0  0
 43107  1  0  0  0
 43108  1  0  0  0
 44 45  1  0  0  0
 44109  1  0  0  0
 45 46  1  0  0  0
 45 48  1  0  0  0
 45110  1  0  0  0
 46 47  2  0  0  0
 46 51  1  0  0  0
 48 49  1  0  0  0
 48 50  1  0  0  0
 48111  1  0  0  0
 49112  1  0  0  0
 50113  1  0  0  0
 50114  1  0  0  0
 50115  1  0  0  0
 51 52  1  0  0  0
 51116  1  0  0  0
 52 53  1  0  0  0
 52 55  1  0  0  0
 52117  1  0  0  0
 53 54  2  0  0  0
 53 57  1  0  0  0
 55 56  1  0  0  0
 55118  1  0  0  0
 55119  1  0  0  0
 56120  1  0  0  0
 57 58  1  0  0  0
 57 63  1  0  0  0
 58 59  1  0  0  0
 58 61  1  0  0  0
 58121  1  0  0  0
 59 60  2  0  0  0
 59 64  1  0  0  0
 61 62  1  0  0  0
 61122  1  0  0  0
 61123  1  0  0  0
 62 63  1  0  0  0
 62124  1  0  0  0
 62125  1  0  0  0
 63126  1  0  0  0
 63127  1  0  0  0
M  CHG  4   1   1  23   1  31  -1  64  -1
M  END
> <s_m_source_file>
../3dvp_ligand.sdf

> <i_m_source_file_index>
1

> <s_epik_input>
W05IMytdW0NAQEhdKFtDSDNdKUMoPU8pW05IXVtDQEBIXShbQ0BIXShbT0hdKVtDSDNdKUMoPU8pW05IXVtDQEBIXShbQ0gyXVtDSDJdW0NIMl1bTkhdL0MoW05IMl0pPU5cW0hdKUMoPU8pW05IXVtDQEBIXShbQ0gyXUMoPU8pW09IXSlDKD1PKVtOSF1bQ0BASF0oW0NIXShbQ0gzXSlbQ0gzXSlDKD1PKVtOSF1bQ0BASF0oW0NIM10pQyg9TylbTkhdW0NAQEhdKFtDQEhdKFtPSF0pW0NIM10pQyg9TylbTkhdW0NAQEhdKFtDSDJdW09IXSlDKD1PKU4xW0NASF0oQyg9TylbT0hdKVtDSDJdW0NIMl1bQ0gyXTE=

> <s_epik_cmdline>
J2VwaWtfYXBwJywgJy1pbWFlJywgJ2xpZ2FuZF9wcm8ubWFlJywgJy1vbWFlJywgJ2xpZ2FuZF9wcmVwLm1hZScsICctbXMnLCAnMScsICctcGgnLCAnNycsICctcGh0JywgJzAuNScsICctbnQn

> <r_epik_Ionization_Penalty>
  0.1282

> <r_epik_Ionization_Penalty_Charging>
  0.1282

> <r_epik_Ionization_Penalty_Neutral>
  0.0000

> <r_epik_State_Penalty>
  0.1160

> <r_epik_Charging_Adjusted_Penalty>
0.244191108757157

> <i_epik_Tot_Q>
0

> <i_epik_Tot_abs_Q>
4

> <s_epik_Chemistry_Notes>
This compound has an imine and may undergo hydrolysis.

$$$$
