3dwb_ligand
                    3D
 Schrodinger Suite 2020-3.
 69 71  0  0  1  0            999 V2000
   81.6290   31.7360   40.3070 N   0  0  1  0  0  0
   82.3110   33.0160   40.1880 C   0  0  2  0  0  0
   83.7850   32.9150   40.3340 C   0  0  0  0  0  0
   84.5100   33.2340   39.4270 O   0  0  0  0  0  0
   81.7410   33.9000   41.2630 C   0  0  0  0  0  0
   82.1180   35.3660   41.0950 C   0  0  0  0  0  0
   81.3070   36.1500   42.1150 C   0  0  0  0  0  0
   81.8880   35.9320   39.6870 C   0  0  0  0  0  0
   84.2830   32.4520   41.4540 N   0  0  0  0  0  0
   85.7410   32.3270   41.6310 C   0  0  2  0  0  0
   85.9710   31.0140   42.3540 C   0  0  0  0  0  0
   84.9880   30.5310   42.9980 O   0  5  0  0  0  0
   86.2380   33.5810   42.4150 C   0  0  0  0  0  0
   85.5800   33.6070   43.7810 C   0  0  0  0  0  0
   84.3100   34.0580   44.0980 C   0  0  0  0  0  0
   86.0960   33.1100   44.9660 C   0  0  0  0  0  0
   84.0660   33.8640   45.4250 N   0  3  0  0  0  0
   85.1640   33.2880   45.9710 C   0  0  0  0  0  0
   87.3410   32.5530   45.2390 C   0  0  0  0  0  0
   85.4830   32.8910   47.2700 C   0  0  0  0  0  0
   87.6420   32.1300   46.5360 C   0  0  0  0  0  0
   86.7070   32.3090   47.5430 C   0  0  0  0  0  0
   87.1040   30.4740   42.2920 O   0  0  0  0  0  0
   83.0650   28.8160   40.5030 C   0  0  1  0  0  0
   82.0160   29.1310   39.5920 O   0  0  0  0  0  0
   82.6370   27.7610   41.5100 C   0  0  2  0  0  0
   83.7110   27.6130   42.4750 O   0  0  0  0  0  0
   82.4080   26.4510   40.7490 C   0  0  2  0  0  0
   81.9540   25.3970   41.5860 O   0  0  0  0  0  0
   83.7300   26.0690   40.0970 C   0  0  1  0  0  0
   83.6940   24.7710   39.5170 O   0  0  0  0  0  0
   83.9990   27.1390   39.0450 C   0  0  1  0  0  0
   84.1590   28.3820   39.7160 O   0  0  0  0  0  0
   85.2090   26.7780   38.2140 C   0  0  0  0  0  0
   81.8310   30.6550   39.0600 P   0  0  2  0  0  0
   83.1560   30.8130   38.4140 O   0  0  0  0  0  0
   80.5370   30.6760   38.2510 O   0  5  0  0  0  0
   81.9812   31.2154   41.2097 H   0  0  0  0  0  0
   82.1422   33.3940   39.1689 H   0  0  0  0  0  0
   80.6430   33.8350   41.2473 H   0  0  0  0  0  0
   82.1138   33.5710   42.2442 H   0  0  0  0  0  0
   83.2015   35.4546   41.2631 H   0  0  0  0  0  0
   81.4805   35.7348   43.1187 H   0  0  0  0  0  0
   80.2377   36.0768   41.8677 H   0  0  0  0  0  0
   81.6162   37.2055   42.0963 H   0  0  0  0  0  0
   82.4795   35.3568   38.9595 H   0  0  0  0  0  0
   82.1991   36.9868   39.6605 H   0  0  0  0  0  0
   80.8205   35.8580   39.4320 H   0  0  0  0  0  0
   83.6029   32.1554   42.2661 H   0  0  0  0  0  0
   86.2703   32.2792   40.6679 H   0  0  0  0  0  0
   87.3306   33.5309   42.5321 H   0  0  0  0  0  0
   85.9702   34.4913   41.8585 H   0  0  0  0  0  0
   83.6701   34.4938   43.3166 H   0  0  0  0  0  0
   88.0790   32.4469   44.4439 H   0  0  0  0  0  0
   84.7628   33.0406   48.0744 H   0  0  0  0  0  0
   88.6029   31.6637   46.7537 H   0  0  0  0  0  0
   86.9385   31.9883   48.5587 H   0  0  0  0  0  0
   83.3627   29.7286   41.0401 H   0  0  0  0  0  0
   81.7383   28.0455   42.0769 H   0  0  0  0  0  0
   84.0037   28.4644   43.1070 H   0  0  0  0  0  0
   81.5781   26.5463   40.0333 H   0  0  0  0  0  0
   81.0089   25.5020   42.1390 H   0  0  0  0  0  0
   84.5432   25.9540   40.8288 H   0  0  0  0  0  0
   83.5090   23.8906   40.1501 H   0  0  0  0  0  0
   83.1517   27.2837   38.3586 H   0  0  0  0  0  0
   85.0372   25.8120   37.7166 H   0  0  0  0  0  0
   86.0921   26.7030   38.8655 H   0  0  0  0  0  0
   85.3781   27.5562   37.4552 H   0  0  0  0  0  0
   83.1009   34.1675   45.8569 H   0  0  0  0  0  0
  1  2  1  0  0  0
  1 35  1  0  0  0
  1 38  1  0  0  0
  2  3  1  0  0  0
  2  5  1  0  0  0
  2 39  1  0  0  0
  3  4  2  0  0  0
  3  9  1  0  0  0
  5  6  1  0  0  0
  5 40  1  0  0  0
  5 41  1  0  0  0
  6  7  1  0  0  0
  6  8  1  0  0  0
  6 42  1  0  0  0
  7 43  1  0  0  0
  7 44  1  0  0  0
  7 45  1  0  0  0
  8 46  1  0  0  0
  8 47  1  0  0  0
  8 48  1  0  0  0
  9 10  1  0  0  0
  9 49  1  0  0  0
 10 11  1  0  0  0
 10 13  1  0  0  0
 10 50  1  0  0  0
 11 12  1  0  0  0
 11 23  2  0  0  0
 13 14  1  0  0  0
 13 51  1  0  0  0
 13 52  1  0  0  0
 14 15  2  0  0  0
 14 16  1  0  0  0
 15 17  1  0  0  0
 15 53  1  0  0  0
 16 18  2  0  0  0
 16 19  1  0  0  0
 17 18  1  0  0  0
 17 69  1  0  0  0
 18 20  1  0  0  0
 19 21  2  0  0  0
 19 54  1  0  0  0
 20 22  2  0  0  0
 20 55  1  0  0  0
 21 22  1  0  0  0
 21 56  1  0  0  0
 22 57  1  0  0  0
 24 25  1  0  0  0
 24 26  1  0  0  0
 24 33  1  0  0  0
 24 58  1  0  0  0
 25 35  1  0  0  0
 26 27  1  0  0  0
 26 28  1  0  0  0
 26 59  1  0  0  0
 27 60  1  0  0  0
 28 29  1  0  0  0
 28 30  1  0  0  0
 28 61  1  0  0  0
 29 62  1  0  0  0
 30 31  1  0  0  0
 30 32  1  0  0  0
 30 63  1  0  0  0
 31 64  1  0  0  0
 32 33  1  0  0  0
 32 34  1  0  0  0
 32 65  1  0  0  0
 34 66  1  0  0  0
 34 67  1  0  0  0
 34 68  1  0  0  0
 35 36  2  0  0  0
 35 37  1  0  0  0
M  CHG  3  12  -1  17   1  37  -1
M  END
> <s_m_source_file>
../3dwb_ligand.sdf

> <i_m_source_file_index>
1

> <s_epik_input>
TzFbQ0BASF0oW0NIM10pW0NASF0oW09IXSlbQ0BASF0oW09IXSlbQ0BASF0oW09IXSlbQ0BASF0xT1tQQEBdKD1PKShbT0hdKVtOSF1bQ0BASF0oW0NIMl1bQ0hdKFtDSDNdKVtDSDNdKUMoPU8pW05IXVtDQEhdKEMoPU8pW09IXSlbQ0gyXWMyW2NIXVtuSF1jKGMyMylbY0hdW2NIXVtjSF1bY0hdMw==

> <s_epik_cmdline>
J2VwaWtfYXBwJywgJy1pbWFlJywgJ2xpZ2FuZF9wcm8ubWFlJywgJy1vbWFlJywgJ2xpZ2FuZF9wcmVwLm1hZScsICctbXMnLCAnMScsICctcGgnLCAnNycsICctcGh0JywgJzAuNScsICctbnQn

> <r_lp_tautomer_probability>
1

> <r_epik_Ionization_Penalty>
  0.0002

> <r_epik_Ionization_Penalty_Charging>
  0.0002

> <r_epik_Ionization_Penalty_Neutral>
  0.0000

> <r_epik_State_Penalty>
 -0.0000

> <r_epik_Charging_Adjusted_Penalty>
0.000165774631056018

> <i_epik_Tot_Q>
-1

> <i_epik_Tot_abs_Q>
3

> <s_epik_Chemistry_Notes>
This compound contains an acetal/aminal-like group ( X-CH(R)-Y where X, Y are N, S, or O) that may be acid/base labile, releasing an aldehyde.

$$$$
