3dxh_ligand
                    3D
 Schrodinger Suite 2020-3.
 36 37  0  0  1  0            999 V2000
   36.4350   -2.0050   11.9870 N   0  0  0  0  0  0
   35.2420   -2.1710   11.3440 C   0  0  0  0  0  0
   34.5440   -3.3470   11.5030 N   0  0  0  0  0  0
   35.0230   -4.3700   12.2990 C   0  0  0  0  0  0
   36.2460   -4.1980   12.9610 C   0  0  0  0  0  0
   36.9140   -2.9780   12.8320 C   0  0  0  0  0  0
   34.7960   -1.2630   10.6420 O   0  0  0  0  0  0
   34.3380   -5.4010   12.3930 O   0  0  0  0  0  0
   37.1470   -0.7240   11.7560 C   0  0  1  0  0  0
   36.6930    0.4060   12.6710 C   0  0  2  0  0  0
   36.6160    1.6170   11.9210 O   0  0  0  0  0  0
   37.8520    0.4810   13.6240 C   0  0  1  0  0  0
   39.0500    0.1330   12.7350 C   0  0  2  0  0  0
   38.5510   -0.9050   11.9070 O   0  0  0  0  0  0
   37.9330    1.7410   14.2660 O   0  0  0  0  0  0
   40.2940   -0.3260   13.4860 C   0  0  0  0  0  0
   39.8840   -0.9690   14.6690 O   0  0  0  0  0  0
   40.1000   -0.2940   16.1200 P   0  0  1  0  0  0
   40.1090    1.1900   16.0240 O   0  5  0  0  0  0
   39.0410   -0.7110   17.0680 O   0  0  0  0  0  0
   41.5370   -0.8310   16.6050 O   0  0  0  0  0  0
   42.0980   -2.2710   16.1500 P   0  0  0  0  0  0
   40.9800   -3.2310   15.9870 O   0  0  0  0  0  0
   42.7860   -2.1220   14.8430 O   0  5  0  0  0  0
   43.0370   -2.7770   17.1830 O   0  5  0  0  0  0
   33.5812   -3.4888   10.9902 H   0  0  0  0  0  0
   36.6681   -5.0010   13.5652 H   0  0  0  0  0  0
   37.8225   -2.7959   13.4060 H   0  0  0  0  0  0
   36.9545   -0.4554   10.7068 H   0  0  0  0  0  0
   35.6992    0.3051   13.1317 H   0  0  0  0  0  0
   35.8251    1.7481   11.1678 H   0  0  0  0  0  0
   37.7621   -0.1462   14.5232 H   0  0  0  0  0  0
   39.3871    0.9881   12.1307 H   0  0  0  0  0  0
   37.1181    2.0761   14.9245 H   0  0  0  0  0  0
   40.8659   -1.0235   12.8564 H   0  0  0  0  0  0
   40.9190    0.5463   13.7280 H   0  0  0  0  0  0
  1  2  1  0  0  0
  1  6  1  0  0  0
  1  9  1  0  0  0
  2  3  1  0  0  0
  2  7  2  0  0  0
  3  4  1  0  0  0
  3 26  1  0  0  0
  4  5  1  0  0  0
  4  8  2  0  0  0
  5  6  2  0  0  0
  5 27  1  0  0  0
  6 28  1  0  0  0
  9 10  1  0  0  0
  9 14  1  0  0  0
  9 29  1  0  0  0
 10 11  1  0  0  0
 10 12  1  0  0  0
 10 30  1  0  0  0
 11 31  1  0  0  0
 12 13  1  0  0  0
 12 15  1  0  0  0
 12 32  1  0  0  0
 13 14  1  0  0  0
 13 16  1  0  0  0
 13 33  1  0  0  0
 15 34  1  0  0  0
 16 17  1  0  0  0
 16 35  1  0  0  0
 16 36  1  0  0  0
 17 18  1  0  0  0
 18 19  1  0  0  0
 18 20  2  0  0  0
 18 21  1  0  0  0
 21 22  1  0  0  0
 22 23  2  0  0  0
 22 24  1  0  0  0
 22 25  1  0  0  0
M  CHG  3  19  -1  24  -1  25  -1
M  END
> <s_m_source_file>
../3dxh_ligand.sdf

> <i_m_source_file_index>
1

> <s_epik_input>
W2NIXTFbY0hdYyg9TylbbkhdYyg9TyluMVtDQEhdMltDQEhdKFtPSF0pW0NASF0oW09IXSlbQ0BIXShPMilbQ0gyXU9bUEBdKD1PKShbT0hdKU9QKD1PKShbT0hdKVtPSF0=

> <s_epik_cmdline>
J2VwaWtfYXBwJywgJy1pbWFlJywgJ2xpZ2FuZF9wcm8ubWFlJywgJy1vbWFlJywgJ2xpZ2FuZF9wcmVwLm1hZScsICctbXMnLCAnMScsICctcGgnLCAnNycsICctcGh0JywgJzAuNScsICctbnQn

> <r_lp_tautomer_probability>
0.999537046341301

> <r_epik_Ionization_Penalty>
  0.1061

> <r_epik_Ionization_Penalty_Charging>
  0.1061

> <r_epik_Ionization_Penalty_Neutral>
  0.0000

> <r_epik_State_Penalty>
  0.0923

> <r_epik_Charging_Adjusted_Penalty>
0.198376686346359

> <i_epik_Tot_Q>
-3

> <i_epik_Tot_abs_Q>
3

> <s_epik_Chemistry_Notes>
This compound contains an acetal/aminal-like group ( X-CH(R)-Y where X, Y are N, S, or O) that may be acid/base labile, releasing an aldehyde.

$$$$
