3dxj_ligand
                    3D
 Schrodinger Suite 2020-3.
 60 60  0  0  1  0            999 V2000
  -10.1180   58.9040    2.4490 O   0  0  0  0  0  0
  -10.6270   60.1980    2.4510 C   0  0  0  0  0  0
  -12.1180   60.3210    2.5490 C   0  0  0  0  0  0
   -9.8780   61.1750    2.4560 O   0  0  0  0  0  0
  -12.9040   59.1800    2.5200 C   0  0  0  0  0  0
  -12.3160   57.8530    2.5150 C   0  0  0  0  0  0
  -10.9610   57.7290    2.4480 C   0  0  0  0  0  0
  -10.1730   56.4240    2.4430 C   0  0  2  0  0  0
  -10.7180   55.4170    1.4100 C   0  0  0  0  0  0
  -10.1980   55.7400    3.8410 C   0  0  0  0  0  0
   -9.2020   56.3090    4.8220 C   0  0  0  0  0  0
   -9.2870   55.7540    6.2260 C   0  0  0  0  0  0
   -8.2090   55.2890    6.8950 C   0  0  0  0  0  0
   -7.3080   54.2960    8.9590 C   0  0  0  0  0  0
   -6.7260   53.6330   11.2450 C   0  0  0  0  0  0
  -12.7590   61.6770    2.5770 C   0  0  0  0  0  0
  -12.3900   62.5940    3.7500 C   0  0  0  0  0  0
  -11.9990   63.9870    3.2960 C   0  0  0  0  0  0
  -12.4340   62.1180    5.0390 C   0  0  0  0  0  0
  -12.1230   62.8430    6.2740 C   0  0  0  0  0  0
  -12.1500   62.3820    7.5570 C   0  0  0  0  0  0
  -12.5070   60.9840    7.9940 C   0  0  0  0  0  0
  -11.7820   63.3310    8.6980 C   0  0  0  0  0  0
  -12.9990   63.8580    9.4720 C   0  0  0  0  0  0
  -12.5660   64.7890   10.5690 C   0  0  0  0  0  0
   -8.3460   54.7810    8.1770 N   0  0  0  0  0  0
   -7.6800   53.9260   10.2400 O   0  0  0  0  0  0
   -6.1360   54.2720    8.5970 O   0  0  0  0  0  0
  -14.2840   59.2040    2.5890 O   0  5  0  0  0  0
  -13.5710   62.0400    1.7220 O   0  0  0  0  0  0
  -12.9500   56.9677    2.5642 H   0  0  0  0  0  0
   -9.1495   56.7149    2.1641 H   0  0  0  0  0  0
  -10.7110   55.8768    0.4107 H   0  0  0  0  0  0
  -11.7477   55.1379    1.6780 H   0  0  0  0  0  0
  -10.0840   54.5181    1.4045 H   0  0  0  0  0  0
  -11.1962   55.8563    4.2883 H   0  0  0  0  0  0
   -9.9684   54.6700    3.7299 H   0  0  0  0  0  0
   -8.1808   56.1052    4.4675 H   0  0  0  0  0  0
   -9.3506   57.3956    4.9068 H   0  0  0  0  0  0
  -10.2785   55.7384    6.7020 H   0  0  0  0  0  0
   -7.2161   55.3125    6.4222 H   0  0  0  0  0  0
   -7.2456   53.3645   12.1766 H   0  0  0  0  0  0
   -6.0939   54.5162   11.4192 H   0  0  0  0  0  0
   -6.0977   52.7908   10.9197 H   0  0  0  0  0  0
  -12.0670   64.0479    2.1998 H   0  0  0  0  0  0
  -10.9669   64.1993    3.6118 H   0  0  0  0  0  0
  -12.6795   64.7242    3.7471 H   0  0  0  0  0  0
  -12.7308   61.0763    5.2308 H   0  0  0  0  0  0
  -11.8391   63.8860    6.0702 H   0  0  0  0  0  0
  -12.7559   60.3763    7.1115 H   0  0  0  0  0  0
  -13.3740   61.0213    8.6699 H   0  0  0  0  0  0
  -11.6515   60.5344    8.5194 H   0  0  0  0  0  0
  -11.1359   62.8064    9.4173 H   0  0  0  0  0  0
  -11.2470   64.2023    8.2922 H   0  0  0  0  0  0
  -13.6632   64.4022    8.7845 H   0  0  0  0  0  0
  -13.5447   63.0128    9.9169 H   0  0  0  0  0  0
  -13.4511   65.1546   11.1102 H   0  0  0  0  0  0
  -12.0242   65.6417   10.1337 H   0  0  0  0  0  0
  -11.9057   64.2523   11.2661 H   0  0  0  0  0  0
   -9.3385   54.7408    8.6495 H   0  0  0  0  0  0
  1  2  1  0  0  0
  1  7  1  0  0  0
  2  3  1  0  0  0
  2  4  2  0  0  0
  3  5  2  0  0  0
  3 16  1  0  0  0
  5  6  1  0  0  0
  5 29  1  0  0  0
  6  7  2  0  0  0
  6 31  1  0  0  0
  7  8  1  0  0  0
  8  9  1  0  0  0
  8 10  1  0  0  0
  8 32  1  0  0  0
  9 33  1  0  0  0
  9 34  1  0  0  0
  9 35  1  0  0  0
 10 11  1  0  0  0
 10 36  1  0  0  0
 10 37  1  0  0  0
 11 12  1  0  0  0
 11 38  1  0  0  0
 11 39  1  0  0  0
 12 13  2  0  0  0
 12 40  1  0  0  0
 13 26  1  0  0  0
 13 41  1  0  0  0
 14 26  1  0  0  0
 14 27  1  0  0  0
 14 28  2  0  0  0
 15 27  1  0  0  0
 15 42  1  0  0  0
 15 43  1  0  0  0
 15 44  1  0  0  0
 16 17  1  0  0  0
 16 30  2  0  0  0
 17 18  1  0  0  0
 17 19  2  0  0  0
 18 45  1  0  0  0
 18 46  1  0  0  0
 18 47  1  0  0  0
 19 20  1  0  0  0
 19 48  1  0  0  0
 20 21  2  0  0  0
 20 49  1  0  0  0
 21 22  1  0  0  0
 21 23  1  0  0  0
 22 50  1  0  0  0
 22 51  1  0  0  0
 22 52  1  0  0  0
 23 24  1  0  0  0
 23 53  1  0  0  0
 23 54  1  0  0  0
 24 25  1  0  0  0
 24 55  1  0  0  0
 24 56  1  0  0  0
 25 57  1  0  0  0
 25 58  1  0  0  0
 25 59  1  0  0  0
 26 60  1  0  0  0
M  CHG  1  29  -1
M  END
> <s_m_source_file>
../3dxj_ligand.sdf

> <i_m_source_file_index>
1

> <s_epik_input>
W0NIM11PQyg9TylbTkhdXFtDSF09W0NIXVxbQ0gyXVtDSDJdW0NAQEhdKFtDSDNdKWMob2MxPU8pW2NIXWMoW09IXSljMUMoPU8pL0MoW0NIM10pPVtDSF0vW0NIXT1DKFxbQ0gzXSlbQ0gyXVtDSDJdW0NIM10=

> <s_epik_cmdline>
J2VwaWtfYXBwJywgJy1pbWFlJywgJ2xpZ2FuZF9wcm8ubWFlJywgJy1vbWFlJywgJ2xpZ2FuZF9wcmVwLm1hZScsICctbXMnLCAnMScsICctcGgnLCAnNycsICctcGh0JywgJzAuNScsICctbnQn

> <r_lp_tautomer_probability>
1

> <r_epik_Ionization_Penalty>
  0.0071

> <r_epik_Ionization_Penalty_Charging>
  0.0071

> <r_epik_Ionization_Penalty_Neutral>
  0.0000

> <r_epik_State_Penalty>
 -0.0000

> <r_epik_Charging_Adjusted_Penalty>
0.00708403020826485

> <i_epik_Tot_Q>
-1

> <i_epik_Tot_abs_Q>
1

> <s_epik_Chemistry_Notes>
This compound has an ester and may undergo hydrolysis at high or low pH.

$$$$
