3dxk_ligand
                    3D
 Schrodinger Suite 2020-3.
 35 37  0  0  1  0            999 V2000
    2.0170   15.5410   38.1230 C   0  0  0  0  0  0
    0.8470   15.6960   37.1510 C   0  0  0  0  0  0
    0.2830   14.7030   36.4600 N   0  0  0  0  0  0
   -0.7580   15.1930   35.7940 C   0  0  0  0  0  0
   -1.6630   14.5680   34.9400 C   0  0  0  0  0  0
   -2.6870   15.3020   34.3570 C   0  0  0  0  0  0
   -2.8180   16.6590   34.6550 C   0  0  0  0  0  0
   -1.9280   17.2890   35.5130 C   0  0  0  0  0  0
   -0.8870   16.5520   36.0720 C   0  0  0  0  0  0
    0.1460   16.8760   36.9440 C   0  0  0  0  0  0
    0.5060   18.2740   37.4520 C   0  0  0  0  0  0
   -0.2480   18.5770   38.7470 C   0  0  0  0  0  0
    0.0990   17.5440   39.7360 N   0  0  0  0  0  0
    0.9630   17.7870   40.7100 C   0  0  0  0  0  0
    1.5260   18.8720   40.8850 O   0  0  0  0  0  0
    1.2040   16.5970   41.6400 C   0  0  0  0  0  0
    0.5270   15.4550   41.5750 C   0  0  0  0  0  0
    0.7970   14.5920   42.5620 C   0  0  0  0  0  0
    1.7040   14.9660   43.4650 C   0  0  0  0  0  0
    2.2280   16.5250   43.0090 S   0  0  0  0  0  0
    2.3867   14.5055   38.0896 H   0  0  0  0  0  0
    1.6800   15.7772   39.1431 H   0  0  0  0  0  0
    2.8260   16.2287   37.8356 H   0  0  0  0  0  0
   -1.5664   13.4930   34.7275 H   0  0  0  0  0  0
   -3.3926   14.8205   33.6640 H   0  0  0  0  0  0
   -3.6352   17.2439   34.2077 H   0  0  0  0  0  0
   -2.0422   18.3475   35.7466 H   0  0  0  0  0  0
    1.5877   18.3267   37.6450 H   0  0  0  0  0  0
    0.2321   19.0217   36.6931 H   0  0  0  0  0  0
    0.0463   19.5695   39.1190 H   0  0  0  0  0  0
   -1.3306   18.5646   38.5525 H   0  0  0  0  0  0
   -0.3620   16.5471   39.6749 H   0  0  0  0  0  0
   -0.1896   15.2389   40.7826 H   0  0  0  0  0  0
    0.2971   13.6254   42.6248 H   0  0  0  0  0  0
    2.0440   14.3894   44.3253 H   0  0  0  0  0  0
  1  2  1  0  0  0
  1 21  1  0  0  0
  1 22  1  0  0  0
  1 23  1  0  0  0
  2  3  2  0  0  0
  2 10  1  0  0  0
  3  4  1  0  0  0
  4  5  2  0  0  0
  4  9  1  0  0  0
  5  6  1  0  0  0
  5 24  1  0  0  0
  6  7  2  0  0  0
  6 25  1  0  0  0
  7  8  1  0  0  0
  7 26  1  0  0  0
  8  9  1  0  0  0
  8 27  1  0  0  0
  9 10  2  0  0  0
 10 11  1  0  0  0
 11 12  1  0  0  0
 11 28  1  0  0  0
 11 29  1  0  0  0
 12 13  1  0  0  0
 12 30  1  0  0  0
 12 31  1  0  0  0
 13 14  1  0  0  0
 13 32  1  0  0  0
 14 15  2  0  0  0
 14 16  1  0  0  0
 16 17  2  0  0  0
 16 20  1  0  0  0
 17 18  1  0  0  0
 17 33  1  0  0  0
 18 19  2  0  0  0
 18 34  1  0  0  0
 19 20  1  0  0  0
 19 35  1  0  0  0
M  END
> <s_m_source_file>
../3dxk_ligand.sdf

> <i_m_source_file_index>
1

> <s_epik_input>
W0NIXTFbQ0hdPVtDSF1bQ0gyXUMoQz0xMik9QyhDKD1OMilbQ0gzXSlbQ0gyXVtDSDJdW05IXUMoPU8pYzNbY0hdW2NIXVtjSF1zMw==

> <s_epik_cmdline>
J2VwaWtfYXBwJywgJy1pbWFlJywgJ2xpZ2FuZF9wcm8ubWFlJywgJy1vbWFlJywgJ2xpZ2FuZF9wcmVwLm1hZScsICctbXMnLCAnMScsICctcGgnLCAnNycsICctcGh0JywgJzAuNScsICctbnQn

> <r_lp_tautomer_probability>
1

> <r_epik_Ionization_Penalty>
  0.0000

> <r_epik_Ionization_Penalty_Charging>
  0.0000

> <r_epik_Ionization_Penalty_Neutral>
  0.0000

> <r_epik_State_Penalty>
 -0.0000

> <r_epik_Charging_Adjusted_Penalty>
0

> <i_epik_Tot_Q>
0

> <i_epik_Tot_abs_Q>
0

> <s_epik_Chemistry_Notes>
This compound has an imine and may undergo hydrolysis.

$$$$
