3dxm_ligand
                    3D
 Schrodinger Suite 2020-3.
 32 34  0  0  1  0            999 V2000
   13.6090   19.5040   53.8090 C   0  0  0  0  0  0
   14.4080   19.6880   54.9510 C   0  0  0  0  0  0
   13.6160   19.6040   56.6880 Br  0  0  0  0  0  0
   15.7760   19.9450   54.7870 C   0  0  0  0  0  0
   16.3300   20.0120   53.5050 C   0  0  0  0  0  0
   15.5330   19.8220   52.3770 C   0  0  0  0  0  0
   14.1540   19.5710   52.5160 C   0  0  0  0  0  0
   13.2900   19.3800   51.2920 C   0  0  2  0  0  0
   12.2160   20.7540   50.8830 S   0  0  0  0  0  0
   10.6910   19.8820   51.0300 C   0  0  0  0  0  0
   11.1030   18.4390   51.1700 C   0  0  0  0  0  0
   10.2540   17.5700   51.0640 O   0  0  0  0  0  0
   12.4170   18.2290   51.4040 N   0  0  0  0  0  0
   12.9380   16.9740   51.4790 C   0  0  0  0  0  0
   12.4960   16.1430   52.5120 C   0  0  0  0  0  0
   12.9560   14.8410   52.6400 C   0  0  0  0  0  0
   13.8830   14.3710   51.7250 C   0  0  0  0  0  0
   14.3400   15.1960   50.6890 C   0  0  0  0  0  0
   13.8720   16.4980   50.5550 C   0  0  0  0  0  0
   14.3560   17.2490   49.5250 O   0  0  0  0  0  0
   12.3860   13.7860   53.9760 Cl  0  0  0  0  0  0
   12.5441   19.3051   53.9294 H   0  0  0  0  0  0
   16.4098   20.0931   55.6613 H   0  0  0  0  0  0
   17.3944   20.2146   53.3864 H   0  0  0  0  0  0
   15.9789   19.8679   51.3834 H   0  0  0  0  0  0
   14.0925   19.0732   50.6051 H   0  0  0  0  0  0
   10.1457   20.2435   51.9143 H   0  0  0  0  0  0
   10.0829   20.0524   50.1293 H   0  0  0  0  0  0
   11.7739   16.5266   53.2328 H   0  0  0  0  0  0
   14.2598   13.3519   51.8114 H   0  0  0  0  0  0
   15.0721   14.8119   49.9787 H   0  0  0  0  0  0
   14.0084   18.2836   49.3879 H   0  0  0  0  0  0
  1  2  2  0  0  0
  1  7  1  0  0  0
  1 22  1  0  0  0
  2  3  1  0  0  0
  2  4  1  0  0  0
  4  5  2  0  0  0
  4 23  1  0  0  0
  5  6  1  0  0  0
  5 24  1  0  0  0
  6  7  2  0  0  0
  6 25  1  0  0  0
  7  8  1  0  0  0
  8  9  1  0  0  0
  8 13  1  0  0  0
  8 26  1  0  0  0
  9 10  1  0  0  0
 10 11  1  0  0  0
 10 27  1  0  0  0
 10 28  1  0  0  0
 11 12  2  0  0  0
 11 13  1  0  0  0
 13 14  1  0  0  0
 14 15  2  0  0  0
 14 19  1  0  0  0
 15 16  1  0  0  0
 15 29  1  0  0  0
 16 17  2  0  0  0
 16 21  1  0  0  0
 17 18  1  0  0  0
 17 30  1  0  0  0
 18 19  2  0  0  0
 18 31  1  0  0  0
 19 20  1  0  0  0
 20 32  1  0  0  0
M  END
> <s_m_source_file>
../3dxm_ligand.sdf

> <i_m_source_file_index>
1

> <s_epik_input>
QnJjMVtjSF1jKFtjSF1bY0hdW2NIXTEpW0NAQEhdMlNbQ0gyXUMoPU8pTjJjM1tjSF1jKENsKVtjSF1bY0hdYzNbT0hd

> <s_epik_cmdline>
J2VwaWtfYXBwJywgJy1pbWFlJywgJ2xpZ2FuZF9wcm8ubWFlJywgJy1vbWFlJywgJ2xpZ2FuZF9wcmVwLm1hZScsICctbXMnLCAnMScsICctcGgnLCAnNycsICctcGh0JywgJzAuNScsICctbnQn

> <r_lp_tautomer_probability>
1

> <r_epik_Ionization_Penalty>
  0.0052

> <r_epik_Ionization_Penalty_Charging>
  0.0000

> <r_epik_Ionization_Penalty_Neutral>
  0.0052

> <r_epik_State_Penalty>
 -0.0000

> <r_epik_Charging_Adjusted_Penalty>
0

> <i_epik_Tot_Q>
0

> <i_epik_Tot_abs_Q>
0

> <s_epik_Chemistry_Notes>
This compound contains an acetal/aminal-like group ( X-CH(R)-Y where X, Y are N, S, or O) that may be acid/base labile, releasing an aldehyde.

$$$$
