3dy6_ligand
                    3D
 Schrodinger Suite 2020-3.
 50 53  0  0  1  0            999 V2000
   33.1580    7.3050   61.1190 N   0  0  2  0  0  0
   32.6350    5.7080   61.4620 S   0  0  0  0  0  0
   34.4990    7.3470   60.4950 C   0  0  0  0  0  0
   32.8260    8.3220   62.1630 C   0  0  0  0  0  0
   31.4060    5.8060   60.1760 C   0  0  0  0  0  0
   31.9820    5.5900   62.7600 O   0  0  0  0  0  0
   33.6200    4.7390   61.0290 O   0  0  0  0  0  0
   35.0550    8.7150   60.3940 C   0  0  0  0  0  0
   33.9220    9.2930   62.5420 C   0  0  0  0  0  0
   31.7060    5.3660   58.9030 C   0  0  0  0  0  0
   30.1790    6.3550   60.4830 C   0  0  0  0  0  0
   34.7770    9.6430   61.3740 C   0  0  0  0  0  0
   35.8480    9.0440   59.3210 C   0  0  0  0  0  0
   30.7310    5.4710   57.9300 C   0  0  0  0  0  0
   29.2220    6.4560   59.4960 C   0  0  0  0  0  0
   35.3000   10.9120   61.2780 C   0  0  0  0  0  0
   36.3680   10.3140   59.2340 C   0  0  0  0  0  0
   30.9970    5.0030   56.5630 C   0  0  0  0  0  0
   29.4990    6.0090   58.2200 C   0  0  0  0  0  0
   36.0970   11.2480   60.2100 C   0  0  0  0  0  0
   30.5110    5.8340   55.5860 N   0  0  0  0  0  0
   31.5980    3.9530   56.3740 O   0  0  0  0  0  0
   30.6860    5.5720   54.2090 C   0  0  0  0  0  0
   30.0130    6.3410   53.2820 C   0  0  0  0  0  0
   31.5210    4.5620   53.7860 C   0  0  0  0  0  0
   30.1710    6.1050   51.9390 C   0  0  0  0  0  0
   29.1170    7.4220   53.7000 C   0  0  0  0  0  0
   31.6760    4.3240   52.4430 C   0  0  0  0  0  0
   31.0030    5.0940   51.5240 C   0  0  0  0  0  0
   28.6260    7.3480   54.8560 O   0  0  0  0  0  0
   28.9160    8.3300   52.8510 O   0  5  0  0  0  0
   35.2008    6.7475   61.0934 H   0  0  0  0  0  0
   34.4423    6.9364   59.4761 H   0  0  0  0  0  0
   31.9858    8.9419   61.8169 H   0  0  0  0  0  0
   32.5450    7.8115   63.0960 H   0  0  0  0  0  0
   33.4732   10.2185   62.9318 H   0  0  0  0  0  0
   34.5608    8.8413   63.3153 H   0  0  0  0  0  0
   32.6853    4.9471   58.6715 H   0  0  0  0  0  0
   29.9684    6.7048   61.4936 H   0  0  0  0  0  0
   36.0624    8.3065   58.5475 H   0  0  0  0  0  0
   28.2476    6.8884   59.7231 H   0  0  0  0  0  0
   35.0822   11.6509   62.0491 H   0  0  0  0  0  0
   36.9989   10.5837   58.3871 H   0  0  0  0  0  0
   28.7402    6.0825   57.4409 H   0  0  0  0  0  0
   36.5142   12.2522   60.1352 H   0  0  0  0  0  0
   29.9606    6.7453   55.8628 H   0  0  0  0  0  0
   32.0568    3.9538   54.5148 H   0  0  0  0  0  0
   29.6405    6.7150   51.2078 H   0  0  0  0  0  0
   32.3337    3.5233   52.1046 H   0  0  0  0  0  0
   31.1306    4.9008   50.4589 H   0  0  0  0  0  0
  1  2  1  0  0  0
  1  3  1  0  0  0
  1  4  1  0  0  0
  2  5  1  0  0  0
  2  6  2  0  0  0
  2  7  2  0  0  0
  3  8  1  0  0  0
  3 32  1  0  0  0
  3 33  1  0  0  0
  4  9  1  0  0  0
  4 34  1  0  0  0
  4 35  1  0  0  0
  5 10  2  0  0  0
  5 11  1  0  0  0
  8 12  2  0  0  0
  8 13  1  0  0  0
  9 12  1  0  0  0
  9 36  1  0  0  0
  9 37  1  0  0  0
 10 14  1  0  0  0
 10 38  1  0  0  0
 11 15  2  0  0  0
 11 39  1  0  0  0
 12 16  1  0  0  0
 13 17  2  0  0  0
 13 40  1  0  0  0
 14 18  1  0  0  0
 14 19  2  0  0  0
 15 19  1  0  0  0
 15 41  1  0  0  0
 16 20  2  0  0  0
 16 42  1  0  0  0
 17 20  1  0  0  0
 17 43  1  0  0  0
 18 21  1  0  0  0
 18 22  2  0  0  0
 19 44  1  0  0  0
 20 45  1  0  0  0
 21 23  1  0  0  0
 21 46  1  0  0  0
 23 24  2  0  0  0
 23 25  1  0  0  0
 24 26  1  0  0  0
 24 27  1  0  0  0
 25 28  2  0  0  0
 25 47  1  0  0  0
 26 29  2  0  0  0
 26 48  1  0  0  0
 27 30  2  0  0  0
 27 31  1  0  0  0
 28 29  1  0  0  0
 28 49  1  0  0  0
 29 50  1  0  0  0
M  CHG  1  31  -1
M  END
> <s_m_source_file>
../3dy6_ligand.sdf

> <i_m_source_file_index>
1

> <s_epik_input>
W2NIXTFbY0hdW2NIXVtjSF1jKGMxMilbQ0gyXVtDSDJdTihbQ0gyXTIpUyg9TykoPU8pYzNbY0hdYyhbY0hdW2NIXVtjSF0zKUMoPU8pW05IXWM0YyhDKD1PKVtPSF0pW2NIXVtjSF1bY0hdW2NIXTQ=

> <s_epik_cmdline>
J2VwaWtfYXBwJywgJy1pbWFlJywgJ2xpZ2FuZF9wcm8ubWFlJywgJy1vbWFlJywgJ2xpZ2FuZF9wcmVwLm1hZScsICctbXMnLCAnMScsICctcGgnLCAnNycsICctcGh0JywgJzAuNScsICctbnQn

> <r_lp_tautomer_probability>
1

> <r_epik_Ionization_Penalty>
  0.0005

> <r_epik_Ionization_Penalty_Charging>
  0.0004

> <r_epik_Ionization_Penalty_Neutral>
  0.0000

> <r_epik_State_Penalty>
 -0.0000

> <r_epik_Charging_Adjusted_Penalty>
0.000448732847435253

> <i_epik_Tot_Q>
-1

> <i_epik_Tot_abs_Q>
1

$$$$
