3dya_ligand
                    3D
 Schrodinger Suite 2020-3.
 38 41  0  0  1  0            999 V2000
   49.3940   66.2110   23.5460 N   0  0  0  0  0  0
   49.1770   65.7480   22.5070 C   0  0  0  0  0  0
   48.9540   65.0650   21.4540 C   0  0  0  0  0  0
   48.8890   63.6860   21.5910 C   0  0  0  0  0  0
   48.6160   62.9020   20.4850 C   0  0  0  0  0  0
   48.5710   61.1260   20.6250 Cl  0  0  0  0  0  0
   48.4050   63.4700   19.2490 C   0  0  0  0  0  0
   48.7370   65.6520   20.2090 C   0  0  0  0  0  0
   48.4650   64.8410   19.1070 C   0  0  0  0  0  0
   48.2110   65.3760   17.8640 O   0  0  0  0  0  0
   48.8460   64.9760   16.7290 C   0  0  0  0  0  0
   48.0450   64.5980   15.7080 C   0  0  0  0  0  0
   46.2140   64.6820   16.0970 Br  0  0  0  0  0  0
   50.2190   64.9580   16.5960 C   0  0  0  0  0  0
   50.9460   65.3450   17.6410 F   0  0  0  0  0  0
   50.7820   64.5170   15.3960 C   0  0  0  0  0  0
   49.9530   64.1460   14.3460 C   0  0  0  0  0  0
   48.5730   64.1710   14.4940 C   0  0  0  0  0  0
   52.2760   64.5170   15.1590 C   0  0  0  0  0  0
   52.4850   65.8990   14.5660 C   0  0  0  0  0  0
   52.3700   66.2410   13.2610 N   0  3  0  0  0  0
   52.5870   67.6250   13.1120 N   0  0  0  0  0  0
   52.7980   68.0940   14.3400 C   0  0  0  0  0  0
   53.0480   69.3770   14.7070 N   0  0  0  0  0  0
   52.7360   67.0680   15.2530 C   0  0  0  0  0  0
   52.9380   67.3310   16.5990 C   0  0  0  0  0  0
   53.2020   68.6400   17.0060 C   0  0  0  0  0  0
   53.2500   69.6300   16.0920 N   0  0  0  0  0  0
   49.0521   63.2233   22.5644 H   0  0  0  0  0  0
   48.1914   62.8392   18.3861 H   0  0  0  0  0  0
   48.7794   66.7354   20.0971 H   0  0  0  0  0  0
   50.3893   63.8325   13.3976 H   0  0  0  0  0  0
   47.9187   63.8633   13.6783 H   0  0  0  0  0  0
   52.7989   64.3692   16.1154 H   0  0  0  0  0  0
   52.5377   63.7019   14.4682 H   0  0  0  0  0  0
   52.8912   66.5249   17.3312 H   0  0  0  0  0  0
   53.3689   68.8612   18.0602 H   0  0  0  0  0  0
   52.1385   65.4721   12.5093 H   0  0  0  0  0  0
  1  2  3  0  0  0
  2  3  1  0  0  0
  3  4  2  0  0  0
  3  8  1  0  0  0
  4  5  1  0  0  0
  4 29  1  0  0  0
  5  6  1  0  0  0
  5  7  2  0  0  0
  7  9  1  0  0  0
  7 30  1  0  0  0
  8  9  2  0  0  0
  8 31  1  0  0  0
  9 10  1  0  0  0
 10 11  1  0  0  0
 11 12  2  0  0  0
 11 14  1  0  0  0
 12 13  1  0  0  0
 12 18  1  0  0  0
 14 15  1  0  0  0
 14 16  2  0  0  0
 16 17  1  0  0  0
 16 19  1  0  0  0
 17 18  2  0  0  0
 17 32  1  0  0  0
 18 33  1  0  0  0
 19 20  1  0  0  0
 19 34  1  0  0  0
 19 35  1  0  0  0
 20 21  2  0  0  0
 20 25  1  0  0  0
 21 22  1  0  0  0
 21 38  1  0  0  0
 22 23  1  0  0  0
 23 24  1  0  0  0
 23 25  2  0  0  0
 24 28  2  0  0  0
 25 26  1  0  0  0
 26 27  2  0  0  0
 26 36  1  0  0  0
 27 28  1  0  0  0
 27 37  1  0  0  0
M  CHG  1  21   1
M  END
> <s_m_source_file>
../3dya_ligand.sdf

> <i_m_source_file_index>
1

> <s_epik_input>
TiNDYzFbY0hdYyhDbClbY0hdYyhbY0hdMSlPYzJjKEJyKVtjSF1bY0hdYyhjMkYpW0NIMl1jKG5bbkhdMyljKGMzNClbY0hdW2NIXW5uNA==

> <s_epik_cmdline>
J2VwaWtfYXBwJywgJy1pbWFlJywgJ2xpZ2FuZF9wcm8ubWFlJywgJy1vbWFlJywgJ2xpZ2FuZF9wcmVwLm1hZScsICctbXMnLCAnMScsICctcGgnLCAnNycsICctcGh0JywgJzAuNScsICctbnQn

> <r_epik_Ionization_Penalty>
  0.0000

> <r_epik_Ionization_Penalty_Charging>
  0.0000

> <r_epik_Ionization_Penalty_Neutral>
  0.0000

> <r_epik_State_Penalty>
  0.0268

> <r_epik_Charging_Adjusted_Penalty>
0.0268468499178528

> <i_epik_Tot_Q>
1

> <i_epik_Tot_abs_Q>
1

$$$$
