3dyo_ligand
                    3D
 Schrodinger Suite 2020-3.
 33 33  0  0  1  0            999 V2000
  -14.8210  -27.7140  -26.1910 C   0  0  1  0  0  0
  -13.5350  -27.6170  -25.3470 C   0  0  2  0  0  0
  -13.6890  -26.5310  -24.4510 O   0  0  0  0  0  0
  -12.3510  -27.3010  -26.2590 C   0  0  1  0  0  0
  -11.1170  -27.2710  -25.4980 O   0  0  0  0  0  0
  -12.2400  -28.3790  -27.3770 C   0  0  1  0  0  0
  -11.8970  -29.6950  -26.8530 O   0  0  0  0  0  0
  -13.5720  -28.4290  -28.1200 C   0  0  2  0  0  0
  -14.6340  -28.6850  -27.1940 O   0  0  0  0  0  0
  -13.7230  -29.5560  -29.1410 C   0  0  0  0  0  0
  -12.6630  -29.4020  -30.0910 O   0  0  0  0  0  0
  -16.2210  -28.4060  -25.2540 S   0  0  0  0  0  0
  -17.7130  -27.9100  -26.2430 C   0  0  0  0  0  0
  -18.9700  -28.1900  -25.4700 C   0  0  0  0  0  0
  -17.7440  -28.4970  -27.6630 C   0  0  0  0  0  0
  -14.8669  -26.7297  -26.6800 H   0  0  0  0  0  0
  -13.3572  -28.5234  -24.7497 H   0  0  0  0  0  0
  -14.4907  -26.5486  -23.6980 H   0  0  0  0  0  0
  -12.4706  -26.2882  -26.6711 H   0  0  0  0  0  0
  -11.0048  -26.5677  -24.6597 H   0  0  0  0  0  0
  -11.4052  -28.1604  -28.0592 H   0  0  0  0  0  0
  -10.9636  -29.8360  -26.2883 H   0  0  0  0  0  0
  -13.6600  -27.4429  -28.5994 H   0  0  0  0  0  0
  -13.6492  -30.5268  -28.6291 H   0  0  0  0  0  0
  -14.7029  -29.4751  -29.6342 H   0  0  0  0  0  0
  -12.5686  -30.1083  -30.9290 H   0  0  0  0  0  0
  -17.8710  -26.8541  -26.5079 H   0  0  0  0  0  0
  -18.8894  -27.7474  -24.4662 H   0  0  0  0  0  0
  -19.1112  -29.2773  -25.3811 H   0  0  0  0  0  0
  -19.8299  -27.7504  -25.9966 H   0  0  0  0  0  0
  -16.8011  -28.2609  -28.1780 H   0  0  0  0  0  0
  -18.5858  -28.0617  -28.2214 H   0  0  0  0  0  0
  -17.8672  -29.5886  -27.6059 H   0  0  0  0  0  0
  1  2  1  0  0  0
  1  9  1  0  0  0
  1 12  1  0  0  0
  1 16  1  0  0  0
  2  3  1  0  0  0
  2  4  1  0  0  0
  2 17  1  0  0  0
  3 18  1  0  0  0
  4  5  1  0  0  0
  4  6  1  0  0  0
  4 19  1  0  0  0
  5 20  1  0  0  0
  6  7  1  0  0  0
  6  8  1  0  0  0
  6 21  1  0  0  0
  7 22  1  0  0  0
  8  9  1  0  0  0
  8 10  1  0  0  0
  8 23  1  0  0  0
 10 11  1  0  0  0
 10 24  1  0  0  0
 10 25  1  0  0  0
 11 26  1  0  0  0
 12 13  1  0  0  0
 13 14  1  0  0  0
 13 15  1  0  0  0
 13 27  1  0  0  0
 14 28  1  0  0  0
 14 29  1  0  0  0
 14 30  1  0  0  0
 15 31  1  0  0  0
 15 32  1  0  0  0
 15 33  1  0  0  0
M  END
> <s_m_source_file>
../3dyo_ligand.sdf

> <i_m_source_file_index>
1

> <s_epik_input>
W0NIM11bQ0hdKFtDSDNdKVNbQ0BIXTFbQ0BIXShbT0hdKVtDQEBIXShbT0hdKVtDQEBIXShbT0hdKVtDQEhdKE8xKVtDSDJdW09IXQ==

> <s_epik_cmdline>
J2VwaWtfYXBwJywgJy1pbWFlJywgJ2xpZ2FuZF9wcm8ubWFlJywgJy1vbWFlJywgJ2xpZ2FuZF9wcmVwLm1hZScsICctbXMnLCAnMScsICctcGgnLCAnNycsICctcGh0JywgJzAuNScsICctbnQn

> <r_lp_tautomer_probability>
1

> <r_epik_Ionization_Penalty>
  0.0000

> <r_epik_Ionization_Penalty_Charging>
  0.0000

> <r_epik_Ionization_Penalty_Neutral>
  0.0000

> <r_epik_State_Penalty>
 -0.0000

> <r_epik_Charging_Adjusted_Penalty>
0

> <i_epik_Tot_Q>
0

> <i_epik_Tot_abs_Q>
0

> <s_epik_Chemistry_Notes>
This compound contains an acetal/aminal-like group ( X-CH(R)-Y where X, Y are N, S, or O) that may be acid/base labile, releasing an aldehyde.

$$$$
