3dzt_ligand
                    3D
 Schrodinger Suite 2020-3.
 58 57  0  0  1  0            999 V2000
  -13.0790   -6.9900    7.9600 O   0  0  0  0  0  0
  -14.0190   -6.4500    7.4600 C   0  0  0  0  0  0
  -15.0830   -6.4600    8.0280 O   0  5  0  0  0  0
  -13.9440   -5.8000    6.1130 C   0  0  0  0  0  0
  -15.1170   -4.8730    6.0520 C   0  0  0  0  0  0
  -14.7270   -3.4100    5.9870 C   0  0  0  0  0  0
  -15.7920   -2.6210    5.2360 C   0  0  2  0  0  0
  -15.8080   -2.8660    3.9390 O   0  0  0  0  0  0
  -15.7480   -1.1500    5.6010 C   0  0  0  0  0  0
  -16.6260   -0.2690    4.7520 C   0  0  0  0  0  0
  -15.8880    0.8510    4.1260 C   0  0  0  0  0  0
  -16.6250    1.4750    3.0650 C   0  0  0  0  0  0
  -15.8940    2.2060    2.2510 C   0  0  0  0  0  0
  -16.7830    2.7270    1.2520 C   0  0  0  0  0  0
  -16.3950    3.3460    0.1750 C   0  0  0  0  0  0
  -14.9660    3.6510   -0.0440 C   0  0  0  0  0  0
  -14.7720    5.1300   -0.1320 C   0  0  0  0  0  0
  -14.2290    5.8410   -1.0840 C   0  0  0  0  0  0
  -13.6560    5.3030   -2.3450 C   0  0  0  0  0  0
  -12.2150    4.9220   -2.1890 C   0  0  0  0  0  0
  -12.2130    3.4540   -1.9330 C   0  0  0  0  0  0
  -11.0200    2.6650   -2.3850 C   0  0  0  0  0  0
   -9.8160    2.8450   -1.5390 C   0  0  0  0  0  0
  -12.9940   -5.2530    6.0222 H   0  0  0  0  0  0
  -13.9995   -6.5709    5.3303 H   0  0  0  0  0  0
  -15.7138   -5.0953    5.1551 H   0  0  0  0  0  0
  -15.7388   -5.0089    6.9491 H   0  0  0  0  0  0
  -14.6320   -3.0102    7.0074 H   0  0  0  0  0  0
  -13.7650   -3.3099    5.4630 H   0  0  0  0  0  0
  -16.8015   -3.0246    5.4032 H   0  0  0  0  0  0
  -15.8398   -3.9038    3.5757 H   0  0  0  0  0  0
  -16.0771   -1.0207    6.6426 H   0  0  0  0  0  0
  -14.7193   -0.7759    5.4924 H   0  0  0  0  0  0
  -17.0740   -0.8668    3.9446 H   0  0  0  0  0  0
  -17.4236    0.1627    5.3744 H   0  0  0  0  0  0
  -15.6741    1.6185    4.8844 H   0  0  0  0  0  0
  -14.9427    0.4776    3.7054 H   0  0  0  0  0  0
  -17.1110    0.7017    2.4520 H   0  0  0  0  0  0
  -17.3908    2.1394    3.4918 H   0  0  0  0  0  0
  -15.4203    3.0219    2.8165 H   0  0  0  0  0  0
  -15.1161    1.5777    1.7926 H   0  0  0  0  0  0
  -17.8556    2.5747    1.4426 H   0  0  0  0  0  0
  -17.1335    3.6472   -0.5825 H   0  0  0  0  0  0
  -14.3740    3.2557    0.7946 H   0  0  0  0  0  0
  -14.6308    3.1837   -0.9817 H   0  0  0  0  0  0
  -15.1664    5.6252    0.7676 H   0  0  0  0  0  0
  -14.1689    6.9351   -0.9873 H   0  0  0  0  0  0
  -14.2171    4.4073   -2.6498 H   0  0  0  0  0  0
  -13.7261    6.0658   -3.1344 H   0  0  0  0  0  0
  -11.6687    5.1684   -3.1114 H   0  0  0  0  0  0
  -11.7784    5.4763   -1.3451 H   0  0  0  0  0  0
  -12.2853    3.2704   -0.8508 H   0  0  0  0  0  0
  -13.0721    2.9919   -2.4414 H   0  0  0  0  0  0
  -11.2643    1.5925   -2.3744 H   0  0  0  0  0  0
  -10.7451    2.9684   -3.4060 H   0  0  0  0  0  0
   -8.9926    2.2348   -1.9385 H   0  0  0  0  0  0
  -10.0406    2.5289   -0.5096 H   0  0  0  0  0  0
   -9.5215    3.9048   -1.5412 H   0  0  0  0  0  0
  1  2  2  0  0  0
  2  3  1  0  0  0
  2  4  1  0  0  0
  4  5  1  0  0  0
  4 24  1  0  0  0
  4 25  1  0  0  0
  5  6  1  0  0  0
  5 26  1  0  0  0
  5 27  1  0  0  0
  6  7  1  0  0  0
  6 28  1  0  0  0
  6 29  1  0  0  0
  7  8  1  0  0  0
  7  9  1  0  0  0
  7 30  1  0  0  0
  8 31  1  0  0  0
  9 10  1  0  0  0
  9 32  1  0  0  0
  9 33  1  0  0  0
 10 11  1  0  0  0
 10 34  1  0  0  0
 10 35  1  0  0  0
 11 12  1  0  0  0
 11 36  1  0  0  0
 11 37  1  0  0  0
 12 13  1  0  0  0
 12 38  1  0  0  0
 12 39  1  0  0  0
 13 14  1  0  0  0
 13 40  1  0  0  0
 13 41  1  0  0  0
 14 15  2  0  0  0
 14 42  1  0  0  0
 15 16  1  0  0  0
 15 43  1  0  0  0
 16 17  1  0  0  0
 16 44  1  0  0  0
 16 45  1  0  0  0
 17 18  2  0  0  0
 17 46  1  0  0  0
 18 19  1  0  0  0
 18 47  1  0  0  0
 19 20  1  0  0  0
 19 48  1  0  0  0
 19 49  1  0  0  0
 20 21  1  0  0  0
 20 50  1  0  0  0
 20 51  1  0  0  0
 21 22  1  0  0  0
 21 52  1  0  0  0
 21 53  1  0  0  0
 22 23  1  0  0  0
 22 54  1  0  0  0
 22 55  1  0  0  0
 23 56  1  0  0  0
 23 57  1  0  0  0
 23 58  1  0  0  0
M  CHG  1   3  -1
M  END
> <s_m_source_file>
../3dzt_ligand.sdf

> <i_m_source_file_index>
1

> <s_epik_input>
Tz1DKFtPSF0pW0NIMl1bQ0gyXVtDSDJdW0NASF0oW09IXSlbQ0gyXVtDSDJdW0NIMl1bQ0gyXVtDSDJdL1tDSF09W0NIXVxbQ0gyXS9bQ0hdPVtDSF1cW0NIMl1bQ0gyXVtDSDJdW0NIMl1bQ0gzXQ==

> <s_epik_cmdline>
J2VwaWtfYXBwJywgJy1pbWFlJywgJ2xpZ2FuZF9wcm8ubWFlJywgJy1vbWFlJywgJ2xpZ2FuZF9wcmVwLm1hZScsICctbXMnLCAnMScsICctcGgnLCAnNycsICctcGh0JywgJzAuNScsICctbnQn

> <r_lp_tautomer_probability>
1

> <r_epik_Ionization_Penalty>
  0.0042

> <r_epik_Ionization_Penalty_Charging>
  0.0042

> <r_epik_Ionization_Penalty_Neutral>
  0.0000

> <r_epik_State_Penalty>
 -0.0000

> <r_epik_Charging_Adjusted_Penalty>
0.00422193833459932

> <i_epik_Tot_Q>
-1

> <i_epik_Tot_abs_Q>
1

$$$$
