3e01_ligand
                    3D
 Schrodinger Suite 2020-3.
 41 44  0  0  1  0            999 V2000
   52.7790   66.7770   14.3550 C   0  0  0  0  0  0
   52.9540   67.0380   15.7280 C   0  0  0  0  0  0
   53.1050   68.3380   16.1360 C   0  0  0  0  0  0
   53.0880   69.2980   15.2220 N   0  0  0  0  0  0
   52.9410   69.0820   13.9500 N   0  0  0  0  0  0
   52.7770   67.8630   13.4580 C   0  0  0  0  0  0
   52.5870   65.5820   13.5440 C   0  0  0  0  0  0
   52.5940   67.3460   12.2130 N   0  0  0  0  0  0
   52.4760   65.9580   12.3000 N   0  3  0  0  0  0
   49.3170   64.2450   16.9500 C   0  0  0  0  0  0
   49.0380   64.2510   15.5880 C   0  0  0  0  0  0
   50.0640   64.2250   14.6580 C   0  0  0  0  0  0
   51.3790   64.1870   15.0880 C   0  0  0  0  0  0
   51.6630   64.1880   16.4460 C   0  0  0  0  0  0
   50.6410   64.2180   17.3780 C   0  0  0  0  0  0
   48.4550   62.0540   20.6890 C   0  0  0  0  0  0
   48.6940   62.9490   21.7140 C   0  0  0  0  0  0
   48.7900   64.3100   21.4160 C   0  0  0  0  0  0
   48.6490   64.7510   20.1040 C   0  0  0  0  0  0
   48.4160   63.8390   19.0950 C   0  0  0  0  0  0
   48.3140   62.4910   19.3850 C   0  0  0  0  0  0
   48.3480   60.5830   20.9720 C   0  0  0  0  0  0
   49.0300   65.2700   22.4430 C   0  0  0  0  0  0
   49.2200   66.0390   23.2530 N   0  0  0  0  0  0
   48.2720   64.2730   17.8220 O   0  0  0  0  0  0
   47.2370   64.2870   15.0060 Br  0  0  0  0  0  0
   52.4970   64.1730   14.0750 C   0  0  0  0  0  0
   52.9691   66.2228   16.4515 H   0  0  0  0  0  0
   53.2365   68.5776   17.1912 H   0  0  0  0  0  0
   49.8368   64.2344   13.5920 H   0  0  0  0  0  0
   52.6999   64.1650   16.7814 H   0  0  0  0  0  0
   50.8718   64.2205   18.4433 H   0  0  0  0  0  0
   48.8060   62.5981   22.7399 H   0  0  0  0  0  0
   48.7224   65.8139   19.8738 H   0  0  0  0  0  0
   48.1227   61.7739   18.5867 H   0  0  0  0  0  0
   48.4829   60.4061   22.0493 H   0  0  0  0  0  0
   49.1263   60.0443   20.4117 H   0  0  0  0  0  0
   47.3564   60.2212   20.6623 H   0  0  0  0  0  0
   52.2773   63.4826   13.2473 H   0  0  0  0  0  0
   53.4541   63.8947   14.5404 H   0  0  0  0  0  0
   52.3144   65.2085   11.5112 H   0  0  0  0  0  0
  1  2  2  0  0  0
  1  6  1  0  0  0
  1  7  1  0  0  0
  2  3  1  0  0  0
  2 28  1  0  0  0
  3  4  2  0  0  0
  3 29  1  0  0  0
  4  5  1  0  0  0
  5  6  2  0  0  0
  6  8  1  0  0  0
  7  9  2  0  0  0
  7 27  1  0  0  0
  8  9  1  0  0  0
  9 41  1  0  0  0
 10 11  2  0  0  0
 10 15  1  0  0  0
 10 25  1  0  0  0
 11 12  1  0  0  0
 11 26  1  0  0  0
 12 13  2  0  0  0
 12 30  1  0  0  0
 13 14  1  0  0  0
 13 27  1  0  0  0
 14 15  2  0  0  0
 14 31  1  0  0  0
 15 32  1  0  0  0
 16 17  2  0  0  0
 16 21  1  0  0  0
 16 22  1  0  0  0
 17 18  1  0  0  0
 17 33  1  0  0  0
 18 19  2  0  0  0
 18 23  1  0  0  0
 19 20  1  0  0  0
 19 34  1  0  0  0
 20 21  2  0  0  0
 20 25  1  0  0  0
 21 35  1  0  0  0
 22 36  1  0  0  0
 22 37  1  0  0  0
 22 38  1  0  0  0
 23 24  3  0  0  0
 27 39  1  0  0  0
 27 40  1  0  0  0
M  CHG  1   9   1
M  END
> <s_m_source_file>
../3e01_ligand.sdf

> <i_m_source_file_index>
1

> <s_epik_input>
W2NIXTFbY0hdbm5jKGMxMilbbkhdbmMyW0NIMl1jKFtjSF1bY0hdMylbY0hdYyhCciljM09jKFtjSF00KVtjSF1jKEMjTilbY0hdYzRbQ0gzXQ==

> <s_epik_cmdline>
J2VwaWtfYXBwJywgJy1pbWFlJywgJ2xpZ2FuZF9wcm8ubWFlJywgJy1vbWFlJywgJ2xpZ2FuZF9wcmVwLm1hZScsICctbXMnLCAnMScsICctcGgnLCAnNycsICctcGh0JywgJzAuNScsICctbnQn

> <r_epik_Ionization_Penalty>
  0.0000

> <r_epik_Ionization_Penalty_Charging>
  0.0000

> <r_epik_Ionization_Penalty_Neutral>
  0.0000

> <r_epik_State_Penalty>
  0.0268

> <r_epik_Charging_Adjusted_Penalty>
0.0268468499178535

> <i_epik_Tot_Q>
1

> <i_epik_Tot_abs_Q>
1

$$$$
