3e12_ligand
                    3D
 Schrodinger Suite 2020-3.
 32 31  0  0  1  0            999 V2000
   39.7270   55.7430   13.7460 O   0  5  0  0  0  0
   39.6260   55.9760   15.3180 P   0  0  0  0  0  0
   39.1850   57.4810   15.6280 O   0  5  0  0  0  0
   40.9090   55.6160   15.9830 O   0  0  0  0  0  0
   38.4920   55.0150   15.7580 O   0  0  0  0  0  0
   37.8650   55.1850   16.9500 C   0  0  0  0  0  0
   37.4430   53.8060   17.4370 C   0  0  1  0  0  0
   38.5460   53.2410   18.1550 O   0  0  0  0  0  0
   36.2470   53.9850   18.3460 C   0  0  1  0  0  0
   35.1470   54.5220   17.5600 O   0  0  0  0  0  0
   35.8220   52.6600   18.9970 C   0  0  2  0  0  0
   35.5660   51.6450   18.0140 O   0  0  0  0  0  0
   34.5270   52.8820   19.7500 C   0  0  2  0  0  0
   34.6880   53.9870   20.6180 O   0  0  0  0  0  0
   34.2040   51.6600   20.6120 C   0  0  0  0  0  0
   32.7440   51.7120   21.0630 C   0  0  0  0  0  0
   31.8340   51.4820   20.2610 O   0  0  0  0  0  0
   32.4040   52.0100   22.5220 C   0  0  0  0  0  0
   31.1740   51.9720   22.8410 O   0  0  0  0  0  0
   33.3810   52.2120   23.3110 O   0  5  0  0  0  0
   38.5576   55.6528   17.6652 H   0  0  0  0  0  0
   36.9865   55.8327   16.8131 H   0  0  0  0  0  0
   37.2091   53.1000   16.6265 H   0  0  0  0  0  0
   39.4970   53.0459   17.6377 H   0  0  0  0  0  0
   36.4948   54.7133   19.1323 H   0  0  0  0  0  0
   35.2700   55.4717   17.0188 H   0  0  0  0  0  0
   36.6339   52.2764   19.6323 H   0  0  0  0  0  0
   36.3713   51.3155   17.3411 H   0  0  0  0  0  0
   33.7145   53.1251   19.0494 H   0  0  0  0  0  0
   34.9272   54.9789   20.2071 H   0  0  0  0  0  0
   34.3702   50.7439   20.0263 H   0  0  0  0  0  0
   34.8570   51.6527   21.4972 H   0  0  0  0  0  0
  1  2  1  0  0  0
  2  3  1  0  0  0
  2  4  2  0  0  0
  2  5  1  0  0  0
  5  6  1  0  0  0
  6  7  1  0  0  0
  6 21  1  0  0  0
  6 22  1  0  0  0
  7  8  1  0  0  0
  7  9  1  0  0  0
  7 23  1  0  0  0
  8 24  1  0  0  0
  9 10  1  0  0  0
  9 11  1  0  0  0
  9 25  1  0  0  0
 10 26  1  0  0  0
 11 12  1  0  0  0
 11 13  1  0  0  0
 11 27  1  0  0  0
 12 28  1  0  0  0
 13 14  1  0  0  0
 13 15  1  0  0  0
 13 29  1  0  0  0
 14 30  1  0  0  0
 15 16  1  0  0  0
 15 31  1  0  0  0
 15 32  1  0  0  0
 16 17  2  0  0  0
 16 18  1  0  0  0
 18 19  2  0  0  0
 18 20  1  0  0  0
M  CHG  3   1  -1   3  -1  20  -1
M  END
> <s_m_source_file>
../3e12_ligand.sdf

> <i_m_source_file_index>
1

> <s_epik_input>
W09IXVAoPU8pKFtPSF0pT1tDSDJdW0NAQEhdKFtPSF0pW0NAQEhdKFtPSF0pW0NASF0oW09IXSlbQ0BIXShbT0hdKVtDSDJdQyg9TylDKD1PKVtPSF0=

> <s_epik_cmdline>
J2VwaWtfYXBwJywgJy1pbWFlJywgJ2xpZ2FuZF9wcm8ubWFlJywgJy1vbWFlJywgJ2xpZ2FuZF9wcmVwLm1hZScsICctbXMnLCAnMScsICctcGgnLCAnNycsICctcGh0JywgJzAuNScsICctbnQn

> <r_epik_Ionization_Penalty>
  0.1145

> <r_epik_Ionization_Penalty_Charging>
  0.1145

> <r_epik_Ionization_Penalty_Neutral>
  0.0000

> <r_epik_State_Penalty>
  0.1041

> <r_epik_Charging_Adjusted_Penalty>
0.218647986273921

> <i_epik_Tot_Q>
-3

> <i_epik_Tot_abs_Q>
3

$$$$
