3e1r_ligand
                    3D
 Schrodinger Suite 2020-3.
195201  0  0  1  0            999 V2000
   38.2300   28.0490   13.8260 N   0  3  0  0  0  0
   38.1270   27.5910   12.4100 C   0  0  2  0  0  0
   36.8620   26.7510   12.2100 C   0  0  0  0  0  0
   36.1390   26.9430   11.2340 O   0  0  0  0  0  0
   39.3720   26.7810   12.0300 C   0  0  0  0  0  0
   39.4000   26.2540   10.5940 C   0  0  0  0  0  0
   39.6550   27.3320    9.5490 C   0  0  0  0  0  0
   39.9320   28.4870    9.8780 O   0  0  0  0  0  0
   39.5720   26.9510    8.2780 N   0  0  0  0  0  0
   36.5930   25.8220   13.1220 N   0  0  0  0  0  0
   35.3900   25.0030   13.0030 C   0  0  2  0  0  0
   34.1780   25.9050   13.2310 C   0  0  0  0  0  0
   34.2090   26.7870   14.0890 O   0  0  0  0  0  0
   35.4060   23.8680   14.0300 C   0  0  0  0  0  0
   33.1160   25.6870   12.4580 N   0  0  0  0  0  0
   31.9010   26.4910   12.5850 C   0  0  2  0  0  0
   30.6700   25.6330   12.7890 C   0  0  0  0  0  0
   30.5580   24.5530   12.2200 O   0  0  0  0  0  0
   31.6430   27.3180   11.3290 C   0  0  0  0  0  0
   32.6670   28.3580   10.9610 C   0  0  0  0  0  0
   32.1890   29.1900    9.7850 C   0  0  0  0  0  0
   32.9870   29.7500    9.0380 O   0  0  0  0  0  0
   30.8700   29.2750    9.6210 N   0  0  0  0  0  0
   29.7330   26.1330   13.5840 N   0  0  0  0  0  0
   28.4940   25.4120   13.8030 C   0  0  0  0  0  0
   27.4580   26.0460   12.8960 C   0  0  0  0  0  0
   27.7900   26.9630   12.1530 O   0  0  0  0  0  0
   26.2010   25.5750   12.9180 N   0  0  0  0  0  0
   25.1000   26.0970   12.0920 C   0  0  2  0  0  0
   24.7180   27.5420   12.4510 C   0  0  0  0  0  0
   25.0200   28.0100   13.5470 O   0  0  0  0  0  0
   23.9650   25.1090   12.3670 C   0  0  0  0  0  0
   24.2650   24.6200   13.7550 C   0  0  0  0  0  0
   25.7560   24.4200   13.7140 C   0  0  0  0  0  0
   24.0560   28.2670   11.5240 N   0  0  0  0  0  0
   23.6270   29.6590   11.7290 C   0  0  2  0  0  0
   22.7590   29.8440   12.9740 C   0  0  0  0  0  0
   22.8420   30.8670   13.6570 O   0  0  0  0  0  0
   22.8470   29.9720   10.4530 C   0  0  0  0  0  0
   23.5290   29.1430    9.4300 C   0  0  0  0  0  0
   23.7430   27.8280   10.1500 C   0  0  0  0  0  0
   21.9130   28.8560   13.2420 N   0  0  0  0  0  0
   21.0080   28.8770   14.3880 C   0  0  2  0  0  0
   21.0170   27.4780   14.9930 C   0  0  0  0  0  0
   21.3840   26.5110   14.3240 O   0  0  0  0  0  0
   19.5800   29.2170   13.9340 C   0  0  0  0  0  0
   19.4370   30.5140   13.1590 C   0  0  0  0  0  0
   19.3170   31.7370   13.8170 C   0  0  0  0  0  0
   19.4190   30.5150   11.7610 C   0  0  0  0  0  0
   19.1770   32.9330   13.1040 C   0  0  0  0  0  0
   19.2830   31.7040   11.0380 C   0  0  0  0  0  0
   19.1600   32.9080   11.7160 C   0  0  0  0  0  0
   19.0040   34.0800   11.0080 O   0  0  0  0  0  0
   20.6290   27.3430   16.2690 N   0  0  0  0  0  0
   20.6380   25.9890   16.8370 C   0  0  2  0  0  0
   19.4960   25.1270   16.2920 C   0  0  0  0  0  0
   19.5790   23.8970   16.2870 O   0  0  0  0  0  0
   20.5300   26.2410   18.3420 C   0  0  0  0  0  0
   19.7940   27.5510   18.4250 C   0  0  0  0  0  0
   20.4430   28.3580   17.3220 C   0  0  0  0  0  0
   18.4420   25.7810   15.8160 N   0  0  0  0  0  0
   17.2740   25.0990   15.2600 C   0  0  2  0  0  0
   17.0670   25.5670   13.8270 C   0  0  0  0  0  0
   17.2900   26.7360   13.5190 O   0  0  0  0  0  0
   16.0040   25.4460   16.0520 C   0  0  2  0  0  0
   16.1750   25.0670   17.4240 O   0  0  0  0  0  0
   14.7920   24.7230   15.4680 C   0  0  0  0  0  0
   16.6300   24.6750   12.9470 N   0  0  0  0  0  0
   16.4110   25.0950   11.5700 C   0  0  2  0  0  0
   15.1620   25.9490   11.4460 C   0  0  0  0  0  0
   14.1070   25.5640   11.9350 O   0  0  0  0  0  0
   16.2680   23.9040   10.6210 C   0  0  0  0  0  0
   16.3100   24.3540    9.1770 C   0  0  0  0  0  0
   15.1410   24.5690    8.4420 C   0  0  0  0  0  0
   17.5260   24.6450    8.5710 C   0  0  0  0  0  0
   15.1970   25.0720    7.1250 C   0  0  0  0  0  0
   17.5940   25.1430    7.2770 C   0  0  0  0  0  0
   16.4290   25.3560    6.5580 C   0  0  0  0  0  0
   16.5200   25.8620    5.2810 O   0  0  0  0  0  0
   15.2750   27.1190   10.7890 N   0  0  0  0  0  0
   14.1320   28.0130   10.6070 C   0  0  2  0  0  0
   12.9560   27.2860    9.9890 C   0  0  0  0  0  0
   13.0720   26.6930    8.9170 O   0  0  0  0  0  0
   14.6890   29.0980    9.6880 C   0  0  0  0  0  0
   16.0570   29.2660   10.2630 C   0  0  0  0  0  0
   16.5200   27.8220   10.4430 C   0  0  0  0  0  0
   11.8010   27.3470   10.6350 N   0  0  0  0  0  0
   10.6330   26.6830   10.0960 C   0  0  0  0  0  0
   10.3850   25.3310   10.7480 C   0  0  0  0  0  0
    9.3030   24.7590   10.5520 O   0  0  0  0  0  0
   11.3500   24.8050   11.5060 N   0  0  0  0  0  0
   11.1330   23.5260   12.1770 C   0  0  2  0  0  0
   10.3260   23.7640   13.4530 C   0  0  0  0  0  0
   10.2510   24.9250   13.9120 O   0  0  0  0  0  0
   12.4610   22.8620   12.5330 C   0  0  0  0  0  0
   12.3080   21.5250   13.2680 C   0  0  0  0  0  0
   11.9520   20.3540   12.5860 C   0  0  0  0  0  0
   12.5080   21.4360   14.6520 C   0  0  0  0  0  0
   11.8050   19.1360   13.2640 C   0  0  0  0  0  0
   12.3600   20.2280   15.3300 C   0  0  0  0  0  0
   12.0120   19.0830   14.6340 C   0  0  0  0  0  0
   11.8790   17.8870   15.3100 O   0  0  0  0  0  0
    9.8000   22.7750   13.9900 O   0  0  0  0  0  0
   37.3333   28.6289   14.0899 H   0  0  0  0  0  0
   39.1228   28.6808   13.9430 H   0  0  0  0  0  0
   38.3098   27.1750   14.4891 H   0  0  0  0  0  0
   38.0644   28.4901   11.7794 H   0  0  0  0  0  0
   40.2678   27.4083   12.1484 H   0  0  0  0  0  0
   39.4513   25.9012   12.6855 H   0  0  0  0  0  0
   40.2002   25.5059   10.4935 H   0  0  0  0  0  0
   38.4319   25.7897   10.3548 H   0  0  0  0  0  0
   39.3216   25.9086    8.0315 H   0  0  0  0  0  0
   39.7537   27.6781    7.4729 H   0  0  0  0  0  0
   37.2796   25.6711   13.9680 H   0  0  0  0  0  0
   35.3848   24.5715   11.9912 H   0  0  0  0  0  0
   36.2826   23.2271   13.8545 H   0  0  0  0  0  0
   34.4884   23.2697   13.9296 H   0  0  0  0  0  0
   35.4585   24.2916   15.0438 H   0  0  0  0  0  0
   33.1666   24.8810   11.7111 H   0  0  0  0  0  0
   32.1060   27.1156   13.4670 H   0  0  0  0  0  0
   31.5795   26.6504   10.4571 H   0  0  0  0  0  0
   30.6965   27.8675   11.4398 H   0  0  0  0  0  0
   32.8391   29.0231   11.8201 H   0  0  0  0  0  0
   33.6100   27.8629   10.6859 H   0  0  0  0  0  0
   30.1947   28.7553   10.3166 H   0  0  0  0  0  0
   30.4560   29.8649    8.7900 H   0  0  0  0  0  0
   29.9008   27.1011   14.0785 H   0  0  0  0  0  0
   28.6381   24.3507   13.5521 H   0  0  0  0  0  0
   28.1989   25.5023   14.8588 H   0  0  0  0  0  0
   25.4012   26.1441   11.0351 H   0  0  0  0  0  0
   22.9997   25.6328   12.3044 H   0  0  0  0  0  0
   23.9930   24.3014   11.6207 H   0  0  0  0  0  0
   23.9561   25.3811   14.4866 H   0  0  0  0  0  0
   23.7138   23.6866   13.9421 H   0  0  0  0  0  0
   26.0512   23.4896   13.2069 H   0  0  0  0  0  0
   26.2226   24.4590   14.7094 H   0  0  0  0  0  0
   24.5034   30.3017   11.8987 H   0  0  0  0  0  0
   21.7924   29.6905   10.5896 H   0  0  0  0  0  0
   22.9141   31.0485   10.2369 H   0  0  0  0  0  0
   22.8802   29.0425    8.5474 H   0  0  0  0  0  0
   24.4736   29.6250    9.1376 H   0  0  0  0  0  0
   24.5894   27.2524    9.7472 H   0  0  0  0  0  0
   22.8429   27.1959   10.1631 H   0  0  0  0  0  0
   21.9126   27.9956   12.5566 H   0  0  0  0  0  0
   21.3714   29.6406   15.0915 H   0  0  0  0  0  0
   19.2040   28.4183   13.2777 H   0  0  0  0  0  0
   18.9267   29.3060   14.8145 H   0  0  0  0  0  0
   19.3325   31.7622   14.9066 H   0  0  0  0  0  0
   19.5128   29.5708   11.2245 H   0  0  0  0  0  0
   19.0818   33.8797   13.6358 H   0  0  0  0  0  0
   19.2737   31.6850    9.9482 H   0  0  0  0  0  0
   18.9062   35.0365   11.5424 H   0  0  0  0  0  0
   21.5527   25.4485   16.5522 H   0  0  0  0  0  0
   19.9737   25.4170   18.8127 H   0  0  0  0  0  0
   21.5385   26.2984   18.7775 H   0  0  0  0  0  0
   18.7207   27.3799   18.2553 H   0  0  0  0  0  0
   19.9419   27.9922   19.4218 H   0  0  0  0  0  0
   21.4209   28.7721   17.6089 H   0  0  0  0  0  0
   19.7997   29.1658   16.9431 H   0  0  0  0  0  0
   18.4717   26.8800   15.8521 H   0  0  0  0  0  0
   17.4960   24.0234   15.3211 H   0  0  0  0  0  0
   15.8323   26.5325   16.0550 H   0  0  0  0  0  0
   17.0026   25.4900   18.0124 H   0  0  0  0  0  0
   14.6628   25.0153   14.4154 H   0  0  0  0  0  0
   13.8919   24.9971   16.0378 H   0  0  0  0  0  0
   14.9485   23.6360   15.5301 H   0  0  0  0  0  0
   16.4335   23.6338   13.2423 H   0  0  0  0  0  0
   17.3141   25.6778   11.3360 H   0  0  0  0  0  0
   17.0920   23.1962   10.7942 H   0  0  0  0  0  0
   15.3075   23.4009   10.8061 H   0  0  0  0  0  0
   14.1737   24.3453    8.8919 H   0  0  0  0  0  0
   18.4495   24.4781    9.1254 H   0  0  0  0  0  0
   14.2799   25.2356    6.5590 H   0  0  0  0  0  0
   18.5617   25.3659    6.8276 H   0  0  0  0  0  0
   15.6073   26.0386    4.6930 H   0  0  0  0  0  0
   13.7598   28.3938   11.5695 H   0  0  0  0  0  0
   14.6864   28.7357    8.6494 H   0  0  0  0  0  0
   14.0630   29.9993    9.7634 H   0  0  0  0  0  0
   16.6844   29.8305    9.5576 H   0  0  0  0  0  0
   15.9901   29.8144   11.2142 H   0  0  0  0  0  0
   17.2450   27.7085   11.2624 H   0  0  0  0  0  0
   16.9390   27.3933    9.5207 H   0  0  0  0  0  0
   11.7299   27.9027   11.5816 H   0  0  0  0  0  0
    9.7448   27.3100   10.2636 H   0  0  0  0  0  0
   10.7689   26.5207    9.0166 H   0  0  0  0  0  0
   12.3074   25.3334   11.6256 H   0  0  0  0  0  0
   10.5852   22.8928   11.4636 H   0  0  0  0  0  0
    9.6752   25.1177   14.8293 H   0  0  0  0  0  0
   13.0307   22.6650   11.6129 H   0  0  0  0  0  0
   13.0409   23.5294   13.1874 H   0  0  0  0  0  0
   11.7864   20.3908   11.5093 H   0  0  0  0  0  0
   12.7851   22.3305   15.2098 H   0  0  0  0  0  0
   11.5292   18.2346   12.7167 H   0  0  0  0  0  0
   12.5181   20.1844   16.4076 H   0  0  0  0  0  0
   11.6027   16.9737   14.7627 H   0  0  0  0  0  0
  1  2  1  0  0  0
  1104  1  0  0  0
  1105  1  0  0  0
  1106  1  0  0  0
  2  3  1  0  0  0
  2  5  1  0  0  0
  2107  1  0  0  0
  3  4  2  0  0  0
  3 10  1  0  0  0
  5  6  1  0  0  0
  5108  1  0  0  0
  5109  1  0  0  0
  6  7  1  0  0  0
  6110  1  0  0  0
  6111  1  0  0  0
  7  8  2  0  0  0
  7  9  1  0  0  0
  9112  1  0  0  0
  9113  1  0  0  0
 10 11  1  0  0  0
 10114  1  0  0  0
 11 12  1  0  0  0
 11 14  1  0  0  0
 11115  1  0  0  0
 12 13  2  0  0  0
 12 15  1  0  0  0
 14116  1  0  0  0
 14117  1  0  0  0
 14118  1  0  0  0
 15 16  1  0  0  0
 15119  1  0  0  0
 16 17  1  0  0  0
 16 19  1  0  0  0
 16120  1  0  0  0
 17 18  2  0  0  0
 17 24  1  0  0  0
 19 20  1  0  0  0
 19121  1  0  0  0
 19122  1  0  0  0
 20 21  1  0  0  0
 20123  1  0  0  0
 20124  1  0  0  0
 21 22  2  0  0  0
 21 23  1  0  0  0
 23125  1  0  0  0
 23126  1  0  0  0
 24 25  1  0  0  0
 24127  1  0  0  0
 25 26  1  0  0  0
 25128  1  0  0  0
 25129  1  0  0  0
 26 27  2  0  0  0
 26 28  1  0  0  0
 28 29  1  0  0  0
 28 34  1  0  0  0
 29 30  1  0  0  0
 29 32  1  0  0  0
 29130  1  0  0  0
 30 31  2  0  0  0
 30 35  1  0  0  0
 32 33  1  0  0  0
 32131  1  0  0  0
 32132  1  0  0  0
 33 34  1  0  0  0
 33133  1  0  0  0
 33134  1  0  0  0
 34135  1  0  0  0
 34136  1  0  0  0
 35 36  1  0  0  0
 35 41  1  0  0  0
 36 37  1  0  0  0
 36 39  1  0  0  0
 36137  1  0  0  0
 37 38  2  0  0  0
 37 42  1  0  0  0
 39 40  1  0  0  0
 39138  1  0  0  0
 39139  1  0  0  0
 40 41  1  0  0  0
 40140  1  0  0  0
 40141  1  0  0  0
 41142  1  0  0  0
 41143  1  0  0  0
 42 43  1  0  0  0
 42144  1  0  0  0
 43 44  1  0  0  0
 43 46  1  0  0  0
 43145  1  0  0  0
 44 45  2  0  0  0
 44 54  1  0  0  0
 46 47  1  0  0  0
 46146  1  0  0  0
 46147  1  0  0  0
 47 48  2  0  0  0
 47 49  1  0  0  0
 48 50  1  0  0  0
 48148  1  0  0  0
 49 51  2  0  0  0
 49149  1  0  0  0
 50 52  2  0  0  0
 50150  1  0  0  0
 51 52  1  0  0  0
 51151  1  0  0  0
 52 53  1  0  0  0
 53152  1  0  0  0
 54 55  1  0  0  0
 54 60  1  0  0  0
 55 56  1  0  0  0
 55 58  1  0  0  0
 55153  1  0  0  0
 56 57  2  0  0  0
 56 61  1  0  0  0
 58 59  1  0  0  0
 58154  1  0  0  0
 58155  1  0  0  0
 59 60  1  0  0  0
 59156  1  0  0  0
 59157  1  0  0  0
 60158  1  0  0  0
 60159  1  0  0  0
 61 62  1  0  0  0
 61160  1  0  0  0
 62 63  1  0  0  0
 62 65  1  0  0  0
 62161  1  0  0  0
 63 64  2  0  0  0
 63 68  1  0  0  0
 65 66  1  0  0  0
 65 67  1  0  0  0
 65162  1  0  0  0
 66163  1  0  0  0
 67164  1  0  0  0
 67165  1  0  0  0
 67166  1  0  0  0
 68 69  1  0  0  0
 68167  1  0  0  0
 69 70  1  0  0  0
 69 72  1  0  0  0
 69168  1  0  0  0
 70 71  2  0  0  0
 70 80  1  0  0  0
 72 73  1  0  0  0
 72169  1  0  0  0
 72170  1  0  0  0
 73 74  2  0  0  0
 73 75  1  0  0  0
 74 76  1  0  0  0
 74171  1  0  0  0
 75 77  2  0  0  0
 75172  1  0  0  0
 76 78  2  0  0  0
 76173  1  0  0  0
 77 78  1  0  0  0
 77174  1  0  0  0
 78 79  1  0  0  0
 79175  1  0  0  0
 80 81  1  0  0  0
 80 86  1  0  0  0
 81 82  1  0  0  0
 81 84  1  0  0  0
 81176  1  0  0  0
 82 83  2  0  0  0
 82 87  1  0  0  0
 84 85  1  0  0  0
 84177  1  0  0  0
 84178  1  0  0  0
 85 86  1  0  0  0
 85179  1  0  0  0
 85180  1  0  0  0
 86181  1  0  0  0
 86182  1  0  0  0
 87 88  1  0  0  0
 87183  1  0  0  0
 88 89  1  0  0  0
 88184  1  0  0  0
 88185  1  0  0  0
 89 90  2  0  0  0
 89 91  1  0  0  0
 91 92  1  0  0  0
 91186  1  0  0  0
 92 93  1  0  0  0
 92 95  1  0  0  0
 92187  1  0  0  0
 93 94  1  0  0  0
 93103  2  0  0  0
 94188  1  0  0  0
 95 96  1  0  0  0
 95189  1  0  0  0
 95190  1  0  0  0
 96 97  2  0  0  0
 96 98  1  0  0  0
 97 99  1  0  0  0
 97191  1  0  0  0
 98100  2  0  0  0
 98192  1  0  0  0
 99101  2  0  0  0
 99193  1  0  0  0
100101  1  0  0  0
100194  1  0  0  0
101102  1  0  0  0
102195  1  0  0  0
M  CHG  1   1   1
M  END
> <s_m_source_file>
../3e1r_ligand.sdf

> <i_m_source_file_index>
1

> <s_epik_input>
Tz1DKFtOSDJdKVtDSDJdW0NIMl1bQ0BIXShbTkgzK10pQyg9TylbTkhdW0NAQEhdKFtDSDNdKUMoPU8pW05IXVtDQEBIXShbQ0gyXVtDSDJdQyg9TylbTkgyXSlDKD1PKVtOSF1bQ0gyXUMoPU8pTjFbQ0BASF0oW0NIMl1bQ0gyXVtDSDJdMSlDKD1PKU4yW0NAQEhdKFtDSDJdW0NIMl1bQ0gyXTIpQyg9TylbTkhdW0NAQEhdKFtDSDJdYzNbY0hdW2NIXWMoW09IXSlbY0hdW2NIXTMpQyg9TylONFtDQEBIXShbQ0gyXVtDSDJdW0NIMl00KUMoPU8pW05IXVtDQEBIXShbQ0BIXShbT0hdKVtDSDNdKUMoPU8pW05IXVtDQEBIXShbQ0gyXWM1W2NIXVtjSF1jKFtPSF0pW2NIXVtjSF01KUMoPU8pTjZbQ0BASF0oW0NIMl1bQ0gyXVtDSDJdNilDKD1PKVtOSF1bQ0gyXUMoPU8pW05IXVtDQEhdKEMoPU8pW09IXSlbQ0gyXWM3W2NIXVtjSF1jKFtPSF0pW2NIXVtjSF03

> <s_epik_cmdline>
J2VwaWtfYXBwJywgJy1pbWFlJywgJ2xpZ2FuZF9wcm8ubWFlJywgJy1vbWFlJywgJ2xpZ2FuZF9wcmVwLm1hZScsICctbXMnLCAnMScsICctcGgnLCAnNycsICctcGh0JywgJzAuNScsICctbnQn

> <s_epik_pKa_notes>
Molecule size exceeds maximum supported for generating protonation states

$$$$
