3e2m_ligand
                    3D
 Schrodinger Suite 2020-3.
 70 73  0  0  1  0            999 V2000
  -15.2150   18.5650  -30.7360 O   0  0  0  0  0  0
  -18.5060   14.7740  -30.1670 C   0  0  0  0  0  0
  -18.7300   16.2140  -29.8090 C   0  0  0  0  0  0
  -18.1690   17.2140  -30.5850 C   0  0  0  0  0  0
  -16.6120   18.2240  -32.6390 C   0  0  0  0  0  0
  -15.6590   18.9700  -31.9680 C   0  0  0  0  0  0
  -13.9570   19.0240  -30.2450 C   0  0  0  0  0  0
  -19.6210   14.0950  -29.9750 F   0  0  0  0  0  0
  -18.1500   14.6860  -31.4340 F   0  0  0  0  0  0
  -17.5500   14.2760  -29.4050 F   0  0  0  0  0  0
  -17.2300   16.8100  -31.9370 S   0  0  0  0  0  0
  -17.0640   18.6330  -33.8880 C   0  0  0  0  0  0
  -16.5580   19.7920  -34.4650 C   0  0  0  0  0  0
  -15.6010   20.5410  -33.7910 C   0  0  0  0  0  0
  -15.1510   20.1300  -32.5420 C   0  0  0  0  0  0
  -13.8510   18.7180  -28.7560 C   0  0  1  0  0  0
  -12.9120   19.7210  -28.0970 C   0  0  0  0  0  0
  -13.4620   21.1380  -28.2060 C   0  0  0  0  0  0
  -14.8420   21.2380  -27.5670 C   0  0  1  0  0  0
  -15.3920   22.6550  -27.6760 C   0  0  0  0  0  0
  -15.3720   23.3360  -28.9350 O   0  0  0  0  0  0
  -15.9880   23.2810  -26.5340 O   0  5  0  0  0  0
  -15.7810   20.2350  -28.2260 C   0  0  0  0  0  0
  -15.2310   18.8180  -28.1170 C   0  0  0  0  0  0
  -18.3760   18.5480  -30.2550 C   0  0  0  0  0  0
  -19.1470   18.8750  -29.1460 C   0  0  0  0  0  0
  -19.7080   17.8670  -28.3710 C   0  0  0  0  0  0
  -19.4980   16.5400  -28.7040 C   0  0  0  0  0  0
  -20.1040   15.4530  -27.8670 C   0  0  0  0  0  0
  -20.4280   15.9390  -26.6830 F   0  0  0  0  0  0
  -21.1860   14.9900  -28.4640 F   0  0  0  0  0  0
  -19.2310   14.4750  -27.7170 F   0  0  0  0  0  0
  -20.5290   18.2120  -27.1890 C   0  0  0  0  0  0
  -21.0140   19.4420  -27.0520 C   0  0  0  0  0  0
  -21.8320   19.7840  -25.8730 C   0  0  0  0  0  0
  -22.4280   18.9140  -25.2600 O   0  0  0  0  0  0
  -21.8760   21.0700  -25.5330 N   0  0  0  0  0  0
  -22.7660   21.5710  -24.4970 C   0  0  0  0  0  0
  -23.6730   22.5700  -25.2060 C   0  0  0  0  0  0
  -22.8780   23.5850  -25.8140 O   0  0  0  0  0  0
  -22.0120   23.0520  -26.8140 C   0  0  0  0  0  0
  -21.0370   22.0720  -26.1720 C   0  0  0  0  0  0
  -13.1449   18.5132  -30.7832 H   0  0  0  0  0  0
  -13.8756   20.1095  -30.4031 H   0  0  0  0  0  0
  -17.8153   18.0449  -34.4151 H   0  0  0  0  0  0
  -16.9114   20.1129  -35.4449 H   0  0  0  0  0  0
  -15.2035   21.4504  -34.2417 H   0  0  0  0  0  0
  -14.4002   20.7167  -32.0127 H   0  0  0  0  0  0
  -13.4560   17.7007  -28.6181 H   0  0  0  0  0  0
  -12.7950   19.4692  -27.0326 H   0  0  0  0  0  0
  -11.9305   19.6847  -28.5924 H   0  0  0  0  0  0
  -12.7837   21.8351  -27.6922 H   0  0  0  0  0  0
  -13.5427   21.4195  -29.2663 H   0  0  0  0  0  0
  -14.7591   20.9991  -26.4965 H   0  0  0  0  0  0
  -16.7624   20.2713  -27.7306 H   0  0  0  0  0  0
  -15.8980   20.4868  -29.2904 H   0  0  0  0  0  0
  -15.9220   18.1309  -28.6273 H   0  0  0  0  0  0
  -15.1630   18.5466  -27.0532 H   0  0  0  0  0  0
  -17.9345   19.3362  -30.8648 H   0  0  0  0  0  0
  -19.3115   19.9203  -28.8844 H   0  0  0  0  0  0
  -20.7378   17.4500  -26.4236 H   0  0  0  0  0  0
  -20.8053   20.2039  -27.8174 H   0  0  0  0  0  0
  -23.3387   20.7347  -24.0697 H   0  0  0  0  0  0
  -22.1729   22.0518  -23.7051 H   0  0  0  0  0  0
  -24.2577   22.0499  -25.9790 H   0  0  0  0  0  0
  -24.3562   23.0277  -24.4754 H   0  0  0  0  0  0
  -22.6093   22.5292  -27.5755 H   0  0  0  0  0  0
  -21.4504   23.8710  -27.2872 H   0  0  0  0  0  0
  -20.4091   22.5623  -25.4135 H   0  0  0  0  0  0
  -20.3947   21.5880  -26.9225 H   0  0  0  0  0  0
  1  6  1  0  0  0
  1  7  1  0  0  0
  2  3  1  0  0  0
  2  8  1  0  0  0
  2  9  1  0  0  0
  2 10  1  0  0  0
  3  4  2  0  0  0
  3 28  1  0  0  0
  4 11  1  0  0  0
  4 25  1  0  0  0
  5  6  2  0  0  0
  5 11  1  0  0  0
  5 12  1  0  0  0
  6 15  1  0  0  0
  7 16  1  0  0  0
  7 43  1  0  0  0
  7 44  1  0  0  0
 12 13  2  0  0  0
 12 45  1  0  0  0
 13 14  1  0  0  0
 13 46  1  0  0  0
 14 15  2  0  0  0
 14 47  1  0  0  0
 15 48  1  0  0  0
 16 17  1  0  0  0
 16 24  1  0  0  0
 16 49  1  0  0  0
 17 18  1  0  0  0
 17 50  1  0  0  0
 17 51  1  0  0  0
 18 19  1  0  0  0
 18 52  1  0  0  0
 18 53  1  0  0  0
 19 20  1  0  0  0
 19 23  1  0  0  0
 19 54  1  0  0  0
 20 21  2  0  0  0
 20 22  1  0  0  0
 23 24  1  0  0  0
 23 55  1  0  0  0
 23 56  1  0  0  0
 24 57  1  0  0  0
 24 58  1  0  0  0
 25 26  2  0  0  0
 25 59  1  0  0  0
 26 27  1  0  0  0
 26 60  1  0  0  0
 27 28  2  0  0  0
 27 33  1  0  0  0
 28 29  1  0  0  0
 29 30  1  0  0  0
 29 31  1  0  0  0
 29 32  1  0  0  0
 33 34  2  0  0  0
 33 61  1  0  0  0
 34 35  1  0  0  0
 34 62  1  0  0  0
 35 36  2  0  0  0
 35 37  1  0  0  0
 37 38  1  0  0  0
 37 42  1  0  0  0
 38 39  1  0  0  0
 38 63  1  0  0  0
 38 64  1  0  0  0
 39 40  1  0  0  0
 39 65  1  0  0  0
 39 66  1  0  0  0
 40 41  1  0  0  0
 41 42  1  0  0  0
 41 67  1  0  0  0
 41 68  1  0  0  0
 42 69  1  0  0  0
 42 70  1  0  0  0
M  CHG  1  22  -1
M  END
> <s_m_source_file>
../3e2m_ligand.sdf

> <i_m_source_file_index>
1

> <s_epik_input>
Tz1DKFtPSF0pW0NAQEhdKFtDSDJdW0NIMl0xKVtDSDJdW0NIMl1bQ0BASF0xW0NIMl1PYyhbY0hdW2NIXVtjSF1bY0hdMiljMlNjKGMzQyhGKShGKUYpW2NIXVtjSF1jKGMzQyhGKShGKUYpL1tDSF09W0NIXS9DKD1PKU40W0NIMl1bQ0gyXU9bQ0gyXVtDSDJdNA==

> <s_epik_cmdline>
J2VwaWtfYXBwJywgJy1pbWFlJywgJ2xpZ2FuZF9wcm8ubWFlJywgJy1vbWFlJywgJ2xpZ2FuZF9wcmVwLm1hZScsICctbXMnLCAnMScsICctcGgnLCAnNycsICctcGh0JywgJzAuNScsICctbnQn

> <r_lp_tautomer_probability>
1

> <r_epik_Ionization_Penalty>
  0.0035

> <r_epik_Ionization_Penalty_Charging>
  0.0035

> <r_epik_Ionization_Penalty_Neutral>
  0.0000

> <r_epik_State_Penalty>
 -0.0000

> <r_epik_Charging_Adjusted_Penalty>
0.00348157233620224

> <i_epik_Tot_Q>
-1

> <i_epik_Tot_abs_Q>
1

$$$$
