3e37_ligand
                    3D
 Schrodinger Suite 2020-3.
 86 89  0  0  1  0            999 V2000
   17.0440  -77.3730    8.6050 O   0  0  0  0  0  0
   16.7930  -77.3680    7.4020 C   0  0  0  0  0  0
   15.7560  -78.2360    6.9230 O   0  0  0  0  0  0
   14.8910  -78.9940    7.7630 C   0  0  0  0  0  0
   15.6230  -80.0750    8.5430 C   0  0  0  0  0  0
   14.2790  -78.0370    8.7600 C   0  0  0  0  0  0
   13.8700  -79.6580    6.8510 C   0  0  0  0  0  0
   17.4020  -76.6650    6.5400 N   0  0  0  0  0  0
   18.4950  -75.7700    6.8760 C   0  0  0  0  0  0
   17.9820  -74.3610    6.6500 C   0  0  0  0  0  0
   17.0520  -76.6730    5.1200 C   0  0  0  0  0  0
   16.4070  -75.2970    4.9070 C   0  0  0  0  0  0
   17.3590  -74.1500    5.2770 C   0  0  0  0  0  0
   16.6010  -72.8410    5.4660 C   0  0  0  0  0  0
   16.3410  -72.0010    4.2810 N   0  0  2  0  0  0
   14.7260  -71.7450    4.0960 S   0  0  0  0  0  0
   14.3880  -71.4650    2.6720 O   0  0  0  0  0  0
   14.4850  -70.5320    4.9220 O   0  0  0  0  0  0
   13.7710  -72.9140    4.6940 C   0  0  0  0  0  0
   13.3070  -72.7860    6.0050 C   0  0  0  0  0  0
   12.4980  -73.7600    6.5800 C   0  0  0  0  0  0
   12.1330  -74.8800    5.8470 C   0  0  0  0  0  0
   12.5820  -75.0100    4.5390 C   0  0  0  0  0  0
   13.3790  -74.0300    3.9620 C   0  0  0  0  0  0
   13.8310  -74.2130    2.5450 C   0  0  0  0  0  0
   17.1660  -72.2250    3.0520 C   0  0  0  0  0  0
   18.2370  -71.1160    2.9750 C   0  0  0  0  0  0
   18.7890  -71.0490    1.6040 N   0  0  0  0  0  0
   20.0570  -71.6280    1.3800 C   0  0  0  0  0  0
   20.7670  -71.3190    0.2180 C   0  0  0  0  0  0
   21.9950  -71.9240   -0.0390 C   0  0  0  0  0  0
   20.5650  -72.5820    2.2640 C   0  0  0  0  0  0
   21.7930  -73.1800    2.0090 C   0  0  0  0  0  0
   22.5110  -72.8530    0.8660 C   0  0  0  0  0  0
   23.6390  -73.4400    0.6460 C   0  0  0  0  0  0
   24.6380  -74.0110    0.4590 N   0  0  0  0  0  0
   18.5240  -69.8630    0.8450 C   0  0  0  0  0  0
   17.7780  -70.1310   -0.4260 C   0  0  0  0  0  0
   17.4070  -71.4150   -0.7860 C   0  0  0  0  0  0
   16.7770  -71.2240   -1.9710 N   0  3  0  0  0  0
   16.7670  -69.8960   -2.2880 C   0  0  0  0  0  0
   17.3980  -69.2110   -1.3190 N   0  0  0  0  0  0
   17.6120  -67.7410   -1.2710 C   0  0  0  0  0  0
   16.3654  -79.6087    9.2074 H   0  0  0  0  0  0
   16.1327  -80.7518    7.8415 H   0  0  0  0  0  0
   14.9004  -80.6463    9.1442 H   0  0  0  0  0  0
   15.0731  -77.5976    9.3815 H   0  0  0  0  0  0
   13.5694  -78.5801    9.4015 H   0  0  0  0  0  0
   13.7491  -77.2369    8.2225 H   0  0  0  0  0  0
   14.3859  -80.3370    6.1561 H   0  0  0  0  0  0
   13.3328  -78.8869    6.2793 H   0  0  0  0  0  0
   13.1532  -80.2301    7.4583 H   0  0  0  0  0  0
   18.7819  -75.9202    7.9272 H   0  0  0  0  0  0
   19.3568  -75.9837    6.2266 H   0  0  0  0  0  0
   17.2112  -74.1269    7.3990 H   0  0  0  0  0  0
   18.8143  -73.6481    6.7452 H   0  0  0  0  0  0
   17.9631  -76.8075    4.5186 H   0  0  0  0  0  0
   16.3546  -77.4995    4.9189 H   0  0  0  0  0  0
   16.1275  -75.1829    3.8492 H   0  0  0  0  0  0
   15.5079  -75.2123    5.5350 H   0  0  0  0  0  0
   18.0999  -74.1166    4.4646 H   0  0  0  0  0  0
   15.6060  -73.0508    5.8855 H   0  0  0  0  0  0
   17.1595  -72.1900    6.1548 H   0  0  0  0  0  0
   13.5838  -71.9074    6.5876 H   0  0  0  0  0  0
   12.1506  -73.6435    7.6066 H   0  0  0  0  0  0
   11.5014  -75.6487    6.2923 H   0  0  0  0  0  0
   12.3058  -75.8907    3.9592 H   0  0  0  0  0  0
   14.4489  -73.3544    2.2435 H   0  0  0  0  0  0
   12.9529  -74.2822    1.8861 H   0  0  0  0  0  0
   14.4229  -75.1367    2.4654 H   0  0  0  0  0  0
   17.6493  -73.2114    3.1096 H   0  0  0  0  0  0
   16.5187  -72.1852    2.1635 H   0  0  0  0  0  0
   17.7818  -70.1482    3.2322 H   0  0  0  0  0  0
   19.0480  -71.3396    3.6837 H   0  0  0  0  0  0
   20.3579  -70.6002   -0.4920 H   0  0  0  0  0  0
   22.5505  -71.6731   -0.9427 H   0  0  0  0  0  0
   19.9986  -72.8574    3.1536 H   0  0  0  0  0  0
   22.1955  -73.9106    2.7107 H   0  0  0  0  0  0
   17.9173  -69.1704    1.4469 H   0  0  0  0  0  0
   19.4748  -69.3792    0.5767 H   0  0  0  0  0  0
   17.5788  -72.3482   -0.2497 H   0  0  0  0  0  0
   16.3197  -69.4617   -3.1821 H   0  0  0  0  0  0
   18.1601  -67.4800   -0.3536 H   0  0  0  0  0  0
   16.6387  -67.2285   -1.2750 H   0  0  0  0  0  0
   18.1956  -67.4266   -2.1488 H   0  0  0  0  0  0
   16.3669  -72.0840   -2.5208 H   0  0  0  0  0  0
  1  2  2  0  0  0
  2  3  1  0  0  0
  2  8  1  0  0  0
  3  4  1  0  0  0
  4  5  1  0  0  0
  4  6  1  0  0  0
  4  7  1  0  0  0
  5 44  1  0  0  0
  5 45  1  0  0  0
  5 46  1  0  0  0
  6 47  1  0  0  0
  6 48  1  0  0  0
  6 49  1  0  0  0
  7 50  1  0  0  0
  7 51  1  0  0  0
  7 52  1  0  0  0
  8  9  1  0  0  0
  8 11  1  0  0  0
  9 10  1  0  0  0
  9 53  1  0  0  0
  9 54  1  0  0  0
 10 13  1  0  0  0
 10 55  1  0  0  0
 10 56  1  0  0  0
 11 12  1  0  0  0
 11 57  1  0  0  0
 11 58  1  0  0  0
 12 13  1  0  0  0
 12 59  1  0  0  0
 12 60  1  0  0  0
 13 14  1  0  0  0
 13 61  1  0  0  0
 14 15  1  0  0  0
 14 62  1  0  0  0
 14 63  1  0  0  0
 15 16  1  0  0  0
 15 26  1  0  0  0
 16 17  2  0  0  0
 16 18  2  0  0  0
 16 19  1  0  0  0
 19 20  2  0  0  0
 19 24  1  0  0  0
 20 21  1  0  0  0
 20 64  1  0  0  0
 21 22  2  0  0  0
 21 65  1  0  0  0
 22 23  1  0  0  0
 22 66  1  0  0  0
 23 24  2  0  0  0
 23 67  1  0  0  0
 24 25  1  0  0  0
 25 68  1  0  0  0
 25 69  1  0  0  0
 25 70  1  0  0  0
 26 27  1  0  0  0
 26 71  1  0  0  0
 26 72  1  0  0  0
 27 28  1  0  0  0
 27 73  1  0  0  0
 27 74  1  0  0  0
 28 29  1  0  0  0
 28 37  1  0  0  0
 29 30  2  0  0  0
 29 32  1  0  0  0
 30 31  1  0  0  0
 30 75  1  0  0  0
 31 34  2  0  0  0
 31 76  1  0  0  0
 32 33  2  0  0  0
 32 77  1  0  0  0
 33 34  1  0  0  0
 33 78  1  0  0  0
 34 35  1  0  0  0
 35 36  3  0  0  0
 37 38  1  0  0  0
 37 79  1  0  0  0
 37 80  1  0  0  0
 38 39  2  0  0  0
 38 42  1  0  0  0
 39 40  1  0  0  0
 39 81  1  0  0  0
 40 41  2  0  0  0
 40 86  1  0  0  0
 41 42  1  0  0  0
 41 82  1  0  0  0
 42 43  1  0  0  0
 43 83  1  0  0  0
 43 84  1  0  0  0
 43 85  1  0  0  0
M  CHG  1  40   1
M  END
> <s_m_source_file>
../3e37_ligand.sdf

> <i_m_source_file_index>
1

> <s_epik_input>
W0NIM11DKFtDSDNdKShbQ0gzXSlPQyg9TylOMVtDSDJdW0NIMl1bQ0hdKFtDSDJdW0NIMl0xKVtDSDJdTihTKD1PKSg9TyljMltjSF1bY0hdW2NIXVtjSF1jMltDSDNdKVtDSDJdW0NIMl1OKGMzW2NIXVtjSF1jKEMjTilbY0hdW2NIXTMpW0NIMl1jNFtjSF1uW2NIXW40W0NIM10=

> <s_epik_cmdline>
J2VwaWtfYXBwJywgJy1pbWFlJywgJ2xpZ2FuZF9wcm8ubWFlJywgJy1vbWFlJywgJ2xpZ2FuZF9wcmVwLm1hZScsICctbXMnLCAnMScsICctcGgnLCAnNycsICctcGh0JywgJzAuNScsICctbnQn

> <r_lp_tautomer_probability>
1

> <r_epik_Ionization_Penalty>
  0.1051

> <r_epik_Ionization_Penalty_Charging>
  0.0000

> <r_epik_Ionization_Penalty_Neutral>
  0.1051

> <r_epik_State_Penalty>
  0.0950

> <r_epik_Charging_Adjusted_Penalty>
0.0949567628539342

> <i_epik_Tot_Q>
1

> <i_epik_Tot_abs_Q>
1

> <s_epik_Chemistry_Notes>
This compound has an ester and may undergo hydrolysis at high or low pH.

$$$$
