3e3b_ligand
                    3D
 Schrodinger Suite 2020-3.
 47 50  0  0  1  0            999 V2000
  -24.5950   26.2430  -17.4690 N   0  0  0  0  0  0
  -24.9520   26.0670  -18.7360 C   0  0  0  0  0  0
  -25.8320   25.0290  -19.0460 C   0  0  0  0  0  0
  -26.3060   24.2390  -18.0770 N   0  0  0  0  0  0
  -25.9330   24.4470  -16.8370 C   0  0  0  0  0  0
  -25.0450   25.4720  -16.4930 C   0  0  0  0  0  0
  -26.2300   24.7880  -20.3010 N   0  0  0  0  0  0
  -26.4090   23.6530  -15.9480 N   0  0  0  0  0  0
  -26.8930   23.6610  -20.7010 C   0  0  0  0  0  0
  -27.3680   23.8630  -22.0180 C   0  0  0  0  0  0
  -26.8810   25.1810  -22.2890 C   0  0  0  0  0  0
  -26.1360   25.6140  -21.2340 N   0  0  0  0  0  0
  -27.1800   22.4520  -16.0950 C   0  0  0  0  0  0
  -27.3730   21.7560  -14.8950 C   0  0  0  0  0  0
  -26.5940   22.4160  -13.9150 C   0  0  0  0  0  0
  -26.1550   23.5900  -14.5260 C   0  0  0  0  0  0
  -28.1200   22.9210  -22.7500 C   0  0  0  0  0  0
  -28.3730   21.7040  -22.0690 C   0  0  0  0  0  0
  -27.8980   21.4540  -20.7440 C   0  0  0  0  0  0
  -27.1550   22.4360  -20.0460 C   0  0  0  0  0  0
  -28.1840   20.2220  -20.1880 N   0  0  0  0  0  0
  -28.6280   19.9080  -18.8200 C   0  0  0  0  0  0
  -29.3950   18.6080  -18.8340 C   0  0  0  0  0  0
  -29.6620   20.8830  -18.3420 C   0  0  0  0  0  0
  -28.2700   20.5610  -14.6890 C   0  0  0  0  0  0
  -27.8430   19.5900  -13.5940 C   0  0  0  0  0  0
  -28.6620   18.7210  -13.2910 O   0  0  0  0  0  0
  -26.7330   19.6770  -13.0540 O   0  5  0  0  0  0
  -24.5654   26.7202  -19.5183 H   0  0  0  0  0  0
  -24.7357   25.6292  -15.4597 H   0  0  0  0  0  0
  -27.0759   25.7499  -23.1981 H   0  0  0  0  0  0
  -27.5783   22.1129  -17.0513 H   0  0  0  0  0  0
  -26.3825   22.0789  -12.9002 H   0  0  0  0  0  0
  -25.6618   24.3927  -13.9778 H   0  0  0  0  0  0
  -28.4788   23.1139  -23.7610 H   0  0  0  0  0  0
  -28.9510   20.9302  -22.5741 H   0  0  0  0  0  0
  -26.7955   22.2530  -19.0334 H   0  0  0  0  0  0
  -28.0401   19.4127  -20.9189 H   0  0  0  0  0  0
  -27.7126   19.9154  -18.2102 H   0  0  0  0  0  0
  -28.7348   17.7964  -19.1737 H   0  0  0  0  0  0
  -30.2514   18.6949  -19.5189 H   0  0  0  0  0  0
  -29.7578   18.3854  -17.8197 H   0  0  0  0  0  0
  -29.2200   21.8888  -18.2872 H   0  0  0  0  0  0
  -30.0155   20.5830  -17.3445 H   0  0  0  0  0  0
  -30.5091   20.8925  -19.0437 H   0  0  0  0  0  0
  -29.2800   20.9029  -14.4190 H   0  0  0  0  0  0
  -28.3178   19.9739  -15.6180 H   0  0  0  0  0  0
  1  2  2  0  0  0
  1  6  1  0  0  0
  2  3  1  0  0  0
  2 29  1  0  0  0
  3  4  2  0  0  0
  3  7  1  0  0  0
  4  5  1  0  0  0
  5  6  2  0  0  0
  5  8  1  0  0  0
  6 30  1  0  0  0
  7  9  1  0  0  0
  7 12  1  0  0  0
  8 13  1  0  0  0
  8 16  1  0  0  0
  9 10  2  0  0  0
  9 20  1  0  0  0
 10 11  1  0  0  0
 10 17  1  0  0  0
 11 12  2  0  0  0
 11 31  1  0  0  0
 13 14  2  0  0  0
 13 32  1  0  0  0
 14 15  1  0  0  0
 14 25  1  0  0  0
 15 16  2  0  0  0
 15 33  1  0  0  0
 16 34  1  0  0  0
 17 18  2  0  0  0
 17 35  1  0  0  0
 18 19  1  0  0  0
 18 36  1  0  0  0
 19 20  2  0  0  0
 19 21  1  0  0  0
 20 37  1  0  0  0
 21 22  1  0  0  0
 21 38  1  0  0  0
 22 23  1  0  0  0
 22 24  1  0  0  0
 22 39  1  0  0  0
 23 40  1  0  0  0
 23 41  1  0  0  0
 23 42  1  0  0  0
 24 43  1  0  0  0
 24 44  1  0  0  0
 24 45  1  0  0  0
 25 26  1  0  0  0
 25 46  1  0  0  0
 25 47  1  0  0  0
 26 27  2  0  0  0
 26 28  1  0  0  0
M  CHG  1  28  -1
M  END
> <s_m_source_file>
../3e3b_ligand.sdf

> <i_m_source_file_index>
1

> <s_epik_input>
Tz1DKFtPSF0pW0NIMl1jKFtjSF1bY0hdMSlbY0hdbjEtYyhuMilbY0hdbltjSF1jMi1uM25bY0hdYyhjMzQpW2NIXVtjSF1jKFtjSF00KVtOSF1bQ0hdKFtDSDNdKVtDSDNd

> <s_epik_cmdline>
J2VwaWtfYXBwJywgJy1pbWFlJywgJ2xpZ2FuZF9wcm8ubWFlJywgJy1vbWFlJywgJ2xpZ2FuZF9wcmVwLm1hZScsICctbXMnLCAnMScsICctcGgnLCAnNycsICctcGh0JywgJzAuNScsICctbnQn

> <r_lp_tautomer_probability>
1

> <r_epik_Ionization_Penalty>
  0.0014

> <r_epik_Ionization_Penalty_Charging>
  0.0011

> <r_epik_Ionization_Penalty_Neutral>
  0.0003

> <r_epik_State_Penalty>
 -0.0000

> <r_epik_Charging_Adjusted_Penalty>
0.0010668340448865

> <i_epik_Tot_Q>
-1

> <i_epik_Tot_abs_Q>
1

$$$$
