3e3c_ligand
                    3D
 Schrodinger Suite 2020-3.
 34 33  0  0  1  0            999 V2000
    4.0870   23.3010   33.3650 O   0  5  0  0  0  0
    3.7870   24.6710   32.8000 P   0  0  0  0  0  0
    4.1630   25.7980   33.7340 O   0  0  0  0  0  0
    2.3510   24.8160   32.3310 O   0  5  0  0  0  0
    4.7450   24.8130   31.5000 O   0  0  0  0  0  0
    6.1400   25.0700   31.6270 C   0  0  0  0  0  0
    6.7590   25.2070   30.2380 C   0  0  1  0  0  0
    5.8910   25.9950   29.3960 O   0  0  0  0  0  0
    8.1260   25.8690   30.3880 C   0  0  0  0  0  0
    8.7400   26.0070   29.1040 O   0  0  0  0  0  0
   10.0610   25.4640   28.7940 C   0  0  0  0  0  0
   10.7040   24.8510   29.6510 O   0  0  0  0  0  0
   10.5960   25.6880   27.3910 C   0  0  0  0  0  0
   11.9780   25.0790   27.1800 C   0  0  0  0  0  0
   13.0310   26.1750   27.1530 C   0  0  0  0  0  0
   14.0920   25.8870   26.1020 C   0  0  0  0  0  0
   15.3760   25.2960   26.6470 C   0  0  0  0  0  0
    6.2912   26.0027   32.1901 H   0  0  0  0  0  0
    6.6191   24.2369   32.1621 H   0  0  0  0  0  0
    6.8475   24.2386   29.7239 H   0  0  0  0  0  0
    4.8665   25.6524   29.1887 H   0  0  0  0  0  0
    8.0039   26.8635   30.8419 H   0  0  0  0  0  0
    8.7655   25.2479   31.0324 H   0  0  0  0  0  0
    9.9126   25.2303   26.6606 H   0  0  0  0  0  0
   10.6718   26.7678   27.1955 H   0  0  0  0  0  0
   12.2013   24.3830   28.0020 H   0  0  0  0  0  0
   11.9971   24.5354   26.2239 H   0  0  0  0  0  0
   12.5529   27.1371   26.9166 H   0  0  0  0  0  0
   13.5182   26.2397   28.1371 H   0  0  0  0  0  0
   13.6964   25.1685   25.3690 H   0  0  0  0  0  0
   14.3637   26.8216   25.5895 H   0  0  0  0  0  0
   16.0798   25.1223   25.8197 H   0  0  0  0  0  0
   15.1566   24.3417   27.1482 H   0  0  0  0  0  0
   15.8239   25.9948   27.3688 H   0  0  0  0  0  0
  1  2  1  0  0  0
  2  3  2  0  0  0
  2  4  1  0  0  0
  2  5  1  0  0  0
  5  6  1  0  0  0
  6  7  1  0  0  0
  6 18  1  0  0  0
  6 19  1  0  0  0
  7  8  1  0  0  0
  7  9  1  0  0  0
  7 20  1  0  0  0
  8 21  1  0  0  0
  9 10  1  0  0  0
  9 22  1  0  0  0
  9 23  1  0  0  0
 10 11  1  0  0  0
 11 12  2  0  0  0
 11 13  1  0  0  0
 13 14  1  0  0  0
 13 24  1  0  0  0
 13 25  1  0  0  0
 14 15  1  0  0  0
 14 26  1  0  0  0
 14 27  1  0  0  0
 15 16  1  0  0  0
 15 28  1  0  0  0
 15 29  1  0  0  0
 16 17  1  0  0  0
 16 30  1  0  0  0
 16 31  1  0  0  0
 17 32  1  0  0  0
 17 33  1  0  0  0
 17 34  1  0  0  0
M  CHG  2   1  -1   4  -1
M  END
> <s_m_source_file>
../3e3c_ligand.sdf

> <i_m_source_file_index>
1

> <s_epik_input>
W09IXVAoPU8pKFtPSF0pT1tDSDJdW0NAQEhdKFtPSF0pW0NIMl1PQyg9TylbQ0gyXVtDSDJdW0NIMl1bQ0gyXVtDSDNd

> <s_epik_cmdline>
J2VwaWtfYXBwJywgJy1pbWFlJywgJ2xpZ2FuZF9wcm8ubWFlJywgJy1vbWFlJywgJ2xpZ2FuZF9wcmVwLm1hZScsICctbXMnLCAnMScsICctcGgnLCAnNycsICctcGh0JywgJzAuNScsICctbnQn

> <r_epik_Ionization_Penalty>
  0.1128

> <r_epik_Ionization_Penalty_Charging>
  0.1128

> <r_epik_Ionization_Penalty_Neutral>
  0.0000

> <r_epik_State_Penalty>
  0.1025

> <r_epik_Charging_Adjusted_Penalty>
0.215207358443586

> <i_epik_Tot_Q>
-2

> <i_epik_Tot_abs_Q>
2

> <s_epik_Chemistry_Notes>
This compound has an ester and may undergo hydrolysis at high or low pH.

$$$$
