3e3u_ligand
                    3D
 Schrodinger Suite 2020-3.
 51 53  0  0  1  0            999 V2000
   20.3620   53.7950   15.9130 O   0  0  0  0  0  0
   20.1420   54.9940   15.9300 C   0  0  0  0  0  0
   18.7090   55.5040   15.9260 C   0  0  2  0  0  0
   17.9010   55.0910   17.1600 C   0  0  0  0  0  0
   18.5500   55.5560   18.4720 C   0  0  0  0  0  0
   17.6920   55.0610   19.6320 C   0  0  0  0  0  0
   18.3390   55.3030   20.9790 C   0  0  0  0  0  0
   18.0690   54.9230   14.6590 C   0  0  0  0  0  0
   16.7630   55.5170   14.3950 N   0  0  0  0  0  0
   16.7570   56.8320   13.9170 O   0  0  0  0  0  0
   15.7420   54.8280   14.6060 C   0  0  0  0  0  0
   14.7220   55.3890   14.5930 O   0  0  0  0  0  0
   21.1450   55.8800   15.8980 N   0  0  0  0  0  0
   22.5330   55.4080   15.8590 C   0  0  1  0  0  0
   23.3730   56.6550   15.6210 C   0  0  0  0  0  0
   22.5160   57.7680   16.2090 C   0  0  0  0  0  0
   21.0800   57.3510   15.8880 C   0  0  0  0  0  0
   22.8960   54.8620   17.1790 C   0  0  0  0  0  0
   23.7080   53.7710   17.1520 O   0  0  0  0  0  0
   23.8920   53.4720   18.5080 C   0  0  0  0  0  0
   23.2000   54.3640   19.3050 C   0  0  0  0  0  0
   22.5690   55.2210   18.4460 N   0  0  0  0  0  0
   24.6560   52.4270   19.0070 C   0  0  0  0  0  0
   24.6980   52.3110   20.3950 C   0  0  0  0  0  0
   24.0040   53.2050   21.2100 C   0  0  0  0  0  0
   23.2340   54.2420   20.6890 C   0  0  0  0  0  0
   18.7200   56.6037   15.9472 H   0  0  0  0  0  0
   16.8954   55.5334   17.1047 H   0  0  0  0  0  0
   17.8179   53.9947   17.1938 H   0  0  0  0  0  0
   19.5645   55.1376   18.5476 H   0  0  0  0  0  0
   18.6045   56.6546   18.4849 H   0  0  0  0  0  0
   16.7250   55.5853   19.6227 H   0  0  0  0  0  0
   17.5234   53.9790   19.5278 H   0  0  0  0  0  0
   17.6792   54.9280   21.7753 H   0  0  0  0  0  0
   18.5047   56.3816   21.1177 H   0  0  0  0  0  0
   19.3031   54.7752   21.0228 H   0  0  0  0  0  0
   18.7208   55.1206   13.7953 H   0  0  0  0  0  0
   17.9383   53.8374   14.7789 H   0  0  0  0  0  0
   17.7066   57.3645   13.7601 H   0  0  0  0  0  0
   15.7718   53.7452   14.7974 H   0  0  0  0  0  0
   22.6576   54.6179   15.1039 H   0  0  0  0  0  0
   24.3391   56.5501   16.1363 H   0  0  0  0  0  0
   23.5449   56.7809   14.5418 H   0  0  0  0  0  0
   22.6929   57.8333   17.2927 H   0  0  0  0  0  0
   22.7821   58.7247   15.7357 H   0  0  0  0  0  0
   20.7534   57.6968   14.8962 H   0  0  0  0  0  0
   20.3630   57.6915   16.6495 H   0  0  0  0  0  0
   25.1910   51.7384   18.3530 H   0  0  0  0  0  0
   25.2813   51.5105   20.8500 H   0  0  0  0  0  0
   24.0664   53.0881   22.2919 H   0  0  0  0  0  0
   22.6841   54.9255   21.3360 H   0  0  0  0  0  0
  1  2  2  0  0  0
  2  3  1  0  0  0
  2 13  1  0  0  0
  3  4  1  0  0  0
  3  8  1  0  0  0
  3 27  1  0  0  0
  4  5  1  0  0  0
  4 28  1  0  0  0
  4 29  1  0  0  0
  5  6  1  0  0  0
  5 30  1  0  0  0
  5 31  1  0  0  0
  6  7  1  0  0  0
  6 32  1  0  0  0
  6 33  1  0  0  0
  7 34  1  0  0  0
  7 35  1  0  0  0
  7 36  1  0  0  0
  8  9  1  0  0  0
  8 37  1  0  0  0
  8 38  1  0  0  0
  9 10  1  0  0  0
  9 11  1  0  0  0
 10 39  1  0  0  0
 11 12  2  0  0  0
 11 40  1  0  0  0
 13 14  1  0  0  0
 13 17  1  0  0  0
 14 15  1  0  0  0
 14 18  1  0  0  0
 14 41  1  0  0  0
 15 16  1  0  0  0
 15 42  1  0  0  0
 15 43  1  0  0  0
 16 17  1  0  0  0
 16 44  1  0  0  0
 16 45  1  0  0  0
 17 46  1  0  0  0
 17 47  1  0  0  0
 18 19  1  0  0  0
 18 22  2  0  0  0
 19 20  1  0  0  0
 20 21  2  0  0  0
 20 23  1  0  0  0
 21 22  1  0  0  0
 21 26  1  0  0  0
 23 24  2  0  0  0
 23 48  1  0  0  0
 24 25  1  0  0  0
 24 49  1  0  0  0
 25 26  2  0  0  0
 25 50  1  0  0  0
 26 51  1  0  0  0
M  END
> <s_m_source_file>
../3e3u_ligand.sdf

> <i_m_source_file_index>
1

> <s_epik_input>
W0NIM11bQ0gyXVtDSDJdW0NIMl1bQ0BIXShbQ0gyXU4oW09IXSlbQ0hdPU8pQyg9TylOMVtDQEBIXShbQ0gyXVtDSDJdW0NIMl0xKWMobzIpbmMoYzIzKVtjSF1bY0hdW2NIXVtjSF0z

> <s_epik_cmdline>
J2VwaWtfYXBwJywgJy1pbWFlJywgJ2xpZ2FuZF9wcm8ubWFlJywgJy1vbWFlJywgJ2xpZ2FuZF9wcmVwLm1hZScsICctbXMnLCAnMScsICctcGgnLCAnNycsICctcGh0JywgJzAuNScsICctbnQn

> <r_lp_tautomer_probability>
1

> <r_epik_Ionization_Penalty>
  0.0077

> <r_epik_Ionization_Penalty_Charging>
  0.0000

> <r_epik_Ionization_Penalty_Neutral>
  0.0077

> <r_epik_State_Penalty>
 -0.0000

> <r_epik_Charging_Adjusted_Penalty>
0

> <i_epik_Tot_Q>
0

> <i_epik_Tot_abs_Q>
0

> <s_epik_Chemistry_Notes>
This compound has a N-S or N-O group and may undergo hydrolysis at high or low pH.

$$$$
