3e4a_ligand
                    3D
 Schrodinger Suite 2020-3.
 74 75  0  0  1  0            999 V2000
  -81.0710   71.0300    4.6220 C   0  0  0  0  0  0
  -82.4480   72.3830    2.9330 C   0  0  0  0  0  0
  -80.4880   73.6470    6.6630 C   0  0  0  0  0  0
  -79.8130   73.6030    7.9260 C   0  0  0  0  0  0
  -78.3740   73.6520    7.8800 C   0  0  0  0  0  0
  -76.3020   73.6570    9.2580 C   0  0  0  0  0  0
  -76.2450   73.7380    6.6110 C   0  0  0  0  0  0
  -78.3910   73.7670    5.2080 C   0  0  0  0  0  0
  -85.5020   61.9620    3.2000 O   0  0  0  0  0  0
  -84.8390   62.9240    3.5300 C   0  0  0  0  0  0
  -84.8120   64.0670    2.5640 N   0  0  0  0  0  0
  -84.3350   63.0460    5.0360 C   0  0  0  0  0  0
  -83.4730   64.2520    5.2850 N   0  0  0  0  0  0
  -83.9720   65.5110    5.9790 C   0  0  0  0  0  0
  -84.8020   65.6660    6.8990 O   0  0  0  0  0  0
  -83.6630   66.7630    5.1330 C   0  0  0  0  0  0
  -82.5280   67.4680    5.7410 N   0  0  0  0  0  0
  -82.9640   68.7720    6.2190 C   0  0  0  0  0  0
  -84.1130   69.0180    6.0330 O   0  0  0  0  0  0
  -81.9670   69.8220    6.7410 C   0  0  2  0  0  0
  -82.4390   70.4340    8.1010 C   0  0  0  0  0  0
  -81.9420   69.5530    9.2820 C   0  0  0  0  0  0
  -81.6760   70.4060   10.5690 C   0  0  0  0  0  0
  -80.3300   70.0580   11.1120 N   0  0  0  0  0  0
  -80.2480   69.9920   12.5970 C   0  0  0  0  0  0
  -80.8230   68.7790   13.2730 N   0  0  0  0  0  0
  -79.5760   70.9000   13.2330 N   0  3  0  0  0  0
  -82.0160   70.9050    5.7430 N   0  0  0  0  0  0
  -80.2710   70.1740    4.3700 O   0  0  0  0  0  0
  -81.0920   72.2900    3.7020 C   0  0  1  0  0  0
  -82.3340   71.9210    1.4630 C   0  0  0  0  0  0
  -82.3760   72.9930    0.5080 N   0  0  0  0  0  0
  -81.6720   72.8910   -0.6890 O   0  0  0  0  0  0
  -81.7330   70.9380    1.1830 O   0  0  0  0  0  0
  -81.0740   73.6690    4.3770 C   0  0  0  0  0  0
  -79.8690   73.7240    5.3510 C   0  0  0  0  0  0
  -77.6810   73.7220    6.5350 C   0  0  0  0  0  0
  -75.6250   73.6870    7.9520 C   0  0  0  0  0  0
  -77.7340   73.6430    9.2230 C   0  0  0  0  0  0
  -83.1952   71.7460    3.4289 H   0  0  0  0  0  0
  -82.7981   73.4258    2.9318 H   0  0  0  0  0  0
  -81.5773   73.6199    6.6892 H   0  0  0  0  0  0
  -80.3573   73.5363    8.8680 H   0  0  0  0  0  0
  -75.7471   73.6461   10.1961 H   0  0  0  0  0  0
  -75.6340   73.7861    5.7097 H   0  0  0  0  0  0
  -77.8773   73.8247    4.2484 H   0  0  0  0  0  0
  -85.1731   63.9258    1.5346 H   0  0  0  0  0  0
  -84.4311   65.0482    2.8835 H   0  0  0  0  0  0
  -85.2027   63.1174    5.7084 H   0  0  0  0  0  0
  -83.7411   62.1577    5.2970 H   0  0  0  0  0  0
  -82.4222   64.2536    4.9597 H   0  0  0  0  0  0
  -83.4096   66.4587    4.1068 H   0  0  0  0  0  0
  -84.5455   67.4193    5.1134 H   0  0  0  0  0  0
  -81.5384   66.9890    5.7770 H   0  0  0  0  0  0
  -80.9593   69.3938    6.8472 H   0  0  0  0  0  0
  -82.0281   71.4487    8.2087 H   0  0  0  0  0  0
  -83.5379   70.4794    8.1210 H   0  0  0  0  0  0
  -82.7032   68.7954    9.5199 H   0  0  0  0  0  0
  -81.0041   69.0536    8.9976 H   0  0  0  0  0  0
  -81.7080   71.4754   10.3132 H   0  0  0  0  0  0
  -82.4480   70.1857   11.3210 H   0  0  0  0  0  0
  -79.4910   69.8727   10.4252 H   0  0  0  0  0  0
  -81.3858   68.0376   12.6868 H   0  0  0  0  0  0
  -80.6810   68.6326   14.3539 H   0  0  0  0  0  0
  -79.1762   71.7694   12.6905 H   0  0  0  0  0  0
  -82.7922   71.6814    5.8116 H   0  0  0  0  0  0
  -80.1687   72.1414    3.1229 H   0  0  0  0  0  0
  -82.9659   73.8960    0.7239 H   0  0  0  0  0  0
  -81.7058   73.7134   -1.4187 H   0  0  0  0  0  0
  -80.9731   74.4512    3.6102 H   0  0  0  0  0  0
  -82.0122   73.8181    4.9316 H   0  0  0  0  0  0
  -74.5354   73.6695    7.9762 H   0  0  0  0  0  0
  -78.3269   73.6265   10.1375 H   0  0  0  0  0  0
  -79.4056   70.8011   14.3152 H   0  0  0  0  0  0
  1 28  1  0  0  0
  1 29  2  0  0  0
  1 30  1  0  0  0
  2 30  1  0  0  0
  2 31  1  0  0  0
  2 40  1  0  0  0
  2 41  1  0  0  0
  3  4  2  0  0  0
  3 36  1  0  0  0
  3 42  1  0  0  0
  4  5  1  0  0  0
  4 43  1  0  0  0
  5 37  2  0  0  0
  5 39  1  0  0  0
  6 38  1  0  0  0
  6 39  2  0  0  0
  6 44  1  0  0  0
  7 37  1  0  0  0
  7 38  2  0  0  0
  7 45  1  0  0  0
  8 36  2  0  0  0
  8 37  1  0  0  0
  8 46  1  0  0  0
  9 10  2  0  0  0
 10 11  1  0  0  0
 10 12  1  0  0  0
 11 47  1  0  0  0
 11 48  1  0  0  0
 12 13  1  0  0  0
 12 49  1  0  0  0
 12 50  1  0  0  0
 13 14  1  0  0  0
 13 51  1  0  0  0
 14 15  2  0  0  0
 14 16  1  0  0  0
 16 17  1  0  0  0
 16 52  1  0  0  0
 16 53  1  0  0  0
 17 18  1  0  0  0
 17 54  1  0  0  0
 18 19  2  0  0  0
 18 20  1  0  0  0
 20 21  1  0  0  0
 20 28  1  0  0  0
 20 55  1  0  0  0
 21 22  1  0  0  0
 21 56  1  0  0  0
 21 57  1  0  0  0
 22 23  1  0  0  0
 22 58  1  0  0  0
 22 59  1  0  0  0
 23 24  1  0  0  0
 23 60  1  0  0  0
 23 61  1  0  0  0
 24 25  1  0  0  0
 24 62  1  0  0  0
 25 26  1  0  0  0
 25 27  2  0  0  0
 26 63  1  0  0  0
 26 64  1  0  0  0
 27 65  1  0  0  0
 27 74  1  0  0  0
 28 66  1  0  0  0
 30 35  1  0  0  0
 30 67  1  0  0  0
 31 32  1  0  0  0
 31 34  2  0  0  0
 32 33  1  0  0  0
 32 68  1  0  0  0
 33 69  1  0  0  0
 35 36  1  0  0  0
 35 70  1  0  0  0
 35 71  1  0  0  0
 38 72  1  0  0  0
 39 73  1  0  0  0
M  CHG  1  27   1
M  END
> <s_m_source_file>
../3e4a_ligand.sdf

> <i_m_source_file_index>
1

> <s_epik_input>
W2NIXTFbY0hdW2NIXVtjSF1jKGMxMilbY0hdYyhbY0hdW2NIXTIpW0NIMl1bQ0BIXShbQ0gyXUMoPU8pW05IXVtPSF0pQyg9TylbTkhdW0NAQEhdKFtDSDJdW0NIMl1bQ0gyXVtOSF0vQyhbTkgyXSk9TlxbSF0pQyg9TylbTkhdW0NIMl1DKD1PKVtOSF1bQ0gyXUMoPU8pW05IMl0=

> <s_epik_cmdline>
J2VwaWtfYXBwJywgJy1pbWFlJywgJ2xpZ2FuZF9wcm8ubWFlJywgJy1vbWFlJywgJ2xpZ2FuZF9wcmVwLm1hZScsICctbXMnLCAnMScsICctcGgnLCAnNycsICctcGh0JywgJzAuNScsICctbnQn

> <r_lp_tautomer_probability>
1

> <r_epik_Ionization_Penalty>
  0.0061

> <r_epik_Ionization_Penalty_Charging>
  0.0000

> <r_epik_Ionization_Penalty_Neutral>
  0.0060

> <r_epik_State_Penalty>
 -0.0000

> <r_epik_Charging_Adjusted_Penalty>
2.82880843743756e-06

> <i_epik_Tot_Q>
1

> <i_epik_Tot_abs_Q>
1

> <s_epik_Chemistry_Notes>
This compound has an imine and may undergo hydrolysis. This compound has a N-S or N-O group and may undergo hydrolysis at high or low pH.

$$$$
