3e51_ligand
                    3D
 Schrodinger Suite 2020-3.
 62 65  0  0  1  0            999 V2000
   95.2570    8.9480   59.1710 C   0  0  0  0  0  0
   95.8990    9.3180   61.8860 C   0  0  0  0  0  0
   96.0900    8.0420   59.8340 C   0  0  0  0  0  0
   95.5570    8.4810   55.5320 C   0  0  0  0  0  0
   96.1620    7.7070   54.6020 C   0  0  0  0  0  0
   96.3120    8.2730   53.2150 C   0  0  0  0  0  0
   98.4750    7.4930   50.3430 C   0  0  0  0  0  0
   97.3690    8.3310   50.9740 C   0  0  0  0  0  0
   91.2350   10.3850   54.3870 C   0  0  0  0  0  0
   94.2360   11.2490   53.3580 C   0  0  0  0  0  0
   92.0010    9.8820   53.1600 C   0  0  0  0  0  0
   95.9500    7.0280   63.7500 O   0  0  0  0  0  0
   96.4050    8.2580   64.3420 S   0  0  0  0  0  0
   95.9290    8.6290   65.6640 O   0  0  0  0  0  0
   98.1770    8.1780   64.5060 C   0  0  0  0  0  0
   96.1870    9.5690   63.2670 N   0  0  0  0  0  0
   95.0640   10.2210   61.2350 C   0  0  0  0  0  0
   96.4340    8.2130   61.1910 C   0  0  0  0  0  0
   96.7070    6.6620   58.9340 S   0  0  0  0  0  0
   98.1090    6.5800   59.2500 O   0  0  0  0  0  0
   95.8100    5.5480   59.1710 O   0  0  0  0  0  0
   96.5600    7.1620   57.3200 N   0  0  0  0  0  0
   95.6430    8.1950   56.9740 C   0  0  0  0  0  0
   94.8950    8.8380   57.8270 N   0  0  0  0  0  0
   94.7510   10.0470   59.8920 C   0  0  0  0  0  0
   94.7450    9.6410   55.0980 C   0  0  0  0  0  0
   94.0400   10.2280   55.9200 O   0  0  0  0  0  0
   94.9000   10.0320   53.7830 N   0  0  0  0  0  0
   92.9580   10.9350   52.5770 C   0  0  0  0  0  0
   91.0180    9.3900   52.0920 C   0  0  0  0  0  0
   95.6830    9.3740   52.8810 N   0  0  0  0  0  0
   96.5430    6.4040   54.8350 O   0  5  0  0  0  0
   97.0630    7.6740   52.2420 N   0  0  0  0  0  0
   98.0460    6.6220   52.4840 C   0  0  0  0  0  0
   99.2080    6.9910   51.5720 C   0  0  0  0  0  0
   98.0273    6.6872   49.7428 H   0  0  0  0  0  0
   99.0948    8.1312   49.6960 H   0  0  0  0  0  0
   97.7305    9.3583   51.1290 H   0  0  0  0  0  0
   96.4947    8.3467   50.3066 H   0  0  0  0  0  0
   91.9491   10.7355   55.1467 H   0  0  0  0  0  0
   90.6299    9.5658   54.8027 H   0  0  0  0  0  0
   90.5758   11.2150   54.0928 H   0  0  0  0  0  0
   93.9705   11.8492   54.2407 H   0  0  0  0  0  0
   94.9109   11.8280   52.7104 H   0  0  0  0  0  0
   92.6266    9.0415   53.4949 H   0  0  0  0  0  0
   98.4455    7.3568   65.1868 H   0  0  0  0  0  0
   98.5508    9.1290   64.9133 H   0  0  0  0  0  0
   98.6288    7.9989   63.5192 H   0  0  0  0  0  0
   96.2679   10.6021   63.6360 H   0  0  0  0  0  0
   94.6530   11.0698   61.7815 H   0  0  0  0  0  0
   97.0978    7.5078   61.6912 H   0  0  0  0  0  0
   94.1065   10.7694   59.3910 H   0  0  0  0  0  0
   92.3542   11.8493   52.4790 H   0  0  0  0  0  0
   93.2220   10.5610   51.5768 H   0  0  0  0  0  0
   90.3449    8.6390   52.5313 H   0  0  0  0  0  0
   91.5771    8.9387   51.2591 H   0  0  0  0  0  0
   90.4265   10.2392   51.7191 H   0  0  0  0  0  0
   98.3336    6.6262   53.5457 H   0  0  0  0  0  0
   97.6094    5.6458   52.2263 H   0  0  0  0  0  0
   99.8375    6.1315   51.2979 H   0  0  0  0  0  0
   99.8409    7.7951   51.9754 H   0  0  0  0  0  0
   93.9625    9.2988   57.4691 H   0  0  0  0  0  0
  1  3  2  0  0  0
  1 24  1  0  0  0
  1 25  1  0  0  0
  2 16  1  0  0  0
  2 17  1  0  0  0
  2 18  2  0  0  0
  3 18  1  0  0  0
  3 19  1  0  0  0
  4  5  2  0  0  0
  4 23  1  0  0  0
  4 26  1  0  0  0
  5  6  1  0  0  0
  5 32  1  0  0  0
  6 31  2  0  0  0
  6 33  1  0  0  0
  7  8  1  0  0  0
  7 35  1  0  0  0
  7 36  1  0  0  0
  7 37  1  0  0  0
  8 33  1  0  0  0
  8 38  1  0  0  0
  8 39  1  0  0  0
  9 11  1  0  0  0
  9 40  1  0  0  0
  9 41  1  0  0  0
  9 42  1  0  0  0
 10 28  1  0  0  0
 10 29  1  0  0  0
 10 43  1  0  0  0
 10 44  1  0  0  0
 11 29  1  0  0  0
 11 30  1  0  0  0
 11 45  1  0  0  0
 12 13  2  0  0  0
 13 14  2  0  0  0
 13 15  1  0  0  0
 13 16  1  0  0  0
 15 46  1  0  0  0
 15 47  1  0  0  0
 15 48  1  0  0  0
 16 49  1  0  0  0
 17 25  2  0  0  0
 17 50  1  0  0  0
 18 51  1  0  0  0
 19 20  2  0  0  0
 19 21  2  0  0  0
 19 22  1  0  0  0
 22 23  2  0  0  0
 23 24  1  0  0  0
 24 62  1  0  0  0
 25 52  1  0  0  0
 26 27  2  0  0  0
 26 28  1  0  0  0
 28 31  1  0  0  0
 29 53  1  0  0  0
 29 54  1  0  0  0
 30 55  1  0  0  0
 30 56  1  0  0  0
 30 57  1  0  0  0
 33 34  1  0  0  0
 34 35  1  0  0  0
 34 58  1  0  0  0
 34 59  1  0  0  0
 35 60  1  0  0  0
 35 61  1  0  0  0
M  CHG  1  32  -1
M  END
> <s_m_source_file>
../3e51_ligand.sdf

> <i_m_source_file_index>
1

> <s_epik_input>
Tz1TKD1PKShbQ0gzXSlbTkhdYyhbY0hdW2NIXTEpW2NIXWMoYzEyKVMoPU8pKD1PKVtOSF1DKD1OMiljM2MoW09IXSljKE40W0NIMl1bQ0gyXVtDSDJdW0NIMl00KW5uKGMzPU8pW0NIMl1bQ0gyXVtDSF0oW0NIM10pW0NIM10=

> <s_epik_cmdline>
J2VwaWtfYXBwJywgJy1pbWFlJywgJ2xpZ2FuZF9wcm8ubWFlJywgJy1vbWFlJywgJ2xpZ2FuZF9wcmVwLm1hZScsICctbXMnLCAnMScsICctcGgnLCAnNycsICctcGh0JywgJzAuNScsICctbnQn

> <r_epik_Ionization_Penalty>
  0.0388

> <r_epik_Ionization_Penalty_Charging>
  0.0000

> <r_epik_Ionization_Penalty_Neutral>
  0.0388

> <r_epik_State_Penalty>
  0.0251

> <r_epik_Charging_Adjusted_Penalty>
0.0250972557727384

> <i_epik_Tot_Q>
-1

> <i_epik_Tot_abs_Q>
1

> <s_epik_Chemistry_Notes>
This compound has an imine and may undergo hydrolysis.

$$$$
