3e5u_ligand
                    3D
 Schrodinger Suite 2020-3.
 18 18  0  0  1  0            999 V2000
   10.1580  -23.8110   21.3250 O   0  0  0  0  0  0
    9.7370  -23.5100   20.1530 C   0  0  0  0  0  0
    8.5380  -23.7690   19.7580 O   0  5  0  0  0  0
   10.7840  -22.9190   19.2050 C   0  0  0  0  0  0
   10.3040  -22.8350   17.7550 C   0  0  0  0  0  0
    9.4900  -21.8350   17.3370 C   0  0  0  0  0  0
    9.0210  -21.6750   16.1370 C   0  0  0  0  0  0
    9.4820  -22.5930   15.0760 C   0  0  0  0  0  0
    9.1550  -22.5630   13.7590 O   0  0  0  0  0  0
   10.9670  -24.8500   14.4430 Cl  0  0  0  0  0  0
   10.3670  -23.6370   15.5820 C   0  0  0  0  0  0
   10.7400  -23.7180   16.8610 C   0  0  0  0  0  0
   11.0393  -21.8997   19.5302 H   0  0  0  0  0  0
   11.6878  -23.5458   19.2202 H   0  0  0  0  0  0
    9.2010  -21.0927   18.0810 H   0  0  0  0  0  0
    8.3049  -20.8829   15.9181 H   0  0  0  0  0  0
    8.4880  -21.7768   13.3757 H   0  0  0  0  0  0
   11.4101  -24.5176   17.1767 H   0  0  0  0  0  0
  1  2  2  0  0  0
  2  3  1  0  0  0
  2  4  1  0  0  0
  4  5  1  0  0  0
  4 13  1  0  0  0
  4 14  1  0  0  0
  5  6  2  0  0  0
  5 12  1  0  0  0
  6  7  1  0  0  0
  6 15  1  0  0  0
  7  8  2  0  0  0
  7 16  1  0  0  0
  8  9  1  0  0  0
  8 11  1  0  0  0
  9 17  1  0  0  0
 10 11  1  0  0  0
 11 12  2  0  0  0
 12 18  1  0  0  0
M  CHG  1   3  -1
M  END
> <s_m_source_file>
../3e5u_ligand.sdf

> <i_m_source_file_index>
1

> <s_epik_input>
Tz1DKFtPSF0pW0NIMl1jMVtjSF1bY0hdYyhbT0hdKWMoQ2wpW2NIXTE=

> <s_epik_cmdline>
J2VwaWtfYXBwJywgJy1pbWFlJywgJ2xpZ2FuZF9wcm8ubWFlJywgJy1vbWFlJywgJ2xpZ2FuZF9wcmVwLm1hZScsICctbXMnLCAnMScsICctcGgnLCAnNycsICctcGh0JywgJzAuNScsICctbnQn

> <r_lp_tautomer_probability>
0.999999999997365

> <r_epik_Ionization_Penalty>
  0.0156

> <r_epik_Ionization_Penalty_Charging>
  0.0012

> <r_epik_Ionization_Penalty_Neutral>
  0.0144

> <r_epik_State_Penalty>
  0.0113

> <r_epik_Charging_Adjusted_Penalty>
0.0124703283906892

> <i_epik_Tot_Q>
-1

> <i_epik_Tot_abs_Q>
1

$$$$
