3e64_ligand
                    3D
 Schrodinger Suite 2020-3.
 44 46  0  0  1  0            999 V2000
   30.0080   33.3830   38.5690 O   0  0  0  0  0  0
   32.6360   36.3980   37.0060 C   0  0  0  0  0  0
   29.1580   35.0050   40.2630 O   0  0  0  0  0  0
   31.8480   35.4090   37.6030 C   0  0  0  0  0  0
   33.7460   33.6920   41.3140 C   0  0  0  0  0  0
   31.3820   33.9130   40.7950 N   0  0  3  0  0  0
   31.2700   35.6550   38.8510 C   0  0  0  0  0  0
   32.9110   32.5760   39.2990 C   0  0  0  0  0  0
   32.2480   31.6990   41.5400 C   0  0  0  0  0  0
   32.5370   32.9690   40.7350 C   0  0  0  0  0  0
   30.2760   34.3750   39.5910 S   0  0  0  0  0  0
   31.4670   36.8690   39.5250 C   0  0  0  0  0  0
   32.2440   37.8610   38.9180 C   0  0  0  0  0  0
   32.8600   37.6250   37.6630 C   0  0  0  0  0  0
   33.6390   38.6620   36.9790 C   0  0  0  0  0  0
   33.0980   39.9660   37.0080 C   0  0  0  0  0  0
   33.7580   41.0150   36.3330 C   0  0  0  0  0  0
   33.5390   42.4050   36.1310 C   0  0  0  0  0  0
   32.4560   43.0880   36.5580 N   0  0  0  0  0  0
   34.5070   42.9430   35.3840 N   0  0  0  0  0  0
   35.3360   41.9210   35.1090 N   0  3  0  0  0  0
   34.9420   40.7200   35.6530 C   0  0  0  0  0  0
   35.5060   39.4370   35.5790 C   0  0  0  0  0  0
   34.8290   38.4080   36.2580 C   0  0  0  0  0  0
   33.0798   36.2191   36.0266 H   0  0  0  0  0  0
   31.6863   34.4557   37.0998 H   0  0  0  0  0  0
   33.9442   34.6019   40.7285 H   0  0  0  0  0  0
   34.6238   33.0304   41.2718 H   0  0  0  0  0  0
   33.5432   33.9659   42.3599 H   0  0  0  0  0  0
   31.0419   34.3050   41.7649 H   0  0  0  0  0  0
   33.1204   33.4833   38.7133 H   0  0  0  0  0  0
   32.0754   32.0276   38.8395 H   0  0  0  0  0  0
   33.8052   31.9355   39.3152 H   0  0  0  0  0  0
   31.9789   31.9718   42.5711 H   0  0  0  0  0  0
   33.1436   31.0604   41.5514 H   0  0  0  0  0  0
   31.4139   31.1525   41.0757 H   0  0  0  0  0  0
   31.0219   37.0367   40.5057 H   0  0  0  0  0  0
   32.3769   38.8227   39.4135 H   0  0  0  0  0  0
   32.1730   40.1619   37.5503 H   0  0  0  0  0  0
   31.6945   42.5840   37.1713 H   0  0  0  0  0  0
   32.3348   44.1486   36.2927 H   0  0  0  0  0  0
   36.4238   39.2473   35.0225 H   0  0  0  0  0  0
   35.2294   37.3946   36.2280 H   0  0  0  0  0  0
   36.2346   42.0909   34.4978 H   0  0  0  0  0  0
  1 11  2  0  0  0
  2  4  2  0  0  0
  2 14  1  0  0  0
  2 25  1  0  0  0
  3 11  2  0  0  0
  4  7  1  0  0  0
  4 26  1  0  0  0
  5 10  1  0  0  0
  5 27  1  0  0  0
  5 28  1  0  0  0
  5 29  1  0  0  0
  6 10  1  0  0  0
  6 11  1  0  0  0
  6 30  1  0  0  0
  7 11  1  0  0  0
  7 12  2  0  0  0
  8 10  1  0  0  0
  8 31  1  0  0  0
  8 32  1  0  0  0
  8 33  1  0  0  0
  9 10  1  0  0  0
  9 34  1  0  0  0
  9 35  1  0  0  0
  9 36  1  0  0  0
 12 13  1  0  0  0
 12 37  1  0  0  0
 13 14  2  0  0  0
 13 38  1  0  0  0
 14 15  1  0  0  0
 15 16  2  0  0  0
 15 24  1  0  0  0
 16 17  1  0  0  0
 16 39  1  0  0  0
 17 18  2  0  0  0
 17 22  1  0  0  0
 18 19  1  0  0  0
 18 20  1  0  0  0
 19 40  1  0  0  0
 19 41  1  0  0  0
 20 21  1  0  0  0
 21 22  2  0  0  0
 21 44  1  0  0  0
 22 23  1  0  0  0
 23 24  2  0  0  0
 23 42  1  0  0  0
 24 43  1  0  0  0
M  CHG  1  21   1
M  END
> <s_m_source_file>
../3e64_ligand.sdf

> <i_m_source_file_index>
1

> <s_epik_input>
W0NIM11DKFtDSDNdKShbQ0gzXSlbTkhdUyg9TykoPU8pYzFbY0hdW2NIXWMoW2NIXVtjSF0xKS1jKFtjSF0yKVtjSF1bY0hdYyhjMjMpbltuSF1jM1tOSDJd

> <s_epik_cmdline>
J2VwaWtfYXBwJywgJy1pbWFlJywgJ2xpZ2FuZF9wcm8ubWFlJywgJy1vbWFlJywgJ2xpZ2FuZF9wcmVwLm1hZScsICctbXMnLCAnMScsICctcGgnLCAnNycsICctcGh0JywgJzAuNScsICctbnQn

> <r_lp_tautomer_probability>
1

> <r_epik_Ionization_Penalty>
  0.0001

> <r_epik_Ionization_Penalty_Charging>
  0.0000

> <r_epik_Ionization_Penalty_Neutral>
  0.0001

> <r_epik_State_Penalty>
 -0.0000

> <r_epik_Charging_Adjusted_Penalty>
0

> <i_epik_Tot_Q>
1

> <i_epik_Tot_abs_Q>
1

$$$$
