3e6v_ligand
                    3D
 Schrodinger Suite 2020-3.
 28 27  0  0  1  0            999 V2000
   26.0850   -9.9980   -4.6650 N   0  3  0  0  0  0
   25.9660  -10.0600   -6.1400 C   0  0  2  0  0  0
   24.5180   -9.5620   -6.4670 C   0  0  0  0  0  0
   24.0300   -9.4690   -7.5560 O   0  0  0  0  0  0
   23.8260   -9.2240   -5.3470 O   0  5  0  0  0  0
   26.2090  -11.5220   -6.6340 C   0  0  0  0  0  0
   25.0650  -12.5050   -6.4170 C   0  0  0  0  0  0
   25.4790  -13.9580   -6.3220 C   0  0  0  0  0  0
   24.2880  -14.8550   -5.9800 C   0  0  0  0  0  0
   24.5650  -16.4070   -5.8270 Br  0  0  0  0  0  0
   23.3350  -17.1330   -5.6050 O   0  0  0  0  0  0
   25.3780  -16.6580   -4.6670 O   0  0  0  0  0  0
   25.2240  -17.0140   -6.9550 O   0  0  0  0  0  0
   25.9125   -8.9657   -4.3263 H   0  0  0  0  0  0
   27.0934  -10.3188   -4.3647 H   0  0  0  0  0  0
   25.3374  -10.6634   -4.2086 H   0  0  0  0  0  0
   26.7338   -9.4223   -6.6024 H   0  0  0  0  0  0
   26.4021  -11.5158   -7.7169 H   0  0  0  0  0  0
   27.0774  -11.9468   -6.1092 H   0  0  0  0  0  0
   24.5470  -12.2631   -5.4773 H   0  0  0  0  0  0
   24.3563  -12.4337   -7.2552 H   0  0  0  0  0  0
   25.8967  -14.2840   -7.2860 H   0  0  0  0  0  0
   26.2396  -14.0719   -5.5355 H   0  0  0  0  0  0
   23.8555  -14.5397   -5.0190 H   0  0  0  0  0  0
   23.5269  -14.7709   -6.7697 H   0  0  0  0  0  0
   22.6634  -16.8394   -4.7848 H   0  0  0  0  0  0
   26.3800  -16.2106   -4.5903 H   0  0  0  0  0  0
   26.1888  -16.6192   -7.3061 H   0  0  0  0  0  0
  1  2  1  0  0  0
  1 14  1  0  0  0
  1 15  1  0  0  0
  1 16  1  0  0  0
  2  3  1  0  0  0
  2  6  1  0  0  0
  2 17  1  0  0  0
  3  4  2  0  0  0
  3  5  1  0  0  0
  6  7  1  0  0  0
  6 18  1  0  0  0
  6 19  1  0  0  0
  7  8  1  0  0  0
  7 20  1  0  0  0
  7 21  1  0  0  0
  8  9  1  0  0  0
  8 22  1  0  0  0
  8 23  1  0  0  0
  9 10  1  0  0  0
  9 24  1  0  0  0
  9 25  1  0  0  0
 10 12  1  0  0  0
 10 13  1  0  0  0
 10 11  1  0  0  0
 11 26  1  0  0  0
 12 27  1  0  0  0
 13 28  1  0  0  0
M  CHG  2   1   1   5  -1
M  END
> <s_m_source_file>
../3e6v_ligand.sdf

> <i_m_source_file_index>
1

> <s_epik_input>
Tz1DKFtPSF0pW0NAQEhdKFtOSDMrXSlbQ0gyXVtDSDJdW0NIMl1bQ0gyXVtCckhdKFtPSF0pKFtPSF0pW09IXQ==

> <s_epik_cmdline>
J2VwaWtfYXBwJywgJy1pbWFlJywgJ2xpZ2FuZF9wcm8ubWFlJywgJy1vbWFlJywgJ2xpZ2FuZF9wcmVwLm1hZScsICctbXMnLCAnMScsICctcGgnLCAnNycsICctcGh0JywgJzAuNScsICctbnQn

> <r_lp_tautomer_probability>
1

> <r_epik_Ionization_Penalty>
  0.0010

> <r_epik_Ionization_Penalty_Charging>
  0.0010

> <r_epik_Ionization_Penalty_Neutral>
  0.0000

> <r_epik_State_Penalty>
 -0.0000

> <r_epik_Charging_Adjusted_Penalty>
0.000961080724848188

> <i_epik_Tot_Q>
0

> <i_epik_Tot_abs_Q>
2

$$$$
