3e6y_ligand
                    3D
 Schrodinger Suite 2020-3.
 98103  0  0  1  0            999 V2000
  -21.0040  -19.6560  -23.5080 O   0  0  0  0  0  0
  -20.5910  -20.8200  -23.3930 C   0  0  0  0  0  0
  -19.2240  -21.0780  -23.4230 O   0  0  0  0  0  0
  -18.4880  -19.8980  -23.5430 C   0  0  0  0  0  0
  -17.8410  -19.9740  -24.9270 C   0  0  0  0  0  0
  -16.2940  -20.0650  -24.7330 C   0  0  2  0  0  0
  -15.6070  -21.3800  -25.1730 C   0  0  0  0  0  0
  -15.3710  -18.9500  -24.2850 O   0  0  0  0  0  0
  -14.8860  -18.2850  -25.4250 C   0  0  1  0  0  0
  -13.3970  -17.7490  -25.5090 C   0  0  1  0  0  0
  -13.2650  -16.5110  -24.7930 O   0  0  0  0  0  0
  -12.3490  -18.8140  -25.3140 C   0  0  0  0  0  0
  -11.5170  -18.5330  -24.2350 O   0  0  0  0  0  0
  -12.3270  -18.9540  -23.1020 C   0  0  0  0  0  0
  -15.0170  -19.2430  -26.4960 O   0  0  0  0  0  0
  -16.3140  -19.5040  -26.3050 C   0  0  2  0  0  0
  -16.6720  -18.1480  -26.7100 O   0  0  0  0  0  0
  -15.9220  -17.2860  -25.8090 C   0  0  2  0  0  0
  -15.1650  -16.0880  -26.3930 C   0  0  1  0  0  0
  -16.1260  -15.1400  -26.8400 O   0  0  0  0  0  0
  -14.1650  -15.5000  -25.3520 C   0  0  1  0  0  0
  -14.9110  -15.1290  -24.1920 O   0  0  0  0  0  0
  -14.1850  -14.1290  -23.4010 C   0  0  2  0  0  0
  -14.0940  -14.7420  -21.9990 C   0  0  0  0  0  0
  -15.0270  -15.5040  -21.2690 C   0  0  0  0  0  0
  -16.5220  -15.5440  -21.6900 C   0  0  0  0  0  0
  -17.2180  -16.9360  -21.6820 C   0  0  0  0  0  0
  -17.2630  -14.4710  -20.8490 C   0  0  0  0  0  0
  -14.4390  -15.9340  -19.9470 C   0  0  0  0  0  0
  -12.9310  -15.9080  -20.1970 C   0  0  0  0  0  0
  -12.7270  -14.7650  -21.2380 C   0  0  1  0  0  0
  -11.5430  -15.0690  -22.1740 C   0  0  0  0  0  0
  -12.4140  -13.6010  -20.4880 C   0  0  0  0  0  0
  -12.9990  -12.3170  -20.4360 C   0  0  0  0  0  0
  -12.6550  -11.1640  -19.4750 C   0  0  2  0  0  0
  -11.4500  -10.3240  -19.8300 C   0  0  0  0  0  0
  -10.5490  -10.5170  -18.7150 O   0  0  0  0  0  0
   -9.2690   -9.9230  -19.0030 C   0  0  0  0  0  0
  -12.4710  -11.6990  -18.1410 O   0  0  0  0  0  0
  -13.8630  -10.3030  -19.3820 C   0  0  0  0  0  0
  -14.6970  -10.5280  -20.6330 C   0  0  0  0  0  0
  -14.2870  -11.8770  -21.1960 C   0  0  1  0  0  0
  -14.1800  -11.6860  -22.7470 C   0  0  1  0  0  0
  -12.7500  -11.4470  -23.3400 C   0  0  0  0  0  0
  -14.9690  -12.8140  -23.3900 C   0  0  1  0  0  0
  -15.3820  -12.4260  -24.7090 O   0  0  0  0  0  0
  -21.3052  -21.6471  -23.2674 H   0  0  0  0  0  0
  -19.1636  -19.0342  -23.4576 H   0  0  0  0  0  0
  -17.7333  -19.8537  -22.7439 H   0  0  0  0  0  0
  -18.2103  -20.8650  -25.4560 H   0  0  0  0  0  0
  -18.0991  -19.0727  -25.5024 H   0  0  0  0  0  0
  -15.4425  -22.0198  -24.2935 H   0  0  0  0  0  0
  -14.6403  -21.1488  -25.6442 H   0  0  0  0  0  0
  -16.2499  -21.9061  -25.8940 H   0  0  0  0  0  0
  -13.0889  -17.3871  -26.5010 H   0  0  0  0  0  0
  -12.8392  -19.7810  -25.1278 H   0  0  0  0  0  0
  -11.7270  -18.8863  -26.2184 H   0  0  0  0  0  0
  -11.7708  -18.7804  -22.1690 H   0  0  0  0  0  0
  -12.5604  -20.0248  -23.1959 H   0  0  0  0  0  0
  -13.2621  -18.3750  -23.0845 H   0  0  0  0  0  0
  -16.9243  -20.1761  -26.9261 H   0  0  0  0  0  0
  -16.6152  -16.8454  -25.0773 H   0  0  0  0  0  0
  -14.6089  -16.3498  -27.3053 H   0  0  0  0  0  0
  -16.8877  -15.4346  -27.5769 H   0  0  0  0  0  0
  -13.5969  -14.6754  -25.8073 H   0  0  0  0  0  0
  -13.1957  -13.9212  -23.8347 H   0  0  0  0  0  0
  -16.5710  -15.3082  -22.7633 H   0  0  0  0  0  0
  -16.6373  -17.6398  -22.2964 H   0  0  0  0  0  0
  -18.2333  -16.8406  -22.0943 H   0  0  0  0  0  0
  -17.2753  -17.3114  -20.6496 H   0  0  0  0  0  0
  -16.7140  -13.5193  -20.9030 H   0  0  0  0  0  0
  -17.3211  -14.8019  -19.8016 H   0  0  0  0  0  0
  -18.2792  -14.3312  -21.2463 H   0  0  0  0  0  0
  -14.7442  -15.2260  -19.1624 H   0  0  0  0  0  0
  -14.8027  -16.9408  -19.6940 H   0  0  0  0  0  0
  -12.4063  -15.7010  -19.2526 H   0  0  0  0  0  0
  -12.6076  -16.8832  -20.5900 H   0  0  0  0  0  0
  -11.7652  -15.9693  -22.7657 H   0  0  0  0  0  0
  -10.6362  -15.2385  -21.5749 H   0  0  0  0  0  0
  -11.3818  -14.2164  -22.8501 H   0  0  0  0  0  0
  -11.5420  -13.8340  -19.8592 H   0  0  0  0  0  0
  -11.0201  -10.6815  -20.7773 H   0  0  0  0  0  0
  -11.7551   -9.2729  -19.9395 H   0  0  0  0  0  0
   -8.5932  -10.0761  -18.1487 H   0  0  0  0  0  0
   -9.3967   -8.8450  -19.1809 H   0  0  0  0  0  0
   -8.8395  -10.3942  -19.8994 H   0  0  0  0  0  0
  -11.6320  -12.3790  -17.9320 H   0  0  0  0  0  0
  -14.4400  -10.5764  -18.4863 H   0  0  0  0  0  0
  -13.5573   -9.2485  -19.3135 H   0  0  0  0  0  0
  -15.7645  -10.5235  -20.3677 H   0  0  0  0  0  0
  -14.4958   -9.7249  -21.3572 H   0  0  0  0  0  0
  -15.0122  -12.6869  -21.0281 H   0  0  0  0  0  0
  -14.6517  -10.7320  -23.0252 H   0  0  0  0  0  0
  -12.2669  -10.6142  -22.8079 H   0  0  0  0  0  0
  -12.8328  -11.2004  -24.4088 H   0  0  0  0  0  0
  -12.1461  -12.3585  -23.2197 H   0  0  0  0  0  0
  -15.9051  -12.9762  -22.8356 H   0  0  0  0  0  0
  -15.9675  -13.1211  -25.3287 H   0  0  0  0  0  0
  1  2  2  0  0  0
  2  3  1  0  0  0
  2 47  1  0  0  0
  3  4  1  0  0  0
  4  5  1  0  0  0
  4 48  1  0  0  0
  4 49  1  0  0  0
  5  6  1  0  0  0
  5 50  1  0  0  0
  5 51  1  0  0  0
  6  7  1  0  0  0
  6  8  1  0  0  0
  6 16  1  0  0  0
  7 52  1  0  0  0
  7 53  1  0  0  0
  7 54  1  0  0  0
  8  9  1  0  0  0
  9 10  1  0  0  0
  9 15  1  0  0  0
  9 18  1  0  0  0
 10 11  1  0  0  0
 10 12  1  0  0  0
 10 55  1  0  0  0
 11 21  1  0  0  0
 12 13  1  0  0  0
 12 56  1  0  0  0
 12 57  1  0  0  0
 13 14  1  0  0  0
 14 58  1  0  0  0
 14 59  1  0  0  0
 14 60  1  0  0  0
 15 16  1  0  0  0
 16 17  1  0  0  0
 16 61  1  0  0  0
 17 18  1  0  0  0
 18 19  1  0  0  0
 18 62  1  0  0  0
 19 20  1  0  0  0
 19 21  1  0  0  0
 19 63  1  0  0  0
 20 64  1  0  0  0
 21 22  1  0  0  0
 21 65  1  0  0  0
 22 23  1  0  0  0
 23 24  1  0  0  0
 23 45  1  0  0  0
 23 66  1  0  0  0
 24 25  2  0  0  0
 24 31  1  0  0  0
 25 26  1  0  0  0
 25 29  1  0  0  0
 26 27  1  0  0  0
 26 28  1  0  0  0
 26 67  1  0  0  0
 27 68  1  0  0  0
 27 69  1  0  0  0
 27 70  1  0  0  0
 28 71  1  0  0  0
 28 72  1  0  0  0
 28 73  1  0  0  0
 29 30  1  0  0  0
 29 74  1  0  0  0
 29 75  1  0  0  0
 30 31  1  0  0  0
 30 76  1  0  0  0
 30 77  1  0  0  0
 31 32  1  0  0  0
 31 33  1  0  0  0
 32 78  1  0  0  0
 32 79  1  0  0  0
 32 80  1  0  0  0
 33 34  2  0  0  0
 33 81  1  0  0  0
 34 35  1  0  0  0
 34 42  1  0  0  0
 35 36  1  0  0  0
 35 39  1  0  0  0
 35 40  1  0  0  0
 36 37  1  0  0  0
 36 82  1  0  0  0
 36 83  1  0  0  0
 37 38  1  0  0  0
 38 84  1  0  0  0
 38 85  1  0  0  0
 38 86  1  0  0  0
 39 87  1  0  0  0
 40 41  1  0  0  0
 40 88  1  0  0  0
 40 89  1  0  0  0
 41 42  1  0  0  0
 41 90  1  0  0  0
 41 91  1  0  0  0
 42 43  1  0  0  0
 42 92  1  0  0  0
 43 44  1  0  0  0
 43 45  1  0  0  0
 43 93  1  0  0  0
 44 94  1  0  0  0
 44 95  1  0  0  0
 44 96  1  0  0  0
 45 46  1  0  0  0
 45 97  1  0  0  0
 46 98  1  0  0  0
M  END
> <s_m_source_file>
../3e6y_ligand.sdf

> <i_m_source_file_index>
1

> <s_epik_input>
Tz1bQ0hdT1tDSDJdW0NIMl1bQ0BAXShPMSkoW0NIM10pW0NASF0oTzIpT1tDQEBIXShbQ0BAXTEyMylbQ0BASF0oW09IXSlbQ0BIXShPW0NASF0zW0NIMl1PW0NIM10pT1tDQEhdKEMoW0NAXTQ1W0NIM10pPUMoW0NIXShbQ0gzXSlbQ0gzXSlbQ0gyXVtDSDJdNClbQ0BIXShbT0hdKVtDQEhdKFtDSDNdKVtDQEhdNkMoPVtDSF1cNSkvW0NAXShbT0hdKShbQ0gyXVtDSDJdNilbQ0gyXU9bQ0gzXQ==

> <s_epik_cmdline>
J2VwaWtfYXBwJywgJy1pbWFlJywgJ2xpZ2FuZF9wcm8ubWFlJywgJy1vbWFlJywgJ2xpZ2FuZF9wcmVwLm1hZScsICctbXMnLCAnMScsICctcGgnLCAnNycsICctcGh0JywgJzAuNScsICctbnQn

> <r_lp_tautomer_probability>
1

> <r_epik_Ionization_Penalty>
  0.0000

> <r_epik_Ionization_Penalty_Charging>
  0.0000

> <r_epik_Ionization_Penalty_Neutral>
  0.0000

> <r_epik_State_Penalty>
 -0.0000

> <r_epik_Charging_Adjusted_Penalty>
0

> <i_epik_Tot_Q>
0

> <i_epik_Tot_abs_Q>
0

> <s_epik_Chemistry_Notes>
This compound has an ester and may undergo hydrolysis at high or low pH. This compound contains an acetal/aminal-like group ( X-CH(R)-Y where X, Y are N, S, or O) that may be acid/base labile, releasing an aldehyde.

$$$$
