3e73_ligand
                    3D
 Schrodinger Suite 2020-3.
 41 40  0  0  1  0            999 V2000
  131.6490  259.8990  136.2730 N   0  3  0  0  0  0
  130.9910  258.6880  136.7230 C   0  0  2  0  0  0
  129.7420  259.0470  137.4720 C   0  0  0  0  0  0
  129.8450  259.7500  138.5000 O   0  0  0  0  0  0
  128.6460  258.6290  137.0390 O   0  5  0  0  0  0
  131.9280  257.9110  137.6400 C   0  0  0  0  0  0
  132.7910  256.9400  136.8430 C   0  0  0  0  0  0
  133.0850  255.6810  137.6510 C   0  0  1  0  0  0
  131.8960  254.8900  137.7510 O   0  0  0  0  0  0
  134.1270  254.9080  137.0030 N   0  3  0  0  0  0
  133.9010  254.3470  135.6850 C   0  0  2  0  0  0
  134.2660  252.8680  135.6790 C   0  0  1  0  0  0
  135.4910  252.6820  134.9600 O   0  0  0  0  0  0
  134.7100  255.1140  134.6460 C   0  0  0  0  0  0
  134.1400  254.8040  132.9570 S   0  0  0  0  0  0
  134.4260  252.3910  137.0380 N   0  0  1  0  0  0
  135.7530  252.1570  137.5730 C   0  0  0  0  0  0
  135.6970  251.5500  138.9550 C   0  0  0  0  0  0
  136.7680  251.2030  139.4980 O   0  0  0  0  0  0
  134.5810  251.4170  139.5030 O   0  5  0  0  0  0
  130.9725  260.4596  135.6112 H   0  0  0  0  0  0
  132.5649  259.6361  135.7235 H   0  0  0  0  0  0
  131.9088  260.5201  137.1429 H   0  0  0  0  0  0
  130.7360  258.1035  135.8267 H   0  0  0  0  0  0
  132.5866  258.6136  138.1717 H   0  0  0  0  0  0
  131.3360  257.3394  138.3700 H   0  0  0  0  0  0
  132.2639  256.6526  135.9213 H   0  0  0  0  0  0
  133.7444  257.4240  136.5845 H   0  0  0  0  0  0
  133.4177  255.9111  138.6739 H   0  0  0  0  0  0
  130.9930  255.3109  138.2174 H   0  0  0  0  0  0
  135.0223  255.5342  136.8751 H   0  0  0  0  0  0
  134.3759  254.0349  137.6241 H   0  0  0  0  0  0
  132.8273  254.4628  135.4756 H   0  0  0  0  0  0
  133.4961  252.2520  135.1914 H   0  0  0  0  0  0
  135.5615  252.9870  133.9055 H   0  0  0  0  0  0
  134.6252  256.1936  134.8392 H   0  0  0  0  0  0
  135.7660  254.8123  134.7077 H   0  0  0  0  0  0
  134.6386  255.2965  132.1092 H   0  0  0  0  0  0
  133.9824  253.1165  137.7358 H   0  0  0  0  0  0
  136.2980  251.4665  136.9126 H   0  0  0  0  0  0
  136.2969  253.1111  137.6349 H   0  0  0  0  0  0
  1  2  1  0  0  0
  1 21  1  0  0  0
  1 22  1  0  0  0
  1 23  1  0  0  0
  2  3  1  0  0  0
  2  6  1  0  0  0
  2 24  1  0  0  0
  3  4  2  0  0  0
  3  5  1  0  0  0
  6  7  1  0  0  0
  6 25  1  0  0  0
  6 26  1  0  0  0
  7  8  1  0  0  0
  7 27  1  0  0  0
  7 28  1  0  0  0
  8  9  1  0  0  0
  8 10  1  0  0  0
  8 29  1  0  0  0
  9 30  1  0  0  0
 10 11  1  0  0  0
 10 31  1  0  0  0
 10 32  1  0  0  0
 11 12  1  0  0  0
 11 14  1  0  0  0
 11 33  1  0  0  0
 12 13  1  0  0  0
 12 16  1  0  0  0
 12 34  1  0  0  0
 13 35  1  0  0  0
 14 15  1  0  0  0
 14 36  1  0  0  0
 14 37  1  0  0  0
 15 38  1  0  0  0
 16 17  1  0  0  0
 16 39  1  0  0  0
 17 18  1  0  0  0
 17 40  1  0  0  0
 17 41  1  0  0  0
 18 19  2  0  0  0
 18 20  1  0  0  0
M  CHG  4   1   1   5  -1  10   1  20  -1
M  END
> <s_m_source_file>
../3e73_ligand.sdf

> <i_m_source_file_index>
1

> <s_epik_input>
Tz1DKFtPSF0pW0NAQEhdKFtOSDMrXSlbQ0gyXVtDSDJdW0NAQEhdKFtPSF0pW05IMitdW0NAQEhdKFtDSDJdW1NIXSlbQ0BASF0oW09IXSlbTkgyK11bQ0gyXUMoPU8pW09IXQ==

> <s_epik_cmdline>
J2VwaWtfYXBwJywgJy1pbWFlJywgJ2xpZ2FuZF9wcm8ubWFlJywgJy1vbWFlJywgJ2xpZ2FuZF9wcmVwLm1hZScsICctbXMnLCAnMScsICctcGgnLCAnNycsICctcGh0JywgJzAuNScsICctbnQn

> <r_epik_Ionization_Penalty>
  0.1721

> <r_epik_Ionization_Penalty_Charging>
  0.0704

> <r_epik_Ionization_Penalty_Neutral>
  0.1017

> <r_epik_State_Penalty>
  0.4532

> <r_epik_Charging_Adjusted_Penalty>
0.523628894568

> <i_epik_Tot_Q>
0

> <i_epik_Tot_abs_Q>
4

> <s_epik_Chemistry_Notes>
This compound contains an acetal/aminal-like group ( X-CH(R)-Y where X, Y are N, S, or O) that may be acid/base labile, releasing an aldehyde.

$$$$
