3e7a_ligand
                    3D
 Schrodinger Suite 2020-3.
118119  0  0  1  0            999 V2000
   12.5800  -38.3560   10.3140 C   0  0  0  0  0  0
   13.4840  -37.6450    9.8250 O   0  0  0  0  0  0
   11.4450  -37.8890   10.6140 O   0  5  0  0  0  0
   12.8640  -39.8220   10.5660 C   0  0  2  0  0  0
   11.6390  -40.6080   10.6110 N   0  0  0  0  0  0
   13.6350  -39.9990   11.8830 C   0  0  1  0  0  0
   12.7960  -39.5660   13.0550 C   0  0  0  0  0  0
   11.7440  -40.1560   13.2920 O   0  0  0  0  0  0
   14.0760  -41.4530   12.0820 C   0  0  0  0  0  0
   13.2290  -38.5210   13.7630 N   0  0  0  0  0  0
   12.4640  -37.9020   14.8320 C   0  0  2  0  0  0
   11.9180  -36.5350   14.4770 C   0  0  0  0  0  0
   11.0050  -36.1070   15.1710 O   0  0  0  0  0  0
   13.3110  -37.8050   16.0990 C   0  0  0  0  0  0
   13.3980  -39.1790   16.7750 C   0  0  0  0  0  0
   14.7530  -39.4040   17.4330 C   0  0  0  0  0  0
   15.8100  -39.4250   16.4400 N   0  0  0  0  0  0
   16.0010  -40.4560   15.6160 C   0  0  0  0  0  0
   16.9060  -40.3320   14.6470 N   0  3  0  0  0  0
   15.2750  -41.5720   15.7480 N   0  0  0  0  0  0
   12.4320  -35.8660   13.4320 N   0  0  0  0  0  0
   10.9160  -34.7280   11.8870 C   0  0  2  0  0  0
    9.6960  -35.3640   12.5130 C   0  0  0  0  0  0
    8.9490  -34.6540   13.1670 O   0  0  0  0  0  0
   11.9810  -34.5490   12.9820 C   0  0  2  0  0  0
   10.5350  -33.3900   11.2310 C   0  0  0  0  0  0
   15.3160  -31.0640   13.6660 C   0  0  0  0  0  0
   14.8440  -31.9680   12.7780 C   0  0  0  0  0  0
   13.6930  -32.7860   13.2210 C   0  0  0  0  0  0
   13.1460  -33.7320   12.4640 C   0  0  0  0  0  0
   15.1040  -28.2980   12.4520 C   0  0  0  0  0  0
   16.1410  -28.6830   13.5070 C   0  0  1  0  0  0
   16.4960  -30.1630   13.4000 C   0  0  1  0  0  0
   13.9240  -24.1460   12.5950 C   0  0  0  0  0  0
   14.6640  -24.6250   11.5230 C   0  0  0  0  0  0
   15.0410  -25.9680   11.4820 C   0  0  0  0  0  0
   14.7000  -26.8350   12.5180 C   0  0  0  0  0  0
   13.9630  -26.3440   13.5890 C   0  0  0  0  0  0
   13.5800  -25.0060   13.6290 C   0  0  0  0  0  0
   17.3420  -27.9350   13.3010 O   0  0  0  0  0  0
   17.5460  -26.9880   14.3570 C   0  0  0  0  0  0
   17.5930  -30.5230   14.4040 C   0  0  0  0  0  0
   15.4500  -32.1950   11.4130 C   0  0  0  0  0  0
    9.4710  -36.6710   12.3700 N   0  0  0  0  0  0
    8.2850  -37.3000   12.9610 C   0  0  1  0  0  0
    7.0000  -36.9960   12.2180 C   0  0  0  0  0  0
    5.9400  -36.8200   12.8710 O   0  5  0  0  0  0
    8.4360  -38.8250   13.1090 C   0  0  0  0  0  0
    8.5540  -39.5890   11.7970 C   0  0  0  0  0  0
    8.7680  -41.0720   12.0660 C   0  0  0  0  0  0
    8.4940  -41.5040   13.1840 O   0  0  0  0  0  0
    7.0280  -36.9290   10.9800 O   0  0  0  0  0  0
    9.2320  -41.8690   11.0950 N   0  0  0  0  0  0
    9.4540  -43.2860   11.3580 C   0  0  0  0  0  0
    9.4930  -41.3620    9.8620 C   0  0  0  0  0  0
   10.8040  -40.7380    9.5900 C   0  0  0  0  0  0
   11.1110  -40.3040    8.4830 O   0  0  0  0  0  0
    8.5360  -41.4430    8.9170 C   0  0  0  0  0  0
    7.1960  -42.0890    9.1950 C   0  0  0  0  0  0
   13.4338  -40.2104    9.7090 H   0  0  0  0  0  0
   11.3598  -41.1390   11.5330 H   0  0  0  0  0  0
   14.5262  -39.3556   11.8418 H   0  0  0  0  0  0
   14.6894  -41.7706   11.2259 H   0  0  0  0  0  0
   13.1884  -42.0984   12.1566 H   0  0  0  0  0  0
   14.6668  -41.5337   13.0064 H   0  0  0  0  0  0
   14.2226  -38.1293   13.4997 H   0  0  0  0  0  0
   11.6077  -38.5808   14.9581 H   0  0  0  0  0  0
   14.3238  -37.4643   15.8378 H   0  0  0  0  0  0
   12.8505  -37.0872   16.7938 H   0  0  0  0  0  0
   12.6217  -39.2559   17.5505 H   0  0  0  0  0  0
   13.2450  -39.9677   16.0236 H   0  0  0  0  0  0
   14.9532  -38.5916   18.1471 H   0  0  0  0  0  0
   14.7469  -40.3667   17.9651 H   0  0  0  0  0  0
   16.4926  -38.5677   16.3452 H   0  0  0  0  0  0
   17.4919  -39.4054   14.5569 H   0  0  0  0  0  0
   14.5328  -41.6530   16.5558 H   0  0  0  0  0  0
   15.4203  -42.4086   15.0487 H   0  0  0  0  0  0
   13.2488  -36.3782   12.9024 H   0  0  0  0  0  0
   11.3137  -35.3817   11.0968 H   0  0  0  0  0  0
   11.5645  -34.0357   13.8612 H   0  0  0  0  0  0
    9.7734  -33.5650   10.4568 H   0  0  0  0  0  0
   11.4274  -32.9393   10.7722 H   0  0  0  0  0  0
   10.1317  -32.7089   11.9948 H   0  0  0  0  0  0
   14.8337  -30.9546   14.6485 H   0  0  0  0  0  0
   13.2905  -32.5833   14.2244 H   0  0  0  0  0  0
   13.5394  -33.9250   11.4551 H   0  0  0  0  0  0
   15.5148  -28.4848   11.4488 H   0  0  0  0  0  0
   14.1950  -28.9010   12.5941 H   0  0  0  0  0  0
   15.7613  -28.4292   14.5077 H   0  0  0  0  0  0
   16.8257  -30.3278   12.3636 H   0  0  0  0  0  0
   13.6149  -23.1012   12.6248 H   0  0  0  0  0  0
   14.9504  -23.9530   10.7140 H   0  0  0  0  0  0
   15.6084  -26.3428   10.6302 H   0  0  0  0  0  0
   13.6827  -27.0114   14.4039 H   0  0  0  0  0  0
   13.0067  -24.6316   14.4771 H   0  0  0  0  0  0
   18.4748  -26.4281   14.1730 H   0  0  0  0  0  0
   17.6225  -27.5199   15.3168 H   0  0  0  0  0  0
   16.6973  -26.2891   14.3917 H   0  0  0  0  0  0
   17.8364  -31.5919   14.3135 H   0  0  0  0  0  0
   17.2397  -30.3125   15.4242 H   0  0  0  0  0  0
   18.4915  -29.9234   14.1960 H   0  0  0  0  0  0
   16.2883  -31.4986   11.2636 H   0  0  0  0  0  0
   14.6871  -32.0218   10.6397 H   0  0  0  0  0  0
   15.8159  -33.2299   11.3418 H   0  0  0  0  0  0
   10.1892  -37.2784   11.7998 H   0  0  0  0  0  0
    8.2419  -36.8091   13.9444 H   0  0  0  0  0  0
    9.3444  -39.0491   13.6874 H   0  0  0  0  0  0
    7.5582  -39.2313   13.6329 H   0  0  0  0  0  0
    7.6307  -39.4597   11.2131 H   0  0  0  0  0  0
    9.4083  -39.2015   11.2226 H   0  0  0  0  0  0
    9.1897  -43.5110   12.4018 H   0  0  0  0  0  0
   10.5132  -43.5290   11.1874 H   0  0  0  0  0  0
    8.8266  -43.8868   10.6832 H   0  0  0  0  0  0
    8.7188  -41.0334    7.9126 H   0  0  0  0  0  0
    6.5730  -42.0452    8.2895 H   0  0  0  0  0  0
    6.6928  -41.5522   10.0127 H   0  0  0  0  0  0
    7.3483  -43.1391    9.4848 H   0  0  0  0  0  0
   17.0676  -41.1562   13.9366 H   0  0  0  0  0  0
  1  2  2  0  0  0
  1  3  1  0  0  0
  1  4  1  0  0  0
  4  5  1  0  0  0
  4  6  1  0  0  0
  4 60  1  0  0  0
  5 56  1  0  0  0
  5 61  1  0  0  0
  6  7  1  0  0  0
  6  9  1  0  0  0
  6 62  1  0  0  0
  7  8  2  0  0  0
  7 10  1  0  0  0
  9 63  1  0  0  0
  9 64  1  0  0  0
  9 65  1  0  0  0
 10 11  1  0  0  0
 10 66  1  0  0  0
 11 12  1  0  0  0
 11 14  1  0  0  0
 11 67  1  0  0  0
 12 13  2  0  0  0
 12 21  1  0  0  0
 14 15  1  0  0  0
 14 68  1  0  0  0
 14 69  1  0  0  0
 15 16  1  0  0  0
 15 70  1  0  0  0
 15 71  1  0  0  0
 16 17  1  0  0  0
 16 72  1  0  0  0
 16 73  1  0  0  0
 17 18  1  0  0  0
 17 74  1  0  0  0
 18 19  2  0  0  0
 18 20  1  0  0  0
 19 75  1  0  0  0
 19118  1  0  0  0
 20 76  1  0  0  0
 20 77  1  0  0  0
 21 25  1  0  0  0
 21 78  1  0  0  0
 22 23  1  0  0  0
 22 25  1  0  0  0
 22 26  1  0  0  0
 22 79  1  0  0  0
 23 24  2  0  0  0
 23 44  1  0  0  0
 25 30  1  0  0  0
 25 80  1  0  0  0
 26 81  1  0  0  0
 26 82  1  0  0  0
 26 83  1  0  0  0
 27 28  2  0  0  0
 27 33  1  0  0  0
 27 84  1  0  0  0
 28 29  1  0  0  0
 28 43  1  0  0  0
 29 30  2  0  0  0
 29 85  1  0  0  0
 30 86  1  0  0  0
 31 32  1  0  0  0
 31 37  1  0  0  0
 31 87  1  0  0  0
 31 88  1  0  0  0
 32 33  1  0  0  0
 32 40  1  0  0  0
 32 89  1  0  0  0
 33 42  1  0  0  0
 33 90  1  0  0  0
 34 35  2  0  0  0
 34 39  1  0  0  0
 34 91  1  0  0  0
 35 36  1  0  0  0
 35 92  1  0  0  0
 36 37  2  0  0  0
 36 93  1  0  0  0
 37 38  1  0  0  0
 38 39  2  0  0  0
 38 94  1  0  0  0
 39 95  1  0  0  0
 40 41  1  0  0  0
 41 96  1  0  0  0
 41 97  1  0  0  0
 41 98  1  0  0  0
 42 99  1  0  0  0
 42100  1  0  0  0
 42101  1  0  0  0
 43102  1  0  0  0
 43103  1  0  0  0
 43104  1  0  0  0
 44 45  1  0  0  0
 44105  1  0  0  0
 45 46  1  0  0  0
 45 48  1  0  0  0
 45106  1  0  0  0
 46 47  1  0  0  0
 46 52  2  0  0  0
 48 49  1  0  0  0
 48107  1  0  0  0
 48108  1  0  0  0
 49 50  1  0  0  0
 49109  1  0  0  0
 49110  1  0  0  0
 50 51  2  0  0  0
 50 53  1  0  0  0
 53 54  1  0  0  0
 53 55  1  0  0  0
 54111  1  0  0  0
 54112  1  0  0  0
 54113  1  0  0  0
 55 56  1  0  0  0
 55 58  2  0  0  0
 56 57  2  0  0  0
 58 59  1  0  0  0
 58114  1  0  0  0
 59115  1  0  0  0
 59116  1  0  0  0
 59117  1  0  0  0
M  CHG  3   3  -1  19   1  47  -1
M  END
> <s_m_source_file>
../3e7a_ligand.sdf

> <i_m_source_file_index>
1

> <s_epik_input>
Tz1DKFtPSF0pW0NAQEhdMVtOSF1DKD1PKUMoPVtDSF1cW0NIM10pXE4oW0NIM10pQyg9TylbQ0gyXVtDSDJdW0NASF0oQyg9TylbT0hdKVtOSF1DKD1PKVtDQEBIXShbQ0gzXSlbQ0BASF0oW05IXUMoPU8pW0NAQEhdKFtOSF1DKD1PKVtDQEhdMVtDSDNdKVtDSDJdW0NIMl1bQ0gyXVtOSF0vQyg9TlxbSF0pW05IMl0pXFtDSF09W0NIXVxDKFtDSDNdKT1bQ0hdXFtDQEhdKFtDSDNdKVtDQEBIXShPW0NIM10pW0NIMl1jMltjSF1bY0hdW2NIXVtjSF1bY0hdMg==

> <s_epik_cmdline>
J2VwaWtfYXBwJywgJy1pbWFlJywgJ2xpZ2FuZF9wcm8ubWFlJywgJy1vbWFlJywgJ2xpZ2FuZF9wcmVwLm1hZScsICctbXMnLCAnMScsICctcGgnLCAnNycsICctcGh0JywgJzAuNScsICctbnQn

> <r_lp_tautomer_probability>
1

> <r_epik_Ionization_Penalty>
  0.0009

> <r_epik_Ionization_Penalty_Charging>
  0.0009

> <r_epik_Ionization_Penalty_Neutral>
  0.0000

> <r_epik_State_Penalty>
 -0.0000

> <r_epik_Charging_Adjusted_Penalty>
0.00093274907175022

> <i_epik_Tot_Q>
-1

> <i_epik_Tot_abs_Q>
3

> <s_epik_Chemistry_Notes>
This compound has an imine and may undergo hydrolysis.

$$$$
