3e7b_ligand
                    3D
 Schrodinger Suite 2020-3.
121122  0  0  1  0            999 V2000
   13.9280   23.1380  -11.2580 C   0  0  0  0  0  0
   13.7010   24.3980  -12.0840 C   0  0  0  0  0  0
   12.7870   25.1810  -11.8340 O   0  0  0  0  0  0
   14.6370   24.6850  -13.2570 C   0  0  1  0  0  0
   13.7810   24.9750  -14.5120 C   0  0  0  0  0  0
   15.5370   25.8560  -12.8640 C   0  0  0  0  0  0
   16.4830   25.4430  -11.7240 C   0  0  0  0  0  0
   17.3680   26.6320  -11.3220 C   0  0  2  0  0  0
   18.0570   27.0380  -12.5660 O   0  0  0  0  0  0
   18.4180   26.3790  -10.2190 C   0  0  2  0  0  0
   17.8110   25.8350   -8.9130 C   0  0  0  0  0  0
   19.2500   27.6560   -9.9860 C   0  0  0  0  0  0
   19.8650   28.1310  -11.3240 C   0  0  0  0  0  0
   18.8050   28.2640  -12.4230 C   0  0  2  0  0  0
   17.9860   29.3210  -12.0000 O   0  0  0  0  0  0
   19.4770   28.6040  -13.7710 C   0  0  0  0  0  0
   18.4710   29.0720  -14.8230 C   0  0  0  0  0  0
   17.5170   30.1410  -14.2760 C   0  0  2  0  0  0
   18.1280   31.5560  -14.2870 C   0  0  0  0  0  0
   16.9460   29.7210  -12.8910 C   0  0  2  0  0  0
   16.1720   30.8320  -12.1420 C   0  0  2  0  0  0
   15.7550   30.3540  -10.7300 C   0  0  0  0  0  0
   14.9440   31.2790  -12.9670 C   0  0  0  0  0  0
   14.0690   32.3050  -12.2490 C   0  0  0  0  0  0
   13.1600   33.0340  -13.2380 C   0  0  2  0  0  0
   13.9460   33.9670  -13.9960 O   0  0  0  0  0  0
   12.0750   33.7880  -12.4720 C   0  0  2  0  0  0
   11.0430   32.8090  -11.8300 C   0  0  0  0  0  0
   11.3640   34.7570  -13.4200 C   0  0  0  0  0  0
   10.8260   34.3740  -14.4720 O   0  0  0  0  0  0
   11.3880   36.2210  -13.0040 C   0  0  0  0  0  0
   10.6890   37.1660  -13.9680 C   0  0  1  0  0  0
   10.4790   38.4020  -13.2540 O   0  0  0  0  0  0
   11.4540   37.4310  -15.3030 C   0  0  2  0  0  0
   12.8660   37.8820  -15.0720 O   0  0  0  0  0  0
   12.9560   39.2520  -14.5730 C   0  0  0  0  0  0
   10.5650   38.4130  -16.1600 C   0  0  1  0  0  0
   10.6570   38.5320  -17.6980 C   0  0  0  0  0  0
   11.6630   37.5860  -18.3420 C   0  0  0  0  0  0
   10.7980   39.9760  -18.1430 C   0  0  0  0  0  0
    9.2300   37.8680  -16.2400 O   0  0  0  0  0  0
    8.1510   38.6330  -15.9900 C   0  0  0  0  0  0
    8.2160   39.8120  -15.6970 O   0  0  0  0  0  0
    6.7830   37.9230  -16.0600 C   0  0  0  0  0  0
    5.9040   38.1940  -14.8310 C   0  0  1  0  0  0
    4.6900   37.4410  -14.9840 O   0  0  0  0  0  0
    6.5880   37.6930  -13.5630 C   0  0  0  0  0  0
    6.8280   36.1770  -13.4250 C   0  0  0  0  0  0
    7.7500   35.7390  -12.7010 O   0  5  0  0  0  0
    6.0880   35.4340  -14.0890 O   0  0  0  0  0  0
    6.9410   38.5910  -12.5600 C   0  0  0  0  0  0
    6.7040   40.0950  -12.6590 C   0  0  0  0  0  0
    7.6040   38.0760  -11.3170 C   0  0  0  0  0  0
    6.8790   37.5990  -10.4120 O   0  5  0  0  0  0
    8.8480   38.1600  -11.2820 O   0  0  0  0  0  0
   13.1737   23.0823  -10.4593 H   0  0  0  0  0  0
   14.9330   23.1682  -10.8117 H   0  0  0  0  0  0
   13.8413   22.2538  -11.9066 H   0  0  0  0  0  0
   15.2882   23.8280  -13.4840 H   0  0  0  0  0  0
   13.1583   24.0978  -14.7418 H   0  0  0  0  0  0
   14.4417   25.1893  -15.3650 H   0  0  0  0  0  0
   13.1342   25.8441  -14.3218 H   0  0  0  0  0  0
   16.1359   26.1659  -13.7331 H   0  0  0  0  0  0
   14.9158   26.6991  -12.5274 H   0  0  0  0  0  0
   15.8909   25.1213  -10.8546 H   0  0  0  0  0  0
   17.1217   24.6128  -12.0601 H   0  0  0  0  0  0
   16.7194   27.4189  -10.9096 H   0  0  0  0  0  0
   19.0865   25.5801  -10.5723 H   0  0  0  0  0  0
   17.2287   24.9272   -9.1296 H   0  0  0  0  0  0
   17.1521   26.5963   -8.4699 H   0  0  0  0  0  0
   18.6185   25.5928   -8.2064 H   0  0  0  0  0  0
   18.6016   28.4474   -9.5821 H   0  0  0  0  0  0
   20.0571   27.4422   -9.2699 H   0  0  0  0  0  0
   20.3392   29.1132  -11.1813 H   0  0  0  0  0  0
   20.6200   27.4045  -11.6589 H   0  0  0  0  0  0
   20.2113   29.4093  -13.6218 H   0  0  0  0  0  0
   19.9865   27.7111  -14.1623 H   0  0  0  0  0  0
   19.0101   29.5013  -15.6804 H   0  0  0  0  0  0
   17.8681   28.2160  -15.1602 H   0  0  0  0  0  0
   16.6728   30.2038  -14.9784 H   0  0  0  0  0  0
   18.5093   31.7829  -15.2935 H   0  0  0  0  0  0
   18.9542   31.6043  -13.5624 H   0  0  0  0  0  0
   17.3565   32.2906  -14.0129 H   0  0  0  0  0  0
   16.3021   28.8510  -13.0872 H   0  0  0  0  0  0
   16.8349   31.7011  -12.0187 H   0  0  0  0  0  0
   16.6489   30.0434  -10.1692 H   0  0  0  0  0  0
   15.0645   29.5025  -10.8202 H   0  0  0  0  0  0
   15.2553   31.1764  -10.1972 H   0  0  0  0  0  0
   15.2817   31.7356  -13.9091 H   0  0  0  0  0  0
   14.3133   30.4054  -13.1884 H   0  0  0  0  0  0
   13.4423   31.7944  -11.5030 H   0  0  0  0  0  0
   14.7090   33.0446  -11.7457 H   0  0  0  0  0  0
   12.7160   32.3367  -13.9637 H   0  0  0  0  0  0
   14.7807   33.6072  -14.6155 H   0  0  0  0  0  0
   12.5668   34.3590  -11.6707 H   0  0  0  0  0  0
   11.5656   32.1185  -11.1516 H   0  0  0  0  0  0
   10.5406   32.2346  -12.6222 H   0  0  0  0  0  0
   10.2955   33.3839  -11.2637 H   0  0  0  0  0  0
   10.8892   36.3336  -12.0301 H   0  0  0  0  0  0
   12.4306   36.5623  -12.9236 H   0  0  0  0  0  0
    9.7134   36.7335  -14.2348 H   0  0  0  0  0  0
    9.9525   38.3966  -12.2882 H   0  0  0  0  0  0
   11.6458   36.5051  -15.8650 H   0  0  0  0  0  0
   14.0126   39.5197  -14.4253 H   0  0  0  0  0  0
   12.4208   39.3292  -13.6151 H   0  0  0  0  0  0
   12.5023   39.9386  -15.3029 H   0  0  0  0  0  0
   10.8026   39.3579  -15.6493 H   0  0  0  0  0  0
    9.6960   38.1868  -18.1070 H   0  0  0  0  0  0
   11.4959   36.5644  -17.9698 H   0  0  0  0  0  0
   12.6837   37.9070  -18.0866 H   0  0  0  0  0  0
   11.5356   37.6037  -19.4345 H   0  0  0  0  0  0
   10.0403   40.5915  -17.6361 H   0  0  0  0  0  0
   10.6540   40.0399  -19.2317 H   0  0  0  0  0  0
   11.8020   40.3432  -17.8838 H   0  0  0  0  0  0
    6.2340   38.2715  -16.9472 H   0  0  0  0  0  0
    6.9371   36.8360  -16.1278 H   0  0  0  0  0  0
    5.6593   39.2634  -14.7511 H   0  0  0  0  0  0
    4.0269   37.6345  -15.8401 H   0  0  0  0  0  0
    6.2142   40.3268  -13.6163 H   0  0  0  0  0  0
    7.6677   40.6225  -12.6030 H   0  0  0  0  0  0
    6.0593   40.4200  -11.8291 H   0  0  0  0  0  0
  1  2  1  0  0  0
  1 56  1  0  0  0
  1 57  1  0  0  0
  1 58  1  0  0  0
  2  3  2  0  0  0
  2  4  1  0  0  0
  4  5  1  0  0  0
  4  6  1  0  0  0
  4 59  1  0  0  0
  5 60  1  0  0  0
  5 61  1  0  0  0
  5 62  1  0  0  0
  6  7  1  0  0  0
  6 63  1  0  0  0
  6 64  1  0  0  0
  7  8  1  0  0  0
  7 65  1  0  0  0
  7 66  1  0  0  0
  8  9  1  0  0  0
  8 10  1  0  0  0
  8 67  1  0  0  0
  9 14  1  0  0  0
 10 11  1  0  0  0
 10 12  1  0  0  0
 10 68  1  0  0  0
 11 69  1  0  0  0
 11 70  1  0  0  0
 11 71  1  0  0  0
 12 13  1  0  0  0
 12 72  1  0  0  0
 12 73  1  0  0  0
 13 14  1  0  0  0
 13 74  1  0  0  0
 13 75  1  0  0  0
 14 15  1  0  0  0
 14 16  1  0  0  0
 15 20  1  0  0  0
 16 17  1  0  0  0
 16 76  1  0  0  0
 16 77  1  0  0  0
 17 18  1  0  0  0
 17 78  1  0  0  0
 17 79  1  0  0  0
 18 19  1  0  0  0
 18 20  1  0  0  0
 18 80  1  0  0  0
 19 81  1  0  0  0
 19 82  1  0  0  0
 19 83  1  0  0  0
 20 21  1  0  0  0
 20 84  1  0  0  0
 21 22  1  0  0  0
 21 23  1  0  0  0
 21 85  1  0  0  0
 22 86  1  0  0  0
 22 87  1  0  0  0
 22 88  1  0  0  0
 23 24  1  0  0  0
 23 89  1  0  0  0
 23 90  1  0  0  0
 24 25  1  0  0  0
 24 91  1  0  0  0
 24 92  1  0  0  0
 25 26  1  0  0  0
 25 27  1  0  0  0
 25 93  1  0  0  0
 26 94  1  0  0  0
 27 28  1  0  0  0
 27 29  1  0  0  0
 27 95  1  0  0  0
 28 96  1  0  0  0
 28 97  1  0  0  0
 28 98  1  0  0  0
 29 30  2  0  0  0
 29 31  1  0  0  0
 31 32  1  0  0  0
 31 99  1  0  0  0
 31100  1  0  0  0
 32 33  1  0  0  0
 32 34  1  0  0  0
 32101  1  0  0  0
 33102  1  0  0  0
 34 35  1  0  0  0
 34 37  1  0  0  0
 34103  1  0  0  0
 35 36  1  0  0  0
 36104  1  0  0  0
 36105  1  0  0  0
 36106  1  0  0  0
 37 38  1  0  0  0
 37 41  1  0  0  0
 37107  1  0  0  0
 38 39  1  0  0  0
 38 40  1  0  0  0
 38108  1  0  0  0
 39109  1  0  0  0
 39110  1  0  0  0
 39111  1  0  0  0
 40112  1  0  0  0
 40113  1  0  0  0
 40114  1  0  0  0
 41 42  1  0  0  0
 42 43  2  0  0  0
 42 44  1  0  0  0
 44 45  1  0  0  0
 44115  1  0  0  0
 44116  1  0  0  0
 45 46  1  0  0  0
 45 47  1  0  0  0
 45117  1  0  0  0
 46118  1  0  0  0
 47 48  1  0  0  0
 47 51  2  0  0  0
 48 49  1  0  0  0
 48 50  2  0  0  0
 51 52  1  0  0  0
 51 53  1  0  0  0
 52119  1  0  0  0
 52120  1  0  0  0
 52121  1  0  0  0
 53 54  1  0  0  0
 53 55  2  0  0  0
M  CHG  2  49  -1  54  -1
M  END
> <s_m_source_file>
../3e7b_ligand.sdf

> <i_m_source_file_index>
1

> <s_epik_input>
W0NIM11DKD1PKVtDQEBIXShbQ0gzXSlbQ0gyXVtDSDJdW0NAQEhdKFtDQEhdKFtDSDNdKVtDSDJdW0NIMl0xKU9bQ0BAXTEyT1tDQEhdKFtDQEBIXShbQ0gzXSlbQ0gyXVtDSDJdMilbQ0BIXShbQ0gzXSlbQ0gyXVtDSDJdW0NASF0oW09IXSlbQ0BIXShbQ0gzXSlDKD1PKVtDSDJdW0NAQEhdKFtPSF0pW0NASF0oT1tDSDNdKVtDQEBIXShbQ0hdKFtDSDNdKVtDSDNdKU9DKD1PKVtDSDJdW0NAQEhdKFtPSF0pL0MoQyg9TylbT0hdKT1DKFxbQ0gzXSlDKD1PKVtPSF0=

> <s_epik_cmdline>
J2VwaWtfYXBwJywgJy1pbWFlJywgJ2xpZ2FuZF9wcm8ubWFlJywgJy1vbWFlJywgJ2xpZ2FuZF9wcmVwLm1hZScsICctbXMnLCAnMScsICctcGgnLCAnNycsICctcGh0JywgJzAuNScsICctbnQn

> <r_lp_tautomer_probability>
1

> <r_epik_Ionization_Penalty>
  0.0039

> <r_epik_Ionization_Penalty_Charging>
  0.0039

> <r_epik_Ionization_Penalty_Neutral>
  0.0000

> <r_epik_State_Penalty>
 -0.0000

> <r_epik_Charging_Adjusted_Penalty>
0.00386257238611001

> <i_epik_Tot_Q>
-2

> <i_epik_Tot_abs_Q>
2

> <s_epik_Chemistry_Notes>
This compound has an ester and may undergo hydrolysis at high or low pH.

$$$$
