3e81_ligand
                    3D
 Schrodinger Suite 2020-3.
 39 39  0  0  1  0            999 V2000
  -28.5000   20.2250   -3.4890 C   0  0  0  0  0  0
  -29.2710   21.0650   -2.4920 C   0  0  1  0  0  0
  -28.9460   20.6030   -1.0640 C   0  0  0  0  0  0
  -29.9160   21.2590   -0.0580 C   0  0  1  0  0  0
  -31.3940   21.2690   -0.5250 C   0  0  2  0  0  0
  -31.4650   21.7450   -1.9850 C   0  0  2  0  0  0
  -32.8760   21.7710   -2.6160 C   0  0  1  0  0  0
  -32.7960   22.6730   -3.8930 C   0  0  1  0  0  0
  -33.9880   22.5670   -4.8770 C   0  0  0  0  0  0
  -33.2390   21.8870    1.0960 C   0  0  0  0  0  0
  -34.0140   22.9660    1.8630 C   0  0  0  0  0  0
  -32.1020   22.2720    0.2700 N   0  0  0  0  0  0
  -29.0760   19.0090   -3.8510 O   0  5  0  0  0  0
  -27.6320   20.7100   -4.1410 O   0  0  0  0  0  0
  -28.8850   22.4240   -2.6390 O   0  0  0  0  0  0
  -29.7670   20.6190    1.1900 O   0  0  0  0  0  0
  -30.6480   20.8910   -2.7920 O   0  0  0  0  0  0
  -33.2090   20.4270   -2.9010 O   0  0  0  0  0  0
  -32.6600   24.0130   -3.5060 O   0  0  0  0  0  0
  -34.0480   23.5830   -5.8810 O   0  0  0  0  0  0
  -33.4970   20.7360    1.2450 O   0  0  0  0  0  0
  -29.0466   19.5094   -1.0006 H   0  0  0  0  0  0
  -27.9152   20.8916   -0.8109 H   0  0  0  0  0  0
  -29.6243   22.3038    0.1248 H   0  0  0  0  0  0
  -31.8632   20.2830   -0.3921 H   0  0  0  0  0  0
  -31.0556   22.7658   -2.0022 H   0  0  0  0  0  0
  -33.6937   22.1015   -1.9586 H   0  0  0  0  0  0
  -31.8805   22.4054   -4.4410 H   0  0  0  0  0  0
  -33.9391   21.6060   -5.4100 H   0  0  0  0  0  0
  -34.9326   22.6278   -4.3166 H   0  0  0  0  0  0
  -33.6283   23.9591    1.5890 H   0  0  0  0  0  0
  -33.8878   22.8092    2.9444 H   0  0  0  0  0  0
  -35.0816   22.9035    1.6055 H   0  0  0  0  0  0
  -31.7768   23.3225    0.2461 H   0  0  0  0  0  0
  -27.8454   22.7248   -2.4424 H   0  0  0  0  0  0
  -28.7712   20.5351    1.6497 H   0  0  0  0  0  0
  -33.2950   19.6964   -2.0832 H   0  0  0  0  0  0
  -31.8650   24.3048   -2.8040 H   0  0  0  0  0  0
  -34.8637   23.5795   -6.6189 H   0  0  0  0  0  0
  1  2  1  0  0  0
  1 13  1  0  0  0
  1 14  2  0  0  0
  2  3  1  0  0  0
  2 15  1  0  0  0
  2 17  1  0  0  0
  3  4  1  0  0  0
  3 22  1  0  0  0
  3 23  1  0  0  0
  4  5  1  0  0  0
  4 16  1  0  0  0
  4 24  1  0  0  0
  5  6  1  0  0  0
  5 12  1  0  0  0
  5 25  1  0  0  0
  6  7  1  0  0  0
  6 17  1  0  0  0
  6 26  1  0  0  0
  7  8  1  0  0  0
  7 18  1  0  0  0
  7 27  1  0  0  0
  8  9  1  0  0  0
  8 19  1  0  0  0
  8 28  1  0  0  0
  9 20  1  0  0  0
  9 29  1  0  0  0
  9 30  1  0  0  0
 10 11  1  0  0  0
 10 12  1  0  0  0
 10 21  2  0  0  0
 11 31  1  0  0  0
 11 32  1  0  0  0
 11 33  1  0  0  0
 12 34  1  0  0  0
 15 35  1  0  0  0
 16 36  1  0  0  0
 18 37  1  0  0  0
 19 38  1  0  0  0
 20 39  1  0  0  0
M  CHG  1  13  -1
M  END
> <s_m_source_file>
../3e81_ligand.sdf

> <i_m_source_file_index>
1

> <s_epik_input>
W09IXUMoPU8pW0NAXTEoW09IXSlbQ0gyXVtDQEhdKFtPSF0pW0NAQEhdKFtOSF1DKD1PKVtDSDNdKVtDQEBIXShPMSlbQ0BIXShbT0hdKVtDQEhdKFtPSF0pW0NIMl1bT0hd

> <s_epik_cmdline>
J2VwaWtfYXBwJywgJy1pbWFlJywgJ2xpZ2FuZF9wcm8ubWFlJywgJy1vbWFlJywgJ2xpZ2FuZF9wcmVwLm1hZScsICctbXMnLCAnMScsICctcGgnLCAnNycsICctcGh0JywgJzAuNScsICctbnQn

> <r_lp_tautomer_probability>
1

> <r_epik_Ionization_Penalty>
  0.0000

> <r_epik_Ionization_Penalty_Charging>
  0.0000

> <r_epik_Ionization_Penalty_Neutral>
  0.0000

> <r_epik_State_Penalty>
 -0.0000

> <r_epik_Charging_Adjusted_Penalty>
2.59170082529691e-05

> <i_epik_Tot_Q>
-1

> <i_epik_Tot_abs_Q>
1

$$$$
