3e85_ligand
                    3D
 Schrodinger Suite 2020-3.
 28 29  0  0  1  0            999 V2000
   20.0150   12.6880   60.7570 N   0  0  0  0  0  0
   20.6020   11.5100   60.8660 C   0  0  0  0  0  0
   19.9630   10.8630   61.8650 N   0  0  0  0  0  0
   21.5090   11.0880   60.1930 O   0  0  0  0  0  0
   20.1010   13.8410   59.9490 C   0  0  0  0  0  0
   19.5200   15.0000   60.3920 C   0  0  0  0  0  0
   19.5260   16.1530   59.6680 C   0  0  0  0  0  0
   20.1360   16.1310   58.4610 C   0  0  0  0  0  0
   20.7300   14.9600   58.0100 C   0  0  0  0  0  0
   20.6930   13.7900   58.7530 C   0  0  0  0  0  0
   20.0470    9.6360   62.5500 C   0  0  0  0  0  0
   19.3300    9.6520   63.7120 C   0  0  0  0  0  0
   19.3030    8.5610   64.5240 C   0  0  0  0  0  0
   19.9860    7.4360   64.1890 C   0  0  0  0  0  0
   20.6990    7.4070   63.0340 C   0  0  0  0  0  0
   20.7440    8.5250   62.2070 C   0  0  0  0  0  0
   19.2038   12.9642   61.4466 H   0  0  0  0  0  0
   19.1076   11.3370   62.3686 H   0  0  0  0  0  0
   19.0317   14.9989   61.3665 H   0  0  0  0  0  0
   19.0564   17.0606   60.0472 H   0  0  0  0  0  0
   20.1611   17.0296   57.8445 H   0  0  0  0  0  0
   21.2390   14.9605   57.0461 H   0  0  0  0  0  0
   21.1298   12.8653   58.3759 H   0  0  0  0  0  0
   18.7743   10.5471   63.9914 H   0  0  0  0  0  0
   18.7291    8.5899   65.4502 H   0  0  0  0  0  0
   19.9619    6.5636   64.8420 H   0  0  0  0  0  0
   21.2391    6.5029   62.7530 H   0  0  0  0  0  0
   21.3347    8.5077   61.2911 H   0  0  0  0  0  0
  1  2  1  0  0  0
  1  5  1  0  0  0
  1 17  1  0  0  0
  2  3  1  0  0  0
  2  4  2  0  0  0
  3 11  1  0  0  0
  3 18  1  0  0  0
  5  6  2  0  0  0
  5 10  1  0  0  0
  6  7  1  0  0  0
  6 19  1  0  0  0
  7  8  2  0  0  0
  7 20  1  0  0  0
  8  9  1  0  0  0
  8 21  1  0  0  0
  9 10  2  0  0  0
  9 22  1  0  0  0
 10 23  1  0  0  0
 11 12  2  0  0  0
 11 16  1  0  0  0
 12 13  1  0  0  0
 12 24  1  0  0  0
 13 14  2  0  0  0
 13 25  1  0  0  0
 14 15  1  0  0  0
 14 26  1  0  0  0
 15 16  2  0  0  0
 15 27  1  0  0  0
 16 28  1  0  0  0
M  END
> <s_m_source_file>
../3e85_ligand.sdf

> <i_m_source_file_index>
1

> <s_epik_input>
W2NIXTFbY0hdW2NIXVtjSF1bY0hdYzFbTkhdQyg9TylbTkhdYzJbY0hdW2NIXVtjSF1bY0hdW2NIXTI=

> <s_epik_cmdline>
J2VwaWtfYXBwJywgJy1pbWFlJywgJ2xpZ2FuZF9wcm8ubWFlJywgJy1vbWFlJywgJ2xpZ2FuZF9wcmVwLm1hZScsICctbXMnLCAnMScsICctcGgnLCAnNycsICctcGh0JywgJzAuNScsICctbnQn

> <r_lp_tautomer_probability>
1

> <r_epik_Ionization_Penalty>
  0.0000

> <r_epik_Ionization_Penalty_Charging>
  0.0000

> <r_epik_Ionization_Penalty_Neutral>
  0.0000

> <r_epik_State_Penalty>
 -0.0000

> <r_epik_Charging_Adjusted_Penalty>
0

> <i_epik_Tot_Q>
0

> <i_epik_Tot_abs_Q>
0

$$$$
