3e8r_ligand
                    3D
 Schrodinger Suite 2020-3.
 60 64  0  0  1  0            999 V2000
    8.1340    8.2190   28.6130 C   0  0  0  0  0  0
    5.0770    3.3170   31.4650 C   0  0  0  0  0  0
   13.4820    5.7740   30.2850 C   0  0  0  0  0  0
    4.9560    7.3490   24.4140 C   0  0  0  0  0  0
    9.0120    7.4780   27.7950 C   0  0  0  0  0  0
    5.7360   11.6830   24.3030 N   0  0  0  0  0  0
    7.6880   10.5900   23.9850 O   0  0  0  0  0  0
    3.7850    7.6780   24.5340 O   0  0  0  0  0  0
    6.4560   10.6400   23.8480 C   0  0  0  0  0  0
    6.2520    4.0810   31.3460 C   0  0  0  0  0  0
    5.1380    1.9240   31.3310 C   0  0  0  0  0  0
    9.9050    3.6390   30.8550 N   0  0  0  0  0  0
    7.3150    7.6820   24.3630 C   0  0  0  0  0  0
    8.5130    8.4480   29.9020 O   0  0  0  0  0  0
    7.5830    7.8550   25.8490 C   0  0  0  0  0  0
    6.6790    8.5770   26.6570 C   0  0  0  0  0  0
    6.9650    8.7670   28.0320 C   0  0  0  0  0  0
    8.7430    7.2910   26.4290 C   0  0  0  0  0  0
    9.5920    7.9320   30.6490 C   0  0  0  0  0  0
    9.7830    6.4370   30.6740 C   0  0  0  0  0  0
    8.7160    4.2800   30.9370 C   0  0  0  0  0  0
    8.6270    5.6740   30.8560 C   0  0  0  0  0  0
   11.0430    4.3500   30.6770 C   0  0  0  0  0  0
   11.0380    5.7740   30.5760 C   0  0  0  0  0  0
   12.2590    6.4740   30.3830 C   0  0  0  0  0  0
   13.4900    4.3720   30.4020 C   0  0  0  0  0  0
   12.2820    3.6720   30.5950 C   0  0  0  0  0  0
    7.5000    3.4580   31.0980 C   0  0  0  0  0  0
    5.7290    9.6180   23.0260 C   0  0  2  0  0  0
    6.0180    8.2850   23.8760 C   0  0  2  0  0  0
    5.5130    8.2540   22.4920 C   0  0  0  0  0  0
    6.4780   12.6700   25.0080 O   0  0  0  0  0  0
    5.3990    6.1410   24.7730 N   0  0  0  0  0  0
    7.5380    2.0500   30.9830 C   0  0  0  0  0  0
    6.3650    1.2870   31.1050 C   0  0  0  0  0  0
    4.1231    3.8068   31.6606 H   0  0  0  0  0  0
   14.4130    6.3163   30.1199 H   0  0  0  0  0  0
    9.9127    7.0440   28.2292 H   0  0  0  0  0  0
    4.6517   11.8053   24.1636 H   0  0  0  0  0  0
    6.2018    5.1653   31.4458 H   0  0  0  0  0  0
    4.2254    1.3323   31.4030 H   0  0  0  0  0  0
    8.1214    8.1595   23.7870 H   0  0  0  0  0  0
    7.2760    6.6099   24.1198 H   0  0  0  0  0  0
    5.7655    8.9864   26.2258 H   0  0  0  0  0  0
    6.2760    9.3425   28.6502 H   0  0  0  0  0  0
    9.4302    6.7096   25.8144 H   0  0  0  0  0  0
   10.5367    8.3347   30.2548 H   0  0  0  0  0  0
    9.4807    8.2240   31.7037 H   0  0  0  0  0  0
    7.6566    6.1642   30.9348 H   0  0  0  0  0  0
   12.2521    7.5615   30.3098 H   0  0  0  0  0  0
   14.4318    3.8264   30.3433 H   0  0  0  0  0  0
   12.3028    2.5857   30.6829 H   0  0  0  0  0  0
    5.3248   10.4642   22.4511 H   0  0  0  0  0  0
    4.4549    8.1310   22.2175 H   0  0  0  0  0  0
    6.1424    8.1046   21.6023 H   0  0  0  0  0  0
    5.9678   13.5559   25.4140 H   0  0  0  0  0  0
    4.6976    5.3950   25.1750 H   0  0  0  0  0  0
    6.4652    5.8922   24.6667 H   0  0  0  0  0  0
    8.4887    1.5502   30.7974 H   0  0  0  0  0  0
    6.4094    0.2009   31.0239 H   0  0  0  0  0  0
  1  5  2  0  0  0
  1 14  1  0  0  0
  1 17  1  0  0  0
  2 10  2  0  0  0
  2 11  1  0  0  0
  2 36  1  0  0  0
  3 25  2  0  0  0
  3 26  1  0  0  0
  3 37  1  0  0  0
  4  8  2  0  0  0
  4 30  1  0  0  0
  4 33  1  0  0  0
  5 18  1  0  0  0
  5 38  1  0  0  0
  6  9  1  0  0  0
  6 32  1  0  0  0
  6 39  1  0  0  0
  7  9  2  0  0  0
  9 29  1  0  0  0
 10 28  1  0  0  0
 10 40  1  0  0  0
 11 35  2  0  0  0
 11 41  1  0  0  0
 12 21  1  0  0  0
 12 23  2  0  0  0
 13 15  1  0  0  0
 13 30  1  0  0  0
 13 42  1  0  0  0
 13 43  1  0  0  0
 14 19  1  0  0  0
 15 16  1  0  0  0
 15 18  2  0  0  0
 16 17  2  0  0  0
 16 44  1  0  0  0
 17 45  1  0  0  0
 18 46  1  0  0  0
 19 20  1  0  0  0
 19 47  1  0  0  0
 19 48  1  0  0  0
 20 22  1  0  0  0
 20 24  2  0  0  0
 21 22  2  0  0  0
 21 28  1  0  0  0
 22 49  1  0  0  0
 23 24  1  0  0  0
 23 27  1  0  0  0
 24 25  1  0  0  0
 25 50  1  0  0  0
 26 27  2  0  0  0
 26 51  1  0  0  0
 27 52  1  0  0  0
 28 34  2  0  0  0
 29 30  1  0  0  0
 29 31  1  0  0  0
 29 53  1  0  0  0
 30 31  1  0  0  0
 31 54  1  0  0  0
 31 55  1  0  0  0
 32 56  1  0  0  0
 33 57  1  0  0  0
 33 58  1  0  0  0
 34 35  1  0  0  0
 34 59  1  0  0  0
 35 60  1  0  0  0
M  END
> <s_m_source_file>
../3e8r_ligand.sdf

> <i_m_source_file_index>
1

> <s_epik_input>
W09IXVtOSF1DKD1PKVtDQEBIXShbQ0gyXTEpW0NAXTEoQyg9TylbTkgyXSlbQ0gyXWMoW2NIXVtjSF0yKVtjSF1bY0hdYzJPW0NIMl1jKGMoYzM0KVtjSF1bY0hdW2NIXVtjSF00KVtjSF1jKG4zKS1jNVtjSF1bY0hdW2NIXVtjSF1bY0hdNQ==

> <s_epik_cmdline>
J2VwaWtfYXBwJywgJy1pbWFlJywgJ2xpZ2FuZF9wcm8ubWFlJywgJy1vbWFlJywgJ2xpZ2FuZF9wcmVwLm1hZScsICctbXMnLCAnMScsICctcGgnLCAnNycsICctcGh0JywgJzAuNScsICctbnQn

> <r_lp_tautomer_probability>
1

> <r_epik_Ionization_Penalty>
  0.0074

> <r_epik_Ionization_Penalty_Charging>
  0.0000

> <r_epik_Ionization_Penalty_Neutral>
  0.0074

> <r_epik_State_Penalty>
 -0.0000

> <r_epik_Charging_Adjusted_Penalty>
0

> <i_epik_Tot_Q>
0

> <i_epik_Tot_abs_Q>
0

> <s_epik_Chemistry_Notes>
This compound has a N-S or N-O group and may undergo hydrolysis at high or low pH.

$$$$
