3e8u_ligand
                    3D
 Schrodinger Suite 2020-3.
128128  0  0  1  0            999 V2000
   23.6090   30.5110   45.1100 C   0  0  0  0  0  0
   23.7700   31.5340   46.2310 C   0  0  0  0  0  0
   24.7790   32.2540   46.2890 O   0  0  0  0  0  0
   22.7720   31.6080   47.1080 N   0  0  0  0  0  0
   22.7900   32.5030   48.2660 C   0  0  2  0  0  0
   22.2310   31.7590   49.4800 C   0  0  0  0  0  0
   21.0410   31.4630   49.5400 O   0  0  0  0  0  0
   21.9430   33.7970   48.0250 C   0  0  0  0  0  0
   22.0180   34.7140   49.2180 C   0  0  0  0  0  0
   22.4180   34.5390   46.7990 C   0  0  0  0  0  0
   23.0810   31.4590   50.4550 N   0  0  0  0  0  0
   22.5790   30.8800   51.6910 C   0  0  2  0  0  0
   21.9970   31.9450   52.6240 C   0  0  0  0  0  0
   20.7690   32.0850   52.7300 O   0  0  0  0  0  0
   23.6400   30.0090   52.3850 C   0  0  0  0  0  0
   23.8210   28.6210   51.7450 C   0  0  0  0  0  0
   22.5610   27.7820   51.7840 C   0  0  0  0  0  0
   21.6630   28.0210   52.6020 O   0  0  0  0  0  0
   22.4940   26.7750   50.9140 N   0  0  0  0  0  0
   22.8650   32.7050   53.2830 N   0  0  0  0  0  0
   22.4180   33.7540   54.1860 C   0  0  0  0  0  0
   22.1440   35.0330   53.4300 C   0  0  0  0  0  0
   22.9660   35.4780   52.6230 O   0  0  0  0  0  0
   20.9710   35.6200   53.6870 N   0  0  0  0  0  0
   20.6260   36.8990   53.0950 C   0  0  2  0  0  0
   21.3200   38.0310   53.8530 C   0  0  0  0  0  0
   21.5550   37.9250   55.0610 O   0  0  0  0  0  0
   19.1060   37.1070   53.0930 C   0  0  0  0  0  0
   18.7920   38.3650   52.5380 O   0  0  0  0  0  0
   21.6460   39.1010   53.1270 N   0  0  0  0  0  0
   22.1950   40.3170   53.7110 C   0  0  0  0  0  0
   23.3750   40.0640   54.6250 C   0  0  0  0  0  0
   24.3400   39.4170   54.2240 O   0  0  0  0  0  0
   23.2740   40.5400   55.8650 N   0  0  0  0  0  0
   24.3340   40.3660   56.8710 C   0  0  2  0  0  0
   24.8280   38.9270   57.0440 C   0  0  0  0  0  0
   26.0010   38.7080   57.3290 O   0  0  0  0  0  0
   23.8910   40.9430   58.2090 C   0  0  0  0  0  0
   23.9460   37.9510   56.8590 N   0  0  0  0  0  0
   24.3050   36.5380   57.0220 C   0  0  2  0  0  0
   25.1230   35.9470   55.8730 C   0  0  0  0  0  0
   25.7090   34.8690   56.0230 O   0  0  0  0  0  0
   23.0520   35.6840   57.2600 C   0  0  0  0  0  0
   22.3680   35.9680   58.5690 C   0  0  0  0  0  0
   21.2420   36.7780   58.6170 C   0  0  0  0  0  0
   22.8580   35.4250   59.7580 C   0  0  0  0  0  0
   20.6100   37.0500   59.8180 C   0  0  0  0  0  0
   22.2330   35.6850   60.9700 C   0  0  0  0  0  0
   21.1060   36.4960   61.0030 C   0  0  0  0  0  0
   25.1400   36.6340   54.7310 N   0  0  0  0  0  0
   25.9210   36.2080   53.5730 C   0  0  0  0  0  0
   27.2940   36.8540   53.5330 C   0  0  0  0  0  0
   28.0210   36.7250   52.5370 O   0  0  0  0  0  0
   27.6530   37.5320   54.6230 N   0  0  0  0  0  0
   28.9470   38.2040   54.7470 C   0  0  2  0  0  0
   30.0430   37.2060   55.1310 C   0  0  0  0  0  0
   30.9820   36.9940   54.3570 O   0  0  0  0  0  0
   28.8730   39.3720   55.7360 C   0  0  0  0  0  0
   28.2840   40.6400   55.1240 C   0  0  0  0  0  0
   27.9040   41.6720   56.1850 C   0  0  0  0  0  0
   26.8830   42.5940   55.6800 N   0  0  0  0  0  0
   26.2330   43.4900   56.4170 C   0  0  0  0  0  0
   26.4870   43.6320   57.7210 N   0  0  0  0  0  0
   25.3250   44.2570   55.8420 N   0  3  0  0  0  0
   29.9130   36.5840   56.3060 N   0  0  0  0  0  0
   24.4915   30.5437   44.4542 H   0  0  0  0  0  0
   22.7082   30.7473   44.5246 H   0  0  0  0  0  0
   23.5112   29.5047   45.5433 H   0  0  0  0  0  0
   21.9046   30.9551   46.9309 H   0  0  0  0  0  0
   23.8507   32.7600   48.4038 H   0  0  0  0  0  0
   20.8896   33.5218   47.8682 H   0  0  0  0  0  0
   21.6729   34.1782   50.1146 H   0  0  0  0  0  0
   21.3779   35.5920   49.0464 H   0  0  0  0  0  0
   23.0580   35.0413   49.3640 H   0  0  0  0  0  0
   22.3653   33.8738   45.9245 H   0  0  0  0  0  0
   23.4574   34.8666   46.9485 H   0  0  0  0  0  0
   21.7773   35.4172   46.6308 H   0  0  0  0  0  0
   24.1582   31.6455   50.3327 H   0  0  0  0  0  0
   21.7545   30.2303   51.3624 H   0  0  0  0  0  0
   24.6150   30.5166   52.3441 H   0  0  0  0  0  0
   23.3536   29.8492   53.4350 H   0  0  0  0  0  0
   24.1113   28.7385   50.6905 H   0  0  0  0  0  0
   24.6064   28.0691   52.2822 H   0  0  0  0  0  0
   23.3187   26.6036   50.2065 H   0  0  0  0  0  0
   21.6140   26.1151   50.9033 H   0  0  0  0  0  0
   23.9405   32.5282   53.1348 H   0  0  0  0  0  0
   21.4934   33.4350   54.6894 H   0  0  0  0  0  0
   23.1972   33.9470   54.9381 H   0  0  0  0  0  0
   20.2618   35.1164   54.3604 H   0  0  0  0  0  0
   20.9953   36.8522   52.0599 H   0  0  0  0  0  0
   18.6287   36.3177   52.4936 H   0  0  0  0  0  0
   18.7284   37.0624   54.1252 H   0  0  0  0  0  0
   17.7423   38.6838   52.4567 H   0  0  0  0  0  0
   21.4835   39.0372   52.0409 H   0  0  0  0  0  0
   22.5361   40.9876   52.9085 H   0  0  0  0  0  0
   21.4187   40.8214   54.3051 H   0  0  0  0  0  0
   22.3525   41.0815   56.1250 H   0  0  0  0  0  0
   25.1739   40.9387   56.4507 H   0  0  0  0  0  0
   23.5400   41.9755   58.0649 H   0  0  0  0  0  0
   24.7394   40.9385   58.9092 H   0  0  0  0  0  0
   23.0737   40.3318   58.6193 H   0  0  0  0  0  0
   22.9201   38.2286   56.5754 H   0  0  0  0  0  0
   24.9587   36.5643   57.9063 H   0  0  0  0  0  0
   22.3213   35.8743   56.4601 H   0  0  0  0  0  0
   23.3282   34.6193   57.2586 H   0  0  0  0  0  0
   20.8494   37.2065   57.6948 H   0  0  0  0  0  0
   23.7427   34.7887   59.7345 H   0  0  0  0  0  0
   19.7300   37.6928   59.8404 H   0  0  0  0  0  0
   22.6250   35.2546   61.8915 H   0  0  0  0  0  0
   20.6086   36.7006   61.9510 H   0  0  0  0  0  0
   24.5368   37.5525   54.6799 H   0  0  0  0  0  0
   26.0592   35.1172   53.6052 H   0  0  0  0  0  0
   25.3888   36.4831   52.6505 H   0  0  0  0  0  0
   26.9298   37.5742   55.4508 H   0  0  0  0  0  0
   29.1649   38.6061   53.7466 H   0  0  0  0  0  0
   28.2398   39.0897   56.5901 H   0  0  0  0  0  0
   29.8846   39.6142   56.0938 H   0  0  0  0  0  0
   29.0225   41.0993   54.4505 H   0  0  0  0  0  0
   27.3774   40.3857   54.5553 H   0  0  0  0  0  0
   27.5060   41.1568   57.0717 H   0  0  0  0  0  0
   28.7946   42.2527   56.4673 H   0  0  0  0  0  0
   26.6036   42.5761   54.6162 H   0  0  0  0  0  0
   27.2421   42.9965   58.2066 H   0  0  0  0  0  0
   25.9410   44.3845   58.3089 H   0  0  0  0  0  0
   25.1107   44.1456   54.7688 H   0  0  0  0  0  0
   29.0559   36.8115   56.9569 H   0  0  0  0  0  0
   30.6631   35.8443   56.6227 H   0  0  0  0  0  0
   24.7828   45.0074   56.4361 H   0  0  0  0  0  0
  1  2  1  0  0  0
  1 66  1  0  0  0
  1 67  1  0  0  0
  1 68  1  0  0  0
  2  3  2  0  0  0
  2  4  1  0  0  0
  4  5  1  0  0  0
  4 69  1  0  0  0
  5  6  1  0  0  0
  5  8  1  0  0  0
  5 70  1  0  0  0
  6  7  2  0  0  0
  6 11  1  0  0  0
  8  9  1  0  0  0
  8 10  1  0  0  0
  8 71  1  0  0  0
  9 72  1  0  0  0
  9 73  1  0  0  0
  9 74  1  0  0  0
 10 75  1  0  0  0
 10 76  1  0  0  0
 10 77  1  0  0  0
 11 12  1  0  0  0
 11 78  1  0  0  0
 12 13  1  0  0  0
 12 15  1  0  0  0
 12 79  1  0  0  0
 13 14  2  0  0  0
 13 20  1  0  0  0
 15 16  1  0  0  0
 15 80  1  0  0  0
 15 81  1  0  0  0
 16 17  1  0  0  0
 16 82  1  0  0  0
 16 83  1  0  0  0
 17 18  2  0  0  0
 17 19  1  0  0  0
 19 84  1  0  0  0
 19 85  1  0  0  0
 20 21  1  0  0  0
 20 86  1  0  0  0
 21 22  1  0  0  0
 21 87  1  0  0  0
 21 88  1  0  0  0
 22 23  2  0  0  0
 22 24  1  0  0  0
 24 25  1  0  0  0
 24 89  1  0  0  0
 25 26  1  0  0  0
 25 28  1  0  0  0
 25 90  1  0  0  0
 26 27  2  0  0  0
 26 30  1  0  0  0
 28 29  1  0  0  0
 28 91  1  0  0  0
 28 92  1  0  0  0
 29 93  1  0  0  0
 30 31  1  0  0  0
 30 94  1  0  0  0
 31 32  1  0  0  0
 31 95  1  0  0  0
 31 96  1  0  0  0
 32 33  2  0  0  0
 32 34  1  0  0  0
 34 35  1  0  0  0
 34 97  1  0  0  0
 35 36  1  0  0  0
 35 38  1  0  0  0
 35 98  1  0  0  0
 36 37  2  0  0  0
 36 39  1  0  0  0
 38 99  1  0  0  0
 38100  1  0  0  0
 38101  1  0  0  0
 39 40  1  0  0  0
 39102  1  0  0  0
 40 41  1  0  0  0
 40 43  1  0  0  0
 40103  1  0  0  0
 41 42  2  0  0  0
 41 50  1  0  0  0
 43 44  1  0  0  0
 43104  1  0  0  0
 43105  1  0  0  0
 44 45  2  0  0  0
 44 46  1  0  0  0
 45 47  1  0  0  0
 45106  1  0  0  0
 46 48  2  0  0  0
 46107  1  0  0  0
 47 49  2  0  0  0
 47108  1  0  0  0
 48 49  1  0  0  0
 48109  1  0  0  0
 49110  1  0  0  0
 50 51  1  0  0  0
 50111  1  0  0  0
 51 52  1  0  0  0
 51112  1  0  0  0
 51113  1  0  0  0
 52 53  2  0  0  0
 52 54  1  0  0  0
 54 55  1  0  0  0
 54114  1  0  0  0
 55 56  1  0  0  0
 55 58  1  0  0  0
 55115  1  0  0  0
 56 57  2  0  0  0
 56 65  1  0  0  0
 58 59  1  0  0  0
 58116  1  0  0  0
 58117  1  0  0  0
 59 60  1  0  0  0
 59118  1  0  0  0
 59119  1  0  0  0
 60 61  1  0  0  0
 60120  1  0  0  0
 60121  1  0  0  0
 61 62  1  0  0  0
 61122  1  0  0  0
 62 63  1  0  0  0
 62 64  2  0  0  0
 63123  1  0  0  0
 63124  1  0  0  0
 64125  1  0  0  0
 64128  1  0  0  0
 65126  1  0  0  0
 65127  1  0  0  0
M  CHG  1  64   1
M  END
> <s_m_source_file>
../3e8u_ligand.sdf

> <i_m_source_file_index>
1

> <s_epik_input>
W0NIM11DKD1PKVtOSF1bQ0BASF0oW0NIXShbQ0gzXSlbQ0gzXSlDKD1PKVtOSF1bQ0BASF0oW0NIMl1bQ0gyXUMoPU8pW05IMl0pQyg9TylbTkhdW0NIMl1DKD1PKVtOSF1bQ0BASF0oW0NIMl1bT0hdKUMoPU8pW05IXVtDSDJdQyg9TylbTkhdW0NAQEhdKFtDSDNdKUMoPU8pW05IXVtDQEBIXShbQ0gyXWMxW2NIXVtjSF1bY0hdW2NIXVtjSF0xKUMoPU8pW05IXVtDSDJdQyg9TylbTkhdW0NASF0oQyg9TylbTkgyXSlbQ0gyXVtDSDJdW0NIMl1bTkhdL0MoW05IMl0pPU5cW0hd

> <s_epik_cmdline>
J2VwaWtfYXBwJywgJy1pbWFlJywgJ2xpZ2FuZF9wcm8ubWFlJywgJy1vbWFlJywgJ2xpZ2FuZF9wcmVwLm1hZScsICctbXMnLCAnMScsICctcGgnLCAnNycsICctcGh0JywgJzAuNScsICctbnQn

> <r_lp_tautomer_probability>
1

> <r_epik_Ionization_Penalty>
  0.0000

> <r_epik_Ionization_Penalty_Charging>
  0.0000

> <r_epik_Ionization_Penalty_Neutral>
  0.0000

> <r_epik_State_Penalty>
 -0.0000

> <r_epik_Charging_Adjusted_Penalty>
2.79368778836538e-06

> <i_epik_Tot_Q>
1

> <i_epik_Tot_abs_Q>
1

> <s_epik_Chemistry_Notes>
This compound has an imine and may undergo hydrolysis.

$$$$
