3e90_ligand
                    3D
 Schrodinger Suite 2020-3.
 90 91  0  0  1  0            999 V2000
   16.9910   58.7350   -0.5730 C   0  0  0  0  0  0
   15.1660   51.4250    0.1540 C   0  0  0  0  0  0
   15.4690   50.5030   -0.8410 C   0  0  0  0  0  0
   15.0810   50.7400   -2.1550 C   0  0  0  0  0  0
   15.3920   49.8190   -3.1490 C   0  0  0  0  0  0
   16.0880   48.6570   -2.8340 C   0  0  0  0  0  0
   16.4790   48.4200   -1.5210 C   0  0  0  0  0  0
   16.1710   49.3440   -0.5280 C   0  0  0  0  0  0
   16.5720   49.1130    0.7830 C   0  0  0  0  0  0
   16.2720   50.0370    1.7770 C   0  0  0  0  0  0
   15.5660   51.1940    1.4660 C   0  0  0  0  0  0
   15.2060   52.1840    2.5740 C   0  0  0  0  0  0
   14.2570   52.9580    2.4540 O   0  0  0  0  0  0
   15.9570   52.0940    3.6690 N   0  0  0  0  0  0
   15.7630   52.9680    4.8340 C   0  0  1  0  0  0
   16.4950   52.3530    6.0280 C   0  0  0  0  0  0
   15.8570   50.9950    6.3250 C   0  0  0  0  0  0
   16.6260   50.1950    7.3780 C   0  0  0  0  0  0
   16.6660   50.9100    8.7290 C   0  0  0  0  0  0
   17.3890   50.0580    9.6840 N   0  3  0  0  0  0
   16.2880   54.3670    4.5010 C   0  0  0  0  0  0
   15.9460   55.3560    5.1470 O   0  0  0  0  0  0
   17.1210   54.4160    3.4670 N   0  0  0  0  0  0
   17.6880   55.6800    2.9750 C   0  0  1  0  0  0
   19.2180   55.6610    3.0160 C   0  0  0  0  0  0
   19.7770   55.6920    4.4410 C   0  0  0  0  0  0
   21.3060   55.7440    4.4180 C   0  0  0  0  0  0
   21.8950   55.7890    5.8290 C   0  0  0  0  0  0
   21.4030   56.9860    6.5240 N   0  3  0  0  0  0
   17.2370   55.8540    1.5250 C   0  0  0  0  0  0
   17.2280   54.9030    0.7460 O   0  0  0  0  0  0
   16.8380   57.0820    1.2050 N   0  0  0  0  0  0
   16.3850   57.3950   -0.1550 C   0  0  1  0  0  0
   16.5940   59.0040   -1.9190 O   0  0  0  0  0  0
   14.8550   57.4420   -0.1720 C   0  0  0  0  0  0
   14.3260   56.1390    0.4320 C   0  0  0  0  0  0
   12.8010   56.0220    0.4560 C   0  0  0  0  0  0
   12.4850   54.6830    0.9750 N   0  0  0  0  0  0
   11.2300   54.2510    1.0370 C   0  0  0  0  0  0
   10.9830   53.0230    1.4860 N   0  0  0  0  0  0
   10.2380   55.0370    0.6310 N   0  3  0  0  0  0
   16.6237   59.5279    0.0951 H   0  0  0  0  0  0
   18.0875   58.6783   -0.5064 H   0  0  0  0  0  0
   14.6136   52.3312   -0.0944 H   0  0  0  0  0  0
   14.5328   51.6481   -2.4059 H   0  0  0  0  0  0
   15.0892   50.0084   -4.1788 H   0  0  0  0  0  0
   16.3263   47.9341   -3.6142 H   0  0  0  0  0  0
   17.0262   47.5113   -1.2701 H   0  0  0  0  0  0
   17.1226   48.2058    1.0317 H   0  0  0  0  0  0
   16.5910   49.8542    2.8031 H   0  0  0  0  0  0
   16.7474   51.3291    3.6808 H   0  0  0  0  0  0
   14.6884   53.0347    5.0591 H   0  0  0  0  0  0
   17.5593   52.2267    5.7802 H   0  0  0  0  0  0
   16.3978   53.0172    6.8995 H   0  0  0  0  0  0
   14.8334   51.1447    6.6989 H   0  0  0  0  0  0
   15.8267   50.3947    5.4037 H   0  0  0  0  0  0
   16.1416   49.2180    7.5221 H   0  0  0  0  0  0
   17.6618   50.0443    7.0398 H   0  0  0  0  0  0
   17.1837   51.8743    8.6183 H   0  0  0  0  0  0
   15.6389   51.0837    9.0825 H   0  0  0  0  0  0
   17.4281   50.5567   10.6637 H   0  0  0  0  0  0
   18.4123   49.8852    9.3194 H   0  0  0  0  0  0
   16.8676   49.0946    9.7836 H   0  0  0  0  0  0
   17.3832   53.4674    2.9756 H   0  0  0  0  0  0
   17.3193   56.4787    3.6354 H   0  0  0  0  0  0
   19.5864   54.7446    2.5318 H   0  0  0  0  0  0
   19.6100   56.5400    2.4835 H   0  0  0  0  0  0
   19.3978   56.5821    4.9643 H   0  0  0  0  0  0
   19.4591   54.7870    4.9794 H   0  0  0  0  0  0
   21.6957   54.8496    3.9099 H   0  0  0  0  0  0
   21.6342   56.6445    3.8783 H   0  0  0  0  0  0
   21.5881   54.8898    6.3833 H   0  0  0  0  0  0
   22.9927   55.8248    5.7672 H   0  0  0  0  0  0
   21.8255   57.0202    7.5391 H   0  0  0  0  0  0
   20.3053   56.9495    6.5847 H   0  0  0  0  0  0
   21.7098   57.8845    5.9686 H   0  0  0  0  0  0
   16.8506   57.8675    1.9750 H   0  0  0  0  0  0
   16.7319   56.6040   -0.8362 H   0  0  0  0  0  0
   16.9257   59.9275   -2.4161 H   0  0  0  0  0  0
   14.5079   58.3006    0.4217 H   0  0  0  0  0  0
   14.5029   57.5468   -1.2088 H   0  0  0  0  0  0
   14.7024   55.2854   -0.1508 H   0  0  0  0  0  0
   14.6692   56.0517    1.4735 H   0  0  0  0  0  0
   12.3837   56.8023    1.1094 H   0  0  0  0  0  0
   12.4075   56.1483   -0.5634 H   0  0  0  0  0  0
   13.2937   54.0217    1.3195 H   0  0  0  0  0  0
   11.8125   52.3820    1.8192 H   0  0  0  0  0  0
    9.9493   52.6488    1.5240 H   0  0  0  0  0  0
   10.4550   56.0502    0.2619 H   0  0  0  0  0  0
    9.2001   54.6742    0.6641 H   0  0  0  0  0  0
  1 33  1  0  0  0
  1 34  1  0  0  0
  1 42  1  0  0  0
  1 43  1  0  0  0
  2  3  2  0  0  0
  2 11  1  0  0  0
  2 44  1  0  0  0
  3  4  1  0  0  0
  3  8  1  0  0  0
  4  5  2  0  0  0
  4 45  1  0  0  0
  5  6  1  0  0  0
  5 46  1  0  0  0
  6  7  2  0  0  0
  6 47  1  0  0  0
  7  8  1  0  0  0
  7 48  1  0  0  0
  8  9  2  0  0  0
  9 10  1  0  0  0
  9 49  1  0  0  0
 10 11  2  0  0  0
 10 50  1  0  0  0
 11 12  1  0  0  0
 12 13  2  0  0  0
 12 14  1  0  0  0
 14 15  1  0  0  0
 14 51  1  0  0  0
 15 16  1  0  0  0
 15 21  1  0  0  0
 15 52  1  0  0  0
 16 17  1  0  0  0
 16 53  1  0  0  0
 16 54  1  0  0  0
 17 18  1  0  0  0
 17 55  1  0  0  0
 17 56  1  0  0  0
 18 19  1  0  0  0
 18 57  1  0  0  0
 18 58  1  0  0  0
 19 20  1  0  0  0
 19 59  1  0  0  0
 19 60  1  0  0  0
 20 61  1  0  0  0
 20 62  1  0  0  0
 20 63  1  0  0  0
 21 22  2  0  0  0
 21 23  1  0  0  0
 23 24  1  0  0  0
 23 64  1  0  0  0
 24 25  1  0  0  0
 24 30  1  0  0  0
 24 65  1  0  0  0
 25 26  1  0  0  0
 25 66  1  0  0  0
 25 67  1  0  0  0
 26 27  1  0  0  0
 26 68  1  0  0  0
 26 69  1  0  0  0
 27 28  1  0  0  0
 27 70  1  0  0  0
 27 71  1  0  0  0
 28 29  1  0  0  0
 28 72  1  0  0  0
 28 73  1  0  0  0
 29 74  1  0  0  0
 29 75  1  0  0  0
 29 76  1  0  0  0
 30 31  2  0  0  0
 30 32  1  0  0  0
 32 33  1  0  0  0
 32 77  1  0  0  0
 33 35  1  0  0  0
 33 78  1  0  0  0
 34 79  1  0  0  0
 35 36  1  0  0  0
 35 80  1  0  0  0
 35 81  1  0  0  0
 36 37  1  0  0  0
 36 82  1  0  0  0
 36 83  1  0  0  0
 37 38  1  0  0  0
 37 84  1  0  0  0
 37 85  1  0  0  0
 38 39  1  0  0  0
 38 86  1  0  0  0
 39 40  1  0  0  0
 39 41  2  0  0  0
 40 87  1  0  0  0
 40 88  1  0  0  0
 41 89  1  0  0  0
 41 90  1  0  0  0
M  CHG  3  20   1  29   1  41   1
M  END
> <s_m_source_file>
../3e90_ligand.sdf

> <i_m_source_file_index>
1

> <s_epik_input>
W0hdL049QyhbTkgyXSlcW05IXVtDSDJdW0NIMl1bQ0gyXVtDQEBIXShbQ0gyXVtPSF0pW05IXUMoPU8pW0NASF0oW0NIMl1bQ0gyXVtDSDJdW0NIMl1bTkgzK10pW05IXUMoPU8pW0NASF0oW0NIMl1bQ0gyXVtDSDJdW0NIMl1bTkgzK10pW05IXUMoPU8pYyhbY0hdMSlbY0hdW2NIXWMoYzEyKVtjSF1bY0hdW2NIXVtjSF0y

> <s_epik_cmdline>
J2VwaWtfYXBwJywgJy1pbWFlJywgJ2xpZ2FuZF9wcm8ubWFlJywgJy1vbWFlJywgJ2xpZ2FuZF9wcmVwLm1hZScsICctbXMnLCAnMScsICctcGgnLCAnNycsICctcGh0JywgJzAuNScsICctbnQn

> <r_lp_tautomer_probability>
1

> <r_epik_Ionization_Penalty>
  0.0009

> <r_epik_Ionization_Penalty_Charging>
  0.0009

> <r_epik_Ionization_Penalty_Neutral>
  0.0000

> <r_epik_State_Penalty>
 -0.0000

> <r_epik_Charging_Adjusted_Penalty>
0.000887345894719346

> <i_epik_Tot_Q>
3

> <i_epik_Tot_abs_Q>
3

> <s_epik_Chemistry_Notes>
This compound has an imine and may undergo hydrolysis.

$$$$
