3e9h_ligand
                    3D
 Schrodinger Suite 2020-3.
 59 61  0  0  1  0            999 V2000
   64.8430  -69.9910   18.2400 N   0  3  0  0  0  0
   64.0810  -71.0990   17.6400 C   0  0  0  0  0  0
   63.0500  -71.6520   18.6350 C   0  0  0  0  0  0
   63.7320  -72.2000   19.8940 C   0  0  0  0  0  0
   62.7420  -72.7220   20.9390 C   0  0  0  0  0  0
   61.8320  -71.6480   21.5450 C   0  0  2  0  0  0
   62.6210  -70.8160   22.4620 N   0  3  0  0  0  0
   60.7660  -72.4000   22.3480 C   0  0  0  0  0  0
   60.7320  -72.3210   23.5740 O   0  5  0  0  0  0
   59.7400  -72.8250   21.6180 N   0  0  0  0  0  0
   58.6040  -73.7910   22.2650 S   0  0  0  0  0  0
   57.7440  -72.9160   23.1250 O   0  0  0  0  0  0
   57.7850  -74.4570   21.2020 O   0  0  0  0  0  0
   59.1630  -74.7450   23.1820 O   0  0  0  0  0  0
   59.9080  -75.8670   22.6780 C   0  0  0  0  0  0
   59.2320  -77.2300   22.8540 C   0  0  1  0  0  0
   59.1960  -77.6220   24.2290 O   0  0  0  0  0  0
   57.8010  -77.3940   22.3390 C   0  0  1  0  0  0
   57.8480  -77.6920   20.9410 O   0  0  0  0  0  0
   57.3610  -78.6540   23.0910 C   0  0  1  0  0  0
   57.7530  -79.8570   22.4210 O   0  0  0  0  0  0
   58.1100  -78.5470   24.4200 C   0  0  2  0  0  0
   57.2860  -78.0090   25.5280 N   0  0  0  0  0  0
   56.8560  -76.7560   25.6530 C   0  0  0  0  0  0
   56.1920  -76.6310   26.8010 N   0  0  0  0  0  0
   56.1930  -77.8140   27.4100 C   0  0  0  0  0  0
   56.8960  -78.6930   26.6010 C   0  0  0  0  0  0
   57.0450  -79.9690   26.9910 N   0  0  0  0  0  0
   56.5320  -80.4060   28.1300 C   0  0  0  0  0  0
   55.8500  -79.5900   28.9190 N   0  0  0  0  0  0
   55.6580  -78.3010   28.5980 C   0  0  0  0  0  0
   54.9410  -77.5080   29.3910 N   0  0  0  0  0  0
   65.5739  -69.6115   17.5108 H   0  0  0  0  0  0
   65.3713  -70.3517   19.1349 H   0  0  0  0  0  0
   64.1530  -69.1822   18.5225 H   0  0  0  0  0  0
   63.5527  -70.7383   16.7451 H   0  0  0  0  0  0
   64.7709  -71.9078   17.3574 H   0  0  0  0  0  0
   62.3594  -70.8489   18.9317 H   0  0  0  0  0  0
   62.4829  -72.4665   18.1607 H   0  0  0  0  0  0
   64.3943  -73.0340   19.6187 H   0  0  0  0  0  0
   64.3239  -71.4026   20.3670 H   0  0  0  0  0  0
   62.0853  -73.4746   20.4782 H   0  0  0  0  0  0
   63.2956  -73.1794   21.7723 H   0  0  0  0  0  0
   61.4026  -70.9737   20.7893 H   0  0  0  0  0  0
   63.3897  -70.2717   21.8938 H   0  0  0  0  0  0
   63.1054  -71.4567   23.2135 H   0  0  0  0  0  0
   61.9590  -70.0962   22.9656 H   0  0  0  0  0  0
   60.0786  -75.7389   21.5989 H   0  0  0  0  0  0
   60.8757  -75.9278   23.1975 H   0  0  0  0  0  0
   59.8907  -77.9020   22.2844 H   0  0  0  0  0  0
   57.1459  -76.5142   22.4217 H   0  0  0  0  0  0
   58.1442  -76.9136   20.2224 H   0  0  0  0  0  0
   56.2687  -78.7673   23.1553 H   0  0  0  0  0  0
   57.3175  -80.1086   21.4427 H   0  0  0  0  0  0
   58.4675  -79.5424   24.7224 H   0  0  0  0  0  0
   57.0211  -75.9574   24.9297 H   0  0  0  0  0  0
   56.6721  -81.4470   28.4213 H   0  0  0  0  0  0
   54.7883  -76.4527   29.1208 H   0  0  0  0  0  0
   54.5012  -77.9080   30.3165 H   0  0  0  0  0  0
  1  2  1  0  0  0
  1 33  1  0  0  0
  1 34  1  0  0  0
  1 35  1  0  0  0
  2  3  1  0  0  0
  2 36  1  0  0  0
  2 37  1  0  0  0
  3  4  1  0  0  0
  3 38  1  0  0  0
  3 39  1  0  0  0
  4  5  1  0  0  0
  4 40  1  0  0  0
  4 41  1  0  0  0
  5  6  1  0  0  0
  5 42  1  0  0  0
  5 43  1  0  0  0
  6  7  1  0  0  0
  6  8  1  0  0  0
  6 44  1  0  0  0
  7 45  1  0  0  0
  7 46  1  0  0  0
  7 47  1  0  0  0
  8  9  1  0  0  0
  8 10  2  0  0  0
 10 11  1  0  0  0
 11 12  2  0  0  0
 11 13  2  0  0  0
 11 14  1  0  0  0
 14 15  1  0  0  0
 15 16  1  0  0  0
 15 48  1  0  0  0
 15 49  1  0  0  0
 16 17  1  0  0  0
 16 18  1  0  0  0
 16 50  1  0  0  0
 17 22  1  0  0  0
 18 19  1  0  0  0
 18 20  1  0  0  0
 18 51  1  0  0  0
 19 52  1  0  0  0
 20 21  1  0  0  0
 20 22  1  0  0  0
 20 53  1  0  0  0
 21 54  1  0  0  0
 22 23  1  0  0  0
 22 55  1  0  0  0
 23 24  1  0  0  0
 23 27  1  0  0  0
 24 25  2  0  0  0
 24 56  1  0  0  0
 25 26  1  0  0  0
 26 27  2  0  0  0
 26 31  1  0  0  0
 27 28  1  0  0  0
 28 29  2  0  0  0
 29 30  1  0  0  0
 29 57  1  0  0  0
 30 31  2  0  0  0
 31 32  1  0  0  0
 32 58  1  0  0  0
 32 59  1  0  0  0
M  CHG  3   1   1   7   1   9  -1
M  END
> <s_m_source_file>
../3e9h_ligand.sdf

> <i_m_source_file_index>
1

> <s_epik_input>
W05IMytdW0NIMl1bQ0gyXVtDSDJdW0NIMl1bQ0BIXShbTkgzK10pQyg9TylbTkhdUyg9TykoPU8pT1tDSDJdW0NASF0xT1tDQEhdKFtDQEhdKFtPSF0pW0NAQEhdMVtPSF0pbihbY0hdbjIpYyhjMjMpbltjSF1uYzNbTkgyXQ==

> <s_epik_cmdline>
J2VwaWtfYXBwJywgJy1pbWFlJywgJ2xpZ2FuZF9wcm8ubWFlJywgJy1vbWFlJywgJ2xpZ2FuZF9wcmVwLm1hZScsICctbXMnLCAnMScsICctcGgnLCAnNycsICctcGh0JywgJzAuNScsICctbnQn

> <r_lp_tautomer_probability>
0.999997216410988

> <r_epik_Ionization_Penalty>
  0.0240

> <r_epik_Ionization_Penalty_Charging>
  0.0235

> <r_epik_Ionization_Penalty_Neutral>
  0.0004

> <r_epik_State_Penalty>
  0.0186

> <r_epik_Charging_Adjusted_Penalty>
0.0421571062586506

> <i_epik_Tot_Q>
1

> <i_epik_Tot_abs_Q>
3

> <s_epik_Chemistry_Notes>
This compound contains an acetal/aminal-like group ( X-CH(R)-Y where X, Y are N, S, or O) that may be acid/base labile, releasing an aldehyde.

$$$$
