3e9i_ligand
                    3D
 Schrodinger Suite 2020-3.
 61 63  0  0  1  0            999 V2000
   64.2030  -73.4430   18.1720 N   0  3  0  0  0  0
   63.4370  -74.5700   17.6200 C   0  0  0  0  0  0
   62.3550  -75.0020   18.6140 C   0  0  0  0  0  0
   62.9540  -75.5590   19.9080 C   0  0  0  0  0  0
   61.8650  -75.9390   20.9160 C   0  0  0  0  0  0
   61.1230  -74.7010   21.4260 C   0  0  2  0  0  0
   62.0770  -73.8450   22.1450 N   0  3  0  0  0  0
   59.9970  -75.0750   22.3930 C   0  0  0  0  0  0
   59.9690  -74.5900   23.5210 O   0  0  0  0  0  0
   59.0870  -75.9450   21.9620 N   0  0  0  0  0  0
   58.0850  -76.2490   22.8320 O   0  0  0  0  0  0
   57.0800  -77.3790   22.2840 P   0  0  1  0  0  0
   55.7530  -77.0850   22.8690 O   0  5  0  0  0  0
   57.1950  -77.4990   20.8140 O   0  0  0  0  0  0
   57.6650  -78.7120   22.9730 O   0  0  0  0  0  0
   58.5860  -79.5580   22.2790 C   0  0  0  0  0  0
   58.2740  -81.0200   22.6020 C   0  0  1  0  0  0
   58.3940  -81.2900   24.0080 O   0  0  0  0  0  0
   56.8090  -81.3070   22.2780 C   0  0  1  0  0  0
   56.7000  -81.5850   20.8790 O   0  0  0  0  0  0
   56.6310  -82.5950   23.0790 C   0  0  1  0  0  0
   57.2690  -83.6890   22.4130 O   0  0  0  0  0  0
   57.3930  -82.2620   24.3650 C   0  0  2  0  0  0
   56.5420  -81.6380   25.4050 N   0  0  0  0  0  0
   56.1160  -80.3770   25.4220 C   0  0  0  0  0  0
   55.4550  -80.1410   26.5540 N   0  0  0  0  0  0
   55.4570  -81.2640   27.2660 C   0  0  0  0  0  0
   56.1450  -82.2210   26.5330 C   0  0  0  0  0  0
   56.2910  -83.4560   27.0330 N   0  0  0  0  0  0
   55.7890  -83.7740   28.2140 C   0  0  0  0  0  0
   55.1320  -82.8860   28.9390 N   0  0  0  0  0  0
   54.9460  -81.6290   28.5060 C   0  0  0  0  0  0
   54.3010  -80.7440   29.2620 N   0  0  0  0  0  0
   64.9776  -73.1388   17.4526 H   0  0  0  0  0  0
   64.6787  -73.7500   19.1151 H   0  0  0  0  0  0
   63.5258  -72.5971   18.3612 H   0  0  0  0  0  0
   62.9613  -74.2630   16.6769 H   0  0  0  0  0  0
   64.1142  -75.4159   17.4308 H   0  0  0  0  0  0
   61.7268  -74.1365   18.8712 H   0  0  0  0  0  0
   61.7312  -75.7856   18.1593 H   0  0  0  0  0  0
   63.5456  -76.4581   19.6809 H   0  0  0  0  0  0
   63.6031  -74.7995   20.3682 H   0  0  0  0  0  0
   61.1377  -76.6094   20.4347 H   0  0  0  0  0  0
   62.3231  -76.4511   21.7750 H   0  0  0  0  0  0
   60.7077  -74.1502   20.5692 H   0  0  0  0  0  0
   62.8976  -73.5623   21.4691 H   0  0  0  0  0  0
   62.4844  -74.3936   23.0070 H   0  0  0  0  0  0
   61.5630  -72.9384   22.4970 H   0  0  0  0  0  0
   59.1113  -76.4117   20.9662 H   0  0  0  0  0  0
   58.4911  -79.3925   21.1957 H   0  0  0  0  0  0
   59.6121  -79.3220   22.5974 H   0  0  0  0  0  0
   58.9982  -81.6544   22.0699 H   0  0  0  0  0  0
   56.0729  -80.5078   22.4492 H   0  0  0  0  0  0
   56.8024  -80.7705   20.1468 H   0  0  0  0  0  0
   55.5938  -82.9414   23.1980 H   0  0  0  0  0  0
   56.8600  -84.0702   21.4657 H   0  0  0  0  0  0
   57.8337  -83.1715   24.7992 H   0  0  0  0  0  0
   56.2829  -79.6477   24.6293 H   0  0  0  0  0  0
   55.9194  -84.7864   28.5963 H   0  0  0  0  0  0
   54.1527  -79.7159   28.9000 H   0  0  0  0  0  0
   53.9162  -81.0405   30.2489 H   0  0  0  0  0  0
  1  2  1  0  0  0
  1 34  1  0  0  0
  1 35  1  0  0  0
  1 36  1  0  0  0
  2  3  1  0  0  0
  2 37  1  0  0  0
  2 38  1  0  0  0
  3  4  1  0  0  0
  3 39  1  0  0  0
  3 40  1  0  0  0
  4  5  1  0  0  0
  4 41  1  0  0  0
  4 42  1  0  0  0
  5  6  1  0  0  0
  5 43  1  0  0  0
  5 44  1  0  0  0
  6  7  1  0  0  0
  6  8  1  0  0  0
  6 45  1  0  0  0
  7 46  1  0  0  0
  7 47  1  0  0  0
  7 48  1  0  0  0
  8  9  2  0  0  0
  8 10  1  0  0  0
 10 11  1  0  0  0
 10 49  1  0  0  0
 11 12  1  0  0  0
 12 13  1  0  0  0
 12 14  2  0  0  0
 12 15  1  0  0  0
 15 16  1  0  0  0
 16 17  1  0  0  0
 16 50  1  0  0  0
 16 51  1  0  0  0
 17 18  1  0  0  0
 17 19  1  0  0  0
 17 52  1  0  0  0
 18 23  1  0  0  0
 19 20  1  0  0  0
 19 21  1  0  0  0
 19 53  1  0  0  0
 20 54  1  0  0  0
 21 22  1  0  0  0
 21 23  1  0  0  0
 21 55  1  0  0  0
 22 56  1  0  0  0
 23 24  1  0  0  0
 23 57  1  0  0  0
 24 25  1  0  0  0
 24 28  1  0  0  0
 25 26  2  0  0  0
 25 58  1  0  0  0
 26 27  1  0  0  0
 27 28  2  0  0  0
 27 32  1  0  0  0
 28 29  1  0  0  0
 29 30  2  0  0  0
 30 31  1  0  0  0
 30 59  1  0  0  0
 31 32  2  0  0  0
 32 33  1  0  0  0
 33 60  1  0  0  0
 33 61  1  0  0  0
M  CHG  3   1   1   7   1  13  -1
M  END
> <s_m_source_file>
../3e9i_ligand.sdf

> <i_m_source_file_index>
1

> <s_epik_input>
W05IMytdW0NIMl1bQ0gyXVtDSDJdW0NIMl1bQ0BIXShbTkgzK10pQyg9TylbTkhdT1tQQF0oPU8pKFtPSF0pT1tDSDJdW0NASF0xT1tDQEhdKFtDQEhdKFtPSF0pW0NAQEhdMVtPSF0pbihbY0hdbjIpYyhjMjMpbltjSF1uYzNbTkgyXQ==

> <s_epik_cmdline>
J2VwaWtfYXBwJywgJy1pbWFlJywgJ2xpZ2FuZF9wcm8ubWFlJywgJy1vbWFlJywgJ2xpZ2FuZF9wcmVwLm1hZScsICctbXMnLCAnMScsICctcGgnLCAnNycsICctcGh0JywgJzAuNScsICctbnQn

> <r_lp_tautomer_probability>
0.999997216410988

> <r_epik_Ionization_Penalty>
  0.2310

> <r_epik_Ionization_Penalty_Charging>
  0.2302

> <r_epik_Ionization_Penalty_Neutral>
  0.0007

> <r_epik_State_Penalty>
  0.2202

> <r_epik_Charging_Adjusted_Penalty>
0.450434947990147

> <i_epik_Tot_Q>
1

> <i_epik_Tot_abs_Q>
3

> <s_epik_Chemistry_Notes>
This compound contains an acetal/aminal-like group ( X-CH(R)-Y where X, Y are N, S, or O) that may be acid/base labile, releasing an aldehyde. This compound has a N-S or N-O group and may undergo hydrolysis at high or low pH.

$$$$
