3eax_ligand
                    3D
 Schrodinger Suite 2020-3.
 84 88  0  0  1  0            999 V2000
   39.0610   20.1840   66.4650 C   0  0  0  0  0  0
   38.0960   19.7160   67.4540 C   0  0  0  0  0  0
   37.7250   18.1870   67.5110 C   0  0  0  0  0  0
   38.3640   17.2550   66.5610 C   0  0  0  0  0  0
   39.3540   17.7090   65.5410 C   0  0  1  0  0  0
   39.6880   19.2530   65.5270 C   0  0  0  0  0  0
   40.0220   16.6860   64.5380 C   0  0  0  0  0  0
   41.2770   14.8760   65.9010 C   0  0  0  0  0  0
   42.5290   15.6950   66.0930 C   0  0  0  0  0  0
   43.6310   15.2590   66.9610 C   0  0  0  0  0  0
   43.5380   13.9930   67.6780 C   0  0  0  0  0  0
   42.3310   13.1270   67.5400 C   0  0  0  0  0  0
   41.2360   13.5900   66.6570 C   0  0  0  0  0  0
   42.2480   11.8010   68.2990 C   0  0  0  0  0  0
   42.4710   11.7870   69.8560 C   0  0  0  0  0  0
   43.7370   11.0780   70.4450 C   0  0  0  0  0  0
   44.1490   11.3840   71.9140 C   0  0  0  0  0  0
   45.0980   13.0140   73.7520 C   0  0  0  0  0  0
   44.6430   14.5040   74.1230 C   0  0  0  0  0  0
   43.8990   15.0420   71.7230 C   0  0  0  0  0  0
   44.8680   13.8480   71.3220 C   0  0  0  0  0  0
   44.6740   12.6730   72.3020 N   0  0  0  0  0  0
   43.4830   14.9040   73.1750 N   0  0  0  0  0  0
   40.1960   15.3090   65.0470 O   0  0  0  0  0  0
   42.0070   10.7380   67.7150 O   0  5  0  0  0  0
   44.3940   10.2750   69.7640 O   0  0  0  0  0  0
   44.0090   10.4560   72.7380 O   0  0  0  0  0  0
   42.1980   15.1260   73.7160 C   0  0  0  0  0  0
   41.0070   15.4920   72.7960 C   0  0  0  0  0  0
   39.6280   14.8530   73.1470 C   0  0  0  0  0  0
   39.3660   13.3290   72.8740 C   0  0  0  0  0  0
   40.0130   12.5250   75.3030 C   0  0  0  0  0  0
   39.9440   12.2890   73.8450 C   0  0  0  0  0  0
   40.4600   10.9930   73.3220 C   0  0  0  0  0  0
   41.0160    9.9890   74.2310 C   0  0  0  0  0  0
   41.0700   10.2570   75.6720 C   0  0  0  0  0  0
   40.5690   11.5400   76.2730 C   0  0  0  0  0  0
   39.4760   12.0580   78.5290 C   0  0  0  0  0  0
   37.7170   14.1860   78.4040 C   0  0  0  0  0  0
   39.1490   13.5860   78.6920 C   0  0  0  0  0  0
   40.1980   14.5460   79.1300 C   0  0  0  0  0  0
   39.9270   15.9840   79.2900 C   0  0  0  0  0  0
   38.4840   16.5360   78.9900 C   0  0  0  0  0  0
   37.4390   15.6140   78.5600 C   0  0  0  0  0  0
   41.9550   15.0220   74.9460 O   0  0  0  0  0  0
   41.1340   16.2490   71.8240 O   0  5  0  0  0  0
   38.6990   12.9980   71.8830 O   0  0  0  0  0  0
   40.6430   11.7700   77.6880 O   0  0  0  0  0  0
   39.3264   21.2504   66.4173 H   0  0  0  0  0  0
   37.6340   20.4295   68.1522 H   0  0  0  0  0  0
   36.9994   17.8105   68.2470 H   0  0  0  0  0  0
   38.1151   16.1839   66.5897 H   0  0  0  0  0  0
   38.5373   17.8792   64.8240 H   0  0  0  0  0  0
   39.4437   19.5506   64.4966 H   0  0  0  0  0  0
   40.7791   19.2723   65.6653 H   0  0  0  0  0  0
   39.4034   16.6037   63.6322 H   0  0  0  0  0  0
   41.0261   17.0427   64.2651 H   0  0  0  0  0  0
   42.6194   16.6460   65.5680 H   0  0  0  0  0  0
   44.5186   15.8823   67.0691 H   0  0  0  0  0  0
   44.3587   13.6759   68.3215 H   0  0  0  0  0  0
   40.3537   12.9583   66.5538 H   0  0  0  0  0  0
   41.7411   12.2724   70.5205 H   0  0  0  0  0  0
   46.1917   12.9328   73.8366 H   0  0  0  0  0  0
   44.6230   12.3026   74.4436 H   0  0  0  0  0  0
   44.3048   14.5343   75.1693 H   0  0  0  0  0  0
   45.4928   15.1902   73.9924 H   0  0  0  0  0  0
   44.4212   16.0002   71.5848 H   0  0  0  0  0  0
   43.0032   15.0173   71.0851 H   0  0  0  0  0  0
   44.6349   13.5140   70.3002 H   0  0  0  0  0  0
   45.9118   14.1923   71.3661 H   0  0  0  0  0  0
   38.8320   15.4707   73.5885 H   0  0  0  0  0  0
   39.6363   13.4719   75.6897 H   0  0  0  0  0  0
   40.4232   10.7902   72.2517 H   0  0  0  0  0  0
   41.3893    9.0436   73.8374 H   0  0  0  0  0  0
   41.4892    9.4972   76.3316 H   0  0  0  0  0  0
   39.6786   11.6190   79.5170 H   0  0  0  0  0  0
   38.6175   11.5463   78.0695 H   0  0  0  0  0  0
   36.9187   13.5026   78.0790 H   0  0  0  0  0  0
   41.2155   14.1881   79.3460 H   0  0  0  0  0  0
   40.1202   16.2798   80.3317 H   0  0  0  0  0  0
   40.5826   16.5577   78.6184 H   0  0  0  0  0  0
   38.0753   17.0057   79.8968 H   0  0  0  0  0  0
   38.5371   17.2816   78.1830 H   0  0  0  0  0  0
   36.4317   16.0041   78.3522 H   0  0  0  0  0  0
  1  2  2  0  0  0
  1  6  1  0  0  0
  1 49  1  0  0  0
  2  3  1  0  0  0
  2 50  1  0  0  0
  3  4  2  0  0  0
  3 51  1  0  0  0
  4  5  1  0  0  0
  4 52  1  0  0  0
  5  6  1  0  0  0
  5  7  1  0  0  0
  5 53  1  0  0  0
  6 54  1  0  0  0
  6 55  1  0  0  0
  7 24  1  0  0  0
  7 56  1  0  0  0
  7 57  1  0  0  0
  8  9  2  0  0  0
  8 13  1  0  0  0
  8 24  1  0  0  0
  9 10  1  0  0  0
  9 58  1  0  0  0
 10 11  2  0  0  0
 10 59  1  0  0  0
 11 12  1  0  0  0
 11 60  1  0  0  0
 12 13  2  0  0  0
 12 14  1  0  0  0
 13 61  1  0  0  0
 14 15  2  0  0  0
 14 25  1  0  0  0
 15 16  1  0  0  0
 15 62  1  0  0  0
 16 17  1  0  0  0
 16 26  2  0  0  0
 17 22  1  0  0  0
 17 27  2  0  0  0
 18 19  1  0  0  0
 18 22  1  0  0  0
 18 63  1  0  0  0
 18 64  1  0  0  0
 19 23  1  0  0  0
 19 65  1  0  0  0
 19 66  1  0  0  0
 20 21  1  0  0  0
 20 23  1  0  0  0
 20 67  1  0  0  0
 20 68  1  0  0  0
 21 22  1  0  0  0
 21 69  1  0  0  0
 21 70  1  0  0  0
 23 28  1  0  0  0
 28 29  1  0  0  0
 28 45  2  0  0  0
 29 30  2  0  0  0
 29 46  1  0  0  0
 30 31  1  0  0  0
 30 71  1  0  0  0
 31 33  1  0  0  0
 31 47  2  0  0  0
 32 33  2  0  0  0
 32 37  1  0  0  0
 32 72  1  0  0  0
 33 34  1  0  0  0
 34 35  2  0  0  0
 34 73  1  0  0  0
 35 36  1  0  0  0
 35 74  1  0  0  0
 36 37  2  0  0  0
 36 75  1  0  0  0
 37 48  1  0  0  0
 38 40  1  0  0  0
 38 48  1  0  0  0
 38 76  1  0  0  0
 38 77  1  0  0  0
 39 40  1  0  0  0
 39 44  2  0  0  0
 39 78  1  0  0  0
 40 41  2  0  0  0
 41 42  1  0  0  0
 41 79  1  0  0  0
 42 43  1  0  0  0
 42 80  1  0  0  0
 42 81  1  0  0  0
 43 44  1  0  0  0
 43 82  1  0  0  0
 43 83  1  0  0  0
 44 84  1  0  0  0
M  CHG  2  25  -1  46  -1
M  END
> <s_m_source_file>
../3eax_ligand.sdf

> <i_m_source_file_index>
1

> <s_epik_input>
W0NIMl0xW0NIXT1bQ0hdW0NIXT1bQ0hdW0NIXTFbQ0gyXU9jMltjSF1bY0hdW2NIXWMoW2NIXTIpQyg9TylbQ0gyXUMoPU8pQyg9TylOM1tDSDJdW0NIMl1OKFtDSDJdW0NIMl0zKUMoPU8pQyg9TylbQ0gyXUMoPU8pYzRbY0hdYyhbY0hdW2NIXVtjSF00KU9bQ0gyXUM1PVtDSF1bQ0gyXVtDSDJdW0NIXT1bQ0hdNQ==

> <s_epik_cmdline>
J2VwaWtfYXBwJywgJy1pbWFlJywgJ2xpZ2FuZF9wcm8ubWFlJywgJy1vbWFlJywgJ2xpZ2FuZF9wcmVwLm1hZScsICctbXMnLCAnMScsICctcGgnLCAnNycsICctcGh0JywgJzAuNScsICctbnQn

> <r_lp_tautomer_probability>
1

> <r_epik_Ionization_Penalty>
  0.1797

> <r_epik_Ionization_Penalty_Charging>
  0.1797

> <r_epik_Ionization_Penalty_Neutral>
  0.0000

> <r_epik_State_Penalty>
 -0.0000

> <r_epik_Charging_Adjusted_Penalty>
0.179731040866245

> <i_epik_Tot_Q>
-2

> <i_epik_Tot_abs_Q>
2

$$$$
