3eb1_ligand
                    3D
 Schrodinger Suite 2020-3.
 51 53  0  0  1  0            999 V2000
   45.7950   12.1820    2.5370 C   0  0  0  0  0  0
   45.9480   14.6770    2.4470 C   0  0  1  0  0  0
   47.5190   15.6020    4.2050 C   0  0  0  0  0  0
   48.3580   16.5460    4.6460 C   0  0  0  0  0  0
   49.3320   10.5080   -1.7620 C   0  0  0  0  0  0
   45.6650   10.4560   -3.5510 C   0  0  0  0  0  0
   47.0600   11.8680   -1.7400 N   0  0  0  0  0  0
   47.9190   17.9470    4.6180 O   0  5  0  0  0  0
   45.9150   10.8880    1.9000 C   0  0  0  0  0  0
   50.0300   10.3850   -0.4630 C   0  0  0  0  0  0
   45.3730   10.4520   -5.0080 C   0  0  0  0  0  0
   44.7160   14.9850    2.8530 O   0  0  0  0  0  0
   47.2810   14.6120    4.8970 O   0  0  0  0  0  0
   49.4750   16.2240    5.0680 O   0  0  0  0  0  0
   46.3250   10.7710    0.5060 C   0  0  0  0  0  0
   50.7470    9.1410   -0.1130 C   0  0  0  0  0  0
   45.0670    9.1890   -5.7110 C   0  0  0  0  0  0
   46.6270   11.9700   -0.2760 C   0  0  0  0  0  0
   50.7810    8.0080   -1.0460 C   0  0  0  0  0  0
   45.0480    7.9240   -4.9730 C   0  0  0  0  0  0
   46.5010   13.2990    0.3830 C   0  0  0  0  0  0
   50.0990    8.1100   -2.3370 C   0  0  0  0  0  0
   45.3350    7.9210   -3.5350 C   0  0  0  0  0  0
   46.0780   13.4110    1.8110 C   0  0  0  0  0  0
   49.3750    9.3550   -2.6990 C   0  0  0  0  0  0
   45.6420    9.1770   -2.8200 C   0  0  0  0  0  0
   46.8660   15.8140    2.7950 C   0  0  0  0  0  0
   48.5580   11.8510   -2.1390 C   0  0  0  0  0  0
   45.9870   11.8400   -2.8210 C   0  0  0  0  0  0
   45.4866   12.2371    3.5810 H   0  0  0  0  0  0
   46.1519   14.2086    3.4212 H   0  0  0  0  0  0
   45.6953    9.9864    2.4718 H   0  0  0  0  0  0
   50.0152   11.2175    0.2404 H   0  0  0  0  0  0
   45.3847   11.3898   -5.5634 H   0  0  0  0  0  0
   43.8901   14.2770    2.6899 H   0  0  0  0  0  0
   46.4068    9.7868    0.0447 H   0  0  0  0  0  0
   51.2559    9.0639    0.8478 H   0  0  0  0  0  0
   44.8551    9.1987   -6.7802 H   0  0  0  0  0  0
   51.3120    7.0945   -0.7783 H   0  0  0  0  0  0
   44.8220    6.9910   -5.4893 H   0  0  0  0  0  0
   46.7206   14.2032   -0.1848 H   0  0  0  0  0  0
   50.1225    7.2716   -3.0332 H   0  0  0  0  0  0
   45.3217    6.9794   -2.9861 H   0  0  0  0  0  0
   48.8696    9.4240   -3.6623 H   0  0  0  0  0  0
   45.8517    9.1573   -1.7505 H   0  0  0  0  0  0
   47.6664   15.8822    2.0435 H   0  0  0  0  0  0
   46.2957   16.7545    2.8095 H   0  0  0  0  0  0
   49.0326   12.7029   -1.6301 H   0  0  0  0  0  0
   48.5992   12.0048   -3.2274 H   0  0  0  0  0  0
   46.3232   12.5773   -3.5649 H   0  0  0  0  0  0
   45.0799   12.2107   -2.3213 H   0  0  0  0  0  0
  1  9  2  0  0  0
  1 24  1  0  0  0
  1 30  1  0  0  0
  2 12  1  0  0  0
  2 24  1  0  0  0
  2 27  1  0  0  0
  2 31  1  0  0  0
  3  4  1  0  0  0
  3 13  2  0  0  0
  3 27  1  0  0  0
  4  8  1  0  0  0
  4 14  2  0  0  0
  5 10  2  0  0  0
  5 25  1  0  0  0
  5 28  1  0  0  0
  6 11  2  0  0  0
  6 26  1  0  0  0
  6 29  1  0  0  0
  7 18  1  0  0  0
  7 28  1  0  0  0
  7 29  1  0  0  0
  9 15  1  0  0  0
  9 32  1  0  0  0
 10 16  1  0  0  0
 10 33  1  0  0  0
 11 17  1  0  0  0
 11 34  1  0  0  0
 12 35  1  0  0  0
 15 18  2  0  0  0
 15 36  1  0  0  0
 16 19  2  0  0  0
 16 37  1  0  0  0
 17 20  2  0  0  0
 17 38  1  0  0  0
 18 21  1  0  0  0
 19 22  1  0  0  0
 19 39  1  0  0  0
 20 23  1  0  0  0
 20 40  1  0  0  0
 21 24  2  0  0  0
 21 41  1  0  0  0
 22 25  2  0  0  0
 22 42  1  0  0  0
 23 26  2  0  0  0
 23 43  1  0  0  0
 25 44  1  0  0  0
 26 45  1  0  0  0
 27 46  1  0  0  0
 27 47  1  0  0  0
 28 48  1  0  0  0
 28 49  1  0  0  0
 29 50  1  0  0  0
 29 51  1  0  0  0
M  CHG  1   8  -1
M  END
> <s_m_source_file>
../3eb1_ligand.sdf

> <i_m_source_file_index>
1

> <s_epik_input>
W09IXUMoPU8pQyg9TylbQ0gyXVtDSF0oW09IXSljKFtjSF0xKVtjSF1bY0hdW2NIXWMxTihbQ0gyXWMyW2NIXVtjSF1bY0hdW2NIXVtjSF0yKVtDSDJdYzNbY0hdW2NIXVtjSF1bY0hdW2NIXTM=

> <s_epik_cmdline>
J2VwaWtfYXBwJywgJy1pbWFlJywgJ2xpZ2FuZF9wcm8ubWFlJywgJy1vbWFlJywgJ2xpZ2FuZF9wcmVwLm1hZScsICctbXMnLCAnMScsICctcGgnLCAnNycsICctcGh0JywgJzAuNScsICctbnQn

> <r_lp_tautomer_probability>
1

> <r_epik_Ionization_Penalty>
  0.0001

> <r_epik_Ionization_Penalty_Charging>
  0.0001

> <r_epik_Ionization_Penalty_Neutral>
  0.0000

> <r_epik_State_Penalty>
 -0.0000

> <r_epik_Charging_Adjusted_Penalty>
7.96413061038869e-05

> <i_epik_Tot_Q>
-1

> <i_epik_Tot_abs_Q>
1

$$$$
