3ebb_ligand
                    3D
 Schrodinger Suite 2020-3.
 62 62  0  0  1  0            999 V2000
    8.4020  -14.3700   33.6810 N   0  3  0  0  0  0
    9.2080  -14.6810   34.8950 C   0  0  2  0  0  0
   10.6930  -14.3150   34.7240 C   0  0  0  0  0  0
   11.4620  -14.2970   35.6940 O   0  0  0  0  0  0
    9.0610  -16.1650   35.2460 C   0  0  0  0  0  0
    9.0250  -16.4170   36.7540 C   0  0  0  0  0  0
    8.3940  -17.4210   37.1610 O   0  0  0  0  0  0
    9.6150  -15.6230   37.5290 O   0  5  0  0  0  0
   11.0860  -14.0170   33.4900 N   0  0  0  0  0  0
   12.4850  -13.7400   33.1640 C   0  0  2  0  0  0
   13.0690  -12.4520   33.7730 C   0  0  0  0  0  0
   14.2250  -12.4480   34.2100 O   0  0  0  0  0  0
   12.6700  -13.7380   31.6410 C   0  0  0  0  0  0
   13.0920  -15.0030   30.8720 C   0  0  0  0  0  0
   12.9670  -16.2920   31.6820 C   0  0  0  0  0  0
   12.3150  -15.0980   29.5740 C   0  0  0  0  0  0
   12.2770  -11.3780   33.8020 N   0  0  0  0  0  0
   12.7950  -10.0210   34.0590 C   0  0  2  0  0  0
   12.1860   -9.3340   35.2960 C   0  0  0  0  0  0
   11.1650   -9.7960   35.8110 O   0  0  0  0  0  0
   12.5770   -9.1440   32.8190 C   0  0  0  0  0  0
   13.2730   -9.6750   31.5900 C   0  0  0  0  0  0
   14.6530   -9.5160   31.4170 C   0  0  0  0  0  0
   12.5590  -10.3480   30.6040 C   0  0  0  0  0  0
   15.2970  -10.0190   30.2870 C   0  0  0  0  0  0
   13.1950  -10.8590   29.4720 C   0  0  0  0  0  0
   14.5570  -10.6910   29.3200 C   0  0  0  0  0  0
   15.1690  -11.1920   28.1920 O   0  0  0  0  0  0
   12.8020   -8.2470   35.7850 N   0  0  0  0  0  0
   14.1050   -7.7360   35.3050 C   0  0  0  0  0  0
   14.0590   -6.4160   34.5480 C   0  0  0  0  0  0
   13.0520   -5.6920   34.5710 O   0  0  0  0  0  0
   15.0655   -6.0510   33.8837 O   0  5  0  0  0  0
    8.5101  -13.3040   33.4323 H   0  0  0  0  0  0
    7.3432  -14.5954   33.8762 H   0  0  0  0  0  0
    8.7577  -14.9810   32.8383 H   0  0  0  0  0  0
    8.7946  -14.0538   35.6986 H   0  0  0  0  0  0
    8.1242  -16.5518   34.8184 H   0  0  0  0  0  0
    9.9120  -16.7258   34.8321 H   0  0  0  0  0  0
   10.3202  -13.9822   32.7012 H   0  0  0  0  0  0
   13.0061  -14.5778   33.6503 H   0  0  0  0  0  0
   11.7223  -13.4595   31.1569 H   0  0  0  0  0  0
   13.4490  -13.0113   31.3672 H   0  0  0  0  0  0
   14.1639  -14.9067   30.6445 H   0  0  0  0  0  0
   13.5393  -16.1948   32.6163 H   0  0  0  0  0  0
   13.3633  -17.1337   31.0951 H   0  0  0  0  0  0
   11.9084  -16.4756   31.9178 H   0  0  0  0  0  0
   12.4226  -14.1582   29.0126 H   0  0  0  0  0  0
   11.2518  -15.2733   29.7951 H   0  0  0  0  0  0
   12.7067  -15.9314   28.9724 H   0  0  0  0  0  0
   11.2023  -11.5322   33.6254 H   0  0  0  0  0  0
   13.8629  -10.1854   34.2654 H   0  0  0  0  0  0
   11.5016   -9.0868   32.5948 H   0  0  0  0  0  0
   12.9656   -8.1332   33.0119 H   0  0  0  0  0  0
   15.2326   -8.9914   32.1766 H   0  0  0  0  0  0
   11.4828  -10.4786   30.7177 H   0  0  0  0  0  0
   16.3717   -9.8866   30.1626 H   0  0  0  0  0  0
   12.6198  -11.3878   28.7120 H   0  0  0  0  0  0
   16.2531  -11.0679   28.0533 H   0  0  0  0  0  0
   12.2724   -7.7267   36.5966 H   0  0  0  0  0  0
   14.7746   -7.5758   36.1629 H   0  0  0  0  0  0
   14.5562   -8.4685   34.6195 H   0  0  0  0  0  0
  1  2  1  0  0  0
  1 34  1  0  0  0
  1 35  1  0  0  0
  1 36  1  0  0  0
  2  3  1  0  0  0
  2  5  1  0  0  0
  2 37  1  0  0  0
  3  4  2  0  0  0
  3  9  1  0  0  0
  5  6  1  0  0  0
  5 38  1  0  0  0
  5 39  1  0  0  0
  6  7  2  0  0  0
  6  8  1  0  0  0
  9 10  1  0  0  0
  9 40  1  0  0  0
 10 11  1  0  0  0
 10 13  1  0  0  0
 10 41  1  0  0  0
 11 12  2  0  0  0
 11 17  1  0  0  0
 13 14  1  0  0  0
 13 42  1  0  0  0
 13 43  1  0  0  0
 14 15  1  0  0  0
 14 16  1  0  0  0
 14 44  1  0  0  0
 15 45  1  0  0  0
 15 46  1  0  0  0
 15 47  1  0  0  0
 16 48  1  0  0  0
 16 49  1  0  0  0
 16 50  1  0  0  0
 17 18  1  0  0  0
 17 51  1  0  0  0
 18 19  1  0  0  0
 18 21  1  0  0  0
 18 52  1  0  0  0
 19 20  2  0  0  0
 19 29  1  0  0  0
 21 22  1  0  0  0
 21 53  1  0  0  0
 21 54  1  0  0  0
 22 23  2  0  0  0
 22 24  1  0  0  0
 23 25  1  0  0  0
 23 55  1  0  0  0
 24 26  2  0  0  0
 24 56  1  0  0  0
 25 27  2  0  0  0
 25 57  1  0  0  0
 26 27  1  0  0  0
 26 58  1  0  0  0
 27 28  1  0  0  0
 28 59  1  0  0  0
 29 30  1  0  0  0
 29 60  1  0  0  0
 30 31  1  0  0  0
 30 61  1  0  0  0
 30 62  1  0  0  0
 31 32  2  0  0  0
 31 33  1  0  0  0
M  CHG  3   1   1   8  -1  33  -1
M  END
> <s_m_source_file>
../3ebb_ligand.sdf

> <i_m_source_file_index>
1

> <s_epik_input>
Tz1DKFtPSF0pW0NIMl1bQ0BIXShbTkgzK10pQyg9TylbTkhdW0NAQEhdKFtDSDJdW0NIXShbQ0gzXSlbQ0gzXSlDKD1PKVtOSF1bQ0BIXShDKD1PKVtOSF1bQ0gyXUMoPU8pW09IXSlbQ0gyXWMxW2NIXVtjSF1jKFtPSF0pW2NIXVtjSF0x

> <s_epik_cmdline>
J2VwaWtfYXBwJywgJy1pbWFlJywgJ2xpZ2FuZF9wcm8ubWFlJywgJy1vbWFlJywgJ2xpZ2FuZF9wcmVwLm1hZScsICctbXMnLCAnMScsICctcGgnLCAnNycsICctcGh0JywgJzAuNScsICctbnQn

> <r_lp_tautomer_probability>
0.999999999997365

> <r_epik_Ionization_Penalty>
  0.0255

> <r_epik_Ionization_Penalty_Charging>
  0.0246

> <r_epik_Ionization_Penalty_Neutral>
  0.0008

> <r_epik_State_Penalty>
  0.0156

> <r_epik_Charging_Adjusted_Penalty>
0.0402649365105047

> <i_epik_Tot_Q>
-1

> <i_epik_Tot_abs_Q>
3

$$$$
