3ebl_ligand
                    3D
 Schrodinger Suite 2020-3.
 47 51  0  0  1  0            999 V2000
   30.5200   46.4740   14.2660 C   0  0  0  0  0  0
   29.4360   46.2260   13.2200 C   0  0  0  0  0  0
   29.5620   44.8060   12.5960 C   0  0  2  0  0  0
   29.0310   43.8480   13.5190 O   0  0  0  0  0  0
   31.0090   44.4270   12.2010 C   0  0  1  0  0  0
   31.8400   44.4800   13.4730 C   0  0  1  0  0  0
   33.3390   44.1100   13.4810 C   0  0  2  0  0  0
   33.5560   42.6400   13.7310 C   0  0  0  0  0  0
   32.9360   41.9780   14.6060 O   0  5  0  0  0  0
   34.3980   42.1300   12.9970 O   0  0  0  0  0  0
   34.0370   45.0690   14.4660 C   0  0  2  0  0  0
   33.0680   46.2830   14.6080 C   0  0  2  0  0  0
   31.8900   45.9970   13.7050 C   0  0  2  0  0  0
   33.7810   47.6300   14.3220 C   0  0  0  0  0  0
   35.1130   47.7710   15.1060 C   0  0  0  0  0  0
   35.8650   46.4110   15.2250 C   0  0  2  0  0  0
   35.4170   45.5810   14.0360 C   0  0  0  0  0  0
   34.3550   44.5090   15.8530 C   0  0  0  0  0  0
   35.3230   45.5530   16.3290 C   0  0  0  0  0  0
   35.6760   45.6310   17.6050 C   0  0  0  0  0  0
   31.0990   43.0840   11.4690 C   0  0  0  0  0  0
   31.5600   45.5790   11.4220 C   0  0  0  0  0  0
   31.5890   45.7400   10.1990 O   0  0  0  0  0  0
   32.0940   46.4940   12.3580 O   0  0  0  0  0  0
   30.5689   47.5486   14.4957 H   0  0  0  0  0  0
   30.2807   45.9138   15.1820 H   0  0  0  0  0  0
   28.4456   46.3135   13.6905 H   0  0  0  0  0  0
   29.5263   46.9700   12.4148 H   0  0  0  0  0  0
   28.9410   44.7408   11.6904 H   0  0  0  0  0  0
   28.0078   43.9651   13.9054 H   0  0  0  0  0  0
   31.3661   43.7579   14.1542 H   0  0  0  0  0  0
   33.8092   44.2235   12.4931 H   0  0  0  0  0  0
   32.6807   46.4006   15.6308 H   0  0  0  0  0  0
   34.0089   47.7035   13.2484 H   0  0  0  0  0  0
   33.1240   48.4621   14.6152 H   0  0  0  0  0  0
   35.7706   48.4835   14.5865 H   0  0  0  0  0  0
   34.9037   48.1385   16.1214 H   0  0  0  0  0  0
   36.9389   46.6132   15.3508 H   0  0  0  0  0  0
   36.0821   44.7259   13.8449 H   0  0  0  0  0  0
   35.3165   46.1796   13.1186 H   0  0  0  0  0  0
   33.4300   44.4495   16.4453 H   0  0  0  0  0  0
   34.7907   43.5041   15.7516 H   0  0  0  0  0  0
   36.3869   46.4038   17.9327 H   0  0  0  0  0  0
   35.2578   44.9229   18.3356 H   0  0  0  0  0  0
   30.6758   42.2914   12.1037 H   0  0  0  0  0  0
   32.1526   42.8554   11.2505 H   0  0  0  0  0  0
   30.5332   43.1410   10.5274 H   0  0  0  0  0  0
  1  2  1  0  0  0
  1 13  1  0  0  0
  1 25  1  0  0  0
  1 26  1  0  0  0
  2  3  1  0  0  0
  2 27  1  0  0  0
  2 28  1  0  0  0
  3  4  1  0  0  0
  3  5  1  0  0  0
  3 29  1  0  0  0
  4 30  1  0  0  0
  5  6  1  0  0  0
  5 21  1  0  0  0
  5 22  1  0  0  0
  6  7  1  0  0  0
  6 13  1  0  0  0
  6 31  1  0  0  0
  7  8  1  0  0  0
  7 11  1  0  0  0
  7 32  1  0  0  0
  8  9  1  0  0  0
  8 10  2  0  0  0
 11 12  1  0  0  0
 11 17  1  0  0  0
 11 18  1  0  0  0
 12 13  1  0  0  0
 12 14  1  0  0  0
 12 33  1  0  0  0
 13 24  1  0  0  0
 14 15  1  0  0  0
 14 34  1  0  0  0
 14 35  1  0  0  0
 15 16  1  0  0  0
 15 36  1  0  0  0
 15 37  1  0  0  0
 16 17  1  0  0  0
 16 19  1  0  0  0
 16 38  1  0  0  0
 17 39  1  0  0  0
 17 40  1  0  0  0
 18 19  1  0  0  0
 18 41  1  0  0  0
 18 42  1  0  0  0
 19 20  2  0  0  0
 20 43  1  0  0  0
 20 44  1  0  0  0
 21 45  1  0  0  0
 21 46  1  0  0  0
 21 47  1  0  0  0
 22 23  2  0  0  0
 22 24  1  0  0  0
M  CHG  1   9  -1
M  END
> <s_m_source_file>
../3ebl_ligand.sdf

> <i_m_source_file_index>
1

> <s_epik_input>
W0NIMl0xW0NIMl1bQ0BIXShbT0hdKVtDQEBdKFtDSDNdKShDKD1PKU8yKVtDQEBIXShbQ0BASF0zQyg9TylbT0hdKVtDQF0xMltDQEBIXShbQ0BAXTM0NSlbQ0gyXVtDSDJdW0NASF0oW0NIMl00KUMoW0NIMl01KT1bQ0gyXQ==

> <s_epik_cmdline>
J2VwaWtfYXBwJywgJy1pbWFlJywgJ2xpZ2FuZF9wcm8ubWFlJywgJy1vbWFlJywgJ2xpZ2FuZF9wcmVwLm1hZScsICctbXMnLCAnMScsICctcGgnLCAnNycsICctcGh0JywgJzAuNScsICctbnQn

> <r_lp_tautomer_probability>
1

> <r_epik_Ionization_Penalty>
  0.0003

> <r_epik_Ionization_Penalty_Charging>
  0.0003

> <r_epik_Ionization_Penalty_Neutral>
  0.0000

> <r_epik_State_Penalty>
 -0.0000

> <r_epik_Charging_Adjusted_Penalty>
0.000253479295582028

> <i_epik_Tot_Q>
-1

> <i_epik_Tot_abs_Q>
1

> <s_epik_Chemistry_Notes>
This compound has an ester and may undergo hydrolysis at high or low pH.

$$$$
