3ecn_ligand
                    3D
 Schrodinger Suite 2020-3.
 30 31  0  0  1  0            999 V2000
   -1.3710  -10.2650   19.1130 N   0  0  0  0  0  0
   -1.6880   -9.5450   20.2390 C   0  0  0  0  0  0
   -1.5960  -10.2340   21.3490 N   0  3  0  0  0  0
   -1.1910  -11.4920   20.9250 C   0  0  0  0  0  0
   -1.0490  -11.5280   19.5530 C   0  0  0  0  0  0
   -0.6760  -12.5810   18.7920 N   0  0  0  0  0  0
   -0.4000  -13.7210   19.4950 C   0  0  0  0  0  0
   -0.5190  -13.7800   20.8890 N   0  0  0  0  0  0
   -0.9150  -12.6740   21.6040 C   0  0  0  0  0  0
   -1.0170  -12.7230   22.8260 O   0  0  0  0  0  0
   -0.0400  -14.7230   18.8870 O   0  0  0  0  0  0
   -0.2280  -15.0230   21.5860 C   0  0  0  0  0  0
   -0.6190  -12.5140   17.3340 C   0  0  0  0  0  0
    0.8320  -12.3490   16.8690 C   0  0  0  0  0  0
    1.4340  -13.7060   16.5190 C   0  0  0  0  0  0
    0.8870  -11.4190   15.6580 C   0  0  0  0  0  0
   -1.9848   -8.4894   20.1514 H   0  0  0  0  0  0
    0.0708  -15.7908   20.8571 H   0  0  0  0  0  0
   -1.1254  -15.3594   22.1259 H   0  0  0  0  0  0
    0.5907  -14.8588   22.3021 H   0  0  0  0  0  0
   -1.0308  -13.4408   16.9080 H   0  0  0  0  0  0
   -1.2098  -11.6551   16.9830 H   0  0  0  0  0  0
    1.4233  -11.9082   17.6851 H   0  0  0  0  0  0
    1.3882  -14.3652   17.3984 H   0  0  0  0  0  0
    2.4825  -13.5742   16.2137 H   0  0  0  0  0  0
    0.8654  -14.1572   15.6925 H   0  0  0  0  0  0
    0.4503  -10.4450   15.9236 H   0  0  0  0  0  0
    0.3166  -11.8628   14.8287 H   0  0  0  0  0  0
    1.9337  -11.2798   15.3499 H   0  0  0  0  0  0
   -1.8272   -9.7573   22.3130 H   0  0  0  0  0  0
  1  2  2  0  0  0
  1  5  1  0  0  0
  2  3  1  0  0  0
  2 17  1  0  0  0
  3  4  1  0  0  0
  3 30  1  0  0  0
  4  5  2  0  0  0
  4  9  1  0  0  0
  5  6  1  0  0  0
  6  7  1  0  0  0
  6 13  1  0  0  0
  7  8  1  0  0  0
  7 11  2  0  0  0
  8  9  1  0  0  0
  8 12  1  0  0  0
  9 10  2  0  0  0
 12 18  1  0  0  0
 12 19  1  0  0  0
 12 20  1  0  0  0
 13 14  1  0  0  0
 13 21  1  0  0  0
 13 22  1  0  0  0
 14 15  1  0  0  0
 14 16  1  0  0  0
 14 23  1  0  0  0
 15 24  1  0  0  0
 15 25  1  0  0  0
 15 26  1  0  0  0
 16 27  1  0  0  0
 16 28  1  0  0  0
 16 29  1  0  0  0
M  CHG  1   3   1
M  END
> <s_m_source_file>
../3ecn_ligand.sdf

> <i_m_source_file_index>
1

> <s_epik_input>
W25IXTFbY0hdbmMoYzEyKW4oYyg9TyluKGMyPU8pW0NIM10pW0NIMl1bQ0hdKFtDSDNdKVtDSDNd

> <s_epik_cmdline>
J2VwaWtfYXBwJywgJy1pbWFlJywgJ2xpZ2FuZF9wcm8ubWFlJywgJy1vbWFlJywgJ2xpZ2FuZF9wcmVwLm1hZScsICctbXMnLCAnMScsICctcGgnLCAnNycsICctcGh0JywgJzAuNScsICctbnQn

> <r_lp_tautomer_probability>
1

> <r_epik_Ionization_Penalty>
  0.0000

> <r_epik_Ionization_Penalty_Charging>
  0.0000

> <r_epik_Ionization_Penalty_Neutral>
  0.0000

> <r_epik_State_Penalty>
 -0.0000

> <r_epik_Charging_Adjusted_Penalty>
2.54524996633124e-08

> <i_epik_Tot_Q>
1

> <i_epik_Tot_abs_Q>
1

> <s_epik_Chemistry_Notes>
This compound has an imine and may undergo hydrolysis.

$$$$
