3ed0_ligand
                    3D
 Schrodinger Suite 2020-3.
 30 32  0  0  1  0            999 V2000
  -51.5740  -14.9150  -11.1270 C   0  0  0  0  0  0
  -51.3360  -13.6820  -10.6100 O   0  0  0  0  0  0
  -50.5300  -15.8120  -11.2790 C   0  0  0  0  0  0
  -50.7680  -17.0630  -11.8140 C   0  0  0  0  0  0
  -49.7460  -17.9390  -11.9680 O   0  0  0  0  0  0
  -52.0550  -17.4180  -12.1930 C   0  0  0  0  0  0
  -53.1090  -16.5220  -12.0440 C   0  0  0  0  0  0
  -54.4030  -16.8680  -12.4120 C   0  0  0  0  0  0
  -54.6280  -17.9800  -12.8850 O   0  0  0  0  0  0
  -55.4450  -15.9620  -12.2490 C   0  0  0  0  0  0
  -56.7360  -16.3080  -12.6130 C   0  0  0  0  0  0
  -57.7810  -15.4100  -12.4630 C   0  0  0  0  0  0
  -59.1860  -15.8240  -12.8790 C   0  0  0  0  0  0
  -57.5500  -14.1510  -11.9460 C   0  0  0  0  0  0
  -56.2590  -13.8080  -11.5730 C   0  0  0  0  0  0
  -56.0330  -12.5760  -11.0540 O   0  0  0  0  0  0
  -55.2030  -14.7090  -11.7240 C   0  0  0  0  0  0
  -53.9080  -14.3750  -11.3620 C   0  0  0  0  0  0
  -53.6550  -13.2770  -10.8870 O   0  0  0  0  0  0
  -52.8670  -15.2710  -11.5140 C   0  0  0  0  0  0
  -50.3173  -13.4008  -10.3048 H   0  0  0  0  0  0
  -49.5212  -15.5310  -10.9767 H   0  0  0  0  0  0
  -48.7272  -17.6541  -11.6665 H   0  0  0  0  0  0
  -52.2417  -18.4072  -12.6110 H   0  0  0  0  0  0
  -56.9325  -17.2989  -13.0225 H   0  0  0  0  0  0
  -59.1659  -16.8544  -13.2634 H   0  0  0  0  0  0
  -59.5502  -15.1464  -13.6652 H   0  0  0  0  0  0
  -59.8568  -15.7703  -12.0089 H   0  0  0  0  0  0
  -58.3677  -13.4392  -11.8330 H   0  0  0  0  0  0
  -56.8662  -11.8676  -10.9359 H   0  0  0  0  0  0
  1  2  1  0  0  0
  1  3  2  0  0  0
  1 20  1  0  0  0
  2 21  1  0  0  0
  3  4  1  0  0  0
  3 22  1  0  0  0
  4  5  1  0  0  0
  4  6  2  0  0  0
  5 23  1  0  0  0
  6  7  1  0  0  0
  6 24  1  0  0  0
  7  8  1  0  0  0
  7 20  2  0  0  0
  8  9  2  0  0  0
  8 10  1  0  0  0
 10 11  2  0  0  0
 10 17  1  0  0  0
 11 12  1  0  0  0
 11 25  1  0  0  0
 12 13  1  0  0  0
 12 14  2  0  0  0
 13 26  1  0  0  0
 13 27  1  0  0  0
 13 28  1  0  0  0
 14 15  1  0  0  0
 14 29  1  0  0  0
 15 16  1  0  0  0
 15 17  2  0  0  0
 16 30  1  0  0  0
 17 18  1  0  0  0
 18 19  2  0  0  0
 18 20  1  0  0  0
M  END
> <s_m_source_file>
../3ed0_ligand.sdf

> <i_m_source_file_index>
1

> <s_epik_input>
W09IXWMoW2NIXTEpW2NIXWMoW09IXSljKGMxMilDKD1PKWMzYyhDMj1PKVtjSF1jKFtDSDNdKVtjSF1jM1tPSF0=

> <s_epik_cmdline>
J2VwaWtfYXBwJywgJy1pbWFlJywgJ2xpZ2FuZF9wcm8ubWFlJywgJy1vbWFlJywgJ2xpZ2FuZF9wcmVwLm1hZScsICctbXMnLCAnMScsICctcGgnLCAnNycsICctcGh0JywgJzAuNScsICctbnQn

> <r_epik_Ionization_Penalty>
  0.1082

> <r_epik_Ionization_Penalty_Charging>
  0.0000

> <r_epik_Ionization_Penalty_Neutral>
  0.1082

> <r_epik_State_Penalty>
  0.0934

> <r_epik_Charging_Adjusted_Penalty>
0.0934409931676442

> <i_epik_Tot_Q>
0

> <i_epik_Tot_abs_Q>
0

$$$$
