3ee2_ligand
                    3D
 Schrodinger Suite 2020-3.
 31 33  0  0  1  0            999 V2000
   16.0330   14.2250   40.0370 O   0  0  0  0  0  0
   17.2130   14.5730   40.0600 C   0  0  0  0  0  0
   17.5510   15.9890   40.2520 O   0  0  0  0  0  0
   16.7870   17.0560   39.6730 C   0  0  0  0  0  0
   18.1990   13.6800   39.9140 N   0  0  0  0  0  0
   18.5210   12.7430   40.8720 C   0  0  0  0  0  0
   17.8240   12.5090   42.0050 N   0  0  0  0  0  0
   18.4980   11.5170   42.6420 C   0  0  0  0  0  0
   18.2820   10.8450   43.8500 C   0  0  0  0  0  0
   19.5960   11.9580   40.7320 N   0  0  0  0  0  0
   19.5930   11.1840   41.8410 C   0  0  0  0  0  0
   20.4630   10.1900   42.2430 C   0  0  0  0  0  0
   20.2460    9.5260   43.4380 C   0  0  0  0  0  0
   19.1630    9.8350   44.2460 C   0  0  0  0  0  0
   18.9810    9.0740   45.5410 C   0  0  0  0  0  0
   18.4090    9.6020   46.4570 O   0  0  0  0  0  0
   19.4660    7.6870   45.7770 C   0  0  0  0  0  0
   19.6250    6.6270   44.9190 C   0  0  0  0  0  0
   20.1060    5.5240   45.5880 C   0  0  0  0  0  0
   20.2910    5.7100   46.9480 C   0  0  0  0  0  0
   19.8880    7.3240   47.4340 S   0  0  0  0  0  0
   17.2320   18.0213   39.9563 H   0  0  0  0  0  0
   15.7516   17.0074   40.0413 H   0  0  0  0  0  0
   16.7915   16.9576   38.5774 H   0  0  0  0  0  0
   18.7999   13.6699   38.9927 H   0  0  0  0  0  0
   17.4225   11.1126   44.4822 H   0  0  0  0  0  0
   21.3189    9.9287   41.6206 H   0  0  0  0  0  0
   20.9528    8.7400   43.7424 H   0  0  0  0  0  0
   19.4008    6.6549   43.8527 H   0  0  0  0  0  0
   20.3237    4.5804   45.0877 H   0  0  0  0  0  0
   20.6463    4.9365   47.6288 H   0  0  0  0  0  0
  1  2  2  0  0  0
  2  3  1  0  0  0
  2  5  1  0  0  0
  3  4  1  0  0  0
  4 22  1  0  0  0
  4 23  1  0  0  0
  4 24  1  0  0  0
  5  6  1  0  0  0
  5 25  1  0  0  0
  6  7  2  0  0  0
  6 10  1  0  0  0
  7  8  1  0  0  0
  8  9  2  0  0  0
  8 11  1  0  0  0
  9 14  1  0  0  0
  9 26  1  0  0  0
 10 11  2  0  0  0
 11 12  1  0  0  0
 12 13  1  0  0  0
 12 27  1  0  0  0
 13 14  2  0  0  0
 13 28  1  0  0  0
 14 15  1  0  0  0
 15 16  2  0  0  0
 15 17  1  0  0  0
 17 18  2  0  0  0
 17 21  1  0  0  0
 18 19  1  0  0  0
 18 29  1  0  0  0
 19 20  2  0  0  0
 19 30  1  0  0  0
 20 21  1  0  0  0
 20 31  1  0  0  0
M  END
> <s_m_source_file>
../3ee2_ligand.sdf

> <i_m_source_file_index>
1

> <s_epik_input>
W0NIM11PQyg9TylbTkhdQyg9TjEpTj1DKEMxPTIpW0NIMl1bQ0hdPUMoW0NIXTIpQyg9TyljM1tjSF1bY0hdW2NIXXMz

> <s_epik_cmdline>
J2VwaWtfYXBwJywgJy1pbWFlJywgJ2xpZ2FuZF9wcm8ubWFlJywgJy1vbWFlJywgJ2xpZ2FuZF9wcmVwLm1hZScsICctbXMnLCAnMScsICctcGgnLCAnNycsICctcGh0JywgJzAuNScsICctbnQn

> <r_lp_tautomer_probability>
1

> <r_epik_Ionization_Penalty>
  0.0234

> <r_epik_Ionization_Penalty_Charging>
  0.0000

> <r_epik_Ionization_Penalty_Neutral>
  0.0234

> <r_epik_State_Penalty>
 -0.0000

> <r_epik_Charging_Adjusted_Penalty>
0

> <i_epik_Tot_Q>
0

> <i_epik_Tot_abs_Q>
0

> <s_epik_Chemistry_Notes>
This compound has an ester and may undergo hydrolysis at high or low pH. This compound has an imine and may undergo hydrolysis.

$$$$
