3efr_ligand
                    3D
 Schrodinger Suite 2020-3.
 31 32  0  0  1  0            999 V2000
   13.1660    4.3510   12.8710 C   0  0  0  0  0  0
   13.0800    5.1890   11.9470 O   0  0  0  0  0  0
   14.1040    3.5220   12.8480 O   0  5  0  0  0  0
   12.1400    4.3490   13.9810 C   0  0  0  0  0  0
   12.7870    4.6550   15.3250 C   0  0  0  0  0  0
   13.7330    3.5290   15.7180 C   0  0  0  0  0  0
   13.2560    2.8390   16.9910 C   0  0  0  0  0  0
   13.2070    3.7810   18.1840 C   0  0  2  0  0  0
   14.4560    3.3770   19.2160 S   0  0  0  0  0  0
   13.4710    3.7360   20.6920 C   0  0  0  0  0  0
   11.9910    3.7080   20.3690 C   0  0  2  0  0  0
   11.3850    2.4580   20.7830 N   0  0  0  0  0  0
   10.9950    1.7370   19.7390 C   0  0  0  0  0  0
   10.4040    0.4580   19.8090 O   0  0  0  0  0  0
   11.2410    2.3910   18.6120 N   0  0  0  0  0  0
   11.8470    3.6820   18.8610 C   0  0  2  0  0  0
   11.3763    5.1136   13.7757 H   0  0  0  0  0  0
   11.6625    3.3596   14.0372 H   0  0  0  0  0  0
   13.3542    5.5948   15.2534 H   0  0  0  0  0  0
   12.0063    4.7556   16.0934 H   0  0  0  0  0  0
   13.7759    2.7865   14.9075 H   0  0  0  0  0  0
   14.7385    3.9392   15.8930 H   0  0  0  0  0  0
   12.2430    2.4399   16.8342 H   0  0  0  0  0  0
   13.9404    2.0146   17.2397 H   0  0  0  0  0  0
   13.2514    4.8161   17.8144 H   0  0  0  0  0  0
   13.6802    2.9817   21.4648 H   0  0  0  0  0  0
   13.7325    4.7340   21.0735 H   0  0  0  0  0  0
   11.5009    4.5458   20.8866 H   0  0  0  0  0  0
   11.2990    2.2162   21.8526 H   0  0  0  0  0  0
   11.0417    2.0669   17.5799 H   0  0  0  0  0  0
   11.2228    4.4924   18.4565 H   0  0  0  0  0  0
  1  2  2  0  0  0
  1  3  1  0  0  0
  1  4  1  0  0  0
  4  5  1  0  0  0
  4 17  1  0  0  0
  4 18  1  0  0  0
  5  6  1  0  0  0
  5 19  1  0  0  0
  5 20  1  0  0  0
  6  7  1  0  0  0
  6 21  1  0  0  0
  6 22  1  0  0  0
  7  8  1  0  0  0
  7 23  1  0  0  0
  7 24  1  0  0  0
  8  9  1  0  0  0
  8 16  1  0  0  0
  8 25  1  0  0  0
  9 10  1  0  0  0
 10 11  1  0  0  0
 10 26  1  0  0  0
 10 27  1  0  0  0
 11 12  1  0  0  0
 11 16  1  0  0  0
 11 28  1  0  0  0
 12 13  1  0  0  0
 12 29  1  0  0  0
 13 14  2  0  0  0
 13 15  1  0  0  0
 15 16  1  0  0  0
 15 30  1  0  0  0
 16 31  1  0  0  0
M  CHG  1   3  -1
M  END
> <s_m_source_file>
../3efr_ligand.sdf

> <i_m_source_file_index>
1

> <s_epik_input>
Tz1DKFtPSF0pW0NIMl1bQ0gyXVtDSDJdW0NIMl1bQ0BIXShTW0NIMl0xKVtDQEhdKFtDQEhdMTIpW05IXUMoPU8pW05IXTI=

> <s_epik_cmdline>
J2VwaWtfYXBwJywgJy1pbWFlJywgJ2xpZ2FuZF9wcm8ubWFlJywgJy1vbWFlJywgJ2xpZ2FuZF9wcmVwLm1hZScsICctbXMnLCAnMScsICctcGgnLCAnNycsICctcGh0JywgJzAuNScsICctbnQn

> <r_lp_tautomer_probability>
1

> <r_epik_Ionization_Penalty>
  0.0045

> <r_epik_Ionization_Penalty_Charging>
  0.0044

> <r_epik_Ionization_Penalty_Neutral>
  0.0000

> <r_epik_State_Penalty>
 -0.0000

> <r_epik_Charging_Adjusted_Penalty>
0.00443833021372702

> <i_epik_Tot_Q>
-1

> <i_epik_Tot_abs_Q>
1

$$$$
