3efs_ligand
                    3D
 Schrodinger Suite 2020-3.
 43 45  0  0  1  0            999 V2000
  -11.6320   -3.5670    5.1340 P   0  0  0  0  0  0
  -12.6080   -4.2540    6.0580 O   0  5  0  0  0  0
  -10.3680   -4.3470    4.8640 O   0  5  0  0  0  0
  -12.2670   -2.9580    3.9080 O   0  0  0  0  0  0
  -10.2430   -2.4750    7.3140 P   0  0  2  0  0  0
   -9.1840   -1.3970    7.3230 O   0  5  0  0  0  0
   -9.8430   -3.9260    7.4330 O   0  0  0  0  0  0
  -11.1380   -2.2950    5.9870 O   0  0  0  0  0  0
  -10.9880   -1.1900    9.7130 P   0  0  2  0  0  0
  -10.7880    0.2110    9.1880 O   0  5  0  0  0  0
   -9.9350   -1.8300   10.5830 O   0  0  0  0  0  0
  -11.3230   -2.1440    8.4610 O   0  0  0  0  0  0
  -12.3790   -1.2070   10.5170 O   0  0  0  0  0  0
  -12.7960   -0.0440   11.2220 C   0  0  0  0  0  0
  -14.1450    0.3580   10.6450 C   0  0  1  0  0  0
  -15.1760   -0.4800   11.1680 O   0  0  0  0  0  0
  -14.5220    1.7910   10.9840 C   0  0  1  0  0  0
  -14.3040    2.6320    9.8480 O   0  0  0  0  0  0
  -15.9970    1.7490   11.3310 C   0  0  1  0  0  0
  -16.7520    2.4550   10.3440 O   0  0  0  0  0  0
  -16.3770    0.2760   11.3210 C   0  0  2  0  0  0
  -17.0350   -0.0720   12.6010 N   0  0  0  0  0  0
  -17.0270    0.6800   13.7180 C   0  0  0  0  0  0
  -17.7300    0.0830   14.7120 N   0  0  0  0  0  0
  -18.2070   -1.0770   14.2250 C   0  0  0  0  0  0
  -19.0280   -2.1940   14.7440 C   0  0  0  0  0  0
  -19.4930   -2.1890   16.0160 N   0  0  0  0  0  0
  -19.2980   -3.2170   13.9040 N   0  0  0  0  0  0
  -18.8430   -3.2370   12.6380 C   0  0  0  0  0  0
  -18.0930   -2.2600   12.1010 N   0  0  0  0  0  0
  -17.7520   -1.1720   12.8300 C   0  0  0  0  0  0
  -12.8827   -0.2763   12.2937 H   0  0  0  0  0  0
  -12.0554    0.7567   11.0791 H   0  0  0  0  0  0
  -14.1003    0.2119    9.5557 H   0  0  0  0  0  0
  -13.9034    2.2367   11.7769 H   0  0  0  0  0  0
  -13.2856    2.7767    9.4581 H   0  0  0  0  0  0
  -16.2361    2.2588   12.2760 H   0  0  0  0  0  0
  -16.6063    3.5371   10.2101 H   0  0  0  0  0  0
  -17.0493    0.0072   10.4929 H   0  0  0  0  0  0
  -16.5221    1.6416   13.8109 H   0  0  0  0  0  0
  -19.2611   -1.3457   16.6831 H   0  0  0  0  0  0
  -20.1026   -3.0283   16.3821 H   0  0  0  0  0  0
  -19.0969   -4.0934   12.0133 H   0  0  0  0  0  0
  1  2  1  0  0  0
  1  3  1  0  0  0
  1  4  2  0  0  0
  1  8  1  0  0  0
  5  6  1  0  0  0
  5  7  2  0  0  0
  5  8  1  0  0  0
  5 12  1  0  0  0
  9 10  1  0  0  0
  9 11  2  0  0  0
  9 12  1  0  0  0
  9 13  1  0  0  0
 13 14  1  0  0  0
 14 15  1  0  0  0
 14 32  1  0  0  0
 14 33  1  0  0  0
 15 16  1  0  0  0
 15 17  1  0  0  0
 15 34  1  0  0  0
 16 21  1  0  0  0
 17 18  1  0  0  0
 17 19  1  0  0  0
 17 35  1  0  0  0
 18 36  1  0  0  0
 19 20  1  0  0  0
 19 21  1  0  0  0
 19 37  1  0  0  0
 20 38  1  0  0  0
 21 22  1  0  0  0
 21 39  1  0  0  0
 22 23  1  0  0  0
 22 31  1  0  0  0
 23 24  2  0  0  0
 23 40  1  0  0  0
 24 25  1  0  0  0
 25 26  2  0  0  0
 25 31  1  0  0  0
 26 27  1  0  0  0
 26 28  1  0  0  0
 27 41  1  0  0  0
 27 42  1  0  0  0
 28 29  2  0  0  0
 29 30  1  0  0  0
 29 43  1  0  0  0
 30 31  2  0  0  0
M  CHG  4   2  -1   3  -1   6  -1  10  -1
M  END
> <s_m_source_file>
../3efs_ligand.sdf

> <i_m_source_file_index>
1

> <s_epik_input>
W09IXVAoPU8pKFtPSF0pT1tQQEBdKD1PKShbT0hdKU9bUEBAXSg9TykoW09IXSlPW0NIMl1bQ0BIXTFPW0NASF0oW0NASF0oW09IXSlbQ0BASF0xW09IXSluKFtjSF1uMiljKGMyMyluW2NIXW5jM1tOSDJd

> <s_epik_cmdline>
J2VwaWtfYXBwJywgJy1pbWFlJywgJ2xpZ2FuZF9wcm8ubWFlJywgJy1vbWFlJywgJ2xpZ2FuZF9wcmVwLm1hZScsICctbXMnLCAnMScsICctcGgnLCAnNycsICctcGh0JywgJzAuNScsICctbnQn

> <r_lp_tautomer_probability>
0.999997216410988

> <r_epik_Ionization_Penalty>
  0.0818

> <r_epik_Ionization_Penalty_Charging>
  0.0813

> <r_epik_Ionization_Penalty_Neutral>
  0.0004

> <r_epik_State_Penalty>
  0.0708

> <r_epik_Charging_Adjusted_Penalty>
0.152157994418768

> <i_epik_Tot_Q>
-4

> <i_epik_Tot_abs_Q>
4

> <s_epik_Chemistry_Notes>
This compound contains an acetal/aminal-like group ( X-CH(R)-Y where X, Y are N, S, or O) that may be acid/base labile, releasing an aldehyde.

$$$$
