3eft_ligand
                    3D
 Schrodinger Suite 2020-3.
 51 52  0  0  1  0            999 V2000
   -2.4490    9.4920   12.1110 C   0  0  0  0  0  0
   -1.6850   10.7440   12.5470 C   0  0  0  0  0  0
   -1.7800   10.9200   14.0640 C   0  0  0  0  0  0
   -2.2490   11.9770   11.8380 C   0  0  0  0  0  0
   -0.2710   10.5930   12.1730 N   0  0  2  0  0  0
   -0.1700   10.3440   10.7380 O   0  0  0  0  0  0
    0.3310    9.4710   12.9090 C   0  0  0  0  0  0
    0.1430    9.7060   14.4100 C   0  0  0  0  0  0
    1.8210    9.4060   12.5700 C   0  0  0  0  0  0
   -0.3620    8.1740   12.4870 C   0  0  0  0  0  0
   -1.8550    8.2650   12.8060 C   0  0  2  0  0  0
   -2.5350    7.0530   12.3270 N   0  0  0  0  0  0
   -3.0170    6.1730   13.2000 C   0  0  0  0  0  0
   -2.8450    6.4540   14.8880 S   0  0  0  0  0  0
   -3.6320    5.0760   12.7680 N   0  0  0  0  0  0
   -4.1130    4.1960   13.6420 C   0  0  0  0  0  0
   -5.4070    4.3380   14.1300 C   0  0  0  0  0  0
   -5.9110    3.4200   15.0430 C   0  0  0  0  0  0
   -6.3910    5.6590   13.6000 Cl  0  0  0  0  0  0
   -3.3230    3.1360   14.0680 C   0  0  0  0  0  0
   -3.8260    2.2170   14.9820 C   0  0  0  0  0  0
   -5.1200    2.3590   15.4690 C   0  0  0  0  0  0
   -5.7530    1.2020   16.6190 S   0  0  0  0  0  0
   -7.2520    1.2570   16.6100 O   0  0  0  0  0  0
   -5.2490    1.5340   17.9920 O   0  0  0  0  0  0
   -5.2620   -0.2970   16.2090 N   0  0  0  0  0  0
   -3.5085    9.5938   12.3885 H   0  0  0  0  0  0
   -2.3654    9.3725   11.0207 H   0  0  0  0  0  0
   -2.8348   11.0339   14.3545 H   0  0  0  0  0  0
   -1.2179   11.8163   14.3650 H   0  0  0  0  0  0
   -1.3556   10.0363   14.5629 H   0  0  0  0  0  0
   -3.3077   12.1032   12.1084 H   0  0  0  0  0  0
   -2.1617   11.8459   10.7493 H   0  0  0  0  0  0
   -1.6830   12.8683   12.1465 H   0  0  0  0  0  0
   -0.5689   11.0785   10.0229 H   0  0  0  0  0  0
    0.6453   10.6405   14.7005 H   0  0  0  0  0  0
    0.5792    8.8658   14.9701 H   0  0  0  0  0  0
   -0.9306    9.7806   14.6378 H   0  0  0  0  0  0
    2.3082   10.3430   12.8777 H   0  0  0  0  0  0
    1.9446    9.2672   11.4858 H   0  0  0  0  0  0
    2.2817    8.5610   13.1027 H   0  0  0  0  0  0
   -0.2272    8.0212   11.4060 H   0  0  0  0  0  0
    0.0786    7.3279   13.0347 H   0  0  0  0  0  0
   -2.0144    8.3203   13.8930 H   0  0  0  0  0  0
   -2.6449    6.8744   11.2472 H   0  0  0  0  0  0
   -3.7428    4.8966   11.6884 H   0  0  0  0  0  0
   -6.9258    3.5315   15.4250 H   0  0  0  0  0  0
   -2.3084    3.0246   13.6856 H   0  0  0  0  0  0
   -3.2058    1.3854   15.3165 H   0  0  0  0  0  0
   -5.6602   -1.0239   16.9322 H   0  0  0  0  0  0
   -4.1628   -0.3375   16.2159 H   0  0  0  0  0  0
  1  2  1  0  0  0
  1 11  1  0  0  0
  1 27  1  0  0  0
  1 28  1  0  0  0
  2  3  1  0  0  0
  2  4  1  0  0  0
  2  5  1  0  0  0
  3 29  1  0  0  0
  3 30  1  0  0  0
  3 31  1  0  0  0
  4 32  1  0  0  0
  4 33  1  0  0  0
  4 34  1  0  0  0
  5  6  1  0  0  0
  5  7  1  0  0  0
  6 35  1  0  0  0
  7  8  1  0  0  0
  7  9  1  0  0  0
  7 10  1  0  0  0
  8 36  1  0  0  0
  8 37  1  0  0  0
  8 38  1  0  0  0
  9 39  1  0  0  0
  9 40  1  0  0  0
  9 41  1  0  0  0
 10 11  1  0  0  0
 10 42  1  0  0  0
 10 43  1  0  0  0
 11 12  1  0  0  0
 11 44  1  0  0  0
 12 13  1  0  0  0
 12 45  1  0  0  0
 13 14  2  0  0  0
 13 15  1  0  0  0
 15 16  1  0  0  0
 15 46  1  0  0  0
 16 17  2  0  0  0
 16 20  1  0  0  0
 17 18  1  0  0  0
 17 19  1  0  0  0
 18 22  2  0  0  0
 18 47  1  0  0  0
 20 21  2  0  0  0
 20 48  1  0  0  0
 21 22  1  0  0  0
 21 49  1  0  0  0
 22 23  1  0  0  0
 23 24  2  0  0  0
 23 25  2  0  0  0
 23 26  1  0  0  0
 26 50  1  0  0  0
 26 51  1  0  0  0
M  END
> <s_m_source_file>
../3eft_ligand.sdf

> <i_m_source_file_index>
1

> <s_epik_input>
W09IXVtOQEBIK10xQyhbQ0gzXSkoW0NIM10pW0NIMl1bQ0BASF0oW0NIMl1DMShbQ0gzXSlbQ0gzXSlbTkhdQyg9UylbTkhdYzJjKENsKVtjSF1jKFtjSF1bY0hdMilTKD1PKSg9TylbTkgyXQ==

> <s_epik_cmdline>
J2VwaWtfYXBwJywgJy1pbWFlJywgJ2xpZ2FuZF9wcm8ubWFlJywgJy1vbWFlJywgJ2xpZ2FuZF9wcmVwLm1hZScsICctbXMnLCAnMScsICctcGgnLCAnNycsICctcGh0JywgJzAuNScsICctbnQn

> <r_epik_Ionization_Penalty>
  0.0204

> <r_epik_Ionization_Penalty_Charging>
  0.0000

> <r_epik_Ionization_Penalty_Neutral>
  0.0204

> <r_epik_State_Penalty>
  0.3304

> <r_epik_Charging_Adjusted_Penalty>
0.330360779976954

> <i_epik_Tot_Q>
0

> <i_epik_Tot_abs_Q>
0

> <s_epik_Chemistry_Notes>
This compound has a N-S or N-O group and may undergo hydrolysis at high or low pH.

$$$$
