3eg6_ligand
                    3D
 Schrodinger Suite 2020-3.
135135  0  0  1  0            999 V2000
  -12.7110  -30.9050  -13.5060 C   0  0  0  0  0  0
  -12.5880  -30.2860  -14.5610 O   0  0  0  0  0  0
  -14.0050  -31.5940  -13.1620 C   0  0  0  0  0  0
  -11.7290  -31.0150  -12.6170 N   0  0  0  0  0  0
  -10.4370  -30.3920  -12.8650 C   0  0  0  0  0  0
  -10.0070  -29.4860  -11.7320 C   0  0  0  0  0  0
   -8.8330  -29.1500  -11.6060 O   0  0  0  0  0  0
  -10.9660  -29.0820  -10.9080 N   0  0  0  0  0  0
  -10.6790  -28.2350   -9.7600 C   0  0  2  0  0  0
  -11.7020  -28.5660   -8.6790 C   0  0  0  0  0  0
  -12.8150  -28.9980   -8.9840 O   0  0  0  0  0  0
  -10.7680  -26.7530  -10.1360 C   0  0  0  0  0  0
  -12.1010  -26.3660  -10.4060 O   0  0  0  0  0  0
  -11.3250  -28.3640   -7.4210 N   0  0  0  0  0  0
  -12.2080  -28.6620   -6.3030 C   0  0  2  0  0  0
  -13.6520  -28.1800   -6.4660 C   0  0  0  0  0  0
  -14.5850  -28.9440   -6.2460 O   0  0  0  0  0  0
  -11.6140  -28.1020   -5.0100 C   0  0  0  0  0  0
  -13.8510  -26.9230   -6.8550 N   0  0  0  0  0  0
  -15.2160  -26.4230   -6.9940 C   0  0  2  0  0  0
  -16.0560  -27.1290   -8.0520 C   0  0  0  0  0  0
  -17.2770  -27.1700   -7.9450 O   0  0  0  0  0  0
  -15.2220  -24.9210   -7.2800 C   0  0  0  0  0  0
  -16.6210  -24.3190   -7.1820 C   0  0  0  0  0  0
  -16.5870  -22.8190   -7.3480 C   0  0  0  0  0  0
  -15.7440  -22.1700   -6.3470 N   0  0  0  0  0  0
  -16.1640  -21.7450   -5.1600 C   0  0  0  0  0  0
  -17.4320  -21.9000   -4.7980 N   0  3  0  0  0  0
  -15.3180  -21.1300   -4.3420 N   0  0  0  0  0  0
  -15.4100  -27.6810   -9.0730 N   0  0  0  0  0  0
  -16.1350  -28.3690  -10.1380 C   0  0  2  0  0  0
  -16.3540  -29.8400   -9.7920 C   0  0  0  0  0  0
  -16.8380  -30.6140  -10.6160 O   0  0  0  0  0  0
  -15.3710  -28.2450  -11.4540 C   0  0  0  0  0  0
  -15.9990  -30.2160   -8.5680 N   0  0  0  0  0  0
  -16.1560  -31.5980   -8.1150 C   0  0  2  0  0  0
  -17.1160  -31.6680   -6.9330 C   0  0  0  0  0  0
  -17.3770  -30.6630   -6.2690 O   0  0  0  0  0  0
  -14.7990  -32.1690   -7.6880 C   0  0  0  0  0  0
  -13.7160  -32.1020   -8.7570 C   0  0  0  0  0  0
  -13.8920  -33.1420   -9.8440 C   0  0  0  0  0  0
  -14.9320  -33.8380   -9.8480 O   0  5  0  0  0  0
  -12.9870  -33.2640  -10.6980 O   0  0  0  0  0  0
  -17.6440  -32.8590   -6.6710 N   0  0  0  0  0  0
  -18.5500  -33.0460   -5.5470 C   0  0  2  0  0  0
  -17.7150  -33.5200   -4.3640 C   0  0  0  0  0  0
  -16.8140  -34.3410   -4.5280 O   0  0  0  0  0  0
  -19.6260  -34.1090   -5.8570 C   0  0  0  0  0  0
  -20.4930  -34.3470   -4.6290 C   0  0  0  0  0  0
  -20.4810  -33.6550   -7.0260 C   0  0  0  0  0  0
  -18.0060  -32.9920   -3.1800 N   0  0  0  0  0  0
  -17.2770  -33.3780   -1.9770 C   0  0  2  0  0  0
  -18.1950  -34.0540   -0.9660 C   0  0  0  0  0  0
  -19.2460  -33.5220   -0.6110 O   0  0  0  0  0  0
  -16.6250  -32.1570   -1.3230 C   0  0  0  0  0  0
  -15.8730  -32.4770   -0.0660 C   0  0  0  0  0  0
  -14.6860  -33.1760   -0.0660 N   0  0  0  0  0  0
  -16.1530  -32.2130    1.2330 C   0  0  0  0  0  0
  -14.2660  -33.3300    1.1780 C   0  0  0  0  0  0
  -15.1390  -32.7550    1.9850 N   0  0  0  0  0  0
  -17.7860  -35.2270   -0.5010 N   0  0  0  0  0  0
  -18.5590  -35.9820    0.4760 C   0  0  2  0  0  0
  -18.1310  -35.6330    1.9000 C   0  0  0  0  0  0
  -17.1381  -36.2401    2.3828 O   0  0  0  0  0  0
  -18.3920  -37.4850    0.2320 C   0  0  0  0  0  0
  -19.1430  -38.0960   -0.9580 C   0  0  0  0  0  0
  -18.7500  -37.4080   -2.2570 C   0  0  0  0  0  0
  -18.8340  -39.5820   -1.0280 C   0  0  0  0  0  0
  -18.7513  -34.7653    2.5708 O   0  5  0  0  0  0
  -14.7334  -31.4307  -13.9699 H   0  0  0  0  0  0
  -14.4012  -31.1819  -12.2222 H   0  0  0  0  0  0
  -13.8256  -32.6727  -13.0426 H   0  0  0  0  0  0
  -11.8975  -31.5812  -11.6891 H   0  0  0  0  0  0
   -9.6709  -31.1721  -12.9857 H   0  0  0  0  0  0
  -10.4917  -29.7868  -13.7819 H   0  0  0  0  0  0
  -11.9985  -29.4031  -11.1102 H   0  0  0  0  0  0
   -9.6521  -28.4581   -9.4348 H   0  0  0  0  0  0
  -10.3893  -26.1404   -9.3045 H   0  0  0  0  0  0
  -10.1623  -26.5657  -11.0349 H   0  0  0  0  0  0
  -12.3253  -25.3274  -10.6907 H   0  0  0  0  0  0
  -10.3184  -27.9614   -7.2347 H   0  0  0  0  0  0
  -12.2351  -29.7616   -6.3128 H   0  0  0  0  0  0
  -10.5772  -28.4529   -4.9007 H   0  0  0  0  0  0
  -12.2104  -28.4476   -4.1527 H   0  0  0  0  0  0
  -11.6272  -27.0027   -5.0465 H   0  0  0  0  0  0
  -12.9985  -26.2623   -7.0712 H   0  0  0  0  0  0
  -15.6405  -26.6651   -6.0085 H   0  0  0  0  0  0
  -14.5778  -24.4065   -6.5518 H   0  0  0  0  0  0
  -14.8434  -24.7398   -8.2968 H   0  0  0  0  0  0
  -17.2589  -24.7435   -7.9712 H   0  0  0  0  0  0
  -17.0522  -24.5518   -6.1972 H   0  0  0  0  0  0
  -16.1890  -22.5691   -8.3426 H   0  0  0  0  0  0
  -17.6057  -22.4159   -7.2488 H   0  0  0  0  0  0
  -14.6765  -22.0020   -6.5523 H   0  0  0  0  0  0
  -18.1379  -22.4086   -5.4711 H   0  0  0  0  0  0
  -14.2662  -20.9984   -4.6360 H   0  0  0  0  0  0
  -15.6689  -20.7521   -3.3704 H   0  0  0  0  0  0
  -14.3126  -27.6142   -9.1089 H   0  0  0  0  0  0
  -17.1092  -27.8635  -10.2109 H   0  0  0  0  0  0
  -15.2200  -27.1816  -11.6915 H   0  0  0  0  0  0
  -15.9484  -28.7222  -12.2595 H   0  0  0  0  0  0
  -14.3942  -28.7418  -11.3591 H   0  0  0  0  0  0
  -15.5783  -29.4592   -7.8895 H   0  0  0  0  0  0
  -16.5676  -32.1485   -8.9738 H   0  0  0  0  0  0
  -14.4230  -31.6096   -6.8187 H   0  0  0  0  0  0
  -14.9155  -33.2293   -7.4192 H   0  0  0  0  0  0
  -13.7343  -31.1119   -9.2359 H   0  0  0  0  0  0
  -12.7323  -32.2668   -8.2932 H   0  0  0  0  0  0
  -17.3873  -33.7107   -7.3181 H   0  0  0  0  0  0
  -19.0295  -32.0727   -5.3660 H   0  0  0  0  0  0
  -19.1457  -35.0598   -6.1313 H   0  0  0  0  0  0
  -19.8601  -34.6751   -3.7913 H   0  0  0  0  0  0
  -21.2386  -35.1245   -4.8517 H   0  0  0  0  0  0
  -21.0070  -33.4134   -4.3565 H   0  0  0  0  0  0
  -19.8411  -33.4873   -7.9049 H   0  0  0  0  0  0
  -20.9949  -32.7188   -6.7626 H   0  0  0  0  0  0
  -21.2265  -34.4299   -7.2577 H   0  0  0  0  0  0
  -18.8153  -32.2495   -3.1182 H   0  0  0  0  0  0
  -16.5163  -34.0898   -2.3302 H   0  0  0  0  0  0
  -16.6673  -31.1209   -1.6899 H   0  0  0  0  0  0
  -16.9824  -31.6855    1.7268 H   0  0  0  0  0  0
  -13.3550  -33.8437    1.4851 H   0  0  0  0  0  0
  -16.8320  -35.6268   -0.8752 H   0  0  0  0  0  0
  -19.6044  -35.6771    0.3209 H   0  0  0  0  0  0
  -17.3305  -37.7118    0.0539 H   0  0  0  0  0  0
  -18.7427  -38.0409    1.1141 H   0  0  0  0  0  0
  -20.2259  -37.9566   -0.8246 H   0  0  0  0  0  0
  -18.9807  -36.3347   -2.1878 H   0  0  0  0  0  0
  -19.3132  -37.8511   -3.0915 H   0  0  0  0  0  0
  -17.6720  -37.5409   -2.4307 H   0  0  0  0  0  0
  -19.1243  -40.0618   -0.0817 H   0  0  0  0  0  0
  -17.7563  -39.7249   -1.1961 H   0  0  0  0  0  0
  -19.3976  -40.0350   -1.8569 H   0  0  0  0  0  0
  -14.2433  -33.5080   -1.0166 H   0  0  0  0  0  0
  -17.7766  -21.5198   -3.8250 H   0  0  0  0  0  0
  1  2  2  0  0  0
  1  3  1  0  0  0
  1  4  1  0  0  0
  3 70  1  0  0  0
  3 71  1  0  0  0
  3 72  1  0  0  0
  4  5  1  0  0  0
  4 73  1  0  0  0
  5  6  1  0  0  0
  5 74  1  0  0  0
  5 75  1  0  0  0
  6  7  2  0  0  0
  6  8  1  0  0  0
  8  9  1  0  0  0
  8 76  1  0  0  0
  9 10  1  0  0  0
  9 12  1  0  0  0
  9 77  1  0  0  0
 10 11  2  0  0  0
 10 14  1  0  0  0
 12 13  1  0  0  0
 12 78  1  0  0  0
 12 79  1  0  0  0
 13 80  1  0  0  0
 14 15  1  0  0  0
 14 81  1  0  0  0
 15 16  1  0  0  0
 15 18  1  0  0  0
 15 82  1  0  0  0
 16 17  2  0  0  0
 16 19  1  0  0  0
 18 83  1  0  0  0
 18 84  1  0  0  0
 18 85  1  0  0  0
 19 20  1  0  0  0
 19 86  1  0  0  0
 20 21  1  0  0  0
 20 23  1  0  0  0
 20 87  1  0  0  0
 21 22  2  0  0  0
 21 30  1  0  0  0
 23 24  1  0  0  0
 23 88  1  0  0  0
 23 89  1  0  0  0
 24 25  1  0  0  0
 24 90  1  0  0  0
 24 91  1  0  0  0
 25 26  1  0  0  0
 25 92  1  0  0  0
 25 93  1  0  0  0
 26 27  1  0  0  0
 26 94  1  0  0  0
 27 28  2  0  0  0
 27 29  1  0  0  0
 28 95  1  0  0  0
 28135  1  0  0  0
 29 96  1  0  0  0
 29 97  1  0  0  0
 30 31  1  0  0  0
 30 98  1  0  0  0
 31 32  1  0  0  0
 31 34  1  0  0  0
 31 99  1  0  0  0
 32 33  2  0  0  0
 32 35  1  0  0  0
 34100  1  0  0  0
 34101  1  0  0  0
 34102  1  0  0  0
 35 36  1  0  0  0
 35103  1  0  0  0
 36 37  1  0  0  0
 36 39  1  0  0  0
 36104  1  0  0  0
 37 38  2  0  0  0
 37 44  1  0  0  0
 39 40  1  0  0  0
 39105  1  0  0  0
 39106  1  0  0  0
 40 41  1  0  0  0
 40107  1  0  0  0
 40108  1  0  0  0
 41 42  1  0  0  0
 41 43  2  0  0  0
 44 45  1  0  0  0
 44109  1  0  0  0
 45 46  1  0  0  0
 45 48  1  0  0  0
 45110  1  0  0  0
 46 47  2  0  0  0
 46 51  1  0  0  0
 48 49  1  0  0  0
 48 50  1  0  0  0
 48111  1  0  0  0
 49112  1  0  0  0
 49113  1  0  0  0
 49114  1  0  0  0
 50115  1  0  0  0
 50116  1  0  0  0
 50117  1  0  0  0
 51 52  1  0  0  0
 51118  1  0  0  0
 52 53  1  0  0  0
 52 55  1  0  0  0
 52119  1  0  0  0
 53 54  2  0  0  0
 53 61  1  0  0  0
 55 56  2  0  0  0
 55120  1  0  0  0
 56 57  1  0  0  0
 56 58  1  0  0  0
 57 59  1  0  0  0
 57134  1  0  0  0
 58 60  2  0  0  0
 58121  1  0  0  0
 59 60  1  0  0  0
 59122  1  0  0  0
 61 62  1  0  0  0
 61123  1  0  0  0
 62 63  1  0  0  0
 62 65  1  0  0  0
 62124  1  0  0  0
 63 64  2  0  0  0
 63 69  1  0  0  0
 65 66  1  0  0  0
 65125  1  0  0  0
 65126  1  0  0  0
 66 67  1  0  0  0
 66 68  1  0  0  0
 66127  1  0  0  0
 67128  1  0  0  0
 67129  1  0  0  0
 67130  1  0  0  0
 68131  1  0  0  0
 68132  1  0  0  0
 68133  1  0  0  0
M  CHG  3  28   1  42  -1  69  -1
M  END
> <s_m_source_file>
../3eg6_ligand.sdf

> <i_m_source_file_index>
1

> <s_epik_input>
Tz1DKFtDSDNdKVtOSF1bQ0gyXUMoPU8pW05IXVtDQEBIXShbQ0gyXVtPSF0pQyg9TylbTkhdW0NAQEhdKFtDSDNdKUMoPU8pW05IXVtDQEBIXShbQ0gyXVtDSDJdW0NIMl1bTkhdL0MoPU5cW0hdKVtOSDJdKUMoPU8pW05IXVtDQEBIXShbQ0gzXSlDKD1PKVtOSF1bQ0BASF0oW0NIMl1bQ0gyXUMoPU8pW09IXSlDKD1PKVtOSF1bQ0BASF0oW0NIXShbQ0gzXSlbQ0gzXSlDKD1PKVtOSF1bQ0BIXShDKD1PKVtOSF1bQ0BIXShDKD1PKVtPSF0pW0NIMl1bQ0hdKFtDSDNdKVtDSDNdKVtDSDJdQzE9TltDSDJdTj1bQ0hdMQ==

> <s_epik_cmdline>
J2VwaWtfYXBwJywgJy1pbWFlJywgJ2xpZ2FuZF9wcm8ubWFlJywgJy1vbWFlJywgJ2xpZ2FuZF9wcmVwLm1hZScsICctbXMnLCAnMScsICctcGgnLCAnNycsICctcGh0JywgJzAuNScsICctbnQn

> <r_lp_tautomer_probability>
1

> <r_epik_Ionization_Penalty>
  0.0019

> <r_epik_Ionization_Penalty_Charging>
  0.0019

> <r_epik_Ionization_Penalty_Neutral>
  0.0000

> <r_epik_State_Penalty>
 -0.0000

> <r_epik_Charging_Adjusted_Penalty>
0.00192128479970201

> <i_epik_Tot_Q>
-1

> <i_epik_Tot_abs_Q>
3

> <s_epik_Chemistry_Notes>
This compound has an imine and may undergo hydrolysis.

$$$$
