3egk_ligand
                    3D
 Schrodinger Suite 2020-3.
 55 56  0  0  1  0            999 V2000
   13.9340  -10.4170   20.6290 C   0  0  0  0  0  0
   14.9190  -11.5260   20.8010 C   0  0  0  0  0  0
   15.0840  -12.3190   22.1040 O   0  0  0  0  0  0
   15.6860  -11.7850   19.6640 O   0  0  0  0  0  0
   16.4920  -12.9760   19.7510 C   0  0  0  0  0  0
   17.7270  -12.7070   20.6530 C   0  0  2  0  0  0
   18.7180  -11.7070   20.0080 C   0  0  0  0  0  0
   20.1290  -12.2110   20.3770 C   0  0  0  0  0  0
   19.9700  -13.7450   20.3340 C   0  0  0  0  0  0
   18.5810  -13.8930   20.7550 N   0  0  0  0  0  0
   18.2180  -15.0190   21.4400 C   0  0  0  0  0  0
   19.1740  -16.1940   21.6060 C   0  0  0  0  0  0
   19.9790  -16.0540   22.8170 N   0  0  0  0  0  0
   19.3760  -16.1830   24.0180 C   0  0  0  0  0  0
   19.7330  -15.2940   24.9400 O   0  0  0  0  0  0
   20.2410  -14.0690   24.7970 C   0  0  0  0  0  0
   19.9230  -13.3640   26.1210 C   0  0  0  0  0  0
   21.7470  -14.2700   24.6780 C   0  0  0  0  0  0
   19.7880  -13.1950   23.6880 C   0  0  0  0  0  0
   18.5540  -17.0720   24.2370 O   0  0  0  0  0  0
   17.3360  -14.9830   22.2930 O   0  0  0  0  0  0
   12.8970  -10.2950   21.7520 C   0  0  0  0  0  0
   12.9510   -9.1850   22.6030 C   0  0  0  0  0  0
   12.0350   -9.0400   23.6520 C   0  0  0  0  0  0
   12.1260   -7.6280   24.6940 Cl  0  0  0  0  0  0
   11.0170   -9.9820   23.8150 C   0  0  0  0  0  0
   10.9720  -11.1020   22.9800 C   0  0  0  0  0  0
   11.9220  -11.2780   21.9620 C   0  0  0  0  0  0
   14.4676   -9.4561   20.5857 H   0  0  0  0  0  0
   13.3724  -10.5669   19.6951 H   0  0  0  0  0  0
   15.8948  -13.7920   20.1840 H   0  0  0  0  0  0
   16.8309  -13.2637   18.7448 H   0  0  0  0  0  0
   17.3161  -12.4005   21.6263 H   0  0  0  0  0  0
   18.5715  -11.6971   18.9179 H   0  0  0  0  0  0
   18.5371  -10.6997   20.4114 H   0  0  0  0  0  0
   20.8555  -11.8399   19.6391 H   0  0  0  0  0  0
   20.4006  -11.8414   21.3768 H   0  0  0  0  0  0
   20.1597  -14.1048   19.3119 H   0  0  0  0  0  0
   20.6899  -14.2078   21.0251 H   0  0  0  0  0  0
   18.5979  -17.1286   21.6741 H   0  0  0  0  0  0
   19.8498  -16.2421   20.7394 H   0  0  0  0  0  0
   21.0566  -15.8471   22.7402 H   0  0  0  0  0  0
   20.2508  -13.9949   26.9603 H   0  0  0  0  0  0
   18.8390  -13.1916   26.1934 H   0  0  0  0  0  0
   20.4510  -12.3998   26.1590 H   0  0  0  0  0  0
   22.0962  -14.9174   25.4958 H   0  0  0  0  0  0
   22.2530  -13.2953   24.7403 H   0  0  0  0  0  0
   21.9787  -14.7423   23.7120 H   0  0  0  0  0  0
   18.7013  -13.0418   23.7624 H   0  0  0  0  0  0
   20.0262  -13.6710   22.7253 H   0  0  0  0  0  0
   20.3006  -12.2239   23.7537 H   0  0  0  0  0  0
   13.7157   -8.4240   22.4471 H   0  0  0  0  0  0
   10.2619   -9.8446   24.5889 H   0  0  0  0  0  0
   10.1897  -11.8477   23.1212 H   0  0  0  0  0  0
   11.9011  -12.1727   21.3398 H   0  0  0  0  0  0
  1  2  1  0  0  0
  1 22  1  0  0  0
  1 29  1  0  0  0
  1 30  1  0  0  0
  2  3  2  0  0  0
  2  4  1  0  0  0
  4  5  1  0  0  0
  5  6  1  0  0  0
  5 31  1  0  0  0
  5 32  1  0  0  0
  6  7  1  0  0  0
  6 10  1  0  0  0
  6 33  1  0  0  0
  7  8  1  0  0  0
  7 34  1  0  0  0
  7 35  1  0  0  0
  8  9  1  0  0  0
  8 36  1  0  0  0
  8 37  1  0  0  0
  9 10  1  0  0  0
  9 38  1  0  0  0
  9 39  1  0  0  0
 10 11  1  0  0  0
 11 12  1  0  0  0
 11 21  2  0  0  0
 12 13  1  0  0  0
 12 40  1  0  0  0
 12 41  1  0  0  0
 13 14  1  0  0  0
 13 42  1  0  0  0
 14 15  1  0  0  0
 14 20  2  0  0  0
 15 16  1  0  0  0
 16 17  1  0  0  0
 16 18  1  0  0  0
 16 19  1  0  0  0
 17 43  1  0  0  0
 17 44  1  0  0  0
 17 45  1  0  0  0
 18 46  1  0  0  0
 18 47  1  0  0  0
 18 48  1  0  0  0
 19 49  1  0  0  0
 19 50  1  0  0  0
 19 51  1  0  0  0
 22 23  2  0  0  0
 22 28  1  0  0  0
 23 24  1  0  0  0
 23 52  1  0  0  0
 24 25  1  0  0  0
 24 26  2  0  0  0
 26 27  1  0  0  0
 26 53  1  0  0  0
 27 28  2  0  0  0
 27 54  1  0  0  0
 28 55  1  0  0  0
M  END
> <s_m_source_file>
../3egk_ligand.sdf

> <i_m_source_file_index>
1

> <s_epik_input>
W2NIXTFbY0hdW2NIXWMoQ2wpW2NIXWMxW0NIMl1DKD1PKU9bQ0gyXVtDQEBIXTJbQ0gyXVtDSDJdW0NIMl1OMkMoPU8pW0NIMl1bTkhdQyg9TylPQyhbQ0gzXSkoW0NIM10pW0NIM10=

> <s_epik_cmdline>
J2VwaWtfYXBwJywgJy1pbWFlJywgJ2xpZ2FuZF9wcm8ubWFlJywgJy1vbWFlJywgJ2xpZ2FuZF9wcmVwLm1hZScsICctbXMnLCAnMScsICctcGgnLCAnNycsICctcGh0JywgJzAuNScsICctbnQn

> <r_lp_tautomer_probability>
1

> <r_epik_Ionization_Penalty>
  0.0000

> <r_epik_Ionization_Penalty_Charging>
  0.0000

> <r_epik_Ionization_Penalty_Neutral>
  0.0000

> <r_epik_State_Penalty>
 -0.0000

> <r_epik_Charging_Adjusted_Penalty>
0

> <i_epik_Tot_Q>
0

> <i_epik_Tot_abs_Q>
0

> <s_epik_Chemistry_Notes>
This compound has an ester and may undergo hydrolysis at high or low pH.

$$$$
