3ehn_ligand
                    3D
 Schrodinger Suite 2020-3.
 51 52  0  0  1  0            999 V2000
  -43.5210  -29.7570   20.0550 C   0  0  1  0  0  0
  -42.3220  -30.4950   19.9390 O   0  0  0  0  0  0
  -44.5710  -29.9290   18.9500 C   0  0  2  0  0  0
  -44.0170  -29.6290   17.7450 N   0  0  0  0  0  0
  -44.1270  -30.0270   16.4810 C   0  0  0  0  0  0
  -45.2310  -29.4760   15.5690 C   0  0  0  0  0  0
  -43.5130  -31.0330   16.1620 O   0  0  0  0  0  0
  -45.6770  -28.8910   19.3060 C   0  0  1  0  0  0
  -46.7510  -28.7660   18.3820 O   0  0  0  0  0  0
  -46.2940  -29.2560   20.6420 C   0  0  2  0  0  0
  -47.3960  -28.3960   21.1810 O   0  0  0  0  0  0
  -45.1760  -29.2970   21.7650 C   0  0  1  0  0  0
  -45.7750  -29.5490   23.1830 C   0  0  0  0  0  0
  -44.6820  -29.8840   24.0440 O   0  0  0  0  0  0
  -43.9730  -30.0120   21.4140 O   0  0  0  0  0  0
  -49.6580  -28.3190   21.9090 C   0  0  2  0  0  0
  -49.2200  -28.4650   23.2670 O   0  0  0  0  0  0
  -51.0450  -28.9570   21.7310 C   0  0  1  0  0  0
  -51.9870  -28.3060   22.5930 O   0  0  0  0  0  0
  -51.4890  -28.8080   20.2520 C   0  0  2  0  0  0
  -50.4280  -29.5060   19.3580 C   0  0  1  0  0  0
  -50.8520  -29.3460   17.9010 C   0  0  0  0  0  0
  -48.6720  -29.0310   20.9750 C   0  0  1  0  0  0
  -49.9170  -29.9770   17.0170 O   0  0  0  0  0  0
  -49.1160  -28.8800   19.5780 O   0  0  0  0  0  0
  -51.6010  -27.4120   19.9010 O   0  0  0  0  0  0
  -43.2459  -28.6993   19.9297 H   0  0  0  0  0  0
  -41.7573  -30.4820   18.9951 H   0  0  0  0  0  0
  -44.9111  -30.9604   18.7751 H   0  0  0  0  0  0
  -43.2448  -28.8488   17.6736 H   0  0  0  0  0  0
  -45.6644  -28.5725   16.0227 H   0  0  0  0  0  0
  -46.0162  -30.2360   15.4435 H   0  0  0  0  0  0
  -44.8038  -29.2245   14.5870 H   0  0  0  0  0  0
  -45.2195  -27.8916   19.2622 H   0  0  0  0  0  0
  -46.5467  -28.5033   17.3335 H   0  0  0  0  0  0
  -46.7980  -30.1987   20.3824 H   0  0  0  0  0  0
  -44.6429  -28.3366   21.8231 H   0  0  0  0  0  0
  -46.2819  -28.6381   23.5341 H   0  0  0  0  0  0
  -46.4990  -30.3756   23.1336 H   0  0  0  0  0  0
  -44.8660  -30.1057   25.1056 H   0  0  0  0  0  0
  -49.6848  -27.2339   21.7306 H   0  0  0  0  0  0
  -49.8044  -28.0176   24.0845 H   0  0  0  0  0  0
  -51.0457  -30.0091   22.0522 H   0  0  0  0  0  0
  -51.8308  -28.3108   23.6818 H   0  0  0  0  0  0
  -52.5001  -29.2065   20.0821 H   0  0  0  0  0  0
  -50.3039  -30.5709   19.6041 H   0  0  0  0  0  0
  -51.8399  -29.8068   17.7539 H   0  0  0  0  0  0
  -50.9053  -28.2764   17.6500 H   0  0  0  0  0  0
  -48.5611  -30.1096   21.1601 H   0  0  0  0  0  0
  -50.0831  -29.9494   15.9300 H   0  0  0  0  0  0
  -52.3103  -26.7651   20.4380 H   0  0  0  0  0  0
  1  2  1  0  0  0
  1  3  1  0  0  0
  1 15  1  0  0  0
  1 27  1  0  0  0
  2 28  1  0  0  0
  3  4  1  0  0  0
  3  8  1  0  0  0
  3 29  1  0  0  0
  4  5  1  0  0  0
  4 30  1  0  0  0
  5  6  1  0  0  0
  5  7  2  0  0  0
  6 31  1  0  0  0
  6 32  1  0  0  0
  6 33  1  0  0  0
  8  9  1  0  0  0
  8 10  1  0  0  0
  8 34  1  0  0  0
  9 35  1  0  0  0
 10 11  1  0  0  0
 10 12  1  0  0  0
 10 36  1  0  0  0
 11 23  1  0  0  0
 12 13  1  0  0  0
 12 15  1  0  0  0
 12 37  1  0  0  0
 13 14  1  0  0  0
 13 38  1  0  0  0
 13 39  1  0  0  0
 14 40  1  0  0  0
 16 17  1  0  0  0
 16 18  1  0  0  0
 16 23  1  0  0  0
 16 41  1  0  0  0
 17 42  1  0  0  0
 18 19  1  0  0  0
 18 20  1  0  0  0
 18 43  1  0  0  0
 19 44  1  0  0  0
 20 21  1  0  0  0
 20 26  1  0  0  0
 20 45  1  0  0  0
 21 22  1  0  0  0
 21 25  1  0  0  0
 21 46  1  0  0  0
 22 24  1  0  0  0
 22 47  1  0  0  0
 22 48  1  0  0  0
 23 25  1  0  0  0
 23 49  1  0  0  0
 24 50  1  0  0  0
 26 51  1  0  0  0
M  END
> <s_m_source_file>
../3ehn_ligand.sdf

> <i_m_source_file_index>
1

> <s_epik_input>
W0NIM11DKD1PKVtOSF1bQ0BASF0oW0NAQEhdMVtPSF0pW0NAQEhdKFtPSF0pW0NAQEhdKFtDQEhdKE8xKVtDSDJdW09IXSlPW0NAQEhdMk9bQ0BIXShbQ0gyXVtPSF0pW0NASF0oW09IXSlbQ0BIXShbT0hdKVtDQEhdMltPSF0=

> <s_epik_cmdline>
J2VwaWtfYXBwJywgJy1pbWFlJywgJ2xpZ2FuZF9wcm8ubWFlJywgJy1vbWFlJywgJ2xpZ2FuZF9wcmVwLm1hZScsICctbXMnLCAnMScsICctcGgnLCAnNycsICctcGh0JywgJzAuNScsICctbnQn

> <r_lp_tautomer_probability>
1

> <r_epik_Ionization_Penalty>
  0.0000

> <r_epik_Ionization_Penalty_Charging>
  0.0000

> <r_epik_Ionization_Penalty_Neutral>
  0.0000

> <r_epik_State_Penalty>
 -0.0000

> <r_epik_Charging_Adjusted_Penalty>
0

> <i_epik_Tot_Q>
0

> <i_epik_Tot_abs_Q>
0

> <s_epik_Chemistry_Notes>
This compound contains an acetal/aminal-like group ( X-CH(R)-Y where X, Y are N, S, or O) that may be acid/base labile, releasing an aldehyde.

$$$$
