3eht_ligand
                    3D
 Schrodinger Suite 2020-3.
191191  0  0  1  0            999 V2000
   27.4590  -42.7410   32.4190 N   0  3  0  0  0  0
   27.0550  -43.6530   33.5270 C   0  0  2  0  0  0
   28.0130  -43.5240   34.7100 C   0  0  0  0  0  0
   27.6520  -42.9660   35.7470 O   0  0  0  0  0  0
   26.9820  -45.1110   33.0360 C   0  0  0  0  0  0
   29.2300  -44.0430   34.5440 N   0  0  0  0  0  0
   30.2700  -43.9710   35.5730 C   0  0  2  0  0  0
   30.8190  -42.5520   35.7270 C   0  0  0  0  0  0
   30.9300  -42.0470   36.8440 O   0  0  0  0  0  0
   31.3950  -44.9760   35.2790 C   0  0  0  0  0  0
   32.7390  -44.5500   35.7870 C   0  0  0  0  0  0
   33.0240  -44.4180   37.1310 N   0  0  0  0  0  0
   33.8780  -44.2240   35.1290 C   0  0  0  0  0  0
   34.2780  -44.0270   37.2770 C   0  0  0  0  0  0
   34.8190  -43.9060   36.0780 N   0  0  0  0  0  0
   31.1560  -41.9120   34.6100 N   0  0  0  0  0  0
   31.5580  -40.5050   34.6310 C   0  0  2  0  0  0
   30.3420  -39.6050   34.8840 C   0  0  0  0  0  0
   30.4630  -38.3750   34.9370 O   0  0  0  0  0  0
   32.2790  -40.1100   33.3340 C   0  0  0  0  0  0
   31.3950  -40.0850   32.2230 O   0  0  0  0  0  0
   29.1780  -40.2410   35.0440 N   0  0  0  0  0  0
   27.9240  -39.5480   35.3250 C   0  0  2  0  0  0
   27.3980  -39.7740   36.7420 C   0  0  0  0  0  0
   26.5840  -38.9940   37.2320 O   0  0  0  0  0  0
   26.8620  -39.9090   34.2860 C   0  0  0  0  0  0
   27.0400  -39.1490   32.9850 C   0  0  0  0  0  0
   27.1560  -37.9250   32.9780 O   0  0  0  0  0  0
   27.0610  -39.8750   31.8760 N   0  0  0  0  0  0
   27.8520  -40.8410   37.3930 N   0  0  0  0  0  0
   27.6240  -41.0040   38.8230 C   0  0  2  0  0  0
   28.5640  -40.0530   39.5430 C   0  0  0  0  0  0
   28.1640  -39.3670   40.4810 O   0  0  0  0  0  0
   27.9050  -42.4330   39.2700 C   0  0  0  0  0  0
   26.7890  -43.4150   39.0140 C   0  0  0  0  0  0
   27.3980  -44.7720   38.7440 C   0  0  0  0  0  0
   26.4480  -45.8600   38.9630 N   0  0  0  0  0  0
   26.7380  -47.1480   38.7930 C   0  0  0  0  0  0
   27.9560  -47.5180   38.3940 N   0  0  0  0  0  0
   25.8070  -48.0700   39.0230 N   0  0  0  0  0  0
   29.8160  -40.0270   39.0900 N   0  0  0  0  0  0
   30.8260  -39.1010   39.5910 C   0  0  2  0  0  0
   30.3420  -37.6510   39.4850 C   0  0  0  0  0  0
   30.5000  -36.8680   40.4250 O   0  0  0  0  0  0
   32.1510  -39.3290   38.8470 C   0  0  0  0  0  0
   32.9700  -38.0830   38.4910 C   0  0  0  0  0  0
   34.0060  -38.4290   37.4100 C   0  0  0  0  0  0
   34.5890  -37.1340   36.7700 C   0  0  0  0  0  0
   35.5550  -37.4700   35.6750 N   0  3  0  0  0  0
   29.7290  -37.3070   38.3540 N   0  0  0  0  0  0
   29.1800  -35.9780   38.1780 C   0  0  2  0  0  0
   28.1040  -35.7440   39.2180 C   0  0  0  0  0  0
   28.2390  -34.8620   40.0490 O   0  0  0  0  0  0
   28.6220  -35.7900   36.7730 C   0  0  0  0  0  0
   28.8800  -34.3970   36.2000 C   0  0  0  0  0  0
   30.3140  -34.2800   35.6940 C   0  0  0  0  0  0
   27.9210  -34.0970   35.0840 C   0  0  0  0  0  0
   27.0690  -36.5770   39.1970 N   0  0  0  0  0  0
   25.9270  -36.4610   40.1060 C   0  0  2  0  0  0
   26.2330  -36.4270   41.6080 C   0  0  0  0  0  0
   25.4200  -35.9450   42.3970 O   0  0  0  0  0  0
   24.9310  -37.5720   39.8130 C   0  0  0  0  0  0
   23.8790  -37.1660   38.8180 C   0  0  0  0  0  0
   23.1570  -38.5270   37.8870 S   0  0  0  0  0  0
   22.6460  -39.6550   39.1980 C   0  0  0  0  0  0
   27.3860  -36.9460   42.0090 N   0  0  0  0  0  0
   27.7800  -36.8680   43.4040 C   0  0  2  0  0  0
   28.2640  -35.4670   43.7060 C   0  0  0  0  0  0
   27.9870  -34.9270   44.7660 O   0  0  0  0  0  0
   28.8680  -37.8800   43.7230 C   0  0  0  0  0  0
   28.3720  -39.3130   43.8330 C   0  0  0  0  0  0
   29.4920  -40.3430   43.6680 C   0  0  0  0  0  0
   30.6860  -39.9500   43.6710 O   0  0  0  0  0  0
   29.1780  -41.5520   43.5320 O   0  0  0  0  0  0
   28.9800  -34.8770   42.7580 N   0  0  0  0  0  0
   29.4610  -33.5080   42.8950 C   0  0  2  0  0  0
   28.3390  -32.4900   42.6600 C   0  0  0  0  0  0
   28.1860  -31.5510   43.4340 O   0  0  0  0  0  0
   30.6330  -33.2390   41.9350 C   0  0  2  0  0  0
   31.7270  -34.2820   42.1540 C   0  0  0  0  0  0
   31.1750  -31.8150   42.1150 C   0  0  0  0  0  0
   32.6590  -34.4380   40.9880 C   0  0  0  0  0  0
   27.5610  -32.7000   41.6000 N   0  0  0  0  0  0
   26.4980  -31.7860   41.1700 C   0  0  2  0  0  0
   25.3950  -31.6420   42.2170 C   0  0  0  0  0  0
   24.9410  -30.5330   42.4960 O   0  0  0  0  0  0
   25.8940  -32.2400   39.8040 C   0  0  2  0  0  0
   26.9770  -32.3020   38.7290 C   0  0  0  0  0  0
   24.7760  -31.3220   39.3290 C   0  0  0  0  0  0
   27.9900  -31.1670   38.7820 C   0  0  0  0  0  0
   24.9520  -32.7440   42.8070 N   0  0  0  0  0  0
   27.5042  -41.7075   32.7929 H   0  0  0  0  0  0
   26.7222  -42.8045   31.6047 H   0  0  0  0  0  0
   28.4487  -43.0382   32.0419 H   0  0  0  0  0  0
   26.0545  -43.3293   33.8499 H   0  0  0  0  0  0
   26.2873  -45.1772   32.1857 H   0  0  0  0  0  0
   26.6245  -45.7554   33.8526 H   0  0  0  0  0  0
   27.9821  -45.4416   32.7190 H   0  0  0  0  0  0
   29.4381  -44.5412   33.5856 H   0  0  0  0  0  0
   29.7621  -44.2450   36.5095 H   0  0  0  0  0  0
   31.1587  -45.9400   35.7533 H   0  0  0  0  0  0
   31.4875  -45.1152   34.1918 H   0  0  0  0  0  0
   34.1373  -44.1797   34.0609 H   0  0  0  0  0  0
   34.7804  -43.8367   38.2254 H   0  0  0  0  0  0
   31.1281  -42.4619   33.6577 H   0  0  0  0  0  0
   32.2643  -40.4168   35.4696 H   0  0  0  0  0  0
   32.7166  -39.1073   33.4485 H   0  0  0  0  0  0
   33.0774  -40.8365   33.1225 H   0  0  0  0  0  0
   31.7731  -39.8180   31.2252 H   0  0  0  0  0  0
   29.1926  -41.3373   34.9550 H   0  0  0  0  0  0
   28.2010  -38.4865   35.2446 H   0  0  0  0  0  0
   26.9200  -40.9841   34.0608 H   0  0  0  0  0  0
   25.8643  -39.6709   34.6834 H   0  0  0  0  0  0
   26.9534  -40.9683   31.9322 H   0  0  0  0  0  0
   27.1861  -39.3841   30.8996 H   0  0  0  0  0  0
   28.4079  -41.6080   36.8337 H   0  0  0  0  0  0
   26.5656  -40.7739   39.0151 H   0  0  0  0  0  0
   28.7885  -42.8164   38.7386 H   0  0  0  0  0  0
   28.0938  -42.4478   40.3536 H   0  0  0  0  0  0
   26.1353  -43.4655   39.8972 H   0  0  0  0  0  0
   26.2035  -43.0858   38.1429 H   0  0  0  0  0  0
   27.7362  -44.8206   37.6984 H   0  0  0  0  0  0
   28.2558  -44.9289   39.4145 H   0  0  0  0  0  0
   25.4214  -45.6365   39.2887 H   0  0  0  0  0  0
   28.7271  -46.7570   38.2033 H   0  0  0  0  0  0
   28.1892  -48.5841   38.2557 H   0  0  0  0  0  0
   24.8021  -47.7668   39.3521 H   0  0  0  0  0  0
   30.0744  -40.7484   38.3008 H   0  0  0  0  0  0
   30.9594  -39.3347   40.6576 H   0  0  0  0  0  0
   32.8145  -39.9539   39.4628 H   0  0  0  0  0  0
   31.9524  -39.8363   37.8914 H   0  0  0  0  0  0
   32.2983  -37.2987   38.1119 H   0  0  0  0  0  0
   33.4905  -37.7176   39.3885 H   0  0  0  0  0  0
   34.8285  -39.0036   37.8610 H   0  0  0  0  0  0
   33.5276  -39.0299   36.6226 H   0  0  0  0  0  0
   33.7701  -36.5328   36.3482 H   0  0  0  0  0  0
   35.1145  -36.5493   37.5394 H   0  0  0  0  0  0
   35.9526  -36.5416   35.2392 H   0  0  0  0  0  0
   35.0385  -38.0492   34.8954 H   0  0  0  0  0  0
   36.3830  -38.0658   36.0866 H   0  0  0  0  0  0
   29.6427  -38.0491   37.5466 H   0  0  0  0  0  0
   30.0165  -35.2787   38.3237 H   0  0  0  0  0  0
   29.0875  -36.5187   36.0931 H   0  0  0  0  0  0
   27.5331  -35.9453   36.7871 H   0  0  0  0  0  0
   28.7153  -33.6562   36.9963 H   0  0  0  0  0  0
   31.0117  -34.5007   36.5153 H   0  0  0  0  0  0
   30.4911  -33.2583   35.3270 H   0  0  0  0  0  0
   30.4734  -34.9967   34.8749 H   0  0  0  0  0  0
   26.8888  -34.1829   35.4545 H   0  0  0  0  0  0
   28.0770  -34.8134   34.2640 H   0  0  0  0  0  0
   28.0947  -33.0750   34.7161 H   0  0  0  0  0  0
   27.0977  -37.3840   38.4501 H   0  0  0  0  0  0
   25.5476  -35.4597   39.8542 H   0  0  0  0  0  0
   25.4632  -38.4425   39.4020 H   0  0  0  0  0  0
   24.4194  -37.8605   40.7431 H   0  0  0  0  0  0
   23.0515  -36.6661   39.3427 H   0  0  0  0  0  0
   24.3171  -36.4754   38.0824 H   0  0  0  0  0  0
   22.1799  -40.5467   38.7534 H   0  0  0  0  0  0
   21.9210  -39.1506   39.8537 H   0  0  0  0  0  0
   23.5254  -39.9557   39.7864 H   0  0  0  0  0  0
   28.0449  -37.4375   41.2780 H   0  0  0  0  0  0
   26.8823  -37.1050   43.9938 H   0  0  0  0  0  0
   29.6297  -37.8618   42.9296 H   0  0  0  0  0  0
   29.3351  -37.6250   44.6857 H   0  0  0  0  0  0
   27.9160  -39.4683   44.8219 H   0  0  0  0  0  0
   27.6231  -39.5029   43.0500 H   0  0  0  0  0  0
   31.5042  -40.6758   43.5537 H   0  0  0  0  0  0
   29.2085  -35.4518   41.8484 H   0  0  0  0  0  0
   29.7991  -33.4437   43.9398 H   0  0  0  0  0  0
   30.2787  -33.3245   40.8972 H   0  0  0  0  0  0
   32.3374  -33.9961   43.0233 H   0  0  0  0  0  0
   31.2662  -35.2640   42.3366 H   0  0  0  0  0  0
   30.3638  -31.0905   41.9508 H   0  0  0  0  0  0
   31.9805  -31.6346   41.3879 H   0  0  0  0  0  0
   31.5693  -31.6990   43.1353 H   0  0  0  0  0  0
   33.4142  -35.2028   41.2220 H   0  0  0  0  0  0
   33.1586  -33.4788   40.7871 H   0  0  0  0  0  0
   32.0873  -34.7467   40.1004 H   0  0  0  0  0  0
   27.7538  -33.6240   41.0351 H   0  0  0  0  0  0
   27.0085  -30.8156   41.0820 H   0  0  0  0  0  0
   25.4594  -33.2407   39.9446 H   0  0  0  0  0  0
   27.5434  -33.2393   38.8327 H   0  0  0  0  0  0
   26.5089  -32.2647   37.7343 H   0  0  0  0  0  0
   23.9912  -31.2717   40.0981 H   0  0  0  0  0  0
   24.3494  -31.7167   38.3950 H   0  0  0  0  0  0
   25.1798  -30.3144   39.1507 H   0  0  0  0  0  0
   28.7264  -31.2949   37.9750 H   0  0  0  0  0  0
   28.5050  -31.1803   39.7539 H   0  0  0  0  0  0
   27.4705  -30.2057   38.6554 H   0  0  0  0  0  0
   25.3774  -33.7217   42.5366 H   0  0  0  0  0  0
   24.1591  -32.6804   43.5668 H   0  0  0  0  0  0
  1  2  1  0  0  0
  1 92  1  0  0  0
  1 93  1  0  0  0
  1 94  1  0  0  0
  2  3  1  0  0  0
  2  5  1  0  0  0
  2 95  1  0  0  0
  3  4  2  0  0  0
  3  6  1  0  0  0
  5 96  1  0  0  0
  5 97  1  0  0  0
  5 98  1  0  0  0
  6  7  1  0  0  0
  6 99  1  0  0  0
  7  8  1  0  0  0
  7 10  1  0  0  0
  7100  1  0  0  0
  8  9  2  0  0  0
  8 16  1  0  0  0
 10 11  1  0  0  0
 10101  1  0  0  0
 10102  1  0  0  0
 11 12  2  0  0  0
 11 13  1  0  0  0
 12 14  1  0  0  0
 13 15  2  0  0  0
 13103  1  0  0  0
 14 15  1  0  0  0
 14104  1  0  0  0
 16 17  1  0  0  0
 16105  1  0  0  0
 17 18  1  0  0  0
 17 20  1  0  0  0
 17106  1  0  0  0
 18 19  2  0  0  0
 18 22  1  0  0  0
 20 21  1  0  0  0
 20107  1  0  0  0
 20108  1  0  0  0
 21109  1  0  0  0
 22 23  1  0  0  0
 22110  1  0  0  0
 23 24  1  0  0  0
 23 26  1  0  0  0
 23111  1  0  0  0
 24 25  2  0  0  0
 24 30  1  0  0  0
 26 27  1  0  0  0
 26112  1  0  0  0
 26113  1  0  0  0
 27 28  2  0  0  0
 27 29  1  0  0  0
 29114  1  0  0  0
 29115  1  0  0  0
 30 31  1  0  0  0
 30116  1  0  0  0
 31 32  1  0  0  0
 31 34  1  0  0  0
 31117  1  0  0  0
 32 33  2  0  0  0
 32 41  1  0  0  0
 34 35  1  0  0  0
 34118  1  0  0  0
 34119  1  0  0  0
 35 36  1  0  0  0
 35120  1  0  0  0
 35121  1  0  0  0
 36 37  1  0  0  0
 36122  1  0  0  0
 36123  1  0  0  0
 37 38  1  0  0  0
 37124  1  0  0  0
 38 39  1  0  0  0
 38 40  2  0  0  0
 39125  1  0  0  0
 39126  1  0  0  0
 40127  1  0  0  0
 41 42  1  0  0  0
 41128  1  0  0  0
 42 43  1  0  0  0
 42 45  1  0  0  0
 42129  1  0  0  0
 43 44  2  0  0  0
 43 50  1  0  0  0
 45 46  1  0  0  0
 45130  1  0  0  0
 45131  1  0  0  0
 46 47  1  0  0  0
 46132  1  0  0  0
 46133  1  0  0  0
 47 48  1  0  0  0
 47134  1  0  0  0
 47135  1  0  0  0
 48 49  1  0  0  0
 48136  1  0  0  0
 48137  1  0  0  0
 49138  1  0  0  0
 49139  1  0  0  0
 49140  1  0  0  0
 50 51  1  0  0  0
 50141  1  0  0  0
 51 52  1  0  0  0
 51 54  1  0  0  0
 51142  1  0  0  0
 52 53  2  0  0  0
 52 58  1  0  0  0
 54 55  1  0  0  0
 54143  1  0  0  0
 54144  1  0  0  0
 55 56  1  0  0  0
 55 57  1  0  0  0
 55145  1  0  0  0
 56146  1  0  0  0
 56147  1  0  0  0
 56148  1  0  0  0
 57149  1  0  0  0
 57150  1  0  0  0
 57151  1  0  0  0
 58 59  1  0  0  0
 58152  1  0  0  0
 59 60  1  0  0  0
 59 62  1  0  0  0
 59153  1  0  0  0
 60 61  2  0  0  0
 60 66  1  0  0  0
 62 63  1  0  0  0
 62154  1  0  0  0
 62155  1  0  0  0
 63 64  1  0  0  0
 63156  1  0  0  0
 63157  1  0  0  0
 64 65  1  0  0  0
 65158  1  0  0  0
 65159  1  0  0  0
 65160  1  0  0  0
 66 67  1  0  0  0
 66161  1  0  0  0
 67 68  1  0  0  0
 67 70  1  0  0  0
 67162  1  0  0  0
 68 69  2  0  0  0
 68 75  1  0  0  0
 70 71  1  0  0  0
 70163  1  0  0  0
 70164  1  0  0  0
 71 72  1  0  0  0
 71165  1  0  0  0
 71166  1  0  0  0
 72 73  1  0  0  0
 72 74  2  0  0  0
 73167  1  0  0  0
 75 76  1  0  0  0
 75168  1  0  0  0
 76 77  1  0  0  0
 76 79  1  0  0  0
 76169  1  0  0  0
 77 78  2  0  0  0
 77 83  1  0  0  0
 79 80  1  0  0  0
 79 81  1  0  0  0
 79170  1  0  0  0
 80 82  1  0  0  0
 80171  1  0  0  0
 80172  1  0  0  0
 81173  1  0  0  0
 81174  1  0  0  0
 81175  1  0  0  0
 82176  1  0  0  0
 82177  1  0  0  0
 82178  1  0  0  0
 83 84  1  0  0  0
 83179  1  0  0  0
 84 85  1  0  0  0
 84 87  1  0  0  0
 84180  1  0  0  0
 85 86  2  0  0  0
 85 91  1  0  0  0
 87 88  1  0  0  0
 87 89  1  0  0  0
 87181  1  0  0  0
 88 90  1  0  0  0
 88182  1  0  0  0
 88183  1  0  0  0
 89184  1  0  0  0
 89185  1  0  0  0
 89186  1  0  0  0
 90187  1  0  0  0
 90188  1  0  0  0
 90189  1  0  0  0
 91190  1  0  0  0
 91191  1  0  0  0
M  CHG  2   1   1  49   1
M  END
> <s_m_source_file>
../3eht_ligand.sdf

> <i_m_source_file_index>
1

> <s_epik_input>
W0NIXTE9TltDSDJdTj1DMVtDSDJdW0NASF0oW05IXUMoPU8pW0NAQEhdKFtOSDMrXSlbQ0gzXSlDKD1PKVtOSF1bQ0BASF0oW0NIMl1bT0hdKUMoPU8pW05IXVtDQEBIXShbQ0gyXUMoPU8pW05IMl0pQyg9TylbTkhdW0NAQEhdKFtDSDJdW0NIMl1bQ0gyXVtOSF0vQyhbTkgyXSk9TlxbSF0pQyg9TylbTkhdW0NAQEhdKFtDSDJdW0NIMl1bQ0gyXVtDSDJdW05IMytdKUMoPU8pW05IXVtDQEBIXShbQ0gyXVtDSF0oW0NIM10pW0NIM10pQyg9TylbTkhdW0NAQEhdKFtDSDJdW0NIMl1TW0NIM10pQyg9TylbTkhdW0NAQEhdKFtDSDJdW0NIMl1DKD1PKVtPSF0pQyg9TylbTkhdW0NAQEhdKFtDQEBIXShbQ0gzXSlbQ0gyXVtDSDNdKUMoPU8pW05IXVtDQEhdKEMoPU8pW05IMl0pW0NAQEhdKFtDSDNdKVtDSDJdW0NIM10=

> <s_epik_cmdline>
J2VwaWtfYXBwJywgJy1pbWFlJywgJ2xpZ2FuZF9wcm8ubWFlJywgJy1vbWFlJywgJ2xpZ2FuZF9wcmVwLm1hZScsICctbXMnLCAnMScsICctcGgnLCAnNycsICctcGh0JywgJzAuNScsICctbnQn

> <s_epik_pKa_notes>
Molecule size exceeds maximum supported for generating protonation states

> <s_epik_Chemistry_Notes>
This compound has an imine and may undergo hydrolysis.

$$$$
