3ehw_ligand
                    3D
 Schrodinger Suite 2020-3.
 40 41  0  0  1  0            999 V2000
   -6.0080    7.7860   26.1160 O   0  0  0  0  0  0
   -5.6140    8.9010   26.4230 C   0  0  0  0  0  0
   -5.0070    9.1170   27.6520 C   0  0  0  0  0  0
   -4.5660   10.4150   27.9230 C   0  0  0  0  0  0
   -5.8000    9.9410   25.5360 N   0  0  0  0  0  0
   -5.4030   11.2200   25.8290 C   0  0  0  0  0  0
   -5.6140   12.1440   25.0180 O   0  0  0  0  0  0
   -4.7690   11.4430   27.0260 N   0  0  0  0  0  0
   -4.3380   12.8260   27.3660 C   0  0  1  0  0  0
   -5.4640   13.4050   28.1880 C   0  0  0  0  0  0
   -4.9800   13.2530   29.6080 C   0  0  2  0  0  0
   -5.5100   14.2610   30.4180 O   0  0  0  0  0  0
   -3.1840   12.7880   28.1950 O   0  0  0  0  0  0
   -3.4730   13.4000   29.4460 C   0  0  2  0  0  0
   -2.6730   12.7080   30.5480 C   0  0  0  0  0  0
   -3.1910   11.4170   30.7520 O   0  0  0  0  0  0
   -2.4830   10.3790   31.7770 P   0  0  1  0  0  0
   -2.1920   11.1590   33.0160 O   0  0  0  0  0  0
   -3.4080    9.2130   31.9450 O   0  5  0  0  0  0
   -1.0470    9.9230   31.0660 N   0  0  1  0  0  0
    0.4690   10.4560   31.5100 P   0  0  1  0  0  0
    0.6270   10.5270   33.0150 O   0  5  0  0  0  0
    1.5010    9.6160   30.7880 O   0  0  0  0  0  0
    0.5020   11.9760   30.9850 O   0  0  0  0  0  0
    0.8820   13.2660   31.8820 P   0  0  0  0  0  0
    0.0200   13.3440   33.1050 O   0  5  0  0  0  0
    2.3300   13.1140   32.2470 O   0  5  0  0  0  0
    0.6820   14.4430   30.9780 O   0  0  0  0  0  0
   -4.8799    8.3102   28.3738 H   0  0  0  0  0  0
   -4.0514   10.6192   28.8619 H   0  0  0  0  0  0
   -6.2784    9.7552   24.5631 H   0  0  0  0  0  0
   -4.0626   13.4015   26.4699 H   0  0  0  0  0  0
   -5.6177   14.4579   27.9092 H   0  0  0  0  0  0
   -6.3866   12.8370   27.9978 H   0  0  0  0  0  0
   -5.3198   12.3522   30.1401 H   0  0  0  0  0  0
   -6.5895   14.2875   30.6277 H   0  0  0  0  0  0
   -3.1685   14.4570   29.4365 H   0  0  0  0  0  0
   -1.6173   12.6395   30.2468 H   0  0  0  0  0  0
   -2.7518   13.2893   31.4785 H   0  0  0  0  0  0
   -0.9205    8.8344   31.1605 H   0  0  0  0  0  0
  1  2  2  0  0  0
  2  3  1  0  0  0
  2  5  1  0  0  0
  3  4  2  0  0  0
  3 29  1  0  0  0
  4  8  1  0  0  0
  4 30  1  0  0  0
  5  6  1  0  0  0
  5 31  1  0  0  0
  6  7  2  0  0  0
  6  8  1  0  0  0
  8  9  1  0  0  0
  9 10  1  0  0  0
  9 13  1  0  0  0
  9 32  1  0  0  0
 10 11  1  0  0  0
 10 33  1  0  0  0
 10 34  1  0  0  0
 11 12  1  0  0  0
 11 14  1  0  0  0
 11 35  1  0  0  0
 12 36  1  0  0  0
 13 14  1  0  0  0
 14 15  1  0  0  0
 14 37  1  0  0  0
 15 16  1  0  0  0
 15 38  1  0  0  0
 15 39  1  0  0  0
 16 17  1  0  0  0
 17 18  2  0  0  0
 17 19  1  0  0  0
 17 20  1  0  0  0
 20 21  1  0  0  0
 20 40  1  0  0  0
 21 22  1  0  0  0
 21 23  2  0  0  0
 21 24  1  0  0  0
 24 25  1  0  0  0
 25 26  1  0  0  0
 25 27  1  0  0  0
 25 28  2  0  0  0
M  CHG  4  19  -1  22  -1  26  -1  27  -1
M  END
> <s_m_source_file>
../3ehw_ligand.sdf

> <i_m_source_file_index>
1

> <s_epik_input>
Tz1jMVtjSF1bY0hdbihjKD1PKVtuSF0xKVtDQEhdMltDSDJdW0NASF0oW09IXSlbQ0BIXShPMilbQ0gyXU9bUEBAXSg9TykoW09IXSlbTkhdW1BAXSg9TykoW09IXSlPUCg9TykoW09IXSlbT0hd

> <s_epik_cmdline>
J2VwaWtfYXBwJywgJy1pbWFlJywgJ2xpZ2FuZF9wcm8ubWFlJywgJy1vbWFlJywgJ2xpZ2FuZF9wcmVwLm1hZScsICctbXMnLCAnMScsICctcGgnLCAnNycsICctcGh0JywgJzAuNScsICctbnQn

> <r_lp_tautomer_probability>
0.999537046341301

> <r_epik_Ionization_Penalty>
  0.1180

> <r_epik_Ionization_Penalty_Charging>
  0.1161

> <r_epik_Ionization_Penalty_Neutral>
  0.0020

> <r_epik_State_Penalty>
  0.1037

> <r_epik_Charging_Adjusted_Penalty>
0.219792583007898

> <i_epik_Tot_Q>
-4

> <i_epik_Tot_abs_Q>
4

> <s_epik_Chemistry_Notes>
This compound contains an acetal/aminal-like group ( X-CH(R)-Y where X, Y are N, S, or O) that may be acid/base labile, releasing an aldehyde.

$$$$
