3ehx_ligand
                    3D
 Schrodinger Suite 2020-3.
 44 45  0  0  1  0            999 V2000
   -2.0470   -1.5510   -5.7620 O   0  0  0  0  0  0
   -1.8680   -1.9680   -4.6530 C   0  0  0  0  0  0
   -2.8710   -2.0680   -3.8170 O   0  5  0  0  0  0
   -0.4830   -2.3220   -4.2560 C   0  0  1  0  0  0
   -0.0920   -1.5770   -2.9890 C   0  0  0  0  0  0
    1.3030   -2.0450   -2.5650 C   0  0  0  0  0  0
    2.3790   -0.9590   -2.6380 C   0  0  0  0  0  0
    1.2740   -2.6230   -1.1470 C   0  0  0  0  0  0
   -0.3040   -3.7240   -4.0580 N   0  0  3  0  0  0
   -0.6340   -5.0940   -4.8830 S   0  0  0  0  0  0
    0.4830   -5.3780   -5.7600 O   0  0  0  0  0  0
   -0.7140   -5.9230   -3.7080 O   0  0  0  0  0  0
   -2.0190   -5.3460   -5.6640 C   0  0  0  0  0  0
   -2.0790   -5.3950   -7.0520 C   0  0  0  0  0  0
   -3.2650   -5.7050   -7.7020 C   0  0  0  0  0  0
   -3.1590   -5.6180   -4.9190 C   0  0  0  0  0  0
   -4.3560   -5.8960   -5.5740 C   0  0  0  0  0  0
   -4.4270   -5.9370   -6.9690 C   0  0  0  0  0  0
   -5.6910   -6.3160   -7.6470 C   0  0  0  0  0  0
   -6.8140   -6.6450   -6.8800 C   0  0  0  0  0  0
   -7.9830   -7.0450   -7.4940 C   0  0  0  0  0  0
   -8.0280   -7.1810   -8.8820 C   0  0  0  0  0  0
   -6.9100   -6.9040   -9.6560 C   0  0  0  0  0  0
   -5.7460   -6.4950   -9.0290 C   0  0  0  0  0  0
    0.1680   -2.0800   -5.1090 H   0  0  0  0  0  0
   -0.0819   -0.4952   -3.1881 H   0  0  0  0  0  0
   -0.8205   -1.7969   -2.1947 H   0  0  0  0  0  0
    1.5791   -2.8194   -3.2958 H   0  0  0  0  0  0
    2.4067   -0.5381   -3.6539 H   0  0  0  0  0  0
    3.3586   -1.3966   -2.3955 H   0  0  0  0  0  0
    2.1449   -0.1619   -1.9170 H   0  0  0  0  0  0
    0.5028   -3.4049   -1.0855 H   0  0  0  0  0  0
    1.0423   -1.8222   -0.4293 H   0  0  0  0  0  0
    2.2561   -3.0570   -0.9078 H   0  0  0  0  0  0
    0.3151   -4.0871   -3.2244 H   0  0  0  0  0  0
   -1.1831   -5.1873   -7.6370 H   0  0  0  0  0  0
   -3.2877   -5.7673   -8.7900 H   0  0  0  0  0  0
   -3.1171   -5.6139   -3.8298 H   0  0  0  0  0  0
   -5.2549   -6.0853   -4.9873 H   0  0  0  0  0  0
   -6.7651   -6.5850   -5.7927 H   0  0  0  0  0  0
   -8.8698   -7.2544   -6.8959 H   0  0  0  0  0  0
   -8.9500   -7.5079   -9.3628 H   0  0  0  0  0  0
   -6.9480   -7.0069  -10.7405 H   0  0  0  0  0  0
   -4.8542   -6.3090   -9.6274 H   0  0  0  0  0  0
  1  2  2  0  0  0
  2  3  1  0  0  0
  2  4  1  0  0  0
  4  5  1  0  0  0
  4  9  1  0  0  0
  4 25  1  0  0  0
  5  6  1  0  0  0
  5 26  1  0  0  0
  5 27  1  0  0  0
  6  7  1  0  0  0
  6  8  1  0  0  0
  6 28  1  0  0  0
  7 29  1  0  0  0
  7 30  1  0  0  0
  7 31  1  0  0  0
  8 32  1  0  0  0
  8 33  1  0  0  0
  8 34  1  0  0  0
  9 10  1  0  0  0
  9 35  1  0  0  0
 10 11  2  0  0  0
 10 12  2  0  0  0
 10 13  1  0  0  0
 13 14  2  0  0  0
 13 16  1  0  0  0
 14 15  1  0  0  0
 14 36  1  0  0  0
 15 18  2  0  0  0
 15 37  1  0  0  0
 16 17  2  0  0  0
 16 38  1  0  0  0
 17 18  1  0  0  0
 17 39  1  0  0  0
 18 19  1  0  0  0
 19 20  2  0  0  0
 19 24  1  0  0  0
 20 21  1  0  0  0
 20 40  1  0  0  0
 21 22  2  0  0  0
 21 41  1  0  0  0
 22 23  1  0  0  0
 22 42  1  0  0  0
 23 24  2  0  0  0
 23 43  1  0  0  0
 24 44  1  0  0  0
M  CHG  1   3  -1
M  END
> <s_m_source_file>
../3ehx_ligand.sdf

> <i_m_source_file_index>
1

> <s_epik_input>
W0NIM11bQ0hdKFtDSDNdKVtDSDJdW0NASF0oQyg9TylbT0hdKVtOSF1TKD1PKSg9TyljMVtjSF1bY0hdYyhbY0hdW2NIXTEpLWMyW2NIXVtjSF1bY0hdW2NIXVtjSF0y

> <s_epik_cmdline>
J2VwaWtfYXBwJywgJy1pbWFlJywgJ2xpZ2FuZF9wcm8ubWFlJywgJy1vbWFlJywgJ2xpZ2FuZF9wcmVwLm1hZScsICctbXMnLCAnMScsICctcGgnLCAnNycsICctcGh0JywgJzAuNScsICctbnQn

> <r_lp_tautomer_probability>
1

> <r_epik_Ionization_Penalty>
  0.0002

> <r_epik_Ionization_Penalty_Charging>
  0.0002

> <r_epik_Ionization_Penalty_Neutral>
  0.0000

> <r_epik_State_Penalty>
 -0.0000

> <r_epik_Charging_Adjusted_Penalty>
0.000170023658333797

> <i_epik_Tot_Q>
-1

> <i_epik_Tot_abs_Q>
1

$$$$
