3eid_ligand
                    3D
 Schrodinger Suite 2020-3.
 67 71  0  0  1  0            999 V2000
  -15.0850  204.8870  113.8830 N   0  0  0  0  0  0
  -13.0640  205.6640  115.4820 C   0  0  0  0  0  0
  -13.0360  206.0050  114.1930 C   0  0  0  0  0  0
  -14.0690  205.6130  113.3380 C   0  0  0  0  0  0
  -14.3690  205.7680  112.0050 C   0  0  0  0  0  0
  -15.5990  205.0890  111.8460 C   0  0  0  0  0  0
  -13.5590  206.4510  111.0320 C   0  0  0  0  0  0
  -14.1460  206.8730  109.8670 C   0  0  0  0  0  0
   -9.5580  207.6650  111.8420 C   0  0  0  0  0  0
   -8.4210  208.0610  114.3300 C   0  0  0  0  0  0
   -7.6510  207.5770  113.2970 C   0  0  0  0  0  0
   -8.2260  207.3850  112.0600 C   0  0  0  0  0  0
   -6.5770  207.6490  115.5730 C   0  0  0  0  0  0
  -15.1920  204.4950  115.1580 N   0  0  0  0  0  0
  -14.2250  204.8660  115.9410 C   0  0  0  0  0  0
  -16.0300  204.5520  112.9900 N   0  0  0  0  0  0
  -12.2620  206.6290  111.3020 N   0  0  0  0  0  0
  -11.5280  207.2610  110.3770 C   0  0  0  0  0  0
  -12.0090  207.7070  109.2140 N   0  0  0  0  0  0
  -13.3060  207.5030  108.9860 C   0  0  0  0  0  0
  -10.1600  207.4830  110.5870 N   0  0  0  0  0  0
  -10.3100  208.1490  112.8870 C   0  0  0  0  0  0
   -9.7520  208.3440  114.1300 C   0  0  0  0  0  0
   -7.8670  208.2500  115.5810 O   0  0  0  0  0  0
   -5.7950  208.2190  116.7330 C   0  0  1  0  0  0
   -5.3740  209.5290  116.3640 O   0  0  0  0  0  0
   -6.6950  208.2700  117.9540 C   0  0  0  0  0  0
   -5.8870  208.5500  119.1700 N   0  3  0  0  0  0
   -6.6890  209.1390  120.2750 C   0  0  0  0  0  0
   -5.1000  207.3680  119.6020 C   0  0  0  0  0  0
  -14.2360  204.5130  117.2700 N   0  0  0  0  0  0
  -14.6560  205.4510  118.3030 C   0  0  0  0  0  0
  -15.2310  204.6720  119.4700 C   0  0  0  0  0  0
  -14.2910  203.6760  119.8860 O   0  0  0  0  0  0
  -14.1470  202.6900  118.8680 C   0  0  0  0  0  0
  -13.4640  203.3500  117.6940 C   0  0  0  0  0  0
  -12.2689  205.9590  116.1668 H   0  0  0  0  0  0
  -12.2036  206.5920  113.8049 H   0  0  0  0  0  0
  -16.1335  205.0128  110.8991 H   0  0  0  0  0  0
  -15.2043  206.7186  109.6566 H   0  0  0  0  0  0
   -6.5973  207.3480  113.4560 H   0  0  0  0  0  0
   -7.6172  207.0051  111.2395 H   0  0  0  0  0  0
   -6.6796  206.5591  115.6806 H   0  0  0  0  0  0
   -6.0718  207.8777  114.6230 H   0  0  0  0  0  0
  -13.7233  207.8579  108.0437 H   0  0  0  0  0  0
   -9.5471  207.5094  109.6740 H   0  0  0  0  0  0
  -11.3631  208.3815  112.7285 H   0  0  0  0  0  0
  -10.3616  208.7206  114.9514 H   0  0  0  0  0  0
   -4.8825  207.6466  116.9559 H   0  0  0  0  0  0
   -4.7139  209.6703  115.4955 H   0  0  0  0  0  0
   -7.4429  209.0663  117.8252 H   0  0  0  0  0  0
   -7.2058  207.3032  118.0737 H   0  0  0  0  0  0
   -5.1581  209.3232  118.8857 H   0  0  0  0  0  0
   -7.2492  210.0077  119.8988 H   0  0  0  0  0  0
   -6.0174  209.4587  121.0854 H   0  0  0  0  0  0
   -7.3937  208.3863  120.6582 H   0  0  0  0  0  0
   -4.5290  206.9755  118.7477 H   0  0  0  0  0  0
   -5.7820  206.5900  119.9756 H   0  0  0  0  0  0
   -4.4058  207.6625  120.4028 H   0  0  0  0  0  0
  -13.7889  206.0384  118.6394 H   0  0  0  0  0  0
  -15.4211  206.1277  117.8947 H   0  0  0  0  0  0
  -15.4325  205.3586  120.3054 H   0  0  0  0  0  0
  -16.1681  204.1862  119.1604 H   0  0  0  0  0  0
  -13.5389  201.8561  119.2486 H   0  0  0  0  0  0
  -15.1397  202.3166  118.5762 H   0  0  0  0  0  0
  -13.3932  202.6338  116.8621 H   0  0  0  0  0  0
  -12.4538  203.6687  117.9904 H   0  0  0  0  0  0
  1  4  1  0  0  0
  1 14  1  0  0  0
  1 16  1  0  0  0
  2  3  2  0  0  0
  2 15  1  0  0  0
  2 37  1  0  0  0
  3  4  1  0  0  0
  3 38  1  0  0  0
  4  5  2  0  0  0
  5  6  1  0  0  0
  5  7  1  0  0  0
  6 16  2  0  0  0
  6 39  1  0  0  0
  7  8  2  0  0  0
  7 17  1  0  0  0
  8 20  1  0  0  0
  8 40  1  0  0  0
  9 12  2  0  0  0
  9 21  1  0  0  0
  9 22  1  0  0  0
 10 11  2  0  0  0
 10 23  1  0  0  0
 10 24  1  0  0  0
 11 12  1  0  0  0
 11 41  1  0  0  0
 12 42  1  0  0  0
 13 24  1  0  0  0
 13 25  1  0  0  0
 13 43  1  0  0  0
 13 44  1  0  0  0
 14 15  2  0  0  0
 15 31  1  0  0  0
 17 18  2  0  0  0
 18 19  1  0  0  0
 18 21  1  0  0  0
 19 20  2  0  0  0
 20 45  1  0  0  0
 21 46  1  0  0  0
 22 23  2  0  0  0
 22 47  1  0  0  0
 23 48  1  0  0  0
 25 26  1  0  0  0
 25 27  1  0  0  0
 25 49  1  0  0  0
 26 50  1  0  0  0
 27 28  1  0  0  0
 27 51  1  0  0  0
 27 52  1  0  0  0
 28 29  1  0  0  0
 28 30  1  0  0  0
 28 53  1  0  0  0
 29 54  1  0  0  0
 29 55  1  0  0  0
 29 56  1  0  0  0
 30 57  1  0  0  0
 30 58  1  0  0  0
 30 59  1  0  0  0
 31 32  1  0  0  0
 31 36  1  0  0  0
 32 33  1  0  0  0
 32 60  1  0  0  0
 32 61  1  0  0  0
 33 34  1  0  0  0
 33 62  1  0  0  0
 33 63  1  0  0  0
 34 35  1  0  0  0
 35 36  1  0  0  0
 35 64  1  0  0  0
 35 65  1  0  0  0
 36 66  1  0  0  0
 36 67  1  0  0  0
M  CHG  1  28   1
M  END
> <s_m_source_file>
../3eid_ligand.sdf

> <i_m_source_file_index>
1

> <s_epik_input>
W0NIMl0xW0NIMl1PW0NIMl1bQ0gyXU4xYyhuMilbY0hdW2NIXWMobjIzKWMoW2NIXW4zKS1jNFtjSF1bY0hdbmMobjQpW05IXWM1W2NIXVtjSF1jKFtjSF1bY0hdNSlPW0NIMl1bQ0BASF0oW09IXSlbQ0gyXVtOSCtdKFtDSDNdKVtDSDNd

> <s_epik_cmdline>
J2VwaWtfYXBwJywgJy1pbWFlJywgJ2xpZ2FuZF9wcm8ubWFlJywgJy1vbWFlJywgJ2xpZ2FuZF9wcmVwLm1hZScsICctbXMnLCAnMScsICctcGgnLCAnNycsICctcGh0JywgJzAuNScsICctbnQn

> <r_lp_tautomer_probability>
0.999999987636

> <r_epik_Ionization_Penalty>
  0.1093

> <r_epik_Ionization_Penalty_Charging>
  0.1092

> <r_epik_Ionization_Penalty_Neutral>
  0.0001

> <r_epik_State_Penalty>
  0.0990

> <r_epik_Charging_Adjusted_Penalty>
0.20818616252629

> <i_epik_Tot_Q>
1

> <i_epik_Tot_abs_Q>
1

$$$$
