3eig_ligand
                    3D
 Schrodinger Suite 2020-3.
 53 55  0  0  1  0            999 V2000
   13.7900   -8.0710  -15.3750 N   0  0  0  0  0  0
   13.5670   -8.1020  -14.0340 C   0  0  0  0  0  0
   13.3220   -9.3020  -13.4380 N   0  0  0  0  0  0
   13.6170   -6.9460  -13.2890 N   0  0  0  0  0  0
   13.8530   -5.7390  -13.8280 C   0  0  0  0  0  0
   13.8750   -4.5690  -13.1010 N   0  0  0  0  0  0
   14.0970   -5.6660  -15.2410 C   0  0  0  0  0  0
   14.3620   -4.4500  -15.8140 N   0  0  0  0  0  0
   14.5570   -4.4340  -17.1310 C   0  0  0  0  0  0
   14.5080   -5.6550  -17.8760 C   0  0  0  0  0  0
   14.2620   -6.8530  -17.3460 N   0  0  0  0  0  0
   14.0540   -6.8690  -15.9790 C   0  0  0  0  0  0
   14.8270   -3.0620  -17.6710 C   0  0  0  0  0  0
   14.7650   -3.0040  -19.1580 N   0  0  0  0  0  0
   15.9530   -2.9930  -20.0180 C   0  0  0  0  0  0
   10.9830   -3.6320  -20.9860 C   0  0  0  0  0  0
   11.0400   -3.5140  -19.5840 C   0  0  0  0  0  0
   12.2910   -3.2950  -19.0170 C   0  0  0  0  0  0
   13.4950   -3.2140  -19.7500 C   0  0  0  0  0  0
   13.3980   -3.3460  -21.1550 C   0  0  0  0  0  0
   12.1630   -3.5410  -21.7330 C   0  0  0  0  0  0
    9.7410   -3.8570  -21.7510 C   0  0  0  0  0  0
    9.6030   -3.5050  -22.9290 O   0  0  0  0  0  0
    8.6850   -4.2550  -20.9790 N   0  0  0  0  0  0
    7.3350   -4.2060  -21.5260 C   0  0  2  0  0  0
    6.3420   -4.3580  -20.3940 C   0  0  0  0  0  0
    5.1360   -4.2550  -20.6600 O   0  0  0  0  0  0
    6.7960   -4.5330  -19.2370 O   0  5  0  0  0  0
    7.1010   -5.3000  -22.5740 C   0  0  0  0  0  0
    7.2440   -6.6640  -21.9120 C   0  0  0  0  0  0
    7.3410   -7.7990  -22.9150 C   0  0  0  0  0  0
    7.3160   -7.5450  -24.1450 O   0  5  0  0  0  0
    7.4500   -8.9540  -22.4650 O   0  0  0  0  0  0
   13.2844  -10.2194  -14.0437 H   0  0  0  0  0  0
   13.1618   -9.3537  -12.3510 H   0  0  0  0  0  0
   13.6918   -4.5918  -12.0166 H   0  0  0  0  0  0
   14.0758   -3.6120  -13.6049 H   0  0  0  0  0  0
   14.6839   -5.6016  -18.9504 H   0  0  0  0  0  0
   14.0790   -2.3588  -17.2761 H   0  0  0  0  0  0
   15.8325   -2.7384  -17.3640 H   0  0  0  0  0  0
   16.8487   -2.8191  -19.4037 H   0  0  0  0  0  0
   15.8583   -2.1900  -20.7638 H   0  0  0  0  0  0
   16.0429   -3.9616  -20.5315 H   0  0  0  0  0  0
   10.1428   -3.5909  -18.9698 H   0  0  0  0  0  0
   12.3455   -3.1781  -17.9347 H   0  0  0  0  0  0
   14.2930   -3.2939  -21.7750 H   0  0  0  0  0  0
   12.1022   -3.6281  -22.8178 H   0  0  0  0  0  0
    8.8494   -4.6105  -19.9511 H   0  0  0  0  0  0
    7.2414   -3.2207  -22.0061 H   0  0  0  0  0  0
    6.0890   -5.1964  -22.9925 H   0  0  0  0  0  0
    7.8430   -5.2005  -23.3799 H   0  0  0  0  0  0
    8.1568   -6.6798  -21.2983 H   0  0  0  0  0  0
    6.3692   -6.8550  -21.2730 H   0  0  0  0  0  0
  1  2  2  0  0  0
  1 12  1  0  0  0
  2  3  1  0  0  0
  2  4  1  0  0  0
  3 34  1  0  0  0
  3 35  1  0  0  0
  4  5  2  0  0  0
  5  6  1  0  0  0
  5  7  1  0  0  0
  6 36  1  0  0  0
  6 37  1  0  0  0
  7  8  1  0  0  0
  7 12  2  0  0  0
  8  9  2  0  0  0
  9 10  1  0  0  0
  9 13  1  0  0  0
 10 11  2  0  0  0
 10 38  1  0  0  0
 11 12  1  0  0  0
 13 14  1  0  0  0
 13 39  1  0  0  0
 13 40  1  0  0  0
 14 15  1  0  0  0
 14 19  1  0  0  0
 15 41  1  0  0  0
 15 42  1  0  0  0
 15 43  1  0  0  0
 16 17  2  0  0  0
 16 21  1  0  0  0
 16 22  1  0  0  0
 17 18  1  0  0  0
 17 44  1  0  0  0
 18 19  2  0  0  0
 18 45  1  0  0  0
 19 20  1  0  0  0
 20 21  2  0  0  0
 20 46  1  0  0  0
 21 47  1  0  0  0
 22 23  2  0  0  0
 22 24  1  0  0  0
 24 25  1  0  0  0
 24 48  1  0  0  0
 25 26  1  0  0  0
 25 29  1  0  0  0
 25 49  1  0  0  0
 26 27  2  0  0  0
 26 28  1  0  0  0
 29 30  1  0  0  0
 29 50  1  0  0  0
 29 51  1  0  0  0
 30 31  1  0  0  0
 30 52  1  0  0  0
 30 53  1  0  0  0
 31 32  1  0  0  0
 31 33  2  0  0  0
M  CHG  2  28  -1  32  -1
M  END
> <s_m_source_file>
../3eig_ligand.sdf

> <i_m_source_file_index>
1

> <s_epik_input>
W05IMl1jMW5jKFtOSDJdKW5jKGMxMiluW2NIXWMobjIpW0NIMl1OKFtDSDNdKWMoW2NIXVtjSF0zKVtjSF1bY0hdYzNDKD1PKVtOSF1bQ0BIXShDKD1PKVtPSF0pW0NIMl1bQ0gyXUMoPU8pW09IXQ==

> <s_epik_cmdline>
J2VwaWtfYXBwJywgJy1pbWFlJywgJ2xpZ2FuZF9wcm8ubWFlJywgJy1vbWFlJywgJ2xpZ2FuZF9wcmVwLm1hZScsICctbXMnLCAnMScsICctcGgnLCAnNycsICctcGh0JywgJzAuNScsICctbnQn

> <r_epik_Ionization_Penalty>
  0.0825

> <r_epik_Ionization_Penalty_Charging>
  0.0043

> <r_epik_Ionization_Penalty_Neutral>
  0.0782

> <r_epik_State_Penalty>
  0.0653

> <r_epik_Charging_Adjusted_Penalty>
0.0696263758716875

> <i_epik_Tot_Q>
-2

> <i_epik_Tot_abs_Q>
2

$$$$
