3eio_ligand
                    3D
 Schrodinger Suite 2020-3.
 57 59  0  0  1  0            999 V2000
   47.1420   12.6010   25.7920 C   0  0  0  0  0  0
   48.2620   13.3960   26.0230 C   0  0  0  0  0  0
   49.4480   12.8340   26.4830 C   0  0  0  0  0  0
   50.6800   13.7150   26.7320 C   0  0  0  0  0  0
   51.3530   13.5240   27.7710 O   0  5  0  0  0  0
   50.9230   14.6170   25.9020 O   0  0  0  0  0  0
   49.5030   11.4630   26.7020 C   0  0  0  0  0  0
   48.3860   10.6680   26.4550 C   0  0  0  0  0  0
   47.1800   11.2160   25.9980 C   0  0  0  0  0  0
   46.0970   10.4340   25.9740 C   0  0  0  0  0  0
   46.3140    9.2230   25.9940 O   0  0  0  0  0  0
   44.8490   10.8940   25.8590 N   0  0  0  0  0  0
   44.5380   12.3120   26.0820 C   0  0  0  0  0  0
   44.3550   12.5150   27.5900 C   0  0  0  0  0  0
   43.7150    9.9610   25.7600 C   0  0  0  0  0  0
   43.3280    9.3210   27.0980 C   0  0  0  0  0  0
   43.6260   10.1780   28.3340 C   0  0  0  0  0  0
   43.3280   11.6040   28.1220 N   0  0  0  0  0  0
   42.1270   12.1140   28.4300 C   0  0  0  0  0  0
   41.8570   13.3010   28.2770 O   0  0  0  0  0  0
   41.0720   11.1610   29.0030 C   0  0  0  0  0  0
   39.7140   11.8580   29.1450 C   0  0  2  0  0  0
   38.7830   11.0590   29.9550 N   0  3  0  0  0  0
   39.1140   12.1380   27.7660 C   0  0  0  0  0  0
   37.6740   12.6500   27.8790 C   0  0  0  0  0  0
   37.5060   13.9820   28.2430 C   0  0  0  0  0  0
   36.2430   14.5630   28.3470 C   0  0  0  0  0  0
   36.1480   15.8530   28.7240 F   0  0  0  0  0  0
   35.1200   13.7810   28.0760 C   0  0  0  0  0  0
   33.8770   14.2970   28.0310 F   0  0  0  0  0  0
   35.2830   12.4410   27.7350 C   0  0  0  0  0  0
   36.5480   11.8800   27.6290 C   0  0  0  0  0  0
   36.6430   10.5820   27.2530 F   0  0  0  0  0  0
   46.2190   13.0651   25.4445 H   0  0  0  0  0  0
   48.2084   14.4694   25.8414 H   0  0  0  0  0  0
   50.4233   11.0080   27.0683 H   0  0  0  0  0  0
   48.4518    9.5928   26.6214 H   0  0  0  0  0  0
   45.3667   12.9321   25.7095 H   0  0  0  0  0  0
   43.6143   12.5736   25.5451 H   0  0  0  0  0  0
   45.3062   12.3148   28.1050 H   0  0  0  0  0  0
   44.0434   13.5517   27.7853 H   0  0  0  0  0  0
   42.8309   10.4971   25.3846 H   0  0  0  0  0  0
   43.9706    9.1453   25.0677 H   0  0  0  0  0  0
   42.2471    9.1173   27.1080 H   0  0  0  0  0  0
   43.8799    8.3782   27.2268 H   0  0  0  0  0  0
   43.0146    9.8281   29.1789 H   0  0  0  0  0  0
   44.6918   10.0913   28.5920 H   0  0  0  0  0  0
   40.9547   10.2975   28.3317 H   0  0  0  0  0  0
   41.3931   10.8127   29.9958 H   0  0  0  0  0  0
   39.8481   12.8005   29.6961 H   0  0  0  0  0  0
   39.2283   10.8663   30.9422 H   0  0  0  0  0  0
   38.5848   10.1025   29.4492 H   0  0  0  0  0  0
   37.8393   11.6103   30.0797 H   0  0  0  0  0  0
   39.7172   12.9006   27.2517 H   0  0  0  0  0  0
   39.1105   11.2117   27.1727 H   0  0  0  0  0  0
   38.3869   14.5887   28.4529 H   0  0  0  0  0  0
   34.4043   11.8235   27.5486 H   0  0  0  0  0  0
  1  2  2  0  0  0
  1  9  1  0  0  0
  1 34  1  0  0  0
  2  3  1  0  0  0
  2 35  1  0  0  0
  3  4  1  0  0  0
  3  7  2  0  0  0
  4  5  1  0  0  0
  4  6  2  0  0  0
  7  8  1  0  0  0
  7 36  1  0  0  0
  8  9  2  0  0  0
  8 37  1  0  0  0
  9 10  1  0  0  0
 10 11  2  0  0  0
 10 12  1  0  0  0
 12 13  1  0  0  0
 12 15  1  0  0  0
 13 14  1  0  0  0
 13 38  1  0  0  0
 13 39  1  0  0  0
 14 18  1  0  0  0
 14 40  1  0  0  0
 14 41  1  0  0  0
 15 16  1  0  0  0
 15 42  1  0  0  0
 15 43  1  0  0  0
 16 17  1  0  0  0
 16 44  1  0  0  0
 16 45  1  0  0  0
 17 18  1  0  0  0
 17 46  1  0  0  0
 17 47  1  0  0  0
 18 19  1  0  0  0
 19 20  2  0  0  0
 19 21  1  0  0  0
 21 22  1  0  0  0
 21 48  1  0  0  0
 21 49  1  0  0  0
 22 23  1  0  0  0
 22 24  1  0  0  0
 22 50  1  0  0  0
 23 51  1  0  0  0
 23 52  1  0  0  0
 23 53  1  0  0  0
 24 25  1  0  0  0
 24 54  1  0  0  0
 24 55  1  0  0  0
 25 26  2  0  0  0
 25 32  1  0  0  0
 26 27  1  0  0  0
 26 56  1  0  0  0
 27 28  1  0  0  0
 27 29  2  0  0  0
 29 30  1  0  0  0
 29 31  1  0  0  0
 31 32  2  0  0  0
 31 57  1  0  0  0
 32 33  1  0  0  0
M  CHG  2   5  -1  23   1
M  END
> <s_m_source_file>
../3eio_ligand.sdf

> <i_m_source_file_index>
1

> <s_epik_input>
W09IXUMoPU8pYzFbY0hdW2NIXWMoW2NIXVtjSF0xKUMoPU8pTjJbQ0gyXVtDSDJdTihbQ0gyXVtDSDJdW0NIMl0yKUMoPU8pW0NIMl1bQ0BIXShbTkgzK10pW0NIMl1jM1tjSF1jKEYpYyhGKVtjSF1jM0Y=

> <s_epik_cmdline>
J2VwaWtfYXBwJywgJy1pbWFlJywgJ2xpZ2FuZF9wcm8ubWFlJywgJy1vbWFlJywgJ2xpZ2FuZF9wcmVwLm1hZScsICctbXMnLCAnMScsICctcGgnLCAnNycsICctcGh0JywgJzAuNScsICctbnQn

> <r_lp_tautomer_probability>
1

> <r_epik_Ionization_Penalty>
  0.0034

> <r_epik_Ionization_Penalty_Charging>
  0.0034

> <r_epik_Ionization_Penalty_Neutral>
  0.0000

> <r_epik_State_Penalty>
 -0.0000

> <r_epik_Charging_Adjusted_Penalty>
0.00339495538224604

> <i_epik_Tot_Q>
0

> <i_epik_Tot_abs_Q>
2

$$$$
