3ej1_ligand
                    3D
 Schrodinger Suite 2020-3.
 31 34  0  0  1  0            999 V2000
  -16.2450  204.1280  113.0590 N   0  0  0  0  0  0
  -14.3580  205.3010  113.4970 C   0  0  0  0  0  0
  -13.4450  205.8700  114.4040 C   0  0  0  0  0  0
  -13.6340  205.7480  115.7200 C   0  0  0  0  0  0
  -14.8390  204.9860  116.0980 C   0  0  0  0  0  0
  -13.5460  205.7910  111.1780 C   0  0  0  0  0  0
  -13.9900  206.1410  109.9270 C   0  0  0  0  0  0
   -9.8570  207.4100  112.2300 C   0  0  0  0  0  0
  -15.6650  204.4950  111.9130 C   0  0  0  0  0  0
  -14.4760  205.2330  112.1260 C   0  0  0  0  0  0
  -15.7110  204.4420  115.3080 N   0  0  0  0  0  0
  -15.4350  204.6290  114.0080 N   0  0  0  0  0  0
  -12.2730  205.9310  111.5630 N   0  0  0  0  0  0
  -11.4200  206.4450  110.6690 C   0  0  0  0  0  0
  -11.7470  206.8210  109.4300 N   0  0  0  0  0  0
  -13.0290  206.6590  109.0930 C   0  0  0  0  0  0
  -10.0850  206.6090  111.0340 N   0  0  0  0  0  0
   -9.2160  206.8080  113.4420 C   0  0  0  0  0  0
   -8.4760  207.8230  112.6280 C   0  0  0  0  0  0
  -12.5777  206.4140  114.0297 H   0  0  0  0  0  0
  -12.9531  206.1767  116.4553 H   0  0  0  0  0  0
  -15.0171  204.8663  117.1667 H   0  0  0  0  0  0
  -15.0280  206.0171  109.6183 H   0  0  0  0  0  0
  -10.8010  207.9309  112.0122 H   0  0  0  0  0  0
  -16.0618  204.2538  110.9269 H   0  0  0  0  0  0
  -13.3331  206.9575  108.0898 H   0  0  0  0  0  0
   -9.2315  206.1819  110.4871 H   0  0  0  0  0  0
   -9.8266  207.0319  114.3291 H   0  0  0  0  0  0
   -9.1411  205.7180  113.3140 H   0  0  0  0  0  0
   -7.7746  207.5906  111.8131 H   0  0  0  0  0  0
   -8.4601  208.9045  112.8282 H   0  0  0  0  0  0
  1  9  2  0  0  0
  1 12  1  0  0  0
  2  3  1  0  0  0
  2 10  2  0  0  0
  2 12  1  0  0  0
  3  4  2  0  0  0
  3 20  1  0  0  0
  4  5  1  0  0  0
  4 21  1  0  0  0
  5 11  2  0  0  0
  5 22  1  0  0  0
  6  7  2  0  0  0
  6 10  1  0  0  0
  6 13  1  0  0  0
  7 16  1  0  0  0
  7 23  1  0  0  0
  8 17  1  0  0  0
  8 18  1  0  0  0
  8 19  1  0  0  0
  8 24  1  0  0  0
  9 10  1  0  0  0
  9 25  1  0  0  0
 11 12  1  0  0  0
 13 14  2  0  0  0
 14 15  1  0  0  0
 14 17  1  0  0  0
 15 16  2  0  0  0
 16 26  1  0  0  0
 17 27  1  0  0  0
 18 19  1  0  0  0
 18 28  1  0  0  0
 18 29  1  0  0  0
 19 30  1  0  0  0
 19 31  1  0  0  0
M  END
> <s_m_source_file>
../3ej1_ligand.sdf

> <i_m_source_file_index>
1

> <s_epik_input>
W2NIXTFbY0hdW2NIXW5uKGMxMiluW2NIXWMyLWMzW2NIXVtjSF1uYyhuMylbTkhdW0NIXTRbQ0gyXVtDSDJdNA==

> <s_epik_cmdline>
J2VwaWtfYXBwJywgJy1pbWFlJywgJ2xpZ2FuZF9wcm8ubWFlJywgJy1vbWFlJywgJ2xpZ2FuZF9wcmVwLm1hZScsICctbXMnLCAnMScsICctcGgnLCAnNycsICctcGh0JywgJzAuNScsICctbnQn

> <r_lp_tautomer_probability>
1

> <r_epik_Ionization_Penalty>
  0.0009

> <r_epik_Ionization_Penalty_Charging>
  0.0000

> <r_epik_Ionization_Penalty_Neutral>
  0.0009

> <r_epik_State_Penalty>
 -0.0000

> <r_epik_Charging_Adjusted_Penalty>
0

> <i_epik_Tot_Q>
0

> <i_epik_Tot_abs_Q>
0

$$$$
