3ej5_ligand
                    3D
 Schrodinger Suite 2020-3.
 34 35  0  0  1  0            999 V2000
   -2.0670    9.4530    5.1680 C   0  0  0  0  0  0
   -1.5940   10.5040    5.9710 C   0  0  0  0  0  0
   -0.4380   10.3470    6.7590 C   0  0  0  0  0  0
    0.1290   11.4790    7.6570 C   0  0  0  0  0  0
    0.2580   11.2490    8.8900 O   0  5  0  0  0  0
    0.4480   12.5620    7.1000 O   0  0  0  0  0  0
    0.2330    9.1280    6.7280 C   0  0  0  0  0  0
   -0.2370    8.0980    5.9230 C   0  0  0  0  0  0
   -1.3890    8.2380    5.1420 C   0  0  0  0  0  0
   -1.8800    7.0610    4.2680 C   0  0  0  0  0  0
   -0.8590    5.9010    4.2900 C   0  0  0  0  0  0
   -0.9480    5.1070    5.6270 C   0  0  0  0  0  0
    0.3430    4.6980    6.3930 C   0  0  0  0  0  0
    0.2860    4.0320    7.6490 C   0  0  0  0  0  0
   -0.8760    3.7150    8.2490 O   0  5  0  0  0  0
    1.3560    3.6380    8.3530 N   0  0  0  0  0  0
    2.5830    3.8560    7.8980 C   0  0  0  0  0  0
    3.6170    3.4450    8.6410 N   0  0  0  0  0  0
    2.7330    4.5090    6.6480 N   0  3  0  0  0  0
    1.6290    4.9290    5.8980 C   0  0  0  0  0  0
    1.8260    5.4980    4.8130 O   0  0  0  0  0  0
   -2.9650    9.5891    4.5653 H   0  0  0  0  0  0
   -2.1290   11.4536    5.9842 H   0  0  0  0  0  0
    1.1265    8.9816    7.3349 H   0  0  0  0  0  0
    0.3073    7.1540    5.8993 H   0  0  0  0  0  0
   -2.8427    6.6945    4.6538 H   0  0  0  0  0  0
   -2.0071    7.4030    3.2303 H   0  0  0  0  0  0
   -1.0666    5.2139    3.4564 H   0  0  0  0  0  0
    0.1585    6.3060    4.1865 H   0  0  0  0  0  0
   -1.5129    5.6948    6.3656 H   0  0  0  0  0  0
   -1.4600    4.1494    5.4514 H   0  0  0  0  0  0
    3.4377    2.9435    9.6035 H   0  0  0  0  0  0
    4.6464    3.6086    8.2894 H   0  0  0  0  0  0
    3.7382    4.6978    6.2433 H   0  0  0  0  0  0
  1  2  2  0  0  0
  1  9  1  0  0  0
  1 22  1  0  0  0
  2  3  1  0  0  0
  2 23  1  0  0  0
  3  4  1  0  0  0
  3  7  2  0  0  0
  4  5  1  0  0  0
  4  6  2  0  0  0
  7  8  1  0  0  0
  7 24  1  0  0  0
  8  9  2  0  0  0
  8 25  1  0  0  0
  9 10  1  0  0  0
 10 11  1  0  0  0
 10 26  1  0  0  0
 10 27  1  0  0  0
 11 12  1  0  0  0
 11 28  1  0  0  0
 11 29  1  0  0  0
 12 13  1  0  0  0
 12 30  1  0  0  0
 12 31  1  0  0  0
 13 14  2  0  0  0
 13 20  1  0  0  0
 14 15  1  0  0  0
 14 16  1  0  0  0
 16 17  2  0  0  0
 17 18  1  0  0  0
 17 19  1  0  0  0
 18 32  1  0  0  0
 18 33  1  0  0  0
 19 20  1  0  0  0
 19 34  1  0  0  0
 20 21  2  0  0  0
M  CHG  3   5  -1  15  -1  19   1
M  END
> <s_m_source_file>
../3ej5_ligand.sdf

> <i_m_source_file_index>
1

> <s_epik_input>
W09IXUMoPU8pYzFbY0hdW2NIXWMoW2NIXVtjSF0xKVtDSDJdW0NIMl1bQ0gyXWMyYyhbT0hdKVtuSF0vYyg9Ti9bSF0pW25IXWMyPU8=

> <s_epik_cmdline>
J2VwaWtfYXBwJywgJy1pbWFlJywgJ2xpZ2FuZF9wcm8ubWFlJywgJy1vbWFlJywgJ2xpZ2FuZF9wcmVwLm1hZScsICctbXMnLCAnMScsICctcGgnLCAnNycsICctcGh0JywgJzAuNScsICctbnQn

> <r_lp_tautomer_probability>
1

> <r_epik_Ionization_Penalty>
  0.0043

> <r_epik_Ionization_Penalty_Charging>
  0.0042

> <r_epik_Ionization_Penalty_Neutral>
  0.0000

> <r_epik_State_Penalty>
 -0.0000

> <r_epik_Charging_Adjusted_Penalty>
0.00422497486389002

> <i_epik_Tot_Q>
-1

> <i_epik_Tot_abs_Q>
3

> <s_epik_Chemistry_Notes>
This compound has an imine and may undergo hydrolysis.

$$$$
