3ejp_ligand
                    3D
 Schrodinger Suite 2020-3.
 43 45  0  0  1  0            999 V2000
   26.6650   64.9740    8.2370 O   0  0  0  0  0  0
   27.0590   65.9600    8.8340 C   0  0  0  0  0  0
   26.0720   66.7920    9.5970 C   0  0  0  0  0  0
   24.7310   66.3860    9.6100 C   0  0  0  0  0  0
   23.7820   67.1520   10.2960 C   0  0  0  0  0  0
   24.1800   68.3120   10.9560 C   0  0  0  0  0  0
   25.5150   68.7390   10.9300 C   0  0  0  0  0  0
   26.4770   67.9610   10.2510 C   0  0  0  0  0  0
   28.5080   66.4140    8.7470 C   0  0  0  0  0  0
   29.4370   65.3600    8.1190 C   0  0  1  0  0  0
   29.2540   65.2260    6.5980 C   0  0  0  0  0  0
   29.7610   66.4630    5.8420 C   0  0  0  0  0  0
   31.2370   66.7280    6.1220 C   0  0  1  0  0  0
   31.6270   67.9650    5.5350 O   0  0  0  0  0  0
   31.4430   66.8220    7.6290 C   0  0  2  0  0  0
   32.8910   66.8780    8.1160 C   0  0  2  0  0  0
   33.8100   66.0680    7.3210 O   0  0  0  0  0  0
   30.8950   65.6350    8.3190 N   0  3  1  0  0  0
   31.3510   65.8120    9.7250 C   0  0  0  0  0  0
   32.7910   66.3340    9.5530 C   0  0  1  0  0  0
   33.7650   65.2820    9.7520 O   0  0  0  0  0  0
   24.4286   65.4780    9.0883 H   0  0  0  0  0  0
   22.7370   66.8425   10.3137 H   0  0  0  0  0  0
   23.4408   68.8980   11.5022 H   0  0  0  0  0  0
   25.8072   69.6628   11.4293 H   0  0  0  0  0  0
   27.5230   68.2670   10.2362 H   0  0  0  0  0  0
   28.5712   67.3224    8.1298 H   0  0  0  0  0  0
   28.8859   66.6301    9.7572 H   0  0  0  0  0  0
   29.1697   64.4369    8.6543 H   0  0  0  0  0  0
   29.8146   64.3512    6.2369 H   0  0  0  0  0  0
   28.1862   65.0981    6.3670 H   0  0  0  0  0  0
   29.6357   66.3084    4.7602 H   0  0  0  0  0  0
   29.1847   67.3460    6.1554 H   0  0  0  0  0  0
   31.8725   65.9582    5.6598 H   0  0  0  0  0  0
   31.5546   68.1042    4.4462 H   0  0  0  0  0  0
   30.9151   67.7538    7.8800 H   0  0  0  0  0  0
   33.3369   67.8775    8.0061 H   0  0  0  0  0  0
   33.9961   66.3220    6.2670 H   0  0  0  0  0  0
   31.2828   64.7048    7.8782 H   0  0  0  0  0  0
   30.6958   66.5336   10.2349 H   0  0  0  0  0  0
   31.3093   64.8454   10.2484 H   0  0  0  0  0  0
   33.0547   67.0761   10.3210 H   0  0  0  0  0  0
   34.8389   65.5024    9.6616 H   0  0  0  0  0  0
  1  2  2  0  0  0
  2  3  1  0  0  0
  2  9  1  0  0  0
  3  4  2  0  0  0
  3  8  1  0  0  0
  4  5  1  0  0  0
  4 22  1  0  0  0
  5  6  2  0  0  0
  5 23  1  0  0  0
  6  7  1  0  0  0
  6 24  1  0  0  0
  7  8  2  0  0  0
  7 25  1  0  0  0
  8 26  1  0  0  0
  9 10  1  0  0  0
  9 27  1  0  0  0
  9 28  1  0  0  0
 10 11  1  0  0  0
 10 18  1  0  0  0
 10 29  1  0  0  0
 11 12  1  0  0  0
 11 30  1  0  0  0
 11 31  1  0  0  0
 12 13  1  0  0  0
 12 32  1  0  0  0
 12 33  1  0  0  0
 13 14  1  0  0  0
 13 15  1  0  0  0
 13 34  1  0  0  0
 14 35  1  0  0  0
 15 16  1  0  0  0
 15 18  1  0  0  0
 15 36  1  0  0  0
 16 17  1  0  0  0
 16 20  1  0  0  0
 16 37  1  0  0  0
 17 38  1  0  0  0
 18 19  1  0  0  0
 18 39  1  0  0  0
 19 20  1  0  0  0
 19 40  1  0  0  0
 19 41  1  0  0  0
 20 21  1  0  0  0
 20 42  1  0  0  0
 21 43  1  0  0  0
M  CHG  1  18   1
M  END
> <s_m_source_file>
../3ejp_ligand.sdf

> <i_m_source_file_index>
1

> <s_epik_input>
W2NIXTFbY0hdW2NIXVtjSF1bY0hdYzFDKD1PKVtDSDJdW0NAQEhdKFtDSDJdW0NIMl1bQ0BIXTJbT0hdKVtOQEBIK10oW0NASF0yMylbQ0gyXVtDQEBIXShbT0hdKVtDQEhdM1tPSF0=

> <s_epik_cmdline>
J2VwaWtfYXBwJywgJy1pbWFlJywgJ2xpZ2FuZF9wcm8ubWFlJywgJy1vbWFlJywgJ2xpZ2FuZF9wcmVwLm1hZScsICctbXMnLCAnMScsICctcGgnLCAnNycsICctcGh0JywgJzAuNScsICctbnQn

> <r_lp_tautomer_probability>
1

> <r_epik_Ionization_Penalty>
  0.0050

> <r_epik_Ionization_Penalty_Charging>
  0.0050

> <r_epik_Ionization_Penalty_Neutral>
  0.0000

> <r_epik_State_Penalty>
 -0.0000

> <r_epik_Charging_Adjusted_Penalty>
0.00495669295848711

> <i_epik_Tot_Q>
1

> <i_epik_Tot_abs_Q>
1

$$$$
