3ejq_ligand
                    3D
 Schrodinger Suite 2020-3.
 46 48  0  0  1  0            999 V2000
   26.6200   64.7430    8.3600 O   0  0  0  0  0  0
   26.9930   65.7670    8.9290 C   0  0  0  0  0  0
   25.9870   66.6230    9.6770 C   0  0  0  0  0  0
   24.6300   66.2660    9.6760 C   0  0  0  0  0  0
   23.6840   67.0410   10.3690 C   0  0  0  0  0  0
   24.0850   68.1920   11.0510 C   0  0  0  0  0  0
   23.0870   69.0480   11.8070 C   0  0  0  0  0  0
   25.4320   68.5470   11.0650 C   0  0  0  0  0  0
   26.3820   67.7620   10.3840 C   0  0  0  0  0  0
   28.4510   66.2020    8.8990 C   0  0  0  0  0  0
   29.4070   65.1710    8.2640 C   0  0  1  0  0  0
   29.1920   65.0480    6.7480 C   0  0  0  0  0  0
   29.6850   66.3060    6.0170 C   0  0  0  0  0  0
   31.1660   66.5640    6.3250 C   0  0  1  0  0  0
   31.5610   67.8000    5.7420 O   0  0  0  0  0  0
   31.3950   66.6400    7.8310 C   0  0  2  0  0  0
   32.8470   66.6870    8.3160 C   0  0  2  0  0  0
   33.7550   65.8780    7.5320 O   0  0  0  0  0  0
   30.8600   65.4260    8.4820 N   0  3  1  0  0  0
   31.3070   65.5850    9.8940 C   0  0  0  0  0  0
   32.7440   66.1190    9.7330 C   0  0  1  0  0  0
   33.6730   65.0420    9.9000 O   0  0  0  0  0  0
   24.3061   65.3786    9.1322 H   0  0  0  0  0  0
   22.6355   66.7432   10.3742 H   0  0  0  0  0  0
   22.0782   68.6255   11.6892 H   0  0  0  0  0  0
   23.1047   70.0722   11.4062 H   0  0  0  0  0  0
   23.3543   69.0671   12.8739 H   0  0  0  0  0  0
   25.7523   69.4373   11.6061 H   0  0  0  0  0  0
   27.4343   68.0450   10.4084 H   0  0  0  0  0  0
   28.5448   67.1301    8.3161 H   0  0  0  0  0  0
   28.8026   66.3773    9.9265 H   0  0  0  0  0  0
   29.1803   64.2359    8.7971 H   0  0  0  0  0  0
   29.7489   64.1788    6.3680 H   0  0  0  0  0  0
   28.1200   64.9165    6.5391 H   0  0  0  0  0  0
   29.5650   66.1703    4.9320 H   0  0  0  0  0  0
   29.0961   67.1752    6.3451 H   0  0  0  0  0  0
   31.7982   65.7865    5.8713 H   0  0  0  0  0  0
   31.4735   67.9485    4.6556 H   0  0  0  0  0  0
   30.8795   67.5713    8.1082 H   0  0  0  0  0  0
   33.3000   67.6840    8.2124 H   0  0  0  0  0  0
   33.9546   66.1363    6.4816 H   0  0  0  0  0  0
   31.2498   64.5007    8.0326 H   0  0  0  0  0  0
   30.6440   66.2945   10.4108 H   0  0  0  0  0  0
   31.2689   64.6104   10.4026 H   0  0  0  0  0  0
   33.0293   66.8538   10.5002 H   0  0  0  0  0  0
   34.7538   65.2304    9.8195 H   0  0  0  0  0  0
  1  2  2  0  0  0
  2  3  1  0  0  0
  2 10  1  0  0  0
  3  4  2  0  0  0
  3  9  1  0  0  0
  4  5  1  0  0  0
  4 23  1  0  0  0
  5  6  2  0  0  0
  5 24  1  0  0  0
  6  7  1  0  0  0
  6  8  1  0  0  0
  7 25  1  0  0  0
  7 26  1  0  0  0
  7 27  1  0  0  0
  8  9  2  0  0  0
  8 28  1  0  0  0
  9 29  1  0  0  0
 10 11  1  0  0  0
 10 30  1  0  0  0
 10 31  1  0  0  0
 11 12  1  0  0  0
 11 19  1  0  0  0
 11 32  1  0  0  0
 12 13  1  0  0  0
 12 33  1  0  0  0
 12 34  1  0  0  0
 13 14  1  0  0  0
 13 35  1  0  0  0
 13 36  1  0  0  0
 14 15  1  0  0  0
 14 16  1  0  0  0
 14 37  1  0  0  0
 15 38  1  0  0  0
 16 17  1  0  0  0
 16 19  1  0  0  0
 16 39  1  0  0  0
 17 18  1  0  0  0
 17 21  1  0  0  0
 17 40  1  0  0  0
 18 41  1  0  0  0
 19 20  1  0  0  0
 19 42  1  0  0  0
 20 21  1  0  0  0
 20 43  1  0  0  0
 20 44  1  0  0  0
 21 22  1  0  0  0
 21 45  1  0  0  0
 22 46  1  0  0  0
M  CHG  1  19   1
M  END
> <s_m_source_file>
../3ejq_ligand.sdf

> <i_m_source_file_index>
1

> <s_epik_input>
W2NIXTFbY0hdYyhbQ0gzXSlbY0hdW2NIXWMxQyg9TylbQ0gyXVtDQEBIXShbQ0gyXVtDSDJdW0NASF0yW09IXSlbTkBASCtdKFtDQEhdMjMpW0NIMl1bQ0BASF0oW09IXSlbQ0BIXTNbT0hd

> <s_epik_cmdline>
J2VwaWtfYXBwJywgJy1pbWFlJywgJ2xpZ2FuZF9wcm8ubWFlJywgJy1vbWFlJywgJ2xpZ2FuZF9wcmVwLm1hZScsICctbXMnLCAnMScsICctcGgnLCAnNycsICctcGh0JywgJzAuNScsICctbnQn

> <r_lp_tautomer_probability>
1

> <r_epik_Ionization_Penalty>
  0.0050

> <r_epik_Ionization_Penalty_Charging>
  0.0050

> <r_epik_Ionization_Penalty_Neutral>
  0.0000

> <r_epik_State_Penalty>
 -0.0000

> <r_epik_Charging_Adjusted_Penalty>
0.00495669295848711

> <i_epik_Tot_Q>
1

> <i_epik_Tot_abs_Q>
1

$$$$
