3ejs_ligand
                    3D
 Schrodinger Suite 2020-3.
 56 58  0  0  1  0            999 V2000
   31.7270   68.3070    5.5800 O   0  0  0  0  0  0
   31.3450   67.1010    6.2580 C   0  0  1  0  0  0
   31.6100   67.2370    7.7550 C   0  0  1  0  0  0
   31.0420   66.0860    8.4860 N   0  3  1  0  0  0
   31.5260   66.2780    9.8770 C   0  0  0  0  0  0
   32.9780   66.8100    9.6640 C   0  0  1  0  0  0
   33.8820   65.7420    9.8920 O   0  0  0  0  0  0
   33.0670   67.2960    8.2000 C   0  0  1  0  0  0
   33.9480   66.5200    7.3370 O   0  0  0  0  0  0
   29.8470   66.8210    5.9950 C   0  0  0  0  0  0
   29.2860   65.6580    6.8280 C   0  0  0  0  0  0
   29.5610   65.9080    8.3120 C   0  0  2  0  0  0
   28.6910   67.0580    8.8870 C   0  0  0  0  0  0
   28.3100   66.9230   10.3790 C   0  0  0  0  0  0
   27.3150   67.9850   10.8550 C   0  0  0  0  0  0
   27.7100   68.8050   11.9080 C   0  0  0  0  0  0
   26.8310   69.7870   12.4160 C   0  0  0  0  0  0
   25.5610   69.9880   11.8470 C   0  0  0  0  0  0
   24.6220   71.0490   12.4040 C   0  0  0  0  0  0
   24.0110   71.8660   11.2700 C   0  0  0  0  0  0
   25.3140   71.9660   13.3990 C   0  0  0  0  0  0
   23.5070   70.3000   13.1220 C   0  0  0  0  0  0
   25.0740   69.1100   10.7100 C   0  0  0  0  0  0
   26.0560   68.1010   10.2600 C   0  0  0  0  0  0
   32.7623   68.6724    5.6489 H   0  0  0  0  0  0
   31.9818   66.3064    5.8420 H   0  0  0  0  0  0
   31.1247   68.1921    8.0047 H   0  0  0  0  0  0
   31.3960   65.1248    8.0850 H   0  0  0  0  0  0
   30.8790   67.0022   10.3936 H   0  0  0  0  0  0
   31.4991   65.3165   10.4106 H   0  0  0  0  0  0
   33.2974   67.5853   10.3760 H   0  0  0  0  0  0
   33.9452   65.2779   10.8873 H   0  0  0  0  0  0
   33.5589   68.2731    8.0846 H   0  0  0  0  0  0
   34.0681   66.7993    6.2799 H   0  0  0  0  0  0
   29.2579   67.7168    6.2410 H   0  0  0  0  0  0
   29.7021   66.5667    4.9346 H   0  0  0  0  0  0
   28.2007   65.5810    6.6659 H   0  0  0  0  0  0
   29.7702   64.7195    6.5202 H   0  0  0  0  0  0
   29.2867   65.0279    8.9121 H   0  0  0  0  0  0
   29.2322   68.0107    8.7903 H   0  0  0  0  0  0
   27.7445   67.1158    8.3294 H   0  0  0  0  0  0
   27.8490   65.9394   10.5521 H   0  0  0  0  0  0
   29.2140   67.0183   10.9984 H   0  0  0  0  0  0
   28.7027   68.6888   12.3428 H   0  0  0  0  0  0
   27.1422   70.3988   13.2627 H   0  0  0  0  0  0
   24.8063   72.4128   10.7423 H   0  0  0  0  0  0
   23.2858   72.5823   11.6836 H   0  0  0  0  0  0
   23.5003   71.1921   10.5664 H   0  0  0  0  0  0
   26.1224   72.5134   12.8923 H   0  0  0  0  0  0
   25.7354   71.3659   14.2190 H   0  0  0  0  0  0
   24.5850   72.6823   13.8058 H   0  0  0  0  0  0
   22.9976   69.6320   12.4119 H   0  0  0  0  0  0
   22.7839   71.0217   13.5298 H   0  0  0  0  0  0
   23.9342   69.7054   13.9429 H   0  0  0  0  0  0
   24.0852   69.2141   10.2633 H   0  0  0  0  0  0
   25.7912   67.4300    9.4428 H   0  0  0  0  0  0
  1  2  1  0  0  0
  1 25  1  0  0  0
  2  3  1  0  0  0
  2 10  1  0  0  0
  2 26  1  0  0  0
  3  4  1  0  0  0
  3  8  1  0  0  0
  3 27  1  0  0  0
  4  5  1  0  0  0
  4 12  1  0  0  0
  4 28  1  0  0  0
  5  6  1  0  0  0
  5 29  1  0  0  0
  5 30  1  0  0  0
  6  7  1  0  0  0
  6  8  1  0  0  0
  6 31  1  0  0  0
  7 32  1  0  0  0
  8  9  1  0  0  0
  8 33  1  0  0  0
  9 34  1  0  0  0
 10 11  1  0  0  0
 10 35  1  0  0  0
 10 36  1  0  0  0
 11 12  1  0  0  0
 11 37  1  0  0  0
 11 38  1  0  0  0
 12 13  1  0  0  0
 12 39  1  0  0  0
 13 14  1  0  0  0
 13 40  1  0  0  0
 13 41  1  0  0  0
 14 15  1  0  0  0
 14 42  1  0  0  0
 14 43  1  0  0  0
 15 16  2  0  0  0
 15 24  1  0  0  0
 16 17  1  0  0  0
 16 44  1  0  0  0
 17 18  2  0  0  0
 17 45  1  0  0  0
 18 19  1  0  0  0
 18 23  1  0  0  0
 19 20  1  0  0  0
 19 21  1  0  0  0
 19 22  1  0  0  0
 20 46  1  0  0  0
 20 47  1  0  0  0
 20 48  1  0  0  0
 21 49  1  0  0  0
 21 50  1  0  0  0
 21 51  1  0  0  0
 22 52  1  0  0  0
 22 53  1  0  0  0
 22 54  1  0  0  0
 23 24  2  0  0  0
 23 55  1  0  0  0
 24 56  1  0  0  0
M  CHG  1   4   1
M  END
> <s_m_source_file>
../3ejs_ligand.sdf

> <i_m_source_file_index>
1

> <s_epik_input>
W09IXVtDQEBIXTFbQ0BIXShbT0hdKVtDSDJdW05ASCtdKFtDQEBIXTEyKVtDQEhdKFtDSDJdW0NIMl1bQ0BIXTJbT0hdKVtDSDJdW0NIMl1jM1tjSF1bY0hdYyhDKFtDSDNdKShbQ0gzXSlbQ0gzXSlbY0hdW2NIXTM=

> <s_epik_cmdline>
J2VwaWtfYXBwJywgJy1pbWFlJywgJ2xpZ2FuZF9wcm8ubWFlJywgJy1vbWFlJywgJ2xpZ2FuZF9wcmVwLm1hZScsICctbXMnLCAnMScsICctcGgnLCAnNycsICctcGh0JywgJzAuNScsICctbnQn

> <r_lp_tautomer_probability>
1

> <r_epik_Ionization_Penalty>
  0.0009

> <r_epik_Ionization_Penalty_Charging>
  0.0009

> <r_epik_Ionization_Penalty_Neutral>
  0.0000

> <r_epik_State_Penalty>
 -0.0000

> <r_epik_Charging_Adjusted_Penalty>
0.00092584557134327

> <i_epik_Tot_Q>
1

> <i_epik_Tot_abs_Q>
1

$$$$
