3ejt_ligand
                    3D
 Schrodinger Suite 2020-3.
 56 58  0  0  1  0            999 V2000
   31.6620   68.1280    5.5310 O   0  0  0  0  0  0
   31.2180   66.9840    6.2620 C   0  0  1  0  0  0
   31.5400   67.1860    7.7460 C   0  0  1  0  0  0
   30.9670   66.0770    8.5610 N   0  3  1  0  0  0
   31.5310   66.3360    9.9100 C   0  0  0  0  0  0
   32.9870   66.7810    9.6160 C   0  0  1  0  0  0
   33.8760   65.6690    9.8450 O   0  0  0  0  0  0
   33.0060   67.2790    8.1520 C   0  0  1  0  0  0
   33.8650   66.4510    7.3280 O   0  0  0  0  0  0
   29.6980   66.8210    6.0820 C   0  0  0  0  0  0
   29.0960   65.7580    7.0170 C   0  0  0  0  0  0
   29.4700   66.0340    8.4830 C   0  0  1  0  0  0
   28.9000   64.9820    9.4540 C   0  0  0  0  0  0
   27.3750   64.8140    9.4710 C   0  0  0  0  0  0
   26.6520   65.9430   10.1830 C   0  0  0  0  0  0
   26.7780   66.1430   11.5640 C   0  0  0  0  0  0
   26.0880   67.1910   12.1890 C   0  0  0  0  0  0
   25.2410   68.0560   11.4820 C   0  0  0  0  0  0
   24.4990   69.1990   12.1570 C   0  0  0  0  0  0
   24.9130   70.5210   11.5070 C   0  0  0  0  0  0
   24.8300   69.2840   13.6470 C   0  0  0  0  0  0
   22.9930   69.0090   11.9880 C   0  0  0  0  0  0
   25.0610   67.8600    9.9950 C   0  0  0  0  0  0
   25.8210   66.7540    9.4220 C   0  0  0  0  0  0
   32.7260   68.4070    5.5392 H   0  0  0  0  0  0
   31.7653   66.1253    5.8461 H   0  0  0  0  0  0
   31.0818   68.1635    7.9571 H   0  0  0  0  0  0
   31.2407   65.0696    8.2143 H   0  0  0  0  0  0
   30.9455   67.1233   10.4072 H   0  0  0  0  0  0
   31.4883   65.4141   10.5085 H   0  0  0  0  0  0
   33.3838   67.5479   10.2974 H   0  0  0  0  0  0
   33.9528   65.2237   10.8479 H   0  0  0  0  0  0
   33.4450   68.2742    7.9879 H   0  0  0  0  0  0
   33.9847   66.6767    6.2581 H   0  0  0  0  0  0
   29.1988   67.7775    6.2962 H   0  0  0  0  0  0
   29.4817   66.5183    5.0468 H   0  0  0  0  0  0
   27.9998   65.7680    6.9258 H   0  0  0  0  0  0
   29.4781   64.7651    6.7375 H   0  0  0  0  0  0
   29.0533   67.0023    8.7972 H   0  0  0  0  0  0
   29.3066   63.9916    9.2015 H   0  0  0  0  0  0
   29.1831   65.2427   10.4845 H   0  0  0  0  0  0
   26.9983   64.7801    8.4381 H   0  0  0  0  0  0
   27.1149   63.8780    9.9870 H   0  0  0  0  0  0
   27.4138   65.4824   12.1535 H   0  0  0  0  0  0
   26.2143   67.3384   13.2616 H   0  0  0  0  0  0
   25.9972   70.6640   11.6253 H   0  0  0  0  0  0
   24.3786   71.3512   11.9920 H   0  0  0  0  0  0
   24.6608   70.4981   10.4366 H   0  0  0  0  0  0
   25.9140   69.4209   13.7746 H   0  0  0  0  0  0
   24.5165   68.3550   14.1458 H   0  0  0  0  0  0
   24.2977   70.1372   14.0928 H   0  0  0  0  0  0
   22.7491   68.9472   10.9172 H   0  0  0  0  0  0
   22.4632   69.8626   12.4360 H   0  0  0  0  0  0
   22.6821   68.0804   12.4891 H   0  0  0  0  0  0
   24.4117   68.4973    9.3947 H   0  0  0  0  0  0
   25.7327   66.5566    8.3537 H   0  0  0  0  0  0
  1  2  1  0  0  0
  1 25  1  0  0  0
  2  3  1  0  0  0
  2 10  1  0  0  0
  2 26  1  0  0  0
  3  4  1  0  0  0
  3  8  1  0  0  0
  3 27  1  0  0  0
  4  5  1  0  0  0
  4 12  1  0  0  0
  4 28  1  0  0  0
  5  6  1  0  0  0
  5 29  1  0  0  0
  5 30  1  0  0  0
  6  7  1  0  0  0
  6  8  1  0  0  0
  6 31  1  0  0  0
  7 32  1  0  0  0
  8  9  1  0  0  0
  8 33  1  0  0  0
  9 34  1  0  0  0
 10 11  1  0  0  0
 10 35  1  0  0  0
 10 36  1  0  0  0
 11 12  1  0  0  0
 11 37  1  0  0  0
 11 38  1  0  0  0
 12 13  1  0  0  0
 12 39  1  0  0  0
 13 14  1  0  0  0
 13 40  1  0  0  0
 13 41  1  0  0  0
 14 15  1  0  0  0
 14 42  1  0  0  0
 14 43  1  0  0  0
 15 16  2  0  0  0
 15 24  1  0  0  0
 16 17  1  0  0  0
 16 44  1  0  0  0
 17 18  2  0  0  0
 17 45  1  0  0  0
 18 19  1  0  0  0
 18 23  1  0  0  0
 19 20  1  0  0  0
 19 21  1  0  0  0
 19 22  1  0  0  0
 20 46  1  0  0  0
 20 47  1  0  0  0
 20 48  1  0  0  0
 21 49  1  0  0  0
 21 50  1  0  0  0
 21 51  1  0  0  0
 22 52  1  0  0  0
 22 53  1  0  0  0
 22 54  1  0  0  0
 23 24  2  0  0  0
 23 55  1  0  0  0
 24 56  1  0  0  0
M  CHG  1   4   1
M  END
> <s_m_source_file>
../3ejt_ligand.sdf

> <i_m_source_file_index>
1

> <s_epik_input>
W09IXVtDQEBIXTFbQ0BIXShbT0hdKVtDSDJdW05ASCtdKFtDQEBIXTEyKVtDQEBIXShbQ0gyXVtDSDJdW0NASF0yW09IXSlbQ0gyXVtDSDJdYzNbY0hdW2NIXWMoQyhbQ0gzXSkoW0NIM10pW0NIM10pW2NIXVtjSF0z

> <s_epik_cmdline>
J2VwaWtfYXBwJywgJy1pbWFlJywgJ2xpZ2FuZF9wcm8ubWFlJywgJy1vbWFlJywgJ2xpZ2FuZF9wcmVwLm1hZScsICctbXMnLCAnMScsICctcGgnLCAnNycsICctcGh0JywgJzAuNScsICctbnQn

> <r_lp_tautomer_probability>
1

> <r_epik_Ionization_Penalty>
  0.0009

> <r_epik_Ionization_Penalty_Charging>
  0.0009

> <r_epik_Ionization_Penalty_Neutral>
  0.0000

> <r_epik_State_Penalty>
 -0.0000

> <r_epik_Charging_Adjusted_Penalty>
0.00092584557134327

> <i_epik_Tot_Q>
1

> <i_epik_Tot_abs_Q>
1

$$$$
