3eju_ligand
                    3D
 Schrodinger Suite 2020-3.
 55 57  0  0  1  0            999 V2000
   26.5920   65.0700    8.4450 O   0  0  0  0  0  0
   27.2110   65.8110    9.1850 C   0  0  0  0  0  0
   26.4650   66.9340    9.8800 C   0  0  0  0  0  0
   25.0730   67.0250    9.7010 C   0  0  0  0  0  0
   24.3250   68.0300   10.3160 C   0  0  0  0  0  0
   24.9350   68.9750   11.1410 C   0  0  0  0  0  0
   24.0930   70.0490   11.8230 C   0  0  0  0  0  0
   22.6060   69.8890   11.4900 C   0  0  0  0  0  0
   24.2180   69.9020   13.3420 C   0  0  0  0  0  0
   24.5180   71.4470   11.3840 C   0  0  0  0  0  0
   26.3300   68.8900   11.3300 C   0  0  0  0  0  0
   27.0950   67.8780   10.7080 C   0  0  0  0  0  0
   28.6950   65.5350    9.3510 C   0  0  0  0  0  0
   29.4720   66.3800    8.3310 C   0  0  2  0  0  0
   29.1120   66.0840    6.8610 C   0  0  0  0  0  0
   29.7750   67.1320    5.9530 C   0  0  0  0  0  0
   31.2890   67.2570    6.1620 C   0  0  1  0  0  0
   31.7830   68.3980    5.4500 O   0  0  0  0  0  0
   30.9630   66.3100    8.4360 N   0  3  2  0  0  0
   31.5130   66.4940    9.8040 C   0  0  0  0  0  0
   32.9750   66.9300    9.5360 C   0  0  1  0  0  0
   33.8590   65.8390    9.8190 O   0  0  0  0  0  0
   33.0530   67.4310    8.0790 C   0  0  1  0  0  0
   33.8830   66.5840    7.2510 O   0  0  0  0  0  0
   31.5880   67.4230    7.6540 C   0  0  1  0  0  0
   24.5677   66.2951    9.0685 H   0  0  0  0  0  0
   23.2489   68.0772   10.1493 H   0  0  0  0  0  0
   22.2676   68.8879   11.7953 H   0  0  0  0  0  0
   22.4575   70.0118   10.4070 H   0  0  0  0  0  0
   22.0254   70.6524   12.0286 H   0  0  0  0  0  0
   23.9077   68.8894   13.6391 H   0  0  0  0  0  0
   23.5727   70.6431   13.8364 H   0  0  0  0  0  0
   25.2633   70.0680   13.6416 H   0  0  0  0  0  0
   24.4216   71.5334   10.2917 H   0  0  0  0  0  0
   25.5647   71.6202   11.6745 H   0  0  0  0  0  0
   23.8741   72.1953   11.8693 H   0  0  0  0  0  0
   26.8279   69.6196   11.9687 H   0  0  0  0  0  0
   28.1718   67.8298   10.8702 H   0  0  0  0  0  0
   29.0059   65.8032   10.3715 H   0  0  0  0  0  0
   28.8910   64.4667    9.1768 H   0  0  0  0  0  0
   29.1743   67.3984    8.6211 H   0  0  0  0  0  0
   29.4735   65.0811    6.5898 H   0  0  0  0  0  0
   28.0201   66.1266    6.7352 H   0  0  0  0  0  0
   29.6105   66.8611    4.8996 H   0  0  0  0  0  0
   29.3339   68.1201    6.1507 H   0  0  0  0  0  0
   31.8186   66.3889    5.7426 H   0  0  0  0  0  0
   31.6604   68.4607    4.3587 H   0  0  0  0  0  0
   31.1974   65.2962    8.0793 H   0  0  0  0  0  0
   30.9321   67.2645   10.3322 H   0  0  0  0  0  0
   31.4493   65.5444   10.3556 H   0  0  0  0  0  0
   33.3524   67.7045   10.2199 H   0  0  0  0  0  0
   33.8871   65.4013   10.8278 H   0  0  0  0  0  0
   33.5605   68.3961    7.9338 H   0  0  0  0  0  0
   34.9610   66.5026    7.4542 H   0  0  0  0  0  0
   31.1661   68.4142    7.8763 H   0  0  0  0  0  0
  1  2  2  0  0  0
  2  3  1  0  0  0
  2 13  1  0  0  0
  3  4  2  0  0  0
  3 12  1  0  0  0
  4  5  1  0  0  0
  4 26  1  0  0  0
  5  6  2  0  0  0
  5 27  1  0  0  0
  6  7  1  0  0  0
  6 11  1  0  0  0
  7  8  1  0  0  0
  7  9  1  0  0  0
  7 10  1  0  0  0
  8 28  1  0  0  0
  8 29  1  0  0  0
  8 30  1  0  0  0
  9 31  1  0  0  0
  9 32  1  0  0  0
  9 33  1  0  0  0
 10 34  1  0  0  0
 10 35  1  0  0  0
 10 36  1  0  0  0
 11 12  2  0  0  0
 11 37  1  0  0  0
 12 38  1  0  0  0
 13 14  1  0  0  0
 13 39  1  0  0  0
 13 40  1  0  0  0
 14 15  1  0  0  0
 14 19  1  0  0  0
 14 41  1  0  0  0
 15 16  1  0  0  0
 15 42  1  0  0  0
 15 43  1  0  0  0
 16 17  1  0  0  0
 16 44  1  0  0  0
 16 45  1  0  0  0
 17 18  1  0  0  0
 17 25  1  0  0  0
 17 46  1  0  0  0
 18 47  1  0  0  0
 19 20  1  0  0  0
 19 25  1  0  0  0
 19 48  1  0  0  0
 20 21  1  0  0  0
 20 49  1  0  0  0
 20 50  1  0  0  0
 21 22  1  0  0  0
 21 23  1  0  0  0
 21 51  1  0  0  0
 22 52  1  0  0  0
 23 24  1  0  0  0
 23 25  1  0  0  0
 23 53  1  0  0  0
 24 54  1  0  0  0
 25 55  1  0  0  0
M  CHG  1  19   1
M  END
> <s_m_source_file>
../3eju_ligand.sdf

> <i_m_source_file_index>
1

> <s_epik_input>
W0NIM11DKFtDSDNdKShbQ0gzXSljKFtjSF1bY0hdMSlbY0hdW2NIXWMxQyg9TylbQ0gyXVtDQEBIXTJbQ0gyXVtDSDJdW0NAQEhdKFtPSF0pW0NAQEhdKFtOQEgrXTIzKVtDQEhdKFtPSF0pW0NAQEhdKFtDSDJdMylbT0hd

> <s_epik_cmdline>
J2VwaWtfYXBwJywgJy1pbWFlJywgJ2xpZ2FuZF9wcm8ubWFlJywgJy1vbWFlJywgJ2xpZ2FuZF9wcmVwLm1hZScsICctbXMnLCAnMScsICctcGgnLCAnNycsICctcGh0JywgJzAuNScsICctbnQn

> <r_lp_tautomer_probability>
0.99990000499975

> <r_epik_Ionization_Penalty>
  0.1171

> <r_epik_Ionization_Penalty_Charging>
  0.1171

> <r_epik_Ionization_Penalty_Neutral>
  0.0000

> <r_epik_State_Penalty>
  0.1067

> <r_epik_Charging_Adjusted_Penalty>
0.223710458603769

> <i_epik_Tot_Q>
1

> <i_epik_Tot_abs_Q>
1

$$$$
