3eka_ligand
                    3D
 Schrodinger Suite 2020-3.
 19 19  0  0  1  0            999 V2000
   16.9680   -1.3800   37.3300 C   0  0  0  0  0  0
   16.7050   -2.6430   36.7180 C   0  0  0  0  0  0
   15.8370   -2.4020   35.7370 C   0  0  0  0  0  0
   15.5180   -0.9070   35.6250 C   0  0  1  0  0  0
   14.1500   -0.4690   36.1490 C   0  0  2  0  0  0
   14.1600    1.0740   36.1530 C   0  0  0  0  0  0
   17.4850   -1.2550   38.4420 O   0  5  0  0  0  0
   17.2450   -3.7940   37.1220 O   0  0  0  0  0  0
   15.3060   -3.3330   34.9470 O   0  0  0  0  0  0
   16.5010   -0.2680   36.4830 O   0  0  0  0  0  0
   13.9870   -0.9890   37.4800 O   0  0  0  0  0  0
   13.1650    1.6290   37.3630 O   0  0  0  0  0  0
   15.5648   -0.6109   34.5666 H   0  0  0  0  0  0
   13.3007   -0.8779   35.5821 H   0  0  0  0  0  0
   15.1850    1.4336   36.3263 H   0  0  0  0  0  0
   13.8003    1.4455   35.1821 H   0  0  0  0  0  0
   17.9545   -3.8036   37.9625 H   0  0  0  0  0  0
   13.9597   -2.0760   37.6463 H   0  0  0  0  0  0
   13.0430    2.7106   37.5220 H   0  0  0  0  0  0
  1  2  2  0  0  0
  1  7  1  0  0  0
  1 10  1  0  0  0
  2  3  1  0  0  0
  2  8  1  0  0  0
  3  4  1  0  0  0
  3  9  2  0  0  0
  4  5  1  0  0  0
  4 10  1  0  0  0
  4 13  1  0  0  0
  5  6  1  0  0  0
  5 11  1  0  0  0
  5 14  1  0  0  0
  6 12  1  0  0  0
  6 15  1  0  0  0
  6 16  1  0  0  0
  8 17  1  0  0  0
 11 18  1  0  0  0
 12 19  1  0  0  0
M  CHG  1   7  -1
M  END
> <s_m_source_file>
../3eka_ligand.sdf

> <i_m_source_file_index>
1

> <s_epik_input>
Tz1DMUMoW09IXSk9QyhbT0hdKVtDQEhdKE8xKVtDQEBIXShbT0hdKVtDSDJdW09IXQ==

> <s_epik_cmdline>
J2VwaWtfYXBwJywgJy1pbWFlJywgJ2xpZ2FuZF9wcm8ubWFlJywgJy1vbWFlJywgJ2xpZ2FuZF9wcmVwLm1hZScsICctbXMnLCAnMScsICctcGgnLCAnNycsICctcGh0JywgJzAuNScsICctbnQn

> <r_lp_tautomer_probability>
1

> <r_epik_Ionization_Penalty>
  0.0003

> <r_epik_Ionization_Penalty_Charging>
  0.0001

> <r_epik_Ionization_Penalty_Neutral>
  0.0003

> <r_epik_State_Penalty>
 -0.0000

> <r_epik_Charging_Adjusted_Penalty>
6.00185594307347e-05

> <i_epik_Tot_Q>
-1

> <i_epik_Tot_abs_Q>
1

> <s_epik_Chemistry_Notes>
This compound has an ester and may undergo hydrolysis at high or low pH.

$$$$
