3ekn_ligand
                    3D
 Schrodinger Suite 2020-3.
 71 75  0  0  1  0            999 V2000
   -0.1160   19.8720   20.5510 C   0  0  0  0  0  0
    1.1320   19.6690   19.8980 O   0  0  0  0  0  0
    2.1620   19.9550   20.7960 C   0  0  0  0  0  0
    1.9380   20.0890   22.1500 C   0  0  0  0  0  0
    2.9770   20.3930   23.0060 C   0  0  0  0  0  0
    4.2390   20.5370   22.4590 C   0  0  0  0  0  0
    4.4710   20.3870   21.1080 C   0  0  0  0  0  0
    3.4240   20.0980   20.2550 C   0  0  0  0  0  0
    3.5460   19.9380   18.8540 N   0  0  0  0  0  0
    4.5960   20.3360   18.0130 C   0  0  0  0  0  0
    5.5630   21.1190   18.5050 N   0  3  0  0  0  0
    6.5870   21.4970   17.7270 C   0  0  0  0  0  0
    7.6380   22.3170   18.1720 N   0  0  0  0  0  0
    7.8220   22.8100   19.4740 C   0  0  0  0  0  0
    6.7660   23.1650   20.2890 C   0  0  0  0  0  0
    6.9930   23.6530   21.5570 C   0  0  0  0  0  0
    8.2760   23.7990   22.0410 C   0  0  0  0  0  0
    9.3380   23.4520   21.2340 C   0  0  0  0  0  0
   10.6180   23.5780   21.6590 F   0  0  0  0  0  0
    9.1010   22.9680   19.9660 C   0  0  0  0  0  0
   10.2740   22.6070   19.1560 C   0  0  0  0  0  0
   10.3760   22.9480   17.9880 O   0  0  0  0  0  0
   11.1900   21.8690   19.8610 N   0  0  0  0  0  0
    6.6000   21.0560   16.4150 C   0  0  0  0  0  0
    7.4660   21.2280   15.3050 C   0  0  0  0  0  0
    6.9240   20.5330   14.2520 C   0  0  0  0  0  0
    5.7700   19.9490   14.6840 N   0  3  0  0  0  0
    5.5610   20.2590   16.0010 C   0  0  0  0  0  0
    4.5360   19.8650   16.7570 N   0  0  0  0  0  0
    2.7470   20.5310   24.3950 N   0  0  0  0  0  0
    3.9970   20.4540   25.1270 C   0  0  0  0  0  0
    3.6580   20.1650   26.5660 C   0  0  0  0  0  0
    2.8420   21.3040   27.0630 N   0  3  0  0  0  0
    1.6210   21.5860   26.2310 C   0  0  0  0  0  0
    1.9850   21.7250   24.7590 C   0  0  0  0  0  0
    2.5960   21.2030   28.5410 C   0  0  0  0  0  0
    3.9100   21.3890   29.2750 C   0  0  0  0  0  0
    1.7140   22.3510   28.9620 C   0  0  0  0  0  0
   -0.9359   19.6494   19.8523 H   0  0  0  0  0  0
   -0.1905   20.9182   20.8824 H   0  0  0  0  0  0
   -0.1862   19.2052   21.4231 H   0  0  0  0  0  0
    0.9321   19.9537   22.5475 H   0  0  0  0  0  0
    5.0755   20.7763   23.1156 H   0  0  0  0  0  0
    5.4811   20.4966   20.7132 H   0  0  0  0  0  0
    2.7452   19.4429   18.2852 H   0  0  0  0  0  0
    8.4232   22.6343   17.4700 H   0  0  0  0  0  0
    5.7437   23.0583   19.9261 H   0  0  0  0  0  0
    6.1467   23.9276   22.1866 H   0  0  0  0  0  0
    8.4476   24.1830   23.0466 H   0  0  0  0  0  0
   10.9987   21.6156   20.9142 H   0  0  0  0  0  0
   12.1160   21.5305   19.3733 H   0  0  0  0  0  0
    8.4097   21.7778   15.1736 H   0  0  0  0  0  0
    7.4326   20.5274   13.2767 H   0  0  0  0  0  0
    4.6182   19.6487   24.7080 H   0  0  0  0  0  0
    4.5315   21.4116   25.0416 H   0  0  0  0  0  0
    3.0888   19.2257   26.6271 H   0  0  0  0  0  0
    4.5857   20.0702   27.1494 H   0  0  0  0  0  0
    3.4552   22.2064   26.9227 H   0  0  0  0  0  0
    0.9036   20.7594   26.3408 H   0  0  0  0  0  0
    1.1551   22.5232   26.5695 H   0  0  0  0  0  0
    2.6036   22.6194   24.5934 H   0  0  0  0  0  0
    1.0793   21.7855   24.1377 H   0  0  0  0  0  0
    2.1355   20.2284   28.7604 H   0  0  0  0  0  0
    4.5990   20.5749   29.0055 H   0  0  0  0  0  0
    3.7294   21.3725   30.3600 H   0  0  0  0  0  0
    4.3546   22.3545   28.9919 H   0  0  0  0  0  0
    0.7398   22.2689   28.4579 H   0  0  0  0  0  0
    2.1920   23.3018   28.6836 H   0  0  0  0  0  0
    1.5668   22.3198   30.0517 H   0  0  0  0  0  0
    5.1704   19.3383   13.9929 H   0  0  0  0  0  0
    5.5195   21.4549   19.5515 H   0  0  0  0  0  0
  1  2  1  0  0  0
  1 39  1  0  0  0
  1 40  1  0  0  0
  1 41  1  0  0  0
  2  3  1  0  0  0
  3  4  2  0  0  0
  3  8  1  0  0  0
  4  5  1  0  0  0
  4 42  1  0  0  0
  5  6  2  0  0  0
  5 30  1  0  0  0
  6  7  1  0  0  0
  6 43  1  0  0  0
  7  8  2  0  0  0
  7 44  1  0  0  0
  8  9  1  0  0  0
  9 10  1  0  0  0
  9 45  1  0  0  0
 10 11  2  0  0  0
 10 29  1  0  0  0
 11 12  1  0  0  0
 11 71  1  0  0  0
 12 13  1  0  0  0
 12 24  2  0  0  0
 13 14  1  0  0  0
 13 46  1  0  0  0
 14 15  2  0  0  0
 14 20  1  0  0  0
 15 16  1  0  0  0
 15 47  1  0  0  0
 16 17  2  0  0  0
 16 48  1  0  0  0
 17 18  1  0  0  0
 17 49  1  0  0  0
 18 19  1  0  0  0
 18 20  2  0  0  0
 20 21  1  0  0  0
 21 22  2  0  0  0
 21 23  1  0  0  0
 23 50  1  0  0  0
 23 51  1  0  0  0
 24 25  1  0  0  0
 24 28  1  0  0  0
 25 26  2  0  0  0
 25 52  1  0  0  0
 26 27  1  0  0  0
 26 53  1  0  0  0
 27 28  1  0  0  0
 27 70  1  0  0  0
 28 29  2  0  0  0
 30 31  1  0  0  0
 30 35  1  0  0  0
 31 32  1  0  0  0
 31 54  1  0  0  0
 31 55  1  0  0  0
 32 33  1  0  0  0
 32 56  1  0  0  0
 32 57  1  0  0  0
 33 34  1  0  0  0
 33 36  1  0  0  0
 33 58  1  0  0  0
 34 35  1  0  0  0
 34 59  1  0  0  0
 34 60  1  0  0  0
 35 61  1  0  0  0
 35 62  1  0  0  0
 36 37  1  0  0  0
 36 38  1  0  0  0
 36 63  1  0  0  0
 37 64  1  0  0  0
 37 65  1  0  0  0
 37 66  1  0  0  0
 38 67  1  0  0  0
 38 68  1  0  0  0
 38 69  1  0  0  0
M  CHG  3  11   1  27   1  33   1
M  END
> <s_m_source_file>
../3ekn_ligand.sdf

> <i_m_source_file_index>
1

> <s_epik_input>
W0NIMl0xW0NIMl1bTkgrXShbQ0hdKFtDSDNdKVtDSDNdKVtDSDJdW0NIMl1OMWMoW2NIXWMyT1tDSDNdKVtjSF1bY0hdYzJbTkhdYyhuYyhjMzQpW25IXVtjSF1bY0hdNCluYzNbTkhdYzVbY0hdW2NIXVtjSF1jKEYpYzVDKD1PKVtOSDJd

> <s_epik_cmdline>
J2VwaWtfYXBwJywgJy1pbWFlJywgJ2xpZ2FuZF9wcm8ubWFlJywgJy1vbWFlJywgJ2xpZ2FuZF9wcmVwLm1hZScsICctbXMnLCAnMScsICctcGgnLCAnNycsICctcGh0JywgJzAuNScsICctbnQn

> <r_lp_tautomer_probability>
1

> <r_epik_Ionization_Penalty>
  0.0975

> <r_epik_Ionization_Penalty_Charging>
  0.0913

> <r_epik_Ionization_Penalty_Neutral>
  0.0062

> <r_epik_State_Penalty>
 -0.0000

> <r_epik_Charging_Adjusted_Penalty>
0.0912941137293193

> <i_epik_Tot_Q>
3

> <i_epik_Tot_abs_Q>
3

$$$$
