3ekq_ligand
                    3D
 Schrodinger Suite 2020-3.
100104  0  0  1  0            999 V2000
   21.3450    3.9920   20.3020 C   0  0  0  0  0  0
   21.6770    4.9420   19.5970 O   0  0  0  0  0  0
   20.0570    3.1850   22.3140 N   0  0  0  0  0  0
   20.4500    4.1940   21.5000 C   0  0  0  0  0  0
   20.0220    5.4890   21.7750 C   0  0  0  0  0  0
   19.2030    5.7400   22.8710 C   0  0  0  0  0  0
   17.9960    4.9170   24.7930 C   0  0  0  0  0  0
   17.6140    3.8590   25.6120 C   0  0  0  0  0  0
   18.0610    2.5710   25.3290 C   0  0  0  0  0  0
   18.8750    2.3480   24.2190 C   0  0  0  0  0  0
   18.8160    4.6870   23.6910 C   0  0  0  0  0  0
   19.2610    3.4030   23.3920 C   0  0  0  0  0  0
   21.8560    2.8410   19.8780 N   0  0  0  0  0  0
   22.5650    1.8330   19.1290 C   0  0  2  0  0  0
   21.6380    0.7640   18.6380 C   0  0  0  0  0  0
   21.5990   -0.3060   19.2130 O   0  0  0  0  0  0
   23.8390    1.4110   19.8600 C   0  0  0  0  0  0
   24.6760    2.6690   20.0300 C   0  0  0  0  0  0
   25.0430    3.3120   19.0660 O   0  0  0  0  0  0
   24.9540    3.0520   21.2690 N   0  0  0  0  0  0
   20.3360    0.0470   15.3800 C   0  0  1  0  0  0
   20.3890    1.1460   14.6110 O   0  0  0  0  0  0
   19.9940    0.2430   16.8330 C   0  0  1  0  0  0
   20.9320    1.1060   17.5390 N   0  0  0  0  0  0
   18.5430    0.7680   16.8850 C   0  0  0  0  0  0
   18.0940    1.2920   18.2270 C   0  0  0  0  0  0
   17.8760    0.4390   19.3050 C   0  0  0  0  0  0
   17.8800    2.6600   18.3820 C   0  0  0  0  0  0
   17.4450    0.9530   20.5280 C   0  0  0  0  0  0
   17.4550    3.1770   19.6030 C   0  0  0  0  0  0
   17.2350    2.3180   20.6770 C   0  0  0  0  0  0
   20.6040   -2.3240   15.0360 N   0  3  1  0  0  0
   19.9030   -1.1010   14.8020 C   0  0  0  0  0  0
   19.7790   -3.5230   14.8150 C   0  0  2  0  0  0
   18.5270   -3.5160   15.6430 C   0  0  0  0  0  0
   18.6080   -3.2180   16.8350 O   0  0  0  0  0  0
   20.5800   -4.7800   15.1780 C   0  0  0  0  0  0
   21.8500   -4.8810   14.3390 C   0  0  2  0  0  0
   22.6740   -6.1240   14.6870 C   0  0  0  0  0  0
   23.3710   -6.0080   16.0410 C   0  0  0  0  0  0
   24.2090   -4.7400   16.1360 C   0  0  0  0  0  0
   23.3440   -3.5140   15.8490 C   0  0  0  0  0  0
   22.6850   -3.6130   14.4760 C   0  0  2  0  0  0
   21.8390   -2.3810   14.2140 C   0  0  0  0  0  0
   17.4290   -3.9050   14.9580 N   0  0  0  0  0  0
   16.0670   -4.0650   15.4580 C   0  0  0  0  0  0
   15.2220   -4.6620   14.3330 C   0  0  0  0  0  0
   16.0460   -4.9990   16.6710 C   0  0  0  0  0  0
   15.4970   -2.6920   15.8130 C   0  0  0  0  0  0
   20.3299    6.3108   21.1285 H   0  0  0  0  0  0
   18.8674    6.7547   23.0849 H   0  0  0  0  0  0
   17.6529    5.9276   25.0143 H   0  0  0  0  0  0
   16.9677    4.0377   26.4713 H   0  0  0  0  0  0
   17.7754    1.7395   25.9733 H   0  0  0  0  0  0
   19.2139    1.3366   23.9947 H   0  0  0  0  0  0
   21.2870    2.5600   20.7765 H   0  0  0  0  0  0
   22.9087    2.2916   18.1901 H   0  0  0  0  0  0
   23.5753    0.9793   20.8368 H   0  0  0  0  0  0
   24.3746    0.6606   19.2600 H   0  0  0  0  0  0
   24.6083    2.4492   22.1217 H   0  0  0  0  0  0
   25.5303    3.9725   21.4439 H   0  0  0  0  0  0
   21.4029   -0.1702   15.2234 H   0  0  0  0  0  0
   20.7340    2.0995   15.0374 H   0  0  0  0  0  0
   20.1293   -0.7001   17.3829 H   0  0  0  0  0  0
   21.1118    2.1309   17.1823 H   0  0  0  0  0  0
   18.4274    1.5974   16.1717 H   0  0  0  0  0  0
   17.8497   -0.0435   16.6192 H   0  0  0  0  0  0
   18.0423   -0.6324   19.1933 H   0  0  0  0  0  0
   18.0468    3.3316   17.5398 H   0  0  0  0  0  0
   17.2725    0.2816   21.3692 H   0  0  0  0  0  0
   17.2952    4.2491   19.7178 H   0  0  0  0  0  0
   16.8982    2.7166   21.6340 H   0  0  0  0  0  0
   20.8483   -2.2963   16.1082 H   0  0  0  0  0  0
   18.8762   -1.3140   15.1340 H   0  0  0  0  0  0
   19.9188   -0.9893   13.7078 H   0  0  0  0  0  0
   19.4975   -3.4846   13.7523 H   0  0  0  0  0  0
   20.8617   -4.7411   16.2406 H   0  0  0  0  0  0
   19.9643   -5.6729   14.9944 H   0  0  0  0  0  0
   21.5412   -4.9810   13.2880 H   0  0  0  0  0  0
   22.0141   -7.0034   14.7217 H   0  0  0  0  0  0
   23.4486   -6.2767   13.9210 H   0  0  0  0  0  0
   22.6164   -5.9851   16.8410 H   0  0  0  0  0  0
   24.0343   -6.8732   16.1873 H   0  0  0  0  0  0
   24.6308   -4.6543   17.1483 H   0  0  0  0  0  0
   25.0261   -4.7845   15.4009 H   0  0  0  0  0  0
   22.5555   -3.4349   16.6119 H   0  0  0  0  0  0
   23.9699   -2.6098   15.8735 H   0  0  0  0  0  0
   23.4805   -3.6620   13.7179 H   0  0  0  0  0  0
   21.5696   -2.3876   13.1475 H   0  0  0  0  0  0
   22.4635   -1.5013   14.4289 H   0  0  0  0  0  0
   17.6548   -4.1112   13.9013 H   0  0  0  0  0  0
   15.6177   -5.6523   14.0632 H   0  0  0  0  0  0
   15.2601   -4.0003   13.4551 H   0  0  0  0  0  0
   14.1801   -4.7630   14.6711 H   0  0  0  0  0  0
   16.4608   -5.9775   16.3875 H   0  0  0  0  0  0
   15.0099   -5.1265   17.0177 H   0  0  0  0  0  0
   16.6522   -4.5640   17.4792 H   0  0  0  0  0  0
   15.5242   -2.0430   14.9253 H   0  0  0  0  0  0
   16.0995   -2.2412   16.6154 H   0  0  0  0  0  0
   14.4571   -2.8037   16.1538 H   0  0  0  0  0  0
  1  2  2  0  0  0
  1  4  1  0  0  0
  1 13  1  0  0  0
  3  4  2  0  0  0
  3 12  1  0  0  0
  4  5  1  0  0  0
  5  6  2  0  0  0
  5 50  1  0  0  0
  6 11  1  0  0  0
  6 51  1  0  0  0
  7  8  1  0  0  0
  7 11  2  0  0  0
  7 52  1  0  0  0
  8  9  2  0  0  0
  8 53  1  0  0  0
  9 10  1  0  0  0
  9 54  1  0  0  0
 10 12  2  0  0  0
 10 55  1  0  0  0
 11 12  1  0  0  0
 13 14  1  0  0  0
 13 56  1  0  0  0
 14 15  1  0  0  0
 14 17  1  0  0  0
 14 57  1  0  0  0
 15 16  2  0  0  0
 15 24  1  0  0  0
 17 18  1  0  0  0
 17 58  1  0  0  0
 17 59  1  0  0  0
 18 19  2  0  0  0
 18 20  1  0  0  0
 20 60  1  0  0  0
 20 61  1  0  0  0
 21 22  1  0  0  0
 21 23  1  0  0  0
 21 33  1  0  0  0
 21 62  1  0  0  0
 22 63  1  0  0  0
 23 24  1  0  0  0
 23 25  1  0  0  0
 23 64  1  0  0  0
 24 65  1  0  0  0
 25 26  1  0  0  0
 25 66  1  0  0  0
 25 67  1  0  0  0
 26 27  2  0  0  0
 26 28  1  0  0  0
 27 29  1  0  0  0
 27 68  1  0  0  0
 28 30  2  0  0  0
 28 69  1  0  0  0
 29 31  2  0  0  0
 29 70  1  0  0  0
 30 31  1  0  0  0
 30 71  1  0  0  0
 31 72  1  0  0  0
 32 33  1  0  0  0
 32 34  1  0  0  0
 32 44  1  0  0  0
 32 73  1  0  0  0
 33 74  1  0  0  0
 33 75  1  0  0  0
 34 35  1  0  0  0
 34 37  1  0  0  0
 34 76  1  0  0  0
 35 36  2  0  0  0
 35 45  1  0  0  0
 37 38  1  0  0  0
 37 77  1  0  0  0
 37 78  1  0  0  0
 38 39  1  0  0  0
 38 43  1  0  0  0
 38 79  1  0  0  0
 39 40  1  0  0  0
 39 80  1  0  0  0
 39 81  1  0  0  0
 40 41  1  0  0  0
 40 82  1  0  0  0
 40 83  1  0  0  0
 41 42  1  0  0  0
 41 84  1  0  0  0
 41 85  1  0  0  0
 42 43  1  0  0  0
 42 86  1  0  0  0
 42 87  1  0  0  0
 43 44  1  0  0  0
 43 88  1  0  0  0
 44 89  1  0  0  0
 44 90  1  0  0  0
 45 46  1  0  0  0
 45 91  1  0  0  0
 46 47  1  0  0  0
 46 48  1  0  0  0
 46 49  1  0  0  0
 47 92  1  0  0  0
 47 93  1  0  0  0
 47 94  1  0  0  0
 48 95  1  0  0  0
 48 96  1  0  0  0
 48 97  1  0  0  0
 49 98  1  0  0  0
 49 99  1  0  0  0
 49100  1  0  0  0
M  CHG  1  32   1
M  END
> <s_m_source_file>
../3ekq_ligand.sdf

> <i_m_source_file_index>
1

> <s_epik_input>
W2NIXTFbY0hdW2NIXVtjSF1jKGMxMiluYyhbY0hdW2NIXTIpQyg9TylbTkhdW0NAQEhdKFtDSDJdQyg9TylbTkgyXSlDKD1PKVtOSF1bQ0BASF0oW0NIMl1jM1tjSF1bY0hdW2NIXVtjSF1bY0hdMylbQ0BIXShbT0hdKVtDSDJdW05AQEgrXShbQ0BASF0oW0NIMl00KUMoPU8pW05IXUMoW0NIM10pKFtDSDNdKVtDSDNdKVtDSDJdW0NASF0oW0NASF00NSlbQ0gyXVtDSDJdW0NIMl1bQ0gyXTU=

> <s_epik_cmdline>
J2VwaWtfYXBwJywgJy1pbWFlJywgJ2xpZ2FuZF9wcm8ubWFlJywgJy1vbWFlJywgJ2xpZ2FuZF9wcmVwLm1hZScsICctbXMnLCAnMScsICctcGgnLCAnNycsICctcGh0JywgJzAuNScsICctbnQn

> <r_epik_Ionization_Penalty>
  0.0170

> <r_epik_Ionization_Penalty_Charging>
  0.0167

> <r_epik_Ionization_Penalty_Neutral>
  0.0002

> <r_epik_State_Penalty>
  0.0132

> <r_epik_Charging_Adjusted_Penalty>
0.0299262088794582

> <i_epik_Tot_Q>
1

> <i_epik_Tot_abs_Q>
1

$$$$
