3ekr_ligand
                    3D
 Schrodinger Suite 2020-3.
 41 43  0  0  1  0            999 V2000
   17.1140   -3.7120   51.0650 N   0  0  0  0  0  0
   15.2170    0.8970   49.6930 C   0  0  0  0  0  0
   16.5820    0.6770   49.3700 C   0  0  0  0  0  0
   17.1030   -0.6460   49.4040 C   0  0  0  0  0  0
   16.8290   -3.1190   49.8050 C   0  0  0  0  0  0
   16.9380   -3.1630   52.4490 C   0  0  1  0  0  0
   17.8680   -5.4040   52.5880 C   0  0  0  0  0  0
   14.4900   -4.0780   52.5680 C   0  0  0  0  0  0
   12.7880   -3.0890   54.0340 C   0  0  0  0  0  0
   15.0820   -2.1400   54.0060 C   0  0  0  0  0  0
   13.1620   -4.0530   53.0730 C   0  0  0  0  0  0
   14.8930   -1.5000   50.0740 C   0  0  0  0  0  0
   13.7350   -2.1430   54.4960 C   0  0  0  0  0  0
   14.3690   -0.1820   50.0430 C   0  0  0  0  0  0
   16.2670   -1.7390   49.7580 C   0  0  0  0  0  0
   15.4870   -3.1320   53.0130 C   0  0  0  0  0  0
   17.8840   -4.0440   53.2820 C   0  0  0  0  0  0
   17.6810   -5.0660   51.1140 C   0  0  0  0  0  0
   16.0250   -1.0880   54.5570 C   0  0  0  0  0  0
   17.0280   -3.6660   48.7170 O   0  0  0  0  0  0
   14.6890    2.1500   49.6810 O   0  0  0  0  0  0
   18.4180   -0.8030   49.0880 O   0  0  0  0  0  0
   17.2248    1.5144   49.0985 H   0  0  0  0  0  0
   17.1898   -2.0923   52.4391 H   0  0  0  0  0  0
   18.8196   -5.9228   52.7760 H   0  0  0  0  0  0
   17.0373   -6.0074   52.9827 H   0  0  0  0  0  0
   14.7630   -4.8292   51.8269 H   0  0  0  0  0  0
   11.7691   -3.0728   54.4209 H   0  0  0  0  0  0
   12.4310   -4.7793   52.7178 H   0  0  0  0  0  0
   14.2448   -2.3349   50.3401 H   0  0  0  0  0  0
   13.4341   -1.4034   55.2380 H   0  0  0  0  0  0
   13.3221   -0.0012   50.2866 H   0  0  0  0  0  0
   18.8907   -3.6006   53.2845 H   0  0  0  0  0  0
   17.5098   -4.1099   54.3143 H   0  0  0  0  0  0
   16.9871   -5.7717   50.6339 H   0  0  0  0  0  0
   18.6439   -5.0798   50.5824 H   0  0  0  0  0  0
   15.4900   -0.4618   55.2861 H   0  0  0  0  0  0
   16.3936   -0.4586   53.7336 H   0  0  0  0  0  0
   16.8755   -1.5806   55.0510 H   0  0  0  0  0  0
   15.3202    3.0103   49.4137 H   0  0  0  0  0  0
   19.0275    0.0725   48.8198 H   0  0  0  0  0  0
  1  5  1  0  0  0
  1  6  1  0  0  0
  1 18  1  0  0  0
  2  3  2  0  0  0
  2 14  1  0  0  0
  2 21  1  0  0  0
  3  4  1  0  0  0
  3 23  1  0  0  0
  4 15  2  0  0  0
  4 22  1  0  0  0
  5 15  1  0  0  0
  5 20  2  0  0  0
  6 16  1  0  0  0
  6 17  1  0  0  0
  6 24  1  0  0  0
  7 17  1  0  0  0
  7 18  1  0  0  0
  7 25  1  0  0  0
  7 26  1  0  0  0
  8 11  2  0  0  0
  8 16  1  0  0  0
  8 27  1  0  0  0
  9 11  1  0  0  0
  9 13  2  0  0  0
  9 28  1  0  0  0
 10 13  1  0  0  0
 10 16  2  0  0  0
 10 19  1  0  0  0
 11 29  1  0  0  0
 12 14  2  0  0  0
 12 15  1  0  0  0
 12 30  1  0  0  0
 13 31  1  0  0  0
 14 32  1  0  0  0
 17 33  1  0  0  0
 17 34  1  0  0  0
 18 35  1  0  0  0
 18 36  1  0  0  0
 19 37  1  0  0  0
 19 38  1  0  0  0
 19 39  1  0  0  0
 21 40  1  0  0  0
 22 41  1  0  0  0
M  END
> <s_m_source_file>
../3ekr_ligand.sdf

> <i_m_source_file_index>
1

> <s_epik_input>
W09IXWMxW2NIXWMoW09IXSljKFtjSF1bY0hdMSlDKD1PKU4yW0NASF0oW0NIMl1bQ0gyXVtDSDJdMiljM1tjSF1bY0hdW2NIXVtjSF1jM1tDSDNd

> <s_epik_cmdline>
J2VwaWtfYXBwJywgJy1pbWFlJywgJ2xpZ2FuZF9wcm8ubWFlJywgJy1vbWFlJywgJ2xpZ2FuZF9wcmVwLm1hZScsICctbXMnLCAnMScsICctcGgnLCAnNycsICctcGh0JywgJzAuNScsICctbnQn

> <r_lp_tautomer_probability>
0.999999999898

> <r_epik_Ionization_Penalty>
  0.1541

> <r_epik_Ionization_Penalty_Charging>
  0.0000

> <r_epik_Ionization_Penalty_Neutral>
  0.1541

> <r_epik_State_Penalty>
  0.1328

> <r_epik_Charging_Adjusted_Penalty>
0.132812260531159

> <i_epik_Tot_Q>
0

> <i_epik_Tot_abs_Q>
0

$$$$
