3eks_ligand
                    3D
 Schrodinger Suite 2020-3.
 74 77  0  0  1  0            999 V2000
  159.7530  -16.4910   31.3260 C   0  0  0  0  0  0
  157.0340  -14.9310   29.8150 C   0  0  1  0  0  0
  157.5720  -16.2730   30.3190 C   0  0  1  0  0  0
  158.6160  -16.8420   29.3530 C   0  0  2  0  0  0
  160.6910  -16.3750   32.1150 O   0  0  0  0  0  0
  158.1750  -13.9180   29.8910 C   0  0  0  0  0  0
  157.1910  -18.0370   26.6500 C   0  0  0  0  0  0
  156.1200  -18.1900   25.7780 C   0  0  0  0  0  0
  154.9140  -18.7000   26.2460 C   0  0  0  0  0  0
  154.7780  -19.0550   27.5830 C   0  0  0  0  0  0
  155.8490  -18.9020   28.4560 C   0  0  0  0  0  0
  157.0570  -18.3950   27.9880 C   0  0  0  0  0  0
  158.2550  -18.2670   28.9290 C   0  0  0  0  0  0
  159.9060  -16.8640   30.0590 N   0  0  0  0  0  0
  158.3000  -16.1490   31.6630 C   0  0  2  0  0  0
  156.5080  -15.0410   28.3820 C   0  0  0  0  0  0
  158.6530  -13.2530   28.7680 C   0  0  0  0  0  0
  158.8180  -13.7030   31.2600 C   0  0  1  0  0  0
  158.5050  -12.3810   31.7060 O   0  0  0  0  0  0
  158.2280  -14.7270   32.2330 C   0  0  2  0  0  0
  158.9940  -14.5870   33.5520 C   0  0  0  0  0  0
  158.3960  -13.9600   34.6390 C   0  0  0  0  0  0
  159.0790  -13.8060   35.8420 C   0  0  0  0  0  0
  158.8530  -14.9530   36.8280 C   0  0  2  0  0  0
  159.2980  -14.5540   38.2370 C   0  0  0  0  0  0
  159.6250  -16.2010   36.3920 C   0  0  0  0  0  0
  160.8520  -16.1800   36.3050 O   0  0  0  0  0  0
  158.8540  -17.4850   36.0850 C   0  0  1  0  0  0
  159.7870  -18.5200   35.7610 O   0  0  0  0  0  0
  158.0240  -17.8740   37.3100 C   0  0  0  0  0  0
  158.0210  -17.2360   35.0000 C   0  0  0  0  0  0
  158.4930  -17.4350   33.7080 C   0  0  0  0  0  0
  157.6790  -17.1820   32.6090 C   0  0  1  0  0  0
  156.3950  -16.7120   33.0430 O   0  0  0  0  0  0
  155.4260  -17.6380   32.8130 C   0  0  0  0  0  0
  154.1030  -17.3380   33.1180 C   0  0  0  0  0  0
  155.7080  -18.7260   32.3130 O   0  0  0  0  0  0
  156.1884  -14.6090   30.4406 H   0  0  0  0  0  0
  156.6853  -16.9176   30.4095 H   0  0  0  0  0  0
  158.6987  -16.2109   28.4559 H   0  0  0  0  0  0
  158.1369  -17.6362   26.2856 H   0  0  0  0  0  0
  156.2250  -17.9109   24.7296 H   0  0  0  0  0  0
  154.0734  -18.8217   25.5629 H   0  0  0  0  0  0
  153.8311  -19.4536   27.9471 H   0  0  0  0  0  0
  155.7425  -19.1787   29.5049 H   0  0  0  0  0  0
  159.1088  -18.7209   28.4047 H   0  0  0  0  0  0
  158.0123  -18.8644   29.8202 H   0  0  0  0  0  0
  160.8201  -17.1631   29.5252 H   0  0  0  0  0  0
  155.6884  -15.7738   28.3475 H   0  0  0  0  0  0
  157.3209  -15.3685   27.7172 H   0  0  0  0  0  0
  156.1367  -14.0598   28.0514 H   0  0  0  0  0  0
  158.1801  -13.4176   27.7886 H   0  0  0  0  0  0
  159.5042  -12.5621   28.8587 H   0  0  0  0  0  0
  159.9158  -13.7619   31.2245 H   0  0  0  0  0  0
  158.8487  -11.5100   31.1288 H   0  0  0  0  0  0
  157.1582  -14.5337   32.4008 H   0  0  0  0  0  0
  160.0168  -14.9823   33.6393 H   0  0  0  0  0  0
  157.3682  -13.5769   34.5560 H   0  0  0  0  0  0
  160.1599  -13.7511   35.6455 H   0  0  0  0  0  0
  158.7486  -12.8800   36.3353 H   0  0  0  0  0  0
  157.7758  -15.1755   36.8377 H   0  0  0  0  0  0
  158.7462  -13.6573   38.5556 H   0  0  0  0  0  0
  160.3767  -14.3388   38.2336 H   0  0  0  0  0  0
  159.0908  -15.3791   38.9343 H   0  0  0  0  0  0
  160.5261  -18.8474   36.5069 H   0  0  0  0  0  0
  158.6942  -18.0681   38.1604 H   0  0  0  0  0  0
  157.4432  -18.7810   37.0864 H   0  0  0  0  0  0
  157.3379  -17.0525   37.5639 H   0  0  0  0  0  0
  156.9918  -16.8827   35.1613 H   0  0  0  0  0  0
  159.5195  -17.7960   33.5470 H   0  0  0  0  0  0
  157.5594  -18.1718   32.1442 H   0  0  0  0  0  0
  154.0468  -16.3296   33.5539 H   0  0  0  0  0  0
  153.7179  -18.0720   33.8411 H   0  0  0  0  0  0
  153.4977  -17.3750   32.2003 H   0  0  0  0  0  0
  1  5  2  0  0  0
  1 14  1  0  0  0
  1 15  1  0  0  0
  2  3  1  0  0  0
  2  6  1  0  0  0
  2 16  1  0  0  0
  2 38  1  0  0  0
  3  4  1  0  0  0
  3 15  1  0  0  0
  3 39  1  0  0  0
  4 13  1  0  0  0
  4 14  1  0  0  0
  4 40  1  0  0  0
  6 17  2  0  0  0
  6 18  1  0  0  0
  7  8  2  0  0  0
  7 12  1  0  0  0
  7 41  1  0  0  0
  8  9  1  0  0  0
  8 42  1  0  0  0
  9 10  2  0  0  0
  9 43  1  0  0  0
 10 11  1  0  0  0
 10 44  1  0  0  0
 11 12  2  0  0  0
 11 45  1  0  0  0
 12 13  1  0  0  0
 13 46  1  0  0  0
 13 47  1  0  0  0
 14 48  1  0  0  0
 15 20  1  0  0  0
 15 33  1  0  0  0
 16 49  1  0  0  0
 16 50  1  0  0  0
 16 51  1  0  0  0
 17 52  1  0  0  0
 17 53  1  0  0  0
 18 19  1  0  0  0
 18 20  1  0  0  0
 18 54  1  0  0  0
 19 55  1  0  0  0
 20 21  1  0  0  0
 20 56  1  0  0  0
 21 22  2  0  0  0
 21 57  1  0  0  0
 22 23  1  0  0  0
 22 58  1  0  0  0
 23 24  1  0  0  0
 23 59  1  0  0  0
 23 60  1  0  0  0
 24 25  1  0  0  0
 24 26  1  0  0  0
 24 61  1  0  0  0
 25 62  1  0  0  0
 25 63  1  0  0  0
 25 64  1  0  0  0
 26 27  2  0  0  0
 26 28  1  0  0  0
 28 29  1  0  0  0
 28 30  1  0  0  0
 28 31  1  0  0  0
 29 65  1  0  0  0
 30 66  1  0  0  0
 30 67  1  0  0  0
 30 68  1  0  0  0
 31 32  2  0  0  0
 31 69  1  0  0  0
 32 33  1  0  0  0
 32 70  1  0  0  0
 33 34  1  0  0  0
 33 71  1  0  0  0
 34 35  1  0  0  0
 35 36  1  0  0  0
 35 37  2  0  0  0
 36 72  1  0  0  0
 36 73  1  0  0  0
 36 74  1  0  0  0
M  END
> <s_m_source_file>
../3eks_ligand.sdf

> <i_m_source_file_index>
1

> <s_epik_input>
W2NIXTFbY0hdW2NIXVtjSF1bY0hdYzFbQ0gyXVtDQEhdKFtOSF1DMj1PKVtDQEBIXShbQ0BAXTIzNClbQ0BIXShbQ0gzXSlDKD1bQ0gyXSlbQ0BASF0oW09IXSlbQ0BASF0zL1tDSF09W0NIXS9bQ0gyXVtDQEhdKFtDSDNdKUMoPU8pW0NAQF0oW09IXSkoW0NIM10pL1tDSF09W0NIXS9bQ0BIXTRPQyg9TylbQ0gzXQ==

> <s_epik_cmdline>
J2VwaWtfYXBwJywgJy1pbWFlJywgJ2xpZ2FuZF9wcm8ubWFlJywgJy1vbWFlJywgJ2xpZ2FuZF9wcmVwLm1hZScsICctbXMnLCAnMScsICctcGgnLCAnNycsICctcGh0JywgJzAuNScsICctbnQn

> <r_lp_tautomer_probability>
1

> <r_epik_Ionization_Penalty>
  0.0000

> <r_epik_Ionization_Penalty_Charging>
  0.0000

> <r_epik_Ionization_Penalty_Neutral>
  0.0000

> <r_epik_State_Penalty>
 -0.0000

> <r_epik_Charging_Adjusted_Penalty>
0

> <i_epik_Tot_Q>
0

> <i_epik_Tot_abs_Q>
0

> <s_epik_Chemistry_Notes>
This compound has an ester and may undergo hydrolysis at high or low pH.

$$$$
