3ekt_ligand
                    3D
 Schrodinger Suite 2020-3.
 75 78  0  0  1  0            999 V2000
   22.6540   48.8330  -11.0660 N   0  0  0  0  0  0
   22.3510   47.5880  -10.6590 C   0  0  0  0  0  0
   22.9330   47.1040   -9.4990 C   0  0  0  0  0  0
   22.6210   45.8270   -9.0890 C   0  0  0  0  0  0
   21.7140   45.0900   -9.8320 C   0  0  0  0  0  0
   21.1990   45.6770  -10.9790 C   0  0  0  0  0  0
   21.5180   46.8790  -11.3360 C   0  0  0  0  0  0
   21.2920   43.5830   -9.4290 S   0  0  0  0  0  0
   22.3600   42.8080   -8.8610 O   0  0  0  0  0  0
   20.8370   42.8890  -10.6090 O   0  0  0  0  0  0
   20.0570   43.5680   -8.3690 N   0  0  1  0  0  0
   20.2980   44.5140   -7.2800 C   0  0  0  0  0  0
   19.7790   43.9830   -5.9540 C   0  0  0  0  0  0
   20.2570   42.5660   -5.6930 C   0  0  0  0  0  0
   20.2370   44.9210   -4.8480 C   0  0  0  0  0  0
   18.7980   43.8890   -9.0340 C   0  0  0  0  0  0
   17.8270   42.7420   -8.7950 C   0  0  1  0  0  0
   16.5220   43.2360   -9.0850 O   0  0  0  0  0  0
   18.2170   41.5130   -9.6360 C   0  0  1  0  0  0
   17.4270   40.3960   -9.1660 N   0  0  0  0  0  0
   17.9650   39.3670   -8.4870 C   0  0  0  0  0  0
   19.1390   39.2940   -8.1710 O   0  0  0  0  0  0
   16.9840   38.3730   -8.0600 O   0  0  0  0  0  0
   17.2970   37.0180   -7.7810 C   0  0  1  0  0  0
   16.3440   36.6290   -6.6590 C   0  0  0  0  0  0
   15.1600   36.1190   -7.2910 O   0  0  0  0  0  0
   15.4650   35.7090   -8.6430 C   0  0  1  0  0  0
   14.6330   36.3590   -9.6290 O   0  0  0  0  0  0
   15.4230   37.0610  -10.5960 C   0  0  0  0  0  0
   16.8890   36.7350  -10.3120 C   0  0  0  0  0  0
   16.9030   36.1060   -8.9250 C   0  0  1  0  0  0
   17.9020   41.6420  -11.1230 C   0  0  0  0  0  0
   17.3240   39.6430  -12.5130 C   0  0  0  0  0  0
   17.6740   38.4590  -13.1580 C   0  0  0  0  0  0
   18.9940   38.0140  -13.1590 C   0  0  0  0  0  0
   19.9620   38.7430  -12.4730 C   0  0  0  0  0  0
   19.6090   39.9240  -11.8160 C   0  0  0  0  0  0
   18.2900   40.3700  -11.8310 C   0  0  0  0  0  0
   23.3659   49.4421  -10.4896 H   0  0  0  0  0  0
   22.1901   49.2425  -11.9754 H   0  0  0  0  0  0
   23.6231   47.7207   -8.9231 H   0  0  0  0  0  0
   23.0798   45.4037   -8.1954 H   0  0  0  0  0  0
   20.5049   45.1084  -11.5978 H   0  0  0  0  0  0
   21.0689   47.3022  -12.2345 H   0  0  0  0  0  0
   21.3788   44.6941   -7.1832 H   0  0  0  0  0  0
   19.7864   45.4629   -7.4986 H   0  0  0  0  0  0
   18.6801   43.9437   -5.9850 H   0  0  0  0  0  0
   19.9139   41.9079   -6.5049 H   0  0  0  0  0  0
   19.8474   42.2114   -4.7357 H   0  0  0  0  0  0
   21.3560   42.5520   -5.6493 H   0  0  0  0  0  0
   19.8791   45.9394   -5.0594 H   0  0  0  0  0  0
   21.3359   44.9213   -4.7992 H   0  0  0  0  0  0
   19.8273   44.5807   -3.8855 H   0  0  0  0  0  0
   18.3906   44.8218   -8.6171 H   0  0  0  0  0  0
   18.9748   44.0158  -10.1123 H   0  0  0  0  0  0
   17.7840   42.4255   -7.7424 H   0  0  0  0  0  0
   16.1333   44.1124   -8.5458 H   0  0  0  0  0  0
   19.2957   41.3391   -9.5090 H   0  0  0  0  0  0
   16.3447   40.3674   -9.3604 H   0  0  0  0  0  0
   18.3788   36.9828   -7.5848 H   0  0  0  0  0  0
   16.8151   35.8614   -6.0274 H   0  0  0  0  0  0
   16.1143   37.5152   -6.0492 H   0  0  0  0  0  0
   15.2428   34.6335   -8.7050 H   0  0  0  0  0  0
   15.1438   36.7303  -11.6073 H   0  0  0  0  0  0
   15.2434   38.1421  -10.5011 H   0  0  0  0  0  0
   17.2636   36.0361  -11.0744 H   0  0  0  0  0  0
   17.4826   37.6607  -10.3399 H   0  0  0  0  0  0
   17.6496   35.2987   -8.9525 H   0  0  0  0  0  0
   16.8248   41.8213  -11.2554 H   0  0  0  0  0  0
   18.4687   42.4845  -11.5461 H   0  0  0  0  0  0
   16.2938   39.9978  -12.5438 H   0  0  0  0  0  0
   16.9073   37.8749  -13.6670 H   0  0  0  0  0  0
   19.2668   37.1032  -13.6921 H   0  0  0  0  0  0
   20.9938   38.3925  -12.4488 H   0  0  0  0  0  0
   20.3700   40.4994  -11.2888 H   0  0  0  0  0  0
  1  2  1  0  0  0
  1 39  1  0  0  0
  1 40  1  0  0  0
  2  3  2  0  0  0
  2  7  1  0  0  0
  3  4  1  0  0  0
  3 41  1  0  0  0
  4  5  2  0  0  0
  4 42  1  0  0  0
  5  6  1  0  0  0
  5  8  1  0  0  0
  6  7  2  0  0  0
  6 43  1  0  0  0
  7 44  1  0  0  0
  8  9  2  0  0  0
  8 10  2  0  0  0
  8 11  1  0  0  0
 11 12  1  0  0  0
 11 16  1  0  0  0
 12 13  1  0  0  0
 12 45  1  0  0  0
 12 46  1  0  0  0
 13 14  1  0  0  0
 13 15  1  0  0  0
 13 47  1  0  0  0
 14 48  1  0  0  0
 14 49  1  0  0  0
 14 50  1  0  0  0
 15 51  1  0  0  0
 15 52  1  0  0  0
 15 53  1  0  0  0
 16 17  1  0  0  0
 16 54  1  0  0  0
 16 55  1  0  0  0
 17 18  1  0  0  0
 17 19  1  0  0  0
 17 56  1  0  0  0
 18 57  1  0  0  0
 19 20  1  0  0  0
 19 32  1  0  0  0
 19 58  1  0  0  0
 20 21  1  0  0  0
 20 59  1  0  0  0
 21 22  2  0  0  0
 21 23  1  0  0  0
 23 24  1  0  0  0
 24 25  1  0  0  0
 24 31  1  0  0  0
 24 60  1  0  0  0
 25 26  1  0  0  0
 25 61  1  0  0  0
 25 62  1  0  0  0
 26 27  1  0  0  0
 27 28  1  0  0  0
 27 31  1  0  0  0
 27 63  1  0  0  0
 28 29  1  0  0  0
 29 30  1  0  0  0
 29 64  1  0  0  0
 29 65  1  0  0  0
 30 31  1  0  0  0
 30 66  1  0  0  0
 30 67  1  0  0  0
 31 68  1  0  0  0
 32 38  1  0  0  0
 32 69  1  0  0  0
 32 70  1  0  0  0
 33 34  2  0  0  0
 33 38  1  0  0  0
 33 71  1  0  0  0
 34 35  1  0  0  0
 34 72  1  0  0  0
 35 36  2  0  0  0
 35 73  1  0  0  0
 36 37  1  0  0  0
 36 74  1  0  0  0
 37 38  2  0  0  0
 37 75  1  0  0  0
M  END
> <s_m_source_file>
../3ekt_ligand.sdf

> <i_m_source_file_index>
1

> <s_epik_input>
W05IMl1jMVtjSF1bY0hdYyhbY0hdW2NIXTEpUyg9TykoPU8pTihbQ0gyXVtDSF0oW0NIM10pW0NIM10pW0NIMl1bQ0BASF0oW09IXSlbQ0BASF0oW05IXUMoPU8pT1tDQEBIXShbQ0gyXU8yKVtDQEBIXShbQ0BASF0yMylbQ0gyXVtDSDJdTzMpW0NIMl1jNFtjSF1bY0hdW2NIXVtjSF1bY0hdNA==

> <s_epik_cmdline>
J2VwaWtfYXBwJywgJy1pbWFlJywgJ2xpZ2FuZF9wcm8ubWFlJywgJy1vbWFlJywgJ2xpZ2FuZF9wcmVwLm1hZScsICctbXMnLCAnMScsICctcGgnLCAnNycsICctcGh0JywgJzAuNScsICctbnQn

> <r_lp_tautomer_probability>
1

> <r_epik_Ionization_Penalty>
  0.0000

> <r_epik_Ionization_Penalty_Charging>
  0.0000

> <r_epik_Ionization_Penalty_Neutral>
  0.0000

> <r_epik_State_Penalty>
 -0.0000

> <r_epik_Charging_Adjusted_Penalty>
0

> <i_epik_Tot_Q>
0

> <i_epik_Tot_abs_Q>
0

> <s_epik_Chemistry_Notes>
This compound has an ester and may undergo hydrolysis at high or low pH. This compound contains an acetal/aminal-like group ( X-CH(R)-Y where X, Y are N, S, or O) that may be acid/base labile, releasing an aldehyde.

$$$$
