3ekv_ligand
                    3D
 Schrodinger Suite 2020-3.
 70 72  0  0  1  0            999 V2000
   23.4000   25.8700   10.7830 C   0  0  0  0  0  0
   24.4520   27.7830   11.7810 C   0  0  0  0  0  0
   21.4400   28.2740   12.7340 C   0  0  0  0  0  0
   23.1200   27.2820   11.2620 C   0  0  2  0  0  0
   19.5870   28.8070   14.2580 C   0  0  2  0  0  0
   19.9690   29.1940   15.6810 C   0  0  1  0  0  0
   18.2760   28.0360   14.1060 C   0  0  0  0  0  0
   18.0450   27.6520   12.6600 C   0  0  0  0  0  0
   18.4240   26.3950   12.1820 C   0  0  0  0  0  0
   17.4570   28.5580   11.7890 C   0  0  0  0  0  0
   18.2320   26.0650   10.8410 C   0  0  0  0  0  0
   17.2640   28.2280   10.4520 C   0  0  0  0  0  0
   17.6400   26.9730    9.9760 C   0  0  0  0  0  0
   19.0380   30.2540   16.2520 C   0  0  0  0  0  0
   20.1020   32.4520   16.4680 C   0  0  0  0  0  0
   21.6130   32.2010   16.4280 C   0  0  0  0  0  0
   17.1060   33.0120   15.7110 C   0  0  0  0  0  0
   16.0720   32.3350   16.3650 C   0  0  0  0  0  0
   15.1760   32.9770   17.2100 C   0  0  0  0  0  0
   15.2810   34.3520   17.3990 C   0  0  0  0  0  0
   16.2840   35.0510   16.7400 C   0  0  0  0  0  0
   17.1860   34.3810   15.9070 C   0  0  0  0  0  0
   22.2520   32.2430   15.0420 C   0  0  0  0  0  0
   22.3240   33.2540   17.2740 C   0  0  0  0  0  0
   25.2870   26.5250   11.9820 C   0  0  0  0  0  0
   20.6520   27.9610   13.7600 N   0  0  0  0  0  0
   19.3690   31.5270   15.5820 N   0  0  2  0  0  0
   14.4000   34.9810   18.2110 N   0  0  0  0  0  0
   22.2460   27.1400   12.3730 O   0  0  0  0  0  0
   21.4990   29.3460   12.1360 O   0  0  0  0  0  0
   19.9580   28.0360   16.5280 O   0  0  0  0  0  0
   17.4210   31.1750   14.0660 O   0  0  0  0  0  0
   18.7150   33.0920   13.7920 O   0  0  0  0  0  0
   24.4480   25.4180   11.6380 O   0  0  0  0  0  0
   18.1350   32.1960   14.7720 S   0  0  0  0  0  0
   22.4897   25.2609   10.8850 H   0  0  0  0  0  0
   23.7078   25.8952    9.7273 H   0  0  0  0  0  0
   24.9036   28.4588   11.0398 H   0  0  0  0  0  0
   24.2970   28.3255   12.7253 H   0  0  0  0  0  0
   22.6496   27.9532   10.5284 H   0  0  0  0  0  0
   19.4845   29.7343   13.6752 H   0  0  0  0  0  0
   21.0019   29.5724   15.6849 H   0  0  0  0  0  0
   18.3163   27.1206   14.7146 H   0  0  0  0  0  0
   17.4394   28.6648   14.4446 H   0  0  0  0  0  0
   18.8718   25.6690   12.8606 H   0  0  0  0  0  0
   17.1440   29.5357   12.1555 H   0  0  0  0  0  0
   18.5484   25.0897   10.4712 H   0  0  0  0  0  0
   16.8167   28.9540    9.7731 H   0  0  0  0  0  0
   17.4701   26.7075    8.9326 H   0  0  0  0  0  0
   17.9939   29.9706   16.0531 H   0  0  0  0  0  0
   19.1957   30.3342   17.3377 H   0  0  0  0  0  0
   19.7339   32.3108   17.4949 H   0  0  0  0  0  0
   19.8925   33.4814   16.1417 H   0  0  0  0  0  0
   21.7356   31.1763   16.8087 H   0  0  0  0  0  0
   15.9650   31.2621   16.2055 H   0  0  0  0  0  0
   14.3979   32.4094   17.7204 H   0  0  0  0  0  0
   16.3689   36.1295   16.8729 H   0  0  0  0  0  0
   17.9680   34.9478   15.4017 H   0  0  0  0  0  0
   21.7697   31.4971   14.3931 H   0  0  0  0  0  0
   23.3252   32.0167   15.1260 H   0  0  0  0  0  0
   22.1215   33.2454   14.6083 H   0  0  0  0  0  0
   21.8954   33.2610   18.2870 H   0  0  0  0  0  0
   22.1926   34.2443   16.8134 H   0  0  0  0  0  0
   23.3963   33.0155   17.3311 H   0  0  0  0  0  0
   26.1718   26.5641   11.3296 H   0  0  0  0  0  0
   25.6083   26.4621   13.0321 H   0  0  0  0  0  0
   20.8511   26.9897   14.2363 H   0  0  0  0  0  0
   13.6145   34.4047   18.7217 H   0  0  0  0  0  0
   14.4694   36.0686   18.3604 H   0  0  0  0  0  0
   20.5751   27.1619   16.2726 H   0  0  0  0  0  0
  1  4  1  0  0  0
  1 34  1  0  0  0
  1 36  1  0  0  0
  1 37  1  0  0  0
  2  4  1  0  0  0
  2 25  1  0  0  0
  2 38  1  0  0  0
  2 39  1  0  0  0
  3 26  1  0  0  0
  3 29  1  0  0  0
  3 30  2  0  0  0
  4 29  1  0  0  0
  4 40  1  0  0  0
  5  6  1  0  0  0
  5  7  1  0  0  0
  5 26  1  0  0  0
  5 41  1  0  0  0
  6 14  1  0  0  0
  6 31  1  0  0  0
  6 42  1  0  0  0
  7  8  1  0  0  0
  7 43  1  0  0  0
  7 44  1  0  0  0
  8  9  2  0  0  0
  8 10  1  0  0  0
  9 11  1  0  0  0
  9 45  1  0  0  0
 10 12  2  0  0  0
 10 46  1  0  0  0
 11 13  2  0  0  0
 11 47  1  0  0  0
 12 13  1  0  0  0
 12 48  1  0  0  0
 13 49  1  0  0  0
 14 27  1  0  0  0
 14 50  1  0  0  0
 14 51  1  0  0  0
 15 16  1  0  0  0
 15 27  1  0  0  0
 15 52  1  0  0  0
 15 53  1  0  0  0
 16 23  1  0  0  0
 16 24  1  0  0  0
 16 54  1  0  0  0
 17 18  2  0  0  0
 17 22  1  0  0  0
 17 35  1  0  0  0
 18 19  1  0  0  0
 18 55  1  0  0  0
 19 20  2  0  0  0
 19 56  1  0  0  0
 20 21  1  0  0  0
 20 28  1  0  0  0
 21 22  2  0  0  0
 21 57  1  0  0  0
 22 58  1  0  0  0
 23 59  1  0  0  0
 23 60  1  0  0  0
 23 61  1  0  0  0
 24 62  1  0  0  0
 24 63  1  0  0  0
 24 64  1  0  0  0
 25 34  1  0  0  0
 25 65  1  0  0  0
 25 66  1  0  0  0
 26 67  1  0  0  0
 27 35  1  0  0  0
 28 68  1  0  0  0
 28 69  1  0  0  0
 31 70  1  0  0  0
 32 35  2  0  0  0
 33 35  2  0  0  0
M  END
> <s_m_source_file>
../3ekv_ligand.sdf

> <i_m_source_file_index>
1

> <s_epik_input>
W0NIMl0xW0NIMl1PW0NIMl1bQ0BIXTFPQyg9TylbTkhdW0NAQEhdKFtDSDJdYzJbY0hdW2NIXVtjSF1bY0hdW2NIXTIpW0NASF0oW09IXSlbQ0gyXU4oW0NIMl1bQ0hdKFtDSDNdKVtDSDNdKVMoPU8pKD1PKWMzW2NIXVtjSF1jKFtOSDJdKVtjSF1bY0hdMw==

> <s_epik_cmdline>
J2VwaWtfYXBwJywgJy1pbWFlJywgJ2xpZ2FuZF9wcm8ubWFlJywgJy1vbWFlJywgJ2xpZ2FuZF9wcmVwLm1hZScsICctbXMnLCAnMScsICctcGgnLCAnNycsICctcGh0JywgJzAuNScsICctbnQn

> <r_lp_tautomer_probability>
1

> <r_epik_Ionization_Penalty>
  0.0000

> <r_epik_Ionization_Penalty_Charging>
  0.0000

> <r_epik_Ionization_Penalty_Neutral>
  0.0000

> <r_epik_State_Penalty>
 -0.0000

> <r_epik_Charging_Adjusted_Penalty>
0

> <i_epik_Tot_Q>
0

> <i_epik_Tot_abs_Q>
0

> <s_epik_Chemistry_Notes>
This compound has an ester and may undergo hydrolysis at high or low pH.

$$$$
