3ekw_ligand
                    3D
 Schrodinger Suite 2020-3.
103105  0  0  1  0            999 V2000
   19.3190   -7.8330   12.8360 C   0  0  0  0  0  0
   18.9930   -7.1120   14.0200 O   0  0  0  0  0  0
   18.4750   -5.7640   13.9370 C   0  0  0  0  0  0
   18.2640   -5.2580   12.8500 O   0  0  0  0  0  0
   18.3000   -5.1930   15.1260 N   0  0  0  0  0  0
   17.8120   -3.8430   15.3150 C   0  0  1  0  0  0
   16.3850   -3.9150   15.8650 C   0  0  0  0  0  0
   15.8930   -2.4910   16.1470 C   0  0  0  0  0  0
   16.2240   -4.7700   17.1100 C   0  0  0  0  0  0
   15.5180   -4.5440   14.7740 C   0  0  0  0  0  0
   18.7900   -3.0730   16.1490 C   0  0  0  0  0  0
   18.7930   -3.2150   17.3560 O   0  0  0  0  0  0
   19.6300   -2.2900   15.4630 N   0  0  0  0  0  0
   20.6820   -1.4960   16.1010 C   0  0  1  0  0  0
   22.0030   -1.9820   15.5050 C   0  0  0  0  0  0
   22.1500   -3.4810   15.6440 C   0  0  0  0  0  0
   22.0360   -4.3080   14.5320 C   0  0  0  0  0  0
   22.1670   -5.6920   14.6890 C   0  0  0  0  0  0
   22.4000   -6.2290   15.9540 C   0  0  0  0  0  0
   22.5300   -5.3930   17.0510 C   0  0  0  0  0  0
   22.4000   -4.0170   16.8930 C   0  0  0  0  0  0
   20.4870    0.0090   15.8510 C   0  0  1  0  0  0
   20.2750    0.2930   14.4800 O   0  0  0  0  0  0
   19.3260    0.6010   16.6560 C   0  0  0  0  0  0
   19.6860    0.5800   18.0650 N   0  0  1  0  0  0
   20.6860    1.4000   18.3750 N   0  0  0  0  0  0
   21.5100    1.1170   19.3700 C   0  0  0  0  0  0
   21.4140    0.1240   20.0760 O   0  0  0  0  0  0
   22.5720    2.1520   19.6150 C   0  0  2  0  0  0
   23.9900    1.5960   19.8000 C   0  0  0  0  0  0
   24.9350    2.7980   19.8040 C   0  0  0  0  0  0
   24.2910    0.7100   18.5990 C   0  0  0  0  0  0
   24.1930    0.8520   21.1160 C   0  0  0  0  0  0
   22.1420    2.9100   20.7580 N   0  0  0  0  0  0
   22.0020    4.2300   20.7810 C   0  0  0  0  0  0
   22.2160    5.0000   19.8530 O   0  0  0  0  0  0
   21.5540    4.7060   22.0670 O   0  0  0  0  0  0
   21.2360    6.0960   22.1590 C   0  0  0  0  0  0
   18.5180    0.6790   18.9270 C   0  0  0  0  0  0
   18.2600    2.0190   19.5800 C   0  0  0  0  0  0
   18.2730    1.9910   20.9090 C   0  0  0  0  0  0
   18.0480    3.1120   21.5590 C   0  0  0  0  0  0
   18.0210    3.1160   18.9970 C   0  0  0  0  0  0
   17.8060    4.1380   19.5900 C   0  0  0  0  0  0
   17.8200    4.2250   20.8540 C   0  0  0  0  0  0
   17.5210    5.4710   21.6480 C   0  0  0  0  0  0
   18.0060    5.6400   22.9470 C   0  0  0  0  0  0
   17.6850    6.7810   23.6650 C   0  0  0  0  0  0
   16.8570    7.7300   23.0840 C   0  0  0  0  0  0
   16.3730    7.5190   21.8000 C   0  0  0  0  0  0
   16.6990    6.4090   21.1180 N   0  0  0  0  0  0
   19.6942   -8.8311   13.1061 H   0  0  0  0  0  0
   20.0944   -7.2887   12.2770 H   0  0  0  0  0  0
   18.4202   -7.9361   12.2103 H   0  0  0  0  0  0
   18.5517   -5.8140   15.9983 H   0  0  0  0  0  0
   17.7805   -3.3164   14.3498 H   0  0  0  0  0  0
   16.5156   -2.0367   16.9318 H   0  0  0  0  0  0
   14.8461   -2.5246   16.4830 H   0  0  0  0  0  0
   15.9642   -1.8899   15.2285 H   0  0  0  0  0  0
   16.8340   -4.3511   17.9239 H   0  0  0  0  0  0
   16.5549   -5.7968   16.8949 H   0  0  0  0  0  0
   15.1666   -4.7813   17.4128 H   0  0  0  0  0  0
   15.6054   -3.9533   13.8502 H   0  0  0  0  0  0
   14.4683   -4.5579   15.1024 H   0  0  0  0  0  0
   15.8566   -5.5733   14.5846 H   0  0  0  0  0  0
   19.5034   -2.2590   14.3707 H   0  0  0  0  0  0
   20.6278   -1.6607   17.1873 H   0  0  0  0  0  0
   22.0398   -1.7244   14.4362 H   0  0  0  0  0  0
   22.8412   -1.4982   16.0279 H   0  0  0  0  0  0
   21.8463   -3.8818   13.5469 H   0  0  0  0  0  0
   22.0870   -6.3495   13.8233 H   0  0  0  0  0  0
   22.4801   -7.3087   16.0803 H   0  0  0  0  0  0
   22.7338   -5.8126   18.0361 H   0  0  0  0  0  0
   22.4956   -3.3595   17.7571 H   0  0  0  0  0  0
   21.4313    0.5132   16.1043 H   0  0  0  0  0  0
   21.0020   -0.0490   13.7287 H   0  0  0  0  0  0
   19.1436    1.6355   16.3298 H   0  0  0  0  0  0
   18.4203   -0.0009   16.4902 H   0  0  0  0  0  0
   20.8356    2.3265   17.8012 H   0  0  0  0  0  0
   22.6315    2.8217   18.7444 H   0  0  0  0  0  0
   24.8162    3.3609   18.8665 H   0  0  0  0  0  0
   25.9739    2.4473   19.8920 H   0  0  0  0  0  0
   24.6948    3.4504   20.6564 H   0  0  0  0  0  0
   24.1331    1.2819   17.6727 H   0  0  0  0  0  0
   23.6211   -0.1625   18.6099 H   0  0  0  0  0  0
   25.3362    0.3704   18.6467 H   0  0  0  0  0  0
   23.9660    1.5246   21.9563 H   0  0  0  0  0  0
   25.2372    0.5139   21.1887 H   0  0  0  0  0  0
   23.5222   -0.0190   21.1520 H   0  0  0  0  0  0
   21.9021    2.3958   21.7004 H   0  0  0  0  0  0
   20.9098    6.3305   23.1830 H   0  0  0  0  0  0
   20.4271    6.3346   21.4528 H   0  0  0  0  0  0
   22.1263    6.6929   21.9121 H   0  0  0  0  0  0
   17.6124    0.4540   18.3446 H   0  0  0  0  0  0
   18.6104   -0.0406   19.7538 H   0  0  0  0  0  0
   18.4653    1.0624   21.4465 H   0  0  0  0  0  0
   18.0474    3.1333   22.6488 H   0  0  0  0  0  0
   18.0097    3.1345   17.9072 H   0  0  0  0  0  0
   17.5879    5.0359   19.0118 H   0  0  0  0  0  0
   18.6376    4.8737   23.3964 H   0  0  0  0  0  0
   18.0772    6.9304   24.6710 H   0  0  0  0  0  0
   16.5886    8.6338   23.6309 H   0  0  0  0  0  0
   15.7214    8.2622   21.3405 H   0  0  0  0  0  0
  1  2  1  0  0  0
  1 52  1  0  0  0
  1 53  1  0  0  0
  1 54  1  0  0  0
  2  3  1  0  0  0
  3  4  2  0  0  0
  3  5  1  0  0  0
  5  6  1  0  0  0
  5 55  1  0  0  0
  6  7  1  0  0  0
  6 11  1  0  0  0
  6 56  1  0  0  0
  7  8  1  0  0  0
  7  9  1  0  0  0
  7 10  1  0  0  0
  8 57  1  0  0  0
  8 58  1  0  0  0
  8 59  1  0  0  0
  9 60  1  0  0  0
  9 61  1  0  0  0
  9 62  1  0  0  0
 10 63  1  0  0  0
 10 64  1  0  0  0
 10 65  1  0  0  0
 11 12  2  0  0  0
 11 13  1  0  0  0
 13 14  1  0  0  0
 13 66  1  0  0  0
 14 15  1  0  0  0
 14 22  1  0  0  0
 14 67  1  0  0  0
 15 16  1  0  0  0
 15 68  1  0  0  0
 15 69  1  0  0  0
 16 17  2  0  0  0
 16 21  1  0  0  0
 17 18  1  0  0  0
 17 70  1  0  0  0
 18 19  2  0  0  0
 18 71  1  0  0  0
 19 20  1  0  0  0
 19 72  1  0  0  0
 20 21  2  0  0  0
 20 73  1  0  0  0
 21 74  1  0  0  0
 22 23  1  0  0  0
 22 24  1  0  0  0
 22 75  1  0  0  0
 23 76  1  0  0  0
 24 25  1  0  0  0
 24 77  1  0  0  0
 24 78  1  0  0  0
 25 26  1  0  0  0
 25 39  1  0  0  0
 26 27  1  0  0  0
 26 79  1  0  0  0
 27 28  2  0  0  0
 27 29  1  0  0  0
 29 30  1  0  0  0
 29 34  1  0  0  0
 29 80  1  0  0  0
 30 31  1  0  0  0
 30 32  1  0  0  0
 30 33  1  0  0  0
 31 81  1  0  0  0
 31 82  1  0  0  0
 31 83  1  0  0  0
 32 84  1  0  0  0
 32 85  1  0  0  0
 32 86  1  0  0  0
 33 87  1  0  0  0
 33 88  1  0  0  0
 33 89  1  0  0  0
 34 35  1  0  0  0
 34 90  1  0  0  0
 35 36  2  0  0  0
 35 37  1  0  0  0
 37 38  1  0  0  0
 38 91  1  0  0  0
 38 92  1  0  0  0
 38 93  1  0  0  0
 39 40  1  0  0  0
 39 94  1  0  0  0
 39 95  1  0  0  0
 40 41  2  0  0  0
 40 43  1  0  0  0
 41 42  1  0  0  0
 41 96  1  0  0  0
 42 45  2  0  0  0
 42 97  1  0  0  0
 43 44  2  0  0  0
 43 98  1  0  0  0
 44 45  1  0  0  0
 44 99  1  0  0  0
 45 46  1  0  0  0
 46 47  2  0  0  0
 46 51  1  0  0  0
 47 48  1  0  0  0
 47100  1  0  0  0
 48 49  2  0  0  0
 48101  1  0  0  0
 49 50  1  0  0  0
 49102  1  0  0  0
 50 51  2  0  0  0
 50103  1  0  0  0
M  END
> <s_m_source_file>
../3ekw_ligand.sdf

> <i_m_source_file_index>
1

> <s_epik_input>
W0NIM11PQyg9TylbTkhdW0NAQEhdKEMoW0NIM10pKFtDSDNdKVtDSDNdKUMoPU8pW05IXVtDQEBIXShbQ0gyXWMxW2NIXVtjSF1bY0hdW2NIXVtjSF0xKVtDQEBIXShbT0hdKVtDSDJdW05AQEgrXShbTkhdQyg9TylbQ0BIXShDKFtDSDNdKShbQ0gzXSlbQ0gzXSlbTkhdQyg9TylPW0NIM10pW0NIMl1jMltjSF1bY0hdYyhbY0hdW2NIXTIpLWMzW2NIXVtjSF1bY0hdW2NIXW4z

> <s_epik_cmdline>
J2VwaWtfYXBwJywgJy1pbWFlJywgJ2xpZ2FuZF9wcm8ubWFlJywgJy1vbWFlJywgJ2xpZ2FuZF9wcmVwLm1hZScsICctbXMnLCAnMScsICctcGgnLCAnNycsICctcGh0JywgJzAuNScsICctbnQn

> <r_epik_Ionization_Penalty>
  0.0101

> <r_epik_Ionization_Penalty_Charging>
  0.0000

> <r_epik_Ionization_Penalty_Neutral>
  0.0101

> <r_epik_State_Penalty>
  0.0077

> <r_epik_Charging_Adjusted_Penalty>
0.0077056098726133

> <i_epik_Tot_Q>
0

> <i_epik_Tot_abs_Q>
0

> <s_epik_Chemistry_Notes>
This compound has an ester and may undergo hydrolysis at high or low pH.

$$$$
