3ekx_ligand
                    3D
 Schrodinger Suite 2020-3.
 86 89  0  0  1  0            999 V2000
   17.6520   27.4490   12.7990 C   0  0  2  0  0  0
   18.3740   26.8110   11.6210 C   0  0  1  0  0  0
   17.5420   26.7500   10.3450 C   0  0  0  0  0  0
   16.8880   28.0990   10.0830 C   0  0  0  0  0  0
   16.1660   28.5860   11.3310 C   0  0  0  0  0  0
   17.1240   28.8360   12.4940 C   0  0  0  0  0  0
   19.7000   28.3220   13.7270 N   0  3  1  0  0  0
   20.4650   27.6440   12.6890 C   0  0  1  0  0  0
   19.6630   27.5800   11.3870 C   0  0  0  0  0  0
   18.5190   27.5190   14.0440 C   0  0  0  0  0  0
   21.7100   28.3770   12.3210 C   0  0  0  0  0  0
   22.7420   27.5550   12.1370 N   0  0  0  0  0  0
   24.0630   27.9180   11.6750 C   0  0  0  0  0  0
   24.6920   28.7540   12.7890 C   0  0  0  0  0  0
   23.9610   28.6780   10.3500 C   0  0  0  0  0  0
   24.8630   26.6300   11.4480 C   0  0  0  0  0  0
   21.6810   29.5930   12.1850 O   0  0  0  0  0  0
   20.4270   28.3490   14.9830 C   0  0  0  0  0  0
   19.9360   29.5350   15.7930 C   0  0  2  0  0  0
   20.5990   30.8460   15.3910 C   0  0  1  0  0  0
   20.2180   29.1920   17.1330 O   0  0  0  0  0  0
   19.8830   31.9160   16.0470 N   0  0  0  0  0  0
   22.0740   31.0060   15.7490 C   0  0  0  0  0  0
   18.8960   32.5950   15.4700 C   0  0  0  0  0  0
   18.5620   32.4850   14.3050 O   0  0  0  0  0  0
   18.1700   33.5500   16.3600 C   0  0  0  0  0  0
   18.9000   34.4270   17.1640 C   0  0  0  0  0  0
   18.2810   35.3300   18.0260 C   0  0  0  0  0  0
   16.8960   35.3930   18.1000 C   0  0  0  0  0  0
   16.1010   34.5470   17.3310 C   0  0  0  0  0  0
   16.6960   33.5600   16.4060 C   0  0  1  0  0  0
   14.7860   34.5830   17.4030 O   0  0  0  0  0  0
   15.7930   32.6670   15.5910 C   0  0  0  0  0  0
   22.7670   32.3280   14.8010 S   0  0  0  0  0  0
   22.6520   33.7870   15.6490 C   0  0  0  0  0  0
   22.4720   34.9430   14.9010 C   0  0  0  0  0  0
   22.3600   36.1670   15.5410 C   0  0  0  0  0  0
   22.4490   36.2380   16.9250 C   0  0  0  0  0  0
   22.6340   35.0800   17.6700 C   0  0  0  0  0  0
   22.7350   33.8470   17.0370 C   0  0  0  0  0  0
   16.7947   26.7872   12.9913 H   0  0  0  0  0  0
   18.5805   25.7620   11.8797 H   0  0  0  0  0  0
   18.1918   26.4925    9.4956 H   0  0  0  0  0  0
   16.7598   25.9843   10.4536 H   0  0  0  0  0  0
   17.6591   28.8324    9.8046 H   0  0  0  0  0  0
   16.1617   28.0013    9.2626 H   0  0  0  0  0  0
   15.6459   29.5295   11.1090 H   0  0  0  0  0  0
   15.4335   27.8297   11.6495 H   0  0  0  0  0  0
   16.6162   29.2387   13.3828 H   0  0  0  0  0  0
   17.9611   29.4949   12.2199 H   0  0  0  0  0  0
   19.4835   29.3341   13.3546 H   0  0  0  0  0  0
   20.6977   26.6707   13.1457 H   0  0  0  0  0  0
   20.2587   27.0709   10.6150 H   0  0  0  0  0  0
   19.4255   28.6008   11.0530 H   0  0  0  0  0  0
   17.9499   27.9861   14.8613 H   0  0  0  0  0  0
   18.8185   26.5028   14.3399 H   0  0  0  0  0  0
   22.5116   26.5061   12.3753 H   0  0  0  0  0  0
   24.1037   29.6718   12.9354 H   0  0  0  0  0  0
   25.7226   29.0195   12.5108 H   0  0  0  0  0  0
   24.7025   28.1723   13.7226 H   0  0  0  0  0  0
   23.3883   29.6047   10.5020 H   0  0  0  0  0  0
   23.4507   28.0496    9.6052 H   0  0  0  0  0  0
   24.9707   28.9257    9.9908 H   0  0  0  0  0  0
   24.9422   26.0759   12.3949 H   0  0  0  0  0  0
   25.8704   26.8831   11.0859 H   0  0  0  0  0  0
   24.3504   26.0069   10.7003 H   0  0  0  0  0  0
   20.2430   27.4145   15.5333 H   0  0  0  0  0  0
   21.5037   28.4499   14.7814 H   0  0  0  0  0  0
   18.8527   29.6995   15.6964 H   0  0  0  0  0  0
   20.5247   30.9087   14.2953 H   0  0  0  0  0  0
   19.8046   28.2677   17.5628 H   0  0  0  0  0  0
   20.1464   32.2046   17.0753 H   0  0  0  0  0  0
   22.1685   31.2334   16.8211 H   0  0  0  0  0  0
   22.6094   30.0719   15.5237 H   0  0  0  0  0  0
   19.9994   34.4191   17.1292 H   0  0  0  0  0  0
   18.8959   35.9952   18.6500 H   0  0  0  0  0  0
   16.4135   36.1178   18.7723 H   0  0  0  0  0  0
   16.7162   32.8144   17.2145 H   0  0  0  0  0  0
   16.4044   32.0014   14.9640 H   0  0  0  0  0  0
   15.1482   33.2853   14.9492 H   0  0  0  0  0  0
   15.1682   32.0634   16.2658 H   0  0  0  0  0  0
   22.4190   34.8878   13.8137 H   0  0  0  0  0  0
   22.2020   37.0743   14.9579 H   0  0  0  0  0  0
   22.3737   37.2026   17.4270 H   0  0  0  0  0  0
   22.7003   35.1389   18.7564 H   0  0  0  0  0  0
   22.8775   32.9376   17.6207 H   0  0  0  0  0  0
  1  2  1  0  0  0
  1  6  1  0  0  0
  1 10  1  0  0  0
  1 41  1  0  0  0
  2  3  1  0  0  0
  2  9  1  0  0  0
  2 42  1  0  0  0
  3  4  1  0  0  0
  3 43  1  0  0  0
  3 44  1  0  0  0
  4  5  1  0  0  0
  4 45  1  0  0  0
  4 46  1  0  0  0
  5  6  1  0  0  0
  5 47  1  0  0  0
  5 48  1  0  0  0
  6 49  1  0  0  0
  6 50  1  0  0  0
  7  8  1  0  0  0
  7 10  1  0  0  0
  7 18  1  0  0  0
  7 51  1  0  0  0
  8  9  1  0  0  0
  8 11  1  0  0  0
  8 52  1  0  0  0
  9 53  1  0  0  0
  9 54  1  0  0  0
 10 55  1  0  0  0
 10 56  1  0  0  0
 11 12  1  0  0  0
 11 17  2  0  0  0
 12 13  1  0  0  0
 12 57  1  0  0  0
 13 14  1  0  0  0
 13 15  1  0  0  0
 13 16  1  0  0  0
 14 58  1  0  0  0
 14 59  1  0  0  0
 14 60  1  0  0  0
 15 61  1  0  0  0
 15 62  1  0  0  0
 15 63  1  0  0  0
 16 64  1  0  0  0
 16 65  1  0  0  0
 16 66  1  0  0  0
 18 19  1  0  0  0
 18 67  1  0  0  0
 18 68  1  0  0  0
 19 20  1  0  0  0
 19 21  1  0  0  0
 19 69  1  0  0  0
 20 22  1  0  0  0
 20 23  1  0  0  0
 20 70  1  0  0  0
 21 71  1  0  0  0
 22 24  1  0  0  0
 22 72  1  0  0  0
 23 34  1  0  0  0
 23 73  1  0  0  0
 23 74  1  0  0  0
 24 25  2  0  0  0
 24 26  1  0  0  0
 26 27  2  0  0  0
 26 31  1  0  0  0
 27 28  1  0  0  0
 27 75  1  0  0  0
 28 29  2  0  0  0
 28 76  1  0  0  0
 29 30  1  0  0  0
 29 77  1  0  0  0
 30 31  1  0  0  0
 30 32  2  0  0  0
 31 33  1  0  0  0
 31 78  1  0  0  0
 33 79  1  0  0  0
 33 80  1  0  0  0
 33 81  1  0  0  0
 34 35  1  0  0  0
 35 36  2  0  0  0
 35 40  1  0  0  0
 36 37  1  0  0  0
 36 82  1  0  0  0
 37 38  2  0  0  0
 37 83  1  0  0  0
 38 39  1  0  0  0
 38 84  1  0  0  0
 39 40  2  0  0  0
 39 85  1  0  0  0
 40 86  1  0  0  0
M  CHG  1   7   1
M  END
> <s_m_source_file>
../3ekx_ligand.sdf

> <i_m_source_file_index>
1

> <s_epik_input>
W0NIMl0xW0NIMl1bQ0gyXVtDSDJdW0NASF0oW0NASF0xMilbQ0gyXVtDQEBIXShDKD1PKVtOSF1DKFtDSDNdKShbQ0gzXSlbQ0gzXSlbTkBASCtdKFtDSDJdMilbQ0gyXVtDQEBIXShbT0hdKVtDQEhdKFtDSDJdU2MzW2NIXVtjSF1bY0hdW2NIXVtjSF0zKVtOSF1DKD1PKUM0PVtDSF1bQ0hdPVtDSF1DKD1PKVtDSF00W0NIM10=

> <s_epik_cmdline>
J2VwaWtfYXBwJywgJy1pbWFlJywgJ2xpZ2FuZF9wcm8ubWFlJywgJy1vbWFlJywgJ2xpZ2FuZF9wcmVwLm1hZScsICctbXMnLCAnMScsICctcGgnLCAnNycsICctcGh0JywgJzAuNScsICctbnQn

> <r_lp_tautomer_probability>
7.51999999998018e-14

> <r_epik_Ionization_Penalty>
  0.0197

> <r_epik_Ionization_Penalty_Charging>
  0.0196

> <r_epik_Ionization_Penalty_Neutral>
  0.0000

> <r_epik_State_Penalty>
  0.0157

> <r_epik_Charging_Adjusted_Penalty>
0.0352951746834421

> <i_epik_Tot_Q>
1

> <i_epik_Tot_abs_Q>
1

$$$$
