3eky_ligand
                    3D
 Schrodinger Suite 2020-3.
103105  0  0  1  0            999 V2000
   20.7340   23.4750    9.2320 C   0  0  0  0  0  0
   21.0810   24.8530    9.3900 O   0  0  0  0  0  0
   21.5960   25.3580   10.6480 C   0  0  0  0  0  0
   21.8310   24.5800   11.5650 O   0  0  0  0  0  0
   21.8050   26.6660   10.7200 N   0  0  0  0  0  0
   22.3140   27.3330   11.9070 C   0  0  1  0  0  0
   23.7220   27.8930   11.6700 C   0  0  0  0  0  0
   24.7030   26.7280   11.5370 C   0  0  0  0  0  0
   23.8190   28.7630   10.4170 C   0  0  0  0  0  0
   24.1400   28.7380   12.8720 C   0  0  0  0  0  0
   21.2880   28.3430   12.3560 C   0  0  0  0  0  0
   21.1160   29.3870   11.7420 O   0  0  0  0  0  0
   20.5650   28.0520   13.4440 N   0  0  0  0  0  0
   19.5270   28.9070   14.0080 C   0  0  1  0  0  0
   18.2010   28.1830   13.7830 C   0  0  0  0  0  0
   17.9890   27.7590   12.3410 C   0  0  0  0  0  0
   17.4460   28.6400   11.4150 C   0  0  0  0  0  0
   17.2490   28.2370   10.0990 C   0  0  0  0  0  0
   17.5900   26.9490    9.6940 C   0  0  0  0  0  0
   18.1330   26.0610   10.6160 C   0  0  0  0  0  0
   18.3210   26.4710   11.9370 C   0  0  0  0  0  0
   19.7420   29.1900   15.5070 C   0  0  1  0  0  0
   19.9670   28.0220   16.2910 O   0  0  0  0  0  0
   20.9700   29.9990   15.8320 C   0  0  0  0  0  0
   20.8690   31.4120   15.4740 N   0  0  1  0  0  0
   19.8860   32.0270   16.1480 N   0  0  0  0  0  0
   18.9560   32.7770   15.5440 C   0  0  0  0  0  0
   18.9320   32.9270   14.3330 O   0  0  0  0  0  0
   17.9460   33.4790   16.4100 C   0  0  2  0  0  0
   16.5010   33.4390   15.9010 C   0  0  0  0  0  0
   16.2520   34.3140   14.6630 C   0  0  0  0  0  0
   16.1180   31.9950   15.5890 C   0  0  0  0  0  0
   15.6170   33.9250   17.0420 C   0  0  0  0  0  0
   18.3790   34.8660   16.5280 N   0  0  0  0  0  0
   18.5720   35.4530   17.6960 C   0  0  0  0  0  0
   18.4140   34.8850   18.7830 O   0  0  0  0  0  0
   19.0030   36.8360   17.6570 O   0  0  0  0  0  0
   19.1700   37.5880   18.8500 C   0  0  0  0  0  0
   22.1780   32.0110   15.8450 C   0  0  0  0  0  0
   22.1500   33.5280   15.8970 C   0  0  0  0  0  0
   22.2870   34.2970   14.7380 C   0  0  0  0  0  0
   22.2550   35.6910   14.8130 C   0  0  0  0  0  0
   21.9850   34.1750   17.1190 C   0  0  0  0  0  0
   21.9500   35.5680   17.1900 C   0  0  0  0  0  0
   22.0800   36.3400   16.0380 C   0  0  0  0  0  0
   22.0340   37.8410   16.1250 C   0  0  0  0  0  0
   21.3440   38.5810   15.1590 C   0  0  0  0  0  0
   21.3040   39.9710   15.2400 C   0  0  0  0  0  0
   21.9460   40.6140   16.2950 C   0  0  0  0  0  0
   22.6140   39.8450   17.2470 C   0  0  0  0  0  0
   22.6390   38.5000   17.1460 N   0  0  0  0  0  0
   20.3668   23.3043    8.2092 H   0  0  0  0  0  0
   19.9468   23.2101    9.9532 H   0  0  0  0  0  0
   21.6214   22.8505    9.4120 H   0  0  0  0  0  0
   21.5716   27.2507    9.8180 H   0  0  0  0  0  0
   22.4186   26.5889   12.7104 H   0  0  0  0  0  0
   24.4189   26.1060   10.6753 H   0  0  0  0  0  0
   24.6762   26.1197   12.4531 H   0  0  0  0  0  0
   25.7197   27.1201   11.3869 H   0  0  0  0  0  0
   23.5218   28.1733    9.5373 H   0  0  0  0  0  0
   24.8548   29.1116   10.2919 H   0  0  0  0  0  0
   23.1502   29.6302   10.5201 H   0  0  0  0  0  0
   24.0776   28.1304   13.7868 H   0  0  0  0  0  0
   23.4694   29.6054   12.9614 H   0  0  0  0  0  0
   25.1740   29.0867   12.7333 H   0  0  0  0  0  0
   20.8016   27.0882   13.9184 H   0  0  0  0  0  0
   19.5813   29.8705   13.4801 H   0  0  0  0  0  0
   18.1685   27.2759   14.4044 H   0  0  0  0  0  0
   17.3690   28.8471   14.0599 H   0  0  0  0  0  0
   17.1735   29.6501   11.7207 H   0  0  0  0  0  0
   16.8239   28.9353    9.3780 H   0  0  0  0  0  0
   17.4323   26.6390    8.6610 H   0  0  0  0  0  0
   18.4098   25.0523   10.3095 H   0  0  0  0  0  0
   18.7344   25.7706   12.6627 H   0  0  0  0  0  0
   18.8016   29.6777   15.8033 H   0  0  0  0  0  0
   19.2327   27.2031   16.2811 H   0  0  0  0  0  0
   21.1633   29.9535   16.9139 H   0  0  0  0  0  0
   21.8336   29.5893   15.2877 H   0  0  0  0  0  0
   19.8216   31.9252   17.2414 H   0  0  0  0  0  0
   17.9476   32.9768   17.3887 H   0  0  0  0  0  0
   16.8881   33.9675   13.8352 H   0  0  0  0  0  0
   16.4949   35.3606   14.8989 H   0  0  0  0  0  0
   15.1947   34.2404   14.3686 H   0  0  0  0  0  0
   16.7437   31.6194   14.7660 H   0  0  0  0  0  0
   15.0592   31.9521   15.2937 H   0  0  0  0  0  0
   16.2750   31.3728   16.4824 H   0  0  0  0  0  0
   15.8738   34.9662   17.2868 H   0  0  0  0  0  0
   15.7773   33.2902   17.9260 H   0  0  0  0  0  0
   14.5615   33.8695   16.7373 H   0  0  0  0  0  0
   18.5577   35.4653   15.6230 H   0  0  0  0  0  0
   19.4998   38.6067   18.5981 H   0  0  0  0  0  0
   19.9264   37.1043   19.4855 H   0  0  0  0  0  0
   18.2131   37.6355   19.3904 H   0  0  0  0  0  0
   22.4772   31.6506   16.8403 H   0  0  0  0  0  0
   22.9379   31.7185   15.1054 H   0  0  0  0  0  0
   22.4192   33.8074   13.7732 H   0  0  0  0  0  0
   22.3681   36.2810   13.9035 H   0  0  0  0  0  0
   21.8820   33.5864   18.0306 H   0  0  0  0  0  0
   21.8198   36.0565   18.1557 H   0  0  0  0  0  0
   20.8367   38.0689   14.3414 H   0  0  0  0  0  0
   20.7745   40.5505   14.4838 H   0  0  0  0  0  0
   21.9267   41.7009   16.3753 H   0  0  0  0  0  0
   23.1199   40.3343   18.0793 H   0  0  0  0  0  0
  1  2  1  0  0  0
  1 52  1  0  0  0
  1 53  1  0  0  0
  1 54  1  0  0  0
  2  3  1  0  0  0
  3  4  2  0  0  0
  3  5  1  0  0  0
  5  6  1  0  0  0
  5 55  1  0  0  0
  6  7  1  0  0  0
  6 11  1  0  0  0
  6 56  1  0  0  0
  7  8  1  0  0  0
  7  9  1  0  0  0
  7 10  1  0  0  0
  8 57  1  0  0  0
  8 58  1  0  0  0
  8 59  1  0  0  0
  9 60  1  0  0  0
  9 61  1  0  0  0
  9 62  1  0  0  0
 10 63  1  0  0  0
 10 64  1  0  0  0
 10 65  1  0  0  0
 11 12  2  0  0  0
 11 13  1  0  0  0
 13 14  1  0  0  0
 13 66  1  0  0  0
 14 15  1  0  0  0
 14 22  1  0  0  0
 14 67  1  0  0  0
 15 16  1  0  0  0
 15 68  1  0  0  0
 15 69  1  0  0  0
 16 17  2  0  0  0
 16 21  1  0  0  0
 17 18  1  0  0  0
 17 70  1  0  0  0
 18 19  2  0  0  0
 18 71  1  0  0  0
 19 20  1  0  0  0
 19 72  1  0  0  0
 20 21  2  0  0  0
 20 73  1  0  0  0
 21 74  1  0  0  0
 22 23  1  0  0  0
 22 24  1  0  0  0
 22 75  1  0  0  0
 23 76  1  0  0  0
 24 25  1  0  0  0
 24 77  1  0  0  0
 24 78  1  0  0  0
 25 26  1  0  0  0
 25 39  1  0  0  0
 26 27  1  0  0  0
 26 79  1  0  0  0
 27 28  2  0  0  0
 27 29  1  0  0  0
 29 30  1  0  0  0
 29 34  1  0  0  0
 29 80  1  0  0  0
 30 31  1  0  0  0
 30 32  1  0  0  0
 30 33  1  0  0  0
 31 81  1  0  0  0
 31 82  1  0  0  0
 31 83  1  0  0  0
 32 84  1  0  0  0
 32 85  1  0  0  0
 32 86  1  0  0  0
 33 87  1  0  0  0
 33 88  1  0  0  0
 33 89  1  0  0  0
 34 35  1  0  0  0
 34 90  1  0  0  0
 35 36  2  0  0  0
 35 37  1  0  0  0
 37 38  1  0  0  0
 38 91  1  0  0  0
 38 92  1  0  0  0
 38 93  1  0  0  0
 39 40  1  0  0  0
 39 94  1  0  0  0
 39 95  1  0  0  0
 40 41  2  0  0  0
 40 43  1  0  0  0
 41 42  1  0  0  0
 41 96  1  0  0  0
 42 45  2  0  0  0
 42 97  1  0  0  0
 43 44  2  0  0  0
 43 98  1  0  0  0
 44 45  1  0  0  0
 44 99  1  0  0  0
 45 46  1  0  0  0
 46 47  2  0  0  0
 46 51  1  0  0  0
 47 48  1  0  0  0
 47100  1  0  0  0
 48 49  2  0  0  0
 48101  1  0  0  0
 49 50  1  0  0  0
 49102  1  0  0  0
 50 51  2  0  0  0
 50103  1  0  0  0
M  END
> <s_m_source_file>
../3eky_ligand.sdf

> <i_m_source_file_index>
1

> <s_epik_input>
W0NIM11PQyg9TylbTkhdW0NAQEhdKEMoW0NIM10pKFtDSDNdKVtDSDNdKUMoPU8pW05IXVtDQEBIXShbQ0gyXWMxW2NIXVtjSF1bY0hdW2NIXVtjSF0xKVtDQEBIXShbT0hdKVtDSDJdW05AQEgrXShbTkhdQyg9TylbQ0BIXShDKFtDSDNdKShbQ0gzXSlbQ0gzXSlbTkhdQyg9TylPW0NIM10pW0NIMl1jMltjSF1bY0hdYyhbY0hdW2NIXTIpLWMzW2NIXVtjSF1bY0hdW2NIXW4z

> <s_epik_cmdline>
J2VwaWtfYXBwJywgJy1pbWFlJywgJ2xpZ2FuZF9wcm8ubWFlJywgJy1vbWFlJywgJ2xpZ2FuZF9wcmVwLm1hZScsICctbXMnLCAnMScsICctcGgnLCAnNycsICctcGh0JywgJzAuNScsICctbnQn

> <r_epik_Ionization_Penalty>
  0.0101

> <r_epik_Ionization_Penalty_Charging>
  0.0000

> <r_epik_Ionization_Penalty_Neutral>
  0.0101

> <r_epik_State_Penalty>
  0.0077

> <r_epik_Charging_Adjusted_Penalty>
0.0077056098726133

> <i_epik_Tot_Q>
0

> <i_epik_Tot_abs_Q>
0

> <s_epik_Chemistry_Notes>
This compound has an ester and may undergo hydrolysis at high or low pH.

$$$$
