3el1_ligand
                    3D
 Schrodinger Suite 2020-3.
103105  0  0  1  0            999 V2000
   21.4750   24.0530    8.9880 C   0  0  0  0  0  0
   21.1020   25.3620    9.4340 O   0  0  0  0  0  0
   21.6540   25.9040   10.6610 C   0  0  0  0  0  0
   21.8660   25.1620   11.6120 O   0  0  0  0  0  0
   21.8790   27.2110   10.5900 N   0  0  0  0  0  0
   22.4320   28.1380   11.5540 C   0  0  1  0  0  0
   23.9300   28.2660   11.7700 C   0  0  0  0  0  0
   24.4310   29.2030   10.6690 C   0  0  0  0  0  0
   24.6550   26.9290   11.6700 C   0  0  0  0  0  0
   24.2500   28.9120   13.1160 C   0  0  0  0  0  0
   21.4950   29.1090   12.2540 C   0  0  0  0  0  0
   21.3450   30.2100   11.7620 O   0  0  0  0  0  0
   20.8200   28.6540   13.3250 N   0  0  0  0  0  0
   19.6970   29.3480   13.9410 C   0  0  1  0  0  0
   18.4470   28.4750   13.8000 C   0  0  0  0  0  0
   18.1730   28.1730   12.3410 C   0  0  0  0  0  0
   18.5630   26.9530   11.7940 C   0  0  0  0  0  0
   18.3150   26.6700   10.4520 C   0  0  0  0  0  0
   17.6650   27.6040    9.6530 C   0  0  0  0  0  0
   17.2720   28.8230   10.1950 C   0  0  0  0  0  0
   17.5190   29.1060   11.5380 C   0  0  0  0  0  0
   19.9610   29.6870   15.4110 C   0  0  1  0  0  0
   20.2070   28.4870   16.1560 O   0  0  0  0  0  0
   21.1580   30.5960   15.6350 C   0  0  0  0  0  0
   20.9710   31.9840   15.1870 N   0  0  1  0  0  0
   19.9490   32.6100   15.9460 N   0  0  0  0  0  0
   18.9190   33.2460   15.3720 C   0  0  0  0  0  0
   18.7720   33.3410   14.1660 O   0  0  0  0  0  0
   17.9580   33.9140   16.3200 C   0  0  2  0  0  0
   16.5160   33.9850   15.8090 C   0  0  0  0  0  0
   16.3870   34.8830   14.5860 C   0  0  0  0  0  0
   16.0200   32.5850   15.4520 C   0  0  0  0  0  0
   15.6310   34.5710   16.9140 C   0  0  0  0  0  0
   18.4860   35.2380   16.5560 N   0  0  0  0  0  0
   18.5690   35.8170   17.7480 C   0  0  0  0  0  0
   18.1830   35.3140   18.8020 O   0  0  0  0  0  0
   19.1720   37.1370   17.7390 O   0  0  0  0  0  0
   19.6090   37.7430   18.9590 C   0  0  0  0  0  0
   22.2880   32.6520   15.3510 C   0  0  0  0  0  0
   22.2310   34.1030   15.7800 C   0  0  0  0  0  0
   22.1840   35.1100   14.8210 C   0  0  0  0  0  0
   22.1480   36.4470   15.2070 C   0  0  0  0  0  0
   22.2600   34.4410   17.1290 C   0  0  0  0  0  0
   22.2210   35.7770   17.5170 C   0  0  0  0  0  0
   22.1610   36.7870   16.5570 C   0  0  0  0  0  0
   22.1340   38.2140   16.9910 C   0  0  0  0  0  0
   21.3560   39.1580   16.3270 C   0  0  0  0  0  0
   21.3680   40.4780   16.7660 C   0  0  0  0  0  0
   22.1510   40.8260   17.8610 C   0  0  0  0  0  0
   22.9130   39.8500   18.4980 C   0  0  0  0  0  0
   22.8900   38.5860   18.0540 N   0  0  0  0  0  0
   20.9546   23.8244    8.0462 H   0  0  0  0  0  0
   21.1947   23.3119    9.7511 H   0  0  0  0  0  0
   22.5622   24.0174    8.8242 H   0  0  0  0  0  0
   21.5642   27.5705    9.5992 H   0  0  0  0  0  0
   22.3828   27.0795   11.8494 H   0  0  0  0  0  0
   24.2133   28.7620    9.6851 H   0  0  0  0  0  0
   25.5166   29.3456   10.7748 H   0  0  0  0  0  0
   23.9233   30.1750   10.7556 H   0  0  0  0  0  0
   24.4272   26.4599   10.7015 H   0  0  0  0  0  0
   24.3214   26.2692   12.4845 H   0  0  0  0  0  0
   25.7396   27.0930   11.7519 H   0  0  0  0  0  0
   23.7286   29.8776   13.1925 H   0  0  0  0  0  0
   25.3351   29.0738   13.1963 H   0  0  0  0  0  0
   23.9168   28.2500   13.9289 H   0  0  0  0  0  0
   21.1653   27.6937   13.7357 H   0  0  0  0  0  0
   19.5914   30.2949   13.3912 H   0  0  0  0  0  0
   18.5985   27.5280   14.3387 H   0  0  0  0  0  0
   17.5807   29.0037   14.2244 H   0  0  0  0  0  0
   19.0653   26.2149   12.4193 H   0  0  0  0  0  0
   18.6306   25.7164   10.0288 H   0  0  0  0  0  0
   17.4641   27.3815    8.6050 H   0  0  0  0  0  0
   16.7693   29.5595    9.5681 H   0  0  0  0  0  0
   17.2000   30.0587   11.9607 H   0  0  0  0  0  0
   19.0525   30.1724   15.7970 H   0  0  0  0  0  0
   19.4682   27.6721   16.1457 H   0  0  0  0  0  0
   21.3902   30.6384   16.7094 H   0  0  0  0  0  0
   22.0263   30.2006   15.0875 H   0  0  0  0  0  0
   19.9855   32.5834   17.0451 H   0  0  0  0  0  0
   17.9217   33.3522   17.2650 H   0  0  0  0  0  0
   17.0130   34.4871   13.7728 H   0  0  0  0  0  0
   16.7181   35.9004   14.8416 H   0  0  0  0  0  0
   15.3367   34.9102   14.2603 H   0  0  0  0  0  0
   16.6542   32.1625   14.6587 H   0  0  0  0  0  0
   14.9802   32.6436   15.0979 H   0  0  0  0  0  0
   16.0685   31.9408   16.3423 H   0  0  0  0  0  0
   15.9866   35.5793   17.1725 H   0  0  0  0  0  0
   15.6797   33.9258   17.8035 H   0  0  0  0  0  0
   14.5914   34.6286   16.5592 H   0  0  0  0  0  0
   18.8555   35.8410   15.7135 H   0  0  0  0  0  0
   20.0346   38.7343   18.7441 H   0  0  0  0  0  0
   20.3751   37.1091   19.4294 H   0  0  0  0  0  0
   18.7532   37.8515   19.6416 H   0  0  0  0  0  0
   22.8742   32.1236   16.1173 H   0  0  0  0  0  0
   22.8313   32.6312   14.3948 H   0  0  0  0  0  0
   22.1753   34.8507   13.7623 H   0  0  0  0  0  0
   22.1095   37.2302   14.4499 H   0  0  0  0  0  0
   22.3134   33.6571   17.8845 H   0  0  0  0  0  0
   22.2374   36.0352   18.5759 H   0  0  0  0  0  0
   20.7445   38.8664   15.4731 H   0  0  0  0  0  0
   20.7690   41.2326   16.2562 H   0  0  0  0  0  0
   22.1682   41.8556   18.2183 H   0  0  0  0  0  0
   23.5283   40.1143   19.3580 H   0  0  0  0  0  0
  1  2  1  0  0  0
  1 52  1  0  0  0
  1 53  1  0  0  0
  1 54  1  0  0  0
  2  3  1  0  0  0
  3  4  2  0  0  0
  3  5  1  0  0  0
  5  6  1  0  0  0
  5 55  1  0  0  0
  6  7  1  0  0  0
  6 11  1  0  0  0
  6 56  1  0  0  0
  7  8  1  0  0  0
  7  9  1  0  0  0
  7 10  1  0  0  0
  8 57  1  0  0  0
  8 58  1  0  0  0
  8 59  1  0  0  0
  9 60  1  0  0  0
  9 61  1  0  0  0
  9 62  1  0  0  0
 10 63  1  0  0  0
 10 64  1  0  0  0
 10 65  1  0  0  0
 11 12  2  0  0  0
 11 13  1  0  0  0
 13 14  1  0  0  0
 13 66  1  0  0  0
 14 15  1  0  0  0
 14 22  1  0  0  0
 14 67  1  0  0  0
 15 16  1  0  0  0
 15 68  1  0  0  0
 15 69  1  0  0  0
 16 17  2  0  0  0
 16 21  1  0  0  0
 17 18  1  0  0  0
 17 70  1  0  0  0
 18 19  2  0  0  0
 18 71  1  0  0  0
 19 20  1  0  0  0
 19 72  1  0  0  0
 20 21  2  0  0  0
 20 73  1  0  0  0
 21 74  1  0  0  0
 22 23  1  0  0  0
 22 24  1  0  0  0
 22 75  1  0  0  0
 23 76  1  0  0  0
 24 25  1  0  0  0
 24 77  1  0  0  0
 24 78  1  0  0  0
 25 26  1  0  0  0
 25 39  1  0  0  0
 26 27  1  0  0  0
 26 79  1  0  0  0
 27 28  2  0  0  0
 27 29  1  0  0  0
 29 30  1  0  0  0
 29 34  1  0  0  0
 29 80  1  0  0  0
 30 31  1  0  0  0
 30 32  1  0  0  0
 30 33  1  0  0  0
 31 81  1  0  0  0
 31 82  1  0  0  0
 31 83  1  0  0  0
 32 84  1  0  0  0
 32 85  1  0  0  0
 32 86  1  0  0  0
 33 87  1  0  0  0
 33 88  1  0  0  0
 33 89  1  0  0  0
 34 35  1  0  0  0
 34 90  1  0  0  0
 35 36  2  0  0  0
 35 37  1  0  0  0
 37 38  1  0  0  0
 38 91  1  0  0  0
 38 92  1  0  0  0
 38 93  1  0  0  0
 39 40  1  0  0  0
 39 94  1  0  0  0
 39 95  1  0  0  0
 40 41  2  0  0  0
 40 43  1  0  0  0
 41 42  1  0  0  0
 41 96  1  0  0  0
 42 45  2  0  0  0
 42 97  1  0  0  0
 43 44  2  0  0  0
 43 98  1  0  0  0
 44 45  1  0  0  0
 44 99  1  0  0  0
 45 46  1  0  0  0
 46 47  2  0  0  0
 46 51  1  0  0  0
 47 48  1  0  0  0
 47100  1  0  0  0
 48 49  2  0  0  0
 48101  1  0  0  0
 49 50  1  0  0  0
 49102  1  0  0  0
 50 51  2  0  0  0
 50103  1  0  0  0
M  END
> <s_m_source_file>
../3el1_ligand.sdf

> <i_m_source_file_index>
1

> <s_epik_input>
W0NIM11PQyg9TylbTkhdW0NAQEhdKEMoW0NIM10pKFtDSDNdKVtDSDNdKUMoPU8pW05IXVtDQEBIXShbQ0gyXWMxW2NIXVtjSF1bY0hdW2NIXVtjSF0xKVtDQEBIXShbT0hdKVtDSDJdW05AQEgrXShbTkhdQyg9TylbQ0BIXShDKFtDSDNdKShbQ0gzXSlbQ0gzXSlbTkhdQyg9TylPW0NIM10pW0NIMl1jMltjSF1bY0hdYyhbY0hdW2NIXTIpLWMzW2NIXVtjSF1bY0hdW2NIXW4z

> <s_epik_cmdline>
J2VwaWtfYXBwJywgJy1pbWFlJywgJ2xpZ2FuZF9wcm8ubWFlJywgJy1vbWFlJywgJ2xpZ2FuZF9wcmVwLm1hZScsICctbXMnLCAnMScsICctcGgnLCAnNycsICctcGh0JywgJzAuNScsICctbnQn

> <r_epik_Ionization_Penalty>
  0.0101

> <r_epik_Ionization_Penalty_Charging>
  0.0000

> <r_epik_Ionization_Penalty_Neutral>
  0.0101

> <r_epik_State_Penalty>
  0.0077

> <r_epik_Charging_Adjusted_Penalty>
0.0077056098726133

> <i_epik_Tot_Q>
0

> <i_epik_Tot_abs_Q>
0

> <s_epik_Chemistry_Notes>
This compound has an ester and may undergo hydrolysis at high or low pH.

$$$$
