3el7_ligand
                    3D
 Schrodinger Suite 2020-3.
 60 64  0  0  1  0            999 V2000
   22.6960   -8.9030    9.7520 C   0  0  0  0  0  0
   22.6130   -7.7310    9.0170 C   0  0  0  0  0  0
   23.7800   -7.1830    8.5050 C   0  0  0  0  0  0
   24.9450   -7.8060    8.7410 N   0  0  0  0  0  0
   23.8910   -9.4750    9.9530 N   0  0  0  0  0  0
   21.1820  -10.0410   12.4380 C   0  0  0  0  0  0
   21.8820  -11.2720   13.0210 C   0  0  0  0  0  0
   21.6280  -12.3470   11.9630 C   0  0  0  0  0  0
   21.9840  -11.5420   10.7140 C   0  0  0  0  0  0
   21.0690  -10.3370   10.9390 C   0  0  0  0  0  0
   21.4460   -9.1770   10.1190 N   0  0  0  0  0  0
   20.6420   -8.3410    9.7030 N   0  0  0  0  0  0
   24.9830   -8.9210    9.4500 C   0  0  0  0  0  0
   23.7430   -6.0530    7.8040 N   0  0  0  0  0  0
   21.2650   -7.3910    9.0070 C   0  0  0  0  0  0
   20.6350   -6.1460    8.3790 C   0  0  0  0  0  0
   19.4340   -6.5250    7.5090 C   0  0  0  0  0  0
   18.2840   -5.7420    7.5010 C   0  0  0  0  0  0
   19.5090   -7.6680    6.7230 C   0  0  0  0  0  0
   18.4320   -8.0360    5.9250 C   0  0  0  0  0  0
   17.2830   -7.2540    5.9230 C   0  0  0  0  0  0
   17.2030   -6.1110    6.7080 C   0  0  0  0  0  0
   16.0700   -5.4150    6.6320 N   0  0  0  0  0  0
   15.7620   -4.2740    7.2430 C   0  0  0  0  0  0
   16.5390   -3.6750    7.9830 O   0  0  0  0  0  0
   14.5280   -3.8560    6.9740 N   0  0  0  0  0  0
   13.9180   -2.7510    7.4010 C   0  0  0  0  0  0
   14.5650   -1.7560    8.1250 C   0  0  0  0  0  0
   12.6030   -2.5630    6.9970 C   0  0  0  0  0  0
   11.9230   -1.3920    7.3080 C   0  0  0  0  0  0
   12.5730   -0.3970    8.0290 C   0  0  0  0  0  0
   13.8890   -0.5800    8.4300 C   0  0  0  0  0  0
   14.5910    0.5740    9.1510 C   0  0  0  0  0  0
   15.6780    0.1370    9.7750 F   0  0  0  0  0  0
   14.9410    1.4920    8.2590 F   0  0  0  0  0  0
   13.7600    1.1110   10.0360 F   0  0  0  0  0  0
   20.1946   -9.9236   12.9083 H   0  0  0  0  0  0
   21.7904   -9.1458   12.6344 H   0  0  0  0  0  0
   22.9522  -11.0560   13.1553 H   0  0  0  0  0  0
   21.4337  -11.5224   13.9938 H   0  0  0  0  0  0
   22.2850  -13.2090   12.1511 H   0  0  0  0  0  0
   20.5774  -12.6691   12.0124 H   0  0  0  0  0  0
   23.0583  -11.3060   10.7238 H   0  0  0  0  0  0
   21.7466  -12.1327    9.8170 H   0  0  0  0  0  0
   20.0371  -10.5213   10.6056 H   0  0  0  0  0  0
   25.9459   -9.4004    9.6264 H   0  0  0  0  0  0
   22.7813   -5.5525    7.6178 H   0  0  0  0  0  0
   24.6741   -5.6191    7.4106 H   0  0  0  0  0  0
   20.2963   -5.4657    9.1742 H   0  0  0  0  0  0
   21.3801   -5.6347    7.7518 H   0  0  0  0  0  0
   18.2306   -4.8424    8.1142 H   0  0  0  0  0  0
   20.4131   -8.2768    6.7321 H   0  0  0  0  0  0
   18.4881   -8.9311    5.3055 H   0  0  0  0  0  0
   16.4363   -7.5406    5.2992 H   0  0  0  0  0  0
   15.2444   -5.7755    6.0008 H   0  0  0  0  0  0
   13.8749   -4.4537    6.3212 H   0  0  0  0  0  0
   15.5954   -1.8969    8.4514 H   0  0  0  0  0  0
   12.0978   -3.3439    6.4287 H   0  0  0  0  0  0
   10.8896   -1.2548    6.9896 H   0  0  0  0  0  0
   12.0497    0.5259    8.2791 H   0  0  0  0  0  0
  1  2  2  0  0  0
  1  5  1  0  0  0
  1 11  1  0  0  0
  2  3  1  0  0  0
  2 15  1  0  0  0
  3  4  2  0  0  0
  3 14  1  0  0  0
  4 13  1  0  0  0
  5 13  2  0  0  0
  6  7  1  0  0  0
  6 10  1  0  0  0
  6 37  1  0  0  0
  6 38  1  0  0  0
  7  8  1  0  0  0
  7 39  1  0  0  0
  7 40  1  0  0  0
  8  9  1  0  0  0
  8 41  1  0  0  0
  8 42  1  0  0  0
  9 10  1  0  0  0
  9 43  1  0  0  0
  9 44  1  0  0  0
 10 11  1  0  0  0
 10 45  1  0  0  0
 11 12  1  0  0  0
 12 15  2  0  0  0
 13 46  1  0  0  0
 14 47  1  0  0  0
 14 48  1  0  0  0
 15 16  1  0  0  0
 16 17  1  0  0  0
 16 49  1  0  0  0
 16 50  1  0  0  0
 17 18  2  0  0  0
 17 19  1  0  0  0
 18 22  1  0  0  0
 18 51  1  0  0  0
 19 20  2  0  0  0
 19 52  1  0  0  0
 20 21  1  0  0  0
 20 53  1  0  0  0
 21 22  2  0  0  0
 21 54  1  0  0  0
 22 23  1  0  0  0
 23 24  1  0  0  0
 23 55  1  0  0  0
 24 25  2  0  0  0
 24 26  1  0  0  0
 26 27  1  0  0  0
 26 56  1  0  0  0
 27 28  2  0  0  0
 27 29  1  0  0  0
 28 32  1  0  0  0
 28 57  1  0  0  0
 29 30  2  0  0  0
 29 58  1  0  0  0
 30 31  1  0  0  0
 30 59  1  0  0  0
 31 32  2  0  0  0
 31 60  1  0  0  0
 32 33  1  0  0  0
 33 34  1  0  0  0
 33 35  1  0  0  0
 33 36  1  0  0  0
M  END
> <s_m_source_file>
../3el7_ligand.sdf

> <i_m_source_file_index>
1

> <s_epik_input>
W0NIMl0xW0NIMl1bQ0gyXVtDSDJdW0NIXTFuMm5jKGMoYzIzKWMoW05IMl0pbltjSF1uMylbQ0gyXWM0W2NIXWMoW2NIXVtjSF1bY0hdNClbTkhdQyg9TylbTkhdYzVbY0hdYyhDKEYpKEYpRilbY0hdW2NIXVtjSF01

> <s_epik_cmdline>
J2VwaWtfYXBwJywgJy1pbWFlJywgJ2xpZ2FuZF9wcm8ubWFlJywgJy1vbWFlJywgJ2xpZ2FuZF9wcmVwLm1hZScsICctbXMnLCAnMScsICctcGgnLCAnNycsICctcGh0JywgJzAuNScsICctbnQn

> <r_lp_tautomer_probability>
1

> <r_epik_Ionization_Penalty>
  0.0022

> <r_epik_Ionization_Penalty_Charging>
  0.0000

> <r_epik_Ionization_Penalty_Neutral>
  0.0022

> <r_epik_State_Penalty>
 -0.0000

> <r_epik_Charging_Adjusted_Penalty>
0

> <i_epik_Tot_Q>
0

> <i_epik_Tot_abs_Q>
0

$$$$
