3el8_ligand
                    3D
 Schrodinger Suite 2020-3.
 53 56  0  0  1  0            999 V2000
    6.2140    8.2230    6.7640 C   0  0  0  0  0  0
    5.5660    7.2160    7.4560 C   0  0  0  0  0  0
    6.3210    6.1690    7.9710 C   0  0  0  0  0  0
    7.6450    6.1770    7.7750 N   0  0  0  0  0  0
    7.5500    8.1660    6.6060 N   0  0  0  0  0  0
    4.5340   11.3850    5.9670 C   0  0  0  0  0  0
    5.5470   10.2950    5.6080 C   0  0  0  0  0  0
    5.4760    9.9560    4.1170 C   0  0  0  0  0  0
    5.2760    9.0850    6.3950 N   0  0  0  0  0  0
    4.1520    8.7370    6.7720 N   0  0  0  0  0  0
    8.2340    7.1580    7.1080 C   0  0  0  0  0  0
    5.7480    5.1820    8.6540 N   0  0  0  0  0  0
    4.2290    7.5870    7.4340 C   0  0  0  0  0  0
    3.1800    6.8750    8.0070 C   0  0  0  0  0  0
    2.2670    7.5370    8.8170 C   0  0  0  0  0  0
    1.1220    6.8810    9.2590 C   0  0  0  0  0  0
    2.9520    5.5450    7.6680 C   0  0  0  0  0  0
    1.8060    4.8880    8.1080 C   0  0  0  0  0  0
    0.8780    5.5610    8.8950 C   0  0  0  0  0  0
   -0.3080    5.0370    9.2080 N   0  0  0  0  0  0
   -0.7220    3.8010    8.9400 C   0  0  0  0  0  0
   -0.0200    2.9710    8.3680 O   0  0  0  0  0  0
   -1.9640    3.5470    9.3470 N   0  0  0  0  0  0
   -2.6380    2.4050    9.2120 C   0  0  0  0  0  0
   -2.1110    1.2750    8.5990 C   0  0  0  0  0  0
   -3.9360    2.3690    9.7040 C   0  0  0  0  0  0
   -4.7120    1.2210    9.5860 C   0  0  0  0  0  0
   -4.1780    0.0970    8.9700 C   0  0  0  0  0  0
   -2.8790    0.1200    8.4760 C   0  0  0  0  0  0
   -2.3200   -1.1450    7.8190 C   0  0  0  0  0  0
   -2.2560   -2.1120    8.7290 F   0  0  0  0  0  0
   -3.1270   -1.5200    6.8320 F   0  0  0  0  0  0
   -1.1040   -0.9320    7.3280 F   0  0  0  0  0  0
    4.7420   12.2883    5.3747 H   0  0  0  0  0  0
    4.6148   11.6222    7.0381 H   0  0  0  0  0  0
    3.5173   11.0278    5.7462 H   0  0  0  0  0  0
    6.5598   10.6381    5.8659 H   0  0  0  0  0  0
    5.6787   10.8608    3.5252 H   0  0  0  0  0  0
    4.4724    9.5765    3.8747 H   0  0  0  0  0  0
    6.2259    9.1871    3.8797 H   0  0  0  0  0  0
    9.3149    7.1307    6.9705 H   0  0  0  0  0  0
    4.6593    5.1817    8.8113 H   0  0  0  0  0  0
    6.3628    4.3660    9.0616 H   0  0  0  0  0  0
    2.4474    8.5721    9.1071 H   0  0  0  0  0  0
    0.4103    7.4062    9.8960 H   0  0  0  0  0  0
    3.6771    5.0126    7.0524 H   0  0  0  0  0  0
    1.6363    3.8463    7.8356 H   0  0  0  0  0  0
   -1.0544    5.6445    9.7408 H   0  0  0  0  0  0
   -2.5463    4.3285    9.8570 H   0  0  0  0  0  0
   -1.0919    1.2927    8.2127 H   0  0  0  0  0  0
   -4.3521    3.2520   10.1890 H   0  0  0  0  0  0
   -5.7306    1.2037    9.9737 H   0  0  0  0  0  0
   -4.7797   -0.8067    8.8735 H   0  0  0  0  0  0
  1  2  2  0  0  0
  1  5  1  0  0  0
  1  9  1  0  0  0
  2  3  1  0  0  0
  2 13  1  0  0  0
  3  4  2  0  0  0
  3 12  1  0  0  0
  4 11  1  0  0  0
  5 11  2  0  0  0
  6  7  1  0  0  0
  6 34  1  0  0  0
  6 35  1  0  0  0
  6 36  1  0  0  0
  7  8  1  0  0  0
  7  9  1  0  0  0
  7 37  1  0  0  0
  8 38  1  0  0  0
  8 39  1  0  0  0
  8 40  1  0  0  0
  9 10  1  0  0  0
 10 13  2  0  0  0
 11 41  1  0  0  0
 12 42  1  0  0  0
 12 43  1  0  0  0
 13 14  1  0  0  0
 14 15  2  0  0  0
 14 17  1  0  0  0
 15 16  1  0  0  0
 15 44  1  0  0  0
 16 19  2  0  0  0
 16 45  1  0  0  0
 17 18  2  0  0  0
 17 46  1  0  0  0
 18 19  1  0  0  0
 18 47  1  0  0  0
 19 20  1  0  0  0
 20 21  1  0  0  0
 20 48  1  0  0  0
 21 22  2  0  0  0
 21 23  1  0  0  0
 23 24  1  0  0  0
 23 49  1  0  0  0
 24 25  2  0  0  0
 24 26  1  0  0  0
 25 29  1  0  0  0
 25 50  1  0  0  0
 26 27  2  0  0  0
 26 51  1  0  0  0
 27 28  1  0  0  0
 27 52  1  0  0  0
 28 29  2  0  0  0
 28 53  1  0  0  0
 29 30  1  0  0  0
 30 31  1  0  0  0
 30 32  1  0  0  0
 30 33  1  0  0  0
M  END
> <s_m_source_file>
../3el8_ligand.sdf

> <i_m_source_file_index>
1

> <s_epik_input>
bjFbY0hdbmMoW05IMl0pYyhjMTIpYyhubjJbQ0hdKFtDSDNdKVtDSDNdKS1jM1tjSF1bY0hdYyhbY0hdW2NIXTMpW05IXUMoPU8pW05IXWM0W2NIXWMoQyhGKShGKUYpW2NIXVtjSF1bY0hdNA==

> <s_epik_cmdline>
J2VwaWtfYXBwJywgJy1pbWFlJywgJ2xpZ2FuZF9wcm8ubWFlJywgJy1vbWFlJywgJ2xpZ2FuZF9wcmVwLm1hZScsICctbXMnLCAnMScsICctcGgnLCAnNycsICctcGh0JywgJzAuNScsICctbnQn

> <r_lp_tautomer_probability>
1

> <r_epik_Ionization_Penalty>
  0.0008

> <r_epik_Ionization_Penalty_Charging>
  0.0000

> <r_epik_Ionization_Penalty_Neutral>
  0.0008

> <r_epik_State_Penalty>
 -0.0000

> <r_epik_Charging_Adjusted_Penalty>
0

> <i_epik_Tot_Q>
0

> <i_epik_Tot_abs_Q>
0

$$$$
