3el9_ligand
                    3D
 Schrodinger Suite 2020-3.
103105  0  0  1  0            999 V2000
   20.8160   23.6110    9.1960 C   0  0  0  0  0  0
   21.1110   24.9970    9.3690 O   0  0  0  0  0  0
   21.6170   25.4580   10.6440 C   0  0  0  0  0  0
   21.8960   24.6520   11.5210 O   0  0  0  0  0  0
   21.7790   26.7720   10.7300 N   0  0  0  0  0  0
   22.3140   27.4440   11.8900 C   0  0  1  0  0  0
   23.7120   28.0040   11.6390 C   0  0  0  0  0  0
   24.0290   28.8620   12.8560 C   0  0  0  0  0  0
   23.7740   28.8120   10.3470 C   0  0  0  0  0  0
   24.7300   26.8710   11.5280 C   0  0  0  0  0  0
   21.2680   28.4470   12.3050 C   0  0  0  0  0  0
   21.0450   29.4470   11.6240 O   0  0  0  0  0  0
   20.6180   28.1410   13.4340 N   0  0  0  0  0  0
   19.5570   28.9830   13.9820 C   0  0  1  0  0  0
   18.2450   28.2090   13.8810 C   0  0  0  0  0  0
   17.9440   27.8080   12.4590 C   0  0  0  0  0  0
   18.3340   26.5510   12.0210 C   0  0  0  0  0  0
   18.0830   26.1430   10.7170 C   0  0  0  0  0  0
   17.4150   26.9910    9.8440 C   0  0  0  0  0  0
   17.0080   28.2520   10.2870 C   0  0  0  0  0  0
   17.2600   28.6580   11.5950 C   0  0  0  0  0  0
   19.9160   29.2840   15.4420 C   0  0  1  0  0  0
   20.1870   28.0870   16.1590 O   0  0  0  0  0  0
   21.1780   30.1260   15.5950 C   0  0  0  0  0  0
   20.9560   31.5530   15.4130 N   0  0  1  0  0  0
   19.9080   32.0380   16.0940 N   0  0  0  0  0  0
   18.9780   32.7680   15.4590 C   0  0  0  0  0  0
   18.9460   32.9540   14.2450 O   0  0  0  0  0  0
   17.9960   33.4650   16.3590 C   0  0  2  0  0  0
   16.5220   33.4080   15.9460 C   0  0  0  0  0  0
   15.6390   33.9470   17.0700 C   0  0  0  0  0  0
   16.1370   31.9480   15.7300 C   0  0  0  0  0  0
   16.2160   34.2250   14.6940 C   0  0  0  0  0  0
   18.4470   34.8330   16.4810 N   0  0  0  0  0  0
   18.6090   35.4360   17.6600 C   0  0  0  0  0  0
   18.4250   34.8810   18.7340 O   0  0  0  0  0  0
   19.0120   36.8310   17.6230 O   0  0  0  0  0  0
   19.3080   37.5110   18.8460 C   0  0  0  0  0  0
   22.2240   32.2190   15.7610 C   0  0  0  0  0  0
   22.1300   33.7320   15.7860 C   0  0  0  0  0  0
   22.0460   34.4240   14.6320 C   0  0  0  0  0  0
   21.9600   35.7530   14.7040 C   0  0  0  0  0  0
   22.1420   34.3910   16.8680 C   0  0  0  0  0  0
   22.0660   35.5880   16.9260 C   0  0  0  0  0  0
   21.9730   36.3490   15.9120 C   0  0  0  0  0  0
   21.8670   37.8580   16.0400 C   0  0  0  0  0  0
   21.0160   38.5910   15.2120 C   0  0  0  0  0  0
   20.9130   39.9770   15.3190 C   0  0  0  0  0  0
   21.6630   40.6410   16.2870 C   0  0  0  0  0  0
   22.4930   39.8830   17.1120 C   0  0  0  0  0  0
   22.5680   38.5470   16.9720 N   0  0  0  0  0  0
   20.4446   23.4399    8.1748 H   0  0  0  0  0  0
   20.0474   23.3064    9.9216 H   0  0  0  0  0  0
   21.7287   23.0188    9.3583 H   0  0  0  0  0  0
   21.4777   27.3547    9.8470 H   0  0  0  0  0  0
   22.4632   26.7174   12.7022 H   0  0  0  0  0  0
   23.2936   29.6765   12.9320 H   0  0  0  0  0  0
   25.0380   29.2876   12.7518 H   0  0  0  0  0  0
   23.9845   28.2419   13.7634 H   0  0  0  0  0  0
   23.0497   29.6384   10.3963 H   0  0  0  0  0  0
   23.5296   28.1605    9.4950 H   0  0  0  0  0  0
   24.7874   29.2198   10.2179 H   0  0  0  0  0  0
   24.7092   26.2680   12.4478 H   0  0  0  0  0  0
   25.7359   27.2941   11.3896 H   0  0  0  0  0  0
   24.4781   26.2348   10.6667 H   0  0  0  0  0  0
   20.9095   27.2160   13.9531 H   0  0  0  0  0  0
   19.4803   29.9170   13.4060 H   0  0  0  0  0  0
   18.3095   27.2968   14.4923 H   0  0  0  0  0  0
   17.4194   28.8375   14.2462 H   0  0  0  0  0  0
   18.8434   25.8754   12.7081 H   0  0  0  0  0  0
   18.4098   25.1593   10.3800 H   0  0  0  0  0  0
   17.2097   26.6755    8.8211 H   0  0  0  0  0  0
   16.4889   28.9236    9.6031 H   0  0  0  0  0  0
   16.9235   29.6357   11.9401 H   0  0  0  0  0  0
   19.0366   29.7754   15.8839 H   0  0  0  0  0  0
   19.4279   27.2926   16.2100 H   0  0  0  0  0  0
   21.5923   29.9856   16.6043 H   0  0  0  0  0  0
   21.9209   29.8125   14.8468 H   0  0  0  0  0  0
   19.8116   31.8374   17.1712 H   0  0  0  0  0  0
   18.0296   32.9612   17.3363 H   0  0  0  0  0  0
   15.8327   33.3799   17.9924 H   0  0  0  0  0  0
   14.5810   33.8394   16.7888 H   0  0  0  0  0  0
   15.8675   35.0098   17.2381 H   0  0  0  0  0  0
   16.3625   31.3710   16.6390 H   0  0  0  0  0  0
   16.7097   31.5390   14.8846 H   0  0  0  0  0  0
   15.0612   31.8811   15.5107 H   0  0  0  0  0  0
   16.4981   35.2747   14.8632 H   0  0  0  0  0  0
   15.1404   34.1656   14.4713 H   0  0  0  0  0  0
   16.7889   33.8236   13.8451 H   0  0  0  0  0  0
   18.6719   35.4205   15.5786 H   0  0  0  0  0  0
   19.5931   38.5507   18.6277 H   0  0  0  0  0  0
   20.1391   37.0024   19.3564 H   0  0  0  0  0  0
   18.4195   37.5028   19.4944 H   0  0  0  0  0  0
   22.5463   31.8941   16.7613 H   0  0  0  0  0  0
   22.9939   31.9506   15.0226 H   0  0  0  0  0  0
   22.0483   33.9128   13.6693 H   0  0  0  0  0  0
   21.8801   36.3501   13.7956 H   0  0  0  0  0  0
   22.2265   33.8377   17.8033 H   0  0  0  0  0  0
   22.0775   36.0522   17.9122 H   0  0  0  0  0  0
   20.4186   38.0682   14.4650 H   0  0  0  0  0  0
   20.2538   40.5343   14.6535 H   0  0  0  0  0  0
   21.6026   41.7238   16.3965 H   0  0  0  0  0  0
   23.0879   40.3785   17.8792 H   0  0  0  0  0  0
  1  2  1  0  0  0
  1 52  1  0  0  0
  1 53  1  0  0  0
  1 54  1  0  0  0
  2  3  1  0  0  0
  3  4  2  0  0  0
  3  5  1  0  0  0
  5  6  1  0  0  0
  5 55  1  0  0  0
  6  7  1  0  0  0
  6 11  1  0  0  0
  6 56  1  0  0  0
  7  8  1  0  0  0
  7  9  1  0  0  0
  7 10  1  0  0  0
  8 57  1  0  0  0
  8 58  1  0  0  0
  8 59  1  0  0  0
  9 60  1  0  0  0
  9 61  1  0  0  0
  9 62  1  0  0  0
 10 63  1  0  0  0
 10 64  1  0  0  0
 10 65  1  0  0  0
 11 12  2  0  0  0
 11 13  1  0  0  0
 13 14  1  0  0  0
 13 66  1  0  0  0
 14 15  1  0  0  0
 14 22  1  0  0  0
 14 67  1  0  0  0
 15 16  1  0  0  0
 15 68  1  0  0  0
 15 69  1  0  0  0
 16 17  2  0  0  0
 16 21  1  0  0  0
 17 18  1  0  0  0
 17 70  1  0  0  0
 18 19  2  0  0  0
 18 71  1  0  0  0
 19 20  1  0  0  0
 19 72  1  0  0  0
 20 21  2  0  0  0
 20 73  1  0  0  0
 21 74  1  0  0  0
 22 23  1  0  0  0
 22 24  1  0  0  0
 22 75  1  0  0  0
 23 76  1  0  0  0
 24 25  1  0  0  0
 24 77  1  0  0  0
 24 78  1  0  0  0
 25 26  1  0  0  0
 25 39  1  0  0  0
 26 27  1  0  0  0
 26 79  1  0  0  0
 27 28  2  0  0  0
 27 29  1  0  0  0
 29 30  1  0  0  0
 29 34  1  0  0  0
 29 80  1  0  0  0
 30 31  1  0  0  0
 30 32  1  0  0  0
 30 33  1  0  0  0
 31 81  1  0  0  0
 31 82  1  0  0  0
 31 83  1  0  0  0
 32 84  1  0  0  0
 32 85  1  0  0  0
 32 86  1  0  0  0
 33 87  1  0  0  0
 33 88  1  0  0  0
 33 89  1  0  0  0
 34 35  1  0  0  0
 34 90  1  0  0  0
 35 36  2  0  0  0
 35 37  1  0  0  0
 37 38  1  0  0  0
 38 91  1  0  0  0
 38 92  1  0  0  0
 38 93  1  0  0  0
 39 40  1  0  0  0
 39 94  1  0  0  0
 39 95  1  0  0  0
 40 41  2  0  0  0
 40 43  1  0  0  0
 41 42  1  0  0  0
 41 96  1  0  0  0
 42 45  2  0  0  0
 42 97  1  0  0  0
 43 44  2  0  0  0
 43 98  1  0  0  0
 44 45  1  0  0  0
 44 99  1  0  0  0
 45 46  1  0  0  0
 46 47  2  0  0  0
 46 51  1  0  0  0
 47 48  1  0  0  0
 47100  1  0  0  0
 48 49  2  0  0  0
 48101  1  0  0  0
 49 50  1  0  0  0
 49102  1  0  0  0
 50 51  2  0  0  0
 50103  1  0  0  0
M  END
> <s_m_source_file>
../3el9_ligand.sdf

> <i_m_source_file_index>
1

> <s_epik_input>
W0NIM11PQyg9TylbTkhdW0NAQEhdKEMoW0NIM10pKFtDSDNdKVtDSDNdKUMoPU8pW05IXVtDQEBIXShbQ0gyXWMxW2NIXVtjSF1bY0hdW2NIXVtjSF0xKVtDQEBIXShbT0hdKVtDSDJdW05AQEgrXShbTkhdQyg9TylbQ0BIXShDKFtDSDNdKShbQ0gzXSlbQ0gzXSlbTkhdQyg9TylPW0NIM10pW0NIMl1jMltjSF1bY0hdYyhbY0hdW2NIXTIpLWMzW2NIXVtjSF1bY0hdW2NIXW4z

> <s_epik_cmdline>
J2VwaWtfYXBwJywgJy1pbWFlJywgJ2xpZ2FuZF9wcm8ubWFlJywgJy1vbWFlJywgJ2xpZ2FuZF9wcmVwLm1hZScsICctbXMnLCAnMScsICctcGgnLCAnNycsICctcGh0JywgJzAuNScsICctbnQn

> <r_epik_Ionization_Penalty>
  0.0101

> <r_epik_Ionization_Penalty_Charging>
  0.0000

> <r_epik_Ionization_Penalty_Neutral>
  0.0101

> <r_epik_State_Penalty>
  0.0077

> <r_epik_Charging_Adjusted_Penalty>
0.0077056098726133

> <i_epik_Tot_Q>
0

> <i_epik_Tot_abs_Q>
0

> <s_epik_Chemistry_Notes>
This compound has an ester and may undergo hydrolysis at high or low pH.

$$$$
