3elc_ligand
                    3D
 Schrodinger Suite 2020-3.
 30 31  0  0  1  0            999 V2000
   33.4890    5.9290   42.1690 O   0  0  0  0  0  0
   34.0770    5.1880   41.3840 C   0  0  0  0  0  0
   35.1160    5.7190   40.6310 N   0  0  0  0  0  0
   35.7990    4.9410   39.7360 C   0  0  0  0  0  0
   36.7780    5.4860   39.0410 N   0  0  0  0  0  0
   35.4660    3.6140   39.5750 C   0  0  0  0  0  0
   36.1470    2.8770   38.6830 F   0  0  0  0  0  0
   34.4390    3.0440   40.3140 C   0  0  0  0  0  0
   33.7190    3.8330   41.2360 N   0  0  0  0  0  0
   32.6250    3.2510   42.0570 C   0  0  2  0  0  0
   33.2060    2.0040   42.5090 O   0  0  0  0  0  0
   32.2030    0.9780   42.3810 C   0  0  2  0  0  0
   32.8990   -0.3640   42.0750 C   0  0  0  0  0  0
   33.5860   -0.3160   40.7990 O   0  0  0  0  0  0
   31.3890    1.3990   41.1660 C   0  0  1  0  0  0
   30.1050    0.8310   41.2270 O   0  0  0  0  0  0
   31.3250    2.9070   41.3220 C   0  0  1  0  0  0
   30.2220    3.2500   42.1540 O   0  0  0  0  0  0
   37.0291    6.5474   39.1836 H   0  0  0  0  0  0
   34.1895    1.9911   40.1828 H   0  0  0  0  0  0
   32.3575    3.9708   42.8446 H   0  0  0  0  0  0
   31.6143    0.9082   43.3076 H   0  0  0  0  0  0
   33.6346   -0.5835   42.8628 H   0  0  0  0  0  0
   32.1480   -1.1670   42.0405 H   0  0  0  0  0  0
   34.1333   -1.1982   40.4355 H   0  0  0  0  0  0
   31.7529    1.0453   40.1901 H   0  0  0  0  0  0
   29.9800   -0.2576   41.1301 H   0  0  0  0  0  0
   31.1513    3.4533   40.3832 H   0  0  0  0  0  0
   30.0132    4.3054   42.3832 H   0  0  0  0  0  0
   37.3437    4.8792   38.3186 H   0  0  0  0  0  0
  1  2  2  0  0  0
  2  3  1  0  0  0
  2  9  1  0  0  0
  3  4  2  0  0  0
  4  5  1  0  0  0
  4  6  1  0  0  0
  5 19  1  0  0  0
  5 30  1  0  0  0
  6  7  1  0  0  0
  6  8  2  0  0  0
  8  9  1  0  0  0
  8 20  1  0  0  0
  9 10  1  0  0  0
 10 11  1  0  0  0
 10 17  1  0  0  0
 10 21  1  0  0  0
 11 12  1  0  0  0
 12 13  1  0  0  0
 12 15  1  0  0  0
 12 22  1  0  0  0
 13 14  1  0  0  0
 13 23  1  0  0  0
 13 24  1  0  0  0
 14 25  1  0  0  0
 15 16  1  0  0  0
 15 17  1  0  0  0
 15 26  1  0  0  0
 16 27  1  0  0  0
 17 18  1  0  0  0
 17 28  1  0  0  0
 18 29  1  0  0  0
M  END
> <s_m_source_file>
../3elc_ligand.sdf

> <i_m_source_file_index>
1

> <s_epik_input>
Tz1jMVtuSF0vYyg9Ti9bSF0pYyhGKVtjSF1uMVtDQEBIXTJPW0NASF0oW0NIMl1bT0hdKVtDQEBIXShbT0hdKVtDQEhdMltPSF0=

> <s_epik_cmdline>
J2VwaWtfYXBwJywgJy1pbWFlJywgJ2xpZ2FuZF9wcm8ubWFlJywgJy1vbWFlJywgJ2xpZ2FuZF9wcmVwLm1hZScsICctbXMnLCAnMScsICctcGgnLCAnNycsICctcGh0JywgJzAuNScsICctbnQn

> <r_lp_tautomer_probability>
1

> <r_epik_Ionization_Penalty>
  0.0001

> <r_epik_Ionization_Penalty_Charging>
  0.0000

> <r_epik_Ionization_Penalty_Neutral>
  0.0001

> <r_epik_State_Penalty>
 -0.0000

> <r_epik_Charging_Adjusted_Penalty>
4.00970235256891e-07

> <i_epik_Tot_Q>
0

> <i_epik_Tot_abs_Q>
0

> <s_epik_Chemistry_Notes>
This compound contains an acetal/aminal-like group ( X-CH(R)-Y where X, Y are N, S, or O) that may be acid/base labile, releasing an aldehyde.

$$$$
