3elm_ligand
                    3D
 Schrodinger Suite 2020-3.
 63 65  0  0  1  0            999 V2000
   -7.5790   26.9970   49.8780 C   0  0  0  0  0  0
   -8.0950   26.1190   50.8740 C   0  0  0  0  0  0
   -7.5510   26.1020   52.1930 C   0  0  0  0  0  0
   -6.4640   26.9750   52.5560 C   0  0  0  0  0  0
   -5.9410   27.8600   51.5590 C   0  0  0  0  0  0
   -6.4910   27.8690   50.2350 C   0  0  0  0  0  0
   -8.1090   27.0050   48.5990 O   0  0  0  0  0  0
   -8.0170   28.1520   47.7540 C   0  0  0  0  0  0
   -5.9000   26.9610   53.9320 C   0  0  0  0  0  0
   -5.9740   25.8410   54.7730 C   0  0  0  0  0  0
   -5.3350   26.1260   56.0440 C   0  0  0  0  0  0
   -4.8300   27.4220   56.0690 C   0  0  0  0  0  0
   -5.0920   28.3290   54.6290 S   0  0  0  0  0  0
   -3.9670   28.0830   57.4390 S   0  0  0  0  0  0
   -2.3530   27.8490   57.2420 N   0  0  3  0  0  0
   -4.1350   29.5430   57.4550 O   0  0  0  0  0  0
   -4.3450   27.3800   58.6630 O   0  0  0  0  0  0
   -1.7920   26.4810   57.1910 C   0  0  1  0  0  0
   -1.8480   26.0310   55.7020 C   0  0  0  0  0  0
   -2.0740   24.8350   55.4590 O   0  5  0  0  0  0
   -1.6420   26.9130   54.8550 O   0  0  0  0  0  0
   -0.3560   26.5080   57.7490 C   0  0  0  0  0  0
    0.5420   25.3180   57.3170 C   0  0  0  0  0  0
    1.9640   25.4310   57.8870 C   0  0  0  0  0  0
    1.9080   25.5400   59.3640 N   0  0  0  0  0  0
    1.1010   26.6730   59.8880 C   0  0  0  0  0  0
   -0.3400   26.6740   59.2960 C   0  0  0  0  0  0
   -9.0200   27.9780   46.6140 C   0  0  0  0  0  0
    2.3420   24.5960   60.1860 C   0  0  0  0  0  0
    3.2310   23.6930   59.5330 O   0  0  0  0  0  0
    2.0640   24.4380   61.3780 O   0  0  0  0  0  0
    3.4580   22.3860   60.0790 C   0  0  0  0  0  0
    4.8450   21.9030   59.6360 C   0  0  0  0  0  0
    2.3730   21.4370   59.5600 C   0  0  0  0  0  0
   -8.9183   25.4496   50.6246 H   0  0  0  0  0  0
   -7.9634   25.4193   52.9359 H   0  0  0  0  0  0
   -5.1192   28.5313   51.8084 H   0  0  0  0  0  0
   -6.0789   28.5466   49.4873 H   0  0  0  0  0  0
   -8.2542   29.0554   48.3350 H   0  0  0  0  0  0
   -6.9956   28.2314   47.3534 H   0  0  0  0  0  0
   -6.4438   24.8933   54.5097 H   0  0  0  0  0  0
   -5.2605   25.4185   56.8698 H   0  0  0  0  0  0
   -1.6808   28.7168   57.3136 H   0  0  0  0  0  0
   -2.3812   25.8012   57.8240 H   0  0  0  0  0  0
    0.0860   27.3980   57.2773 H   0  0  0  0  0  0
    0.1019   24.3767   57.6779 H   0  0  0  0  0  0
    0.6137   25.2922   56.2196 H   0  0  0  0  0  0
    2.5419   24.5367   57.6108 H   0  0  0  0  0  0
    2.4540   26.3257   57.4754 H   0  0  0  0  0  0
    1.0262   26.5945   60.9826 H   0  0  0  0  0  0
    1.5863   27.6233   59.6209 H   0  0  0  0  0  0
   -0.8141   27.6288   59.5672 H   0  0  0  0  0  0
   -0.8944   25.8447   59.7595 H   0  0  0  0  0  0
   -8.9702   28.8502   45.9456 H   0  0  0  0  0  0
  -10.0351   27.8913   47.0288 H   0  0  0  0  0  0
   -8.7765   27.0673   46.0472 H   0  0  0  0  0  0
    3.4035   22.4768   61.1739 H   0  0  0  0  0  0
    5.6123   22.5937   60.0158 H   0  0  0  0  0  0
    4.8894   21.8738   58.5373 H   0  0  0  0  0  0
    5.0278   20.8953   60.0373 H   0  0  0  0  0  0
    1.3855   21.7962   59.8854 H   0  0  0  0  0  0
    2.5464   20.4275   59.9610 H   0  0  0  0  0  0
    2.4081   21.4060   58.4610 H   0  0  0  0  0  0
  1  2  2  0  0  0
  1  6  1  0  0  0
  1  7  1  0  0  0
  2  3  1  0  0  0
  2 35  1  0  0  0
  3  4  2  0  0  0
  3 36  1  0  0  0
  4  5  1  0  0  0
  4  9  1  0  0  0
  5  6  2  0  0  0
  5 37  1  0  0  0
  6 38  1  0  0  0
  7  8  1  0  0  0
  8 28  1  0  0  0
  8 39  1  0  0  0
  8 40  1  0  0  0
  9 10  2  0  0  0
  9 13  1  0  0  0
 10 11  1  0  0  0
 10 41  1  0  0  0
 11 12  2  0  0  0
 11 42  1  0  0  0
 12 13  1  0  0  0
 12 14  1  0  0  0
 14 15  1  0  0  0
 14 16  2  0  0  0
 14 17  2  0  0  0
 15 18  1  0  0  0
 15 43  1  0  0  0
 18 19  1  0  0  0
 18 22  1  0  0  0
 18 44  1  0  0  0
 19 20  1  0  0  0
 19 21  2  0  0  0
 22 23  1  0  0  0
 22 27  1  0  0  0
 22 45  1  0  0  0
 23 24  1  0  0  0
 23 46  1  0  0  0
 23 47  1  0  0  0
 24 25  1  0  0  0
 24 48  1  0  0  0
 24 49  1  0  0  0
 25 26  1  0  0  0
 25 29  1  0  0  0
 26 27  1  0  0  0
 26 50  1  0  0  0
 26 51  1  0  0  0
 27 52  1  0  0  0
 27 53  1  0  0  0
 28 54  1  0  0  0
 28 55  1  0  0  0
 28 56  1  0  0  0
 29 30  1  0  0  0
 29 31  2  0  0  0
 30 32  1  0  0  0
 32 33  1  0  0  0
 32 34  1  0  0  0
 32 57  1  0  0  0
 33 58  1  0  0  0
 33 59  1  0  0  0
 33 60  1  0  0  0
 34 61  1  0  0  0
 34 62  1  0  0  0
 34 63  1  0  0  0
M  CHG  1  20  -1
M  END
> <s_m_source_file>
../3elm_ligand.sdf

> <i_m_source_file_index>
1

> <s_epik_input>
W0NIM11bQ0gyXU9jMVtjSF1bY0hdYyhbY0hdW2NIXTEpLWMyW2NIXVtjSF1jKHMyKVMoPU8pKD1PKVtOSF1bQ0BASF0oQyg9TylbT0hdKVtDSF0zW0NIMl1bQ0gyXU4oW0NIMl1bQ0gyXTMpQyg9TylPW0NIXShbQ0gzXSlbQ0gzXQ==

> <s_epik_cmdline>
J2VwaWtfYXBwJywgJy1pbWFlJywgJ2xpZ2FuZF9wcm8ubWFlJywgJy1vbWFlJywgJ2xpZ2FuZF9wcmVwLm1hZScsICctbXMnLCAnMScsICctcGgnLCAnNycsICctcGh0JywgJzAuNScsICctbnQn

> <r_lp_tautomer_probability>
1

> <r_epik_Ionization_Penalty>
  0.0011

> <r_epik_Ionization_Penalty_Charging>
  0.0001

> <r_epik_Ionization_Penalty_Neutral>
  0.0010

> <r_epik_State_Penalty>
 -0.0000

> <r_epik_Charging_Adjusted_Penalty>
0.000109652803590831

> <i_epik_Tot_Q>
-1

> <i_epik_Tot_abs_Q>
1

> <s_epik_Chemistry_Notes>
This compound has an ester and may undergo hydrolysis at high or low pH.

$$$$
