3emg_ligand
                    3D
 Schrodinger Suite 2020-3.
 51 53  0  0  1  0            999 V2000
   15.7190   39.6340    6.3370 C   0  0  0  0  0  0
   14.5590   38.8840    6.9040 C   0  0  1  0  0  0
   15.1970   37.6190    7.2780 C   0  0  0  0  0  0
   15.2430   37.1750    5.9480 O   0  0  0  0  0  0
   13.9660   39.5200    8.0260 N   0  0  0  0  0  0
   12.7120   39.6910    8.1220 C   0  0  0  0  0  0
   12.1050   39.2640    7.2770 O   0  0  0  0  0  0
   12.1660   40.3430    9.3120 C   0  0  0  0  0  0
   12.7940   41.7140   10.0650 S   0  0  0  0  0  0
   11.6680   41.7020   11.1760 C   0  0  0  0  0  0
   10.9430   40.7210   11.0000 N   0  0  0  0  0  0
   11.1030   39.9920   10.0550 C   0  0  0  0  0  0
   10.1970   38.8610    9.8350 C   0  0  0  0  0  0
   11.5740   42.6030   12.2620 C   0  0  0  0  0  0
   10.5490   42.6030   13.1230 C   0  0  0  0  0  0
   10.6700   43.4750   14.1260 C   0  0  0  0  0  0
   11.6530   44.2590   14.2790 N   0  0  0  0  0  0
   12.6110   44.1580   13.4980 C   0  0  0  0  0  0
   13.6640   44.9360   13.7070 N   0  0  0  0  0  0
   14.8490   44.9240   13.0370 C   0  0  0  0  0  0
   15.1010   44.1790   11.9450 C   0  0  0  0  0  0
   16.3550   44.2380   11.3560 C   0  0  0  0  0  0
   16.7570   43.4330   10.1780 C   0  0  0  0  0  0
   17.2970   45.0740   11.8300 C   0  0  0  0  0  0
   17.0420   45.8220   12.9190 C   0  0  0  0  0  0
   18.1270   46.6820   13.4620 C   0  0  0  0  0  0
   15.8300   45.7480   13.5260 C   0  0  0  0  0  0
   12.5870   43.3520   12.5060 N   0  0  0  0  0  0
   16.1252   39.0842    5.4752 H   0  0  0  0  0  0
   16.4988   39.7389    7.1057 H   0  0  0  0  0  0
   15.3875   40.6314    6.0124 H   0  0  0  0  0  0
   13.6906   38.7968    6.2345 H   0  0  0  0  0  0
   16.1584   37.8250    7.7713 H   0  0  0  0  0  0
   14.5415   37.0677    7.9682 H   0  0  0  0  0  0
   15.6748   36.1914    5.7111 H   0  0  0  0  0  0
   14.5979   39.8835    8.8497 H   0  0  0  0  0  0
   10.5027   38.3172    8.9290 H   0  0  0  0  0  0
    9.1695   39.2333    9.7101 H   0  0  0  0  0  0
   10.2390   38.1838   10.7008 H   0  0  0  0  0  0
    9.6868   41.9451   13.0139 H   0  0  0  0  0  0
    9.8685   43.5153   14.8636 H   0  0  0  0  0  0
   13.6361   45.6981   14.4997 H   0  0  0  0  0  0
   14.3268   43.5353   11.5275 H   0  0  0  0  0  0
   15.9204   42.7875    9.8722 H   0  0  0  0  0  0
   17.6249   42.8095   10.4389 H   0  0  0  0  0  0
   17.0240   44.1046    9.3488 H   0  0  0  0  0  0
   18.2644   45.1450   11.3329 H   0  0  0  0  0  0
   19.0180   46.5954   12.8228 H   0  0  0  0  0  0
   18.3755   46.3577   14.4833 H   0  0  0  0  0  0
   17.7900   47.7289   13.4815 H   0  0  0  0  0  0
   15.6342   46.3508   14.4128 H   0  0  0  0  0  0
  1  2  1  0  0  0
  1 29  1  0  0  0
  1 30  1  0  0  0
  1 31  1  0  0  0
  2  3  1  0  0  0
  2  5  1  0  0  0
  2 32  1  0  0  0
  3  4  1  0  0  0
  3 33  1  0  0  0
  3 34  1  0  0  0
  4 35  1  0  0  0
  5  6  1  0  0  0
  5 36  1  0  0  0
  6  7  2  0  0  0
  6  8  1  0  0  0
  8  9  1  0  0  0
  8 12  2  0  0  0
  9 10  1  0  0  0
 10 11  2  0  0  0
 10 14  1  0  0  0
 11 12  1  0  0  0
 12 13  1  0  0  0
 13 37  1  0  0  0
 13 38  1  0  0  0
 13 39  1  0  0  0
 14 15  2  0  0  0
 14 28  1  0  0  0
 15 16  1  0  0  0
 15 40  1  0  0  0
 16 17  2  0  0  0
 16 41  1  0  0  0
 17 18  1  0  0  0
 18 19  1  0  0  0
 18 28  2  0  0  0
 19 20  1  0  0  0
 19 42  1  0  0  0
 20 21  2  0  0  0
 20 27  1  0  0  0
 21 22  1  0  0  0
 21 43  1  0  0  0
 22 23  1  0  0  0
 22 24  2  0  0  0
 23 44  1  0  0  0
 23 45  1  0  0  0
 23 46  1  0  0  0
 24 25  1  0  0  0
 24 47  1  0  0  0
 25 26  1  0  0  0
 25 27  2  0  0  0
 26 48  1  0  0  0
 26 49  1  0  0  0
 26 50  1  0  0  0
 27 51  1  0  0  0
M  END
> <s_m_source_file>
../3emg_ligand.sdf

> <i_m_source_file_index>
1

> <s_epik_input>
W09IXVtDSDJdW0NASF0oW0NIM10pW05IXUMoPU8pYzFzYyhuYzFbQ0gzXSktYzJbY0hdW2NIXW5jKG4yKVtOSF1jM1tjSF1jKFtDSDNdKVtjSF1jKFtDSDNdKVtjSF0z

> <s_epik_cmdline>
J2VwaWtfYXBwJywgJy1pbWFlJywgJ2xpZ2FuZF9wcm8ubWFlJywgJy1vbWFlJywgJ2xpZ2FuZF9wcmVwLm1hZScsICctbXMnLCAnMScsICctcGgnLCAnNycsICctcGh0JywgJzAuNScsICctbnQn

> <r_lp_tautomer_probability>
1

> <r_epik_Ionization_Penalty>
  0.0000

> <r_epik_Ionization_Penalty_Charging>
  0.0000

> <r_epik_Ionization_Penalty_Neutral>
  0.0000

> <r_epik_State_Penalty>
 -0.0000

> <r_epik_Charging_Adjusted_Penalty>
0

> <i_epik_Tot_Q>
0

> <i_epik_Tot_abs_Q>
0

$$$$
