3emh_ligand
                    3D
 Schrodinger Suite 2020-3.
 94 94  0  0  1  0            999 V2000
  -11.0330  -29.4700   -7.2430 N   0  3  0  0  0  0
  -11.5000  -28.0760   -7.4810 C   0  0  2  0  0  0
  -13.0230  -27.9930   -7.4510 C   0  0  0  0  0  0
  -13.7140  -29.0100   -7.4680 O   0  0  0  0  0  0
  -10.9710  -27.5660   -8.8160 C   0  0  0  0  0  0
  -13.5290  -26.7660   -7.4200 N   0  0  0  0  0  0
  -14.9610  -26.4930   -7.3580 C   0  0  2  0  0  0
  -15.8180  -27.2780   -8.3460 C   0  0  0  0  0  0
  -16.9610  -27.6200   -8.0450 O   0  0  0  0  0  0
  -15.1940  -24.9930   -7.5520 C   0  0  0  0  0  0
  -16.6080  -24.5230   -7.2400 C   0  0  0  0  0  0
  -16.7220  -23.0200   -7.4350 C   0  0  0  0  0  0
  -15.8370  -22.2760   -6.5400 N   0  0  0  0  0  0
  -16.1990  -21.7900   -5.3590 C   0  0  0  0  0  0
  -17.4390  -21.9660   -4.9200 N   0  0  0  0  0  0
  -15.3220  -21.1290   -4.6140 N   0  3  0  0  0  0
  -15.2690  -27.5600   -9.5240 N   0  0  0  0  0  0
  -16.0020  -28.2920  -10.5500 C   0  0  2  0  0  0
  -16.2390  -29.7590  -10.1930 C   0  0  0  0  0  0
  -16.9740  -30.4590  -10.8910 O   0  0  0  0  0  0
  -15.2660  -28.1910  -11.8820 C   0  0  0  0  0  0
  -15.6180  -30.2200   -9.1100 N   0  0  0  0  0  0
  -15.7620  -31.6040   -8.6630 C   0  0  2  0  0  0
  -16.4910  -31.6700   -7.3230 C   0  0  0  0  0  0
  -16.3380  -30.7850   -6.4810 O   0  0  0  0  0  0
  -14.3860  -32.2590   -8.5160 C   0  0  0  0  0  0
  -13.5640  -32.2950   -9.7920 C   0  0  0  0  0  0
  -12.1870  -32.8910   -9.5720 C   0  0  0  0  0  0
  -12.1080  -34.0430   -9.0950 O   0  0  0  0  0  0
  -11.1850  -32.2090   -9.8760 O   0  5  0  0  0  0
  -17.2750  -32.7250   -7.1260 N   0  0  0  0  0  0
  -18.0230  -32.8980   -5.8840 C   0  0  2  0  0  0
  -17.1240  -33.4000   -4.7570 C   0  0  0  0  0  0
  -16.2800  -34.2700   -4.9680 O   0  0  0  0  0  0
  -19.1830  -33.9060   -6.0650 C   0  0  0  0  0  0
  -19.9320  -34.0800   -4.7550 C   0  0  0  0  0  0
  -20.1270  -33.4270   -7.1540 C   0  0  0  0  0  0
  -17.3020  -32.8430   -3.5620 N   0  0  0  0  0  0
  -16.5150  -33.2580   -2.4060 C   0  0  2  0  0  0
  -17.3290  -34.2140   -1.5420 C   0  0  0  0  0  0
  -16.8732  -35.3716   -1.3423 O   0  5  0  0  0  0
  -16.1000  -32.0490   -1.5620 C   0  0  0  0  0  0
  -15.4120  -32.4180   -0.2830 C   0  0  0  0  0  0
  -14.2140  -33.0980   -0.2530 N   0  0  0  0  0  0
  -15.7690  -32.2280    1.0090 C   0  0  0  0  0  0
  -13.8620  -33.3110    1.0030 C   0  0  0  0  0  0
  -14.7890  -32.7940    1.7890 N   0  0  0  0  0  0
  -18.4283  -33.8563   -1.0408 O   0  0  0  0  0  0
  -11.4208  -29.8268   -6.2774 H   0  0  0  0  0  0
   -9.9333  -29.4905   -7.2266 H   0  0  0  0  0  0
  -11.4000  -30.1223   -8.0491 H   0  0  0  0  0  0
  -11.0959  -27.4618   -6.6628 H   0  0  0  0  0  0
   -9.8730  -27.6312   -8.8243 H   0  0  0  0  0  0
  -11.2772  -26.5188   -8.9558 H   0  0  0  0  0  0
  -11.3810  -28.1799   -9.6315 H   0  0  0  0  0  0
  -12.8108  -25.9331   -7.4433 H   0  0  0  0  0  0
  -15.2369  -26.8495   -6.3546 H   0  0  0  0  0  0
  -14.5187  -24.4287   -6.8921 H   0  0  0  0  0  0
  -14.9933  -24.7232   -8.5993 H   0  0  0  0  0  0
  -17.3184  -25.0263   -7.9123 H   0  0  0  0  0  0
  -16.8541  -24.7685   -6.1964 H   0  0  0  0  0  0
  -16.4537  -22.7632   -8.4704 H   0  0  0  0  0  0
  -17.7556  -22.7016   -7.2343 H   0  0  0  0  0  0
  -14.7933  -22.0865   -6.8311 H   0  0  0  0  0  0
  -18.1679  -22.5135   -5.5356 H   0  0  0  0  0  0
  -17.7379  -21.5643   -3.9405 H   0  0  0  0  0  0
  -14.2936  -20.9817   -4.9756 H   0  0  0  0  0  0
  -14.2381  -27.2278   -9.7159 H   0  0  0  0  0  0
  -16.9794  -27.7890  -10.5905 H   0  0  0  0  0  0
  -15.1003  -27.1322  -12.1300 H   0  0  0  0  0  0
  -15.8701  -28.6623  -12.6713 H   0  0  0  0  0  0
  -14.2969  -28.7057  -11.8053 H   0  0  0  0  0  0
  -14.9804  -29.5234   -8.5459 H   0  0  0  0  0  0
  -16.3558  -32.1017   -9.4438 H   0  0  0  0  0  0
  -13.7946  -31.7065   -7.7710 H   0  0  0  0  0  0
  -14.5093  -33.3012   -8.1865 H   0  0  0  0  0  0
  -14.0832  -32.9054  -10.5455 H   0  0  0  0  0  0
  -13.4354  -31.2716  -10.1743 H   0  0  0  0  0  0
  -17.3533  -33.4774   -7.9246 H   0  0  0  0  0  0
  -18.3916  -31.8861   -5.6600 H   0  0  0  0  0  0
  -18.7850  -34.8865   -6.3652 H   0  0  0  0  0  0
  -19.2353  -34.4268   -3.9776 H   0  0  0  0  0  0
  -20.7334  -34.8219   -4.8866 H   0  0  0  0  0  0
  -20.3696  -33.1173   -4.4522 H   0  0  0  0  0  0
  -19.5701  -33.3061   -8.0949 H   0  0  0  0  0  0
  -20.5654  -32.4617   -6.8607 H   0  0  0  0  0  0
  -20.9292  -34.1663   -7.2951 H   0  0  0  0  0  0
  -18.0613  -32.0542   -3.4559 H   0  0  0  0  0  0
  -15.6268  -33.7583   -2.8194 H   0  0  0  0  0  0
  -16.2620  -30.9905   -1.8139 H   0  0  0  0  0  0
  -16.6344  -31.7401    1.4812 H   0  0  0  0  0  0
  -12.9600  -33.8258    1.3339 H   0  0  0  0  0  0
  -13.7134  -33.3720   -1.1934 H   0  0  0  0  0  0
  -15.6234  -20.7283   -3.6349 H   0  0  0  0  0  0
  1  2  1  0  0  0
  1 49  1  0  0  0
  1 50  1  0  0  0
  1 51  1  0  0  0
  2  3  1  0  0  0
  2  5  1  0  0  0
  2 52  1  0  0  0
  3  4  2  0  0  0
  3  6  1  0  0  0
  5 53  1  0  0  0
  5 54  1  0  0  0
  5 55  1  0  0  0
  6  7  1  0  0  0
  6 56  1  0  0  0
  7  8  1  0  0  0
  7 10  1  0  0  0
  7 57  1  0  0  0
  8  9  2  0  0  0
  8 17  1  0  0  0
 10 11  1  0  0  0
 10 58  1  0  0  0
 10 59  1  0  0  0
 11 12  1  0  0  0
 11 60  1  0  0  0
 11 61  1  0  0  0
 12 13  1  0  0  0
 12 62  1  0  0  0
 12 63  1  0  0  0
 13 14  1  0  0  0
 13 64  1  0  0  0
 14 15  1  0  0  0
 14 16  2  0  0  0
 15 65  1  0  0  0
 15 66  1  0  0  0
 16 67  1  0  0  0
 16 94  1  0  0  0
 17 18  1  0  0  0
 17 68  1  0  0  0
 18 19  1  0  0  0
 18 21  1  0  0  0
 18 69  1  0  0  0
 19 20  2  0  0  0
 19 22  1  0  0  0
 21 70  1  0  0  0
 21 71  1  0  0  0
 21 72  1  0  0  0
 22 23  1  0  0  0
 22 73  1  0  0  0
 23 24  1  0  0  0
 23 26  1  0  0  0
 23 74  1  0  0  0
 24 25  2  0  0  0
 24 31  1  0  0  0
 26 27  1  0  0  0
 26 75  1  0  0  0
 26 76  1  0  0  0
 27 28  1  0  0  0
 27 77  1  0  0  0
 27 78  1  0  0  0
 28 29  2  0  0  0
 28 30  1  0  0  0
 31 32  1  0  0  0
 31 79  1  0  0  0
 32 33  1  0  0  0
 32 35  1  0  0  0
 32 80  1  0  0  0
 33 34  2  0  0  0
 33 38  1  0  0  0
 35 36  1  0  0  0
 35 37  1  0  0  0
 35 81  1  0  0  0
 36 82  1  0  0  0
 36 83  1  0  0  0
 36 84  1  0  0  0
 37 85  1  0  0  0
 37 86  1  0  0  0
 37 87  1  0  0  0
 38 39  1  0  0  0
 38 88  1  0  0  0
 39 40  1  0  0  0
 39 42  1  0  0  0
 39 89  1  0  0  0
 40 41  1  0  0  0
 40 48  2  0  0  0
 42 43  2  0  0  0
 42 90  1  0  0  0
 43 44  1  0  0  0
 43 45  1  0  0  0
 44 46  1  0  0  0
 44 93  1  0  0  0
 45 47  2  0  0  0
 45 91  1  0  0  0
 46 47  1  0  0  0
 46 92  1  0  0  0
M  CHG  4   1   1  16   1  30  -1  41  -1
M  END
> <s_m_source_file>
../3emh_ligand.sdf

> <i_m_source_file_index>
1

> <s_epik_input>
W0hdL049QyhbTkgyXSlcW05IXVtDSDJdW0NIMl1bQ0gyXVtDQEhdKFtOSF1DKD1PKVtDQEBIXShbTkgzK10pW0NIM10pQyg9TylbTkhdW0NAQEhdKFtDSDNdKUMoPU8pW05IXVtDQEBIXShbQ0gyXVtDSDJdQyg9TylbT0hdKUMoPU8pW05IXVtDQEBIXShbQ0hdKFtDSDNdKVtDSDNdKUMoPU8pW05IXVtDQEhdKEMoPU8pW09IXSlbQ0gyXUMxPU5bQ0gyXU49W0NIXTE=

> <s_epik_cmdline>
J2VwaWtfYXBwJywgJy1pbWFlJywgJ2xpZ2FuZF9wcm8ubWFlJywgJy1vbWFlJywgJ2xpZ2FuZF9wcmVwLm1hZScsICctbXMnLCAnMScsICctcGgnLCAnNycsICctcGh0JywgJzAuNScsICctbnQn

> <r_epik_Ionization_Penalty>
  0.1269

> <r_epik_Ionization_Penalty_Charging>
  0.1268

> <r_epik_Ionization_Penalty_Neutral>
  0.0000

> <r_epik_State_Penalty>
  0.1145

> <r_epik_Charging_Adjusted_Penalty>
0.241380630098268

> <i_epik_Tot_Q>
0

> <i_epik_Tot_abs_Q>
4

> <s_epik_Chemistry_Notes>
This compound has an imine and may undergo hydrolysis.

$$$$
