3eml_ligand
                    3D
 Schrodinger Suite 2020-3.
 40 43  0  0  1  0            999 V2000
  -10.9920   -8.7960   60.6170 C   0  0  0  0  0  0
  -11.2410   -8.2970   61.8890 C   0  0  0  0  0  0
  -11.9840   -7.1330   62.0450 C   0  0  0  0  0  0
  -12.2310   -6.6380   63.2860 O   0  0  0  0  0  0
  -12.4760   -6.4690   60.9280 C   0  0  0  0  0  0
  -12.2300   -6.9690   59.6570 C   0  0  0  0  0  0
  -11.4920   -8.1350   59.5010 C   0  0  0  0  0  0
  -11.2080   -8.6770   58.1010 C   0  0  0  0  0  0
   -9.7460   -9.1040   58.0060 C   0  0  0  0  0  0
   -9.4200   -9.5440   56.6440 N   0  0  0  0  0  0
   -8.9530   -8.5930   55.8420 C   0  0  0  0  0  0
   -8.5850   -8.8570   54.5780 N   0  0  0  0  0  0
   -8.8330   -7.3590   56.3580 N   0  0  0  0  0  0
   -8.3650   -6.3420   55.6260 C   0  0  0  0  0  0
   -8.2660   -5.1250   56.1560 N   0  0  0  0  0  0
   -7.9810   -6.5820   54.3090 N   0  0  0  0  0  0
   -7.5250   -5.8520   53.4280 N   0  0  0  0  0  0
   -8.1040   -7.8740   53.8000 C   0  0  0  0  0  0
   -7.6760   -7.8290   52.5440 N   0  0  0  0  0  0
   -7.3130   -6.5650   52.3200 C   0  0  0  0  0  0
   -6.8090   -6.0540   51.1310 C   0  0  0  0  0  0
   -6.5540   -6.6880   49.9910 C   0  0  0  0  0  0
   -6.0810   -5.7960   49.1210 C   0  0  0  0  0  0
   -6.0340   -4.5980   49.7030 C   0  0  0  0  0  0
   -6.4920   -4.7390   50.9840 O   0  0  0  0  0  0
  -10.4046   -9.7059   60.4938 H   0  0  0  0  0  0
  -10.8538   -8.8181   62.7646 H   0  0  0  0  0  0
  -11.8437   -7.1600   64.1734 H   0  0  0  0  0  0
  -13.0559   -5.5542   61.0502 H   0  0  0  0  0  0
  -12.6159   -6.4467   58.7815 H   0  0  0  0  0  0
  -11.8561   -9.5439   57.9050 H   0  0  0  0  0  0
  -11.4095   -7.8928   57.3564 H   0  0  0  0  0  0
   -9.0982   -8.2549   58.2693 H   0  0  0  0  0  0
   -9.5610   -9.9358   58.7016 H   0  0  0  0  0  0
   -9.5685  -10.5950   56.3552 H   0  0  0  0  0  0
   -8.5736   -4.9521   57.1979 H   0  0  0  0  0  0
   -7.8766   -4.2921   55.5521 H   0  0  0  0  0  0
   -6.7051   -7.7506   49.8010 H   0  0  0  0  0  0
   -5.7802   -6.0121   48.0958 H   0  0  0  0  0  0
   -5.6919   -3.6719   49.2410 H   0  0  0  0  0  0
  1  2  2  0  0  0
  1  7  1  0  0  0
  1 26  1  0  0  0
  2  3  1  0  0  0
  2 27  1  0  0  0
  3  4  1  0  0  0
  3  5  2  0  0  0
  4 28  1  0  0  0
  5  6  1  0  0  0
  5 29  1  0  0  0
  6  7  2  0  0  0
  6 30  1  0  0  0
  7  8  1  0  0  0
  8  9  1  0  0  0
  8 31  1  0  0  0
  8 32  1  0  0  0
  9 10  1  0  0  0
  9 33  1  0  0  0
  9 34  1  0  0  0
 10 11  1  0  0  0
 10 35  1  0  0  0
 11 12  2  0  0  0
 11 13  1  0  0  0
 12 18  1  0  0  0
 13 14  2  0  0  0
 14 15  1  0  0  0
 14 16  1  0  0  0
 15 36  1  0  0  0
 15 37  1  0  0  0
 16 17  1  0  0  0
 16 18  1  0  0  0
 17 20  2  0  0  0
 18 19  2  0  0  0
 19 20  1  0  0  0
 20 21  1  0  0  0
 21 22  2  0  0  0
 21 25  1  0  0  0
 22 23  1  0  0  0
 22 38  1  0  0  0
 23 24  2  0  0  0
 23 39  1  0  0  0
 24 25  1  0  0  0
 24 40  1  0  0  0
M  END
> <s_m_source_file>
../3eml_ligand.sdf

> <i_m_source_file_index>
1

> <s_epik_input>
W09IXWMxW2NIXVtjSF1jKFtjSF1bY0hdMSlbQ0gyXVtDSDJdW05IXWMobmMyW05IMl0pbmMobjIzKW5jKG4zKS1jNFtjSF1bY0hdW2NIXW80

> <s_epik_cmdline>
J2VwaWtfYXBwJywgJy1pbWFlJywgJ2xpZ2FuZF9wcm8ubWFlJywgJy1vbWFlJywgJ2xpZ2FuZF9wcmVwLm1hZScsICctbXMnLCAnMScsICctcGgnLCAnNycsICctcGh0JywgJzAuNScsICctbnQn

> <r_lp_tautomer_probability>
1

> <r_epik_Ionization_Penalty>
  0.0005

> <r_epik_Ionization_Penalty_Charging>
  0.0000

> <r_epik_Ionization_Penalty_Neutral>
  0.0005

> <r_epik_State_Penalty>
 -0.0000

> <r_epik_Charging_Adjusted_Penalty>
0

> <i_epik_Tot_Q>
0

> <i_epik_Tot_abs_Q>
0

$$$$
