3ens_ligand
                    3D
 Schrodinger Suite 2020-3.
 64 67  0  0  1  0            999 V2000
    0.6170    8.1870   25.4980 C   0  0  0  0  0  0
    5.8680    5.3800   28.1720 C   0  0  0  0  0  0
    6.9920    5.2600   27.3440 C   0  0  0  0  0  0
    4.6010    5.6490   27.6210 C   0  0  0  0  0  0
    7.6980    5.3510   24.9320 C   0  0  0  0  0  0
    6.9700    5.5840   23.7740 C   0  0  0  0  0  0
    6.8030    5.4170   25.9730 C   0  0  0  0  0  0
    5.5770    5.6860   25.4230 C   0  0  3  0  0  0
    4.4300    5.8120   26.2140 C   0  0  0  0  0  0
    3.3450    9.6740   28.3840 C   0  0  0  0  0  0
    1.0930    7.0690   25.7310 C   0  0  0  0  0  0
    2.4350    7.0030   26.1770 C   0  0  0  0  0  0
    0.4360    5.9530   25.3090 C   0  0  0  0  0  0
    4.6520   12.7070   29.2470 C   0  0  0  0  0  0
    0.3930    9.2050   29.6210 C   0  0  0  0  0  0
    0.9080   10.5180   30.2160 C   0  0  0  0  0  0
    7.2730   15.0700   30.0530 C   0  0  0  0  0  0
    6.9930   14.3830   31.3860 C   0  0  0  0  0  0
    1.5170    8.2800   29.1320 C   0  0  0  0  0  0
    1.7170   11.3370   29.2050 C   0  0  0  0  0  0
    6.1560   14.5910   29.1330 C   0  0  0  0  0  0
    6.3060   13.0800   30.9960 C   0  0  0  0  0  0
    2.3230    8.8490   27.9370 C   0  0  2  0  0  0
   -1.3510    4.8650   24.4670 C   0  0  0  0  0  0
    4.1220   11.4510   29.9040 C   0  0  0  0  0  0
    0.1150    9.4280   25.2900 N   0  0  0  0  0  0
    5.6680    5.7920   24.0800 N   0  0  0  0  0  0
    3.0750   10.8170   29.1000 N   0  0  0  0  0  0
    5.6320   13.3960   29.7570 N   0  0  0  0  0  0
    3.2300    6.1280   25.6340 N   0  0  0  0  0  0
    2.9280    7.7200   27.2430 N   0  0  0  0  0  0
    4.6300    9.2240   28.2990 O   0  0  0  0  0  0
    1.0630    4.7390   25.3930 O   0  0  0  0  0  0
    4.1220   13.0750   28.0580 O   0  0  0  0  0  0
   -0.6890    6.0880   24.7320 O   0  0  0  0  0  0
    9.4200    5.0590   25.0540 Cl  0  0  0  0  0  0
    5.9721    5.2639   29.2609 H   0  0  0  0  0  0
    7.9784    5.0491   27.7828 H   0  0  0  0  0  0
    3.7348    5.7331   28.2937 H   0  0  0  0  0  0
    7.3005    5.6165   22.7253 H   0  0  0  0  0  0
   -0.1801    8.6569   30.3833 H   0  0  0  0  0  0
   -0.2563    9.4223   28.7601 H   0  0  0  0  0  0
    0.0558   11.1302   30.5460 H   0  0  0  0  0  0
    1.5582   10.3007   31.0762 H   0  0  0  0  0  0
    7.2506   16.1611   30.1910 H   0  0  0  0  0  0
    8.2646   14.7672   29.6856 H   0  0  0  0  0  0
    7.9416   14.2080   31.9147 H   0  0  0  0  0  0
    6.3441   15.0247   32.0001 H   0  0  0  0  0  0
    2.2297    8.1043   29.9512 H   0  0  0  0  0  0
    1.0874    7.3207   28.8077 H   0  0  0  0  0  0
    1.2347   11.2809   28.2180 H   0  0  0  0  0  0
    1.7596   12.3860   29.5332 H   0  0  0  0  0  0
    5.3871   15.3734   29.0517 H   0  0  0  0  0  0
    6.5685   14.3772   28.1359 H   0  0  0  0  0  0
    7.0619   12.2914   30.8667 H   0  0  0  0  0  0
    5.6010   12.7859   31.7876 H   0  0  0  0  0  0
    1.7320    9.4775   27.2546 H   0  0  0  0  0  0
   -2.3109    5.0680   23.9696 H   0  0  0  0  0  0
   -1.5332    4.3342   25.4131 H   0  0  0  0  0  0
   -0.7232    4.2426   23.8124 H   0  0  0  0  0  0
    4.9428   10.7301   30.0325 H   0  0  0  0  0  0
    3.6977   11.7025   30.8872 H   0  0  0  0  0  0
    2.9269    5.6397   24.6961 H   0  0  0  0  0  0
    3.9092    7.3394   27.5630 H   0  0  0  0  0  0
  1 11  1  0  0  0
  1 26  3  0  0  0
  2  3  2  0  0  0
  2  4  1  0  0  0
  2 37  1  0  0  0
  3  7  1  0  0  0
  3 38  1  0  0  0
  4  9  2  0  0  0
  4 39  1  0  0  0
  5  6  1  0  0  0
  5  7  2  0  0  0
  5 36  1  0  0  0
  6 27  2  0  0  0
  6 40  1  0  0  0
  7  8  1  0  0  0
  8  9  1  0  0  0
  8 27  1  0  0  0
  9 30  1  0  0  0
 10 23  1  0  0  0
 10 28  1  0  0  0
 10 32  2  0  0  0
 11 12  2  0  0  0
 11 13  1  0  0  0
 12 30  1  0  0  0
 12 31  1  0  0  0
 13 33  2  0  0  0
 13 35  1  0  0  0
 14 25  1  0  0  0
 14 29  1  0  0  0
 14 34  2  0  0  0
 15 16  1  0  0  0
 15 19  1  0  0  0
 15 41  1  0  0  0
 15 42  1  0  0  0
 16 20  1  0  0  0
 16 43  1  0  0  0
 16 44  1  0  0  0
 17 18  1  0  0  0
 17 21  1  0  0  0
 17 45  1  0  0  0
 17 46  1  0  0  0
 18 22  1  0  0  0
 18 47  1  0  0  0
 18 48  1  0  0  0
 19 23  1  0  0  0
 19 49  1  0  0  0
 19 50  1  0  0  0
 20 28  1  0  0  0
 20 51  1  0  0  0
 20 52  1  0  0  0
 21 29  1  0  0  0
 21 53  1  0  0  0
 21 54  1  0  0  0
 22 29  1  0  0  0
 22 55  1  0  0  0
 22 56  1  0  0  0
 23 31  1  0  0  0
 23 57  1  0  0  0
 24 35  1  0  0  0
 24 58  1  0  0  0
 24 59  1  0  0  0
 24 60  1  0  0  0
 25 28  1  0  0  0
 25 61  1  0  0  0
 25 62  1  0  0  0
 30 63  1  0  0  0
 31 64  1  0  0  0
M  END
> <s_m_source_file>
../3ens_ligand.sdf

> <i_m_source_file_index>
1

> <s_epik_input>
Q2xDPTFbQ0hdPU5bQ0hdKEMxMilDKD1bQ0hdW0NIXT1bQ0hdMilbTkhdXEMoPUMoXEMjTilDKD1PKU9bQ0gzXSlbTkhdW0NASF0oQzM9TylbQ0gyXVtDSDJdW0NIMl1bQ0gyXU4zW0NIMl1DKD1PKU40W0NIMl1bQ0gyXVtDSDJdW0NIMl00

> <s_epik_cmdline>
J2VwaWtfYXBwJywgJy1pbWFlJywgJ2xpZ2FuZF9wcm8ubWFlJywgJy1vbWFlJywgJ2xpZ2FuZF9wcmVwLm1hZScsICctbXMnLCAnMScsICctcGgnLCAnNycsICctcGh0JywgJzAuNScsICctbnQn

> <r_lp_tautomer_probability>
1

> <r_epik_Ionization_Penalty>
  0.0000

> <r_epik_Ionization_Penalty_Charging>
  0.0000

> <r_epik_Ionization_Penalty_Neutral>
  0.0000

> <r_epik_State_Penalty>
 -0.0000

> <r_epik_Charging_Adjusted_Penalty>
0

> <i_epik_Tot_Q>
0

> <i_epik_Tot_abs_Q>
0

> <s_epik_Chemistry_Notes>
This compound has an ester and may undergo hydrolysis at high or low pH. This compound has an imine and may undergo hydrolysis.

$$$$
