3eoc_ligand
                    3D
 Schrodinger Suite 2020-3.
 50 53  0  0  1  0            999 V2000
    0.0510   91.8050   30.5140 N   0  0  0  0  0  0
    0.6360   91.9280   32.8490 C   0  0  0  0  0  0
    0.4750   91.2270   31.6810 C   0  0  0  0  0  0
    0.6800   89.9050   31.3650 C   0  0  0  0  0  0
   -0.4080   91.1640   28.0970 C   0  0  0  0  0  0
   -1.0430   91.5730   25.4700 C   0  0  0  0  0  0
   -1.6450   91.6780   27.7820 C   0  0  0  0  0  0
   -0.6700   96.9130   28.5480 C   0  0  0  0  0  0
   -1.5440   97.9240   28.8830 C   0  0  0  0  0  0
   -2.0090   98.0210   30.1790 C   0  0  0  0  0  0
   -0.2530   93.2240   30.5070 N   0  0  0  0  0  0
   -0.0710   93.8260   31.6920 C   0  0  0  0  0  0
    0.3520   93.2350   32.8200 N   0  0  0  0  0  0
    0.3580   89.7700   30.0290 N   0  0  0  0  0  0
   -0.0260   90.9350   29.5040 C   0  0  0  0  0  0
    0.5120   90.8520   27.1190 C   0  0  0  0  0  0
    0.1940   91.0590   25.7960 C   0  0  0  0  0  0
   -1.9580   91.8800   26.4550 C   0  0  0  0  0  0
    1.1310   88.7590   32.1470 C   0  0  0  0  0  0
   -0.3290   95.2020   31.8210 N   0  0  0  0  0  0
   -0.7180   96.0940   30.8040 C   0  0  0  0  0  0
   -0.2560   96.0090   29.5070 C   0  0  0  0  0  0
   -1.5920   97.1090   31.1270 C   0  0  0  0  0  0
   -2.8960   99.0400   30.5040 O   0  0  0  0  0  0
   -2.7070   99.3690   31.8750 C   0  0  0  0  0  0
   -1.9560   98.8260   27.9150 O   0  0  0  0  0  0
   -1.0530   99.9230   27.9700 C   0  0  0  0  0  0
   -0.2110   96.8350   27.2440 O   0  0  0  0  0  0
    0.2610   95.5090   27.0460 C   0  0  0  0  0  0
    0.9805   91.4412   33.7614 H   0  0  0  0  0  0
   -1.3002   91.7383   24.4238 H   0  0  0  0  0  0
   -2.3626   91.9204   28.5658 H   0  0  0  0  0  0
    1.4852   90.4439   27.3917 H   0  0  0  0  0  0
    0.9135   90.8188   25.0132 H   0  0  0  0  0  0
   -2.9330   92.2842   26.1829 H   0  0  0  0  0  0
    1.3342   89.0772   33.1802 H   0  0  0  0  0  0
    2.0500   88.3501   31.7018 H   0  0  0  0  0  0
    0.3488   87.9856   32.1486 H   0  0  0  0  0  0
   -0.2321   95.6902   32.8020 H   0  0  0  0  0  0
    0.4442   95.2190   29.2356 H   0  0  0  0  0  0
   -1.9605   97.1931   32.1494 H   0  0  0  0  0  0
   -3.3996  100.1756   32.1574 H   0  0  0  0  0  0
   -1.6710   99.7035   32.0323 H   0  0  0  0  0  0
   -2.9042   98.4823   32.4954 H   0  0  0  0  0  0
   -1.3388  100.6713   27.2161 H   0  0  0  0  0  0
   -0.0321   99.5681   27.7657 H   0  0  0  0  0  0
   -1.0896  100.3782   28.9707 H   0  0  0  0  0  0
    0.6366   95.4032   26.0175 H   0  0  0  0  0  0
   -0.5623   94.7983   27.2106 H   0  0  0  0  0  0
    1.0740   95.2993   27.7566 H   0  0  0  0  0  0
  1  3  1  0  0  0
  1 11  1  0  0  0
  1 15  1  0  0  0
  2  3  1  0  0  0
  2 13  2  0  0  0
  2 30  1  0  0  0
  3  4  2  0  0  0
  4 14  1  0  0  0
  4 19  1  0  0  0
  5  7  2  0  0  0
  5 15  1  0  0  0
  5 16  1  0  0  0
  6 17  1  0  0  0
  6 18  2  0  0  0
  6 31  1  0  0  0
  7 18  1  0  0  0
  7 32  1  0  0  0
  8  9  2  0  0  0
  8 22  1  0  0  0
  8 28  1  0  0  0
  9 10  1  0  0  0
  9 26  1  0  0  0
 10 23  2  0  0  0
 10 24  1  0  0  0
 11 12  2  0  0  0
 12 13  1  0  0  0
 12 20  1  0  0  0
 14 15  2  0  0  0
 16 17  2  0  0  0
 16 33  1  0  0  0
 17 34  1  0  0  0
 18 35  1  0  0  0
 19 36  1  0  0  0
 19 37  1  0  0  0
 19 38  1  0  0  0
 20 21  1  0  0  0
 20 39  1  0  0  0
 21 22  2  0  0  0
 21 23  1  0  0  0
 22 40  1  0  0  0
 23 41  1  0  0  0
 24 25  1  0  0  0
 25 42  1  0  0  0
 25 43  1  0  0  0
 25 44  1  0  0  0
 26 27  1  0  0  0
 27 45  1  0  0  0
 27 46  1  0  0  0
 27 47  1  0  0  0
 28 29  1  0  0  0
 29 48  1  0  0  0
 29 49  1  0  0  0
 29 50  1  0  0  0
M  END
> <s_m_source_file>
../3eoc_ligand.sdf

> <i_m_source_file_index>
1

> <s_epik_input>
W2NIXTFbY0hdW2NIXVtjSF1bY0hdYzEtYzJuYyhbQ0gzXSljKG4yMylbY0hdbmMobjMpW05IXWMoW2NIXTQpW2NIXWMoT1tDSDNdKWMoT1tDSDNdKWM0T1tDSDNd

> <s_epik_cmdline>
J2VwaWtfYXBwJywgJy1pbWFlJywgJ2xpZ2FuZF9wcm8ubWFlJywgJy1vbWFlJywgJ2xpZ2FuZF9wcmVwLm1hZScsICctbXMnLCAnMScsICctcGgnLCAnNycsICctcGh0JywgJzAuNScsICctbnQn

> <r_lp_tautomer_probability>
1

> <r_epik_Ionization_Penalty>
  0.0082

> <r_epik_Ionization_Penalty_Charging>
  0.0000

> <r_epik_Ionization_Penalty_Neutral>
  0.0082

> <r_epik_State_Penalty>
 -0.0000

> <r_epik_Charging_Adjusted_Penalty>
0

> <i_epik_Tot_Q>
0

> <i_epik_Tot_abs_Q>
0

$$$$
