3eor_ligand
                    3D
 Schrodinger Suite 2020-3.
 31 31  0  0  1  0            999 V2000
  139.4770  101.0830   43.5270 O   0  5  0  0  0  0
  140.0950   99.8960   44.1150 P   0  0  0  0  0  0
  140.9030   99.0870   43.2120 O   0  0  0  0  0  0
  139.2450   99.1180   45.0070 O   0  0  0  0  0  0
  141.3260  100.6400   45.1830 C   0  0  0  0  0  0
  140.8440  101.0260   46.4580 O   0  0  0  0  0  0
  141.1170   99.9410   47.2670 C   0  0  1  0  0  0
  142.5430   99.8620   47.0690 C   0  0  0  0  0  0
  142.9990   99.0090   48.0760 O   0  0  0  0  0  0
  141.1050  100.1320   48.7410 C   0  0  0  0  0  0
  139.9510  100.9120   49.0900 N   0  0  0  0  0  0
  138.7110  100.5390   48.7120 C   0  0  0  0  0  0
  137.6590  101.3330   49.0640 C   0  0  0  0  0  0
  137.9080  102.4530   49.7810 C   0  0  0  0  0  0
  136.9260  103.2160   50.1250 N   0  0  0  0  0  0
  139.1270  102.7790   50.1280 N   0  0  0  0  0  0
  140.1330  102.0170   49.7900 C   0  0  0  0  0  0
  141.3710  102.3180   50.1280 O   0  0  0  0  0  0
  138.3949   98.5505   44.6005 H   0  0  0  0  0  0
  142.1436   99.9243   45.3542 H   0  0  0  0  0  0
  141.7262  101.5465   44.7053 H   0  0  0  0  0  0
  140.3866   99.1747   46.9681 H   0  0  0  0  0  0
  142.7523   99.4575   46.0677 H   0  0  0  0  0  0
  142.9817  100.8668   47.1576 H   0  0  0  0  0  0
  144.0708   98.7740   48.1542 H   0  0  0  0  0  0
  141.0595   99.1514   49.2374 H   0  0  0  0  0  0
  142.0207  100.6573   49.0502 H   0  0  0  0  0  0
  138.5534   99.6252   48.1391 H   0  0  0  0  0  0
  136.6414  101.0711   48.7743 H   0  0  0  0  0  0
  135.8974  102.9514   49.8386 H   0  0  0  0  0  0
  137.1174  104.1311   50.7047 H   0  0  0  0  0  0
  1  2  1  0  0  0
  2  3  2  0  0  0
  2  4  1  0  0  0
  2  5  1  0  0  0
  4 19  1  0  0  0
  5  6  1  0  0  0
  5 20  1  0  0  0
  5 21  1  0  0  0
  6  7  1  0  0  0
  7  8  1  0  0  0
  7 10  1  0  0  0
  7 22  1  0  0  0
  8  9  1  0  0  0
  8 23  1  0  0  0
  8 24  1  0  0  0
  9 25  1  0  0  0
 10 11  1  0  0  0
 10 26  1  0  0  0
 10 27  1  0  0  0
 11 12  1  0  0  0
 11 17  1  0  0  0
 12 13  2  0  0  0
 12 28  1  0  0  0
 13 14  1  0  0  0
 13 29  1  0  0  0
 14 15  1  0  0  0
 14 16  2  0  0  0
 15 30  1  0  0  0
 15 31  1  0  0  0
 16 17  1  0  0  0
 17 18  2  0  0  0
M  CHG  1   1  -1
M  END
> <s_m_source_file>
../3eor_ligand.sdf

> <i_m_source_file_index>
1

> <s_epik_input>
W09IXVAoPU8pKFtPSF0pW0NIMl1PW0NAQEhdKFtDSDJdW09IXSlbQ0gyXW4xW2NIXVtjSF0vYyg9TlxbSF0pW25IXWMxPU8=

> <s_epik_cmdline>
J2VwaWtfYXBwJywgJy1pbWFlJywgJ2xpZ2FuZF9wcm8ubWFlJywgJy1vbWFlJywgJ2xpZ2FuZF9wcmVwLm1hZScsICctbXMnLCAnMScsICctcGgnLCAnNycsICctcGh0JywgJzAuNScsICctbnQn

> <r_lp_tautomer_probability>
0.999959729267721

> <r_epik_Ionization_Penalty>
  0.3063

> <r_epik_Ionization_Penalty_Charging>
  0.0000

> <r_epik_Ionization_Penalty_Neutral>
  0.3062

> <r_epik_State_Penalty>
  0.2983

> <r_epik_Charging_Adjusted_Penalty>
0.298268160302649

> <i_epik_Tot_Q>
-1

> <i_epik_Tot_abs_Q>
1

$$$$
