3eos_ligand
                    3D
 Schrodinger Suite 2020-3.
 53 56  0  0  1  0            999 V2000
   18.1690   17.3800   22.8140 C   0  0  0  0  0  0
   19.2470   17.7530   23.2210 O   0  0  0  0  0  0
   17.1440   17.0090   23.5930 N   0  0  0  0  0  0
   15.9580   16.6240   23.0610 C   0  0  0  0  0  0
   14.9770   16.3890   23.9720 N   0  0  0  0  0  0
   15.8200   16.4880   21.7920 N   0  0  0  0  0  0
   16.7510   16.8250   20.8690 C   0  0  0  0  0  0
   16.4890   16.6880   19.4910 C   0  0  0  0  0  0
   15.1720   16.2230   18.8750 C   0  0  0  0  0  0
   15.3450   14.8200   18.2040 C   0  0  0  0  0  0
   14.2740   14.6820   17.1460 N   0  3  0  0  0  0
   12.9590   14.4180   17.8070 C   0  0  0  0  0  0
   11.7670   14.5320   16.8130 C   0  0  0  0  0  0
   11.8790   15.8710   16.0240 C   0  0  0  0  0  0
   10.7470   15.9060   14.9540 C   0  0  0  0  0  0
    9.3620   15.8220   15.6440 C   0  0  0  0  0  0
    9.2400   14.5530   16.5260 C   0  0  0  0  0  0
   10.3950   14.5280   17.5720 C   0  0  0  0  0  0
   17.5240   17.1240   18.6530 C   0  0  0  0  0  0
   17.5590   17.2670   17.3110 N   0  0  0  0  0  0
   18.6800   17.7430   16.9420 C   0  0  3  0  0  0
   19.0220   18.0980   15.6900 N   0  0  3  0  0  0
   18.1860   17.9390   14.5130 C   0  0  0  0  0  0
   19.5060   17.9810   17.9980 N   0  0  0  0  0  0
   18.7170   17.6220   19.1040 C   0  0  0  0  0  0
   19.0560   17.6670   20.4660 C   0  0  0  0  0  0
   18.0140   17.2480   21.3130 C   0  0  0  0  0  0
   15.1772   16.5297   25.0444 H   0  0  0  0  0  0
   14.8892   16.0695   21.3817 H   0  0  0  0  0  0
   14.4051   16.1510   19.6603 H   0  0  0  0  0  0
   14.8486   16.9462   18.1119 H   0  0  0  0  0  0
   16.3440   14.7521   17.7485 H   0  0  0  0  0  0
   15.2348   14.0335   18.9651 H   0  0  0  0  0  0
   14.2130   15.6125   16.5624 H   0  0  0  0  0  0
   14.5249   13.8455   16.4772 H   0  0  0  0  0  0
   12.9573   13.4013   18.2268 H   0  0  0  0  0  0
   12.8012   15.1483   18.6143 H   0  0  0  0  0  0
   11.8150   13.6695   16.1320 H   0  0  0  0  0  0
   11.7670   16.7164   16.7188 H   0  0  0  0  0  0
   12.8623   15.9268   15.5341 H   0  0  0  0  0  0
   10.8106   16.8444   14.3835 H   0  0  0  0  0  0
   10.8626   15.0525   14.2698 H   0  0  0  0  0  0
    9.2170   16.7049   16.2839 H   0  0  0  0  0  0
    8.5724   15.7902   14.8788 H   0  0  0  0  0  0
    8.2731   14.5625   17.0504 H   0  0  0  0  0  0
    9.3037   13.6573   15.8906 H   0  0  0  0  0  0
   10.3194   13.6198   18.1880 H   0  0  0  0  0  0
   10.3309   15.4158   18.2183 H   0  0  0  0  0  0
   20.0248   18.5405   15.5967 H   0  0  0  0  0  0
   18.7220   18.3150   13.6291 H   0  0  0  0  0  0
   17.2538   18.5076   14.6459 H   0  0  0  0  0  0
   17.9491   16.8740   14.3727 H   0  0  0  0  0  0
   20.0178   17.9863   20.8938 H   0  0  0  0  0  0
  1  2  2  0  0  0
  1  3  1  0  0  0
  1 27  1  0  0  0
  3  4  1  0  0  0
  4  5  2  0  0  0
  4  6  1  0  0  0
  5 28  1  0  0  0
  6  7  1  0  0  0
  6 29  1  0  0  0
  7  8  2  0  0  0
  7 27  1  0  0  0
  8  9  1  0  0  0
  8 19  1  0  0  0
  9 10  1  0  0  0
  9 30  1  0  0  0
  9 31  1  0  0  0
 10 11  1  0  0  0
 10 32  1  0  0  0
 10 33  1  0  0  0
 11 12  1  0  0  0
 11 34  1  0  0  0
 11 35  1  0  0  0
 12 13  1  0  0  0
 12 36  1  0  0  0
 12 37  1  0  0  0
 13 14  1  0  0  0
 13 18  1  0  0  0
 13 38  1  0  0  0
 14 15  1  0  0  0
 14 39  1  0  0  0
 14 40  1  0  0  0
 15 16  1  0  0  0
 15 41  1  0  0  0
 15 42  1  0  0  0
 16 17  1  0  0  0
 16 43  1  0  0  0
 16 44  1  0  0  0
 17 18  1  0  0  0
 17 45  1  0  0  0
 17 46  1  0  0  0
 18 47  1  0  0  0
 18 48  1  0  0  0
 19 20  2  0  0  0
 19 25  1  0  0  0
 20 21  1  0  0  0
 21 22  1  0  0  0
 21 24  1  0  0  0
 22 23  1  0  0  0
 22 49  1  0  0  0
 23 50  1  0  0  0
 23 51  1  0  0  0
 23 52  1  0  0  0
 24 25  2  0  0  0
 25 26  1  0  0  0
 26 27  2  0  0  0
 26 53  1  0  0  0
M  CHG  1  11   1
M  END
> <s_m_source_file>
../3eos_ligand.sdf

> <i_m_source_file_index>
1

> <s_epik_input>
W0hdL049YyhbbkhdMSlcW25IXWMoPU8pYyhjMTIpW2NIXWMzYyg9TltDSF0oTj0zKVtOSF1bQ0gzXSljMltDSDJdW0NIMl1bTkgyK11bQ0gyXVtDSF00W0NIMl1bQ0gyXVtDSDJdW0NIMl1bQ0gyXTQ=

> <s_epik_cmdline>
J2VwaWtfYXBwJywgJy1pbWFlJywgJ2xpZ2FuZF9wcm8ubWFlJywgJy1vbWFlJywgJ2xpZ2FuZF9wcmVwLm1hZScsICctbXMnLCAnMScsICctcGgnLCAnNycsICctcGh0JywgJzAuNScsICctbnQn

> <r_lp_tautomer_probability>
1

> <r_epik_Ionization_Penalty>
  0.0524

> <r_epik_Ionization_Penalty_Charging>
  0.0521

> <r_epik_Ionization_Penalty_Neutral>
  0.0003

> <r_epik_State_Penalty>
 -0.0000

> <r_epik_Charging_Adjusted_Penalty>
0.0520525710363723

> <i_epik_Tot_Q>
1

> <i_epik_Tot_abs_Q>
1

> <s_epik_Chemistry_Notes>
This compound has an imine and may undergo hydrolysis.

$$$$
