3eou_ligand
                    3D
 Schrodinger Suite 2020-3.
 34 36  0  0  1  0            999 V2000
   17.4350   17.2730   17.1900 N   0  0  0  0  0  0
   18.7470   17.7350   16.9230 C   0  0  0  0  0  0
   19.1750   17.9330   15.6550 N   0  0  0  0  0  0
   18.1810   17.9520   14.5810 C   0  0  0  0  0  0
   19.4640   17.9620   18.0350 N   0  3  0  0  0  0
   18.7130   17.6390   19.0890 C   0  0  0  0  0  0
   17.4830   17.2240   18.6070 C   0  0  0  0  0  0
   16.4410   16.8670   19.4740 C   0  0  0  0  0  0
   15.1400   16.2910   18.8360 C   0  0  0  0  0  0
   16.7040   16.8480   20.8560 C   0  0  0  0  0  0
   15.7570   16.5270   21.7740 N   0  3  0  0  0  0
   15.9310   16.5810   23.1540 C   0  0  0  0  0  0
   14.9620   16.2230   23.9160 N   0  0  0  0  0  0
   17.1400   16.9710   23.6300 N   0  0  0  0  0  0
   18.1460   17.3540   22.8230 C   0  0  0  0  0  0
   19.2250   17.7310   23.2310 O   0  0  0  0  0  0
   17.9530   17.2900   21.3240 C   0  0  0  0  0  0
   18.9710   17.7100   20.4570 C   0  0  0  0  0  0
   15.3820   14.8130   18.3600 C   0  0  0  0  0  0
   14.4500   14.4410   17.3430 O   0  0  0  0  0  0
   20.2401   18.0776   15.4213 H   0  0  0  0  0  0
   18.6849   18.1220   13.6181 H   0  0  0  0  0  0
   17.4583   18.7608   14.7645 H   0  0  0  0  0  0
   17.6527   16.9875   14.5532 H   0  0  0  0  0  0
   14.3302   16.3029   19.5804 H   0  0  0  0  0  0
   14.8521   16.9067   17.9711 H   0  0  0  0  0  0
   14.7619   16.1939   21.4442 H   0  0  0  0  0  0
   14.0015   15.9156   23.4767 H   0  0  0  0  0  0
   19.9246   18.0768   20.8366 H   0  0  0  0  0  0
   16.4004   14.7204   17.9547 H   0  0  0  0  0  0
   15.2633   14.1289   19.2132 H   0  0  0  0  0  0
   14.4883   13.4332   16.9039 H   0  0  0  0  0  0
   20.4901   18.3509   17.9580 H   0  0  0  0  0  0
   15.0921   16.2236   25.0083 H   0  0  0  0  0  0
  1  2  2  0  0  0
  1  7  1  0  0  0
  2  3  1  0  0  0
  2  5  1  0  0  0
  3  4  1  0  0  0
  3 21  1  0  0  0
  4 22  1  0  0  0
  4 23  1  0  0  0
  4 24  1  0  0  0
  5  6  1  0  0  0
  5 33  1  0  0  0
  6  7  1  0  0  0
  6 18  2  0  0  0
  7  8  2  0  0  0
  8  9  1  0  0  0
  8 10  1  0  0  0
  9 19  1  0  0  0
  9 25  1  0  0  0
  9 26  1  0  0  0
 10 11  1  0  0  0
 10 17  2  0  0  0
 11 12  2  0  0  0
 11 27  1  0  0  0
 12 13  1  0  0  0
 12 14  1  0  0  0
 13 28  1  0  0  0
 13 34  1  0  0  0
 14 15  1  0  0  0
 15 16  2  0  0  0
 15 17  1  0  0  0
 17 18  1  0  0  0
 18 29  1  0  0  0
 19 20  1  0  0  0
 19 30  1  0  0  0
 19 31  1  0  0  0
 20 32  1  0  0  0
M  CHG  2   5   1  11   1
M  END
> <s_m_source_file>
../3eou_ligand.sdf

> <i_m_source_file_index>
1

> <s_epik_input>
W0NIM11bTkhdYyhbbkhdMSluYyhjMTIpYyhbQ0gyXVtDSDJdW09IXSljM2MoW2NIXTIpYyg9TylbbkhdYyhcW25IXTMpPU4vW0hd

> <s_epik_cmdline>
J2VwaWtfYXBwJywgJy1pbWFlJywgJ2xpZ2FuZF9wcm8ubWFlJywgJy1vbWFlJywgJ2xpZ2FuZF9wcmVwLm1hZScsICctbXMnLCAnMScsICctcGgnLCAnNycsICctcGh0JywgJzAuNScsICctbnQn

> <r_lp_tautomer_probability>
1

> <r_epik_Ionization_Penalty>
  0.0173

> <r_epik_Ionization_Penalty_Charging>
  0.0168

> <r_epik_Ionization_Penalty_Neutral>
  0.0005

> <r_epik_State_Penalty>
 -0.0000

> <r_epik_Charging_Adjusted_Penalty>
0.0167945762833732

> <i_epik_Tot_Q>
2

> <i_epik_Tot_abs_Q>
2

> <s_epik_Chemistry_Notes>
This compound has an imine and may undergo hydrolysis.

$$$$
