3eov_ligand
                    3D
 Schrodinger Suite 2020-3.
198198  0  0  1  0            999 V2000
    5.2260   13.1070   19.5170 N   0  0  0  0  0  0
    4.6100   13.2110   18.2060 C   0  0  2  0  0  0
    3.1360   13.4880   18.3570 C   0  0  0  0  0  0
    4.8280   11.9110   17.4450 C   0  0  0  0  0  0
    4.8420   10.8260   18.0330 O   0  0  0  0  0  0
    4.9980   12.0110   16.1330 N   0  0  0  0  0  0
    4.9110   13.1970   15.2730 C   0  0  0  0  0  0
    5.2240   10.8130   15.3240 C   0  0  1  0  0  0
    3.9920   10.5290   14.4480 C   0  0  0  0  0  0
    2.7420   10.0900   15.2420 C   0  0  0  0  0  0
    1.6150    9.8250   14.2840 C   0  0  0  0  0  0
    3.0300    8.8290   16.0460 C   0  0  0  0  0  0
    6.4990   10.8900   14.4830 C   0  0  0  0  0  0
    6.4630   11.1620   13.2830 O   0  0  0  0  0  0
    7.6280   10.6180   15.1300 N   0  0  0  0  0  0
    7.7650   10.1530   16.5100 C   0  0  0  0  0  0
    8.9380   10.6750   14.4710 C   0  0  1  0  0  0
    9.8110   11.7240   15.1960 C   0  0  0  0  0  0
    9.3380   13.1900   15.2570 C   0  0  0  0  0  0
   10.3380   14.0250   16.0510 C   0  0  0  0  0  0
    9.1790   13.7560   13.8510 C   0  0  0  0  0  0
    9.7100    9.3320   14.3460 C   0  0  0  0  0  0
    9.5050    8.3930   15.1190 O   0  0  0  0  0  0
   10.5930    9.2430   13.3610 N   0  0  0  0  0  0
   11.0900   10.3060   12.4870 C   0  0  0  0  0  0
   11.3920    8.0330   13.2030 C   0  0  1  0  0  0
   11.1990    7.3170   11.8160 C   0  0  0  0  0  0
   11.7400    5.9100   11.9180 C   0  0  0  0  0  0
    9.7190    7.2740   11.4040 C   0  0  0  0  0  0
   12.8840    8.3730   13.3590 C   0  0  0  0  0  0
   13.6390    8.4220   12.3730 O   0  0  0  0  0  0
   13.3100    8.6300   14.5950 N   0  0  0  0  0  0
   12.6350    8.2740   15.8370 C   0  0  0  0  0  0
   14.7110    8.9610   14.8530 C   0  0  2  0  0  0
   15.5600    7.7610   15.2760 C   0  0  0  0  0  0
   15.0410    6.6640   15.4560 O   0  0  0  0  0  0
   14.8870   10.2030   15.7590 C   0  0  2  0  0  0
   14.5220    9.8840   17.0990 O   0  0  0  0  0  0
   14.0800   11.4210   15.2990 C   0  0  2  0  0  0
   14.3580   11.7260   13.8160 C   0  0  0  0  0  0
   14.3950   12.6180   16.1890 C   0  0  0  0  0  0
   15.8720   12.9480   16.1570 C   0  0  0  0  0  0
   16.3870   13.0220   17.4430 C   0  0  0  0  0  0
   17.6510   13.8120   17.4720 C   0  0  0  0  0  0
   16.8650    7.9630   15.4040 N   0  0  0  0  0  0
   17.7680    6.8890   15.7850 C   0  0  2  0  0  0
   18.5430    7.3100   17.0200 C   0  0  0  0  0  0
   19.6180    7.8870   16.9100 O   0  0  0  0  0  0
   18.7450    6.6270   14.6360 C   0  0  0  0  0  0
   18.1050    5.9660   13.4540 C   0  0  0  0  0  0
   17.9820    7.0260   18.1900 N   0  0  0  0  0  0
   18.6450    7.3950   19.4240 C   0  0  0  0  0  0
   17.7620    8.0420   20.4830 C   0  0  0  0  0  0
   17.5880    7.4960   21.5830 O   0  0  0  0  0  0
   16.7370    6.3200   18.4890 C   0  0  0  0  0  0
   17.2030    9.2070   20.1750 N   0  0  0  0  0  0
   17.6640   10.1360   19.1430 C   0  0  0  0  0  0
   16.3400    9.8780   21.1420 C   0  0  1  0  0  0
   16.3730   11.4070   20.9760 C   0  0  0  0  0  0
   17.0680   12.1650   22.1300 C   0  0  0  0  0  0
   16.2300   12.0660   23.3940 C   0  0  0  0  0  0
   18.4490   11.5950   22.3970 C   0  0  0  0  0  0
   14.8960    9.3680   21.1270 C   0  0  0  0  0  0
   14.4690    8.7360   22.0920 O   0  0  0  0  0  0
   14.1530    9.5970   20.0470 N   0  0  0  0  0  0
   12.7490    9.1580   19.9890 C   0  0  2  0  0  0
   11.9840   10.1060   20.9170 C   0  0  0  0  0  0
   11.9650    9.9120   22.1380 O   0  0  0  0  0  0
   12.5410    7.6900   20.5120 C   0  0  0  0  0  0
   11.0780    7.2960   20.3960 C   0  0  0  0  0  0
   13.3940    6.7160   19.7260 C   0  0  0  0  0  0
   11.3420   11.1180   20.3340 N   0  0  0  0  0  0
   10.9070   11.1970   18.9440 C   0  0  0  0  0  0
   10.6350   12.1120   21.1200 C   0  0  1  0  0  0
   11.1330   13.5080   20.7230 C   0  0  0  0  0  0
   12.6620   13.6190   20.8430 C   0  0  0  0  0  0
   13.1960   14.8540   20.1400 C   0  0  0  0  0  0
   13.0350   13.6290   22.2980 C   0  0  0  0  0  0
    9.1200   12.0300   21.0220 C   0  0  0  0  0  0
    8.5690   10.9620   20.7960 O   0  0  0  0  0  0
    8.4490   13.1610   21.2100 N   0  0  0  0  0  0
    6.9960   13.2100   21.1570 C   0  0  2  0  0  0
    6.5100   13.3770   19.7250 C   0  0  0  0  0  0
    7.2750   13.7360   18.8370 O   0  0  0  0  0  0
    6.4720   14.3550   22.0300 C   0  0  0  0  0  0
    4.6251   12.7947   20.3838 H   0  0  0  0  0  0
    5.0878   14.0523   17.6827 H   0  0  0  0  0  0
    2.9944   14.4294   18.9082 H   0  0  0  0  0  0
    2.6630   12.6639   18.9112 H   0  0  0  0  0  0
    2.6751   13.5729   17.3618 H   0  0  0  0  0  0
    4.7412   14.0887   15.8943 H   0  0  0  0  0  0
    4.0759   13.0775   14.5670 H   0  0  0  0  0  0
    5.8507   13.3136   14.7131 H   0  0  0  0  0  0
    5.3724   10.0094   16.0603 H   0  0  0  0  0  0
    3.7198   11.4384   13.8922 H   0  0  0  0  0  0
    4.2250    9.7215   13.7383 H   0  0  0  0  0  0
    2.4405   10.8873   15.9373 H   0  0  0  0  0  0
    1.4062   10.7352   13.7028 H   0  0  0  0  0  0
    0.7156    9.5351   14.8471 H   0  0  0  0  0  0
    1.8983    9.0107   13.6009 H   0  0  0  0  0  0
    3.8549    9.0219   16.7476 H   0  0  0  0  0  0
    3.3129    8.0149   15.3624 H   0  0  0  0  0  0
    2.1302    8.5394   16.6086 H   0  0  0  0  0  0
    6.7735   10.1176   16.9851 H   0  0  0  0  0  0
    8.4141   10.8445   17.0672 H   0  0  0  0  0  0
    8.2104    9.1472   16.5155 H   0  0  0  0  0  0
    8.6649   10.9612   13.4446 H   0  0  0  0  0  0
    9.9335   11.4338   16.2499 H   0  0  0  0  0  0
   10.7979   11.7766   14.7131 H   0  0  0  0  0  0
    8.3599   13.2384   15.7580 H   0  0  0  0  0  0
   10.4435   13.6064   17.0628 H   0  0  0  0  0  0
    9.9775   15.0620   16.1189 H   0  0  0  0  0  0
   11.3139   14.0085   15.5437 H   0  0  0  0  0  0
    8.4562   13.1457   13.2896 H   0  0  0  0  0  0
   10.1512   13.7387   13.3367 H   0  0  0  0  0  0
    8.8148   14.7922   13.9119 H   0  0  0  0  0  0
   10.4752   11.2082   12.6209 H   0  0  0  0  0  0
   11.0332    9.9758   11.4393 H   0  0  0  0  0  0
   12.1352   10.5331   12.7438 H   0  0  0  0  0  0
   11.0122    7.3995   14.0181 H   0  0  0  0  0  0
   11.7454    7.8546   11.0271 H   0  0  0  0  0  0
   12.7991    5.9449   12.2130 H   0  0  0  0  0  0
   11.6473    5.4099   10.9426 H   0  0  0  0  0  0
   11.1674    5.3508   12.6726 H   0  0  0  0  0  0
    9.3288    8.2999   11.3308 H   0  0  0  0  0  0
    9.1445    6.7161   12.1582 H   0  0  0  0  0  0
    9.6244    6.7752   10.4282 H   0  0  0  0  0  0
   11.5839    8.0282   15.6256 H   0  0  0  0  0  0
   12.6798    9.1230   16.5350 H   0  0  0  0  0  0
   13.1320    7.4022   16.2875 H   0  0  0  0  0  0
   15.0641    9.2324   13.8472 H   0  0  0  0  0  0
   15.9528   10.4742   15.7796 H   0  0  0  0  0  0
   14.9959    9.0332   17.6104 H   0  0  0  0  0  0
   13.0066   11.2033   15.4010 H   0  0  0  0  0  0
   14.1191   10.8406   13.2085 H   0  0  0  0  0  0
   15.4197   11.9834   13.6874 H   0  0  0  0  0  0
   13.7338   12.5720   13.4924 H   0  0  0  0  0  0
   13.8312   13.4947   15.8375 H   0  0  0  0  0  0
   14.1083   12.3894   17.2261 H   0  0  0  0  0  0
   16.4107   12.1649   15.6033 H   0  0  0  0  0  0
   16.0204   13.9174   15.6588 H   0  0  0  0  0  0
   15.6541   13.5076   18.1041 H   0  0  0  0  0  0
   16.5983   12.0076   17.8123 H   0  0  0  0  0  0
   18.0343   13.8528   18.5023 H   0  0  0  0  0  0
   17.4535   14.8330   17.1135 H   0  0  0  0  0  0
   18.3977   13.3330   16.8217 H   0  0  0  0  0  0
   17.2596    8.9721   15.2143 H   0  0  0  0  0  0
   17.1559    6.0001   15.9977 H   0  0  0  0  0  0
   19.1707    7.5811   14.2920 H   0  0  0  0  0  0
   19.5544    5.9692   14.9857 H   0  0  0  0  0  0
   18.8595    5.8078   12.6693 H   0  0  0  0  0  0
   17.3010    6.6084   13.0655 H   0  0  0  0  0  0
   17.6846    4.9964   13.7592 H   0  0  0  0  0  0
   19.0771    6.4975   19.8906 H   0  0  0  0  0  0
   19.4457    8.1177   19.2082 H   0  0  0  0  0  0
   16.2381    6.0424   17.5488 H   0  0  0  0  0  0
   16.0759    6.9749   19.0755 H   0  0  0  0  0  0
   16.9605    5.4116   19.0677 H   0  0  0  0  0  0
   18.3105    9.6019   18.4312 H   0  0  0  0  0  0
   18.2318   10.9530   19.6123 H   0  0  0  0  0  0
   16.7963   10.5516   18.6097 H   0  0  0  0  0  0
   16.7971    9.5877   22.0995 H   0  0  0  0  0  0
   16.9149   11.6641   20.0539 H   0  0  0  0  0  0
   15.3442   11.7916   20.9160 H   0  0  0  0  0  0
   17.1807   13.2229   21.8505 H   0  0  0  0  0  0
   15.2283   12.4786   23.2031 H   0  0  0  0  0  0
   16.7140   12.6365   24.2004 H   0  0  0  0  0  0
   16.1412   11.0112   23.6933 H   0  0  0  0  0  0
   19.0577   11.6655   21.4835 H   0  0  0  0  0  0
   18.3587   10.5406   22.6970 H   0  0  0  0  0  0
   18.9315   12.1658   23.2040 H   0  0  0  0  0  0
   14.6010   10.1218   19.1903 H   0  0  0  0  0  0
   12.4473    9.2147   18.9327 H   0  0  0  0  0  0
   12.8390    7.6159   21.5683 H   0  0  0  0  0  0
   10.4610    8.0049   20.9676 H   0  0  0  0  0  0
   10.9385    6.2816   20.7978 H   0  0  0  0  0  0
   10.7755    7.3164   19.3386 H   0  0  0  0  0  0
   14.4523    7.0035   19.8117 H   0  0  0  0  0  0
   13.0931    6.7360   18.6681 H   0  0  0  0  0  0
   13.2561    5.7012   20.1274 H   0  0  0  0  0  0
   11.4432   10.4433   18.3486 H   0  0  0  0  0  0
   11.1248   12.1999   18.5481 H   0  0  0  0  0  0
    9.8250   11.0073   18.8871 H   0  0  0  0  0  0
   10.8864   11.8525   22.1590 H   0  0  0  0  0  0
   10.8507   13.7152   19.6802 H   0  0  0  0  0  0
   10.6774   14.2612   21.3827 H   0  0  0  0  0  0
   13.1373   12.7525   20.3601 H   0  0  0  0  0  0
   12.9105   14.8237   19.0781 H   0  0  0  0  0  0
   14.2925   14.8786   20.2244 H   0  0  0  0  0  0
   12.7719   15.7545   20.6082 H   0  0  0  0  0  0
   12.6376   12.7260   22.7846 H   0  0  0  0  0  0
   12.6100   14.5221   22.7793 H   0  0  0  0  0  0
   14.1305   13.6462   22.3955 H   0  0  0  0  0  0
    9.0233   14.0775   21.4104 H   0  0  0  0  0  0
    6.6554   12.2391   21.5460 H   0  0  0  0  0  0
    6.8299   14.2228   23.0617 H   0  0  0  0  0  0
    5.3721   14.3499   22.0200 H   0  0  0  0  0  0
    6.8378   15.3142   21.6350 H   0  0  0  0  0  0
  1  2  1  0  0  0
  1 83  1  0  0  0
  1 86  1  0  0  0
  2  3  1  0  0  0
  2  4  1  0  0  0
  2 87  1  0  0  0
  3 88  1  0  0  0
  3 89  1  0  0  0
  3 90  1  0  0  0
  4  5  2  0  0  0
  4  6  1  0  0  0
  6  7  1  0  0  0
  6  8  1  0  0  0
  7 91  1  0  0  0
  7 92  1  0  0  0
  7 93  1  0  0  0
  8  9  1  0  0  0
  8 13  1  0  0  0
  8 94  1  0  0  0
  9 10  1  0  0  0
  9 95  1  0  0  0
  9 96  1  0  0  0
 10 11  1  0  0  0
 10 12  1  0  0  0
 10 97  1  0  0  0
 11 98  1  0  0  0
 11 99  1  0  0  0
 11100  1  0  0  0
 12101  1  0  0  0
 12102  1  0  0  0
 12103  1  0  0  0
 13 14  2  0  0  0
 13 15  1  0  0  0
 15 16  1  0  0  0
 15 17  1  0  0  0
 16104  1  0  0  0
 16105  1  0  0  0
 16106  1  0  0  0
 17 18  1  0  0  0
 17 22  1  0  0  0
 17107  1  0  0  0
 18 19  1  0  0  0
 18108  1  0  0  0
 18109  1  0  0  0
 19 20  1  0  0  0
 19 21  1  0  0  0
 19110  1  0  0  0
 20111  1  0  0  0
 20112  1  0  0  0
 20113  1  0  0  0
 21114  1  0  0  0
 21115  1  0  0  0
 21116  1  0  0  0
 22 23  2  0  0  0
 22 24  1  0  0  0
 24 25  1  0  0  0
 24 26  1  0  0  0
 25117  1  0  0  0
 25118  1  0  0  0
 25119  1  0  0  0
 26 27  1  0  0  0
 26 30  1  0  0  0
 26120  1  0  0  0
 27 28  1  0  0  0
 27 29  1  0  0  0
 27121  1  0  0  0
 28122  1  0  0  0
 28123  1  0  0  0
 28124  1  0  0  0
 29125  1  0  0  0
 29126  1  0  0  0
 29127  1  0  0  0
 30 31  2  0  0  0
 30 32  1  0  0  0
 32 33  1  0  0  0
 32 34  1  0  0  0
 33128  1  0  0  0
 33129  1  0  0  0
 33130  1  0  0  0
 34 35  1  0  0  0
 34 37  1  0  0  0
 34131  1  0  0  0
 35 36  2  0  0  0
 35 45  1  0  0  0
 37 38  1  0  0  0
 37 39  1  0  0  0
 37132  1  0  0  0
 38133  1  0  0  0
 39 40  1  0  0  0
 39 41  1  0  0  0
 39134  1  0  0  0
 40135  1  0  0  0
 40136  1  0  0  0
 40137  1  0  0  0
 41 42  1  0  0  0
 41138  1  0  0  0
 41139  1  0  0  0
 42 43  1  0  0  0
 42140  1  0  0  0
 42141  1  0  0  0
 43 44  1  0  0  0
 43142  1  0  0  0
 43143  1  0  0  0
 44144  1  0  0  0
 44145  1  0  0  0
 44146  1  0  0  0
 45 46  1  0  0  0
 45147  1  0  0  0
 46 47  1  0  0  0
 46 49  1  0  0  0
 46148  1  0  0  0
 47 48  2  0  0  0
 47 51  1  0  0  0
 49 50  1  0  0  0
 49149  1  0  0  0
 49150  1  0  0  0
 50151  1  0  0  0
 50152  1  0  0  0
 50153  1  0  0  0
 51 52  1  0  0  0
 51 55  1  0  0  0
 52 53  1  0  0  0
 52154  1  0  0  0
 52155  1  0  0  0
 53 54  2  0  0  0
 53 56  1  0  0  0
 55156  1  0  0  0
 55157  1  0  0  0
 55158  1  0  0  0
 56 57  1  0  0  0
 56 58  1  0  0  0
 57159  1  0  0  0
 57160  1  0  0  0
 57161  1  0  0  0
 58 59  1  0  0  0
 58 63  1  0  0  0
 58162  1  0  0  0
 59 60  1  0  0  0
 59163  1  0  0  0
 59164  1  0  0  0
 60 61  1  0  0  0
 60 62  1  0  0  0
 60165  1  0  0  0
 61166  1  0  0  0
 61167  1  0  0  0
 61168  1  0  0  0
 62169  1  0  0  0
 62170  1  0  0  0
 62171  1  0  0  0
 63 64  2  0  0  0
 63 65  1  0  0  0
 65 66  1  0  0  0
 65172  1  0  0  0
 66 67  1  0  0  0
 66 69  1  0  0  0
 66173  1  0  0  0
 67 68  2  0  0  0
 67 72  1  0  0  0
 69 70  1  0  0  0
 69 71  1  0  0  0
 69174  1  0  0  0
 70175  1  0  0  0
 70176  1  0  0  0
 70177  1  0  0  0
 71178  1  0  0  0
 71179  1  0  0  0
 71180  1  0  0  0
 72 73  1  0  0  0
 72 74  1  0  0  0
 73181  1  0  0  0
 73182  1  0  0  0
 73183  1  0  0  0
 74 75  1  0  0  0
 74 79  1  0  0  0
 74184  1  0  0  0
 75 76  1  0  0  0
 75185  1  0  0  0
 75186  1  0  0  0
 76 77  1  0  0  0
 76 78  1  0  0  0
 76187  1  0  0  0
 77188  1  0  0  0
 77189  1  0  0  0
 77190  1  0  0  0
 78191  1  0  0  0
 78192  1  0  0  0
 78193  1  0  0  0
 79 80  2  0  0  0
 79 81  1  0  0  0
 81 82  1  0  0  0
 81194  1  0  0  0
 82 83  1  0  0  0
 82 85  1  0  0  0
 82195  1  0  0  0
 83 84  2  0  0  0
 85196  1  0  0  0
 85197  1  0  0  0
 85198  1  0  0  0
M  END
> <s_m_source_file>
../3eov_ligand.sdf

> <i_m_source_file_index>
1

> <s_epik_input>
W0NIM11bQ0BIXTFbTkhdQyg9TylbQ0BIXShbQ0gzXSlbTkhdQyg9TylbQ0BIXShbQ0gyXVtDSF0oW0NIM10pW0NIM10pTihbQ0gzXSlDKD1PKVtDQEhdKFtDSF0oW0NIM10pW0NIM10pW05IXUMoPU8pW0NASF0oW0NIMl1bQ0hdKFtDSDNdKVtDSDNdKU4oW0NIM10pQyg9TylbQ0gyXU4oW0NIM10pQyg9TylbQ0BIXShbQ0gyXVtDSDNdKVtOSF1DKD1PKVtDQEhdKFtDQEhdKFtPSF0pW0NASF0oW0NIM10pW0NIMl1bQ0gyXVtDSDJdW0NIM10pTihbQ0gzXSlDKD1PKVtDQEhdKFtDSF0oW0NIM10pW0NIM10pTihbQ0gzXSlDKD1PKVtDQEhdKFtDSDJdW0NIXShbQ0gzXSlbQ0gzXSlOKFtDSDNdKUMoPU8pW0NAQEhdKE4oQzE9TylbQ0gzXSlbQ0gyXVtDSF0oW0NIM10pW0NIM10=

> <s_epik_cmdline>
J2VwaWtfYXBwJywgJy1pbWFlJywgJ2xpZ2FuZF9wcm8ubWFlJywgJy1vbWFlJywgJ2xpZ2FuZF9wcmVwLm1hZScsICctbXMnLCAnMScsICctcGgnLCAnNycsICctcGh0JywgJzAuNScsICctbnQn

> <s_epik_pKa_notes>
Molecule size exceeds maximum supported for generating protonation states

$$$$
