3eq7_ligand
                    3D
 Schrodinger Suite 2020-3.
 50 53  0  0  1  0            999 V2000
    6.7730   38.0210   30.6820 C   0  0  0  0  0  0
    7.4220   37.9140   29.6340 O   0  0  0  0  0  0
    7.3120   38.4360   31.8370 C   0  0  0  0  0  0
    8.8310   38.6570   31.6840 C   0  0  0  0  0  0
    9.4300   38.6310   33.0060 N   0  0  0  0  0  0
   10.0750   37.5800   33.5340 C   0  0  0  0  0  0
    9.4400   39.6710   33.8730 C   0  0  0  0  0  0
   10.2100   36.4820   33.0240 O   0  0  0  0  0  0
    8.9250   40.7770   33.7040 O   0  0  0  0  0  0
   10.5840   37.9410   34.9050 C   0  0  0  0  0  0
   11.3030   37.2120   35.8680 C   0  0  0  0  0  0
   11.5910   37.8800   37.0730 C   0  0  0  0  0  0
   11.1870   39.2140   37.2910 C   0  0  0  0  0  0
   10.4700   39.9320   36.3180 C   0  0  0  0  0  0
   10.1840   39.2610   35.1220 C   0  0  0  0  0  0
    5.4300   38.0090   30.6830 N   0  0  0  0  0  0
    4.4830   38.4250   31.7310 C   0  0  0  0  0  0
    4.7290   37.5720   29.4720 C   0  0  1  0  0  0
    3.4990   36.8950   30.0170 C   0  0  0  0  0  0
    3.2180   37.6310   31.3360 C   0  0  0  0  0  0
    4.3800   38.7250   28.5430 C   0  0  0  0  0  0
    4.7020   39.8830   28.8190 O   0  0  0  0  0  0
    2.9290   36.7290   32.3050 F   0  0  0  0  0  0
    2.1780   38.4810   31.1550 F   0  0  0  0  0  0
    3.6970   38.4260   27.4260 N   0  0  0  0  0  0
    3.2220   37.0690   27.0980 C   0  0  0  0  0  0
    3.2880   39.4040   26.4210 C   0  0  0  0  0  0
    2.8400   38.5220   25.2540 C   0  0  0  0  0  0
    2.3440   37.2880   25.9000 C   0  0  0  0  0  0
    6.8443   39.3844   32.1400 H   0  0  0  0  0  0
    7.1405   37.6776   32.6151 H   0  0  0  0  0  0
    9.2570   37.8569   31.0608 H   0  0  0  0  0  0
    9.0136   39.6307   31.2059 H   0  0  0  0  0  0
   11.6205   36.1844   35.6911 H   0  0  0  0  0  0
   12.1386   37.3547   37.8555 H   0  0  0  0  0  0
   11.4363   39.6988   38.2349 H   0  0  0  0  0  0
   10.1520   40.9610   36.4860 H   0  0  0  0  0  0
    4.8817   38.1455   32.7174 H   0  0  0  0  0  0
    4.3436   39.5153   31.6874 H   0  0  0  0  0  0
    5.3674   36.9081   28.8706 H   0  0  0  0  0  0
    2.6724   37.0033   29.2993 H   0  0  0  0  0  0
    3.7085   35.8270   30.1764 H   0  0  0  0  0  0
    4.0837   36.4230   26.8741 H   0  0  0  0  0  0
    2.6680   36.6574   27.9545 H   0  0  0  0  0  0
    2.4726   40.0234   26.8227 H   0  0  0  0  0  0
    4.1437   40.0458   26.1643 H   0  0  0  0  0  0
    2.0502   39.0369   24.6874 H   0  0  0  0  0  0
    3.6969   38.3255   24.5928 H   0  0  0  0  0  0
    2.4247   36.4244   25.2235 H   0  0  0  0  0  0
    1.2998   37.4016   26.2265 H   0  0  0  0  0  0
  1  2  2  0  0  0
  1  3  1  0  0  0
  1 16  1  0  0  0
  3  4  1  0  0  0
  3 30  1  0  0  0
  3 31  1  0  0  0
  4  5  1  0  0  0
  4 32  1  0  0  0
  4 33  1  0  0  0
  5  6  1  0  0  0
  5  7  1  0  0  0
  6  8  2  0  0  0
  6 10  1  0  0  0
  7  9  2  0  0  0
  7 15  1  0  0  0
 10 11  2  0  0  0
 10 15  1  0  0  0
 11 12  1  0  0  0
 11 34  1  0  0  0
 12 13  2  0  0  0
 12 35  1  0  0  0
 13 14  1  0  0  0
 13 36  1  0  0  0
 14 15  2  0  0  0
 14 37  1  0  0  0
 16 17  1  0  0  0
 16 18  1  0  0  0
 17 20  1  0  0  0
 17 38  1  0  0  0
 17 39  1  0  0  0
 18 19  1  0  0  0
 18 21  1  0  0  0
 18 40  1  0  0  0
 19 20  1  0  0  0
 19 41  1  0  0  0
 19 42  1  0  0  0
 20 23  1  0  0  0
 20 24  1  0  0  0
 21 22  2  0  0  0
 21 25  1  0  0  0
 25 26  1  0  0  0
 25 27  1  0  0  0
 26 29  1  0  0  0
 26 43  1  0  0  0
 26 44  1  0  0  0
 27 28  1  0  0  0
 27 45  1  0  0  0
 27 46  1  0  0  0
 28 29  1  0  0  0
 28 47  1  0  0  0
 28 48  1  0  0  0
 29 49  1  0  0  0
 29 50  1  0  0  0
M  END
> <s_m_source_file>
../3eq7_ligand.sdf

> <i_m_source_file_index>
1

> <s_epik_input>
W0NIMl0xW0NIMl1bQ0gyXVtDSDJdTjFDKD1PKVtDQEhdKFtDSDJdMilOKFtDSDJdQzIoRilGKUMoPU8pW0NIMl1bQ0gyXU4oQzM9TylDKD1PKWMoYzM0KVtjSF1bY0hdW2NIXVtjSF00

> <s_epik_cmdline>
J2VwaWtfYXBwJywgJy1pbWFlJywgJ2xpZ2FuZF9wcm8ubWFlJywgJy1vbWFlJywgJ2xpZ2FuZF9wcmVwLm1hZScsICctbXMnLCAnMScsICctcGgnLCAnNycsICctcGh0JywgJzAuNScsICctbnQn

> <r_lp_tautomer_probability>
1

> <r_epik_Ionization_Penalty>
  0.0000

> <r_epik_Ionization_Penalty_Charging>
  0.0000

> <r_epik_Ionization_Penalty_Neutral>
  0.0000

> <r_epik_State_Penalty>
 -0.0000

> <r_epik_Charging_Adjusted_Penalty>
0

> <i_epik_Tot_Q>
0

> <i_epik_Tot_abs_Q>
0

$$$$
