3eq8_ligand
                    3D
 Schrodinger Suite 2020-3.
 61 65  0  0  1  0            999 V2000
    6.6990   38.8090   30.8800 C   0  0  0  0  0  0
    7.4710   38.1050   30.2310 O   0  0  0  0  0  0
    7.1290   39.4130   32.2010 C   0  0  0  0  0  0
    8.6530   39.4760   32.2360 C   0  0  0  0  0  0
    9.2530   39.0130   33.4750 N   0  0  0  0  0  0
    9.3640   39.9400   34.5400 C   0  0  0  0  0  0
   10.0010   39.4290   35.8200 C   0  0  0  0  0  0
   10.4290   38.1910   35.9570 N   0  0  0  0  0  0
   10.3010   37.2990   34.8840 C   0  0  0  0  0  0
   10.7660   35.9640   35.0420 C   0  0  0  0  0  0
   10.6560   35.0500   33.9990 C   0  0  0  0  0  0
   10.0830   35.4270   32.7760 C   0  0  0  0  0  0
    9.6160   36.7230   32.5810 C   0  0  0  0  0  0
    9.7090   37.6900   33.6240 C   0  0  0  0  0  0
    8.9470   41.1090   34.3730 O   0  0  0  0  0  0
   10.1180   40.4160   36.9330 C   0  0  0  0  0  0
   10.1620   39.9720   38.2720 C   0  0  0  0  0  0
   10.2780   40.9000   39.3160 C   0  0  0  0  0  0
   10.3470   42.2790   39.0370 C   0  0  0  0  0  0
   10.3020   42.7260   37.7110 C   0  0  0  0  0  0
   10.1870   41.8040   36.6610 C   0  0  0  0  0  0
    5.3730   38.5970   30.8730 N   0  0  0  0  0  0
    4.7010   38.0220   29.7080 C   0  0  2  0  0  0
    4.3080   39.0890   28.7020 C   0  0  0  0  0  0
    4.3540   40.2840   28.9970 O   0  0  0  0  0  0
    3.4800   37.3120   30.3030 C   0  0  0  0  0  0
    3.3470   37.8380   31.7350 C   0  0  0  0  0  0
    4.4210   38.8690   31.9630 C   0  0  0  0  0  0
    3.8950   38.6630   27.5010 N   0  0  0  0  0  0
    3.4370   39.5180   26.3940 C   0  0  0  0  0  0
    3.8180   37.2440   27.1590 C   0  0  0  0  0  0
    2.7960   37.2330   26.0280 C   0  0  0  0  0  0
    3.0340   38.5280   25.3310 C   0  0  0  0  0  0
    6.7106   40.4260   32.2945 H   0  0  0  0  0  0
    6.7615   38.7869   33.0274 H   0  0  0  0  0  0
    9.0644   38.8495   31.4308 H   0  0  0  0  0  0
    8.9803   40.5166   32.0945 H   0  0  0  0  0  0
   11.2119   35.6548   35.9874 H   0  0  0  0  0  0
   11.0187   34.0310   34.1338 H   0  0  0  0  0  0
   10.0027   34.6975   31.9701 H   0  0  0  0  0  0
    9.1757   37.0009   31.6234 H   0  0  0  0  0  0
   10.1057   38.9064   38.4944 H   0  0  0  0  0  0
   10.3150   40.5530   40.3486 H   0  0  0  0  0  0
   10.4353   42.9970   39.8523 H   0  0  0  0  0  0
   10.3565   43.7929   37.4945 H   0  0  0  0  0  0
   10.1505   42.1573   35.6305 H   0  0  0  0  0  0
    5.3806   37.3496   29.1640 H   0  0  0  0  0  0
    2.5885   37.5529   29.7054 H   0  0  0  0  0  0
    3.6463   36.2247   30.2915 H   0  0  0  0  0  0
    2.3541   38.2925   31.8679 H   0  0  0  0  0  0
    3.4671   37.0056   32.4440 H   0  0  0  0  0  0
    4.9278   38.7462   32.9316 H   0  0  0  0  0  0
    4.0457   39.8991   31.8735 H   0  0  0  0  0  0
    2.5926   40.1360   26.7332 H   0  0  0  0  0  0
    4.2612   40.1699   26.0690 H   0  0  0  0  0  0
    4.8097   36.8889   26.8421 H   0  0  0  0  0  0
    3.4877   36.6722   28.0387 H   0  0  0  0  0  0
    2.9803   36.3666   25.3757 H   0  0  0  0  0  0
    1.7825   37.1651   26.4502 H   0  0  0  0  0  0
    2.1195   38.8792   24.8307 H   0  0  0  0  0  0
    3.8432   38.4339   24.5919 H   0  0  0  0  0  0
  1  2  2  0  0  0
  1  3  1  0  0  0
  1 22  1  0  0  0
  3  4  1  0  0  0
  3 34  1  0  0  0
  3 35  1  0  0  0
  4  5  1  0  0  0
  4 36  1  0  0  0
  4 37  1  0  0  0
  5  6  1  0  0  0
  5 14  1  0  0  0
  6  7  1  0  0  0
  6 15  2  0  0  0
  7  8  2  0  0  0
  7 16  1  0  0  0
  8  9  1  0  0  0
  9 10  2  0  0  0
  9 14  1  0  0  0
 10 11  1  0  0  0
 10 38  1  0  0  0
 11 12  2  0  0  0
 11 39  1  0  0  0
 12 13  1  0  0  0
 12 40  1  0  0  0
 13 14  2  0  0  0
 13 41  1  0  0  0
 16 17  2  0  0  0
 16 21  1  0  0  0
 17 18  1  0  0  0
 17 42  1  0  0  0
 18 19  2  0  0  0
 18 43  1  0  0  0
 19 20  1  0  0  0
 19 44  1  0  0  0
 20 21  2  0  0  0
 20 45  1  0  0  0
 21 46  1  0  0  0
 22 23  1  0  0  0
 22 28  1  0  0  0
 23 24  1  0  0  0
 23 26  1  0  0  0
 23 47  1  0  0  0
 24 25  2  0  0  0
 24 29  1  0  0  0
 26 27  1  0  0  0
 26 48  1  0  0  0
 26 49  1  0  0  0
 27 28  1  0  0  0
 27 50  1  0  0  0
 27 51  1  0  0  0
 28 52  1  0  0  0
 28 53  1  0  0  0
 29 30  1  0  0  0
 29 31  1  0  0  0
 30 33  1  0  0  0
 30 54  1  0  0  0
 30 55  1  0  0  0
 31 32  1  0  0  0
 31 56  1  0  0  0
 31 57  1  0  0  0
 32 33  1  0  0  0
 32 58  1  0  0  0
 32 59  1  0  0  0
 33 60  1  0  0  0
 33 61  1  0  0  0
M  END
> <s_m_source_file>
../3eq8_ligand.sdf

> <i_m_source_file_index>
1

> <s_epik_input>
W0NIMl0xW0NIMl1bQ0gyXVtDSDJdTjFDKD1PKVtDQEhdKFtDSDJdW0NIMl1bQ0gyXTIpTjJDKD1PKVtDSDJdW0NIMl1uKGMoYzM0KVtjSF1bY0hdW2NIXVtjSF00KWMoPU8pYyhuMyktYzVbY0hdW2NIXVtjSF1bY0hdW2NIXTU=

> <s_epik_cmdline>
J2VwaWtfYXBwJywgJy1pbWFlJywgJ2xpZ2FuZF9wcm8ubWFlJywgJy1vbWFlJywgJ2xpZ2FuZF9wcmVwLm1hZScsICctbXMnLCAnMScsICctcGgnLCAnNycsICctcGh0JywgJzAuNScsICctbnQn

> <r_lp_tautomer_probability>
1

> <r_epik_Ionization_Penalty>
  0.0000

> <r_epik_Ionization_Penalty_Charging>
  0.0000

> <r_epik_Ionization_Penalty_Neutral>
  0.0000

> <r_epik_State_Penalty>
 -0.0000

> <r_epik_Charging_Adjusted_Penalty>
6.29509282579544e-09

> <i_epik_Tot_Q>
0

> <i_epik_Tot_abs_Q>
0

$$$$
