3eq9_ligand
                    3D
 Schrodinger Suite 2020-3.
 68 72  0  0  1  0            999 V2000
    6.7440   38.1680   30.7220 C   0  0  0  0  0  0
    7.1820   38.0560   29.5730 O   0  0  0  0  0  0
    7.6940   38.2630   31.8950 C   0  0  0  0  0  0
    9.0810   38.5680   31.3660 C   0  0  0  0  0  0
   10.1520   38.6190   32.4500 C   0  0  0  0  0  0
   10.1560   37.5050   33.3370 N   0  0  0  0  0  0
   10.6020   36.1990   32.9980 C   0  0  0  0  0  0
   10.4010   35.3480   34.0980 N   0  0  0  0  0  0
    9.7930   36.0700   35.2320 C   0  0  0  0  0  0
    9.6680   37.5380   34.6350 C   0  0  0  0  0  0
   11.0640   35.8510   31.9010 O   0  0  0  0  0  0
    9.2620   38.5580   35.1950 O   0  0  0  0  0  0
    8.4160   35.4860   35.5500 C   0  0  0  0  0  0
    8.2880   34.1110   35.8350 C   0  0  0  0  0  0
    7.0280   33.5530   36.0790 C   0  0  0  0  0  0
    5.8820   34.3580   36.0430 C   0  0  0  0  0  0
    5.9990   35.7250   35.7640 C   0  0  0  0  0  0
    7.2580   36.2900   35.5190 C   0  0  0  0  0  0
   10.6540   36.0640   36.4920 C   0  0  0  0  0  0
   11.9640   35.5490   36.4560 C   0  0  0  0  0  0
   12.7500   35.5340   37.6160 C   0  0  0  0  0  0
   12.2400   36.0300   38.8210 C   0  0  0  0  0  0
   10.9370   36.5450   38.8630 C   0  0  0  0  0  0
   10.1450   36.5630   37.7070 C   0  0  0  0  0  0
    5.4360   38.0270   31.0040 N   0  0  0  0  0  0
    4.4110   37.7760   29.9780 C   0  0  2  0  0  0
    4.2940   38.9110   28.9610 C   0  0  0  0  0  0
    4.5910   40.0650   29.2680 O   0  0  0  0  0  0
    3.1210   37.5880   30.7850 C   0  0  0  0  0  0
    3.3940   38.2390   32.1010 C   0  0  0  0  0  0
    4.8590   38.0860   32.3590 C   0  0  0  0  0  0
    3.8410   38.6000   27.7360 N   0  0  0  0  0  0
    3.7540   39.6040   26.6560 C   0  0  0  0  0  0
    3.4400   37.2680   27.2730 C   0  0  0  0  0  0
    2.8640   37.5470   25.8790 C   0  0  0  0  0  0
    3.5880   38.7670   25.4150 C   0  0  0  0  0  0
    7.3642   39.0667   32.5698 H   0  0  0  0  0  0
    7.7013   37.3071   32.4393 H   0  0  0  0  0  0
    9.3787   37.7900   30.6475 H   0  0  0  0  0  0
    9.0752   39.5471   30.8647 H   0  0  0  0  0  0
   11.1465   38.6552   31.9814 H   0  0  0  0  0  0
   10.0052   39.5167   33.0685 H   0  0  0  0  0  0
   10.6349   34.2771   34.1896 H   0  0  0  0  0  0
    9.1756   33.4790   35.8654 H   0  0  0  0  0  0
    6.9380   32.4890   36.2977 H   0  0  0  0  0  0
    4.9014   33.9210   36.2318 H   0  0  0  0  0  0
    5.1078   36.3520   35.7372 H   0  0  0  0  0  0
    7.3423   37.3552   35.3036 H   0  0  0  0  0  0
   12.3686   35.1602   35.5215 H   0  0  0  0  0  0
   13.7633   35.1341   37.5795 H   0  0  0  0  0  0
   12.8528   36.0160   39.7223 H   0  0  0  0  0  0
   10.5376   36.9336   39.7998 H   0  0  0  0  0  0
    9.1324   36.9642   37.7481 H   0  0  0  0  0  0
    4.6913   36.8969   29.3792 H   0  0  0  0  0  0
    2.2850   38.0707   30.2577 H   0  0  0  0  0  0
    2.9122   36.5139   30.8977 H   0  0  0  0  0  0
    3.1142   39.3016   32.0495 H   0  0  0  0  0  0
    2.8041   37.7421   32.8853 H   0  0  0  0  0  0
    5.0964   37.1577   32.8993 H   0  0  0  0  0  0
    5.2827   38.9443   32.9009 H   0  0  0  0  0  0
    2.8917   40.2628   26.8364 H   0  0  0  0  0  0
    4.6760   40.2036   26.6376 H   0  0  0  0  0  0
    4.3208   36.6098   27.2428 H   0  0  0  0  0  0
    2.6929   36.8493   27.9634 H   0  0  0  0  0  0
    3.0530   36.6833   25.2246 H   0  0  0  0  0  0
    1.7801   37.7173   25.9575 H   0  0  0  0  0  0
    3.0073   39.3290   24.6687 H   0  0  0  0  0  0
    4.5779   38.5235   25.0018 H   0  0  0  0  0  0
  1  2  2  0  0  0
  1  3  1  0  0  0
  1 25  1  0  0  0
  3  4  1  0  0  0
  3 37  1  0  0  0
  3 38  1  0  0  0
  4  5  1  0  0  0
  4 39  1  0  0  0
  4 40  1  0  0  0
  5  6  1  0  0  0
  5 41  1  0  0  0
  5 42  1  0  0  0
  6  7  1  0  0  0
  6 10  1  0  0  0
  7  8  1  0  0  0
  7 11  2  0  0  0
  8  9  1  0  0  0
  8 43  1  0  0  0
  9 10  1  0  0  0
  9 13  1  0  0  0
  9 19  1  0  0  0
 10 12  2  0  0  0
 13 14  2  0  0  0
 13 18  1  0  0  0
 14 15  1  0  0  0
 14 44  1  0  0  0
 15 16  2  0  0  0
 15 45  1  0  0  0
 16 17  1  0  0  0
 16 46  1  0  0  0
 17 18  2  0  0  0
 17 47  1  0  0  0
 18 48  1  0  0  0
 19 20  2  0  0  0
 19 24  1  0  0  0
 20 21  1  0  0  0
 20 49  1  0  0  0
 21 22  2  0  0  0
 21 50  1  0  0  0
 22 23  1  0  0  0
 22 51  1  0  0  0
 23 24  2  0  0  0
 23 52  1  0  0  0
 24 53  1  0  0  0
 25 26  1  0  0  0
 25 31  1  0  0  0
 26 27  1  0  0  0
 26 29  1  0  0  0
 26 54  1  0  0  0
 27 28  2  0  0  0
 27 32  1  0  0  0
 29 30  1  0  0  0
 29 55  1  0  0  0
 29 56  1  0  0  0
 30 31  1  0  0  0
 30 57  1  0  0  0
 30 58  1  0  0  0
 31 59  1  0  0  0
 31 60  1  0  0  0
 32 33  1  0  0  0
 32 34  1  0  0  0
 33 36  1  0  0  0
 33 61  1  0  0  0
 33 62  1  0  0  0
 34 35  1  0  0  0
 34 63  1  0  0  0
 34 64  1  0  0  0
 35 36  1  0  0  0
 35 65  1  0  0  0
 35 66  1  0  0  0
 36 67  1  0  0  0
 36 68  1  0  0  0
M  END
> <s_m_source_file>
../3eq9_ligand.sdf

> <i_m_source_file_index>
1

> <s_epik_input>
W0NIMl0xW0NIMl1bQ0gyXVtDSDJdTjFDKD1PKVtDQEhdKFtDSDJdW0NIMl1bQ0gyXTIpTjJDKD1PKVtDSDJdW0NIMl1bQ0gyXU4oQzM9TylDKD1PKVtOSF1DMyhjNFtjSF1bY0hdW2NIXVtjSF1bY0hdNCljNVtjSF1bY0hdW2NIXVtjSF1bY0hdNQ==

> <s_epik_cmdline>
J2VwaWtfYXBwJywgJy1pbWFlJywgJ2xpZ2FuZF9wcm8ubWFlJywgJy1vbWFlJywgJ2xpZ2FuZF9wcmVwLm1hZScsICctbXMnLCAnMScsICctcGgnLCAnNycsICctcGh0JywgJzAuNScsICctbnQn

> <r_lp_tautomer_probability>
1

> <r_epik_Ionization_Penalty>
  0.0009

> <r_epik_Ionization_Penalty_Charging>
  0.0000

> <r_epik_Ionization_Penalty_Neutral>
  0.0009

> <r_epik_State_Penalty>
 -0.0000

> <r_epik_Charging_Adjusted_Penalty>
0

> <i_epik_Tot_Q>
0

> <i_epik_Tot_abs_Q>
0

$$$$
