3eql_ligand
                    3D
 Schrodinger Suite 2020-3.
 62 62  0  0  1  0            999 V2000
  -11.7150   57.2370    2.8410 O   0  0  0  0  0  0
   -9.3460   57.7160    2.5350 C   0  0  0  0  0  0
   -7.3060   53.7010    7.9880 N   0  0  0  0  0  0
   -9.6250   59.0970    2.5600 C   0  0  0  0  0  0
  -10.9860   59.5820    2.6870 C   0  0  0  0  0  0
   -8.5780   59.9970    2.4230 O   0  5  0  0  0  0
  -12.0130   58.6080    2.8140 C   0  0  0  0  0  0
  -10.3740   56.7680    2.6860 C   0  0  2  0  0  0
  -11.1580   61.1640    2.6710 C   0  0  0  0  0  0
  -11.8490   61.5950    3.9670 C   0  0  0  0  0  0
  -13.1700   58.9770    2.8840 O   0  0  0  0  0  0
  -11.0480   61.2920    5.0980 C   0  0  0  0  0  0
  -11.6660   61.6930    6.4710 C   0  0  0  0  0  0
  -11.0670   61.1540    7.6190 C   0  0  0  0  0  0
  -11.5500   61.4720    9.0060 C   0  0  0  0  0  0
  -11.3110   62.8610    9.5820 C   0  0  0  0  0  0
  -12.4710   63.8290    9.3920 C   0  0  0  0  0  0
  -12.3960   65.2650    9.8880 C   0  0  0  0  0  0
  -13.1920   62.2830    4.0150 C   0  0  0  0  0  0
   -9.8870   60.1750    7.5260 C   0  0  0  0  0  0
  -10.1100   55.2510    2.6670 C   0  0  0  0  0  0
   -8.9150   54.9100    3.5740 C   0  0  0  0  0  0
   -9.3000   54.6100    5.0250 C   0  0  0  0  0  0
   -8.0460   54.2970    5.8130 C   0  0  0  0  0  0
   -8.3010   54.0080    7.1340 C   0  0  0  0  0  0
   -7.4860   53.4010    9.2840 C   0  0  0  0  0  0
   -6.4000   52.7840   11.2550 C   0  0  0  0  0  0
  -10.7510   61.6980    1.6530 O   0  0  0  0  0  0
   -6.4110   53.1310    9.9220 O   0  0  0  0  0  0
   -8.6720   53.4040    9.7940 O   0  0  0  0  0  0
   -8.8928   57.4510    1.5684 H   0  0  0  0  0  0
  -10.5095   56.7411    1.5947 H   0  0  0  0  0  0
  -10.0688   60.8087    4.9650 H   0  0  0  0  0  0
  -12.5314   62.3653    6.5662 H   0  0  0  0  0  0
  -12.6414   61.3431    9.0527 H   0  0  0  0  0  0
  -11.0695   60.7934    9.7262 H   0  0  0  0  0  0
  -11.1322   62.7832   10.6646 H   0  0  0  0  0  0
  -10.4333   63.3131    9.0970 H   0  0  0  0  0  0
  -12.6797   63.9449    8.3182 H   0  0  0  0  0  0
  -13.3643   63.4348    9.8986 H   0  0  0  0  0  0
  -13.3354   65.7850    9.6490 H   0  0  0  0  0  0
  -11.5569   65.7793    9.3966 H   0  0  0  0  0  0
  -12.2415   65.2691   10.9771 H   0  0  0  0  0  0
  -13.5863   62.3891    2.9936 H   0  0  0  0  0  0
  -13.0781   63.2783    4.4693 H   0  0  0  0  0  0
  -13.8901   61.6828    4.6170 H   0  0  0  0  0  0
   -9.6224   60.0190    6.4698 H   0  0  0  0  0  0
  -10.1716   59.2137    7.9786 H   0  0  0  0  0  0
   -9.0220   60.5913    8.0631 H   0  0  0  0  0  0
  -11.0017   54.7191    3.0302 H   0  0  0  0  0  0
   -9.8854   54.9307    1.6389 H   0  0  0  0  0  0
   -8.4010   54.0192    3.1838 H   0  0  0  0  0  0
   -8.2151   55.7584    3.5927 H   0  0  0  0  0  0
   -9.8022   55.4868    5.4599 H   0  0  0  0  0  0
   -9.9807   53.7464    5.0527 H   0  0  0  0  0  0
   -7.5431   53.4244    5.3705 H   0  0  0  0  0  0
   -7.3692   55.1637    5.7846 H   0  0  0  0  0  0
   -9.3422   54.0313    7.4881 H   0  0  0  0  0  0
   -5.3646   52.5998   11.5774 H   0  0  0  0  0  0
   -6.9974   51.8720   11.4014 H   0  0  0  0  0  0
   -6.8292   53.6031   11.8506 H   0  0  0  0  0  0
   -8.6474   57.4683    3.3478 H   0  0  0  0  0  0
  1  7  1  0  0  0
  1  8  1  0  0  0
  2  4  1  0  0  0
  2  8  1  0  0  0
  2 31  1  0  0  0
  2 62  1  0  0  0
  3 25  2  0  0  0
  3 26  1  0  0  0
  4  5  2  0  0  0
  4  6  1  0  0  0
  5  7  1  0  0  0
  5  9  1  0  0  0
  7 11  2  0  0  0
  8 21  1  0  0  0
  8 32  1  0  0  0
  9 10  1  0  0  0
  9 28  2  0  0  0
 10 12  2  0  0  0
 10 19  1  0  0  0
 12 13  1  0  0  0
 12 33  1  0  0  0
 13 14  2  0  0  0
 13 34  1  0  0  0
 14 15  1  0  0  0
 14 20  1  0  0  0
 15 16  1  0  0  0
 15 35  1  0  0  0
 15 36  1  0  0  0
 16 17  1  0  0  0
 16 37  1  0  0  0
 16 38  1  0  0  0
 17 18  1  0  0  0
 17 39  1  0  0  0
 17 40  1  0  0  0
 18 41  1  0  0  0
 18 42  1  0  0  0
 18 43  1  0  0  0
 19 44  1  0  0  0
 19 45  1  0  0  0
 19 46  1  0  0  0
 20 47  1  0  0  0
 20 48  1  0  0  0
 20 49  1  0  0  0
 21 22  1  0  0  0
 21 50  1  0  0  0
 21 51  1  0  0  0
 22 23  1  0  0  0
 22 52  1  0  0  0
 22 53  1  0  0  0
 23 24  1  0  0  0
 23 54  1  0  0  0
 23 55  1  0  0  0
 24 25  1  0  0  0
 24 56  1  0  0  0
 24 57  1  0  0  0
 25 58  1  0  0  0
 26 29  1  0  0  0
 26 30  2  0  0  0
 27 29  1  0  0  0
 27 59  1  0  0  0
 27 60  1  0  0  0
 27 61  1  0  0  0
M  CHG  1   6  -1
M  END
> <s_m_source_file>
../3eql_ligand.sdf

> <i_m_source_file_index>
1

> <s_epik_input>
W0NIM11PQyg9TykvTj1bQ0hdL1tDSDJdW0NIMl1bQ0gyXVtDSDJdW0NAQEhdKFtDSF09QzFbT0hdKU9DKD1PKVtDSF0xQyg9TykvQyhbQ0gzXSk9W0NIXS9bQ0hdPUMoW0NIM10pL1tDSDJdW0NIMl1bQ0gyXVtDSDNd

> <s_epik_cmdline>
J2VwaWtfYXBwJywgJy1pbWFlJywgJ2xpZ2FuZF9wcm8ubWFlJywgJy1vbWFlJywgJ2xpZ2FuZF9wcmVwLm1hZScsICctbXMnLCAnMScsICctcGgnLCAnNycsICctcGh0JywgJzAuNScsICctbnQn

> <r_lp_tautomer_probability>
1

> <r_epik_Ionization_Penalty>
  0.0078

> <r_epik_Ionization_Penalty_Charging>
  0.0061

> <r_epik_Ionization_Penalty_Neutral>
  0.0017

> <r_epik_State_Penalty>
 -0.0000

> <r_epik_Charging_Adjusted_Penalty>
0.00614665664058607

> <i_epik_Tot_Q>
-1

> <i_epik_Tot_abs_Q>
1

> <s_epik_Chemistry_Notes>
This compound has an ester and may undergo hydrolysis at high or low pH. This compound has an imine and may undergo hydrolysis.

$$$$
