3eqs_ligand
                    3D
 Schrodinger Suite 2020-3.
181184  0  0  1  0            999 V2000
   -6.1800    8.9780   13.3720 N   0  3  0  0  0  0
   -6.1270    7.7350   12.5510 C   0  0  2  0  0  0
   -5.8490    8.0770   11.0730 C   0  0  0  0  0  0
   -6.5630    8.8690   10.4600 O   0  0  0  0  0  0
   -7.4440    6.9700   12.6710 C   0  0  2  0  0  0
   -7.7200    6.7720   14.0770 O   0  0  0  0  0  0
   -7.3300    5.6150   11.9580 C   0  0  0  0  0  0
   -4.7920    7.5050   10.5070 N   0  0  0  0  0  0
   -4.4550    7.8090    9.1080 C   0  0  2  0  0  0
   -5.3060    6.9970    8.1350 C   0  0  0  0  0  0
   -5.9080    5.9860    8.4980 O   0  0  0  0  0  0
   -2.9770    7.4830    8.8350 C   0  0  0  0  0  0
   -2.7750    6.0650    8.8990 O   0  0  0  0  0  0
   -5.3450    7.4270    6.8750 N   0  0  0  0  0  0
   -5.9760    6.6400    5.8470 C   0  0  2  0  0  0
   -5.5060    5.1940    5.8610 C   0  0  0  0  0  0
   -6.3450    4.2750    5.8310 O   0  0  0  0  0  0
   -5.7580    7.2550    4.4630 C   0  0  0  0  0  0
   -6.2540    6.3630    3.3680 C   0  0  0  0  0  0
   -7.6150    6.3630    3.0250 C   0  0  0  0  0  0
   -5.4020    5.4430    2.7420 C   0  0  0  0  0  0
   -8.0810    5.4650    2.0530 C   0  0  0  0  0  0
   -5.8770    4.5600    1.7680 C   0  0  0  0  0  0
   -7.2200    4.5700    1.4170 C   0  0  0  0  0  0
   -4.1910    4.9730    5.9400 N   0  0  0  0  0  0
   -3.6970    3.6030    5.8560 C   0  0  2  0  0  0
   -4.2290    2.8100    7.0460 C   0  0  0  0  0  0
   -4.5390    1.6170    6.9190 O   0  0  0  0  0  0
   -2.1890    3.6040    5.8360 C   0  0  0  0  0  0
   -4.3060    3.4490    8.2220 N   0  0  0  0  0  0
   -4.8390    2.7460    9.4010 C   0  0  2  0  0  0
   -6.2660    2.3250    9.1690 C   0  0  0  0  0  0
   -6.6180    1.1680    9.4670 O   0  0  0  0  0  0
   -4.7160    3.5920   10.6600 C   0  0  0  0  0  0
   -3.2740    3.6490   11.1650 C   0  0  0  0  0  0
   -3.1510    4.5620   12.3430 C   0  0  0  0  0  0
   -3.2420    5.7770   12.1300 O   0  0  0  0  0  0
   -2.9160    4.0820   13.4760 O   0  0  0  0  0  0
   -7.0930    3.2210    8.6400 N   0  0  0  0  0  0
   -8.4820    2.8350    8.3630 C   0  0  2  0  0  0
   -8.5340    1.7470    7.2910 C   0  0  0  0  0  0
   -9.2740    0.7580    7.3970 O   0  0  0  0  0  0
   -9.2540    4.0250    7.8190 C   0  0  0  0  0  0
   -9.6920    5.0040    8.9010 C   0  0  0  0  0  0
  -10.6150    4.6400    9.8710 C   0  0  0  0  0  0
   -9.2390    6.3300    8.8750 C   0  0  0  0  0  0
  -11.0490    5.5710   10.8550 C   0  0  0  0  0  0
   -9.6540    7.2570    9.8430 C   0  0  0  0  0  0
  -10.5690    6.8700   10.8140 C   0  0  0  0  0  0
  -10.9920    7.7790   11.7570 O   0  0  0  0  0  0
   -7.7190    1.9180    6.2640 N   0  0  0  0  0  0
   -7.8020    1.0160    5.1030 C   0  0  2  0  0  0
   -7.3730   -0.4170    5.4840 C   0  0  0  0  0  0
   -7.9400   -1.4180    4.9890 O   0  0  0  0  0  0
   -6.8940    1.5470    3.9640 C   0  0  0  0  0  0
   -7.1350    0.8400    2.6750 C   0  0  0  0  0  0
   -6.3450   -0.1420    2.0830 C   0  0  0  0  0  0
   -8.2810    0.9970    1.8220 C   0  0  0  0  0  0
   -6.9380   -0.5780    0.9210 N   0  0  0  0  0  0
   -8.1250    0.0930    0.7390 C   0  0  0  0  0  0
   -9.4110    1.8460    1.8480 C   0  0  0  0  0  0
   -9.0530   -0.0030   -0.2940 C   0  0  0  0  0  0
  -10.3660    1.7290    0.8290 C   0  0  0  0  0  0
  -10.1810    0.7950   -0.2310 C   0  0  0  0  0  0
   -6.3770   -0.5210    6.3560 N   0  0  0  0  0  0
   -5.8650   -1.8300    6.7330 C   0  0  2  0  0  0
   -6.8480   -2.6370    7.5490 C   0  0  0  0  0  0
   -6.7130   -3.8570    7.6420 O   0  0  0  0  0  0
   -4.5040   -1.6870    7.3920 C   0  0  0  0  0  0
   -3.4010   -1.4290    6.3720 C   0  0  0  0  0  0
   -3.4700   -1.9260    5.2370 O   0  0  0  0  0  0
   -2.3630   -0.6900    6.7730 N   0  0  0  0  0  0
   -7.8500   -1.9770    8.1340 N   0  0  0  0  0  0
   -8.9020   -2.7300    8.8240 C   0  0  2  0  0  0
   -9.7730   -3.5580    7.8560 C   0  0  0  0  0  0
  -10.5640   -4.3770    8.3080 O   0  0  0  0  0  0
   -9.7870   -1.7780    9.6430 C   0  0  0  0  0  0
   -9.0150   -1.1670   10.8000 C   0  0  0  0  0  0
   -9.8040    0.0060   11.3640 C   0  0  0  0  0  0
   -8.7660   -2.1740   11.8530 C   0  0  0  0  0  0
   -9.6670   -3.3200    6.5390 N   0  0  0  0  0  0
  -10.4420   -4.1100    5.5730 C   0  0  2  0  0  0
   -9.9310   -5.5120    5.4540 C   0  0  0  0  0  0
  -10.6650   -6.4050    5.0200 O   0  0  0  0  0  0
  -10.3920   -3.4900    4.1830 C   0  0  0  0  0  0
  -11.2280   -2.2270    4.0090 C   0  0  0  0  0  0
  -10.6880   -1.3950    2.8660 C   0  0  0  0  0  0
  -12.6940   -2.6450    3.7730 C   0  0  0  0  0  0
   -8.6740   -5.7310    5.8010 N   0  0  0  0  0  0
   -8.1170   -7.0530    5.6290 C   0  0  2  0  0  0
   -8.0370   -7.7360    6.9820 C   0  0  0  0  0  0
   -7.1780   -7.4000    7.7810 O   0  0  0  0  0  0
   -6.7160   -6.9780    4.9930 C   0  0  0  0  0  0
   -6.6710   -6.2150    3.7660 O   0  0  0  0  0  0
   -5.2276    9.5203   13.2782 H   0  0  0  0  0  0
   -6.3494    8.7141   14.4263 H   0  0  0  0  0  0
   -7.0022    9.6169   13.0173 H   0  0  0  0  0  0
   -5.3084    7.1203   12.9536 H   0  0  0  0  0  0
   -8.2848    7.5436   12.2539 H   0  0  0  0  0  0
   -7.8335    7.6402   14.7428 H   0  0  0  0  0  0
   -7.1202    5.7788   10.8907 H   0  0  0  0  0  0
   -8.2757    5.0635   12.0654 H   0  0  0  0  0  0
   -6.5124    5.0320   12.4071 H   0  0  0  0  0  0
   -4.1692    6.8049   11.0831 H   0  0  0  0  0  0
   -4.6707    8.8816    8.9942 H   0  0  0  0  0  0
   -2.7003    7.8459    7.8341 H   0  0  0  0  0  0
   -2.3473    7.9755    9.5906 H   0  0  0  0  0  0
   -1.7732    5.6439    8.7287 H   0  0  0  0  0  0
   -4.8880    8.3955    6.6236 H   0  0  0  0  0  0
   -7.0402    6.6755    6.1229 H   0  0  0  0  0  0
   -6.2976    8.2113    4.3976 H   0  0  0  0  0  0
   -4.6835    7.4287    4.3040 H   0  0  0  0  0  0
   -8.3040    7.0547    3.5096 H   0  0  0  0  0  0
   -4.3484    5.4155    3.0201 H   0  0  0  0  0  0
   -9.1385    5.4665    1.7890 H   0  0  0  0  0  0
   -5.1926    3.8633    1.2839 H   0  0  0  0  0  0
   -7.5968    3.8879    0.6549 H   0  0  0  0  0  0
   -3.4837    5.8059    6.0666 H   0  0  0  0  0  0
   -4.0595    3.1683    4.9128 H   0  0  0  0  0  0
   -1.8342    4.1816    4.9697 H   0  0  0  0  0  0
   -1.8226    2.5695    5.7619 H   0  0  0  0  0  0
   -1.8103    4.0617    6.7618 H   0  0  0  0  0  0
   -3.9732    4.4939    8.3086 H   0  0  0  0  0  0
   -4.2221    1.8434    9.5226 H   0  0  0  0  0  0
   -5.0484    4.6185   10.4459 H   0  0  0  0  0  0
   -5.3439    3.1614   11.4539 H   0  0  0  0  0  0
   -2.9508    2.6415   11.4659 H   0  0  0  0  0  0
   -2.6190    4.0199   10.3629 H   0  0  0  0  0  0
   -2.8242    4.7475   14.3470 H   0  0  0  0  0  0
   -6.7491    4.2402    8.4099 H   0  0  0  0  0  0
   -8.8874    2.4849    9.3238 H   0  0  0  0  0  0
   -8.6225    4.5777    7.1079 H   0  0  0  0  0  0
  -10.1603    3.6707    7.3060 H   0  0  0  0  0  0
  -11.0135    3.6255    9.8791 H   0  0  0  0  0  0
   -8.5527    6.6465    8.0895 H   0  0  0  0  0  0
  -11.7505    5.2662   11.6316 H   0  0  0  0  0  0
   -9.2612    8.2737    9.8332 H   0  0  0  0  0  0
  -11.7164    7.4757   12.5272 H   0  0  0  0  0  0
   -6.9798    2.7325    6.2759 H   0  0  0  0  0  0
   -8.8602    1.0160    4.8027 H   0  0  0  0  0  0
   -7.0903    2.6180    3.8077 H   0  0  0  0  0  0
   -5.8387    1.4041    4.2395 H   0  0  0  0  0  0
   -5.3991   -0.5098    2.4805 H   0  0  0  0  0  0
   -9.5372    2.5780    2.6457 H   0  0  0  0  0  0
   -8.8954   -0.6869   -1.1280 H   0  0  0  0  0  0
  -11.2567    2.3570    0.8475 H   0  0  0  0  0  0
  -10.9422    0.7078   -1.0063 H   0  0  0  0  0  0
   -5.9388    0.3880    6.7939 H   0  0  0  0  0  0
   -5.7499   -2.3841    5.7897 H   0  0  0  0  0  0
   -4.5248   -0.8427    8.0968 H   0  0  0  0  0  0
   -4.2605   -2.6121    7.9351 H   0  0  0  0  0  0
   -2.3468   -0.2702    7.7896 H   0  0  0  0  0  0
   -1.5244   -0.5013    6.0866 H   0  0  0  0  0  0
   -7.8910   -0.8782    8.1018 H   0  0  0  0  0  0
   -8.3501   -3.4176    9.4818 H   0  0  0  0  0  0
  -10.1489   -0.9658    8.9955 H   0  0  0  0  0  0
  -10.6453   -2.3334   10.0490 H   0  0  0  0  0  0
   -8.0264   -0.8317   10.4534 H   0  0  0  0  0  0
   -9.9806    0.7453   10.5688 H   0  0  0  0  0  0
   -9.2328    0.4739   12.1794 H   0  0  0  0  0  0
  -10.7687   -0.3534   11.7514 H   0  0  0  0  0  0
   -8.1956   -3.0139   11.4296 H   0  0  0  0  0  0
   -9.7265   -2.5424   12.2425 H   0  0  0  0  0  0
   -8.1906   -1.7151   12.6705 H   0  0  0  0  0  0
   -8.9930   -2.5259    6.1852 H   0  0  0  0  0  0
  -11.4610   -4.1161    5.9872 H   0  0  0  0  0  0
   -9.3545   -3.2163    3.9407 H   0  0  0  0  0  0
  -10.7617   -4.2162    3.4441 H   0  0  0  0  0  0
  -11.1610   -1.5946    4.9066 H   0  0  0  0  0  0
   -9.6437   -1.1195    3.0745 H   0  0  0  0  0  0
  -11.2934   -0.4829    2.7585 H   0  0  0  0  0  0
  -10.7345   -1.9779    1.9343 H   0  0  0  0  0  0
  -13.0456   -3.2459    4.6246 H   0  0  0  0  0  0
  -12.7614   -3.2411    2.8510 H   0  0  0  0  0  0
  -13.3204   -1.7461    3.6751 H   0  0  0  0  0  0
   -8.0540   -4.9226    6.2159 H   0  0  0  0  0  0
   -8.8096   -7.5882    4.9627 H   0  0  0  0  0  0
   -8.7502   -8.5316    7.2433 H   0  0  0  0  0  0
   -6.0182   -6.5028    5.6981 H   0  0  0  0  0  0
   -6.3650   -7.9937    4.7583 H   0  0  0  0  0  0
   -5.7196   -6.0963    3.2267 H   0  0  0  0  0  0
  1  2  1  0  0  0
  1 95  1  0  0  0
  1 96  1  0  0  0
  1 97  1  0  0  0
  2  3  1  0  0  0
  2  5  1  0  0  0
  2 98  1  0  0  0
  3  4  2  0  0  0
  3  8  1  0  0  0
  5  6  1  0  0  0
  5  7  1  0  0  0
  5 99  1  0  0  0
  6100  1  0  0  0
  7101  1  0  0  0
  7102  1  0  0  0
  7103  1  0  0  0
  8  9  1  0  0  0
  8104  1  0  0  0
  9 10  1  0  0  0
  9 12  1  0  0  0
  9105  1  0  0  0
 10 11  2  0  0  0
 10 14  1  0  0  0
 12 13  1  0  0  0
 12106  1  0  0  0
 12107  1  0  0  0
 13108  1  0  0  0
 14 15  1  0  0  0
 14109  1  0  0  0
 15 16  1  0  0  0
 15 18  1  0  0  0
 15110  1  0  0  0
 16 17  2  0  0  0
 16 25  1  0  0  0
 18 19  1  0  0  0
 18111  1  0  0  0
 18112  1  0  0  0
 19 20  2  0  0  0
 19 21  1  0  0  0
 20 22  1  0  0  0
 20113  1  0  0  0
 21 23  2  0  0  0
 21114  1  0  0  0
 22 24  2  0  0  0
 22115  1  0  0  0
 23 24  1  0  0  0
 23116  1  0  0  0
 24117  1  0  0  0
 25 26  1  0  0  0
 25118  1  0  0  0
 26 27  1  0  0  0
 26 29  1  0  0  0
 26119  1  0  0  0
 27 28  2  0  0  0
 27 30  1  0  0  0
 29120  1  0  0  0
 29121  1  0  0  0
 29122  1  0  0  0
 30 31  1  0  0  0
 30123  1  0  0  0
 31 32  1  0  0  0
 31 34  1  0  0  0
 31124  1  0  0  0
 32 33  2  0  0  0
 32 39  1  0  0  0
 34 35  1  0  0  0
 34125  1  0  0  0
 34126  1  0  0  0
 35 36  1  0  0  0
 35127  1  0  0  0
 35128  1  0  0  0
 36 37  2  0  0  0
 36 38  1  0  0  0
 38129  1  0  0  0
 39 40  1  0  0  0
 39130  1  0  0  0
 40 41  1  0  0  0
 40 43  1  0  0  0
 40131  1  0  0  0
 41 42  2  0  0  0
 41 51  1  0  0  0
 43 44  1  0  0  0
 43132  1  0  0  0
 43133  1  0  0  0
 44 45  2  0  0  0
 44 46  1  0  0  0
 45 47  1  0  0  0
 45134  1  0  0  0
 46 48  2  0  0  0
 46135  1  0  0  0
 47 49  2  0  0  0
 47136  1  0  0  0
 48 49  1  0  0  0
 48137  1  0  0  0
 49 50  1  0  0  0
 50138  1  0  0  0
 51 52  1  0  0  0
 51139  1  0  0  0
 52 53  1  0  0  0
 52 55  1  0  0  0
 52140  1  0  0  0
 53 54  2  0  0  0
 53 65  1  0  0  0
 55 56  1  0  0  0
 55141  1  0  0  0
 55142  1  0  0  0
 56 57  2  0  0  0
 56 58  1  0  0  0
 57 59  1  0  0  0
 57143  1  0  0  0
 58 60  2  0  0  0
 58 61  1  0  0  0
 59 60  1  0  0  0
 60 62  1  0  0  0
 61 63  2  0  0  0
 61144  1  0  0  0
 62 64  2  0  0  0
 62145  1  0  0  0
 63 64  1  0  0  0
 63146  1  0  0  0
 64147  1  0  0  0
 65 66  1  0  0  0
 65148  1  0  0  0
 66 67  1  0  0  0
 66 69  1  0  0  0
 66149  1  0  0  0
 67 68  2  0  0  0
 67 73  1  0  0  0
 69 70  1  0  0  0
 69150  1  0  0  0
 69151  1  0  0  0
 70 71  2  0  0  0
 70 72  1  0  0  0
 72152  1  0  0  0
 72153  1  0  0  0
 73 74  1  0  0  0
 73154  1  0  0  0
 74 75  1  0  0  0
 74 77  1  0  0  0
 74155  1  0  0  0
 75 76  2  0  0  0
 75 81  1  0  0  0
 77 78  1  0  0  0
 77156  1  0  0  0
 77157  1  0  0  0
 78 79  1  0  0  0
 78 80  1  0  0  0
 78158  1  0  0  0
 79159  1  0  0  0
 79160  1  0  0  0
 79161  1  0  0  0
 80162  1  0  0  0
 80163  1  0  0  0
 80164  1  0  0  0
 81 82  1  0  0  0
 81165  1  0  0  0
 82 83  1  0  0  0
 82 85  1  0  0  0
 82166  1  0  0  0
 83 84  2  0  0  0
 83 89  1  0  0  0
 85 86  1  0  0  0
 85167  1  0  0  0
 85168  1  0  0  0
 86 87  1  0  0  0
 86 88  1  0  0  0
 86169  1  0  0  0
 87170  1  0  0  0
 87171  1  0  0  0
 87172  1  0  0  0
 88173  1  0  0  0
 88174  1  0  0  0
 88175  1  0  0  0
 89 90  1  0  0  0
 89176  1  0  0  0
 90 91  1  0  0  0
 90 93  1  0  0  0
 90177  1  0  0  0
 91 92  2  0  0  0
 91178  1  0  0  0
 93 94  1  0  0  0
 93179  1  0  0  0
 93180  1  0  0  0
 94181  1  0  0  0
M  CHG  1   1   1
M  END
> <s_m_source_file>
../3eqs_ligand.sdf

> <i_m_source_file_index>
1

> <s_epik_input>
W09IXVtDQEhdKFtDSDNdKVtDQEhdKFtOSDMrXSlDKD1PKVtOSF1bQ0BASF0oW0NIMl1bT0hdKUMoPU8pW05IXVtDQEBIXShbQ0gyXWMxW2NIXVtjSF1bY0hdW2NIXVtjSF0xKUMoPU8pW05IXVtDQEBIXShbQ0gzXSlDKD1PKVtOSF1bQ0BASF0oW0NIMl1bQ0gyXUMoPU8pW09IXSlDKD1PKVtOSF1bQ0BASF0oW0NIMl1jMltjSF1bY0hdYyhbT0hdKVtjSF1bY0hdMilDKD1PKVtOSF1bQ0BASF0oW0NIMl1jM1tjSF1bbkhdYyhjMzQpW2NIXVtjSF1bY0hdW2NIXTQpQyg9TylbTkhdW0NAQEhdKFtDSDJdQyg9TylbTkgyXSlDKD1PKVtOSF1bQ0BASF0oW0NIMl1bQ0hdKFtDSDNdKVtDSDNdKUMoPU8pW05IXVtDQEBIXShbQ0gyXVtDSF0oW0NIM10pW0NIM10pQyg9TylbTkhdW0NASF0oW0NIXT1PKVtDSDJdW09IXQ==

> <s_epik_cmdline>
J2VwaWtfYXBwJywgJy1pbWFlJywgJ2xpZ2FuZF9wcm8ubWFlJywgJy1vbWFlJywgJ2xpZ2FuZF9wcmVwLm1hZScsICctbXMnLCAnMScsICctcGgnLCAnNycsICctcGh0JywgJzAuNScsICctbnQn

> <s_epik_pKa_notes>
Molecule size exceeds maximum supported for generating protonation states

$$$$
