3eqy_ligand
                    3D
 Schrodinger Suite 2020-3.
196200  0  0  1  0            999 V2000
  -25.4930   13.3170   16.6030 N   0  3  0  0  0  0
  -24.3550   14.2480   16.3790 C   0  0  2  0  0  0
  -24.1470   14.4520   14.8750 C   0  0  0  0  0  0
  -24.0660   13.4750   14.0920 O   0  0  0  0  0  0
  -23.0530   13.7260   17.0410 C   0  0  2  0  0  0
  -23.3210   13.4370   18.4210 O   0  0  0  0  0  0
  -21.9190   14.7680   16.9170 C   0  0  0  0  0  0
  -24.0990   15.7230   14.4750 N   0  0  0  0  0  0
  -23.9680   16.0580   13.0730 C   0  0  2  0  0  0
  -22.5220   16.0120   12.6500 C   0  0  0  0  0  0
  -21.6010   16.1040   13.4770 O   0  0  0  0  0  0
  -24.4780   17.4790   12.8020 C   0  0  0  0  0  0
  -23.6230   18.4250   13.4370 O   0  0  0  0  0  0
  -22.3420   15.9040   11.3400 N   0  0  0  0  0  0
  -21.0050   16.0240   10.7670 C   0  0  2  0  0  0
  -20.3030   17.2830   11.2860 C   0  0  0  0  0  0
  -19.1370   17.2120   11.7340 O   0  0  0  0  0  0
  -21.0360   16.0360    9.2450 C   0  0  0  0  0  0
  -19.6910   16.4000    8.6710 C   0  0  0  0  0  0
  -18.6580   15.4500    8.6290 C   0  0  0  0  0  0
  -19.4300   17.7070    8.2440 C   0  0  0  0  0  0
  -17.3910   15.8220    8.1870 C   0  0  0  0  0  0
  -18.1650   18.0570    7.7840 C   0  0  0  0  0  0
  -17.1520   17.1210    7.7560 C   0  0  0  0  0  0
  -20.9900   18.4310   11.2280 N   0  0  0  0  0  0
  -20.3300   19.6680   11.6520 C   0  0  2  0  0  0
  -19.8390   19.5870   13.1060 C   0  0  0  0  0  0
  -18.7830   20.1460   13.4600 O   0  0  0  0  0  0
  -21.2550   20.8690   11.4390 C   0  0  0  0  0  0
  -20.6240   18.9240   13.9620 N   0  0  0  0  0  0
  -20.2460   18.8200   15.3680 C   0  0  2  0  0  0
  -19.0430   17.8860   15.5340 C   0  0  0  0  0  0
  -18.1010   18.2020   16.2630 O   0  0  0  0  0  0
  -21.4460   18.3680   16.1910 C   0  0  0  0  0  0
  -22.5450   19.4260   16.2980 C   0  0  0  0  0  0
  -23.8570   18.8820   16.8820 C   0  0  0  0  0  0
  -24.2540   17.7320   16.6230 O   0  0  0  0  0  0
  -24.5210   19.6420   17.6290 O   0  0  0  0  0  0
  -19.0030   16.7950   14.7600 N   0  0  0  0  0  0
  -17.8320   15.9290   14.8190 C   0  0  2  0  0  0
  -16.6050   16.7000   14.2890 C   0  0  0  0  0  0
  -15.5000   16.6250   14.8610 O   0  0  0  0  0  0
  -18.0440   14.6830   13.9350 C   0  0  0  0  0  0
  -18.8840   13.5960   14.5230 C   0  0  0  0  0  0
  -18.4840   12.9230   15.6440 C   0  0  0  0  0  0
  -20.0860   13.2340   13.9110 C   0  0  0  0  0  0
  -19.2720   11.8690   16.1770 C   0  0  0  0  0  0
  -20.8930   12.2460   14.4340 C   0  0  0  0  0  0
  -20.4700   11.5400   15.5630 C   0  0  0  0  0  0
  -21.3190   10.5320   16.0490 O   0  0  0  0  0  0
  -16.7960   17.4010   13.1810 N   0  0  0  0  0  0
  -15.6670   18.0660   12.4840 C   0  0  2  0  0  0
  -15.1060   19.1670   13.3820 C   0  0  0  0  0  0
  -13.8870   19.4030   13.4120 O   0  0  0  0  0  0
  -16.1970   18.6500   11.1760 C   0  0  0  0  0  0
  -15.0830   19.1910   10.3210 C   0  0  0  0  0  0
  -14.7740   20.5060   10.1240 C   0  0  0  0  0  0
  -14.1750   18.4200    9.5170 C   0  0  0  0  0  0
  -13.7020   20.6010    9.2640 N   0  0  0  0  0  0
  -13.3160   19.3430    8.8770 C   0  0  0  0  0  0
  -13.9810   17.0350    9.2950 C   0  0  0  0  0  0
  -12.2860   18.9420    8.0260 C   0  0  0  0  0  0
  -12.9630   16.6320    8.4320 C   0  0  0  0  0  0
  -12.1260   17.5820    7.8070 C   0  0  0  0  0  0
  -15.9680   19.8250   14.1700 N   0  0  0  0  0  0
  -15.4830   20.9010   15.0060 C   0  0  2  0  0  0
  -14.5630   20.4470   16.1280 C   0  0  0  0  0  0
  -13.7970   21.2900   16.6990 O   0  0  0  0  0  0
  -16.6640   21.6410   15.5970 C   0  0  0  0  0  0
  -16.2520   23.0000   16.1930 C   0  0  0  0  0  0
  -15.7020   23.8390   15.5470 O   0  0  0  0  0  0
  -16.4630   23.1680   17.4090 N   0  0  0  0  0  0
  -14.6510   19.1560   16.4970 N   0  0  0  0  0  0
  -13.7810   18.6340   17.5270 C   0  0  2  0  0  0
  -12.3580   18.4070   17.0640 C   0  0  0  0  0  0
  -11.4970   18.1170   17.9050 O   0  0  0  0  0  0
  -14.3550   17.3190   18.0670 C   0  0  0  0  0  0
  -15.7090   17.5310   18.7600 C   0  0  0  0  0  0
  -16.2640   16.1860   19.2110 C   0  0  0  0  0  0
  -15.6470   18.5200   19.9460 C   0  0  0  0  0  0
  -12.0930   18.4780   15.7630 N   0  0  0  0  0  0
  -10.7100   18.2570   15.2680 C   0  0  2  0  0  0
   -9.8450   19.4440   15.7120 C   0  0  0  0  0  0
  -10.3490   20.6060   15.8320 O   0  0  0  0  0  0
  -10.7230   18.1440   13.7520 C   0  0  0  0  0  0
  -11.5380   16.9270   13.2700 C   0  0  0  0  0  0
  -11.3660   16.8510   11.7780 C   0  0  0  0  0  0
  -11.0550   15.6270   13.8910 C   0  0  0  0  0  0
   -8.5530   19.1810   15.9430 N   0  0  0  0  0  0
   -7.6810   20.2090   16.4890 C   0  0  2  0  0  0
   -6.2650   19.9180   15.9740 C   0  0  0  0  0  0
   -5.3630   19.6630   16.7660 O   0  0  0  0  0  0
   -7.7280   20.2130   18.0510 C   0  0  0  0  0  0
   -7.5720   18.8920   18.5900 O   0  0  0  0  0  0
   -6.0760   19.9900   14.6430 N   0  0  0  0  0  0
   -4.7240   19.6840   14.0800 C   0  0  2  0  0  0
   -3.6580   20.6720   14.4750 C   0  0  0  0  0  0
   -3.9050   21.8630   14.7250 O   0  0  0  0  0  0
   -4.9140   19.7970   12.5790 C   0  0  0  0  0  0
   -6.0650   20.8560   12.4760 C   0  0  0  0  0  0
   -7.0090   20.4780   13.6280 C   0  0  0  0  0  0
   -2.4740   20.3340   14.5210 O   0  0  0  0  0  0
  -26.3961   13.7191   16.1206 H   0  0  0  0  0  0
  -25.6713   13.2091   17.6831 H   0  0  0  0  0  0
  -25.2532   12.3342   16.1709 H   0  0  0  0  0  0
  -24.6387   15.2006   16.8503 H   0  0  0  0  0  0
  -22.7273   12.7736   16.5973 H   0  0  0  0  0  0
  -24.1037   12.7121   18.6892 H   0  0  0  0  0  0
  -21.7276   14.9769   15.8541 H   0  0  0  0  0  0
  -21.0048   14.3722   17.3834 H   0  0  0  0  0  0
  -22.2173   15.6968   17.4253 H   0  0  0  0  0  0
  -24.1605   16.5224   15.2281 H   0  0  0  0  0  0
  -24.5609   15.2921   12.5516 H   0  0  0  0  0  0
  -24.4863   17.6650   11.7179 H   0  0  0  0  0  0
  -25.4980   17.5846   13.1999 H   0  0  0  0  0  0
  -23.8339   19.5012   13.3515 H   0  0  0  0  0  0
  -23.2069   15.7231   10.6849 H   0  0  0  0  0  0
  -20.4808   15.1181   11.1054 H   0  0  0  0  0  0
  -21.3146   15.0379    8.8761 H   0  0  0  0  0  0
  -21.7746   16.7741    8.8991 H   0  0  0  0  0  0
  -18.8475   14.4232    8.9418 H   0  0  0  0  0  0
  -20.2225   18.4548    8.2721 H   0  0  0  0  0  0
  -16.5829   15.0906    8.1791 H   0  0  0  0  0  0
  -17.9733   19.0748    7.4443 H   0  0  0  0  0  0
  -16.1623   17.4010    7.3951 H   0  0  0  0  0  0
  -22.0300   18.4571   10.8708 H   0  0  0  0  0  0
  -19.4519   19.7619   10.9962 H   0  0  0  0  0  0
  -21.5861   20.8953   10.3903 H   0  0  0  0  0  0
  -20.7124   21.7962   11.6756 H   0  0  0  0  0  0
  -22.1311   20.7784   12.0980 H   0  0  0  0  0  0
  -21.5544   18.4571   13.6066 H   0  0  0  0  0  0
  -19.9512   19.8278   15.6958 H   0  0  0  0  0  0
  -21.8922   17.4751   15.7288 H   0  0  0  0  0  0
  -21.1197   18.1274   17.2135 H   0  0  0  0  0  0
  -22.2051   20.2429   16.9515 H   0  0  0  0  0  0
  -22.7681   19.8254   15.2977 H   0  0  0  0  0  0
  -25.4668   19.2923   18.0685 H   0  0  0  0  0  0
  -19.8367   16.5476   14.0864 H   0  0  0  0  0  0
  -17.7200   15.6483   15.8767 H   0  0  0  0  0  0
  -18.5395   14.9780   12.9983 H   0  0  0  0  0  0
  -17.0701   14.2256   13.7064 H   0  0  0  0  0  0
  -17.5501   13.1986   16.1338 H   0  0  0  0  0  0
  -20.3934   13.7446   12.9984 H   0  0  0  0  0  0
  -18.9381   11.3242   17.0601 H   0  0  0  0  0  0
  -21.8528   12.0177   13.9706 H   0  0  0  0  0  0
  -21.0291    9.9488   16.9355 H   0  0  0  0  0  0
  -17.8165   17.4847   12.7790 H   0  0  0  0  0  0
  -14.8755   17.3307   12.2771 H   0  0  0  0  0  0
  -16.7204   17.8656   10.6097 H   0  0  0  0  0  0
  -16.8955   19.4705   11.3972 H   0  0  0  0  0  0
  -15.2946   21.3498   10.5768 H   0  0  0  0  0  0
  -14.6150   16.2987    9.7890 H   0  0  0  0  0  0
  -11.6305   19.6714    7.5503 H   0  0  0  0  0  0
  -12.8113   15.5703    8.2373 H   0  0  0  0  0  0
  -11.3369   17.2389    7.1378 H   0  0  0  0  0  0
  -17.0341   19.5544   14.1853 H   0  0  0  0  0  0
  -14.8953   21.5233   14.3151 H   0  0  0  0  0  0
  -17.4130   21.8225   14.8121 H   0  0  0  0  0  0
  -17.1122   21.0356   16.3986 H   0  0  0  0  0  0
  -16.9712   22.3859   17.9922 H   0  0  0  0  0  0
  -16.1412   24.0984   17.8997 H   0  0  0  0  0  0
  -15.3871   18.4973   16.0130 H   0  0  0  0  0  0
  -13.7645   19.4377   18.2779 H   0  0  0  0  0  0
  -14.4988   16.6130   17.2358 H   0  0  0  0  0  0
  -13.6562   16.8868   18.7984 H   0  0  0  0  0  0
  -16.3864   17.9778   18.0174 H   0  0  0  0  0  0
  -16.2997   15.4980   18.3535 H   0  0  0  0  0  0
  -17.2786   16.3242   19.6128 H   0  0  0  0  0  0
  -15.6144   15.7647   19.9923 H   0  0  0  0  0  0
  -15.2442   19.4832   19.5995 H   0  0  0  0  0  0
  -14.9942   18.1106   20.7310 H   0  0  0  0  0  0
  -16.6585   18.6701   20.3515 H   0  0  0  0  0  0
  -12.9024   18.7013   15.0524 H   0  0  0  0  0  0
  -10.3242   17.3161   15.6872 H   0  0  0  0  0  0
  -11.1723   19.0507   13.3206 H   0  0  0  0  0  0
   -9.6923   18.0346   13.3836 H   0  0  0  0  0  0
  -12.5956   17.0414   13.5499 H   0  0  0  0  0  0
  -11.7136   17.7890   11.3206 H   0  0  0  0  0  0
  -11.9553   16.0102   11.3834 H   0  0  0  0  0  0
  -10.3033   16.6982   11.5388 H   0  0  0  0  0  0
  -11.1776   15.6746   14.9831 H   0  0  0  0  0  0
   -9.9929   15.4767   13.6474 H   0  0  0  0  0  0
  -11.6449   14.7887   13.4920 H   0  0  0  0  0  0
   -8.1516   18.1819   15.7179 H   0  0  0  0  0  0
   -8.0473   21.1782   16.1197 H   0  0  0  0  0  0
   -6.9157   20.8441   18.4406 H   0  0  0  0  0  0
   -8.6961   20.6122   18.3877 H   0  0  0  0  0  0
   -7.5843   18.7373   19.6790 H   0  0  0  0  0  0
   -4.3929   18.7054   14.4577 H   0  0  0  0  0  0
   -3.0907   22.5456   15.0094 H   0  0  0  0  0  0
   -3.9753   20.1338   12.1149 H   0  0  0  0  0  0
   -5.1936   18.8150   12.1698 H   0  0  0  0  0  0
   -5.6456   21.8660   12.5942 H   0  0  0  0  0  0
   -6.5520   20.7739   11.4931 H   0  0  0  0  0  0
   -7.7130   19.6760   13.3612 H   0  0  0  0  0  0
   -7.5671   21.3382   14.0262 H   0  0  0  0  0  0
  1  2  1  0  0  0
  1103  1  0  0  0
  1104  1  0  0  0
  1105  1  0  0  0
  2  3  1  0  0  0
  2  5  1  0  0  0
  2106  1  0  0  0
  3  4  2  0  0  0
  3  8  1  0  0  0
  5  6  1  0  0  0
  5  7  1  0  0  0
  5107  1  0  0  0
  6108  1  0  0  0
  7109  1  0  0  0
  7110  1  0  0  0
  7111  1  0  0  0
  8  9  1  0  0  0
  8112  1  0  0  0
  9 10  1  0  0  0
  9 12  1  0  0  0
  9113  1  0  0  0
 10 11  2  0  0  0
 10 14  1  0  0  0
 12 13  1  0  0  0
 12114  1  0  0  0
 12115  1  0  0  0
 13116  1  0  0  0
 14 15  1  0  0  0
 14117  1  0  0  0
 15 16  1  0  0  0
 15 18  1  0  0  0
 15118  1  0  0  0
 16 17  2  0  0  0
 16 25  1  0  0  0
 18 19  1  0  0  0
 18119  1  0  0  0
 18120  1  0  0  0
 19 20  2  0  0  0
 19 21  1  0  0  0
 20 22  1  0  0  0
 20121  1  0  0  0
 21 23  2  0  0  0
 21122  1  0  0  0
 22 24  2  0  0  0
 22123  1  0  0  0
 23 24  1  0  0  0
 23124  1  0  0  0
 24125  1  0  0  0
 25 26  1  0  0  0
 25126  1  0  0  0
 26 27  1  0  0  0
 26 29  1  0  0  0
 26127  1  0  0  0
 27 28  2  0  0  0
 27 30  1  0  0  0
 29128  1  0  0  0
 29129  1  0  0  0
 29130  1  0  0  0
 30 31  1  0  0  0
 30131  1  0  0  0
 31 32  1  0  0  0
 31 34  1  0  0  0
 31132  1  0  0  0
 32 33  2  0  0  0
 32 39  1  0  0  0
 34 35  1  0  0  0
 34133  1  0  0  0
 34134  1  0  0  0
 35 36  1  0  0  0
 35135  1  0  0  0
 35136  1  0  0  0
 36 37  2  0  0  0
 36 38  1  0  0  0
 38137  1  0  0  0
 39 40  1  0  0  0
 39138  1  0  0  0
 40 41  1  0  0  0
 40 43  1  0  0  0
 40139  1  0  0  0
 41 42  2  0  0  0
 41 51  1  0  0  0
 43 44  1  0  0  0
 43140  1  0  0  0
 43141  1  0  0  0
 44 45  2  0  0  0
 44 46  1  0  0  0
 45 47  1  0  0  0
 45142  1  0  0  0
 46 48  2  0  0  0
 46143  1  0  0  0
 47 49  2  0  0  0
 47144  1  0  0  0
 48 49  1  0  0  0
 48145  1  0  0  0
 49 50  1  0  0  0
 50146  1  0  0  0
 51 52  1  0  0  0
 51147  1  0  0  0
 52 53  1  0  0  0
 52 55  1  0  0  0
 52148  1  0  0  0
 53 54  2  0  0  0
 53 65  1  0  0  0
 55 56  1  0  0  0
 55149  1  0  0  0
 55150  1  0  0  0
 56 57  2  0  0  0
 56 58  1  0  0  0
 57 59  1  0  0  0
 57151  1  0  0  0
 58 60  2  0  0  0
 58 61  1  0  0  0
 59 60  1  0  0  0
 60 62  1  0  0  0
 61 63  2  0  0  0
 61152  1  0  0  0
 62 64  2  0  0  0
 62153  1  0  0  0
 63 64  1  0  0  0
 63154  1  0  0  0
 64155  1  0  0  0
 65 66  1  0  0  0
 65156  1  0  0  0
 66 67  1  0  0  0
 66 69  1  0  0  0
 66157  1  0  0  0
 67 68  2  0  0  0
 67 73  1  0  0  0
 69 70  1  0  0  0
 69158  1  0  0  0
 69159  1  0  0  0
 70 71  2  0  0  0
 70 72  1  0  0  0
 72160  1  0  0  0
 72161  1  0  0  0
 73 74  1  0  0  0
 73162  1  0  0  0
 74 75  1  0  0  0
 74 77  1  0  0  0
 74163  1  0  0  0
 75 76  2  0  0  0
 75 81  1  0  0  0
 77 78  1  0  0  0
 77164  1  0  0  0
 77165  1  0  0  0
 78 79  1  0  0  0
 78 80  1  0  0  0
 78166  1  0  0  0
 79167  1  0  0  0
 79168  1  0  0  0
 79169  1  0  0  0
 80170  1  0  0  0
 80171  1  0  0  0
 80172  1  0  0  0
 81 82  1  0  0  0
 81173  1  0  0  0
 82 83  1  0  0  0
 82 85  1  0  0  0
 82174  1  0  0  0
 83 84  2  0  0  0
 83 89  1  0  0  0
 85 86  1  0  0  0
 85175  1  0  0  0
 85176  1  0  0  0
 86 87  1  0  0  0
 86 88  1  0  0  0
 86177  1  0  0  0
 87178  1  0  0  0
 87179  1  0  0  0
 87180  1  0  0  0
 88181  1  0  0  0
 88182  1  0  0  0
 88183  1  0  0  0
 89 90  1  0  0  0
 89184  1  0  0  0
 90 91  1  0  0  0
 90 93  1  0  0  0
 90185  1  0  0  0
 91 92  2  0  0  0
 91 95  1  0  0  0
 93 94  1  0  0  0
 93186  1  0  0  0
 93187  1  0  0  0
 94188  1  0  0  0
 95 96  1  0  0  0
 95101  1  0  0  0
 96 97  1  0  0  0
 96 99  1  0  0  0
 96189  1  0  0  0
 97 98  1  0  0  0
 97102  2  0  0  0
 98190  1  0  0  0
 99100  1  0  0  0
 99191  1  0  0  0
 99192  1  0  0  0
100101  1  0  0  0
100193  1  0  0  0
100194  1  0  0  0
101195  1  0  0  0
101196  1  0  0  0
M  CHG  1   1   1
M  END
> <s_m_source_file>
../3eqy_ligand.sdf

> <i_m_source_file_index>
1

> <s_epik_input>
W09IXVtDQEhdKFtDSDNdKVtDQEhdKFtOSDMrXSlDKD1PKVtOSF1bQ0BASF0oW0NIMl1bT0hdKUMoPU8pW05IXVtDQEBIXShbQ0gyXWMxW2NIXVtjSF1bY0hdW2NIXVtjSF0xKUMoPU8pW05IXVtDQEBIXShbQ0gzXSlDKD1PKVtOSF1bQ0BASF0oW0NIMl1bQ0gyXUMoPU8pW09IXSlDKD1PKVtOSF1bQ0BASF0oW0NIMl1jMltjSF1bY0hdYyhbT0hdKVtjSF1bY0hdMilDKD1PKVtOSF1bQ0BASF0oW0NIMl1jM1tjSF1bbkhdYyhjMzQpW2NIXVtjSF1bY0hdW2NIXTQpQyg9TylbTkhdW0NAQEhdKFtDSDJdQyg9TylbTkgyXSlDKD1PKVtOSF1bQ0BASF0oW0NIMl1bQ0hdKFtDSDNdKVtDSDNdKUMoPU8pW05IXVtDQEBIXShbQ0gyXVtDSF0oW0NIM10pW0NIM10pQyg9TylbTkhdW0NAQEhdKFtDSDJdW09IXSlDKD1PKU41W0NASF0oQyg9TylbT0hdKVtDSDJdW0NIMl1bQ0gyXTU=

> <s_epik_cmdline>
J2VwaWtfYXBwJywgJy1pbWFlJywgJ2xpZ2FuZF9wcm8ubWFlJywgJy1vbWFlJywgJ2xpZ2FuZF9wcmVwLm1hZScsICctbXMnLCAnMScsICctcGgnLCAnNycsICctcGh0JywgJzAuNScsICctbnQn

> <s_epik_pKa_notes>
Molecule size exceeds maximum supported for generating protonation states

$$$$
