3er3_ligand
                    3D
 Schrodinger Suite 2020-3.
123125  0  0  1  0            999 V2000
    1.5750   27.1820   19.7870 O   0  0  0  0  0  0
    2.4370   26.3690   19.3430 C   0  0  0  0  0  0
    2.2300   24.9630   19.4450 O   0  0  0  0  0  0
    1.2420   24.5790   20.3970 C   0  0  0  0  0  0
    1.3590   23.0810   20.6800 C   0  0  0  0  0  0
   -0.1490   24.8950   19.8420 C   0  0  0  0  0  0
    1.4510   25.3690   21.6910 C   0  0  0  0  0  0
    3.5630   26.7010   18.7700 N   0  0  0  0  0  0
    3.9450   28.0880   18.5510 C   0  0  2  0  0  0
    3.2430   28.6420   17.3150 C   0  0  0  0  0  0
    3.0250   27.9310   16.3310 O   0  0  0  0  0  0
    5.4510   28.1700   18.2710 C   0  0  0  0  0  0
    6.2940   27.9840   19.5230 C   0  0  0  0  0  0
    5.9110   28.6210   20.7000 C   0  0  0  0  0  0
    7.4410   27.1800   19.4930 C   0  0  0  0  0  0
    6.6670   28.4560   21.8590 C   0  0  0  0  0  0
    8.1990   27.0120   20.6560 C   0  0  0  0  0  0
    7.8100   27.6510   21.8400 C   0  0  0  0  0  0
    2.8670   29.9030   17.3910 N   0  0  0  0  0  0
    2.3980   30.6200   16.1950 C   0  0  2  0  0  0
    3.2410   31.8870   16.0240 C   0  0  0  0  0  0
    2.8600   32.9720   16.4770 O   0  0  0  0  0  0
    0.9600   31.1690   16.2270 C   0  0  0  0  0  0
   -0.1570   30.3180   16.8350 C   0  0  0  0  0  0
   -0.2950   28.9400   16.6380 N   0  0  0  0  0  0
   -1.1920   30.7010   17.6230 C   0  0  0  0  0  0
   -1.3820   28.5440   17.3030 C   0  0  0  0  0  0
   -1.9230   29.5870   17.8950 N   0  0  0  0  0  0
    4.3930   31.7540   15.3860 N   0  0  0  0  0  0
    5.2700   32.9210   15.1470 C   0  0  1  0  0  0
    6.7380   32.5640   15.3220 C   0  0  0  0  0  0
    7.0730   31.9970   16.7040 C   0  0  0  0  0  0
    6.5920   32.9520   17.8140 C   0  0  0  0  0  0
    8.4640   31.8090   16.7910 C   0  0  0  0  0  0
    6.9360   32.3840   19.1980 C   0  0  0  0  0  0
    8.8490   31.1870   18.1410 C   0  0  0  0  0  0
    8.4350   32.1100   19.2840 C   0  0  0  0  0  0
    5.0570   33.4500   13.7300 C   0  0  1  0  0  0
    5.1690   32.3750   12.7980 O   0  0  0  0  0  0
    3.6740   34.0820   13.6810 C   0  0  0  0  0  0
    3.5220   35.0030   12.5420 C   0  0  1  0  0  0
    2.4740   34.4900   11.6660 C   0  0  0  0  0  0
    1.1220   34.9380   12.2060 C   0  0  0  0  0  0
    0.0060   34.4980   11.2620 C   0  0  0  0  0  0
    0.8740   34.3390   13.5930 C   0  0  0  0  0  0
    3.1670   36.2260   12.9760 C   0  0  0  0  0  0
    2.6490   36.3840   14.0880 O   0  0  0  0  0  0
    3.3600   37.2320   12.1200 N   0  0  0  0  0  0
    3.1440   38.6540   12.4960 C   0  0  2  0  0  0
    1.6650   38.9910   12.7110 C   0  0  0  0  0  0
    0.9000   39.2090   11.7660 O   0  0  0  0  0  0
    3.7510   39.5740   11.4350 C   0  0  0  0  0  0
    4.1760   40.9250   12.0040 C   0  0  0  0  0  0
    3.3120   42.0580   11.4720 C   0  0  0  0  0  0
    3.6790   43.4130   12.0600 C   0  0  0  0  0  0
    4.0920   44.3820   11.0390 N   0  3  0  0  0  0
    1.2156   39.0475   13.8868 O   0  5  0  0  0  0
    1.2079   22.5187   19.7467 H   0  0  0  0  0  0
    0.5946   22.7857   21.4139 H   0  0  0  0  0  0
    2.3586   22.8610   21.0830 H   0  0  0  0  0  0
   -0.3090   24.3314   18.9110 H   0  0  0  0  0  0
   -0.2254   25.9728   19.6359 H   0  0  0  0  0  0
   -0.9122   24.6078   20.5802 H   0  0  0  0  0  0
    2.4488   25.1485   22.0981 H   0  0  0  0  0  0
    0.6838   25.0806   22.4246 H   0  0  0  0  0  0
    1.3706   26.4456   21.4803 H   0  0  0  0  0  0
    4.2321   25.8890   18.4490 H   0  0  0  0  0  0
    3.6469   28.6186   19.4673 H   0  0  0  0  0  0
    5.7342   27.3841   17.5554 H   0  0  0  0  0  0
    5.6920   29.1560   17.8471 H   0  0  0  0  0  0
    5.0200   29.2487   20.7151 H   0  0  0  0  0  0
    7.7410   26.6879   18.5678 H   0  0  0  0  0  0
    6.3671   28.9547   22.7807 H   0  0  0  0  0  0
    9.0906   26.3851   20.6411 H   0  0  0  0  0  0
    8.3991   27.5206   22.7478 H   0  0  0  0  0  0
    2.9065   30.4192   18.3615 H   0  0  0  0  0  0
    2.4886   29.8299   15.4351 H   0  0  0  0  0  0
    0.7323   32.1642   15.8174 H   0  0  0  0  0  0
   -1.4992   31.6742   18.0335 H   0  0  0  0  0  0
   -1.7601   27.5227   17.3484 H   0  0  0  0  0  0
    4.6950   30.7574   15.0317 H   0  0  0  0  0  0
    4.9857   33.6694   15.9014 H   0  0  0  0  0  0
    7.0217   31.8042   14.5789 H   0  0  0  0  0  0
    7.3538   33.4642   15.1794 H   0  0  0  0  0  0
    6.6411   30.9949   16.8430 H   0  0  0  0  0  0
    7.0842   33.9286   17.6961 H   0  0  0  0  0  0
    5.5019   33.0796   17.7410 H   0  0  0  0  0  0
    8.7943   31.1373   15.9850 H   0  0  0  0  0  0
    8.9722   32.7794   16.6909 H   0  0  0  0  0  0
    6.6533   33.1112   19.9734 H   0  0  0  0  0  0
    6.3843   31.4457   19.3568 H   0  0  0  0  0  0
    8.3395   30.2191   18.2574 H   0  0  0  0  0  0
    9.9378   31.0349   18.1775 H   0  0  0  0  0  0
    8.9861   33.0589   19.2075 H   0  0  0  0  0  0
    8.6652   31.6288   20.2460 H   0  0  0  0  0  0
    5.8321   34.1621   13.4106 H   0  0  0  0  0  0
    6.1125   31.8157   12.7143 H   0  0  0  0  0  0
    2.9135   33.2930   13.5856 H   0  0  0  0  0  0
    3.4979   34.6511   14.6057 H   0  0  0  0  0  0
    4.4727   35.1633   12.0123 H   0  0  0  0  0  0
    2.6196   34.8851   10.6498 H   0  0  0  0  0  0
    2.5210   33.3913   11.6424 H   0  0  0  0  0  0
    1.1309   36.0356   12.2776 H   0  0  0  0  0  0
    0.1800   34.9262   10.2638 H   0  0  0  0  0  0
   -0.9616   34.8506   11.6486 H   0  0  0  0  0  0
   -0.0046   33.4002   11.1934 H   0  0  0  0  0  0
    1.6761   34.6535   14.2770 H   0  0  0  0  0  0
    0.8624   33.2414   13.5216 H   0  0  0  0  0  0
   -0.0946   34.6918   13.9769 H   0  0  0  0  0  0
    3.6915   36.9763   11.1028 H   0  0  0  0  0  0
    3.6606   38.7839   13.4584 H   0  0  0  0  0  0
    4.6410   39.0953   11.0004 H   0  0  0  0  0  0
    3.0105   39.7589   10.6429 H   0  0  0  0  0  0
    4.0849   40.9062   13.1001 H   0  0  0  0  0  0
    5.2209   41.1275   11.7263 H   0  0  0  0  0  0
    3.4274   42.1255   10.3802 H   0  0  0  0  0  0
    2.2579   41.8618   11.7178 H   0  0  0  0  0  0
    2.8094   43.8312   12.5882 H   0  0  0  0  0  0
    4.5137   43.2923   12.7662 H   0  0  0  0  0  0
    4.3439   45.3380   11.5214 H   0  0  0  0  0  0
    3.2687   44.5367   10.3260 H   0  0  0  0  0  0
    4.9731   43.9979   10.5040 H   0  0  0  0  0  0
    0.4351   28.3969   16.0199 H   0  0  0  0  0  0
  1  2  2  0  0  0
  2  3  1  0  0  0
  2  8  1  0  0  0
  3  4  1  0  0  0
  4  5  1  0  0  0
  4  6  1  0  0  0
  4  7  1  0  0  0
  5 58  1  0  0  0
  5 59  1  0  0  0
  5 60  1  0  0  0
  6 61  1  0  0  0
  6 62  1  0  0  0
  6 63  1  0  0  0
  7 64  1  0  0  0
  7 65  1  0  0  0
  7 66  1  0  0  0
  8  9  1  0  0  0
  8 67  1  0  0  0
  9 12  1  0  0  0
  9 10  1  0  0  0
  9 68  1  0  0  0
 10 11  2  0  0  0
 10 19  1  0  0  0
 12 13  1  0  0  0
 12 69  1  0  0  0
 12 70  1  0  0  0
 13 14  2  0  0  0
 13 15  1  0  0  0
 14 16  1  0  0  0
 14 71  1  0  0  0
 15 17  2  0  0  0
 15 72  1  0  0  0
 16 18  2  0  0  0
 16 73  1  0  0  0
 17 18  1  0  0  0
 17 74  1  0  0  0
 18 75  1  0  0  0
 19 20  1  0  0  0
 19 76  1  0  0  0
 20 23  1  0  0  0
 20 21  1  0  0  0
 20 77  1  0  0  0
 21 22  2  0  0  0
 21 29  1  0  0  0
 23 24  2  0  0  0
 23 78  1  0  0  0
 24 25  1  0  0  0
 24 26  1  0  0  0
 25 27  1  0  0  0
 25123  1  0  0  0
 26 28  2  0  0  0
 26 79  1  0  0  0
 27 28  1  0  0  0
 27 80  1  0  0  0
 29 30  1  0  0  0
 29 81  1  0  0  0
 30 31  1  0  0  0
 30 38  1  0  0  0
 30 82  1  0  0  0
 31 32  1  0  0  0
 31 83  1  0  0  0
 31 84  1  0  0  0
 32 33  1  0  0  0
 32 34  1  0  0  0
 32 85  1  0  0  0
 33 35  1  0  0  0
 33 86  1  0  0  0
 33 87  1  0  0  0
 34 36  1  0  0  0
 34 88  1  0  0  0
 34 89  1  0  0  0
 35 37  1  0  0  0
 35 90  1  0  0  0
 35 91  1  0  0  0
 36 37  1  0  0  0
 36 92  1  0  0  0
 36 93  1  0  0  0
 37 94  1  0  0  0
 37 95  1  0  0  0
 38 39  1  0  0  0
 38 40  1  0  0  0
 38 96  1  0  0  0
 39 97  1  0  0  0
 40 41  1  0  0  0
 40 98  1  0  0  0
 40 99  1  0  0  0
 41 42  1  0  0  0
 41 46  1  0  0  0
 41100  1  0  0  0
 42 43  1  0  0  0
 42101  1  0  0  0
 42102  1  0  0  0
 43 44  1  0  0  0
 43 45  1  0  0  0
 43103  1  0  0  0
 44104  1  0  0  0
 44105  1  0  0  0
 44106  1  0  0  0
 45107  1  0  0  0
 45108  1  0  0  0
 45109  1  0  0  0
 46 47  2  0  0  0
 46 48  1  0  0  0
 48 49  1  0  0  0
 48110  1  0  0  0
 49 52  1  0  0  0
 49 50  1  0  0  0
 49111  1  0  0  0
 50 51  2  0  0  0
 50 57  1  0  0  0
 52 53  1  0  0  0
 52112  1  0  0  0
 52113  1  0  0  0
 53 54  1  0  0  0
 53114  1  0  0  0
 53115  1  0  0  0
 54 55  1  0  0  0
 54116  1  0  0  0
 54117  1  0  0  0
 55 56  1  0  0  0
 55118  1  0  0  0
 55119  1  0  0  0
 56120  1  0  0  0
 56121  1  0  0  0
 56122  1  0  0  0
M  CHG  2  56   1  57  -1
M  END
> <s_m_source_file>
../3er3_ligand.sdf

> <i_m_source_file_index>
1

> <s_epik_input>
W2NIXTFbY0hdW2NIXVtjSF1bY0hdYzFbQ0gyXVtDQEhdKFtOSF1DKD1PKU9DKFtDSDNdKShbQ0gzXSlbQ0gzXSlDKD1PKVtOSF1bQ0BASF0oW0NIMl1DMj1OW0NIMl1OPVtDSF0yKUMoPU8pW05IXVtDQEBIXShbQ0gyXVtDSF0zW0NIMl1bQ0gyXVtDSDJdW0NIMl1bQ0gyXTMpW0NAQEhdKFtPSF0pW0NIMl1bQ0BASF0oW0NIMl1bQ0hdKFtDSDNdKVtDSDNdKUMoPU8pW05IXVtDQEhdKEMoPU8pW09IXSlbQ0gyXVtDSDJdW0NIMl1bQ0gyXVtOSDMrXQ==

> <s_epik_cmdline>
J2VwaWtfYXBwJywgJy1pbWFlJywgJ2xpZ2FuZF9wcm8ubWFlJywgJy1vbWFlJywgJ2xpZ2FuZF9wcmVwLm1hZScsICctbXMnLCAnMScsICctcGgnLCAnNycsICctcGh0JywgJzAuNScsICctbnQn

> <r_lp_tautomer_probability>
1

> <r_epik_Ionization_Penalty>
  0.0006

> <r_epik_Ionization_Penalty_Charging>
  0.0006

> <r_epik_Ionization_Penalty_Neutral>
  0.0000

> <r_epik_State_Penalty>
 -0.0000

> <r_epik_Charging_Adjusted_Penalty>
0.000610643799516821

> <i_epik_Tot_Q>
0

> <i_epik_Tot_abs_Q>
2

> <s_epik_Chemistry_Notes>
This compound has an ester and may undergo hydrolysis at high or low pH. This compound has an imine and may undergo hydrolysis.

$$$$
