3er5_ligand
                    3D
 Schrodinger Suite 2020-3.
183188  0  0  1  0            999 V2000
    1.2870   21.9350   24.2290 N   0  3  0  0  0  0
    2.6940   21.8760   24.6460 C   0  0  2  0  0  0
    3.6250   22.1030   23.4660 C   0  0  0  0  0  0
    3.5140   21.4350   22.4370 O   0  0  0  0  0  0
    2.7670   20.4230   25.0940 C   0  0  0  0  0  0
    1.7460   19.6420   24.2850 C   0  0  0  0  0  0
    0.7270   20.6560   23.7970 C   0  0  0  0  0  0
    4.5620   23.0300   23.5870 N   0  0  0  0  0  0
    4.2740   24.4640   23.4180 C   0  0  2  0  0  0
    4.2280   24.8300   21.9430 C   0  0  0  0  0  0
    5.2150   24.9070   21.2380 O   0  0  0  0  0  0
    5.3240   25.3110   24.1290 C   0  0  0  0  0  0
    5.3630   26.7660   23.6620 C   0  0  0  0  0  0
    6.4730   27.5940   23.8120 N   0  0  0  0  0  0
    4.3640   27.5090   23.0430 C   0  0  0  0  0  0
    6.1580   28.8410   23.2820 C   0  0  0  0  0  0
    4.8530   28.7930   22.8010 N   0  0  0  0  0  0
    2.8860   24.9720   21.4800 N   0  0  0  0  0  0
    3.1330   25.1800   20.0190 C   0  0  2  0  0  0
    3.2890   26.6700   19.7450 C   0  0  0  0  0  0
    2.7590   27.5280   20.4470 O   0  0  0  0  0  0
    1.8320   24.6720   19.4450 C   0  0  0  0  0  0
    0.9290   24.2210   20.5780 C   0  0  0  0  0  0
    1.3270   25.2730   21.6050 C   0  0  0  0  0  0
    3.9990   26.9720   18.6790 N   0  0  0  0  0  0
    4.3900   28.3650   18.3440 C   0  0  2  0  0  0
    3.5220   28.8520   17.1720 C   0  0  0  0  0  0
    3.0720   28.0770   16.3140 O   0  0  0  0  0  0
    5.8530   28.3410   17.8470 C   0  0  0  0  0  0
    6.8500   28.2590   19.0050 C   0  0  0  0  0  0
    7.5270   29.4050   19.4070 C   0  0  0  0  0  0
    7.0560   27.0360   19.6450 C   0  0  0  0  0  0
    8.4200   29.3080   20.4600 C   0  0  0  0  0  0
    7.9650   26.9330   20.7030 C   0  0  0  0  0  0
    8.6390   28.0840   21.0920 C   0  0  0  0  0  0
    3.3700   30.1710   17.1450 N   0  0  0  0  0  0
    2.6520   30.7610   15.9500 C   0  0  2  0  0  0
    3.2010   32.1520   15.7000 C   0  0  0  0  0  0
    2.8480   33.0940   16.3880 O   0  0  0  0  0  0
    1.1640   30.8250   16.2760 C   0  0  0  0  0  0
    0.2940   31.5220   15.2590 C   0  0  0  0  0  0
   -0.9860   31.9270   15.6380 N   0  0  0  0  0  0
    0.5600   31.9020   13.9540 C   0  0  0  0  0  0
   -1.5210   32.5730   14.5290 C   0  0  0  0  0  0
   -0.5850   32.5520   13.4960 N   0  0  0  0  0  0
    4.1540   32.1750   14.7740 N   0  0  0  0  0  0
    4.9860   33.4110   14.6320 C   0  0  1  0  0  0
    6.4390   33.0250   15.0260 C   0  0  0  0  0  0
    6.6350   32.5300   16.4340 C   0  0  0  0  0  0
    8.0910   32.2060   16.6800 C   0  0  0  0  0  0
    6.1940   33.4890   17.5230 C   0  0  0  0  0  0
    4.9750   33.8960   13.1960 C   0  0  1  0  0  0
    5.4300   32.8140   12.3440 O   0  0  0  0  0  0
    3.5940   34.3320   12.7100 C   0  0  0  0  0  0
    3.3130   35.7710   13.1810 C   0  0  0  0  0  0
    2.7300   35.9200   14.2650 O   0  0  0  0  0  0
    3.6680   36.8210   12.4270 N   0  0  0  0  0  0
    3.4000   38.1660   12.8730 C   0  0  2  0  0  0
    1.9580   38.5830   12.6490 C   0  0  0  0  0  0
    1.3070   38.0890   11.7580 O   0  0  0  0  0  0
    4.3150   39.2010   12.1940 C   0  0  0  0  0  0
    3.9960   39.3380   10.7000 C   0  0  0  0  0  0
    4.3010   40.6480   12.7530 C   0  0  0  0  0  0
    1.4180   39.4010   13.5200 N   0  0  0  0  0  0
    0.1530   40.1320   13.2900 C   0  0  2  0  0  0
    0.4540   41.4820   12.6340 C   0  0  0  0  0  0
    1.1940   42.2410   13.2580 O   0  0  0  0  0  0
   -0.5250   40.3770   14.6370 C   0  0  2  0  0  0
   -0.7020   39.0700   15.4040 C   0  0  0  0  0  0
   -1.8410   41.1140   14.4810 C   0  0  0  0  0  0
   -0.5490   39.3020   16.9020 C   0  0  0  0  0  0
   -0.0380   41.8860   11.4690 N   0  0  0  0  0  0
   -0.0850   43.3060   11.2630 C   0  0  2  0  0  0
   -1.4100   43.9720   11.3010 C   0  0  0  0  0  0
   -1.5580   44.8870   12.1380 O   0  0  0  0  0  0
    0.8340   43.8620   10.2040 C   0  0  0  0  0  0
    0.9860   45.3360   10.6490 C   0  0  0  0  0  0
    0.9980   46.4640    9.8420 N   0  0  0  0  0  0
    1.1060   45.7760   11.9720 C   0  0  0  0  0  0
    1.1430   47.5820   10.6590 C   0  0  0  0  0  0
    1.2070   47.1690   11.9870 N   0  0  0  0  0  0
   -2.4540   43.7840   10.5060 N   0  0  0  0  0  0
   -3.6370   44.6160   10.7960 C   0  0  2  0  0  0
   -4.7510   43.7990   11.4220 C   0  0  0  0  0  0
   -5.5570   43.1850   10.7150 O   0  0  0  0  0  0
   -4.1230   45.3110    9.5400 C   0  0  0  0  0  0
   -4.9280   46.5540    9.8860 C   0  0  0  0  0  0
   -4.4710   47.8040    9.1560 C   0  0  0  0  0  0
   -4.9110   47.8130    7.7040 C   0  0  0  0  0  0
   -6.0120   48.7590    7.4510 N   0  3  0  0  0  0
   -4.8720   43.8260   12.7450 O   0  0  0  0  0  0
    0.6700   22.2860   25.0693 H   0  0  0  0  0  0
    1.1841   22.6305   23.3830 H   0  0  0  0  0  0
    2.9568   22.6371   25.3954 H   0  0  0  0  0  0
    3.7796   20.0337   24.9122 H   0  0  0  0  0  0
    2.5366   20.3583   26.1676 H   0  0  0  0  0  0
    2.2481   19.1476   23.4403 H   0  0  0  0  0  0
    1.2734   18.8830   24.9258 H   0  0  0  0  0  0
   -0.2609   20.5134   24.2594 H   0  0  0  0  0  0
    0.6232   20.6523   22.7019 H   0  0  0  0  0  0
    5.5841   22.6983   23.8220 H   0  0  0  0  0  0
    3.2867   24.6329   23.8727 H   0  0  0  0  0  0
    5.1173   25.3205   25.2094 H   0  0  0  0  0  0
    6.3219   24.8841   23.9504 H   0  0  0  0  0  0
    3.3378   27.2463   22.7465 H   0  0  0  0  0  0
    6.8195   29.7067   23.2491 H   0  0  0  0  0  0
    4.0302   24.6811   19.6239 H   0  0  0  0  0  0
    1.3409   25.4781   18.8801 H   0  0  0  0  0  0
    2.0336   23.8241   18.7738 H   0  0  0  0  0  0
   -0.1204   24.2691   20.2518 H   0  0  0  0  0  0
    1.1792   23.1868   20.8568 H   0  0  0  0  0  0
    1.0012   25.0957   22.6406 H   0  0  0  0  0  0
    1.1331   26.3213   21.3340 H   0  0  0  0  0  0
    4.3040   26.1425   18.0240 H   0  0  0  0  0  0
    4.2531   28.9892   19.2393 H   0  0  0  0  0  0
    6.0059   27.4652   17.1993 H   0  0  0  0  0  0
    6.0620   29.2588   17.2779 H   0  0  0  0  0  0
    7.3584   30.3575   18.9046 H   0  0  0  0  0  0
    6.5044   26.1546   19.3179 H   0  0  0  0  0  0
    8.9562   30.1948   20.7979 H   0  0  0  0  0  0
    8.1388   25.9815   21.2056 H   0  0  0  0  0  0
    9.3563   28.0292   21.9109 H   0  0  0  0  0  0
    3.7407   30.8297   17.9442 H   0  0  0  0  0  0
    2.8085   30.1484   15.0499 H   0  0  0  0  0  0
    0.7652   29.8042   16.3710 H   0  0  0  0  0  0
    1.0191   31.3649   17.2234 H   0  0  0  0  0  0
    1.4303   31.7884   13.2910 H   0  0  0  0  0  0
   -2.5123   33.0232   14.4759 H   0  0  0  0  0  0
    4.3375   31.3103   14.1193 H   0  0  0  0  0  0
    4.5595   34.2060   15.2613 H   0  0  0  0  0  0
    6.7954   32.2188   14.3680 H   0  0  0  0  0  0
    7.0935   33.9025   14.9184 H   0  0  0  0  0  0
    5.9903   31.6406   16.4915 H   0  0  0  0  0  0
    8.4475   31.5098   15.9065 H   0  0  0  0  0  0
    8.2008   31.7408   17.6707 H   0  0  0  0  0  0
    8.6841   33.1316   16.6417 H   0  0  0  0  0  0
    5.1352   33.7485   17.3763 H   0  0  0  0  0  0
    6.8052   34.4024   17.4767 H   0  0  0  0  0  0
    6.3218   33.0116   18.5057 H   0  0  0  0  0  0
    5.6653   34.7492   13.1221 H   0  0  0  0  0  0
    6.4110   32.3492   12.5219 H   0  0  0  0  0  0
    3.5631   34.2939   11.6111 H   0  0  0  0  0  0
    2.8301   33.6562   13.1219 H   0  0  0  0  0  0
    4.1672   36.6508   11.4617 H   0  0  0  0  0  0
    3.6068   38.0806   13.9500 H   0  0  0  0  0  0
    5.3046   38.7657   12.3970 H   0  0  0  0  0  0
    3.9889   38.3417   10.2337 H   0  0  0  0  0  0
    4.7616   39.9633   10.2174 H   0  0  0  0  0  0
    3.0087   39.8072   10.5774 H   0  0  0  0  0  0
    4.5240   40.6272   13.8300 H   0  0  0  0  0  0
    3.3081   41.0934   12.5927 H   0  0  0  0  0  0
    5.0610   41.2494   12.2327 H   0  0  0  0  0  0
    1.9628   39.5289   14.4670 H   0  0  0  0  0  0
   -0.4797   39.5164   12.6338 H   0  0  0  0  0  0
    0.1306   41.0326   15.2290 H   0  0  0  0  0  0
   -1.7045   38.6623   15.2073 H   0  0  0  0  0  0
    0.0589   38.3465   15.0761 H   0  0  0  0  0  0
   -1.6743   42.0483   13.9249 H   0  0  0  0  0  0
   -2.2508   41.3470   15.4749 H   0  0  0  0  0  0
   -2.5525   40.4813   13.9301 H   0  0  0  0  0  0
   -0.6799   38.3492   17.4358 H   0  0  0  0  0  0
   -1.3100   40.0201   17.2414 H   0  0  0  0  0  0
    0.4534   39.7043   17.1102 H   0  0  0  0  0  0
   -0.3977   41.2042   10.6843 H   0  0  0  0  0  0
    0.3479   43.5447   12.2457 H   0  0  0  0  0  0
    1.7845   43.3085   10.2161 H   0  0  0  0  0  0
    0.3612   43.7571    9.2163 H   0  0  0  0  0  0
    1.1287   45.2127   12.9166 H   0  0  0  0  0  0
    1.1976   48.6146   10.3143 H   0  0  0  0  0  0
   -2.4778   43.0652    9.6737 H   0  0  0  0  0  0
   -3.3069   45.3713   11.5244 H   0  0  0  0  0  0
   -3.2589   45.6080    8.9276 H   0  0  0  0  0  0
   -4.7615   44.6245    8.9647 H   0  0  0  0  0  0
   -5.9840   46.3914    9.6245 H   0  0  0  0  0  0
   -4.8442   46.7569   10.9639 H   0  0  0  0  0  0
   -4.8962   48.6916    9.6473 H   0  0  0  0  0  0
   -3.3728   47.8621    9.1805 H   0  0  0  0  0  0
   -4.0633   48.1032    7.0658 H   0  0  0  0  0  0
   -5.2571   46.8084    7.4195 H   0  0  0  0  0  0
   -6.2887   48.7234    6.3870 H   0  0  0  0  0  0
   -5.6877   49.7773    7.7117 H   0  0  0  0  0  0
   -6.8815   48.4825    8.0654 H   0  0  0  0  0  0
   -5.6675   43.2467   13.2365 H   0  0  0  0  0  0
  1  2  1  0  0  0
  1  7  1  0  0  0
  1 92  1  0  0  0
  1 93  1  0  0  0
  2  3  1  0  0  0
  2  5  1  0  0  0
  2 94  1  0  0  0
  3  4  2  0  0  0
  3  8  1  0  0  0
  5  6  1  0  0  0
  5 95  1  0  0  0
  5 96  1  0  0  0
  6  7  1  0  0  0
  6 97  1  0  0  0
  6 98  1  0  0  0
  7 99  1  0  0  0
  7100  1  0  0  0
  8  9  1  0  0  0
  8101  1  0  0  0
  9 10  1  0  0  0
  9 12  1  0  0  0
  9102  1  0  0  0
 10 11  2  0  0  0
 10 18  1  0  0  0
 12 13  1  0  0  0
 12103  1  0  0  0
 12104  1  0  0  0
 13 14  2  0  0  0
 13 15  1  0  0  0
 14 16  1  0  0  0
 15 17  2  0  0  0
 15105  1  0  0  0
 16 17  1  0  0  0
 16106  1  0  0  0
 18 19  1  0  0  0
 18 24  1  0  0  0
 19 20  1  0  0  0
 19 22  1  0  0  0
 19107  1  0  0  0
 20 21  2  0  0  0
 20 25  1  0  0  0
 22 23  1  0  0  0
 22108  1  0  0  0
 22109  1  0  0  0
 23 24  1  0  0  0
 23110  1  0  0  0
 23111  1  0  0  0
 24112  1  0  0  0
 24113  1  0  0  0
 25 26  1  0  0  0
 25114  1  0  0  0
 26 27  1  0  0  0
 26 29  1  0  0  0
 26115  1  0  0  0
 27 28  2  0  0  0
 27 36  1  0  0  0
 29 30  1  0  0  0
 29116  1  0  0  0
 29117  1  0  0  0
 30 31  2  0  0  0
 30 32  1  0  0  0
 31 33  1  0  0  0
 31118  1  0  0  0
 32 34  2  0  0  0
 32119  1  0  0  0
 33 35  2  0  0  0
 33120  1  0  0  0
 34 35  1  0  0  0
 34121  1  0  0  0
 35122  1  0  0  0
 36 37  1  0  0  0
 36123  1  0  0  0
 37 38  1  0  0  0
 37 40  1  0  0  0
 37124  1  0  0  0
 38 39  2  0  0  0
 38 46  1  0  0  0
 40 41  1  0  0  0
 40125  1  0  0  0
 40126  1  0  0  0
 41 42  2  0  0  0
 41 43  1  0  0  0
 42 44  1  0  0  0
 43 45  2  0  0  0
 43127  1  0  0  0
 44 45  1  0  0  0
 44128  1  0  0  0
 46 47  1  0  0  0
 46129  1  0  0  0
 47 48  1  0  0  0
 47 52  1  0  0  0
 47130  1  0  0  0
 48 49  1  0  0  0
 48131  1  0  0  0
 48132  1  0  0  0
 49 50  1  0  0  0
 49 51  1  0  0  0
 49133  1  0  0  0
 50134  1  0  0  0
 50135  1  0  0  0
 50136  1  0  0  0
 51137  1  0  0  0
 51138  1  0  0  0
 51139  1  0  0  0
 52 53  1  0  0  0
 52 54  1  0  0  0
 52140  1  0  0  0
 53141  1  0  0  0
 54 55  1  0  0  0
 54142  1  0  0  0
 54143  1  0  0  0
 55 56  2  0  0  0
 55 57  1  0  0  0
 57 58  1  0  0  0
 57144  1  0  0  0
 58 59  1  0  0  0
 58 61  1  0  0  0
 58145  1  0  0  0
 59 60  2  0  0  0
 59 64  1  0  0  0
 61 62  1  0  0  0
 61 63  1  0  0  0
 61146  1  0  0  0
 62147  1  0  0  0
 62148  1  0  0  0
 62149  1  0  0  0
 63150  1  0  0  0
 63151  1  0  0  0
 63152  1  0  0  0
 64 65  1  0  0  0
 64153  1  0  0  0
 65 66  1  0  0  0
 65 68  1  0  0  0
 65154  1  0  0  0
 66 67  2  0  0  0
 66 72  1  0  0  0
 68 69  1  0  0  0
 68 70  1  0  0  0
 68155  1  0  0  0
 69 71  1  0  0  0
 69156  1  0  0  0
 69157  1  0  0  0
 70158  1  0  0  0
 70159  1  0  0  0
 70160  1  0  0  0
 71161  1  0  0  0
 71162  1  0  0  0
 71163  1  0  0  0
 72 73  1  0  0  0
 72164  1  0  0  0
 73 74  1  0  0  0
 73 76  1  0  0  0
 73165  1  0  0  0
 74 75  2  0  0  0
 74 82  1  0  0  0
 76 77  1  0  0  0
 76166  1  0  0  0
 76167  1  0  0  0
 77 78  2  0  0  0
 77 79  1  0  0  0
 78 80  1  0  0  0
 79 81  2  0  0  0
 79168  1  0  0  0
 80 81  1  0  0  0
 80169  1  0  0  0
 82 83  1  0  0  0
 82170  1  0  0  0
 83 84  1  0  0  0
 83 86  1  0  0  0
 83171  1  0  0  0
 84 85  2  0  0  0
 84 91  1  0  0  0
 86 87  1  0  0  0
 86172  1  0  0  0
 86173  1  0  0  0
 87 88  1  0  0  0
 87174  1  0  0  0
 87175  1  0  0  0
 88 89  1  0  0  0
 88176  1  0  0  0
 88177  1  0  0  0
 89 90  1  0  0  0
 89178  1  0  0  0
 89179  1  0  0  0
 90180  1  0  0  0
 90181  1  0  0  0
 90182  1  0  0  0
 91183  1  0  0  0
M  CHG  2   1   1  90   1
M  END
> <s_m_source_file>
../3er5_ligand.sdf

> <i_m_source_file_index>
1

> <s_epik_input>
W0NIMl0xW0NIMl1bQ0gyXVtOSDIrXVtDQEBIXTFDKD1PKVtOSF1bQ0BASF0oW0NIMl1DMj1OW0NIMl1OPVtDSF0yKUMoPU8pTjNbQ0BASF0oW0NIMl1bQ0gyXVtDSDJdMylDKD1PKVtOSF1bQ0BASF0oW0NIMl1jNFtjSF1bY0hdW2NIXVtjSF1bY0hdNClDKD1PKVtOSF1bQ0BASF0oW0NIMl1DNT1OW0NIMl1OPVtDSF01KUMoPU8pW05IXVtDQEBIXShbQ0gyXVtDSF0oW0NIM10pW0NIM10pW0NAQEhdKFtPSF0pW0NIMl1DKD1PKVtOSF1bQ0BASF0oW0NIXShbQ0gzXSlbQ0gzXSlDKD1PKVtOSF1bQ0BASF0oW0NAQEhdKFtDSDNdKVtDSDJdW0NIM10pQyg9TylbTkhdW0NAQEhdKFtDSDJdQzY9TltDSDJdTj1bQ0hdNilDKD1PKVtOSF1bQ0BIXShDKD1PKVtPSF0pW0NIMl1bQ0gyXVtDSDJdW0NIMl1bTkgzK10=

> <s_epik_cmdline>
J2VwaWtfYXBwJywgJy1pbWFlJywgJ2xpZ2FuZF9wcm8ubWFlJywgJy1vbWFlJywgJ2xpZ2FuZF9wcmVwLm1hZScsICctbXMnLCAnMScsICctcGgnLCAnNycsICctcGh0JywgJzAuNScsICctbnQn

> <s_epik_pKa_notes>
Molecule size exceeds maximum supported for generating protonation states

> <s_epik_Chemistry_Notes>
This compound has an imine and may undergo hydrolysis.

$$$$
