3erd_ligand
                    3D
 Schrodinger Suite 2020-3.
 40 41  0  0  1  0            999 V2000
    5.3970   -3.0840   -6.1700 C   0  0  0  0  0  0
    5.8180   -2.0660   -5.1530 C   0  0  0  0  0  0
    5.0590   -0.7450   -5.2310 C   0  0  0  0  0  0
    3.5590   -0.8980   -5.0640 C   0  0  0  0  0  0
    2.9720   -0.9970   -3.7920 C   0  0  0  0  0  0
    1.5760   -1.1710   -3.6570 C   0  0  0  0  0  0
    0.7810   -1.2440   -4.8000 C   0  0  0  0  0  0
   -0.5870   -1.4440   -4.7290 O   0  0  0  0  0  0
    1.3510   -1.1440   -6.0710 C   0  0  0  0  0  0
    2.7290   -0.9730   -6.1850 C   0  0  0  0  0  0
    5.6330    0.4260   -5.4430 C   0  0  0  0  0  0
    7.1080    0.5490   -5.8150 C   0  0  0  0  0  0
    7.5360    0.3040   -7.1250 C   0  0  0  0  0  0
    8.8860    0.4380   -7.4820 C   0  0  0  0  0  0
    9.8190    0.8170   -6.5220 C   0  0  0  0  0  0
   11.1610    0.9440   -6.8290 O   0  0  0  0  0  0
    9.4220    1.0690   -5.2040 C   0  0  0  0  0  0
    8.0630    0.9280   -4.8680 C   0  0  0  0  0  0
    4.8990    1.7680   -5.4010 C   0  0  0  0  0  0
    4.9700    2.4780   -4.0720 C   0  0  0  0  0  0
    5.9931   -3.9994   -6.0409 H   0  0  0  0  0  0
    5.5582   -2.6809   -7.1807 H   0  0  0  0  0  0
    4.3309   -3.3185   -6.0345 H   0  0  0  0  0  0
    5.6568   -2.4691   -4.1423 H   0  0  0  0  0  0
    6.8841   -1.8315   -5.2885 H   0  0  0  0  0  0
    3.5982   -0.9392   -2.9017 H   0  0  0  0  0  0
    1.1247   -1.2475   -2.6678 H   0  0  0  0  0  0
   -1.0803   -1.5289   -3.7495 H   0  0  0  0  0  0
    0.7259   -1.1990   -6.9623 H   0  0  0  0  0  0
    3.1723   -0.8955   -7.1778 H   0  0  0  0  0  0
    6.8088    0.0044   -7.8797 H   0  0  0  0  0  0
    9.2027    0.2460   -8.5072 H   0  0  0  0  0  0
   11.5110    0.7541   -7.8544 H   0  0  0  0  0  0
   10.1518    1.3688   -4.4519 H   0  0  0  0  0  0
    7.7470    1.1194   -3.8425 H   0  0  0  0  0  0
    5.3329    2.4468   -6.1500 H   0  0  0  0  0  0
    3.8332    1.6101   -5.6229 H   0  0  0  0  0  0
    4.4184    3.4277   -4.1338 H   0  0  0  0  0  0
    6.0215    2.6804   -3.8201 H   0  0  0  0  0  0
    4.5219    1.8437   -3.2930 H   0  0  0  0  0  0
  1  2  1  0  0  0
  1 21  1  0  0  0
  1 22  1  0  0  0
  1 23  1  0  0  0
  2  3  1  0  0  0
  2 24  1  0  0  0
  2 25  1  0  0  0
  3  4  1  0  0  0
  3 11  2  0  0  0
  4  5  2  0  0  0
  4 10  1  0  0  0
  5  6  1  0  0  0
  5 26  1  0  0  0
  6  7  2  0  0  0
  6 27  1  0  0  0
  7  8  1  0  0  0
  7  9  1  0  0  0
  8 28  1  0  0  0
  9 10  2  0  0  0
  9 29  1  0  0  0
 10 30  1  0  0  0
 11 12  1  0  0  0
 11 19  1  0  0  0
 12 13  2  0  0  0
 12 18  1  0  0  0
 13 14  1  0  0  0
 13 31  1  0  0  0
 14 15  2  0  0  0
 14 32  1  0  0  0
 15 16  1  0  0  0
 15 17  1  0  0  0
 16 33  1  0  0  0
 17 18  2  0  0  0
 17 34  1  0  0  0
 18 35  1  0  0  0
 19 20  1  0  0  0
 19 36  1  0  0  0
 19 37  1  0  0  0
 20 38  1  0  0  0
 20 39  1  0  0  0
 20 40  1  0  0  0
M  END
> <s_m_source_file>
../3erd_ligand.sdf

> <i_m_source_file_index>
1

> <s_epik_input>
W2NIXTFbY0hdYyhbT0hdKVtjSF1bY0hdYzFDKFxbQ0gyXVtDSDNdKT1DKFtDSDJdW0NIM10pXGMyW2NIXVtjSF1jKFtPSF0pW2NIXVtjSF0y

> <s_epik_cmdline>
J2VwaWtfYXBwJywgJy1pbWFlJywgJ2xpZ2FuZF9wcm8ubWFlJywgJy1vbWFlJywgJ2xpZ2FuZF9wcmVwLm1hZScsICctbXMnLCAnMScsICctcGgnLCAnNycsICctcGh0JywgJzAuNScsICctbnQn

> <r_lp_tautomer_probability>
1

> <r_epik_Ionization_Penalty>
  0.0006

> <r_epik_Ionization_Penalty_Charging>
  0.0000

> <r_epik_Ionization_Penalty_Neutral>
  0.0006

> <r_epik_State_Penalty>
 -0.0000

> <r_epik_Charging_Adjusted_Penalty>
0

> <i_epik_Tot_Q>
0

> <i_epik_Tot_abs_Q>
0

$$$$
