3erk_ligand
                    3D
 Schrodinger Suite 2020-3.
 45 48  0  0  1  0            999 V2000
  -12.9880   14.7970   44.3980 C   0  0  0  0  0  0
  -13.2530   15.1750   45.8760 C   0  0  0  0  0  0
  -13.0720   16.6510   46.1480 N   0  3  0  0  0  0
  -13.7500   17.6150   45.1990 C   0  0  0  0  0  0
  -13.5720   17.2100   43.7000 C   0  0  0  0  0  0
  -13.8090   15.6920   43.4140 C   0  0  0  0  0  0
  -14.5360   13.2100   37.9750 C   0  0  0  0  0  0
  -14.5580   12.3140   36.8780 C   0  0  0  0  0  0
  -13.3690   11.6650   36.4790 C   0  0  0  0  0  0
  -12.1630   11.9040   37.1590 C   0  0  0  0  0  0
  -12.1350   12.7950   38.2530 C   0  0  0  0  0  0
  -13.3220   13.4750   38.6950 C   0  0  0  0  0  0
  -13.3820   10.8070   35.4380 F   0  0  0  0  0  0
  -16.5490   14.3810   41.7750 C   0  0  0  0  0  0
  -15.3520   13.6930   41.3060 C   0  0  0  0  0  0
  -15.4020   12.3420   41.0870 N   0  0  0  0  0  0
  -16.5450   11.6890   41.3090 C   0  0  0  0  0  0
  -17.6910   12.2340   41.7400 N   0  0  0  0  0  0
  -17.7110   13.5640   41.9770 C   0  0  0  0  0  0
  -16.5420   10.3960   41.0790 N   0  0  0  0  0  0
  -13.4740   15.2840   42.0050 N   0  0  0  0  0  0
  -12.3750   15.6630   41.2650 C   0  0  0  0  0  0
  -12.1510   15.2100   40.0160 N   0  0  0  0  0  0
  -13.2610   14.3660   39.8260 C   0  0  0  0  0  0
  -14.1090   14.4140   41.0570 C   0  0  0  0  0  0
  -13.2683   13.7429   44.2555 H   0  0  0  0  0  0
  -11.9137   14.9211   44.1970 H   0  0  0  0  0  0
  -14.2867   14.9098   46.1426 H   0  0  0  0  0  0
  -12.5547   14.6268   46.5256 H   0  0  0  0  0  0
  -13.4688   16.8914   47.1454 H   0  0  0  0  0  0
  -12.0019   16.9026   46.1087 H   0  0  0  0  0  0
  -14.8283   17.6444   45.4146 H   0  0  0  0  0  0
  -13.3224   18.6200   45.3298 H   0  0  0  0  0  0
  -14.2882   17.7706   43.0812 H   0  0  0  0  0  0
  -12.5468   17.4431   43.3764 H   0  0  0  0  0  0
  -14.8909   15.5250   43.5220 H   0  0  0  0  0  0
  -15.4573   13.7074   38.2782 H   0  0  0  0  0  0
  -15.4894   12.1262   36.3438 H   0  0  0  0  0  0
  -11.2493   11.4014   36.8417 H   0  0  0  0  0  0
  -11.1938   12.9713   38.7737 H   0  0  0  0  0  0
  -16.5604   15.4549   41.9615 H   0  0  0  0  0  0
  -18.6322   14.0275   42.3302 H   0  0  0  0  0  0
  -15.6252    9.9026   40.7240 H   0  0  0  0  0  0
  -17.4563    9.8064   41.2413 H   0  0  0  0  0  0
  -11.6593   16.3560   41.7072 H   0  0  0  0  0  0
  1  6  1  0  0  0
  1  2  1  0  0  0
  1 26  1  0  0  0
  1 27  1  0  0  0
  2  3  1  0  0  0
  2 28  1  0  0  0
  2 29  1  0  0  0
  3  4  1  0  0  0
  3 30  1  0  0  0
  3 31  1  0  0  0
  4  5  1  0  0  0
  4 32  1  0  0  0
  4 33  1  0  0  0
  5  6  1  0  0  0
  5 34  1  0  0  0
  5 35  1  0  0  0
  6 21  1  0  0  0
  6 36  1  0  0  0
  7 12  1  0  0  0
  7  8  2  0  0  0
  7 37  1  0  0  0
  8  9  1  0  0  0
  8 38  1  0  0  0
  9 13  1  0  0  0
  9 10  2  0  0  0
 10 11  1  0  0  0
 10 39  1  0  0  0
 11 12  2  0  0  0
 11 40  1  0  0  0
 12 24  1  0  0  0
 14 15  1  0  0  0
 14 19  2  0  0  0
 14 41  1  0  0  0
 15 25  1  0  0  0
 15 16  2  0  0  0
 16 17  1  0  0  0
 17 18  2  0  0  0
 17 20  1  0  0  0
 18 19  1  0  0  0
 19 42  1  0  0  0
 20 43  1  0  0  0
 20 44  1  0  0  0
 21 25  1  0  0  0
 21 22  1  0  0  0
 22 23  2  0  0  0
 22 45  1  0  0  0
 23 24  1  0  0  0
 24 25  2  0  0  0
M  CHG  1   3   1
M  END
> <s_m_source_file>
../3erk_ligand.sdf

> <i_m_source_file_index>
1

> <s_epik_input>
W0NIMl0xW0NIMl1bTkgyK11bQ0gyXVtDSDJdW0NIXTFuMltjSF1uYygtYyhbY0hdW2NIXTMpW2NIXVtjSF1jM0YpYzItYzRbY0hdW2NIXW5jKG40KVtOSDJd

> <s_epik_cmdline>
J2VwaWtfYXBwJywgJy1pbWFlJywgJ2xpZ2FuZF9wcm8ubWFlJywgJy1vbWFlJywgJ2xpZ2FuZF9wcmVwLm1hZScsICctbXMnLCAnMScsICctcGgnLCAnNycsICctcGh0JywgJzAuNScsICctbnQn

> <r_lp_tautomer_probability>
1

> <r_epik_Ionization_Penalty>
  0.0077

> <r_epik_Ionization_Penalty_Charging>
  0.0071

> <r_epik_Ionization_Penalty_Neutral>
  0.0005

> <r_epik_State_Penalty>
 -0.0000

> <r_epik_Charging_Adjusted_Penalty>
0.00714851862785632

> <i_epik_Tot_Q>
1

> <i_epik_Tot_abs_Q>
1

$$$$
