3ern_ligand
                    3D
 Schrodinger Suite 2020-3.
 33 34  0  0  1  0            999 V2000
   68.0490  -70.4000   41.7900 P   0  0  0  0  0  0
   67.5360  -69.0370   41.4610 O   0  0  0  0  0  0
   68.5660  -71.1910   40.4760 O   0  5  0  0  0  0
   66.8870  -71.3290   42.4460 O   0  5  0  0  0  0
   69.2900  -70.4020   42.8180 O   0  0  0  0  0  0
   69.7030  -71.6540   43.4090 C   0  0  0  0  0  0
   71.1620  -71.6210   43.8930 C   0  0  1  0  0  0
   72.0040  -71.1110   42.8400 O   0  0  0  0  0  0
   71.3660  -70.6440   45.0360 C   0  0  1  0  0  0
   71.0310  -71.2810   46.2560 O   0  0  0  0  0  0
   72.8610  -70.4070   44.9580 C   0  0  2  0  0  0
   73.2050  -69.1220   45.4570 O   0  0  0  0  0  0
   73.1400  -70.4510   43.4510 C   0  0  2  0  0  0
   73.3350  -69.0940   42.8540 N   0  0  0  0  0  0
   74.6270  -68.5510   42.7750 C   0  0  0  0  0  0
   75.5820  -69.1970   43.2040 O   0  0  0  0  0  0
   74.8210  -67.2830   42.2110 N   0  0  0  0  0  0
   73.7210  -66.5660   41.7280 C   0  0  0  0  0  0
   73.8850  -65.3640   41.2040 N   0  0  0  0  0  0
   72.4440  -67.0920   41.8140 C   0  0  0  0  0  0
   72.2460  -68.3500   42.3740 C   0  0  0  0  0  0
   69.0631  -71.8795   44.2748 H   0  0  0  0  0  0
   69.6102  -72.4589   42.6650 H   0  0  0  0  0  0
   71.4528  -72.6449   44.1705 H   0  0  0  0  0  0
   70.7387  -69.7404   45.0367 H   0  0  0  0  0  0
   69.9823  -71.5282   46.4775 H   0  0  0  0  0  0
   73.4521  -71.0876   45.5884 H   0  0  0  0  0  0
   73.0749  -68.8939   46.5252 H   0  0  0  0  0  0
   74.0602  -71.0099   43.2255 H   0  0  0  0  0  0
   74.8929  -64.9301   41.1277 H   0  0  0  0  0  0
   71.5932  -66.5206   41.4429 H   0  0  0  0  0  0
   71.2385  -68.7606   42.4404 H   0  0  0  0  0  0
   73.0136  -64.7973   40.8442 H   0  0  0  0  0  0
  1  2  2  0  0  0
  1  3  1  0  0  0
  1  4  1  0  0  0
  1  5  1  0  0  0
  5  6  1  0  0  0
  6  7  1  0  0  0
  6 22  1  0  0  0
  6 23  1  0  0  0
  7  8  1  0  0  0
  7  9  1  0  0  0
  7 24  1  0  0  0
  8 13  1  0  0  0
  9 10  1  0  0  0
  9 11  1  0  0  0
  9 25  1  0  0  0
 10 26  1  0  0  0
 11 12  1  0  0  0
 11 13  1  0  0  0
 11 27  1  0  0  0
 12 28  1  0  0  0
 13 14  1  0  0  0
 13 29  1  0  0  0
 14 15  1  0  0  0
 14 21  1  0  0  0
 15 16  2  0  0  0
 15 17  1  0  0  0
 17 18  2  0  0  0
 18 19  1  0  0  0
 18 20  1  0  0  0
 19 30  1  0  0  0
 19 33  1  0  0  0
 20 21  2  0  0  0
 20 31  1  0  0  0
 21 32  1  0  0  0
M  CHG  2   3  -1   4  -1
M  END
> <s_m_source_file>
../3ern_ligand.sdf

> <i_m_source_file_index>
1

> <s_epik_input>
Tz1QKFtPSF0pKFtPSF0pT1tDSDJdW0NASF0xT1tDQEhdKFtDQEBIXShbT0hdKVtDQEBIXTFbT0hdKW4yYyg9TylbbkhdL2MoPU5cW0hdKVtjSF1bY0hdMg==

> <s_epik_cmdline>
J2VwaWtfYXBwJywgJy1pbWFlJywgJ2xpZ2FuZF9wcm8ubWFlJywgJy1vbWFlJywgJ2xpZ2FuZF9wcmVwLm1hZScsICctbXMnLCAnMScsICctcGgnLCAnNycsICctcGh0JywgJzAuNScsICctbnQn

> <r_lp_tautomer_probability>
0.999959729267721

> <r_epik_Ionization_Penalty>
  0.1024

> <r_epik_Ionization_Penalty_Charging>
  0.1017

> <r_epik_Ionization_Penalty_Neutral>
  0.0007

> <r_epik_State_Penalty>
  0.0917

> <r_epik_Charging_Adjusted_Penalty>
0.193417615405928

> <i_epik_Tot_Q>
-2

> <i_epik_Tot_abs_Q>
2

> <s_epik_Chemistry_Notes>
This compound contains an acetal/aminal-like group ( X-CH(R)-Y where X, Y are N, S, or O) that may be acid/base labile, releasing an aldehyde.

$$$$
