3ert_ligand
                    3D
 Schrodinger Suite 2020-3.
 59 61  0  0  1  0            999 V2000
   30.5740    1.4650   29.5500 C   0  0  0  0  0  0
   30.7020   -0.0230   29.3720 C   0  0  0  0  0  0
   31.3630   -0.3880   28.0590 C   0  0  0  0  0  0
   32.7880    0.0530   27.9620 C   0  0  0  0  0  0
   33.2410    0.7820   26.8420 C   0  0  0  0  0  0
   34.5590    1.2350   26.7760 C   0  0  0  0  0  0
   35.4510    0.9800   27.7990 C   0  0  0  0  0  0
   35.0270    0.2700   28.8970 C   0  0  0  0  0  0
   33.7070   -0.1880   28.9760 C   0  0  0  0  0  0
   30.7080   -1.0570   27.0650 C   0  0  0  0  0  0
   29.2100   -1.2330   27.0160 C   0  0  0  0  0  0
   28.6090   -2.4900   26.6950 C   0  0  0  0  0  0
   27.2150   -2.6130   26.6050 C   0  0  0  0  0  0
   26.4090   -1.4820   26.8350 C   0  0  0  0  0  0
   25.0580   -1.6220   26.7220 O   0  0  0  0  0  0
   26.9920   -0.2350   27.1560 C   0  0  0  0  0  0
   28.3750   -0.1340   27.2390 C   0  0  0  0  0  0
   31.4110   -1.6900   25.9450 C   0  0  0  0  0  0
   32.5290   -2.4960   26.1460 C   0  0  0  0  0  0
   33.1820   -3.1140   25.1170 C   0  0  0  0  0  0
   32.7250   -2.9440   23.8200 C   0  0  0  0  0  0
   33.2960   -3.5540   22.7400 O   0  0  0  0  0  0
   32.9000   -3.1830   21.4230 C   0  0  0  0  0  0
   34.0590   -3.5080   20.5200 C   0  0  0  0  0  0
   34.1090   -4.8870   20.1180 N   0  3  0  0  0  0
   33.3900   -5.1110   18.8630 C   0  0  0  0  0  0
   35.5060   -5.2910   19.9220 C   0  0  0  0  0  0
   31.6010   -2.1350   23.5790 C   0  0  0  0  0  0
   30.9660   -1.5280   24.6260 C   0  0  0  0  0  0
   30.0899    1.6786   30.5144 H   0  0  0  0  0  0
   29.9648    1.8808   28.7339 H   0  0  0  0  0  0
   31.5736    1.9238   29.5319 H   0  0  0  0  0  0
   31.3112   -0.4388   30.1881 H   0  0  0  0  0  0
   29.7024   -0.4818   29.3902 H   0  0  0  0  0  0
   32.5554    0.9931   26.0213 H   0  0  0  0  0  0
   34.8897    1.7988   25.9037 H   0  0  0  0  0  0
   36.4788    1.3374   27.7365 H   0  0  0  0  0  0
   35.7225    0.0627   29.7103 H   0  0  0  0  0  0
   33.3915   -0.7485   29.8560 H   0  0  0  0  0  0
   29.2403   -3.3609   26.5186 H   0  0  0  0  0  0
   26.7609   -3.5731   26.3598 H   0  0  0  0  0  0
   24.6257   -2.6019   26.4713 H   0  0  0  0  0  0
   26.3637    0.6373   27.3363 H   0  0  0  0  0  0
   28.8218    0.8293   27.4849 H   0  0  0  0  0  0
   32.8968   -2.6391   27.1621 H   0  0  0  0  0  0
   34.0552   -3.7356   25.3148 H   0  0  0  0  0  0
   32.0052   -3.7541   21.1346 H   0  0  0  0  0  0
   32.6722   -2.1071   21.3980 H   0  0  0  0  0  0
   33.9915   -2.9022   19.6043 H   0  0  0  0  0  0
   35.0025   -3.2838   21.0392 H   0  0  0  0  0  0
   33.6276   -5.4627   20.9222 H   0  0  0  0  0  0
   32.3377   -4.8147   18.9854 H   0  0  0  0  0  0
   33.4422   -6.1768   18.5957 H   0  0  0  0  0  0
   33.8497   -4.5098   18.0647 H   0  0  0  0  0  0
   36.0680   -5.1315   20.8540 H   0  0  0  0  0  0
   35.9524   -4.6887   19.1170 H   0  0  0  0  0  0
   35.5448   -6.3556   19.6480 H   0  0  0  0  0  0
   31.2374   -1.9924   22.5614 H   0  0  0  0  0  0
   30.0939   -0.9039   24.4308 H   0  0  0  0  0  0
  1  2  1  0  0  0
  1 30  1  0  0  0
  1 31  1  0  0  0
  1 32  1  0  0  0
  2  3  1  0  0  0
  2 33  1  0  0  0
  2 34  1  0  0  0
  3  4  1  0  0  0
  3 10  2  0  0  0
  4  5  2  0  0  0
  4  9  1  0  0  0
  5  6  1  0  0  0
  5 35  1  0  0  0
  6  7  2  0  0  0
  6 36  1  0  0  0
  7  8  1  0  0  0
  7 37  1  0  0  0
  8  9  2  0  0  0
  8 38  1  0  0  0
  9 39  1  0  0  0
 10 11  1  0  0  0
 10 18  1  0  0  0
 11 12  2  0  0  0
 11 17  1  0  0  0
 12 13  1  0  0  0
 12 40  1  0  0  0
 13 14  2  0  0  0
 13 41  1  0  0  0
 14 15  1  0  0  0
 14 16  1  0  0  0
 15 42  1  0  0  0
 16 17  2  0  0  0
 16 43  1  0  0  0
 17 44  1  0  0  0
 18 19  2  0  0  0
 18 29  1  0  0  0
 19 20  1  0  0  0
 19 45  1  0  0  0
 20 21  2  0  0  0
 20 46  1  0  0  0
 21 22  1  0  0  0
 21 28  1  0  0  0
 22 23  1  0  0  0
 23 24  1  0  0  0
 23 47  1  0  0  0
 23 48  1  0  0  0
 24 25  1  0  0  0
 24 49  1  0  0  0
 24 50  1  0  0  0
 25 26  1  0  0  0
 25 27  1  0  0  0
 25 51  1  0  0  0
 26 52  1  0  0  0
 26 53  1  0  0  0
 26 54  1  0  0  0
 27 55  1  0  0  0
 27 56  1  0  0  0
 27 57  1  0  0  0
 28 29  2  0  0  0
 28 58  1  0  0  0
 29 59  1  0  0  0
M  CHG  1  25   1
M  END
> <s_m_source_file>
../3ert_ligand.sdf

> <i_m_source_file_index>
1

> <s_epik_input>
W2NIXTFbY0hdW2NIXVtjSF1bY0hdYzFDKFxbQ0gyXVtDSDNdKT1DKFxjMltjSF1bY0hdYyhbT0hdKVtjSF1bY0hdMiljM1tjSF1bY0hdYyhbY0hdW2NIXTMpT1tDSDJdW0NIMl1bTkgrXShbQ0gzXSlbQ0gzXQ==

> <s_epik_cmdline>
J2VwaWtfYXBwJywgJy1pbWFlJywgJ2xpZ2FuZF9wcm8ubWFlJywgJy1vbWFlJywgJ2xpZ2FuZF9wcmVwLm1hZScsICctbXMnLCAnMScsICctcGgnLCAnNycsICctcGh0JywgJzAuNScsICctbnQn

> <r_epik_Ionization_Penalty>
  0.0251

> <r_epik_Ionization_Penalty_Charging>
  0.0248

> <r_epik_Ionization_Penalty_Neutral>
  0.0003

> <r_epik_State_Penalty>
  0.0202

> <r_epik_Charging_Adjusted_Penalty>
0.0449633694247609

> <i_epik_Tot_Q>
1

> <i_epik_Tot_abs_Q>
1

$$$$
