3ery_ligand
                    3D
 Schrodinger Suite 2020-3.
139141  0  0  1  0            999 V2000
    4.7790  -14.5010  -16.8800 N   0  3  0  0  0  0
    5.3300  -15.3910  -15.8230 C   0  0  2  0  0  0
    5.0770  -14.7820  -14.4540 C   0  0  0  0  0  0
    4.9240  -13.5680  -14.3190 O   0  0  0  0  0  0
    6.8310  -15.5810  -16.0210 C   0  0  0  0  0  0
    7.3340  -16.9330  -15.5640 C   0  0  0  0  0  0
    6.8120  -18.0590  -16.4250 C   0  0  0  0  0  0
    7.0430  -19.2290  -16.1420 O   0  0  0  0  0  0
    6.1020  -17.7090  -17.4870 N   0  0  0  0  0  0
    5.0500  -15.6350  -13.4390 N   0  0  0  0  0  0
    4.8070  -15.1980  -12.0730 C   0  0  2  0  0  0
    6.0700  -14.6330  -11.4370 C   0  0  0  0  0  0
    7.1880  -14.9300  -11.8700 O   0  0  0  0  0  0
    4.2830  -16.3730  -11.2430 C   0  0  0  0  0  0
    3.0150  -17.0700  -11.7580 C   0  0  0  0  0  0
    2.6120  -18.1440  -10.7660 C   0  0  0  0  0  0
    1.8860  -16.0680  -11.9340 C   0  0  0  0  0  0
    5.8900  -13.8120  -10.4110 N   0  0  0  0  0  0
    7.0240  -13.2170   -9.7250 C   0  0  2  0  0  0
    7.7270  -14.3060   -8.9310 C   0  0  0  0  0  0
    7.1430  -15.3500   -8.6350 O   0  0  0  0  0  0
    6.5680  -12.1290   -8.7570 C   0  0  0  0  0  0
    6.0990  -12.7150   -7.5570 O   0  0  0  0  0  0
    8.9980  -14.0800   -8.5800 N   0  0  0  0  0  0
    9.7310  -15.0850   -7.8120 C   0  0  2  0  0  0
    9.1390  -15.2080   -6.4080 C   0  0  0  0  0  0
    8.3660  -14.3500   -5.9650 O   0  0  0  0  0  0
   11.1550  -14.5410   -7.8060 C   0  0  0  0  0  0
   10.9370  -13.0510   -7.8300 C   0  0  0  0  0  0
    9.8380  -12.8990   -8.8510 C   0  0  0  0  0  0
    9.4900  -16.2810   -5.7120 N   0  0  0  0  0  0
    8.9840  -16.4880   -4.3690 C   0  0  2  0  0  0
    9.4080  -15.3260   -3.4700 C   0  0  0  0  0  0
   10.5850  -14.9700   -3.4000 O   0  0  0  0  0  0
    9.5010  -17.8170   -3.8050 C   0  0  0  0  0  0
    8.4400  -14.7140   -2.7730 N   0  0  0  0  0  0
    8.7100  -13.5920   -1.8740 C   0  0  2  0  0  0
    9.4670  -14.0490   -0.6320 C   0  0  0  0  0  0
    9.3970  -15.2170   -0.2500 O   0  0  0  0  0  0
    7.3110  -13.0780   -1.5500 C   0  0  0  0  0  0
    6.5070  -14.3390   -1.5290 C   0  0  0  0  0  0
    7.0100  -15.0750   -2.7490 C   0  0  0  0  0  0
   10.2030  -13.1280   -0.0190 N   0  0  0  0  0  0
   10.9630  -13.4230    1.1930 C   0  0  2  0  0  0
    9.9530  -13.7460    2.2870 C   0  0  0  0  0  0
    8.7760  -13.4250    2.1420 O   0  0  0  0  0  0
   11.8030  -12.2020    1.5840 C   0  0  0  0  0  0
   13.0100  -11.9790    0.7030 C   0  0  0  0  0  0
   13.7290  -10.7920    0.7740 C   0  0  0  0  0  0
   13.4560  -12.9760   -0.1590 C   0  0  0  0  0  0
   14.8760  -10.6030    0.0050 C   0  0  0  0  0  0
   14.6010  -12.7980   -0.9310 C   0  0  0  0  0  0
   15.3120  -11.6110   -0.8480 C   0  0  0  0  0  0
   10.3960  -14.3750    3.3740 N   0  0  0  0  0  0
    9.4730  -14.7180    4.4550 C   0  0  2  0  0  0
    9.1220  -13.5370    5.3460 C   0  0  0  0  0  0
    9.9470  -12.6630    5.5890 O   0  0  0  0  0  0
   10.0220  -15.8530    5.3320 C   0  0  0  0  0  0
    9.7910  -17.2330    4.7190 C   0  0  0  0  0  0
    8.7340  -17.4460    4.0760 O   0  5  0  0  0  0
   10.6580  -18.1100    4.8930 O   0  0  0  0  0  0
    7.8820  -13.5200    5.8270 N   0  0  0  0  0  0
    7.4100  -12.4620    6.7070 C   0  0  2  0  0  0
    8.1640  -12.5180    8.0440 C   0  0  0  0  0  0
    8.8370  -13.5390    8.2990 O   0  5  0  0  0  0
    5.9020  -12.6290    6.9490 C   0  0  0  0  0  0
    4.8960  -11.9610    5.9970 C   0  0  0  0  0  0
    5.4240  -11.8880    4.5720 C   0  0  0  0  0  0
    3.5900  -12.7280    6.0580 C   0  0  0  0  0  0
    8.0730  -11.5460    8.8180 O   0  0  0  0  0  0
    3.6975  -14.3733  -16.7247 H   0  0  0  0  0  0
    4.9570  -14.9511  -17.8678 H   0  0  0  0  0  0
    5.2751  -13.5205  -16.8291 H   0  0  0  0  0  0
    4.8145  -16.3591  -15.9073 H   0  0  0  0  0  0
    7.0753  -15.4827  -17.0890 H   0  0  0  0  0  0
    7.3761  -14.8162  -15.4483 H   0  0  0  0  0  0
    8.4329  -16.9500  -15.6099 H   0  0  0  0  0  0
    7.0074  -17.1153  -14.5295 H   0  0  0  0  0  0
    5.9204  -16.6454  -17.7010 H   0  0  0  0  0  0
    5.6940  -18.4819  -18.1549 H   0  0  0  0  0  0
    5.2182  -16.7006  -13.6539 H   0  0  0  0  0  0
    4.0563  -14.3976  -12.1494 H   0  0  0  0  0  0
    5.0534  -17.1563  -11.1891 H   0  0  0  0  0  0
    4.0415  -16.0258  -10.2276 H   0  0  0  0  0  0
    3.2094  -17.5302  -12.7380 H   0  0  0  0  0  0
    3.4369  -18.8620  -10.6478 H   0  0  0  0  0  0
    1.7192  -18.6689  -11.1365 H   0  0  0  0  0  0
    2.3877  -17.6800   -9.7942 H   0  0  0  0  0  0
    2.1907  -15.2952  -12.6551 H   0  0  0  0  0  0
    1.6593  -15.5973  -10.9660 H   0  0  0  0  0  0
    0.9908  -16.5863  -12.3083 H   0  0  0  0  0  0
    4.8659  -13.5834  -10.0810 H   0  0  0  0  0  0
    7.6674  -12.7847  -10.5055 H   0  0  0  0  0  0
    7.4136  -11.4635   -8.5286 H   0  0  0  0  0  0
    5.7563  -11.5460   -9.2166 H   0  0  0  0  0  0
    5.7286  -12.0767   -6.7413 H   0  0  0  0  0  0
    9.6615  -16.0860   -8.2627 H   0  0  0  0  0  0
   11.6737  -14.8813   -6.8976 H   0  0  0  0  0  0
   11.6914  -14.9077   -8.6936 H   0  0  0  0  0  0
   10.6396  -12.7078   -6.8281 H   0  0  0  0  0  0
   11.8692  -12.5488   -8.1279 H   0  0  0  0  0  0
   10.2050  -12.9401   -9.8871 H   0  0  0  0  0  0
    9.2425  -11.9851   -8.7089 H   0  0  0  0  0  0
   10.1716  -17.0175   -6.1626 H   0  0  0  0  0  0
    7.8882  -16.5183   -4.4599 H   0  0  0  0  0  0
    9.1876  -18.6411   -4.4627 H   0  0  0  0  0  0
    9.0870  -17.9738   -2.7980 H   0  0  0  0  0  0
   10.5993  -17.7893   -3.7497 H   0  0  0  0  0  0
    9.3561  -12.8375   -2.3465 H   0  0  0  0  0  0
    7.3257  -12.5623   -0.5785 H   0  0  0  0  0  0
    6.9878  -12.3761   -2.3328 H   0  0  0  0  0  0
    6.7031  -14.8833   -0.5934 H   0  0  0  0  0  0
    5.4368  -14.0926   -1.5925 H   0  0  0  0  0  0
    6.5307  -14.7365   -3.6794 H   0  0  0  0  0  0
    6.9089  -16.1668   -2.6607 H   0  0  0  0  0  0
   10.2289  -12.1172   -0.4521 H   0  0  0  0  0  0
   11.6285  -14.2767    0.9976 H   0  0  0  0  0  0
   11.1833  -11.2953    1.5213 H   0  0  0  0  0  0
   12.1707  -12.3243    2.6135 H   0  0  0  0  0  0
   13.3914   -9.9980    1.4401 H   0  0  0  0  0  0
   12.9004  -13.9110   -0.2311 H   0  0  0  0  0  0
   15.4302   -9.6668    0.0721 H   0  0  0  0  0  0
   14.9376  -13.5905   -1.5993 H   0  0  0  0  0  0
   16.2098  -11.4682   -1.4493 H   0  0  0  0  0  0
   11.4613  -14.6365    3.4566 H   0  0  0  0  0  0
    8.5737  -15.0301    3.9038 H   0  0  0  0  0  0
   11.1056  -15.7205    5.4672 H   0  0  0  0  0  0
    9.5248  -15.8317    6.3130 H   0  0  0  0  0  0
    7.2062  -14.3391    5.5401 H   0  0  0  0  0  0
    7.6187  -11.5139    6.1897 H   0  0  0  0  0  0
    5.6402  -13.6966    6.9086 H   0  0  0  0  0  0
    5.6425  -12.2251    7.9387 H   0  0  0  0  0  0
    4.7220  -10.9214    6.3115 H   0  0  0  0  0  0
    6.3701  -11.3270    4.5598 H   0  0  0  0  0  0
    4.6872  -11.3784    3.9337 H   0  0  0  0  0  0
    5.5964  -12.9059    4.1923 H   0  0  0  0  0  0
    3.2340  -12.7638    7.0982 H   0  0  0  0  0  0
    3.7487  -13.7522    5.6893 H   0  0  0  0  0  0
    2.8396  -12.2247    5.4307 H   0  0  0  0  0  0
  1  2  1  0  0  0
  1 71  1  0  0  0
  1 72  1  0  0  0
  1 73  1  0  0  0
  2  3  1  0  0  0
  2  5  1  0  0  0
  2 74  1  0  0  0
  3  4  2  0  0  0
  3 10  1  0  0  0
  5  6  1  0  0  0
  5 75  1  0  0  0
  5 76  1  0  0  0
  6  7  1  0  0  0
  6 77  1  0  0  0
  6 78  1  0  0  0
  7  8  2  0  0  0
  7  9  1  0  0  0
  9 79  1  0  0  0
  9 80  1  0  0  0
 10 11  1  0  0  0
 10 81  1  0  0  0
 11 12  1  0  0  0
 11 14  1  0  0  0
 11 82  1  0  0  0
 12 13  2  0  0  0
 12 18  1  0  0  0
 14 15  1  0  0  0
 14 83  1  0  0  0
 14 84  1  0  0  0
 15 16  1  0  0  0
 15 17  1  0  0  0
 15 85  1  0  0  0
 16 86  1  0  0  0
 16 87  1  0  0  0
 16 88  1  0  0  0
 17 89  1  0  0  0
 17 90  1  0  0  0
 17 91  1  0  0  0
 18 19  1  0  0  0
 18 92  1  0  0  0
 19 20  1  0  0  0
 19 22  1  0  0  0
 19 93  1  0  0  0
 20 21  2  0  0  0
 20 24  1  0  0  0
 22 23  1  0  0  0
 22 94  1  0  0  0
 22 95  1  0  0  0
 23 96  1  0  0  0
 24 25  1  0  0  0
 24 30  1  0  0  0
 25 26  1  0  0  0
 25 28  1  0  0  0
 25 97  1  0  0  0
 26 27  2  0  0  0
 26 31  1  0  0  0
 28 29  1  0  0  0
 28 98  1  0  0  0
 28 99  1  0  0  0
 29 30  1  0  0  0
 29100  1  0  0  0
 29101  1  0  0  0
 30102  1  0  0  0
 30103  1  0  0  0
 31 32  1  0  0  0
 31104  1  0  0  0
 32 33  1  0  0  0
 32 35  1  0  0  0
 32105  1  0  0  0
 33 34  2  0  0  0
 33 36  1  0  0  0
 35106  1  0  0  0
 35107  1  0  0  0
 35108  1  0  0  0
 36 37  1  0  0  0
 36 42  1  0  0  0
 37 38  1  0  0  0
 37 40  1  0  0  0
 37109  1  0  0  0
 38 39  2  0  0  0
 38 43  1  0  0  0
 40 41  1  0  0  0
 40110  1  0  0  0
 40111  1  0  0  0
 41 42  1  0  0  0
 41112  1  0  0  0
 41113  1  0  0  0
 42114  1  0  0  0
 42115  1  0  0  0
 43 44  1  0  0  0
 43116  1  0  0  0
 44 45  1  0  0  0
 44 47  1  0  0  0
 44117  1  0  0  0
 45 46  2  0  0  0
 45 54  1  0  0  0
 47 48  1  0  0  0
 47118  1  0  0  0
 47119  1  0  0  0
 48 49  2  0  0  0
 48 50  1  0  0  0
 49 51  1  0  0  0
 49120  1  0  0  0
 50 52  2  0  0  0
 50121  1  0  0  0
 51 53  2  0  0  0
 51122  1  0  0  0
 52 53  1  0  0  0
 52123  1  0  0  0
 53124  1  0  0  0
 54 55  1  0  0  0
 54125  1  0  0  0
 55 56  1  0  0  0
 55 58  1  0  0  0
 55126  1  0  0  0
 56 57  2  0  0  0
 56 62  1  0  0  0
 58 59  1  0  0  0
 58127  1  0  0  0
 58128  1  0  0  0
 59 60  1  0  0  0
 59 61  2  0  0  0
 62 63  1  0  0  0
 62129  1  0  0  0
 63 64  1  0  0  0
 63 66  1  0  0  0
 63130  1  0  0  0
 64 65  1  0  0  0
 64 70  2  0  0  0
 66 67  1  0  0  0
 66131  1  0  0  0
 66132  1  0  0  0
 67 68  1  0  0  0
 67 69  1  0  0  0
 67133  1  0  0  0
 68134  1  0  0  0
 68135  1  0  0  0
 68136  1  0  0  0
 69137  1  0  0  0
 69138  1  0  0  0
 69139  1  0  0  0
M  CHG  3   1   1  60  -1  65  -1
M  END
> <s_m_source_file>
../3ery_ligand.sdf

> <i_m_source_file_index>
1

> <s_epik_input>
Tz1DKFtOSDJdKVtDSDJdW0NIMl1bQ0BIXShbTkgzK10pQyg9TylbTkhdW0NAQEhdKFtDSDJdW0NIXShbQ0gzXSlbQ0gzXSlDKD1PKVtOSF1bQ0BASF0oW0NIMl1bT0hdKUMoPU8pTjFbQ0BASF0oW0NIMl1bQ0gyXVtDSDJdMSlDKD1PKVtOSF1bQ0BASF0oW0NIM10pQyg9TylOMltDQEBIXShbQ0gyXVtDSDJdW0NIMl0yKUMoPU8pW05IXVtDQEBIXShbQ0gyXWMzW2NIXVtjSF1bY0hdW2NIXVtjSF0zKUMoPU8pW05IXVtDQEBIXShbQ0gyXUMoPU8pW09IXSlDKD1PKVtOSF1bQ0BIXShDKD1PKVtPSF0pW0NIMl1bQ0hdKFtDSDNdKVtDSDNd

> <s_epik_cmdline>
J2VwaWtfYXBwJywgJy1pbWFlJywgJ2xpZ2FuZF9wcm8ubWFlJywgJy1vbWFlJywgJ2xpZ2FuZF9wcmVwLm1hZScsICctbXMnLCAnMScsICctcGgnLCAnNycsICctcGh0JywgJzAuNScsICctbnQn

> <r_epik_Ionization_Penalty>
  0.1709

> <r_epik_Ionization_Penalty_Charging>
  0.1709

> <r_epik_Ionization_Penalty_Neutral>
  0.0000

> <r_epik_State_Penalty>
  0.1555

> <r_epik_Charging_Adjusted_Penalty>
0.326407279848203

> <i_epik_Tot_Q>
-1

> <i_epik_Tot_abs_Q>
3

$$$$
