3esj_ligand
                    3D
 Schrodinger Suite 2020-3.
 31 33  0  0  1  0            999 V2000
    7.1860   31.9020   13.7680 O   0  0  0  0  0  0
    7.5130   30.7710   13.4550 C   0  0  0  0  0  0
    6.7530   29.7220   13.7820 N   0  0  0  0  0  0
    7.1180   28.4830   13.4370 C   0  0  0  0  0  0
    6.3460   27.4900   13.7790 N   0  0  0  0  0  0
    8.2780   28.2370   12.7210 C   0  0  0  0  0  0
    9.0790   29.3090   12.3530 C   0  0  0  0  0  0
    8.6740   30.5960   12.7440 N   0  0  0  0  0  0
    9.4330   31.7930   12.4090 C   0  0  2  0  0  0
    9.0060   32.0570   11.0650 O   0  0  0  0  0  0
   10.1340   32.5570   10.4090 C   0  0  2  0  0  0
   10.0490   32.3200    8.9070 C   0  0  0  0  0  0
   11.3270   32.5710    8.3130 O   0  0  0  0  0  0
   12.6700   31.9050    8.9540 P   0  0  1  0  0  0
   12.5170   30.3360    8.7810 O   0  5  0  0  0  0
   13.8910   32.5090    8.3770 O   0  0  0  0  0  0
   12.4840   32.0200   10.4900 O   0  0  0  0  0  0
   11.1870   31.5810   10.9030 C   0  0  1  0  0  0
   10.9430   31.6450   12.3850 C   0  0  1  0  0  0
   11.4810   32.8460   12.8880 O   0  0  0  0  0  0
    5.4239   27.6808   14.3476 H   0  0  0  0  0  0
    8.5571   27.2185   12.4511 H   0  0  0  0  0  0
    9.9931   29.1571   11.7790 H   0  0  0  0  0  0
    9.2000   32.5702   13.1517 H   0  0  0  0  0  0
   10.2342   33.6300   10.6295 H   0  0  0  0  0  0
    9.7537   31.2777    8.7164 H   0  0  0  0  0  0
    9.3014   32.9986    8.4704 H   0  0  0  0  0  0
   11.1870   30.5558   10.5044 H   0  0  0  0  0  0
   11.3983   30.8413   12.9823 H   0  0  0  0  0  0
   11.4019   33.0775   13.9605 H   0  0  0  0  0  0
    6.6166   26.4612   13.4990 H   0  0  0  0  0  0
  1  2  2  0  0  0
  2  3  1  0  0  0
  2  8  1  0  0  0
  3  4  2  0  0  0
  4  5  1  0  0  0
  4  6  1  0  0  0
  5 21  1  0  0  0
  5 31  1  0  0  0
  6  7  2  0  0  0
  6 22  1  0  0  0
  7  8  1  0  0  0
  7 23  1  0  0  0
  8  9  1  0  0  0
  9 10  1  0  0  0
  9 19  1  0  0  0
  9 24  1  0  0  0
 10 11  1  0  0  0
 11 12  1  0  0  0
 11 18  1  0  0  0
 11 25  1  0  0  0
 12 13  1  0  0  0
 12 26  1  0  0  0
 12 27  1  0  0  0
 13 14  1  0  0  0
 14 15  1  0  0  0
 14 16  2  0  0  0
 14 17  1  0  0  0
 17 18  1  0  0  0
 18 19  1  0  0  0
 18 28  1  0  0  0
 19 20  1  0  0  0
 19 29  1  0  0  0
 20 30  1  0  0  0
M  CHG  1  15  -1
M  END
> <s_m_source_file>
../3esj_ligand.sdf

> <i_m_source_file_index>
1

> <s_epik_input>
Tz1jMVtuSF0vYyg9Ti9bSF0pW2NIXVtjSF1uMVtDQEhdKE8yKVtDQEhdKFtPSF0pW0NAQEhdKFtDQEhdMjMpT1tQQEBdKD1PKShbT0hdKU9bQ0gyXTM=

> <s_epik_cmdline>
J2VwaWtfYXBwJywgJy1pbWFlJywgJ2xpZ2FuZF9wcm8ubWFlJywgJy1vbWFlJywgJ2xpZ2FuZF9wcmVwLm1hZScsICctbXMnLCAnMScsICctcGgnLCAnNycsICctcGh0JywgJzAuNScsICctbnQn

> <r_lp_tautomer_probability>
1

> <r_epik_Ionization_Penalty>
  0.0010

> <r_epik_Ionization_Penalty_Charging>
  0.0002

> <r_epik_Ionization_Penalty_Neutral>
  0.0008

> <r_epik_State_Penalty>
 -0.0000

> <r_epik_Charging_Adjusted_Penalty>
0.000246790265650808

> <i_epik_Tot_Q>
-1

> <i_epik_Tot_abs_Q>
1

> <s_epik_Chemistry_Notes>
This compound contains an acetal/aminal-like group ( X-CH(R)-Y where X, Y are N, S, or O) that may be acid/base labile, releasing an aldehyde.

$$$$
