3et7_ligand
                    3D
 Schrodinger Suite 2020-3.
 60 64  0  0  1  0            999 V2000
   21.5830   66.1030   21.8780 O   0  0  0  0  0  0
   21.3840   65.2620   20.7320 S   0  0  0  0  0  0
   20.8370   65.5760   19.4620 O   0  0  0  0  0  0
   20.5480   63.8960   21.3040 N   0  0  0  0  0  0
   20.5270   63.3990   22.7220 C   0  0  0  0  0  0
   19.2590   62.4560   22.8440 C   0  0  0  0  0  0
   19.0590   61.9040   21.4120 C   0  0  0  0  0  0
   19.5810   63.0670   20.5130 C   0  0  0  0  0  0
   23.0160   64.6640   20.4240 C   0  0  0  0  0  0
   23.2960   63.2900   20.7100 C   0  0  0  0  0  0
   24.5630   62.8190   20.5020 C   0  0  0  0  0  0
   25.4990   63.7790   20.0650 C   0  0  0  0  0  0
   25.2630   65.1280   19.7900 C   0  0  0  0  0  0
   23.9640   65.6060   19.9680 C   0  0  0  0  0  0
   23.5770   67.0580   19.7320 C   0  0  0  0  0  0
   24.8870   67.7350   19.4920 N   0  0  0  0  0  0
   25.3060   68.1770   18.2340 C   0  0  0  0  0  0
   24.6050   67.8560   17.1570 N   0  0  0  0  0  0
   25.0440   68.3070   15.9780 C   0  0  0  0  0  0
   26.0750   69.1450   15.7700 N   0  0  0  0  0  0
   26.8320   69.4800   16.8270 C   0  0  0  0  0  0
   26.4300   68.9500   18.0450 C   0  0  0  0  0  0
   27.2140   69.2640   19.2410 C   0  0  0  0  0  0
   26.3410   69.8890   20.1270 F   0  0  0  0  0  0
   27.6710   68.1240   19.9250 F   0  0  0  0  0  0
   28.3560   69.8960   18.7630 F   0  0  0  0  0  0
   24.2300   67.9690   14.9630 N   0  0  0  0  0  0
   23.1360   67.0770   15.2160 C   0  0  0  0  0  0
   23.0750   66.3970   16.3790 C   0  0  0  0  0  0
   22.0130   65.5240   16.5170 C   0  0  0  0  0  0
   20.9940   65.2960   15.6410 C   0  0  0  0  0  0
   19.8580   64.4620   15.7070 N   0  0  0  0  0  0
   21.0750   65.9850   14.4420 C   0  0  0  0  0  0
   22.1170   66.8650   14.2450 C   0  0  0  0  0  0
   19.8840   65.5810   13.5620 C   0  0  0  0  0  0
   19.1630   64.5920   14.4910 C   0  0  0  0  0  0
   18.1410   64.0210   14.1200 O   0  0  0  0  0  0
   21.4535   62.8436   22.9296 H   0  0  0  0  0  0
   20.4505   64.2544   23.4093 H   0  0  0  0  0  0
   19.4656   61.6560   23.5702 H   0  0  0  0  0  0
   18.3949   63.0456   23.1840 H   0  0  0  0  0  0
   19.6433   60.9800   21.2903 H   0  0  0  0  0  0
   17.9930   61.6880   21.2479 H   0  0  0  0  0  0
   18.7375   63.6952   20.1908 H   0  0  0  0  0  0
   20.0893   62.6543   19.6291 H   0  0  0  0  0  0
   22.5138   62.6310   21.0867 H   0  0  0  0  0  0
   24.8306   61.7747   20.6628 H   0  0  0  0  0  0
   26.5219   63.4289   19.9262 H   0  0  0  0  0  0
   26.0643   65.7835   19.4488 H   0  0  0  0  0  0
   22.9075   67.1222   18.8616 H   0  0  0  0  0  0
   23.0609   67.4491   20.6212 H   0  0  0  0  0  0
   25.5783   67.9081   20.3299 H   0  0  0  0  0  0
   27.7051   70.1259   16.7346 H   0  0  0  0  0  0
   24.4080   68.3755   13.9565 H   0  0  0  0  0  0
   23.8197   66.5284   17.1640 H   0  0  0  0  0  0
   21.9869   64.9461   17.4408 H   0  0  0  0  0  0
   19.6653   63.8656   16.6110 H   0  0  0  0  0  0
   22.1627   67.4208   13.3085 H   0  0  0  0  0  0
   19.2878   66.4731   13.3198 H   0  0  0  0  0  0
   20.2535   65.1235   12.6324 H   0  0  0  0  0  0
  1  2  2  0  0  0
  2  3  2  0  0  0
  2  4  1  0  0  0
  2  9  1  0  0  0
  4  5  1  0  0  0
  4  8  1  0  0  0
  5  6  1  0  0  0
  5 38  1  0  0  0
  5 39  1  0  0  0
  6  7  1  0  0  0
  6 40  1  0  0  0
  6 41  1  0  0  0
  7  8  1  0  0  0
  7 42  1  0  0  0
  7 43  1  0  0  0
  8 44  1  0  0  0
  8 45  1  0  0  0
  9 10  2  0  0  0
  9 14  1  0  0  0
 10 11  1  0  0  0
 10 46  1  0  0  0
 11 12  2  0  0  0
 11 47  1  0  0  0
 12 13  1  0  0  0
 12 48  1  0  0  0
 13 14  2  0  0  0
 13 49  1  0  0  0
 14 15  1  0  0  0
 15 16  1  0  0  0
 15 50  1  0  0  0
 15 51  1  0  0  0
 16 17  1  0  0  0
 16 52  1  0  0  0
 17 18  2  0  0  0
 17 22  1  0  0  0
 18 19  1  0  0  0
 19 20  2  0  0  0
 19 27  1  0  0  0
 20 21  1  0  0  0
 21 22  2  0  0  0
 21 53  1  0  0  0
 22 23  1  0  0  0
 23 24  1  0  0  0
 23 25  1  0  0  0
 23 26  1  0  0  0
 27 28  1  0  0  0
 27 54  1  0  0  0
 28 29  2  0  0  0
 28 34  1  0  0  0
 29 30  1  0  0  0
 29 55  1  0  0  0
 30 31  2  0  0  0
 30 56  1  0  0  0
 31 32  1  0  0  0
 31 33  1  0  0  0
 32 36  1  0  0  0
 32 57  1  0  0  0
 33 34  2  0  0  0
 33 35  1  0  0  0
 34 58  1  0  0  0
 35 36  1  0  0  0
 35 59  1  0  0  0
 35 60  1  0  0  0
 36 37  2  0  0  0
M  END
> <s_m_source_file>
../3et7_ligand.sdf

> <i_m_source_file_index>
1

> <s_epik_input>
W0NIMl0xW0NIMl1bQ0gyXVtDSDJdTjFTKD1PKSg9TyljMltjSF1bY0hdW2NIXVtjSF1jMltDSDJdW05IXWMzbmMobltjSF1jM0MoRikoRilGKVtOSF1jKFtjSF1bY0hdNClbY0hdYyhjNDUpW0NIMl1DKD1PKVtOSF01

> <s_epik_cmdline>
J2VwaWtfYXBwJywgJy1pbWFlJywgJ2xpZ2FuZF9wcm8ubWFlJywgJy1vbWFlJywgJ2xpZ2FuZF9wcmVwLm1hZScsICctbXMnLCAnMScsICctcGgnLCAnNycsICctcGh0JywgJzAuNScsICctbnQn

> <r_lp_tautomer_probability>
1

> <r_epik_Ionization_Penalty>
  0.0006

> <r_epik_Ionization_Penalty_Charging>
  0.0000

> <r_epik_Ionization_Penalty_Neutral>
  0.0006

> <r_epik_State_Penalty>
 -0.0000

> <r_epik_Charging_Adjusted_Penalty>
0

> <i_epik_Tot_Q>
0

> <i_epik_Tot_abs_Q>
0

$$$$
