3eta_ligand
                    3D
 Schrodinger Suite 2020-3.
 67 72  0  0  1  0            999 V2000
   46.2360   21.9090    0.1360 N   0  3  0  0  0  0
   47.2360   22.8500    0.6670 C   0  0  0  0  0  0
   48.1430   22.1140    1.5810 C   0  0  0  0  0  0
   47.7500   21.8290    2.8710 C   0  0  0  0  0  0
   48.6120   21.1490    3.7060 C   0  0  0  0  0  0
   49.8590   20.7520    3.2650 C   0  0  0  0  0  0
   50.2320   21.0370    1.9670 C   0  0  0  0  0  0
   49.3810   21.7150    1.1260 C   0  0  0  0  0  0
   50.7740   20.0450    4.1230 C   0  0  0  0  0  0
   52.1310   20.1630    3.9150 C   0  0  0  0  0  0
   53.0960   19.5590    4.6090 N   0  0  0  0  0  0
   52.5920   18.7810    5.5670 C   0  0  0  0  0  0
   53.3510   18.0440    6.4250 N   0  0  0  0  0  0
   52.5480   17.3600    7.2870 C   0  0  0  0  0  0
   51.2410   17.6650    6.9820 C   0  0  3  0  0  0
   50.1400   17.0960    7.7170 C   0  0  0  0  0  0
   48.9600   17.7920    7.8470 C   0  0  0  0  0  0
   47.9150   17.2340    8.5470 C   0  0  0  0  0  0
   48.0410   15.9840    9.1120 C   0  0  0  0  0  0
   49.2170   15.2800    8.9870 C   0  0  0  0  0  0
   49.3130   14.0090    9.5860 N   0  0  0  0  0  0
   49.9640   12.9370    9.0090 C   0  0  0  0  0  0
   50.3750   12.9180    7.8550 O   0  0  0  0  0  0
   50.1000   11.8910    9.9040 N   0  0  0  0  0  0
   50.4060   10.5710    9.5270 C   0  0  0  0  0  0
   51.4680   10.2900    8.6950 C   0  0  0  0  0  0
   51.7470    8.9810    8.3540 C   0  0  0  0  0  0
   50.9690    7.9490    8.8360 C   0  0  0  0  0  0
   49.9070    8.2230    9.6690 C   0  0  0  0  0  0
   49.6410    9.5330   10.0140 C   0  0  0  0  0  0
   48.5840    9.8530   10.8430 O   0  0  0  0  0  0
   48.4760    9.1490   12.0280 C   0  0  0  0  0  0
   49.5880    8.7210   12.7210 C   0  0  0  0  0  0
   49.4130    8.0290   13.9030 C   0  0  0  0  0  0
   48.1430    7.7750   14.3800 C   0  0  0  0  0  0
   47.0380    8.2080   13.6790 C   0  0  0  0  0  0
   47.2050    8.9000   12.4990 C   0  0  0  0  0  0
   50.2680   15.8450    8.2890 C   0  0  0  0  0  0
   51.2650   18.5700    5.8850 C   0  0  0  0  0  0
   50.3070   19.2300    5.1340 C   0  0  0  0  0  0
   45.5557   22.4422   -0.5444 H   0  0  0  0  0  0
   45.6594   21.4786    0.9680 H   0  0  0  0  0  0
   46.7457   21.1031   -0.4124 H   0  0  0  0  0  0
   47.8126   23.2804   -0.1650 H   0  0  0  0  0  0
   46.7263   23.6559    1.2154 H   0  0  0  0  0  0
   46.7675   22.1380    3.2279 H   0  0  0  0  0  0
   48.3050   20.9221    4.7270 H   0  0  0  0  0  0
   51.2106   20.7216    1.6050 H   0  0  0  0  0  0
   49.6848   21.9361    0.1028 H   0  0  0  0  0  0
   52.4473   20.8157    3.1014 H   0  0  0  0  0  0
   52.9928   16.7069    8.0523 H   0  0  0  0  0  0
   48.8538   18.7796    7.3981 H   0  0  0  0  0  0
   46.9808   17.7850    8.6552 H   0  0  0  0  0  0
   47.2051   15.5503    9.6608 H   0  0  0  0  0  0
   48.8537   13.8282   10.5691 H   0  0  0  0  0  0
   49.9673   12.0683   10.9815 H   0  0  0  0  0  0
   52.0866   11.0992    8.3068 H   0  0  0  0  0  0
   52.5895    8.7615    7.6982 H   0  0  0  0  0  0
   51.1941    6.9193    8.5583 H   0  0  0  0  0  0
   49.2836    7.4148   10.0515 H   0  0  0  0  0  0
   50.5893    8.9255   12.3421 H   0  0  0  0  0  0
   50.2819    7.6817   14.4620 H   0  0  0  0  0  0
   48.0133    7.2298   15.3149 H   0  0  0  0  0  0
   46.0360    8.0039   14.0565 H   0  0  0  0  0  0
   46.3361    9.2487   11.9409 H   0  0  0  0  0  0
   51.2059   15.2987    8.1891 H   0  0  0  0  0  0
   49.2414   19.1122    5.3308 H   0  0  0  0  0  0
  1  2  1  0  0  0
  1 41  1  0  0  0
  1 42  1  0  0  0
  1 43  1  0  0  0
  2  3  1  0  0  0
  2 44  1  0  0  0
  2 45  1  0  0  0
  3  4  2  0  0  0
  3  8  1  0  0  0
  4  5  1  0  0  0
  4 46  1  0  0  0
  5  6  2  0  0  0
  5 47  1  0  0  0
  6  7  1  0  0  0
  6  9  1  0  0  0
  7  8  2  0  0  0
  7 48  1  0  0  0
  8 49  1  0  0  0
  9 10  2  0  0  0
  9 40  1  0  0  0
 10 11  1  0  0  0
 10 50  1  0  0  0
 11 12  2  0  0  0
 12 13  1  0  0  0
 12 39  1  0  0  0
 13 14  2  0  0  0
 14 15  1  0  0  0
 14 51  1  0  0  0
 15 16  1  0  0  0
 15 39  1  0  0  0
 16 17  2  0  0  0
 16 38  1  0  0  0
 17 18  1  0  0  0
 17 52  1  0  0  0
 18 19  2  0  0  0
 18 53  1  0  0  0
 19 20  1  0  0  0
 19 54  1  0  0  0
 20 21  1  0  0  0
 20 38  2  0  0  0
 21 22  1  0  0  0
 21 55  1  0  0  0
 22 23  2  0  0  0
 22 24  1  0  0  0
 24 25  1  0  0  0
 24 56  1  0  0  0
 25 26  2  0  0  0
 25 30  1  0  0  0
 26 27  1  0  0  0
 26 57  1  0  0  0
 27 28  2  0  0  0
 27 58  1  0  0  0
 28 29  1  0  0  0
 28 59  1  0  0  0
 29 30  2  0  0  0
 29 60  1  0  0  0
 30 31  1  0  0  0
 31 32  1  0  0  0
 32 33  2  0  0  0
 32 37  1  0  0  0
 33 34  1  0  0  0
 33 61  1  0  0  0
 34 35  2  0  0  0
 34 62  1  0  0  0
 35 36  1  0  0  0
 35 63  1  0  0  0
 36 37  2  0  0  0
 36 64  1  0  0  0
 37 65  1  0  0  0
 38 66  1  0  0  0
 39 40  2  0  0  0
 40 67  1  0  0  0
M  CHG  1   1   1
M  END
> <s_m_source_file>
../3eta_ligand.sdf

> <i_m_source_file_index>
1

> <s_epik_input>
W05IMytdW0NIMl1jMVtjSF1bY0hdYyhbY0hdW2NIXTEpLWMoW2NIXW4yKVtjSF1jKGMyMylbQ0hdKFtDSF09TjMpYzRbY0hdW2NIXVtjSF1jKFtjSF00KVtOSF1DKD1PKVtOSF1jNVtjSF1bY0hdW2NIXVtjSF1jNU9jNltjSF1bY0hdW2NIXVtjSF1bY0hdNg==

> <s_epik_cmdline>
J2VwaWtfYXBwJywgJy1pbWFlJywgJ2xpZ2FuZF9wcm8ubWFlJywgJy1vbWFlJywgJ2xpZ2FuZF9wcmVwLm1hZScsICctbXMnLCAnMScsICctcGgnLCAnNycsICctcGh0JywgJzAuNScsICctbnQn

> <r_lp_tautomer_probability>
1

> <r_epik_Ionization_Penalty>
  0.0356

> <r_epik_Ionization_Penalty_Charging>
  0.0280

> <r_epik_Ionization_Penalty_Neutral>
  0.0076

> <r_epik_State_Penalty>
 -0.0000

> <r_epik_Charging_Adjusted_Penalty>
0.0280213351973632

> <i_epik_Tot_Q>
1

> <i_epik_Tot_abs_Q>
1

> <s_epik_Chemistry_Notes>
This compound has an imine and may undergo hydrolysis.

$$$$
