3eu5_ligand
                    3D
 Schrodinger Suite 2020-3.
 67 68  0  0  1  0            999 V2000
   54.7960  -43.0360    7.6110 O   0  5  0  0  0  0
   54.1570  -42.4060    6.2790 P   0  0  0  0  0  0
   53.2850  -41.2350    6.8970 O   0  5  0  0  0  0
   55.1730  -42.0420    5.2720 O   0  0  0  0  0  0
   53.1120  -43.4850    5.7490 O   0  0  0  0  0  0
   52.7200  -43.7480    4.1950 P   0  0  1  0  0  0
   51.7900  -44.8760    4.2770 O   0  0  0  0  0  0
   52.3230  -42.5370    3.4010 O   0  5  0  0  0  0
   54.1480  -44.3100    3.8110 O   0  0  0  0  0  0
   54.7050  -44.3900    2.5310 C   0  0  0  0  0  0
   56.0020  -44.8640    2.6540 C   0  0  0  0  0  0
   56.7350  -45.2110    1.5480 C   0  0  1  0  0  0
   56.0920  -45.0460    0.1440 C   0  0  0  0  0  0
   58.1630  -45.7420    1.6100 C   0  0  0  0  0  0
   58.5050  -46.6000    2.8190 C   0  0  0  0  0  0
   59.6240  -47.3620    2.5020 C   0  0  0  0  0  0
   60.2230  -48.3360    3.2690 C   0  0  1  0  0  0
   59.5950  -48.6740    4.6190 C   0  0  0  0  0  0
   61.4440  -49.1260    2.7570 C   0  0  0  0  0  0
   60.8170  -50.3980    2.4670 N   0  0  0  0  0  0
   61.3500  -51.5750    2.1920 C   0  0  0  0  0  0
   62.5470  -51.8440    2.0930 O   0  0  0  0  0  0
   60.2710  -52.6760    1.9320 C   0  0  0  0  0  0
   59.1960  -52.8970    3.0510 C   0  0  0  0  0  0
   58.0660  -53.7910    2.5230 C   0  0  0  0  0  0
   56.6770  -53.2640    2.8980 C   0  0  0  0  0  0
   55.5780  -54.2660    2.4230 C   0  0  2  0  0  0
   56.1400  -55.7060    1.3870 S   0  0  0  0  0  0
   54.4280  -56.1180    0.8780 C   0  0  0  0  0  0
   53.7720  -54.7230    0.6540 C   0  0  1  0  0  0
   54.4890  -53.6060    1.5000 C   0  0  2  0  0  0
   55.1480  -52.7590    0.4650 N   0  0  0  0  0  0
   54.9170  -53.2450   -0.7490 C   0  0  0  0  0  0
   55.3640  -52.7490   -1.7850 O   0  0  0  0  0  0
   54.1320  -54.3290   -0.7140 N   0  0  0  0  0  0
   54.2981  -44.1527    1.5370 H   0  0  0  0  0  0
   56.4580  -44.9665    3.6498 H   0  0  0  0  0  0
   56.3405  -46.2361    1.6082 H   0  0  0  0  0  0
   55.0687  -44.6573    0.2528 H   0  0  0  0  0  0
   56.0616  -46.0221   -0.3623 H   0  0  0  0  0  0
   56.6903  -44.3418   -0.4528 H   0  0  0  0  0  0
   58.3603  -46.3673    0.7268 H   0  0  0  0  0  0
   58.8678  -44.8976    1.6263 H   0  0  0  0  0  0
   58.0386  -46.6939    3.8108 H   0  0  0  0  0  0
   60.1346  -47.2150    1.5388 H   0  0  0  0  0  0
   60.2619  -47.3377    2.8087 H   0  0  0  0  0  0
   58.7422  -48.0044    4.8046 H   0  0  0  0  0  0
   60.3435  -48.5436    5.4145 H   0  0  0  0  0  0
   59.2469  -49.7174    4.6105 H   0  0  0  0  0  0
   61.8624  -48.6221    1.8732 H   0  0  0  0  0  0
   62.2075  -49.1739    3.5474 H   0  0  0  0  0  0
   59.7202  -50.4804    2.4545 H   0  0  0  0  0  0
   59.7043  -52.4265    1.0228 H   0  0  0  0  0  0
   60.7652  -53.6499    1.8004 H   0  0  0  0  0  0
   59.6654  -53.3817    3.9197 H   0  0  0  0  0  0
   58.7777  -51.9260    3.3546 H   0  0  0  0  0  0
   58.1230  -53.8444    1.4258 H   0  0  0  0  0  0
   58.1701  -54.8014    2.9452 H   0  0  0  0  0  0
   56.6117  -53.1469    3.9898 H   0  0  0  0  0  0
   56.5114  -52.2900    2.4143 H   0  0  0  0  0  0
   55.1862  -54.4181    3.4395 H   0  0  0  0  0  0
   54.4540  -56.7216   -0.0412 H   0  0  0  0  0  0
   53.9351  -56.6896    1.6782 H   0  0  0  0  0  0
   52.6903  -54.7954    0.8400 H   0  0  0  0  0  0
   53.8167  -52.9996    2.1247 H   0  0  0  0  0  0
   55.7252  -51.8723    0.7659 H   0  0  0  0  0  0
   53.7591  -54.9105   -1.5700 H   0  0  0  0  0  0
  1  2  1  0  0  0
  2  3  1  0  0  0
  2  4  2  0  0  0
  2  5  1  0  0  0
  5  6  1  0  0  0
  6  7  2  0  0  0
  6  8  1  0  0  0
  6  9  1  0  0  0
  9 10  1  0  0  0
 10 11  2  0  0  0
 10 36  1  0  0  0
 11 12  1  0  0  0
 11 37  1  0  0  0
 12 13  1  0  0  0
 12 14  1  0  0  0
 12 38  1  0  0  0
 13 39  1  0  0  0
 13 40  1  0  0  0
 13 41  1  0  0  0
 14 15  1  0  0  0
 14 42  1  0  0  0
 14 43  1  0  0  0
 15 16  2  0  0  0
 15 44  1  0  0  0
 16 17  1  0  0  0
 16 45  1  0  0  0
 17 18  1  0  0  0
 17 19  1  0  0  0
 17 46  1  0  0  0
 18 47  1  0  0  0
 18 48  1  0  0  0
 18 49  1  0  0  0
 19 20  1  0  0  0
 19 50  1  0  0  0
 19 51  1  0  0  0
 20 21  1  0  0  0
 20 52  1  0  0  0
 21 22  2  0  0  0
 21 23  1  0  0  0
 23 24  1  0  0  0
 23 53  1  0  0  0
 23 54  1  0  0  0
 24 25  1  0  0  0
 24 55  1  0  0  0
 24 56  1  0  0  0
 25 26  1  0  0  0
 25 57  1  0  0  0
 25 58  1  0  0  0
 26 27  1  0  0  0
 26 59  1  0  0  0
 26 60  1  0  0  0
 27 28  1  0  0  0
 27 31  1  0  0  0
 27 61  1  0  0  0
 28 29  1  0  0  0
 29 30  1  0  0  0
 29 62  1  0  0  0
 29 63  1  0  0  0
 30 31  1  0  0  0
 30 35  1  0  0  0
 30 64  1  0  0  0
 31 32  1  0  0  0
 31 65  1  0  0  0
 32 33  1  0  0  0
 32 66  1  0  0  0
 33 34  2  0  0  0
 33 35  1  0  0  0
 35 67  1  0  0  0
M  CHG  3   1  -1   3  -1   8  -1
M  END
> <s_m_source_file>
../3eu5_ligand.sdf

> <i_m_source_file_index>
1

> <s_epik_input>
W09IXVAoPU8pKFtPSF0pT1tQQEBdKD1PKShbT0hdKU8vW0NIXT1bQ0hdL1tDQEBIXShbQ0gzXSlbQ0gyXS9bQ0hdPVtDSF0vW0NAQEhdKFtDSDNdKVtDSDJdW05IXUMoPU8pW0NIMl1bQ0gyXVtDSDJdW0NIMl1bQ0BIXShTW0NIMl0xKVtDQEhdKFtDQEhdMTIpW05IXUMoPU8pW05IXTI=

> <s_epik_cmdline>
J2VwaWtfYXBwJywgJy1pbWFlJywgJ2xpZ2FuZF9wcm8ubWFlJywgJy1vbWFlJywgJ2xpZ2FuZF9wcmVwLm1hZScsICctbXMnLCAnMScsICctcGgnLCAnNycsICctcGh0JywgJzAuNScsICctbnQn

> <r_epik_Ionization_Penalty>
  0.0815

> <r_epik_Ionization_Penalty_Charging>
  0.0814

> <r_epik_Ionization_Penalty_Neutral>
  0.0000

> <r_epik_State_Penalty>
  0.0711

> <r_epik_Charging_Adjusted_Penalty>
0.152499145878032

> <i_epik_Tot_Q>
-3

> <i_epik_Tot_abs_Q>
3

$$$$
