3eu7_ligand
                    3D
 Schrodinger Suite 2020-3.
212215  0  0  1  0            999 V2000
   -6.2680  -23.9430   -3.7810 N   0  3  0  0  0  0
   -6.5920  -22.7070   -4.4960 C   0  0  2  0  0  0
   -6.9700  -21.5460   -3.5600 C   0  0  0  0  0  0
   -7.5670  -20.5630   -3.9980 O   0  0  0  0  0  0
   -7.7220  -22.9640   -5.4950 C   0  0  0  0  0  0
   -6.6070  -21.6740   -2.2810 N   0  0  0  0  0  0
   -6.9590  -20.7270   -1.2220 C   0  0  0  0  0  0
   -7.5740  -19.3910   -1.6210 C   0  0  0  0  0  0
   -6.8630  -18.4330   -1.9130 O   0  0  0  0  0  0
   -8.9120  -19.3030   -1.5950 N   0  0  0  0  0  0
   -9.6050  -18.0660   -1.9840 C   0  0  2  0  0  0
   -9.2230  -16.8930   -1.0720 C   0  0  0  0  0  0
   -9.0670  -17.0900    0.1420 O   0  0  0  0  0  0
  -11.0910  -18.4040   -1.7720 C   0  0  0  0  0  0
  -11.1470  -19.8750   -1.4640 C   0  0  0  0  0  0
   -9.8140  -20.2660   -0.9430 C   0  0  0  0  0  0
   -9.0610  -15.7030   -1.6500 N   0  0  0  0  0  0
   -8.8730  -14.4950   -0.8750 C   0  0  2  0  0  0
  -10.1470  -13.6660   -0.9010 C   0  0  0  0  0  0
  -10.7440  -13.4580   -1.9560 O   0  0  0  0  0  0
   -7.7230  -13.6050   -1.4180 C   0  0  2  0  0  0
   -6.3520  -14.2550   -1.2010 C   0  0  0  0  0  0
   -7.7330  -12.2740   -0.7170 C   0  0  0  0  0  0
   -5.2180  -13.5250   -1.9370 C   0  0  0  0  0  0
  -10.5610  -13.1740    0.2580 N   0  0  0  0  0  0
  -11.7350  -12.3300    0.3090 C   0  0  2  0  0  0
  -11.3630  -10.9780    0.8810 C   0  0  0  0  0  0
  -10.9680  -10.8920    2.0500 O   0  0  0  0  0  0
  -12.8540  -12.9790    1.1330 C   0  0  0  0  0  0
  -14.0370  -12.2100    1.0060 O   0  0  0  0  0  0
  -11.5040   -9.9320    0.0570 N   0  0  0  0  0  0
  -11.1160   -8.5710    0.4430 C   0  0  2  0  0  0
  -12.1090   -7.9850    1.4600 C   0  0  0  0  0  0
  -11.9150   -6.8810    2.0020 O   0  0  0  0  0  0
  -11.0180   -7.6630   -0.7980 C   0  0  0  0  0  0
  -10.3950   -8.2310   -2.0820 C   0  0  0  0  0  0
  -10.7680   -7.3640   -3.2770 C   0  0  0  0  0  0
   -8.8890   -8.3550   -1.9510 C   0  0  0  0  0  0
  -13.1790   -8.7300    1.7100 N   0  0  0  0  0  0
  -14.2260   -8.2780    2.6160 C   0  0  2  0  0  0
  -14.4350   -9.2280    3.8080 C   0  0  0  0  0  0
  -15.5010   -9.2400    4.4260 O   0  0  0  0  0  0
  -15.5380   -8.1060    1.8300 C   0  0  0  0  0  0
  -16.4130   -7.0420    2.4210 C   0  0  0  0  0  0
  -15.9030   -6.0240    2.9000 O   0  0  0  0  0  0
  -17.7330   -7.2730    2.4320 N   0  0  0  0  0  0
  -13.4140  -10.0360    4.0960 N   0  0  0  0  0  0
  -13.4830  -11.0730    5.1240 C   0  0  2  0  0  0
  -13.9470  -10.5200    6.4660 C   0  0  0  0  0  0
  -14.5750  -11.2270    7.2580 O   0  0  0  0  0  0
  -12.1250  -11.7660    5.2950 C   0  0  0  0  0  0
  -11.0170  -10.8180    5.7070 C   0  0  0  0  0  0
  -10.1580  -10.1280    4.8790 C   0  0  0  0  0  0
  -10.6640  -10.4530    7.0440 C   0  0  0  0  0  0
   -9.2940   -9.3740    5.6260 N   0  0  0  0  0  0
   -9.5770   -9.5510    6.9570 C   0  0  0  0  0  0
  -11.1600  -10.8020    8.3110 C   0  0  0  0  0  0
   -8.9840   -8.9750    8.0960 C   0  0  0  0  0  0
  -10.5680  -10.2380    9.4480 C   0  0  0  0  0  0
   -9.4920   -9.3280    9.3290 C   0  0  0  0  0  0
  -13.6300   -9.2580    6.7200 N   0  0  0  0  0  0
  -13.8810   -8.7050    8.0310 C   0  0  2  0  0  0
  -15.3670   -8.4220    8.2800 C   0  0  0  0  0  0
  -15.9310   -8.9120    9.2580 O   0  0  0  0  0  0
  -13.0240   -7.4690    8.2830 C   0  0  0  0  0  0
  -13.2120   -6.8780    9.6510 C   0  0  0  0  0  0
  -12.4590   -7.3310   10.7280 C   0  0  0  0  0  0
  -14.1540   -5.8930    9.8700 C   0  0  0  0  0  0
  -12.6180   -6.7860   11.9960 C   0  0  0  0  0  0
  -14.3290   -5.3510   11.1400 C   0  0  0  0  0  0
  -13.5520   -5.7990   12.2040 C   0  0  0  0  0  0
  -15.9870   -7.6390    7.3950 N   0  0  0  0  0  0
  -17.4210   -7.3990    7.4660 C   0  0  2  0  0  0
  -18.1620   -8.7200    7.2620 C   0  0  0  0  0  0
  -19.1970   -8.9660    7.8900 O   0  0  0  0  0  0
  -17.8710   -6.3590    6.4380 C   0  0  0  0  0  0
  -19.3250   -5.9340    6.6360 C   0  0  0  0  0  0
  -20.0870   -5.7400    5.3120 C   0  0  0  0  0  0
  -19.4640   -5.2580    4.3270 O   0  0  0  0  0  0
  -21.3080   -6.0660    5.2620 O   0  0  0  0  0  0
  -17.5990   -9.5910    6.4270 N   0  0  0  0  0  0
  -18.1790  -10.9230    6.2190 C   0  0  2  0  0  0
  -18.3790  -11.6660    7.5410 C   0  0  0  0  0  0
  -19.5020  -12.0630    7.8720 O   0  0  0  0  0  0
  -17.3450  -11.7510    5.2270 C   0  0  0  0  0  0
  -17.6950  -11.5000    3.7480 C   0  0  0  0  0  0
  -16.6100  -11.9610    2.7580 C   0  0  0  0  0  0
  -15.9420  -13.0040    2.9940 O   0  0  0  0  0  0
  -16.4390  -11.2690    1.7290 O   0  0  0  0  0  0
  -17.3060  -11.8480    8.3040 N   0  0  0  0  0  0
  -17.4000  -12.5260    9.5870 C   0  0  2  0  0  0
  -18.2150  -11.6680   10.5720 C   0  0  0  0  0  0
  -18.9040  -12.1690   11.4510 O   0  0  0  0  0  0
  -16.0080  -12.8080   10.1280 C   0  0  0  0  0  0
  -15.1700  -13.6380    9.1590 C   0  0  0  0  0  0
  -13.6900  -13.4260    9.3860 C   0  0  0  0  0  0
  -15.5310  -15.1120    9.2870 C   0  0  0  0  0  0
  -18.1390  -10.3590   10.4090 N   0  0  0  0  0  0
  -18.9360   -9.4590   11.2270 C   0  0  2  0  0  0
  -20.4410   -9.4910   10.8670 C   0  0  0  0  0  0
  -21.2120   -8.6360   11.3120 O   0  0  0  0  0  0
  -18.3860   -8.0330   11.1010 C   0  0  0  0  0  0
  -17.0650   -7.9730   11.5880 O   0  0  0  0  0  0
  -20.8660  -10.4640   10.0670 N   0  0  0  0  0  0
  -22.2220  -10.4090    9.5110 C   0  0  2  0  0  0
  -23.0270  -11.6780    9.7860 C   0  0  0  0  0  0
  -24.2110  -11.6070   10.1090 O   0  0  0  0  0  0
  -22.1820  -10.1050    8.0050 C   0  0  0  0  0  0
   -5.4553  -23.7502   -3.0652 H   0  0  0  0  0  0
   -5.9478  -24.7101   -4.5014 H   0  0  0  0  0  0
   -7.1575  -24.2972   -3.2393 H   0  0  0  0  0  0
   -5.6563  -22.4446   -5.0113 H   0  0  0  0  0  0
   -7.4423  -23.7951   -6.1591 H   0  0  0  0  0  0
   -7.8947  -22.0579   -6.0943 H   0  0  0  0  0  0
   -8.6414  -23.2237   -4.9498 H   0  0  0  0  0  0
   -6.0037  -22.5632   -2.0455 H   0  0  0  0  0  0
   -7.6969  -21.1876   -0.5487 H   0  0  0  0  0  0
   -6.0565  -20.4630   -0.6513 H   0  0  0  0  0  0
   -9.3257  -17.7928   -3.0123 H   0  0  0  0  0  0
  -11.4866  -17.8093   -0.9354 H   0  0  0  0  0  0
  -11.6545  -18.1697   -2.6872 H   0  0  0  0  0  0
  -11.9267  -20.0625   -0.7110 H   0  0  0  0  0  0
  -11.3822  -20.4332   -2.3822 H   0  0  0  0  0  0
   -9.5293  -21.2885   -1.2317 H   0  0  0  0  0  0
   -9.7375  -20.1587    0.1491 H   0  0  0  0  0  0
   -9.0731  -15.6552   -2.7489 H   0  0  0  0  0  0
   -8.6397  -14.8770    0.1298 H   0  0  0  0  0  0
   -7.8787  -13.4508   -2.4960 H   0  0  0  0  0  0
   -6.1103  -14.2515   -0.1279 H   0  0  0  0  0  0
   -6.3754  -15.2917   -1.5681 H   0  0  0  0  0  0
   -8.7106  -11.7909   -0.8614 H   0  0  0  0  0  0
   -6.9423  -11.6336   -1.1349 H   0  0  0  0  0  0
   -7.5534  -12.4243    0.3578 H   0  0  0  0  0  0
   -4.2646  -14.0379   -1.7421 H   0  0  0  0  0  0
   -5.1562  -12.4872   -1.5777 H   0  0  0  0  0  0
   -5.4214  -13.5273   -3.0180 H   0  0  0  0  0  0
  -10.0112  -13.4079    1.1816 H   0  0  0  0  0  0
  -12.0662  -12.2206   -0.7342 H   0  0  0  0  0  0
  -13.0369  -13.9989    0.7637 H   0  0  0  0  0  0
  -12.5540  -13.0203    2.1905 H   0  0  0  0  0  0
  -14.9535  -12.5203    1.5291 H   0  0  0  0  0  0
  -11.9278  -10.1211   -0.9403 H   0  0  0  0  0  0
  -10.1269   -8.6735    0.9133 H   0  0  0  0  0  0
  -12.0263   -7.3407   -1.0970 H   0  0  0  0  0  0
  -10.4067   -6.7802   -0.5591 H   0  0  0  0  0  0
  -10.7890   -9.2438   -2.2520 H   0  0  0  0  0  0
  -11.8632   -7.2905   -3.3491 H   0  0  0  0  0  0
  -10.3695   -7.8166   -4.1970 H   0  0  0  0  0  0
  -10.3407   -6.3586   -3.1481 H   0  0  0  0  0  0
   -8.6472   -8.9848   -1.0822 H   0  0  0  0  0  0
   -8.4494   -7.3561   -1.8135 H   0  0  0  0  0  0
   -8.4783   -8.8141   -2.8623 H   0  0  0  0  0  0
  -13.2645   -9.7087    1.2152 H   0  0  0  0  0  0
  -13.8562   -7.3183    3.0061 H   0  0  0  0  0  0
  -15.3091   -7.8241    0.7917 H   0  0  0  0  0  0
  -16.0971   -9.0533    1.8380 H   0  0  0  0  0  0
  -18.1332   -8.1977    1.9907 H   0  0  0  0  0  0
  -18.4163   -6.5379    2.8824 H   0  0  0  0  0  0
  -12.4885   -9.8947    3.5186 H   0  0  0  0  0  0
  -14.2383  -11.7765    4.7436 H   0  0  0  0  0  0
  -12.2041  -12.5411    6.0716 H   0  0  0  0  0  0
  -11.8276  -12.2299    4.3430 H   0  0  0  0  0  0
  -10.1656  -10.1758    3.7901 H   0  0  0  0  0  0
  -11.9916  -11.5000    8.4076 H   0  0  0  0  0  0
   -8.1531   -8.2751    8.0071 H   0  0  0  0  0  0
  -10.9412  -10.5037   10.4370 H   0  0  0  0  0  0
   -9.0552   -8.8968   10.2298 H   0  0  0  0  0  0
  -13.1773   -8.6324    5.9366 H   0  0  0  0  0  0
  -13.5651   -9.5124    8.7080 H   0  0  0  0  0  0
  -11.9610   -7.7331    8.1818 H   0  0  0  0  0  0
  -13.2797   -6.6898    7.5498 H   0  0  0  0  0  0
  -11.7311   -8.1277   10.5750 H   0  0  0  0  0  0
  -14.7659   -5.5367    9.0414 H   0  0  0  0  0  0
  -12.0037   -7.1401   12.8239 H   0  0  0  0  0  0
  -15.0762   -4.5740   11.3015 H   0  0  0  0  0  0
  -13.6833   -5.3695   13.1972 H   0  0  0  0  0  0
  -15.3897   -7.1704    6.5990 H   0  0  0  0  0  0
  -17.6087   -6.9966    8.4724 H   0  0  0  0  0  0
  -17.2406   -5.4617    6.5241 H   0  0  0  0  0  0
  -17.7751   -6.7787    5.4257 H   0  0  0  0  0  0
  -19.8564   -6.7037    7.2150 H   0  0  0  0  0  0
  -19.3569   -4.9786    7.1803 H   0  0  0  0  0  0
  -21.8739   -5.9370    4.3276 H   0  0  0  0  0  0
  -16.6851   -9.2989    5.8890 H   0  0  0  0  0  0
  -19.1688  -10.7281    5.7804 H   0  0  0  0  0  0
  -16.2793  -11.5094    5.3529 H   0  0  0  0  0  0
  -17.5033  -12.8224    5.4197 H   0  0  0  0  0  0
  -18.6175  -12.0420    3.4924 H   0  0  0  0  0  0
  -17.8455  -10.4227    3.5845 H   0  0  0  0  0  0
  -15.1669  -13.3327    2.2860 H   0  0  0  0  0  0
  -16.3340  -11.4750    7.9489 H   0  0  0  0  0  0
  -17.9116  -13.4820    9.4017 H   0  0  0  0  0  0
  -15.4839  -11.8572   10.3051 H   0  0  0  0  0  0
  -16.0878  -13.3643   11.0736 H   0  0  0  0  0  0
  -15.3876  -13.3035    8.1339 H   0  0  0  0  0  0
  -13.4537  -12.3561    9.2887 H   0  0  0  0  0  0
  -13.1190  -13.9971    8.6391 H   0  0  0  0  0  0
  -13.4208  -13.7706   10.3953 H   0  0  0  0  0  0
  -16.6103  -15.2412    9.1182 H   0  0  0  0  0  0
  -15.2726  -15.4665   10.2957 H   0  0  0  0  0  0
  -14.9708  -15.6929    8.5395 H   0  0  0  0  0  0
  -17.4623   -9.9522    9.6431 H   0  0  0  0  0  0
  -18.8122   -9.8462   12.2491 H   0  0  0  0  0  0
  -18.3929   -7.7295   10.0437 H   0  0  0  0  0  0
  -19.0151   -7.3445   11.6842 H   0  0  0  0  0  0
  -16.5159   -7.0200   11.5726 H   0  0  0  0  0  0
  -20.2048  -11.3081    9.8216 H   0  0  0  0  0  0
  -22.7006   -9.5830   10.0576 H   0  0  0  0  0  0
  -22.5401  -12.6600    9.6933 H   0  0  0  0  0  0
  -21.5983   -9.1890    7.8312 H   0  0  0  0  0  0
  -23.2071   -9.9628    7.6323 H   0  0  0  0  0  0
  -21.7120  -10.9457    7.4736 H   0  0  0  0  0  0
  1  2  1  0  0  0
  1109  1  0  0  0
  1110  1  0  0  0
  1111  1  0  0  0
  2  3  1  0  0  0
  2  5  1  0  0  0
  2112  1  0  0  0
  3  4  2  0  0  0
  3  6  1  0  0  0
  5113  1  0  0  0
  5114  1  0  0  0
  5115  1  0  0  0
  6  7  1  0  0  0
  6116  1  0  0  0
  7  8  1  0  0  0
  7117  1  0  0  0
  7118  1  0  0  0
  8  9  2  0  0  0
  8 10  1  0  0  0
 10 11  1  0  0  0
 10 16  1  0  0  0
 11 12  1  0  0  0
 11 14  1  0  0  0
 11119  1  0  0  0
 12 13  2  0  0  0
 12 17  1  0  0  0
 14 15  1  0  0  0
 14120  1  0  0  0
 14121  1  0  0  0
 15 16  1  0  0  0
 15122  1  0  0  0
 15123  1  0  0  0
 16124  1  0  0  0
 16125  1  0  0  0
 17 18  1  0  0  0
 17126  1  0  0  0
 18 19  1  0  0  0
 18 21  1  0  0  0
 18127  1  0  0  0
 19 20  2  0  0  0
 19 25  1  0  0  0
 21 22  1  0  0  0
 21 23  1  0  0  0
 21128  1  0  0  0
 22 24  1  0  0  0
 22129  1  0  0  0
 22130  1  0  0  0
 23131  1  0  0  0
 23132  1  0  0  0
 23133  1  0  0  0
 24134  1  0  0  0
 24135  1  0  0  0
 24136  1  0  0  0
 25 26  1  0  0  0
 25137  1  0  0  0
 26 27  1  0  0  0
 26 29  1  0  0  0
 26138  1  0  0  0
 27 28  2  0  0  0
 27 31  1  0  0  0
 29 30  1  0  0  0
 29139  1  0  0  0
 29140  1  0  0  0
 30141  1  0  0  0
 31 32  1  0  0  0
 31142  1  0  0  0
 32 33  1  0  0  0
 32 35  1  0  0  0
 32143  1  0  0  0
 33 34  2  0  0  0
 33 39  1  0  0  0
 35 36  1  0  0  0
 35144  1  0  0  0
 35145  1  0  0  0
 36 37  1  0  0  0
 36 38  1  0  0  0
 36146  1  0  0  0
 37147  1  0  0  0
 37148  1  0  0  0
 37149  1  0  0  0
 38150  1  0  0  0
 38151  1  0  0  0
 38152  1  0  0  0
 39 40  1  0  0  0
 39153  1  0  0  0
 40 41  1  0  0  0
 40 43  1  0  0  0
 40154  1  0  0  0
 41 42  2  0  0  0
 41 47  1  0  0  0
 43 44  1  0  0  0
 43155  1  0  0  0
 43156  1  0  0  0
 44 45  2  0  0  0
 44 46  1  0  0  0
 46157  1  0  0  0
 46158  1  0  0  0
 47 48  1  0  0  0
 47159  1  0  0  0
 48 49  1  0  0  0
 48 51  1  0  0  0
 48160  1  0  0  0
 49 50  2  0  0  0
 49 61  1  0  0  0
 51 52  1  0  0  0
 51161  1  0  0  0
 51162  1  0  0  0
 52 53  2  0  0  0
 52 54  1  0  0  0
 53 55  1  0  0  0
 53163  1  0  0  0
 54 56  2  0  0  0
 54 57  1  0  0  0
 55 56  1  0  0  0
 56 58  1  0  0  0
 57 59  2  0  0  0
 57164  1  0  0  0
 58 60  2  0  0  0
 58165  1  0  0  0
 59 60  1  0  0  0
 59166  1  0  0  0
 60167  1  0  0  0
 61 62  1  0  0  0
 61168  1  0  0  0
 62 63  1  0  0  0
 62 65  1  0  0  0
 62169  1  0  0  0
 63 64  2  0  0  0
 63 72  1  0  0  0
 65 66  1  0  0  0
 65170  1  0  0  0
 65171  1  0  0  0
 66 67  2  0  0  0
 66 68  1  0  0  0
 67 69  1  0  0  0
 67172  1  0  0  0
 68 70  2  0  0  0
 68173  1  0  0  0
 69 71  2  0  0  0
 69174  1  0  0  0
 70 71  1  0  0  0
 70175  1  0  0  0
 71176  1  0  0  0
 72 73  1  0  0  0
 72177  1  0  0  0
 73 74  1  0  0  0
 73 76  1  0  0  0
 73178  1  0  0  0
 74 75  2  0  0  0
 74 81  1  0  0  0
 76 77  1  0  0  0
 76179  1  0  0  0
 76180  1  0  0  0
 77 78  1  0  0  0
 77181  1  0  0  0
 77182  1  0  0  0
 78 79  2  0  0  0
 78 80  1  0  0  0
 80183  1  0  0  0
 81 82  1  0  0  0
 81184  1  0  0  0
 82 83  1  0  0  0
 82 85  1  0  0  0
 82185  1  0  0  0
 83 84  2  0  0  0
 83 90  1  0  0  0
 85 86  1  0  0  0
 85186  1  0  0  0
 85187  1  0  0  0
 86 87  1  0  0  0
 86188  1  0  0  0
 86189  1  0  0  0
 87 88  1  0  0  0
 87 89  2  0  0  0
 88190  1  0  0  0
 90 91  1  0  0  0
 90191  1  0  0  0
 91 92  1  0  0  0
 91 94  1  0  0  0
 91192  1  0  0  0
 92 93  2  0  0  0
 92 98  1  0  0  0
 94 95  1  0  0  0
 94193  1  0  0  0
 94194  1  0  0  0
 95 96  1  0  0  0
 95 97  1  0  0  0
 95195  1  0  0  0
 96196  1  0  0  0
 96197  1  0  0  0
 96198  1  0  0  0
 97199  1  0  0  0
 97200  1  0  0  0
 97201  1  0  0  0
 98 99  1  0  0  0
 98202  1  0  0  0
 99100  1  0  0  0
 99102  1  0  0  0
 99203  1  0  0  0
100101  2  0  0  0
100104  1  0  0  0
102103  1  0  0  0
102204  1  0  0  0
102205  1  0  0  0
103206  1  0  0  0
104105  1  0  0  0
104207  1  0  0  0
105106  1  0  0  0
105108  1  0  0  0
105208  1  0  0  0
106107  2  0  0  0
106209  1  0  0  0
108210  1  0  0  0
108211  1  0  0  0
108212  1  0  0  0
M  CHG  1   1   1
M  END
> <s_m_source_file>
../3eu7_ligand.sdf

> <i_m_source_file_index>
1

> <s_epik_input>
W05IMytdW0NAQEhdKFtDSDNdKUMoPU8pW05IXVtDSDJdQyg9TylOMVtDQEBIXShbQ0gyXVtDSDJdW0NIMl0xKUMoPU8pW05IXVtDQEBIXShbQ0BASF0oW0NIM10pW0NIMl1bQ0gzXSlDKD1PKVtOSF1bQ0BASF0oW0NIMl1bT0hdKUMoPU8pW05IXVtDQEBIXShbQ0gyXVtDSF0oW0NIM10pW0NIM10pQyg9TylbTkhdW0NAQEhdKFtDSDJdQyg9TylbTkgyXSlDKD1PKVtOSF1bQ0BASF0oW0NIMl1jMltjSF1bbkhdYyhjMjMpW2NIXVtjSF1bY0hdW2NIXTMpQyg9TylbTkhdW0NAQEhdKFtDSDJdYzRbY0hdW2NIXVtjSF1bY0hdW2NIXTQpQyg9TylbTkhdW0NAQEhdKFtDSDJdW0NIMl1DKD1PKVtPSF0pQyg9TylbTkhdW0NAQEhdKFtDSDJdW0NIMl1DKD1PKVtPSF0pQyg9TylbTkhdW0NAQEhdKFtDSDJdW0NIXShbQ0gzXSlbQ0gzXSlDKD1PKVtOSF1bQ0BASF0oW0NIMl1bT0hdKUMoPU8pW05IXVtDQEhdKFtDSF09TylbQ0gzXQ==

> <s_epik_cmdline>
J2VwaWtfYXBwJywgJy1pbWFlJywgJ2xpZ2FuZF9wcm8ubWFlJywgJy1vbWFlJywgJ2xpZ2FuZF9wcmVwLm1hZScsICctbXMnLCAnMScsICctcGgnLCAnNycsICctcGh0JywgJzAuNScsICctbnQn

> <s_epik_pKa_notes>
Molecule size exceeds maximum supported for generating protonation states

$$$$
