3evc_ligand
                    3D
 Schrodinger Suite 2020-3.
 40 42  0  0  1  0            999 V2000
   27.9010   30.0440  -39.7580 O   0  5  0  0  0  0
   28.2980   28.4930  -39.9260 P   0  0  0  0  0  0
   29.3070   28.1620  -38.7160 O   0  5  0  0  0  0
   27.1200   27.5970  -39.9510 O   0  0  0  0  0  0
   29.1820   28.4080  -41.2690 O   0  0  0  0  0  0
   28.4870   28.4730  -42.7200 P   0  0  2  0  0  0
   29.4050   29.4650  -43.5940 O   0  5  0  0  0  0
   27.0820   28.9360  -42.6590 O   0  0  0  0  0  0
   28.6500   27.0160  -43.3840 O   0  0  0  0  0  0
   27.6360   26.0250  -43.2270 C   0  0  0  0  0  0
   27.7570   24.9880  -44.3210 C   0  0  1  0  0  0
   27.3640   25.5760  -45.5890 O   0  0  0  0  0  0
   29.1690   24.4780  -44.5600 C   0  0  1  0  0  0
   29.4860   23.4180  -43.6670 O   0  0  0  0  0  0
   29.1130   24.0160  -46.0100 C   0  0  1  0  0  0
   28.5440   22.7290  -46.1510 O   0  0  0  0  0  0
   28.1850   25.0680  -46.6280 C   0  0  2  0  0  0
   28.8810   26.1940  -47.2460 N   0  0  0  0  0  0
   29.6100   27.1740  -46.6120 C   0  0  0  0  0  0
   30.1010   28.0620  -47.4350 N   0  0  0  0  0  0
   29.6760   27.6410  -48.6880 C   0  0  0  0  0  0
   29.8970   28.2060  -49.9730 C   0  0  0  0  0  0
   30.5420   29.2200  -50.2670 O   0  0  0  0  0  0
   29.2770   27.4620  -50.9720 N   0  3  0  0  0  0
   28.5440   26.3180  -50.7670 C   0  0  0  0  0  0
   28.0190   25.7430  -51.8600 N   0  0  0  0  0  0
   28.3380   25.7780  -49.5760 N   0  0  0  0  0  0
   28.9260   26.4880  -48.5900 C   0  0  0  0  0  0
   27.7501   25.5355  -42.2485 H   0  0  0  0  0  0
   26.6460   26.5009  -43.2857 H   0  0  0  0  0  0
   27.0941   24.1649  -44.0161 H   0  0  0  0  0  0
   29.9779   25.1892  -44.3365 H   0  0  0  0  0  0
   29.5592   23.6122  -42.5868 H   0  0  0  0  0  0
   30.0950   23.8613  -46.4809 H   0  0  0  0  0  0
   29.0751   21.8473  -45.7629 H   0  0  0  0  0  0
   27.5700   24.6223  -47.4237 H   0  0  0  0  0  0
   29.7623   27.2061  -45.5332 H   0  0  0  0  0  0
   28.1882   26.1890  -52.8512 H   0  0  0  0  0  0
   27.4195   24.8257  -51.7647 H   0  0  0  0  0  0
   29.3545   27.7792  -52.0224 H   0  0  0  0  0  0
  1  2  1  0  0  0
  2  3  1  0  0  0
  2  4  2  0  0  0
  2  5  1  0  0  0
  5  6  1  0  0  0
  6  7  1  0  0  0
  6  8  2  0  0  0
  6  9  1  0  0  0
  9 10  1  0  0  0
 10 11  1  0  0  0
 10 29  1  0  0  0
 10 30  1  0  0  0
 11 12  1  0  0  0
 11 13  1  0  0  0
 11 31  1  0  0  0
 12 17  1  0  0  0
 13 14  1  0  0  0
 13 15  1  0  0  0
 13 32  1  0  0  0
 14 33  1  0  0  0
 15 16  1  0  0  0
 15 17  1  0  0  0
 15 34  1  0  0  0
 16 35  1  0  0  0
 17 18  1  0  0  0
 17 36  1  0  0  0
 18 19  1  0  0  0
 18 28  1  0  0  0
 19 20  2  0  0  0
 19 37  1  0  0  0
 20 21  1  0  0  0
 21 22  1  0  0  0
 21 28  2  0  0  0
 22 23  2  0  0  0
 22 24  1  0  0  0
 24 25  1  0  0  0
 24 40  1  0  0  0
 25 26  1  0  0  0
 25 27  2  0  0  0
 26 38  1  0  0  0
 26 39  1  0  0  0
 27 28  1  0  0  0
M  CHG  4   1  -1   3  -1   7  -1  24   1
M  END
> <s_m_source_file>
../3evc_ligand.sdf

> <i_m_source_file_index>
1

> <s_epik_input>
W09IXVAoPU8pKFtPSF0pT1tQQEBdKD1PKShbT0hdKU9bQ0gyXVtDQEhdMU9bQ0BIXShbQ0BIXShbT0hdKVtDQEBIXTFbT0hdKW4oW2NIXW4yKWMoYzIzKVtuSF1jKD1OXFtIXSlcW25IXWMzPU8=

> <s_epik_cmdline>
J2VwaWtfYXBwJywgJy1pbWFlJywgJ2xpZ2FuZF9wcm8ubWFlJywgJy1vbWFlJywgJ2xpZ2FuZF9wcmVwLm1hZScsICctbXMnLCAnMScsICctcGgnLCAnNycsICctcGh0JywgJzAuNScsICctbnQn

> <r_epik_Ionization_Penalty>
  2.4918

> <r_epik_Ionization_Penalty_Charging>
  2.4918

> <r_epik_Ionization_Penalty_Neutral>
  0.0000

> <r_epik_State_Penalty>
  0.1302

> <r_epik_Charging_Adjusted_Penalty>
2.62193179535438

> <i_epik_Tot_Q>
-2

> <i_epik_Tot_abs_Q>
4

> <s_epik_Chemistry_Notes>
This compound has an imine and may undergo hydrolysis. This compound contains an acetal/aminal-like group ( X-CH(R)-Y where X, Y are N, S, or O) that may be acid/base labile, releasing an aldehyde.

$$$$
