3evf_ligand
                    3D
 Schrodinger Suite 2020-3.
 40 42  0  0  1  0            999 V2000
   28.7050   25.0730  -51.7510 N   0  0  0  0  0  0
   31.1070   28.6800  -50.2540 O   0  0  0  0  0  0
   30.4680   27.6690  -49.9320 C   0  0  0  0  0  0
   30.2030   27.1680  -48.6310 C   0  0  0  0  0  0
   30.5630   27.6460  -47.3840 N   0  3  0  0  0  0
   31.3560   28.8600  -47.0870 C   0  0  0  0  0  0
   30.0600   26.8130  -46.5200 C   0  0  0  0  0  0
   29.3640   25.7920  -47.1330 N   0  0  0  0  0  0
   29.4630   26.0130  -48.5000 C   0  0  0  0  0  0
   28.9250   25.2430  -49.4670 N   0  0  0  0  0  0
   29.1750   25.7190  -50.6750 C   0  0  0  0  0  0
   29.9010   26.8610  -50.9130 N   0  0  0  0  0  0
   29.8650   23.0910  -43.4800 O   0  0  0  0  0  0
   28.6450   24.6940  -46.4910 C   0  0  1  0  0  0
   29.5500   23.6480  -45.8340 C   0  0  1  0  0  0
   29.5830   24.1440  -44.3940 C   0  0  1  0  0  0
   28.1700   24.6700  -44.1940 C   0  0  1  0  0  0
   28.0400   25.7420  -43.1410 C   0  0  0  0  0  0
   27.8160   25.2410  -45.4820 O   0  0  0  0  0  0
   28.9680   22.3680  -45.9670 O   0  0  0  0  0  0
   28.6640   28.2950  -42.9070 P   0  0  0  0  0  0
   29.3820   29.2700  -43.9680 O   0  5  0  0  0  0
   27.2240   28.6020  -42.7620 O   0  0  0  0  0  0
   29.4730   28.4810  -41.5280 O   0  5  0  0  0  0
   28.9620   26.7950  -43.4090 O   0  0  0  0  0  0
   28.1163   24.1522  -51.6261 H   0  0  0  0  0  0
   28.9079   25.4636  -52.7591 H   0  0  0  0  0  0
   31.6375   29.3536  -48.0289 H   0  0  0  0  0  0
   32.2647   28.5784  -46.5348 H   0  0  0  0  0  0
   30.7551   29.5502  -46.4766 H   0  0  0  0  0  0
   30.1750   26.9105  -45.4405 H   0  0  0  0  0  0
   30.0192   27.1206  -51.9754 H   0  0  0  0  0  0
   30.8491   22.5997  -43.4936 H   0  0  0  0  0  0
   28.0326   24.2326  -47.2798 H   0  0  0  0  0  0
   30.5409   23.4694  -46.2770 H   0  0  0  0  0  0
   30.3916   24.8546  -44.1675 H   0  0  0  0  0  0
   27.4962   23.8598  -43.8785 H   0  0  0  0  0  0
   27.0159   26.1435  -43.1510 H   0  0  0  0  0  0
   28.2557   25.3123  -42.1517 H   0  0  0  0  0  0
   28.8867   21.9012  -46.9597 H   0  0  0  0  0  0
  1 11  1  0  0  0
  1 26  1  0  0  0
  1 27  1  0  0  0
  2  3  2  0  0  0
  3  4  1  0  0  0
  3 12  1  0  0  0
  4  5  1  0  0  0
  4  9  2  0  0  0
  5  6  1  0  0  0
  5  7  2  0  0  0
  6 28  1  0  0  0
  6 29  1  0  0  0
  6 30  1  0  0  0
  7  8  1  0  0  0
  7 31  1  0  0  0
  8  9  1  0  0  0
  8 14  1  0  0  0
  9 10  1  0  0  0
 10 11  2  0  0  0
 11 12  1  0  0  0
 12 32  1  0  0  0
 13 16  1  0  0  0
 13 33  1  0  0  0
 14 15  1  0  0  0
 14 19  1  0  0  0
 14 34  1  0  0  0
 15 16  1  0  0  0
 15 20  1  0  0  0
 15 35  1  0  0  0
 16 17  1  0  0  0
 16 36  1  0  0  0
 17 18  1  0  0  0
 17 19  1  0  0  0
 17 37  1  0  0  0
 18 25  1  0  0  0
 18 38  1  0  0  0
 18 39  1  0  0  0
 20 40  1  0  0  0
 21 22  1  0  0  0
 21 23  2  0  0  0
 21 24  1  0  0  0
 21 25  1  0  0  0
M  CHG  3   5   1  22  -1  24  -1
M  END
> <s_m_source_file>
../3evf_ligand.sdf

> <i_m_source_file_index>
1

> <s_epik_input>
Tz1jMVtuSF1jKFtOSDJdKW5jKGMxMiluKFtjSF1bbitdMltDSDNdKVtDQEhdM1tDQEhdKFtPSF0pW0NASF0oW09IXSlbQ0BIXShPMylbQ0gyXU9QKD1PKShbT0hdKVtPSF0=

> <s_epik_cmdline>
J2VwaWtfYXBwJywgJy1pbWFlJywgJ2xpZ2FuZF9wcm8ubWFlJywgJy1vbWFlJywgJ2xpZ2FuZF9wcmVwLm1hZScsICctbXMnLCAnMScsICctcGgnLCAnNycsICctcGh0JywgJzAuNScsICctbnQn

> <r_lp_tautomer_probability>
0.999967801415809

> <r_epik_Ionization_Penalty>
  0.2408

> <r_epik_Ionization_Penalty_Charging>
  0.2407

> <r_epik_Ionization_Penalty_Neutral>
  0.0000

> <r_epik_State_Penalty>
  0.0000

> <r_epik_Charging_Adjusted_Penalty>
0.240742215855337

> <i_epik_Tot_Q>
-1

> <i_epik_Tot_abs_Q>
3

> <s_epik_Chemistry_Notes>
This compound contains an acetal/aminal-like group ( X-CH(R)-Y where X, Y are N, S, or O) that may be acid/base labile, releasing an aldehyde.

$$$$
