3ew2_ligand
                    3D
 Schrodinger Suite 2020-3.
 31 32  0  0  1  0            999 V2000
    1.3300   83.2500   24.1990 C   0  0  0  0  0  0
    1.1350   84.4600   24.4440 O   0  0  0  0  0  0
    0.8730   82.7640   23.1420 O   0  5  0  0  0  0
    2.1070   82.3880   25.1650 C   0  0  0  0  0  0
    3.2270   83.2100   25.7920 C   0  0  0  0  0  0
    4.5190   83.0680   24.9960 C   0  0  0  0  0  0
    5.6630   83.8120   25.6760 C   0  0  0  0  0  0
    6.7450   84.1840   24.6690 C   0  0  2  0  0  0
    7.4220   82.7940   24.0380 S   0  0  0  0  0  0
    8.9960   83.6350   23.7290 C   0  0  0  0  0  0
    9.1700   84.7920   24.6970 C   0  0  2  0  0  0
    9.9520   84.3590   25.8400 N   0  0  0  0  0  0
    9.2280   84.3340   26.9510 C   0  0  0  0  0  0
    9.7110   83.9420   28.2160 O   0  0  0  0  0  0
    7.9860   84.7280   26.7050 N   0  0  0  0  0  0
    7.8030   85.0800   25.3090 C   0  0  2  0  0  0
    1.4335   82.0236   25.9546 H   0  0  0  0  0  0
    2.5383   81.5312   24.6267 H   0  0  0  0  0  0
    2.9376   84.2711   25.8090 H   0  0  0  0  0  0
    3.4057   82.8622   26.8201 H   0  0  0  0  0  0
    4.7866   82.0039   24.9182 H   0  0  0  0  0  0
    4.3764   83.4848   23.9881 H   0  0  0  0  0  0
    5.2781   84.7332   26.1377 H   0  0  0  0  0  0
    6.1074   83.1711   26.4517 H   0  0  0  0  0  0
    6.2617   84.8250   23.9170 H   0  0  0  0  0  0
    9.8244   82.9240   23.8645 H   0  0  0  0  0  0
    9.0093   84.0215   22.6992 H   0  0  0  0  0  0
    9.6611   85.6344   24.1878 H   0  0  0  0  0  0
   11.0137   84.1005   25.7139 H   0  0  0  0  0  0
    7.1431   84.8075   27.4073 H   0  0  0  0  0  0
    7.4688   86.1234   25.2112 H   0  0  0  0  0  0
  1  2  2  0  0  0
  1  3  1  0  0  0
  1  4  1  0  0  0
  4  5  1  0  0  0
  4 17  1  0  0  0
  4 18  1  0  0  0
  5  6  1  0  0  0
  5 19  1  0  0  0
  5 20  1  0  0  0
  6  7  1  0  0  0
  6 21  1  0  0  0
  6 22  1  0  0  0
  7  8  1  0  0  0
  7 23  1  0  0  0
  7 24  1  0  0  0
  8  9  1  0  0  0
  8 16  1  0  0  0
  8 25  1  0  0  0
  9 10  1  0  0  0
 10 11  1  0  0  0
 10 26  1  0  0  0
 10 27  1  0  0  0
 11 12  1  0  0  0
 11 16  1  0  0  0
 11 28  1  0  0  0
 12 13  1  0  0  0
 12 29  1  0  0  0
 13 14  2  0  0  0
 13 15  1  0  0  0
 15 16  1  0  0  0
 15 30  1  0  0  0
 16 31  1  0  0  0
M  CHG  1   3  -1
M  END
> <s_m_source_file>
../3ew2_ligand.sdf

> <i_m_source_file_index>
1

> <s_epik_input>
Tz1DKFtPSF0pW0NIMl1bQ0gyXVtDSDJdW0NIMl1bQ0BIXShTW0NIMl0xKVtDQEhdKFtDQEhdMTIpW05IXUMoPU8pW05IXTI=

> <s_epik_cmdline>
J2VwaWtfYXBwJywgJy1pbWFlJywgJ2xpZ2FuZF9wcm8ubWFlJywgJy1vbWFlJywgJ2xpZ2FuZF9wcmVwLm1hZScsICctbXMnLCAnMScsICctcGgnLCAnNycsICctcGh0JywgJzAuNScsICctbnQn

> <r_lp_tautomer_probability>
1

> <r_epik_Ionization_Penalty>
  0.0045

> <r_epik_Ionization_Penalty_Charging>
  0.0044

> <r_epik_Ionization_Penalty_Neutral>
  0.0000

> <r_epik_State_Penalty>
 -0.0000

> <r_epik_Charging_Adjusted_Penalty>
0.00443833021372702

> <i_epik_Tot_Q>
-1

> <i_epik_Tot_abs_Q>
1

$$$$
