3ewc_ligand
                    3D
 Schrodinger Suite 2020-3.
 39 41  0  0  1  0            999 V2000
   -8.5720   25.3470  -11.9680 O   0  0  0  0  0  0
   -7.2380   25.2030  -12.5040 C   0  0  2  0  0  0
   -7.0260   23.9890  -13.4160 C   0  0  0  0  0  0
   -7.5600   22.7840  -12.7820 N   0  0  0  0  0  0
   -7.0020   22.1630  -11.7120 C   0  0  0  0  0  0
   -6.1950   22.6390  -10.8310 N   0  0  0  0  0  0
   -5.7160   23.9210  -10.7050 C   0  0  0  0  0  0
   -6.2370   25.0970  -11.4450 C   0  0  0  0  0  0
   -5.5130   26.1050  -10.9690 N   0  0  0  0  0  0
   -4.6640   25.6360  -10.0140 C   0  0  0  0  0  0
   -4.7800   24.3160   -9.8320 N   0  0  0  0  0  0
   -3.9490   23.6200   -8.8190 C   0  0  1  0  0  0
   -4.4260   22.2450   -8.4020 C   0  0  2  0  0  0
   -5.2880   22.4130   -7.2720 O   0  0  0  0  0  0
   -2.5760   23.5090   -9.2240 O   0  0  0  0  0  0
   -2.1300   22.1900   -8.9420 C   0  0  1  0  0  0
   -3.1320   21.5820   -7.9700 C   0  0  1  0  0  0
   -2.9080   21.9950   -6.6060 O   0  0  0  0  0  0
   -1.7430   21.3560  -10.1550 C   0  0  0  0  0  0
   -0.4360   20.2860   -9.6220 S   0  0  0  0  0  0
   -1.0440   18.6650   -9.3520 C   0  0  0  0  0  0
   -9.4313   25.4383  -12.6486 H   0  0  0  0  0  0
   -7.1405   26.1505  -13.0543 H   0  0  0  0  0  0
   -7.5445   24.1536  -14.3720 H   0  0  0  0  0  0
   -5.9503   23.8528  -13.6010 H   0  0  0  0  0  0
   -8.4774   22.3182  -13.1712 H   0  0  0  0  0  0
   -7.3267   21.1138  -11.6506 H   0  0  0  0  0  0
   -3.9678   26.2655   -9.4598 H   0  0  0  0  0  0
   -4.0050   24.3006   -7.9566 H   0  0  0  0  0  0
   -5.0120   21.6777   -9.1401 H   0  0  0  0  0  0
   -6.2759   22.8799   -7.3985 H   0  0  0  0  0  0
   -1.1486   22.3038   -8.4583 H   0  0  0  0  0  0
   -3.0876   20.4832   -7.9439 H   0  0  0  0  0  0
   -3.5646   21.6254   -5.8046 H   0  0  0  0  0  0
   -2.6144   20.7773  -10.4952 H   0  0  0  0  0  0
   -1.4055   22.0203  -10.9642 H   0  0  0  0  0  0
   -0.2204   18.0147   -9.0220 H   0  0  0  0  0  0
   -1.4690   18.2723  -10.2875 H   0  0  0  0  0  0
   -1.8242   18.6904   -8.5770 H   0  0  0  0  0  0
  1  2  1  0  0  0
  1 22  1  0  0  0
  2  3  1  0  0  0
  2  8  1  0  0  0
  2 23  1  0  0  0
  3  4  1  0  0  0
  3 24  1  0  0  0
  3 25  1  0  0  0
  4  5  1  0  0  0
  4 26  1  0  0  0
  5  6  2  0  0  0
  5 27  1  0  0  0
  6  7  1  0  0  0
  7  8  2  0  0  0
  7 11  1  0  0  0
  8  9  1  0  0  0
  9 10  2  0  0  0
 10 11  1  0  0  0
 10 28  1  0  0  0
 11 12  1  0  0  0
 12 13  1  0  0  0
 12 15  1  0  0  0
 12 29  1  0  0  0
 13 14  1  0  0  0
 13 17  1  0  0  0
 13 30  1  0  0  0
 14 31  1  0  0  0
 15 16  1  0  0  0
 16 17  1  0  0  0
 16 19  1  0  0  0
 16 32  1  0  0  0
 17 18  1  0  0  0
 17 33  1  0  0  0
 18 34  1  0  0  0
 19 20  1  0  0  0
 19 35  1  0  0  0
 19 36  1  0  0  0
 20 21  1  0  0  0
 21 37  1  0  0  0
 21 38  1  0  0  0
 21 39  1  0  0  0
M  END
> <s_m_source_file>
../3ewc_ligand.sdf

> <i_m_source_file_index>
1

> <s_epik_input>
TjE9W0NIXVtOSF1bQ0gyXVtDQEBIXShbT0hdKWMoYzEyKW5bY0hdbjJbQ0BIXTNbQ0BIXShbT0hdKVtDQEhdKFtPSF0pW0NASF0oTzMpW0NIMl1TW0NIM10=

> <s_epik_cmdline>
J2VwaWtfYXBwJywgJy1pbWFlJywgJ2xpZ2FuZF9wcm8ubWFlJywgJy1vbWFlJywgJ2xpZ2FuZF9wcmVwLm1hZScsICctbXMnLCAnMScsICctcGgnLCAnNycsICctcGh0JywgJzAuNScsICctbnQn

> <r_lp_tautomer_probability>
1

> <r_epik_Ionization_Penalty>
  0.0273

> <r_epik_Ionization_Penalty_Charging>
  0.0272

> <r_epik_Ionization_Penalty_Neutral>
  0.0001

> <r_epik_State_Penalty>
  0.0222

> <r_epik_Charging_Adjusted_Penalty>
0.0494054384393267

> <i_epik_Tot_Q>
0

> <i_epik_Tot_abs_Q>
0

> <s_epik_Chemistry_Notes>
This compound has an imine and may undergo hydrolysis. This compound contains an acetal/aminal-like group ( X-CH(R)-Y where X, Y are N, S, or O) that may be acid/base labile, releasing an aldehyde.

$$$$
