3ewj_ligand
                    3D
 Schrodinger Suite 2020-3.
 58 63  0  0  1  0            999 V2000
   48.3220   34.1510   39.5790 C   0  0  2  0  0  0
   48.3980   32.6310   39.5670 C   0  0  2  0  0  0
   48.3980   33.4070   38.2620 C   0  0  0  0  0  0
   49.4750   34.9150   40.1700 C   0  0  0  0  0  0
   50.6700   34.3040   39.9480 O   0  5  0  0  0  0
   49.4350   35.9670   40.8560 O   0  0  0  0  0  0
   47.1830   31.8040   39.8720 C   0  0  0  0  0  0
   47.5150   30.6990   40.5540 N   0  0  0  0  0  0
   46.0630   32.1100   39.5240 O   0  0  0  0  0  0
   48.9610   30.6530   40.8380 C   0  0  1  0  0  0
   49.5960   31.7490   39.9430 C   0  0  0  0  0  0
   49.1120   30.9790   42.3220 C   0  0  0  0  0  0
   50.1630   30.4550   43.0890 C   0  0  0  0  0  0
   50.2390   30.7420   44.4530 C   0  0  0  0  0  0
   49.2570   31.5740   45.0810 C   0  0  0  0  0  0
   48.2280   32.1270   44.3000 C   0  0  0  0  0  0
   48.1490   31.8260   42.9370 C   0  0  0  0  0  0
   49.2970   31.8520   46.4360 O   0  0  0  0  0  0
   50.2610   31.1670   47.2500 C   0  0  0  0  0  0
   49.8780   29.6820   47.4790 C   0  0  0  0  0  0
   49.1090   26.9690   47.9050 N   0  0  0  0  0  0
   48.1960   27.9230   47.5620 C   0  0  0  0  0  0
   48.5380   29.3010   47.3140 C   0  0  0  0  0  0
   50.3850   27.3250   48.0150 C   0  0  0  0  0  0
   50.8130   28.6620   47.8330 C   0  0  0  0  0  0
   52.2000   28.9310   48.0070 C   0  0  0  0  0  0
   53.1150   27.9380   48.3400 C   0  0  0  0  0  0
   52.7110   26.6380   48.4990 C   0  0  0  0  0  0
   51.3400   26.3560   48.3600 C   0  0  0  0  0  0
   46.7990   27.5130   47.3460 C   0  0  0  0  0  0
   46.4000   26.1670   47.3220 C   0  0  0  0  0  0
   45.0380   25.8520   47.0900 C   0  0  0  0  0  0
   44.0980   26.8570   46.8400 C   0  0  0  0  0  0
   44.4950   28.1810   46.8370 C   0  0  0  0  0  0
   45.8260   28.5170   47.0930 C   0  0  0  0  0  0
   47.6451   34.9290   39.9618 H   0  0  0  0  0  0
   47.5049   33.6332   37.6610 H   0  0  0  0  0  0
   49.2981   33.7224   37.7141 H   0  0  0  0  0  0
   46.8610   29.8837   40.8968 H   0  0  0  0  0  0
   49.4042   29.6673   40.6332 H   0  0  0  0  0  0
   50.0488   31.3367   39.0293 H   0  0  0  0  0  0
   50.3414   32.3529   40.4813 H   0  0  0  0  0  0
   50.9191   29.8248   42.6208 H   0  0  0  0  0  0
   51.0544   30.3284   45.0464 H   0  0  0  0  0  0
   47.4925   32.7896   44.7562 H   0  0  0  0  0  0
   47.3401   32.2453   42.3387 H   0  0  0  0  0  0
   51.2439   31.1959   46.7570 H   0  0  0  0  0  0
   50.3284   31.6594   48.2313 H   0  0  0  0  0  0
   47.7807   30.0230   47.0084 H   0  0  0  0  0  0
   52.5578   29.9520   47.8745 H   0  0  0  0  0  0
   54.1651   28.1965   48.4761 H   0  0  0  0  0  0
   53.4281   25.8490   48.7256 H   0  0  0  0  0  0
   51.0022   25.3335   48.5287 H   0  0  0  0  0  0
   47.1299   25.3731   47.4801 H   0  0  0  0  0  0
   44.7179   24.8102   47.1066 H   0  0  0  0  0  0
   43.0569   26.5973   46.6484 H   0  0  0  0  0  0
   43.7663   28.9658   46.6340 H   0  0  0  0  0  0
   46.1231   29.5657   47.0988 H   0  0  0  0  0  0
  1  2  1  0  0  0
  1  3  1  0  0  0
  1  4  1  0  0  0
  1 36  1  0  0  0
  2  3  1  0  0  0
  2  7  1  0  0  0
  2 11  1  0  0  0
  3 37  1  0  0  0
  3 38  1  0  0  0
  4  5  1  0  0  0
  4  6  2  0  0  0
  7  8  1  0  0  0
  7  9  2  0  0  0
  8 10  1  0  0  0
  8 39  1  0  0  0
 10 11  1  0  0  0
 10 12  1  0  0  0
 10 40  1  0  0  0
 11 41  1  0  0  0
 11 42  1  0  0  0
 12 13  2  0  0  0
 12 17  1  0  0  0
 13 14  1  0  0  0
 13 43  1  0  0  0
 14 15  2  0  0  0
 14 44  1  0  0  0
 15 16  1  0  0  0
 15 18  1  0  0  0
 16 17  2  0  0  0
 16 45  1  0  0  0
 17 46  1  0  0  0
 18 19  1  0  0  0
 19 20  1  0  0  0
 19 47  1  0  0  0
 19 48  1  0  0  0
 20 23  2  0  0  0
 20 25  1  0  0  0
 21 22  2  0  0  0
 21 24  1  0  0  0
 22 23  1  0  0  0
 22 30  1  0  0  0
 23 49  1  0  0  0
 24 25  2  0  0  0
 24 29  1  0  0  0
 25 26  1  0  0  0
 26 27  2  0  0  0
 26 50  1  0  0  0
 27 28  1  0  0  0
 27 51  1  0  0  0
 28 29  2  0  0  0
 28 52  1  0  0  0
 29 53  1  0  0  0
 30 31  2  0  0  0
 30 35  1  0  0  0
 31 32  1  0  0  0
 31 54  1  0  0  0
 32 33  2  0  0  0
 32 55  1  0  0  0
 33 34  1  0  0  0
 33 56  1  0  0  0
 34 35  2  0  0  0
 34 57  1  0  0  0
 35 58  1  0  0  0
M  CHG  1   5  -1
M  END
> <s_m_source_file>
../3ewj_ligand.sdf

> <i_m_source_file_index>
1

> <s_epik_input>
W09IXUMoPU8pW0NAQEhdKFtDSDJdMSlbQ0BAXTEyQyg9TylbTkhdW0NAQEhdKFtDSDJdMiljM1tjSF1bY0hdYyhbY0hdW2NIXTMpT1tDSDJdYyhjKGM0NSlbY0hdW2NIXVtjSF1bY0hdNSlbY0hdYyhuNCktYzZbY0hdW2NIXVtjSF1bY0hdW2NIXTY=

> <s_epik_cmdline>
J2VwaWtfYXBwJywgJy1pbWFlJywgJ2xpZ2FuZF9wcm8ubWFlJywgJy1vbWFlJywgJ2xpZ2FuZF9wcmVwLm1hZScsICctbXMnLCAnMScsICctcGgnLCAnNycsICctcGh0JywgJzAuNScsICctbnQn

> <r_lp_tautomer_probability>
1

> <r_epik_Ionization_Penalty>
  0.0073

> <r_epik_Ionization_Penalty_Charging>
  0.0060

> <r_epik_Ionization_Penalty_Neutral>
  0.0012

> <r_epik_State_Penalty>
 -0.0000

> <r_epik_Charging_Adjusted_Penalty>
0.00601611725641229

> <i_epik_Tot_Q>
-1

> <i_epik_Tot_abs_Q>
1

$$$$
