3ewu_ligand
                    3D
 Schrodinger Suite 2020-3.
 38 39  0  0  1  0            999 V2000
    4.4410   11.1490   31.6010 O   0  5  0  0  0  0
    3.5780   10.4770   30.5070 P   0  0  0  0  0  0
    2.2250   10.1850   31.1240 O   0  0  0  0  0  0
    3.5680   11.1570   29.1380 O   0  5  0  0  0  0
    4.3240    9.0570   30.4210 O   0  0  0  0  0  0
    4.0340    8.1450   29.3270 C   0  0  0  0  0  0
    4.8590    6.8760   29.5220 C   0  0  2  0  0  0
    6.3120    7.1810   29.1700 C   0  0  1  0  0  0
    7.1450    6.3260   30.0150 O   0  0  0  0  0  0
    6.4340    6.7210   27.7110 C   0  0  1  0  0  0
    7.8070    6.3100   27.5380 O   0  0  0  0  0  0
    4.4240    5.8880   28.5720 O   0  0  0  0  0  0
    5.4140    5.5560   27.6000 C   0  0  1  0  0  0
    4.8350    5.4500   26.2420 N   0  0  0  0  0  0
    5.4510    3.1520   26.1450 C   0  0  0  0  0  0
    4.6200    2.4890   27.2540 C   0  0  0  0  0  0
    4.9010    4.3040   25.5230 C   0  0  0  0  0  0
    4.4080    4.2220   24.2330 C   0  0  0  0  0  0
    3.8230    5.3620   23.7120 C   0  0  0  0  0  0
    3.3660    5.3550   22.5500 O   0  0  0  0  0  0
    3.7730    6.4890   24.4350 N   0  0  0  0  0  0
    4.2470    6.5670   25.6920 C   0  0  0  0  0  0
    4.1890    7.6370   26.3090 O   0  0  0  0  0  0
    2.9618    7.8994   29.3288 H   0  0  0  0  0  0
    4.2993    8.6219   28.3719 H   0  0  0  0  0  0
    4.7279    6.4779   30.5390 H   0  0  0  0  0  0
    6.6314    8.2201   29.3381 H   0  0  0  0  0  0
    7.1892    6.5007   31.1001 H   0  0  0  0  0  0
    6.2788    7.4710   26.9214 H   0  0  0  0  0  0
    8.6153    7.0538   27.5967 H   0  0  0  0  0  0
    5.8112    4.5497   27.7989 H   0  0  0  0  0  0
    6.4196    3.4738   26.5553 H   0  0  0  0  0  0
    5.6188    2.4308   25.3316 H   0  0  0  0  0  0
    5.1613    1.6148   27.6449 H   0  0  0  0  0  0
    3.6514    2.1672   26.8437 H   0  0  0  0  0  0
    4.4523    3.2103   28.0674 H   0  0  0  0  0  0
    4.4774    3.3013   23.6537 H   0  0  0  0  0  0
    3.3311    7.3996   24.0043 H   0  0  0  0  0  0
  1  2  1  0  0  0
  2  3  2  0  0  0
  2  4  1  0  0  0
  2  5  1  0  0  0
  5  6  1  0  0  0
  6  7  1  0  0  0
  6 24  1  0  0  0
  6 25  1  0  0  0
  7  8  1  0  0  0
  7 12  1  0  0  0
  7 26  1  0  0  0
  8  9  1  0  0  0
  8 10  1  0  0  0
  8 27  1  0  0  0
  9 28  1  0  0  0
 10 11  1  0  0  0
 10 13  1  0  0  0
 10 29  1  0  0  0
 11 30  1  0  0  0
 12 13  1  0  0  0
 13 14  1  0  0  0
 13 31  1  0  0  0
 14 17  1  0  0  0
 14 22  1  0  0  0
 15 16  1  0  0  0
 15 17  1  0  0  0
 15 32  1  0  0  0
 15 33  1  0  0  0
 16 34  1  0  0  0
 16 35  1  0  0  0
 16 36  1  0  0  0
 17 18  2  0  0  0
 18 19  1  0  0  0
 18 37  1  0  0  0
 19 20  2  0  0  0
 19 21  1  0  0  0
 21 22  1  0  0  0
 21 38  1  0  0  0
 22 23  2  0  0  0
M  CHG  2   1  -1   4  -1
M  END
> <s_m_source_file>
../3ewu_ligand.sdf

> <i_m_source_file_index>
1

> <s_epik_input>
W09IXVAoPU8pKFtPSF0pT1tDSDJdW0NAQEhdMVtDQEBIXShbT0hdKVtDQEBIXShbT0hdKVtDQEBIXShPMSluMmMoW0NIMl1bQ0gzXSlbY0hdYyg9TylbbkhdYzI9Tw==

> <s_epik_cmdline>
J2VwaWtfYXBwJywgJy1pbWFlJywgJ2xpZ2FuZF9wcm8ubWFlJywgJy1vbWFlJywgJ2xpZ2FuZF9wcmVwLm1hZScsICctbXMnLCAnMScsICctcGgnLCAnNycsICctcGh0JywgJzAuNScsICctbnQn

> <r_lp_tautomer_probability>
0.999537046341301

> <r_epik_Ionization_Penalty>
  0.1068

> <r_epik_Ionization_Penalty_Charging>
  0.1068

> <r_epik_Ionization_Penalty_Neutral>
  0.0000

> <r_epik_State_Penalty>
  0.0955

> <r_epik_Charging_Adjusted_Penalty>
0.202324958215034

> <i_epik_Tot_Q>
-2

> <i_epik_Tot_abs_Q>
2

> <s_epik_Chemistry_Notes>
This compound contains an acetal/aminal-like group ( X-CH(R)-Y where X, Y are N, S, or O) that may be acid/base labile, releasing an aldehyde.

$$$$
