3ewz_ligand
                    3D
 Schrodinger Suite 2020-3.
 32 33  0  0  1  0            999 V2000
   -1.7230   -9.6130   29.7050 O   0  0  0  0  0  0
   -3.0980   -9.9440   29.2130 P   0  0  0  0  0  0
   -3.8840  -10.7570   30.2110 O   0  5  0  0  0  0
   -3.0810  -10.6190   27.8650 O   0  5  0  0  0  0
   -3.9150   -8.5650   29.1770 O   0  0  0  0  0  0
   -3.6570   -7.6480   28.1170 C   0  0  0  0  0  0
   -4.5760   -6.4680   28.4100 C   0  0  1  0  0  0
   -4.2670   -5.3050   27.4950 O   0  0  0  0  0  0
   -6.0730   -6.8100   28.3000 C   0  0  1  0  0  0
   -6.8320   -6.0040   29.2080 O   0  0  0  0  0  0
   -6.2990   -6.3200   26.8750 C   0  0  1  0  0  0
   -7.6610   -5.9890   26.6330 O   0  0  0  0  0  0
   -5.4100   -5.1060   26.6400 C   0  0  2  0  0  0
   -4.9380   -4.8370   25.2850 N   0  0  0  0  0  0
   -4.1890   -5.7700   24.5650 C   0  0  0  0  0  0
   -3.9070   -6.9510   25.1190 O   0  0  0  0  0  0
   -3.7440   -5.5100   23.2960 N   0  0  0  0  0  0
   -4.0090   -4.3320   22.7240 C   0  0  0  0  0  0
   -3.5580   -4.1150   21.5820 O   0  5  0  0  0  0
   -5.2220   -3.6740   24.7020 C   0  0  0  0  0  0
   -4.7620   -3.3990   23.4180 C   0  0  0  0  0  0
   -5.1310   -2.1000   22.9360 C   0  0  0  0  0  0
   -5.4210   -1.0690   22.5290 N   0  0  0  0  0  0
   -2.5960   -7.3583   28.1330 H   0  0  0  0  0  0
   -3.8924   -8.1249   27.1541 H   0  0  0  0  0  0
   -4.3635   -6.1844   29.4513 H   0  0  0  0  0  0
   -6.3923   -7.8316   28.5538 H   0  0  0  0  0  0
   -6.7951   -6.2090   30.2881 H   0  0  0  0  0  0
   -6.1103   -7.1261   26.1507 H   0  0  0  0  0  0
   -8.4429   -6.7528   26.7562 H   0  0  0  0  0  0
   -5.9884   -4.1945   26.8511 H   0  0  0  0  0  0
   -5.8185   -2.9329   25.2339 H   0  0  0  0  0  0
  1  2  2  0  0  0
  2  3  1  0  0  0
  2  4  1  0  0  0
  2  5  1  0  0  0
  5  6  1  0  0  0
  6  7  1  0  0  0
  6 24  1  0  0  0
  6 25  1  0  0  0
  7  8  1  0  0  0
  7  9  1  0  0  0
  7 26  1  0  0  0
  8 13  1  0  0  0
  9 10  1  0  0  0
  9 11  1  0  0  0
  9 27  1  0  0  0
 10 28  1  0  0  0
 11 12  1  0  0  0
 11 13  1  0  0  0
 11 29  1  0  0  0
 12 30  1  0  0  0
 13 14  1  0  0  0
 13 31  1  0  0  0
 14 15  1  0  0  0
 14 20  1  0  0  0
 15 16  2  0  0  0
 15 17  1  0  0  0
 17 18  2  0  0  0
 18 19  1  0  0  0
 18 21  1  0  0  0
 20 21  2  0  0  0
 20 32  1  0  0  0
 21 22  1  0  0  0
 22 23  3  0  0  0
M  CHG  3   3  -1   4  -1  19  -1
M  END
> <s_m_source_file>
../3ewz_ligand.sdf

> <i_m_source_file_index>
1

> <s_epik_input>
Tz1QKFtPSF0pKFtPSF0pT1tDSDJdW0NASF0xT1tDQEhdKFtDQEhdKFtPSF0pW0NAQEhdMVtPSF0pbjJjKD1PKVtuSF1jKD1PKWMoW2NIXTIpQyNO

> <s_epik_cmdline>
J2VwaWtfYXBwJywgJy1pbWFlJywgJ2xpZ2FuZF9wcm8ubWFlJywgJy1vbWFlJywgJ2xpZ2FuZF9wcmVwLm1hZScsICctbXMnLCAnMScsICctcGgnLCAnNycsICctcGh0JywgJzAuNScsICctbnQn

> <r_lp_tautomer_probability>
1

> <r_epik_Ionization_Penalty>
  0.2450

> <r_epik_Ionization_Penalty_Charging>
  0.1017

> <r_epik_Ionization_Penalty_Neutral>
  0.1433

> <r_epik_State_Penalty>
 -0.0000

> <r_epik_Charging_Adjusted_Penalty>
0.101717672752106

> <i_epik_Tot_Q>
-3

> <i_epik_Tot_abs_Q>
3

> <s_epik_Chemistry_Notes>
This compound contains an acetal/aminal-like group ( X-CH(R)-Y where X, Y are N, S, or O) that may be acid/base labile, releasing an aldehyde.

$$$$
