3ex3_ligand
                    3D
 Schrodinger Suite 2020-3.
 32 33  0  0  1  0            999 V2000
    5.2610    7.9310   25.9600 N   0  0  0  0  0  0
    4.4150    8.8730   25.4940 C   0  0  0  0  0  0
    3.8210    8.7070   24.2910 N   0  0  0  0  0  0
    3.9250    7.5570   23.5900 C   0  0  0  0  0  0
    4.8030    6.5710   24.0840 C   0  0  0  0  0  0
    5.4680    6.7710   25.3010 C   0  0  0  0  0  0
    4.2600    9.9510   26.0770 O   0  0  0  0  0  0
    3.2650    7.4480   22.4660 O   0  0  0  0  0  0
    5.8260    8.0840   27.3170 C   0  0  1  0  0  0
    6.7290    9.2630   27.5500 C   0  0  2  0  0  0
    8.0640    8.8270   27.4220 O   0  0  0  0  0  0
    6.3830    9.5860   29.0190 C   0  0  1  0  0  0
    4.8910    9.3060   29.1230 C   0  0  2  0  0  0
    7.1540    8.8690   30.0840 O   0  0  0  0  0  0
    4.6420    8.2800   28.0690 O   0  0  0  0  0  0
    4.0790   10.6200   28.9110 C   0  0  0  0  0  0
    4.3130   11.4020   30.1080 O   0  0  0  0  0  0
    3.5480   12.8280   30.2290 P   0  0  0  0  0  0
    2.1640   12.5540   30.7950 O   0  5  0  0  0  0
    3.4760   13.5600   28.9000 O   0  5  0  0  0  0
    4.3910   13.5850   31.2330 O   0  0  0  0  0  0
    3.2294    9.5240   23.8523 H   0  0  0  0  0  0
    4.9646    5.6529   23.5192 H   0  0  0  0  0  0
    6.1352    6.0097   25.7052 H   0  0  0  0  0  0
    6.4334    7.2067   27.5841 H   0  0  0  0  0  0
    6.6735   10.0969   26.8348 H   0  0  0  0  0  0
    8.4622    8.5578   26.4326 H   0  0  0  0  0  0
    6.6767   10.6197   29.2539 H   0  0  0  0  0  0
    4.5840    8.9015   30.0988 H   0  0  0  0  0  0
    8.2476    8.9748   30.1369 H   0  0  0  0  0  0
    4.4447   11.1358   28.0109 H   0  0  0  0  0  0
    3.0135   10.3766   28.7867 H   0  0  0  0  0  0
  1  2  1  0  0  0
  1  6  1  0  0  0
  1  9  1  0  0  0
  2  3  1  0  0  0
  2  7  2  0  0  0
  3  4  1  0  0  0
  3 22  1  0  0  0
  4  5  1  0  0  0
  4  8  2  0  0  0
  5  6  2  0  0  0
  5 23  1  0  0  0
  6 24  1  0  0  0
  9 10  1  0  0  0
  9 15  1  0  0  0
  9 25  1  0  0  0
 10 11  1  0  0  0
 10 12  1  0  0  0
 10 26  1  0  0  0
 11 27  1  0  0  0
 12 13  1  0  0  0
 12 14  1  0  0  0
 12 28  1  0  0  0
 13 15  1  0  0  0
 13 16  1  0  0  0
 13 29  1  0  0  0
 14 30  1  0  0  0
 16 17  1  0  0  0
 16 31  1  0  0  0
 16 32  1  0  0  0
 17 18  1  0  0  0
 18 19  1  0  0  0
 18 20  1  0  0  0
 18 21  2  0  0  0
M  CHG  2  19  -1  20  -1
M  END
> <s_m_source_file>
../3ex3_ligand.sdf

> <i_m_source_file_index>
1

> <s_epik_input>
W2NIXTFbY0hdYyg9TylbbkhdYyg9TyluMVtDQEhdMltDQEhdKFtPSF0pW0NASF0oW09IXSlbQ0BIXShPMilbQ0gyXU9QKD1PKShbT0hdKVtPSF0=

> <s_epik_cmdline>
J2VwaWtfYXBwJywgJy1pbWFlJywgJ2xpZ2FuZF9wcm8ubWFlJywgJy1vbWFlJywgJ2xpZ2FuZF9wcmVwLm1hZScsICctbXMnLCAnMScsICctcGgnLCAnNycsICctcGh0JywgJzAuNScsICctbnQn

> <r_lp_tautomer_probability>
0.999537046341301

> <r_epik_Ionization_Penalty>
  0.1082

> <r_epik_Ionization_Penalty_Charging>
  0.1082

> <r_epik_Ionization_Penalty_Neutral>
  0.0000

> <r_epik_State_Penalty>
  0.0955

> <r_epik_Charging_Adjusted_Penalty>
0.203721441546161

> <i_epik_Tot_Q>
-2

> <i_epik_Tot_abs_Q>
2

> <s_epik_Chemistry_Notes>
This compound contains an acetal/aminal-like group ( X-CH(R)-Y where X, Y are N, S, or O) that may be acid/base labile, releasing an aldehyde.

$$$$
