3ex6_ligand
                    3D
 Schrodinger Suite 2020-3.
 32 33  0  0  1  0            999 V2000
   21.0760   -5.1290   14.1590 N   0  0  0  0  0  0
   20.7830   -6.0370   13.1200 C   0  0  0  0  0  0
   19.9380   -5.6700   12.1480 N   0  0  0  0  0  0
   19.3870   -4.4560   12.1750 C   0  0  0  0  0  0
   19.6790   -3.5440   13.1610 C   0  0  0  0  0  0
   20.5820   -3.9290   14.1170 C   0  0  0  0  0  0
   21.2770   -7.1720   13.1030 O   0  0  0  0  0  0
   18.6730   -4.1650   11.2710 O   0  0  0  0  0  0
   22.0880   -5.4670   15.1940 C   0  0  1  0  0  0
   21.8750   -6.7070   16.0510 C   0  0  2  0  0  0
   21.2760   -6.2440   17.2780 O   0  0  0  0  0  0
   23.3270   -7.1630   16.2670 C   0  0  1  0  0  0
   24.0110   -6.8730   14.9220 C   0  0  2  0  0  0
   23.9490   -6.4020   17.3370 O   0  0  0  0  0  0
   23.3020   -5.7120   14.4440 O   0  0  0  0  0  0
   23.9060   -8.0760   13.9580 C   0  0  0  0  0  0
   24.8500   -8.9780   14.5500 O   0  0  0  0  0  0
   25.1720  -10.3880   13.7920 P   0  0  0  0  0  0
   26.2050   -9.9850   12.7500 O   0  5  0  0  0  0
   23.9040  -10.9100   13.2230 O   0  0  0  0  0  0
   25.7490  -11.2280   14.8980 O   0  5  0  0  0  0
   19.7013   -6.3688   11.3322 H   0  0  0  0  0  0
   19.2132   -2.5588   13.1815 H   0  0  0  0  0  0
   20.8961   -3.2035   14.8674 H   0  0  0  0  0  0
   22.0962   -4.6119   15.8859 H   0  0  0  0  0  0
   21.2019   -7.4944   15.6810 H   0  0  0  0  0  0
   20.2364   -5.8846   17.2811 H   0  0  0  0  0  0
   23.4279   -8.2045   16.6063 H   0  0  0  0  0  0
   25.0828   -6.6355   14.9914 H   0  0  0  0  0  0
   23.5758   -6.4959   18.3675 H   0  0  0  0  0  0
   22.8738   -8.4563   13.9574 H   0  0  0  0  0  0
   24.1796   -7.7564   12.9416 H   0  0  0  0  0  0
  1  2  1  0  0  0
  1  6  1  0  0  0
  1  9  1  0  0  0
  2  3  1  0  0  0
  2  7  2  0  0  0
  3  4  1  0  0  0
  3 22  1  0  0  0
  4  5  1  0  0  0
  4  8  2  0  0  0
  5  6  2  0  0  0
  5 23  1  0  0  0
  6 24  1  0  0  0
  9 10  1  0  0  0
  9 15  1  0  0  0
  9 25  1  0  0  0
 10 11  1  0  0  0
 10 12  1  0  0  0
 10 26  1  0  0  0
 11 27  1  0  0  0
 12 13  1  0  0  0
 12 14  1  0  0  0
 12 28  1  0  0  0
 13 15  1  0  0  0
 13 16  1  0  0  0
 13 29  1  0  0  0
 14 30  1  0  0  0
 16 17  1  0  0  0
 16 31  1  0  0  0
 16 32  1  0  0  0
 17 18  1  0  0  0
 18 19  1  0  0  0
 18 20  2  0  0  0
 18 21  1  0  0  0
M  CHG  2  19  -1  21  -1
M  END
> <s_m_source_file>
../3ex6_ligand.sdf

> <i_m_source_file_index>
1

> <s_epik_input>
W2NIXTFbY0hdYyg9TylbbkhdYyg9TyluMVtDQEhdMltDQEhdKFtPSF0pW0NASF0oW09IXSlbQ0BIXShPMilbQ0gyXU9QKD1PKShbT0hdKVtPSF0=

> <s_epik_cmdline>
J2VwaWtfYXBwJywgJy1pbWFlJywgJ2xpZ2FuZF9wcm8ubWFlJywgJy1vbWFlJywgJ2xpZ2FuZF9wcmVwLm1hZScsICctbXMnLCAnMScsICctcGgnLCAnNycsICctcGh0JywgJzAuNScsICctbnQn

> <r_lp_tautomer_probability>
0.999537046341301

> <r_epik_Ionization_Penalty>
  0.1082

> <r_epik_Ionization_Penalty_Charging>
  0.1082

> <r_epik_Ionization_Penalty_Neutral>
  0.0000

> <r_epik_State_Penalty>
  0.0955

> <r_epik_Charging_Adjusted_Penalty>
0.203721441546161

> <i_epik_Tot_Q>
-2

> <i_epik_Tot_abs_Q>
2

> <s_epik_Chemistry_Notes>
This compound contains an acetal/aminal-like group ( X-CH(R)-Y where X, Y are N, S, or O) that may be acid/base labile, releasing an aldehyde.

$$$$
