3exf_ligand
                    3D
 Schrodinger Suite 2020-3.
 42 43  0  0  1  0            999 V2000
  -14.6010   -2.3310   -6.6860 N   0  0  0  0  0  0
  -15.1920   -2.4600   -7.9250 C   0  0  0  0  0  0
  -16.0820   -3.6090   -8.2100 C   0  0  0  0  0  0
  -14.9940   -1.5550   -8.9210 N   0  0  0  0  0  0
  -14.1650   -0.4830   -8.6830 C   0  0  0  0  0  0
  -13.9830    0.4110   -9.6730 N   0  0  0  0  0  0
  -13.5670   -0.3510   -7.4150 C   0  0  0  0  0  0
  -13.7860   -1.2720   -6.4250 C   0  0  0  0  0  0
  -12.6380    0.7790   -7.0830 C   0  0  0  0  0  0
  -11.4280    0.4920   -7.8110 N   0  3  0  0  0  0
  -11.1540    1.0830   -9.0280 C   0  0  0  0  0  0
   -9.7660    0.6080   -9.6790 S   0  0  0  0  0  0
   -9.4470   -0.3770   -8.4380 C   0  0  0  0  0  0
  -10.4350   -0.3640   -7.4530 C   0  0  0  0  0  0
  -10.3760   -1.1810   -6.2030 C   0  0  0  0  0  0
   -8.1350   -1.1350   -8.5130 C   0  0  0  0  0  0
   -7.9540   -2.2350   -9.5550 C   0  0  0  0  0  0
   -6.5480   -2.4540   -9.6790 O   0  0  0  0  0  0
   -5.8580   -3.4270  -10.7850 P   0  0  2  0  0  0
   -6.7200   -4.6130  -11.0810 O   0  0  0  0  0  0
   -4.4680   -3.8120  -10.3720 O   0  5  0  0  0  0
   -5.9560   -2.5820  -12.1550 O   0  0  0  0  0  0
   -4.9580   -1.3750  -12.5350 P   0  0  0  0  0  0
   -3.6010   -1.6930  -11.9530 O   0  5  0  0  0  0
   -5.0170   -1.1610  -14.0350 O   0  5  0  0  0  0
   -5.4030   -0.0790  -11.9280 O   0  0  0  0  0  0
  -16.1473   -4.2518   -7.3198 H   0  0  0  0  0  0
  -15.6746   -4.1884   -9.0516 H   0  0  0  0  0  0
  -17.0851   -3.2401   -8.4703 H   0  0  0  0  0  0
  -14.4734    0.2614  -10.6462 H   0  0  0  0  0  0
  -13.3439    1.2911   -9.5087 H   0  0  0  0  0  0
  -13.3170   -1.1593   -5.4475 H   0  0  0  0  0  0
  -13.0886    1.7301   -7.4028 H   0  0  0  0  0  0
  -12.4630    0.8029   -5.9973 H   0  0  0  0  0  0
  -11.8184    1.8050   -9.5027 H   0  0  0  0  0  0
  -11.2736   -0.9891   -5.5969 H   0  0  0  0  0  0
   -9.4795   -0.9067   -5.6277 H   0  0  0  0  0  0
  -10.3314   -2.2485   -6.4645 H   0  0  0  0  0  0
   -7.3161   -0.4308   -8.7216 H   0  0  0  0  0  0
   -7.9484   -1.6407   -7.5541 H   0  0  0  0  0  0
   -8.4644   -3.1486   -9.2161 H   0  0  0  0  0  0
   -8.3854   -1.9077  -10.5125 H   0  0  0  0  0  0
  1  2  2  0  0  0
  1  8  1  0  0  0
  2  3  1  0  0  0
  2  4  1  0  0  0
  3 27  1  0  0  0
  3 28  1  0  0  0
  3 29  1  0  0  0
  4  5  2  0  0  0
  5  6  1  0  0  0
  5  7  1  0  0  0
  6 30  1  0  0  0
  6 31  1  0  0  0
  7  8  2  0  0  0
  7  9  1  0  0  0
  8 32  1  0  0  0
  9 10  1  0  0  0
  9 33  1  0  0  0
  9 34  1  0  0  0
 10 11  2  0  0  0
 10 14  1  0  0  0
 11 12  1  0  0  0
 11 35  1  0  0  0
 12 13  1  0  0  0
 13 14  2  0  0  0
 13 16  1  0  0  0
 14 15  1  0  0  0
 15 36  1  0  0  0
 15 37  1  0  0  0
 15 38  1  0  0  0
 16 17  1  0  0  0
 16 39  1  0  0  0
 16 40  1  0  0  0
 17 18  1  0  0  0
 17 41  1  0  0  0
 17 42  1  0  0  0
 18 19  1  0  0  0
 19 20  2  0  0  0
 19 21  1  0  0  0
 19 22  1  0  0  0
 22 23  1  0  0  0
 23 24  1  0  0  0
 23 25  1  0  0  0
 23 26  2  0  0  0
M  CHG  4  10   1  21  -1  24  -1  25  -1
M  END
> <s_m_source_file>
../3exf_ligand.sdf

> <i_m_source_file_index>
1

> <s_epik_input>
W0NIM11jMW5bY0hdYyhjKG4xKVtOSDJdKVtDSDJdW24rXTJbY0hdc2MoYzJbQ0gzXSlbQ0gyXVtDSDJdT1tQQF0oPU8pKFtPSF0pT1AoPU8pKFtPSF0pW09IXQ==

> <s_epik_cmdline>
J2VwaWtfYXBwJywgJy1pbWFlJywgJ2xpZ2FuZF9wcm8ubWFlJywgJy1vbWFlJywgJ2xpZ2FuZF9wcmVwLm1hZScsICctbXMnLCAnMScsICctcGgnLCAnNycsICctcGh0JywgJzAuNScsICctbnQn

> <r_lp_tautomer_probability>
1

> <r_epik_Ionization_Penalty>
  0.1081

> <r_epik_Ionization_Penalty_Charging>
  0.0846

> <r_epik_Ionization_Penalty_Neutral>
  0.0235

> <r_epik_State_Penalty>
 -0.0000

> <r_epik_Charging_Adjusted_Penalty>
0.0846133443195182

> <i_epik_Tot_Q>
-2

> <i_epik_Tot_abs_Q>
4

$$$$
