3eyd_ligand
                    3D
 Schrodinger Suite 2020-3.
100102  0  0  1  0            999 V2000
  192.3460  -10.3250   48.9470 C   0  0  0  0  0  0
  189.5460  -10.9270   50.9630 C   0  0  0  0  0  0
  188.6720  -12.0960   51.4340 C   0  0  0  0  0  0
  188.6370   -9.6750   50.9820 C   0  0  0  0  0  0
  190.7020  -10.7260   51.9890 C   0  0  0  0  0  0
  190.3280  -13.4880   47.1650 C   0  0  0  0  0  0
  192.9460  -11.3560   49.2780 O   0  0  0  0  0  0
  190.1620  -11.2790   49.5250 C   0  0  0  0  0  0
  188.4130  -11.5150   44.8980 C   0  0  0  0  0  0
  189.0850  -11.7050   48.5170 C   0  0  0  0  0  0
  191.0190  -10.2200   48.9740 N   0  0  0  0  0  0
  189.6520  -12.1900   47.2450 N   0  0  0  0  0  0
  189.7590  -11.1500   45.9620 S   0  0  0  0  0  0
  189.5940   -9.7950   46.4720 O   0  0  0  0  0  0
  191.0370  -11.4130   45.3510 O   0  0  0  0  0  0
  192.9760   -9.2770   48.4360 N   0  0  0  0  0  0
  194.4300   -9.2280   48.3830 C   0  0  0  0  0  0
  194.9460   -8.7800   47.0240 C   0  0  0  0  0  0
  196.4700   -8.6010   47.1110 C   0  0  0  0  0  0
  194.5860   -9.9040   46.0410 C   0  0  0  0  0  0
  194.2990   -7.4580   46.5600 C   0  0  0  0  0  0
  194.9030   -8.3530   49.5460 C   0  0  0  0  0  0
  194.4650   -7.2090   49.6840 O   0  0  0  0  0  0
  195.7320   -8.9080   50.4420 N   0  0  0  0  0  0
  196.1550  -10.3140   50.4990 C   0  0  0  0  0  0
  196.2370   -8.1490   51.5880 C   0  0  0  0  0  0
  196.6680   -9.1340   52.6290 C   0  0  0  0  0  0
  196.9310  -10.3390   51.7920 C   0  0  0  0  0  0
  196.0340  -10.4630   53.0310 C   0  0  0  0  0  0
  196.5970  -11.1770   54.2340 C   0  0  0  0  0  0
  194.5340  -10.6110   52.8730 C   0  0  0  0  0  0
  197.1920   -7.0320   51.1850 C   0  0  0  0  0  0
  198.0330   -7.2210   50.3050 O   0  0  0  0  0  0
  197.0650   -5.8800   51.8410 N   0  0  0  0  0  0
  197.9050   -4.7220   51.5450 C   0  0  0  0  0  0
  198.8620   -4.0780   52.6850 B   0  0  0  0  0  0
  197.1470   -3.7020   50.6780 C   0  0  0  0  0  0
  196.4430   -4.2600   49.4010 C   0  0  0  0  0  0
  197.2130   -4.2310   48.0560 C   0  0  0  0  0  0
  195.3010   -3.4630   48.7610 C   0  0  0  0  0  0
  196.0200   -3.5080   47.3940 C   0  0  0  0  0  0
  199.5140   -2.9590   52.1940 O   0  0  0  0  0  0
  199.7900   -5.0740   53.0380 O   0  0  0  0  0  0
  188.2460  -11.8610   52.4206 H   0  0  0  0  0  0
  189.2853  -13.0062   51.5068 H   0  0  0  0  0  0
  187.8579  -12.2591   50.7124 H   0  0  0  0  0  0
  188.2612   -9.5102   52.0026 H   0  0  0  0  0  0
  187.7884   -9.8276   50.2990 H   0  0  0  0  0  0
  189.2152   -8.7971   50.6579 H   0  0  0  0  0  0
  190.2790  -10.4846   52.9753 H   0  0  0  0  0  0
  191.3489   -9.9012   51.6556 H   0  0  0  0  0  0
  191.2939  -11.6504   52.0602 H   0  0  0  0  0  0
  190.1556  -14.0491   48.0953 H   0  0  0  0  0  0
  191.4079  -13.3311   47.0262 H   0  0  0  0  0  0
  189.9278  -14.0579   46.3135 H   0  0  0  0  0  0
  190.8707  -12.1140   49.6276 H   0  0  0  0  0  0
  187.4671  -11.2960   45.4150 H   0  0  0  0  0  0
  188.4421  -12.5794   44.6219 H   0  0  0  0  0  0
  188.4858  -10.8985   43.9899 H   0  0  0  0  0  0
  188.4813  -12.5178   48.9471 H   0  0  0  0  0  0
  188.4356  -10.8468   48.2896 H   0  0  0  0  0  0
  190.5675   -9.3036   48.5662 H   0  0  0  0  0  0
  192.3828   -8.4357   48.0482 H   0  0  0  0  0  0
  194.8051  -10.2556   48.4983 H   0  0  0  0  0  0
  196.9315   -9.5431   47.4417 H   0  0  0  0  0  0
  196.7050   -7.8045   47.8324 H   0  0  0  0  0  0
  196.8641   -8.3273   46.1212 H   0  0  0  0  0  0
  195.0485  -10.8447   46.3744 H   0  0  0  0  0  0
  194.9585   -9.6474   45.0383 H   0  0  0  0  0  0
  193.4932  -10.0248   46.0064 H   0  0  0  0  0  0
  194.5586   -6.6552   47.2658 H   0  0  0  0  0  0
  193.2060   -7.5769   46.5258 H   0  0  0  0  0  0
  194.6713   -7.1996   45.5577 H   0  0  0  0  0  0
  195.2675  -10.9637   50.5105 H   0  0  0  0  0  0
  196.7694  -10.5481   49.6171 H   0  0  0  0  0  0
  195.4258   -7.5717   52.0557 H   0  0  0  0  0  0
  197.0541   -8.3883   53.3396 H   0  0  0  0  0  0
  197.8322  -10.8538   51.4275 H   0  0  0  0  0  0
  197.6851  -11.0213   54.2768 H   0  0  0  0  0  0
  196.3834  -12.2532   54.1548 H   0  0  0  0  0  0
  196.1332  -10.7773   55.1479 H   0  0  0  0  0  0
  194.2040  -10.0643   51.9773 H   0  0  0  0  0  0
  194.0296  -10.2001   53.7600 H   0  0  0  0  0  0
  194.2798  -11.6760   52.7670 H   0  0  0  0  0  0
  196.2983   -5.8167   52.6272 H   0  0  0  0  0  0
  198.8030   -5.0569   51.0051 H   0  0  0  0  0  0
  198.2024   -4.2419   52.4890 H   0  0  0  0  0  0
  196.3539   -3.2298   51.2763 H   0  0  0  0  0  0
  197.8466   -2.9310   50.3228 H   0  0  0  0  0  0
  196.2133   -5.2177   49.8909 H   0  0  0  0  0  0
  198.1527   -3.6736   48.1834 H   0  0  0  0  0  0
  197.4373   -5.2604   47.7396 H   0  0  0  0  0  0
  194.3595   -4.0218   48.8672 H   0  0  0  0  0  0
  195.2077   -2.4886   49.2628 H   0  0  0  0  0  0
  196.3637   -2.5598   46.9549 H   0  0  0  0  0  0
  195.5972   -4.1460   46.6039 H   0  0  0  0  0  0
  200.0172   -3.1991   51.4248 H   0  0  0  0  0  0
  200.0172   -3.1991   51.4248 H   0  0  0  0  0  0
  199.3265   -5.8330   53.3722 H   0  0  0  0  0  0
  199.3265   -5.8329   53.3722 H   0  0  0  0  0  0
  1  7  2  0  0  0
  1 11  1  0  0  0
  1 16  1  0  0  0
  2  3  1  0  0  0
  2  4  1  0  0  0
  2  5  1  0  0  0
  2  8  1  0  0  0
  3 44  1  0  0  0
  3 45  1  0  0  0
  3 46  1  0  0  0
  4 47  1  0  0  0
  4 48  1  0  0  0
  4 49  1  0  0  0
  5 50  1  0  0  0
  5 51  1  0  0  0
  5 52  1  0  0  0
  6 12  1  0  0  0
  6 53  1  0  0  0
  6 54  1  0  0  0
  6 55  1  0  0  0
  8 10  1  0  0  0
  8 11  1  0  0  0
  8 56  1  0  0  0
  9 13  1  0  0  0
  9 57  1  0  0  0
  9 58  1  0  0  0
  9 59  1  0  0  0
 10 12  1  0  0  0
 10 60  1  0  0  0
 10 61  1  0  0  0
 11 62  1  0  0  0
 12 13  1  0  0  0
 13 14  2  0  0  0
 13 15  2  0  0  0
 16 17  1  0  0  0
 16 63  1  0  0  0
 17 18  1  0  0  0
 17 22  1  0  0  0
 17 64  1  0  0  0
 18 19  1  0  0  0
 18 20  1  0  0  0
 18 21  1  0  0  0
 19 65  1  0  0  0
 19 66  1  0  0  0
 19 67  1  0  0  0
 20 68  1  0  0  0
 20 69  1  0  0  0
 20 70  1  0  0  0
 21 71  1  0  0  0
 21 72  1  0  0  0
 21 73  1  0  0  0
 22 23  2  0  0  0
 22 24  1  0  0  0
 24 25  1  0  0  0
 24 26  1  0  0  0
 25 28  1  0  0  0
 25 74  1  0  0  0
 25 75  1  0  0  0
 26 27  1  0  0  0
 26 32  1  0  0  0
 26 76  1  0  0  0
 27 28  1  0  0  0
 27 29  1  0  0  0
 27 77  1  0  0  0
 28 29  1  0  0  0
 28 78  1  0  0  0
 29 30  1  0  0  0
 29 31  1  0  0  0
 30 79  1  0  0  0
 30 80  1  0  0  0
 30 81  1  0  0  0
 31 82  1  0  0  0
 31 83  1  0  0  0
 31 84  1  0  0  0
 32 33  2  0  0  0
 32 34  1  0  0  0
 34 35  1  0  0  0
 34 85  1  0  0  0
 35 36  1  0  0  0
 35 37  1  0  0  0
 35 86  1  0  0  0
 35 87  1  0  0  0
 36 42  1  0  0  0
 36 43  1  0  0  0
 37 38  1  0  0  0
 37 88  1  0  0  0
 37 89  1  0  0  0
 38 39  1  0  0  0
 38 40  1  0  0  0
 38 90  1  0  0  0
 39 41  1  0  0  0
 39 91  1  0  0  0
 39 92  1  0  0  0
 40 41  1  0  0  0
 40 93  1  0  0  0
 40 94  1  0  0  0
 41 95  1  0  0  0
 41 96  1  0  0  0
 42 97  1  0  0  0
 42 98  1  0  0  0
 43 99  1  0  0  0
 43100  1  0  0  0
M  END
> <MOLECULAR_FORMULA>
C29H57N5O7SB

> <MOLECULAR_WEIGHT>
630.2

> <NUM_HB_ATOMS>
10

> <NUM_ROTOR>
10

> <XLOGP2>
2.76

> <s_m_source_file>
../3eyd_ligand.sdf

> <i_m_source_file_index>
1

> <s_epik_input>
W0NIM11TKD1PKSg9TylOKFtDSDNdKVtDSDJdW0NIXShDKFtDSDNdKShbQ0gzXSlbQ0gzXSlbTkhdQyg9TylbTkhdW0NIXShDKFtDSDNdKShbQ0gzXSlbQ0gzXSlDKD1PKU4oW0NIMl1bQ0hdKFtDSF0xMilDMihbQ0gzXSlbQ0gzXSlbQ0hdMUMoPU8pW05IXVtDSDJdKEIoW09IMl0pW09IMl0pW0NIMl1bQ0hdM1tDSDJdW0NIMl1bQ0gyXTM=

> <s_epik_cmdline>
J2VwaWtfYXBwJywgJy1pbWFlJywgJ2xpZ2FuZF9wcm8ubWFlJywgJy1vbWFlJywgJ2xpZ2FuZF9wcmVwLm1hZScsICctbXMnLCAnMScsICctcGgnLCAnNycsICctcGh0JywgJzAuNScsICctbnQn

> <r_lp_tautomer_probability>
1

> <r_epik_Ionization_Penalty>
  0.0000

> <r_epik_Ionization_Penalty_Charging>
  0.0000

> <r_epik_Ionization_Penalty_Neutral>
  0.0000

> <r_epik_State_Penalty>
 -0.0000

> <r_epik_Charging_Adjusted_Penalty>
0

> <i_epik_Tot_Q>
0

> <i_epik_Tot_abs_Q>
0

$$$$
