3eyf_ligand
                    3D
 Schrodinger Suite 2020-3.
163164  0  0  1  0            999 V2000
  -23.6550   22.2350   -4.4690 N   0  3  0  0  0  0
  -22.7900   23.4430   -4.6230 C   0  0  2  0  0  0
  -22.3240   23.8360   -3.2520 C   0  0  0  0  0  0
  -23.1100   24.1290   -2.3230 O   0  0  0  0  0  0
  -23.4190   24.5720   -5.3850 C   0  0  2  0  0  0
  -22.5130   25.6880   -5.3890 O   0  0  0  0  0  0
  -24.7640   24.9370   -4.7840 C   0  0  0  0  0  0
  -21.0200   24.0620   -3.2670 N   0  0  0  0  0  0
  -20.2580   24.1470   -2.0750 C   0  0  2  0  0  0
  -18.8630   24.6770   -2.5000 C   0  0  0  0  0  0
  -18.1890   24.1160   -3.3640 O   0  0  0  0  0  0
  -20.2970   22.6410   -1.6680 C   0  0  2  0  0  0
  -19.7470   22.3810   -0.3360 C   0  0  0  0  0  0
  -19.6700   21.7280   -2.7940 C   0  0  0  0  0  0
  -18.4040   21.8010   -0.5300 C   0  0  0  0  0  0
  -18.4100   25.7120   -1.8170 N   0  0  0  0  0  0
  -17.1750   26.3940   -2.1560 C   0  0  2  0  0  0
  -15.9510   25.9470   -1.4010 C   0  0  0  0  0  0
  -16.0500   25.4260   -0.2880 O   0  0  0  0  0  0
  -17.4180   27.8930   -2.0090 C   0  0  0  0  0  0
  -18.6440   28.3190   -2.7880 C   0  0  0  0  0  0
  -18.5250   28.7340   -4.1280 C   0  0  0  0  0  0
  -19.9460   28.2400   -2.2200 C   0  0  0  0  0  0
  -19.6670   29.0630   -4.8960 C   0  0  0  0  0  0
  -21.1110   28.5690   -2.9890 C   0  0  0  0  0  0
  -20.9510   28.9820   -4.3260 C   0  0  0  0  0  0
  -22.0200   29.3430   -5.0970 O   0  0  0  0  0  0
  -14.7890   26.2050   -1.9950 N   0  0  0  0  0  0
  -13.5170   25.8140   -1.4030 C   0  0  2  0  0  0
  -13.2320   26.5780   -0.1180 C   0  0  0  0  0  0
  -13.6980   27.7050    0.0320 O   0  0  0  0  0  0
  -12.3790   26.0200   -2.4120 C   0  0  0  0  0  0
  -12.4830   25.0920   -3.6400 C   0  0  0  0  0  0
  -13.5480   24.5340   -3.9510 O   0  0  0  0  0  0
  -11.3700   24.9470   -4.3530 N   0  0  0  0  0  0
  -12.5600   25.9350    0.8420 N   0  0  0  0  0  0
  -12.2340   26.6220    2.0870 C   0  0  2  0  0  0
  -11.0020   27.4860    2.0130 C   0  0  0  0  0  0
  -10.0000   27.1790    1.3510 O   0  0  0  0  0  0
  -12.2220   25.7550    3.3850 C   0  0  2  0  0  0
  -10.8990   25.3180    3.6930 O   0  0  0  0  0  0
  -13.1720   24.5830    3.2880 C   0  0  0  0  0  0
  -11.1640   28.6450    2.6320 N   0  0  0  0  0  0
  -10.1350   29.6630    2.6600 C   0  0  2  0  0  0
   -9.7660   30.0390    4.0880 C   0  0  0  0  0  0
   -8.7630   30.7030    4.2980 O   0  0  0  0  0  0
  -10.5530   30.9130    1.8110 C   0  0  2  0  0  0
  -11.6030   31.6270    2.4690 O   0  0  0  0  0  0
  -11.0500   30.5060    0.3950 C   0  0  0  0  0  0
  -10.6600   29.7640    5.0360 N   0  0  0  0  0  0
  -10.3500   29.9690    6.4460 C   0  0  2  0  0  0
  -10.9740   28.9470    7.3450 C   0  0  0  0  0  0
  -12.0350   28.3690    7.0800 O   0  0  0  0  0  0
  -10.4700   31.3940    6.9850 C   0  0  0  0  0  0
   -9.3170   31.6240    7.9930 C   0  0  0  0  0  0
   -8.0470   32.1290    7.3550 C   0  0  0  0  0  0
   -9.7730   32.5540    9.0300 C   0  0  0  0  0  0
  -10.1670   28.6670    8.3590 N   0  0  0  0  0  0
  -10.3630   27.6530    9.3530 C   0  0  2  0  0  0
  -10.1430   28.1080   10.7810 C   0  0  0  0  0  0
   -9.3430   28.9940   11.0500 O   0  0  0  0  0  0
   -9.3470   26.5690    9.0540 C   0  0  0  0  0  0
   -9.6850   25.6750    7.9180 C   0  0  0  0  0  0
   -8.9450   24.4100    8.1700 C   0  0  0  0  0  0
   -9.5060   23.2740    7.3770 C   0  0  0  0  0  0
   -8.4030   22.6620    6.5870 N   0  3  0  0  0  0
  -10.7330   27.3540   11.7020 N   0  0  0  0  0  0
  -10.6390   27.6570   13.1190 C   0  0  2  0  0  0
  -10.5520   26.4080   14.0080 C   0  0  0  0  0  0
  -10.8110   26.4710   15.2160 O   0  0  0  0  0  0
  -11.8240   28.5480   13.5170 C   0  0  0  0  0  0
  -13.1990   27.9860   13.2190 C   0  0  0  0  0  0
  -13.8160   28.1870   11.9670 C   0  0  0  0  0  0
  -13.9050   27.2670   14.2000 C   0  0  0  0  0  0
  -15.1060   27.6740   11.7060 C   0  0  0  0  0  0
  -15.1800   26.7570   13.9530 C   0  0  0  0  0  0
  -15.7690   26.9530   12.7080 C   0  0  0  0  0  0
  -16.9690   26.3620   12.4310 O   0  0  0  0  0  0
  -10.2090   25.2720   13.4040 N   0  0  0  0  0  0
  -23.1122   21.4654   -3.9006 H   0  0  0  0  0  0
  -23.9155   21.8415   -5.4626 H   0  0  0  0  0  0
  -24.5743   22.5086   -3.9304 H   0  0  0  0  0  0
  -21.9321   23.1810   -5.2597 H   0  0  0  0  0  0
  -23.5665   24.2987   -6.4402 H   0  0  0  0  0  0
  -21.4978   25.5708   -5.7960 H   0  0  0  0  0  0
  -25.4240   24.0572   -4.8008 H   0  0  0  0  0  0
  -25.2196   25.7484   -5.3706 H   0  0  0  0  0  0
  -24.6231   25.2700   -3.7451 H   0  0  0  0  0  0
  -20.5290   24.1852   -4.2436 H   0  0  0  0  0  0
  -20.6389   24.8274   -1.2991 H   0  0  0  0  0  0
  -21.3447   22.3541   -1.4948 H   0  0  0  0  0  0
  -19.6856   23.3247    0.2259 H   0  0  0  0  0  0
  -20.4009   21.6771    0.1997 H   0  0  0  0  0  0
  -20.1268   21.9758   -3.7635 H   0  0  0  0  0  0
  -19.8616   20.6709   -2.5578 H   0  0  0  0  0  0
  -18.5850   21.9015   -2.8448 H   0  0  0  0  0  0
  -17.9512   21.5888    0.4498 H   0  0  0  0  0  0
  -17.7722   22.5147   -1.0791 H   0  0  0  0  0  0
  -18.4875   20.8672   -1.1053 H   0  0  0  0  0  0
  -19.0097   26.0536   -0.9604 H   0  0  0  0  0  0
  -16.9633   26.0856   -3.1904 H   0  0  0  0  0  0
  -17.5705   28.1373   -0.9474 H   0  0  0  0  0  0
  -16.5464   28.4449   -2.3908 H   0  0  0  0  0  0
  -17.5363   28.8031   -4.5816 H   0  0  0  0  0  0
  -20.0600   27.9241   -1.1830 H   0  0  0  0  0  0
  -19.5517   29.3802   -5.9324 H   0  0  0  0  0  0
  -22.1045   28.5005   -2.5458 H   0  0  0  0  0  0
  -21.8645   29.6614   -6.1384 H   0  0  0  0  0  0
  -14.8076   26.7300   -2.9615 H   0  0  0  0  0  0
  -13.6352   24.7487   -1.1557 H   0  0  0  0  0  0
  -12.3955   27.0577   -2.7765 H   0  0  0  0  0  0
  -11.4145   25.8185   -1.9231 H   0  0  0  0  0  0
  -10.4473   25.4592   -4.0426 H   0  0  0  0  0  0
  -11.3720   24.3149   -5.2532 H   0  0  0  0  0  0
  -12.2528   24.8891    0.6942 H   0  0  0  0  0  0
  -13.1132   27.2828    2.1071 H   0  0  0  0  0  0
  -12.5130   26.3531    4.2612 H   0  0  0  0  0  0
  -10.0875   26.0531    3.7981 H   0  0  0  0  0  0
  -14.1819   24.9484    3.0502 H   0  0  0  0  0  0
  -13.1926   24.0472    4.2485 H   0  0  0  0  0  0
  -12.8327   23.9007    2.4947 H   0  0  0  0  0  0
  -12.1249   28.8202    3.1379 H   0  0  0  0  0  0
   -9.2597   29.1693    2.2126 H   0  0  0  0  0  0
   -9.7104   31.6168    1.7431 H   0  0  0  0  0  0
  -11.4538   32.0065    3.4906 H   0  0  0  0  0  0
  -10.2549   29.9546   -0.1282 H   0  0  0  0  0  0
  -11.3071   31.4097   -0.1771 H   0  0  0  0  0  0
  -11.9396   29.8659    0.4886 H   0  0  0  0  0  0
  -11.6460   29.3761    4.7404 H   0  0  0  0  0  0
   -9.2693   29.7660    6.4173 H   0  0  0  0  0  0
  -10.3943   32.1086    6.1522 H   0  0  0  0  0  0
  -11.4418   31.5161    7.4856 H   0  0  0  0  0  0
   -9.0491   30.6718    8.4742 H   0  0  0  0  0  0
   -7.7190   31.4204    6.5802 H   0  0  0  0  0  0
   -7.2637   32.2226    8.1216 H   0  0  0  0  0  0
   -8.2322   33.1123    6.8979 H   0  0  0  0  0  0
  -10.6987   32.1712    9.4844 H   0  0  0  0  0  0
   -9.9655   33.5392    8.5801 H   0  0  0  0  0  0
   -8.9970   32.6495    9.8038 H   0  0  0  0  0  0
   -9.2725   29.3063    8.3944 H   0  0  0  0  0  0
  -11.4209   27.3686    9.2533 H   0  0  0  0  0  0
   -8.3793   27.0310    8.8090 H   0  0  0  0  0  0
   -9.2314   25.9215    9.9357 H   0  0  0  0  0  0
  -10.7717   25.5058    7.8953 H   0  0  0  0  0  0
   -9.3672   26.1440    6.9751 H   0  0  0  0  0  0
   -7.8895   24.5404    7.8890 H   0  0  0  0  0  0
   -9.0111   24.1529    9.2375 H   0  0  0  0  0  0
   -9.9381   22.5280    8.0602 H   0  0  0  0  0  0
  -10.2889   23.6496    6.7017 H   0  0  0  0  0  0
   -8.7975   21.8225    5.9958 H   0  0  0  0  0  0
   -7.6228   22.2948    7.2700 H   0  0  0  0  0  0
   -7.9735   23.4164    5.9114 H   0  0  0  0  0  0
  -11.3058   26.4779   11.3637 H   0  0  0  0  0  0
   -9.6814   28.1880   13.2234 H   0  0  0  0  0  0
  -11.7955   28.7334   14.6009 H   0  0  0  0  0  0
  -11.7596   29.5055   12.9794 H   0  0  0  0  0  0
  -13.2912   28.7449   11.1914 H   0  0  0  0  0  0
  -13.4459   27.1045   15.1751 H   0  0  0  0  0  0
  -15.5795   27.8369   10.7378 H   0  0  0  0  0  0
  -15.7113   26.2084   14.7307 H   0  0  0  0  0  0
  -17.4421   26.5115   11.4492 H   0  0  0  0  0  0
   -9.9879   25.2670   12.3265 H   0  0  0  0  0  0
  -10.1468   24.3385   13.9826 H   0  0  0  0  0  0
  1  2  1  0  0  0
  1 80  1  0  0  0
  1 81  1  0  0  0
  1 82  1  0  0  0
  2  3  1  0  0  0
  2  5  1  0  0  0
  2 83  1  0  0  0
  3  4  2  0  0  0
  3  8  1  0  0  0
  5  6  1  0  0  0
  5  7  1  0  0  0
  5 84  1  0  0  0
  6 85  1  0  0  0
  7 86  1  0  0  0
  7 87  1  0  0  0
  7 88  1  0  0  0
  8  9  1  0  0  0
  8 89  1  0  0  0
  9 10  1  0  0  0
  9 12  1  0  0  0
  9 90  1  0  0  0
 10 11  2  0  0  0
 10 16  1  0  0  0
 12 13  1  0  0  0
 12 14  1  0  0  0
 12 91  1  0  0  0
 13 15  1  0  0  0
 13 92  1  0  0  0
 13 93  1  0  0  0
 14 94  1  0  0  0
 14 95  1  0  0  0
 14 96  1  0  0  0
 15 97  1  0  0  0
 15 98  1  0  0  0
 15 99  1  0  0  0
 16 17  1  0  0  0
 16100  1  0  0  0
 17 18  1  0  0  0
 17 20  1  0  0  0
 17101  1  0  0  0
 18 19  2  0  0  0
 18 28  1  0  0  0
 20 21  1  0  0  0
 20102  1  0  0  0
 20103  1  0  0  0
 21 22  2  0  0  0
 21 23  1  0  0  0
 22 24  1  0  0  0
 22104  1  0  0  0
 23 25  2  0  0  0
 23105  1  0  0  0
 24 26  2  0  0  0
 24106  1  0  0  0
 25 26  1  0  0  0
 25107  1  0  0  0
 26 27  1  0  0  0
 27108  1  0  0  0
 28 29  1  0  0  0
 28109  1  0  0  0
 29 30  1  0  0  0
 29 32  1  0  0  0
 29110  1  0  0  0
 30 31  2  0  0  0
 30 36  1  0  0  0
 32 33  1  0  0  0
 32111  1  0  0  0
 32112  1  0  0  0
 33 34  2  0  0  0
 33 35  1  0  0  0
 35113  1  0  0  0
 35114  1  0  0  0
 36 37  1  0  0  0
 36115  1  0  0  0
 37 38  1  0  0  0
 37 40  1  0  0  0
 37116  1  0  0  0
 38 39  2  0  0  0
 38 43  1  0  0  0
 40 41  1  0  0  0
 40 42  1  0  0  0
 40117  1  0  0  0
 41118  1  0  0  0
 42119  1  0  0  0
 42120  1  0  0  0
 42121  1  0  0  0
 43 44  1  0  0  0
 43122  1  0  0  0
 44 45  1  0  0  0
 44 47  1  0  0  0
 44123  1  0  0  0
 45 46  2  0  0  0
 45 50  1  0  0  0
 47 48  1  0  0  0
 47 49  1  0  0  0
 47124  1  0  0  0
 48125  1  0  0  0
 49126  1  0  0  0
 49127  1  0  0  0
 49128  1  0  0  0
 50 51  1  0  0  0
 50129  1  0  0  0
 51 52  1  0  0  0
 51 54  1  0  0  0
 51130  1  0  0  0
 52 53  2  0  0  0
 52 58  1  0  0  0
 54 55  1  0  0  0
 54131  1  0  0  0
 54132  1  0  0  0
 55 56  1  0  0  0
 55 57  1  0  0  0
 55133  1  0  0  0
 56134  1  0  0  0
 56135  1  0  0  0
 56136  1  0  0  0
 57137  1  0  0  0
 57138  1  0  0  0
 57139  1  0  0  0
 58 59  1  0  0  0
 58140  1  0  0  0
 59 60  1  0  0  0
 59 62  1  0  0  0
 59141  1  0  0  0
 60 61  2  0  0  0
 60 67  1  0  0  0
 62 63  1  0  0  0
 62142  1  0  0  0
 62143  1  0  0  0
 63 64  1  0  0  0
 63144  1  0  0  0
 63145  1  0  0  0
 64 65  1  0  0  0
 64146  1  0  0  0
 64147  1  0  0  0
 65 66  1  0  0  0
 65148  1  0  0  0
 65149  1  0  0  0
 66150  1  0  0  0
 66151  1  0  0  0
 66152  1  0  0  0
 67 68  1  0  0  0
 67153  1  0  0  0
 68 69  1  0  0  0
 68 71  1  0  0  0
 68154  1  0  0  0
 69 70  2  0  0  0
 69 79  1  0  0  0
 71 72  1  0  0  0
 71155  1  0  0  0
 71156  1  0  0  0
 72 73  2  0  0  0
 72 74  1  0  0  0
 73 75  1  0  0  0
 73157  1  0  0  0
 74 76  2  0  0  0
 74158  1  0  0  0
 75 77  2  0  0  0
 75159  1  0  0  0
 76 77  1  0  0  0
 76160  1  0  0  0
 77 78  1  0  0  0
 78161  1  0  0  0
 79162  1  0  0  0
 79163  1  0  0  0
M  CHG  2   1   1  66   1
M  END
> <s_m_source_file>
../3eyf_ligand.sdf

> <i_m_source_file_index>
1

> <s_epik_input>
W09IXVtDQEhdKFtDSDNdKVtDQEhdKFtOSDMrXSlDKD1PKVtOSF1bQ0BASF0oW0NAQEhdKFtDSDNdKVtDSDJdW0NIM10pQyg9TylbTkhdW0NAQEhdKFtDSDJdYzFbY0hdW2NIXWMoW09IXSlbY0hdW2NIXTEpQyg9TylbTkhdW0NAQEhdKFtDSDJdQyg9TylbTkgyXSlDKD1PKVtOSF1bQ0BASF0oW0NASF0oW09IXSlbQ0gzXSlDKD1PKVtOSF1bQ0BASF0oW0NASF0oW09IXSlbQ0gzXSlDKD1PKVtOSF1bQ0BASF0oW0NIMl1bQ0hdKFtDSDNdKVtDSDNdKUMoPU8pW05IXVtDQEBIXShbQ0gyXVtDSDJdW0NIMl1bQ0gyXVtOSDMrXSlDKD1PKVtOSF1bQ0BIXShDKD1PKVtOSDJdKVtDSDJdYzJbY0hdW2NIXWMoW09IXSlbY0hdW2NIXTI=

> <s_epik_cmdline>
J2VwaWtfYXBwJywgJy1pbWFlJywgJ2xpZ2FuZF9wcm8ubWFlJywgJy1vbWFlJywgJ2xpZ2FuZF9wcmVwLm1hZScsICctbXMnLCAnMScsICctcGgnLCAnNycsICctcGh0JywgJzAuNScsICctbnQn

> <s_epik_pKa_notes>
Molecule size exceeds maximum supported for generating protonation states

$$$$
