3eyh_ligand
                    3D
 Schrodinger Suite 2020-3.
 39 42  0  0  1  0            999 V2000
    9.0710  -15.8700  -10.7010 O   0  0  0  0  0  0
   10.0600  -15.2630  -11.1630 C   0  0  0  0  0  0
   11.0020  -14.7310  -10.3350 N   0  0  0  0  0  0
   12.0870  -14.0540  -10.7930 C   0  0  0  0  0  0
   12.3000  -13.8740  -12.1640 C   0  0  0  0  0  0
   11.3690  -14.3870  -13.0810 C   0  0  0  0  0  0
   11.5460  -14.2140  -14.4560 C   0  0  0  0  0  0
   10.2320  -15.0720  -12.6260 C   0  0  0  0  0  0
    9.2630  -15.6220  -13.6180 C   0  0  0  0  0  0
    8.1200  -16.3010  -13.2550 C   0  0  0  0  0  0
    7.2790  -16.7340  -14.2550 C   0  0  0  0  0  0
    6.0970  -17.4650  -13.8310 F   0  0  0  0  0  0
    7.5740  -16.5210  -15.6080 C   0  0  0  0  0  0
    8.6520  -15.8620  -15.9380 C   0  0  0  0  0  0
    9.5020  -15.4120  -15.0660 C   0  0  0  0  0  0
   10.6560  -14.6980  -15.4090 C   0  0  0  0  0  0
   11.1070  -14.3510  -16.6500 N   0  3  0  0  0  0
   12.2640  -13.7000  -16.3920 C   0  0  0  0  0  0
   12.5660  -13.5720  -15.0800 N   0  0  0  0  0  0
   13.1360  -13.1100  -17.4830 C   0  0  0  0  0  0
   12.8300  -13.7360  -18.8490 C   0  0  0  0  0  0
   14.6290  -13.2270  -17.2200 C   0  0  0  0  0  0
   12.7910  -11.6220  -17.5200 C   0  0  0  0  0  0
   12.8154  -13.6369  -10.0821 H   0  0  0  0  0  0
   12.3393  -12.7984  -12.3908 H   0  0  0  0  0  0
   13.2516  -14.3445  -12.4521 H   0  0  0  0  0  0
    7.8887  -16.4896  -12.2067 H   0  0  0  0  0  0
    6.9073  -16.9033  -16.3810 H   0  0  0  0  0  0
    8.8473  -15.6813  -16.9950 H   0  0  0  0  0  0
   13.0776  -14.8075  -18.8250 H   0  0  0  0  0  0
   13.4316  -13.2379  -19.6236 H   0  0  0  0  0  0
   11.7614  -13.6116  -19.0782 H   0  0  0  0  0  0
   14.9133  -14.2891  -17.1868 H   0  0  0  0  0  0
   14.8700  -12.7527  -16.2572 H   0  0  0  0  0  0
   15.1837  -12.7239  -18.0257 H   0  0  0  0  0  0
   11.7143  -11.4999  -17.7091 H   0  0  0  0  0  0
   13.3621  -11.1331  -18.3230 H   0  0  0  0  0  0
   13.0483  -11.1619  -16.5546 H   0  0  0  0  0  0
   10.5258  -14.6249  -17.5429 H   0  0  0  0  0  0
  1  2  2  0  0  0
  2  3  1  0  0  0
  2  8  1  0  0  0
  3  4  2  0  0  0
  4  5  1  0  0  0
  4 24  1  0  0  0
  5  6  1  0  0  0
  5 25  1  0  0  0
  5 26  1  0  0  0
  6  7  2  0  0  0
  6  8  1  0  0  0
  7 16  1  0  0  0
  7 19  1  0  0  0
  8  9  2  0  0  0
  9 10  1  0  0  0
  9 15  1  0  0  0
 10 11  2  0  0  0
 10 27  1  0  0  0
 11 12  1  0  0  0
 11 13  1  0  0  0
 13 14  2  0  0  0
 13 28  1  0  0  0
 14 15  1  0  0  0
 14 29  1  0  0  0
 15 16  2  0  0  0
 16 17  1  0  0  0
 17 18  1  0  0  0
 17 39  1  0  0  0
 18 19  2  0  0  0
 18 20  1  0  0  0
 20 21  1  0  0  0
 20 22  1  0  0  0
 20 23  1  0  0  0
 21 30  1  0  0  0
 21 31  1  0  0  0
 21 32  1  0  0  0
 22 33  1  0  0  0
 22 34  1  0  0  0
 22 35  1  0  0  0
 23 36  1  0  0  0
 23 37  1  0  0  0
 23 38  1  0  0  0
M  CHG  1  17   1
M  END
> <s_m_source_file>
../3eyh_ligand.sdf

> <i_m_source_file_index>
1

> <s_epik_input>
W0NIMl0xW0NIXT1OQyg9TyljMmMoW2NIXWMoRilbY0hdW2NIXTMpYzNjKGM0YzEyKVtuSF1jKG40KUMoW0NIM10pKFtDSDNdKVtDSDNd

> <s_epik_cmdline>
J2VwaWtfYXBwJywgJy1pbWFlJywgJ2xpZ2FuZF9wcm8ubWFlJywgJy1vbWFlJywgJ2xpZ2FuZF9wcmVwLm1hZScsICctbXMnLCAnMScsICctcGgnLCAnNycsICctcGh0JywgJzAuNScsICctbnQn

> <r_epik_Ionization_Penalty>
  0.0000

> <r_epik_Ionization_Penalty_Charging>
  0.0000

> <r_epik_Ionization_Penalty_Neutral>
  0.0000

> <r_epik_State_Penalty>
  0.0017

> <r_epik_Charging_Adjusted_Penalty>
0.00171970211728229

> <i_epik_Tot_Q>
1

> <i_epik_Tot_abs_Q>
1

> <s_epik_Chemistry_Notes>
This compound has an imine and may undergo hydrolysis.

$$$$
