3eyl_ligand
                    3D
 Schrodinger Suite 2020-3.
 78 81  0  0  1  0            999 V2000
   29.7810   -6.7240    7.5700 C   0  0  0  0  0  0
   29.3600   -5.4400    6.8680 C   0  0  0  0  0  0
   29.4730   -4.2460    7.8160 C   0  0  2  0  0  0
   28.8600   -3.0550    7.2100 N   0  3  0  0  0  0
   30.9470   -3.9980    8.0950 C   0  0  0  0  0  0
   31.7320   -3.7090    7.1960 O   0  0  0  0  0  0
   31.3150   -4.1290    9.3530 N   0  0  0  0  0  0
   32.7270   -3.9300    9.6930 C   0  0  2  0  0  0
   33.2140   -5.0750   10.6070 C   0  0  0  0  0  0
   32.4000   -5.9010   11.0150 O   0  0  0  0  0  0
   34.4890   -5.2500   10.9430 N   0  0  0  0  0  0
   33.0110   -2.4850   10.1940 C   0  0  1  0  0  0
   32.3330   -2.1190   11.5250 C   0  0  0  0  0  0
   31.9520   -0.6300   11.5590 C   0  0  0  0  0  0
   30.6900   -0.4170   10.8370 N   0  3  0  0  0  0
   34.5290   -2.1540   10.2070 C   0  0  0  0  0  0
   35.3860   -3.0150   11.1510 C   0  0  0  0  0  0
   35.6330   -4.4080   10.5670 C   0  0  1  0  0  0
   36.8530   -5.0280   11.2430 C   0  0  0  0  0  0
   36.4310   -6.4500   11.5890 C   0  0  0  0  0  0
   34.9180   -6.3650   11.7920 C   0  0  1  0  0  0
   34.5450   -6.0950   13.2540 C   0  0  0  0  0  0
   34.4250   -4.9520   13.6900 O   0  0  0  0  0  0
   34.3570   -7.1860   13.9830 N   0  0  0  0  0  0
   33.9730   -7.1100   15.3960 C   0  0  0  0  0  0
   35.1340   -6.5940   16.2620 C   0  0  0  0  0  0
   34.8440   -5.8200   17.3890 C   0  0  0  0  0  0
   35.8710   -5.3260   18.1940 C   0  0  0  0  0  0
   37.1950   -5.6060   17.8620 C   0  0  0  0  0  0
   37.4890   -6.3750   16.7340 C   0  0  0  0  0  0
   36.4620   -6.8690   15.9280 C   0  0  0  0  0  0
   33.4480   -8.4800   15.8190 C   0  0  0  0  0  0
   32.3600   -9.0040   15.1200 C   0  0  0  0  0  0
   31.8310  -10.2440   15.4550 C   0  0  0  0  0  0
   32.4080  -10.9580   16.5040 C   0  0  0  0  0  0
   33.4950  -10.4390   17.2080 C   0  0  0  0  0  0
   34.0210   -9.1980   16.8650 C   0  0  0  0  0  0
   29.6925   -7.5695    6.8719 H   0  0  0  0  0  0
   29.1299   -6.8968    8.4396 H   0  0  0  0  0  0
   30.8246   -6.6332    7.9055 H   0  0  0  0  0  0
   30.0111   -5.2672    5.9984 H   0  0  0  0  0  0
   28.3164   -5.5308    6.5324 H   0  0  0  0  0  0
   28.9239   -4.4259    8.7520 H   0  0  0  0  0  0
   27.7952   -3.2499    7.0144 H   0  0  0  0  0  0
   29.3699   -2.8215    6.2637 H   0  0  0  0  0  0
   28.9563   -2.2025    7.8985 H   0  0  0  0  0  0
   30.5899   -4.3817   10.1407 H   0  0  0  0  0  0
   33.2885   -4.0185    8.7513 H   0  0  0  0  0  0
   32.5243   -1.8303    9.4561 H   0  0  0  0  0  0
   31.4196   -2.7194   11.6485 H   0  0  0  0  0  0
   33.0226   -2.3254   12.3567 H   0  0  0  0  0  0
   31.8303   -0.3064   12.6033 H   0  0  0  0  0  0
   32.7463   -0.0373   11.0817 H   0  0  0  0  0  0
   30.4261    0.6505   10.8669 H   0  0  0  0  0  0
   29.8916   -1.0056   11.3126 H   0  0  0  0  0  0
   30.8076   -0.7365    9.7910 H   0  0  0  0  0  0
   34.9434   -2.2936    9.1976 H   0  0  0  0  0  0
   34.6740   -1.1100   10.5217 H   0  0  0  0  0  0
   36.3584   -2.5265   11.3113 H   0  0  0  0  0  0
   34.8689   -3.1277   12.1153 H   0  0  0  0  0  0
   35.7473   -4.3619    9.4739 H   0  0  0  0  0  0
   37.7043   -5.0150   10.5465 H   0  0  0  0  0  0
   37.1070   -4.4492   12.1433 H   0  0  0  0  0  0
   36.6955   -7.1229   10.7600 H   0  0  0  0  0  0
   36.9490   -6.7739   12.5037 H   0  0  0  0  0  0
   34.4093   -7.2951   11.4986 H   0  0  0  0  0  0
   34.4960   -8.1658   13.5028 H   0  0  0  0  0  0
   33.1634   -6.3718   15.4944 H   0  0  0  0  0  0
   33.8066   -5.6004   17.6413 H   0  0  0  0  0  0
   35.6397   -4.7266   19.0745 H   0  0  0  0  0  0
   38.0038   -5.2236   18.4847 H   0  0  0  0  0  0
   38.5271   -6.5909   16.4813 H   0  0  0  0  0  0
   36.6945   -7.4645   15.0452 H   0  0  0  0  0  0
   31.9201   -8.4338   14.3017 H   0  0  0  0  0  0
   30.9807  -10.6510   14.9079 H   0  0  0  0  0  0
   32.0052  -11.9332   16.7775 H   0  0  0  0  0  0
   33.9329  -11.0073   18.0286 H   0  0  0  0  0  0
   34.8733   -8.7917   17.4097 H   0  0  0  0  0  0
  1  2  1  0  0  0
  1 38  1  0  0  0
  1 39  1  0  0  0
  1 40  1  0  0  0
  2  3  1  0  0  0
  2 41  1  0  0  0
  2 42  1  0  0  0
  3  4  1  0  0  0
  3  5  1  0  0  0
  3 43  1  0  0  0
  4 44  1  0  0  0
  4 45  1  0  0  0
  4 46  1  0  0  0
  5  6  2  0  0  0
  5  7  1  0  0  0
  7  8  1  0  0  0
  7 47  1  0  0  0
  8  9  1  0  0  0
  8 12  1  0  0  0
  8 48  1  0  0  0
  9 10  2  0  0  0
  9 11  1  0  0  0
 11 18  1  0  0  0
 11 21  1  0  0  0
 12 13  1  0  0  0
 12 16  1  0  0  0
 12 49  1  0  0  0
 13 14  1  0  0  0
 13 50  1  0  0  0
 13 51  1  0  0  0
 14 15  1  0  0  0
 14 52  1  0  0  0
 14 53  1  0  0  0
 15 54  1  0  0  0
 15 55  1  0  0  0
 15 56  1  0  0  0
 16 17  1  0  0  0
 16 57  1  0  0  0
 16 58  1  0  0  0
 17 18  1  0  0  0
 17 59  1  0  0  0
 17 60  1  0  0  0
 18 19  1  0  0  0
 18 61  1  0  0  0
 19 20  1  0  0  0
 19 62  1  0  0  0
 19 63  1  0  0  0
 20 21  1  0  0  0
 20 64  1  0  0  0
 20 65  1  0  0  0
 21 22  1  0  0  0
 21 66  1  0  0  0
 22 23  2  0  0  0
 22 24  1  0  0  0
 24 25  1  0  0  0
 24 67  1  0  0  0
 25 26  1  0  0  0
 25 32  1  0  0  0
 25 68  1  0  0  0
 26 27  2  0  0  0
 26 31  1  0  0  0
 27 28  1  0  0  0
 27 69  1  0  0  0
 28 29  2  0  0  0
 28 70  1  0  0  0
 29 30  1  0  0  0
 29 71  1  0  0  0
 30 31  2  0  0  0
 30 72  1  0  0  0
 31 73  1  0  0  0
 32 33  2  0  0  0
 32 37  1  0  0  0
 33 34  1  0  0  0
 33 74  1  0  0  0
 34 35  2  0  0  0
 34 75  1  0  0  0
 35 36  1  0  0  0
 35 76  1  0  0  0
 36 37  2  0  0  0
 36 77  1  0  0  0
 37 78  1  0  0  0
M  CHG  2   4   1  15   1
M  END
> <s_m_source_file>
../3eyl_ligand.sdf

> <i_m_source_file_index>
1

> <s_epik_input>
W0NIM11bQ0gyXVtDQEhdKFtOSDMrXSlDKD1PKVtOSF1bQ0BIXShDMT1PKVtDQEBIXShbQ0gyXVtDSDJdW05IMytdKVtDSDJdW0NIMl1bQ0BIXShOMTIpW0NIMl1bQ0gyXVtDQEhdMkMoPU8pW05IXVtDSF0oYzNbY0hdW2NIXVtjSF1bY0hdW2NIXTMpYzRbY0hdW2NIXVtjSF1bY0hdW2NIXTQ=

> <s_epik_cmdline>
J2VwaWtfYXBwJywgJy1pbWFlJywgJ2xpZ2FuZF9wcm8ubWFlJywgJy1vbWFlJywgJ2xpZ2FuZF9wcmVwLm1hZScsICctbXMnLCAnMScsICctcGgnLCAnNycsICctcGh0JywgJzAuNScsICctbnQn

> <r_epik_Ionization_Penalty>
  0.1053

> <r_epik_Ionization_Penalty_Charging>
  0.1053

> <r_epik_Ionization_Penalty_Neutral>
  0.0000

> <r_epik_State_Penalty>
  0.0945

> <r_epik_Charging_Adjusted_Penalty>
0.199783249154892

> <i_epik_Tot_Q>
2

> <i_epik_Tot_abs_Q>
2

$$$$
