3eys_ligand
                    3D
 Schrodinger Suite 2020-3.
 87 89  0  0  1  0            999 V2000
   21.0060   -7.3640  -20.9180 N   0  0  0  0  0  0
   21.7430   -8.5790  -20.5410 C   0  0  1  0  0  0
   23.2410   -8.2520  -20.5140 C   0  0  0  0  0  0
   23.3860   -7.2510  -21.6500 C   0  0  0  0  0  0
   21.9530   -6.8340  -21.9040 C   0  0  0  0  0  0
   21.6370   -6.1200  -22.8550 O   0  0  0  0  0  0
   21.2220   -9.3440  -19.3110 C   0  0  0  0  0  0
   22.0080   -9.9700  -18.5840 O   0  0  0  0  0  0
   19.9070   -9.2850  -19.0890 N   0  0  0  0  0  0
   19.2200  -10.3360  -18.3390 C   0  0  2  0  0  0
   19.0790  -11.5020  -19.3160 C   0  0  0  0  0  0
   19.0260  -11.2880  -20.5390 O   0  0  0  0  0  0
   17.8440   -9.8850  -17.8550 C   0  0  0  0  0  0
   17.1720  -10.8610  -16.9100 C   0  0  0  0  0  0
   17.6430  -11.0340  -15.6050 C   0  0  0  0  0  0
   16.0580  -11.5960  -17.3220 C   0  0  0  0  0  0
   17.0190  -11.9190  -14.7270 C   0  0  0  0  0  0
   15.4230  -12.4850  -16.4530 C   0  0  0  0  0  0
   15.9050  -12.6480  -15.1520 C   0  0  0  0  0  0
   19.0200  -12.7210  -18.7860 N   0  0  0  0  0  0
   19.0970  -13.9210  -19.6180 C   0  0  2  0  0  0
   17.8410  -14.1620  -20.4540 C   0  0  0  0  0  0
   16.7280  -14.2610  -19.9190 O   0  0  0  0  0  0
   19.4040  -15.1390  -18.7600 C   0  0  0  0  0  0
   19.9290  -16.3170  -19.5380 C   0  0  0  0  0  0
   20.6660  -17.2330  -18.6060 C   0  0  0  0  0  0
   21.0050  -18.4930  -19.2460 N   0  0  0  0  0  0
   21.3220  -19.6020  -18.5880 C   0  0  0  0  0  0
   21.3370  -19.6100  -17.2580 N   0  0  0  0  0  0
   21.6170  -20.7060  -19.2640 N   0  3  0  0  0  0
   18.0460  -14.2490  -21.7680 N   0  0  0  0  0  0
   16.9950  -14.5260  -22.7440 C   0  0  2  0  0  0
   17.6560  -15.1000  -23.9900 C   0  0  0  0  0  0
   18.5370  -14.4600  -24.5680 O   0  0  0  0  0  0
   16.2680  -13.2390  -23.1520 C   0  0  0  0  0  0
   15.6070  -12.5150  -22.0210 C   0  0  0  0  0  0
   14.4470  -12.9630  -21.4240 N   0  0  0  0  0  0
   15.9320  -11.3620  -21.3910 C   0  0  0  0  0  0
   14.0910  -12.1240  -20.4660 C   0  0  0  0  0  0
   14.9750  -11.1430  -20.4280 N   0  0  0  0  0  0
   17.2450  -16.3000  -24.3990 N   0  0  0  0  0  0
   17.7060  -16.8700  -25.6650 C   0  0  2  0  0  0
   16.9940  -16.1980  -26.8450 C   0  0  0  0  0  0
   15.7633  -16.3731  -27.0505 O   0  5  0  0  0  0
   17.4890  -18.3930  -25.7040 C   0  0  0  0  0  0
   18.2630  -19.1410  -24.6140 C   0  0  0  0  0  0
   19.1110  -18.5290  -23.9200 O   0  5  0  0  0  0
   18.0120  -20.3570  -24.4500 O   0  0  0  0  0  0
   17.6516  -15.4571  -27.6235 O   0  0  0  0  0  0
   20.0371   -7.1403  -20.4478 H   0  0  0  0  0  0
   21.5227   -9.2923  -21.3489 H   0  0  0  0  0  0
   23.5056   -7.8254  -19.5352 H   0  0  0  0  0  0
   23.8202   -9.1720  -20.6816 H   0  0  0  0  0  0
   24.0223   -6.4153  -21.3233 H   0  0  0  0  0  0
   23.8470   -7.7454  -22.5178 H   0  0  0  0  0  0
   19.3394   -8.4280  -19.4805 H   0  0  0  0  0  0
   19.8160  -10.5773  -17.4465 H   0  0  0  0  0  0
   17.9388   -8.9285  -17.3200 H   0  0  0  0  0  0
   17.1752   -9.7572  -18.7189 H   0  0  0  0  0  0
   18.5118  -10.4680  -15.2688 H   0  0  0  0  0  0
   15.6790  -11.4737  -18.3367 H   0  0  0  0  0  0
   17.3986  -12.0419  -13.7127 H   0  0  0  0  0  0
   14.5536  -13.0503  -16.7886 H   0  0  0  0  0  0
   15.4135  -13.3420  -14.4701 H   0  0  0  0  0  0
   18.9107  -12.8140  -17.6954 H   0  0  0  0  0  0
   19.9270  -13.7115  -20.3088 H   0  0  0  0  0  0
   20.1664  -14.8774  -18.0114 H   0  0  0  0  0  0
   18.4870  -15.4686  -18.2496 H   0  0  0  0  0  0
   19.0882  -16.8565  -19.9984 H   0  0  0  0  0  0
   20.6116  -15.9623  -20.3243 H   0  0  0  0  0  0
   21.5982  -16.7498  -18.2781 H   0  0  0  0  0  0
   20.0368  -17.4484  -17.7298 H   0  0  0  0  0  0
   21.0093  -18.5688  -20.3434 H   0  0  0  0  0  0
   21.0923  -18.6944  -16.6997 H   0  0  0  0  0  0
   21.5941  -20.5323  -16.7164 H   0  0  0  0  0  0
   21.6041  -20.6974  -20.3639 H   0  0  0  0  0  0
   19.0825  -14.0976  -22.1039 H   0  0  0  0  0  0
   16.2971  -15.2275  -22.2636 H   0  0  0  0  0  0
   16.2062  -12.8363  -24.1738 H   0  0  0  0  0  0
   16.7584  -10.6472  -21.5177 H   0  0  0  0  0  0
   13.2191  -12.2244  -19.8196 H   0  0  0  0  0  0
   16.5456  -16.8638  -23.7643 H   0  0  0  0  0  0
   18.7836  -16.6522  -25.7014 H   0  0  0  0  0  0
   16.4207  -18.6148  -25.5644 H   0  0  0  0  0  0
   17.8211  -18.7859  -26.6763 H   0  0  0  0  0  0
   21.8743  -21.6292  -18.7242 H   0  0  0  0  0  0
   13.9728  -13.8925  -21.7721 H   0  0  0  0  0  0
  1  2  1  0  0  0
  1  5  1  0  0  0
  1 50  1  0  0  0
  2  3  1  0  0  0
  2  7  1  0  0  0
  2 51  1  0  0  0
  3  4  1  0  0  0
  3 52  1  0  0  0
  3 53  1  0  0  0
  4  5  1  0  0  0
  4 54  1  0  0  0
  4 55  1  0  0  0
  5  6  2  0  0  0
  7  8  2  0  0  0
  7  9  1  0  0  0
  9 10  1  0  0  0
  9 56  1  0  0  0
 10 11  1  0  0  0
 10 13  1  0  0  0
 10 57  1  0  0  0
 11 12  2  0  0  0
 11 20  1  0  0  0
 13 14  1  0  0  0
 13 58  1  0  0  0
 13 59  1  0  0  0
 14 15  2  0  0  0
 14 16  1  0  0  0
 15 17  1  0  0  0
 15 60  1  0  0  0
 16 18  2  0  0  0
 16 61  1  0  0  0
 17 19  2  0  0  0
 17 62  1  0  0  0
 18 19  1  0  0  0
 18 63  1  0  0  0
 19 64  1  0  0  0
 20 21  1  0  0  0
 20 65  1  0  0  0
 21 22  1  0  0  0
 21 24  1  0  0  0
 21 66  1  0  0  0
 22 23  2  0  0  0
 22 31  1  0  0  0
 24 25  1  0  0  0
 24 67  1  0  0  0
 24 68  1  0  0  0
 25 26  1  0  0  0
 25 69  1  0  0  0
 25 70  1  0  0  0
 26 27  1  0  0  0
 26 71  1  0  0  0
 26 72  1  0  0  0
 27 28  1  0  0  0
 27 73  1  0  0  0
 28 29  1  0  0  0
 28 30  2  0  0  0
 29 74  1  0  0  0
 29 75  1  0  0  0
 30 76  1  0  0  0
 30 86  1  0  0  0
 31 32  1  0  0  0
 31 77  1  0  0  0
 32 33  1  0  0  0
 32 35  1  0  0  0
 32 78  1  0  0  0
 33 34  2  0  0  0
 33 41  1  0  0  0
 35 36  2  0  0  0
 35 79  1  0  0  0
 36 37  1  0  0  0
 36 38  1  0  0  0
 37 39  1  0  0  0
 37 87  1  0  0  0
 38 40  2  0  0  0
 38 80  1  0  0  0
 39 40  1  0  0  0
 39 81  1  0  0  0
 41 42  1  0  0  0
 41 82  1  0  0  0
 42 43  1  0  0  0
 42 45  1  0  0  0
 42 83  1  0  0  0
 43 44  1  0  0  0
 43 49  2  0  0  0
 45 46  1  0  0  0
 45 84  1  0  0  0
 45 85  1  0  0  0
 46 47  1  0  0  0
 46 48  2  0  0  0
M  CHG  3  30   1  44  -1  47  -1
M  END
> <s_m_source_file>
../3eys_ligand.sdf

> <i_m_source_file_index>
1

> <s_epik_input>
W0NIMl0xW0NIMl1DKD1PKVtOSF1bQ0BASF0xQyg9TylbTkhdW0NAQEhdKFtDSDJdYzJbY0hdW2NIXVtjSF1bY0hdW2NIXTIpQyg9TylbTkhdW0NAQEhdKFtDSDJdW0NIMl1bQ0gyXVtOSF0vQyhbTkgyXSk9TlxbSF0pQyg9TylbTkhdW0NASF0oQyg9TylbTkhdW0NASF0oQyg9TylbT0hdKVtDSDJdQyg9TylbT0hdKVtDSDJdQzM9TltDSDJdTj1bQ0hdMw==

> <s_epik_cmdline>
J2VwaWtfYXBwJywgJy1pbWFlJywgJ2xpZ2FuZF9wcm8ubWFlJywgJy1vbWFlJywgJ2xpZ2FuZF9wcmVwLm1hZScsICctbXMnLCAnMScsICctcGgnLCAnNycsICctcGh0JywgJzAuNScsICctbnQn

> <r_lp_tautomer_probability>
1

> <r_epik_Ionization_Penalty>
  0.0013

> <r_epik_Ionization_Penalty_Charging>
  0.0013

> <r_epik_Ionization_Penalty_Neutral>
  0.0000

> <r_epik_State_Penalty>
 -0.0000

> <r_epik_Charging_Adjusted_Penalty>
0.00125689714383603

> <i_epik_Tot_Q>
-1

> <i_epik_Tot_abs_Q>
3

> <s_epik_Chemistry_Notes>
This compound has an imine and may undergo hydrolysis.

$$$$
