3eyu_ligand
                    3D
 Schrodinger Suite 2020-3.
103104  0  0  1  0            999 V2000
   31.8620  -18.9080  -34.3030 N   0  3  0  0  0  0
   30.4530  -19.3380  -34.5490 C   0  0  2  0  0  0
   29.9840  -20.4620  -33.6080 C   0  0  0  0  0  0
   30.7980  -21.2170  -33.0570 O   0  0  0  0  0  0
   30.2840  -19.7770  -36.0090 C   0  0  0  0  0  0
   30.6540  -18.7240  -37.0420 C   0  0  0  0  0  0
   29.6270  -17.6030  -37.1450 C   0  0  0  0  0  0
   28.7420  -17.6810  -38.0290 O   0  5  0  0  0  0
   29.7010  -16.6470  -36.3390 O   0  0  0  0  0  0
   28.6640  -20.5400  -33.4270 N   0  0  0  0  0  0
   27.9780  -21.6700  -32.7760 C   0  0  2  0  0  0
   27.8990  -22.8490  -33.7550 C   0  0  0  0  0  0
   27.7440  -22.6440  -34.9640 O   0  0  0  0  0  0
   26.5590  -21.2470  -32.3370 C   0  0  0  0  0  0
   25.8250  -22.2740  -31.4820 C   0  0  0  0  0  0
   26.2200  -22.5280  -30.1600 C   0  0  0  0  0  0
   24.7100  -22.9520  -31.9850 C   0  0  0  0  0  0
   25.5350  -23.4620  -29.3730 C   0  0  0  0  0  0
   24.0140  -23.8870  -31.2020 C   0  0  0  0  0  0
   24.4300  -24.1430  -29.8990 C   0  0  0  0  0  0
   28.0030  -24.0700  -33.2310 N   0  0  0  0  0  0
   28.0410  -25.2900  -34.0540 C   0  0  2  0  0  0
   26.7400  -25.5380  -34.8630 C   0  0  0  0  0  0
   25.6390  -25.5870  -34.2960 O   0  0  0  0  0  0
   28.3900  -26.4990  -33.1720 C   0  0  0  0  0  0
   28.8270  -27.7400  -33.9160 C   0  0  0  0  0  0
   29.4280  -28.7500  -32.9550 C   0  0  0  0  0  0
   29.7820  -30.0140  -33.6040 N   0  0  0  0  0  0
   30.0340  -31.1450  -32.9510 C   0  0  0  0  0  0
   29.9620  -31.1730  -31.6270 N   0  3  0  0  0  0
   30.3460  -32.2510  -33.6160 N   0  0  0  0  0  0
   26.8920  -25.6770  -36.1830 N   0  0  0  0  0  0
   25.7950  -25.9560  -37.1170 C   0  0  2  0  0  0
   26.3550  -26.6990  -38.3230 C   0  0  0  0  0  0
   27.5190  -26.5360  -38.6740 O   0  0  0  0  0  0
   25.1510  -24.6600  -37.6200 C   0  0  0  0  0  0
   24.3950  -23.8980  -36.5750 C   0  0  0  0  0  0
   23.0870  -24.1800  -36.2480 N   0  0  0  0  0  0
   24.7560  -22.8490  -35.8010 C   0  0  0  0  0  0
   22.6800  -23.3490  -35.3060 C   0  0  0  0  0  0
   23.6720  -22.5300  -35.0200 N   0  0  0  0  0  0
   25.5310  -27.5070  -38.9720 N   0  0  0  0  0  0
   25.9850  -28.2030  -40.1600 C   0  0  2  0  0  0
   25.0150  -28.0390  -41.3140 C   0  0  0  0  0  0
   23.8260  -28.3490  -41.1950 O   0  0  0  0  0  0
   26.2180  -29.6880  -39.8750 C   0  0  0  0  0  0
   27.2940  -29.9760  -38.8410 C   0  0  0  0  0  0
   27.5040  -31.4600  -38.6370 C   0  0  0  0  0  0
   26.7500  -32.2610  -39.2390 O   0  5  0  0  0  0
   28.4270  -31.8340  -37.8770 O   0  0  0  0  0  0
   25.5390  -27.5310  -42.4230 N   0  0  0  0  0  0
   24.8470  -27.5680  -43.7040 C   0  0  2  0  0  0
   25.7860  -28.1950  -44.7130 C   0  0  0  0  0  0
   26.9590  -27.8210  -44.7850 O   0  5  0  0  0  0
   24.4320  -26.1700  -44.1510 C   0  0  0  0  0  0
   25.3990  -29.0960  -45.4570 O   0  0  0  0  0  0
   31.9721  -18.5955  -33.2541 H   0  0  0  0  0  0
   32.1088  -18.0647  -34.9647 H   0  0  0  0  0  0
   32.5427  -19.7472  -34.5090 H   0  0  0  0  0  0
   29.8461  -18.4461  -34.3341 H   0  0  0  0  0  0
   30.9232  -20.6504  -36.2056 H   0  0  0  0  0  0
   29.2326  -20.0434  -36.1924 H   0  0  0  0  0  0
   31.6186  -18.2691  -36.7726 H   0  0  0  0  0  0
   30.7346  -19.1948  -38.0329 H   0  0  0  0  0  0
   28.0818  -19.6852  -33.8017 H   0  0  0  0  0  0
   28.5778  -21.9463  -31.8963 H   0  0  0  0  0  0
   26.6191  -20.3230  -31.7431 H   0  0  0  0  0  0
   25.9370  -21.0710  -33.2270 H   0  0  0  0  0  0
   27.0709  -21.9915  -29.7401 H   0  0  0  0  0  0
   24.3754  -22.7511  -33.0027 H   0  0  0  0  0  0
   25.8615  -23.6588  -28.3519 H   0  0  0  0  0  0
   23.1509  -24.4104  -31.6134 H   0  0  0  0  0  0
   23.8969  -24.8721  -29.2889 H   0  0  0  0  0  0
   28.0614  -24.1438  -32.1350 H   0  0  0  0  0  0
   28.8440  -25.0978  -34.7808 H   0  0  0  0  0  0
   29.2169  -26.2338  -32.4968 H   0  0  0  0  0  0
   27.5096  -26.7861  -32.5783 H   0  0  0  0  0  0
   27.9578  -28.1937  -34.4147 H   0  0  0  0  0  0
   29.5818  -27.4694  -34.6690 H   0  0  0  0  0  0
   30.3442  -28.3335  -32.5110 H   0  0  0  0  0  0
   28.7035  -28.9741  -32.1582 H   0  0  0  0  0  0
   29.8533  -30.0683  -34.7003 H   0  0  0  0  0  0
   29.7039  -30.2597  -31.0708 H   0  0  0  0  0  0
   30.4072  -32.2337  -34.7142 H   0  0  0  0  0  0
   30.5433  -33.1846  -33.0688 H   0  0  0  0  0  0
   27.9202  -25.5689  -36.5587 H   0  0  0  0  0  0
   25.0633  -26.5570  -36.5572 H   0  0  0  0  0  0
   25.2071  -24.2748  -38.6488 H   0  0  0  0  0  0
   25.6881  -22.2719  -35.7104 H   0  0  0  0  0  0
   21.6927  -23.3417  -34.8441 H   0  0  0  0  0  0
   24.5022  -27.6503  -38.6100 H   0  0  0  0  0  0
   26.9327  -27.7057  -40.4138 H   0  0  0  0  0  0
   25.2879  -30.1396  -39.4996 H   0  0  0  0  0  0
   26.5241  -30.1956  -40.8016 H   0  0  0  0  0  0
   28.2470  -29.5373  -39.1716 H   0  0  0  0  0  0
   27.0027  -29.5353  -37.8761 H   0  0  0  0  0  0
   26.5347  -27.0693  -42.3489 H   0  0  0  0  0  0
   23.9373  -28.1725  -43.5731 H   0  0  0  0  0  0
   23.7513  -25.7336  -43.4052 H   0  0  0  0  0  0
   23.9199  -26.2326  -45.1225 H   0  0  0  0  0  0
   25.3255  -25.5356  -44.2476 H   0  0  0  0  0  0
   30.1603  -32.1095  -31.0851 H   0  0  0  0  0  0
   22.5565  -24.9974  -36.7583 H   0  0  0  0  0  0
  1  2  1  0  0  0
  1 57  1  0  0  0
  1 58  1  0  0  0
  1 59  1  0  0  0
  2  3  1  0  0  0
  2  5  1  0  0  0
  2 60  1  0  0  0
  3  4  2  0  0  0
  3 10  1  0  0  0
  5  6  1  0  0  0
  5 61  1  0  0  0
  5 62  1  0  0  0
  6  7  1  0  0  0
  6 63  1  0  0  0
  6 64  1  0  0  0
  7  8  1  0  0  0
  7  9  2  0  0  0
 10 11  1  0  0  0
 10 65  1  0  0  0
 11 12  1  0  0  0
 11 14  1  0  0  0
 11 66  1  0  0  0
 12 13  2  0  0  0
 12 21  1  0  0  0
 14 15  1  0  0  0
 14 67  1  0  0  0
 14 68  1  0  0  0
 15 16  2  0  0  0
 15 17  1  0  0  0
 16 18  1  0  0  0
 16 69  1  0  0  0
 17 19  2  0  0  0
 17 70  1  0  0  0
 18 20  2  0  0  0
 18 71  1  0  0  0
 19 20  1  0  0  0
 19 72  1  0  0  0
 20 73  1  0  0  0
 21 22  1  0  0  0
 21 74  1  0  0  0
 22 23  1  0  0  0
 22 25  1  0  0  0
 22 75  1  0  0  0
 23 24  2  0  0  0
 23 32  1  0  0  0
 25 26  1  0  0  0
 25 76  1  0  0  0
 25 77  1  0  0  0
 26 27  1  0  0  0
 26 78  1  0  0  0
 26 79  1  0  0  0
 27 28  1  0  0  0
 27 80  1  0  0  0
 27 81  1  0  0  0
 28 29  1  0  0  0
 28 82  1  0  0  0
 29 30  2  0  0  0
 29 31  1  0  0  0
 30 83  1  0  0  0
 30102  1  0  0  0
 31 84  1  0  0  0
 31 85  1  0  0  0
 32 33  1  0  0  0
 32 86  1  0  0  0
 33 34  1  0  0  0
 33 36  1  0  0  0
 33 87  1  0  0  0
 34 35  2  0  0  0
 34 42  1  0  0  0
 36 37  2  0  0  0
 36 88  1  0  0  0
 37 38  1  0  0  0
 37 39  1  0  0  0
 38 40  1  0  0  0
 38103  1  0  0  0
 39 41  2  0  0  0
 39 89  1  0  0  0
 40 41  1  0  0  0
 40 90  1  0  0  0
 42 43  1  0  0  0
 42 91  1  0  0  0
 43 44  1  0  0  0
 43 46  1  0  0  0
 43 92  1  0  0  0
 44 45  2  0  0  0
 44 51  1  0  0  0
 46 47  1  0  0  0
 46 93  1  0  0  0
 46 94  1  0  0  0
 47 48  1  0  0  0
 47 95  1  0  0  0
 47 96  1  0  0  0
 48 49  1  0  0  0
 48 50  2  0  0  0
 51 52  1  0  0  0
 51 97  1  0  0  0
 52 53  1  0  0  0
 52 55  1  0  0  0
 52 98  1  0  0  0
 53 54  1  0  0  0
 53 56  2  0  0  0
 55 99  1  0  0  0
 55100  1  0  0  0
 55101  1  0  0  0
M  CHG  5   1   1   8  -1  30   1  49  -1  54  -1
M  END
> <s_m_source_file>
../3eyu_ligand.sdf

> <i_m_source_file_index>
1

> <s_epik_input>
W09IXUMoPU8pW0NIMl1bQ0gyXVtDQEhdKFtOSDMrXSlDKD1PKVtOSF1bQ0BASF0oW0NIMl1jMVtjSF1bY0hdW2NIXVtjSF1bY0hdMSlDKD1PKVtOSF1bQ0BASF0oW0NIMl1bQ0gyXVtDSDJdW05IXS9DKD1OXFtIXSlbTkgyXSlDKD1PKVtOSF1bQ0BASF0oW0NIMl1DMj1OW0NIMl1OPVtDSF0yKUMoPU8pW05IXVtDQEBIXShbQ0gyXVtDSDJdQyg9TylbT0hdKUMoPU8pW05IXVtDQEBIXShbQ0gzXSlDKD1PKVtPSF0=

> <s_epik_cmdline>
J2VwaWtfYXBwJywgJy1pbWFlJywgJ2xpZ2FuZF9wcm8ubWFlJywgJy1vbWFlJywgJ2xpZ2FuZF9wcmVwLm1hZScsICctbXMnLCAnMScsICctcGgnLCAnNycsICctcGh0JywgJzAuNScsICctbnQn

> <r_lp_tautomer_probability>
1

> <r_epik_Ionization_Penalty>
  0.0832

> <r_epik_Ionization_Penalty_Charging>
  0.0832

> <r_epik_Ionization_Penalty_Neutral>
  0.0000

> <r_epik_State_Penalty>
 -0.0000

> <r_epik_Charging_Adjusted_Penalty>
0.0832304831480612

> <i_epik_Tot_Q>
-1

> <i_epik_Tot_abs_Q>
5

> <s_epik_Chemistry_Notes>
This compound has an imine and may undergo hydrolysis.

$$$$
