3ezr_ligand
                    3D
 Schrodinger Suite 2020-3.
 62 67  0  0  1  0            999 V2000
   -2.5790   33.9250   11.9540 C   0  0  0  0  0  0
    4.6110   28.1650    5.9080 C   0  0  0  0  0  0
    4.3960   26.1670    7.2380 C   0  0  0  0  0  0
   -3.4190   34.5520   12.8420 C   0  0  0  0  0  0
   -1.3160   32.9490    9.6090 C   0  0  0  0  0  0
    0.1260   31.1070    8.9290 C   0  0  0  0  0  0
    2.9850   27.9640    7.7160 C   0  0  0  0  0  0
   -0.3300   32.4030    8.8280 C   0  0  0  0  0  0
   -4.5760   33.9270   13.2500 C   0  0  0  0  0  0
    2.0200   29.8720    7.6570 C   0  0  0  0  0  0
    2.8920   26.5480   10.3570 C   0  0  0  0  0  0
    3.1370   24.5010    9.0020 C   0  0  0  0  0  0
    3.4500   23.9300   10.3750 C   0  0  0  0  0  0
   -5.6460   30.5640   11.9180 C   0  0  0  0  0  0
    4.9910   26.8800    6.2230 C   0  0  0  0  0  0
   -0.4560   30.2590    9.8570 C   0  0  0  0  0  0
   -1.4650   30.7970   10.6320 C   0  0  0  0  0  0
   -4.8700   32.6810   12.7480 C   0  0  0  0  0  0
   -1.8880   32.1060   10.5320 C   0  0  0  0  0  0
   -2.8620   32.6750   11.4360 C   0  0  0  0  0  0
    3.5950   28.6620    6.6930 C   0  0  0  0  0  0
    3.3830   26.6720    8.0280 C   0  0  0  0  0  0
   -4.0230   32.0620   11.8520 C   0  0  0  0  0  0
    1.1540   31.0270    7.9520 C   0  0  0  0  0  0
    1.9520   25.7920   11.2700 C   0  0  0  0  0  0
    1.5410   23.4300   11.8880 C   0  0  0  0  0  0
    2.0120   28.7310    8.3070 N   0  0  0  0  0  0
    1.3350   32.1770    7.3000 N   0  3  0  0  0  0
    2.9660   29.8700    6.6760 N   0  3  0  0  0  0
    0.4230   32.9860    7.8550 N   0  0  0  0  0  0
    2.7890   25.9170    9.0580 N   0  0  0  0  0  0
   -5.4480   34.5370   14.1590 N   0  0  0  0  0  0
    2.5290   24.4330   11.4400 N   0  3  0  0  0  0
   -4.3580   30.8110   11.3760 O   0  0  0  0  0  0
   -1.6617   34.4284   11.6487 H   0  0  0  0  0  0
    5.0746   28.7396    5.1061 H   0  0  0  0  0  0
    4.7423   25.1511    7.4281 H   0  0  0  0  0  0
   -3.1700   35.5425   13.2229 H   0  0  0  0  0  0
   -1.6273   33.9883    9.5043 H   0  0  0  0  0  0
    2.5866   27.6037   10.3091 H   0  0  0  0  0  0
    3.9175   26.4804   10.7492 H   0  0  0  0  0  0
    4.0164   24.3916    8.3503 H   0  0  0  0  0  0
    2.2864   23.9580    8.5643 H   0  0  0  0  0  0
    3.3601   22.8341   10.3455 H   0  0  0  0  0  0
    4.4754   24.2062   10.6619 H   0  0  0  0  0  0
   -5.9993   29.5759   11.5882 H   0  0  0  0  0  0
   -6.3451   31.3385   11.5695 H   0  0  0  0  0  0
   -5.5920   30.5862   13.0164 H   0  0  0  0  0  0
    5.7904   26.4116    5.6488 H   0  0  0  0  0  0
   -0.1352   29.2234    9.9696 H   0  0  0  0  0  0
   -1.9535   30.1519   11.3623 H   0  0  0  0  0  0
   -5.7836   32.1761   13.0619 H   0  0  0  0  0  0
    1.8820   26.3126   12.2365 H   0  0  0  0  0  0
    0.9549   25.7403   10.8083 H   0  0  0  0  0  0
    2.0332   22.4519   11.9928 H   0  0  0  0  0  0
    0.7319   23.3558   11.1465 H   0  0  0  0  0  0
    1.1224   23.7357   12.8582 H   0  0  0  0  0  0
   -5.2141   35.5337   14.5614 H   0  0  0  0  0  0
   -6.3673   34.0198   14.4711 H   0  0  0  0  0  0
    3.2185   24.5904   12.2825 H   0  0  0  0  0  0
    2.1053   32.2507    6.5182 H   0  0  0  0  0  0
    3.1024   30.7583    6.0417 H   0  0  0  0  0  0
  1  4  2  0  0  0
  1 20  1  0  0  0
  1 35  1  0  0  0
  2 15  2  0  0  0
  2 21  1  0  0  0
  2 36  1  0  0  0
  3 15  1  0  0  0
  3 22  2  0  0  0
  3 37  1  0  0  0
  4  9  1  0  0  0
  4 38  1  0  0  0
  5  8  2  0  0  0
  5 19  1  0  0  0
  5 39  1  0  0  0
  6  8  1  0  0  0
  6 16  2  0  0  0
  6 24  1  0  0  0
  7 21  2  0  0  0
  7 22  1  0  0  0
  7 27  1  0  0  0
  8 30  1  0  0  0
  9 18  2  0  0  0
  9 32  1  0  0  0
 10 24  1  0  0  0
 10 27  2  0  0  0
 10 29  1  0  0  0
 11 25  1  0  0  0
 11 31  1  0  0  0
 11 40  1  0  0  0
 11 41  1  0  0  0
 12 13  1  0  0  0
 12 31  1  0  0  0
 12 42  1  0  0  0
 12 43  1  0  0  0
 13 33  1  0  0  0
 13 44  1  0  0  0
 13 45  1  0  0  0
 14 34  1  0  0  0
 14 46  1  0  0  0
 14 47  1  0  0  0
 14 48  1  0  0  0
 15 49  1  0  0  0
 16 17  1  0  0  0
 16 50  1  0  0  0
 17 19  2  0  0  0
 17 51  1  0  0  0
 18 23  1  0  0  0
 18 52  1  0  0  0
 19 20  1  0  0  0
 20 23  2  0  0  0
 21 29  1  0  0  0
 22 31  1  0  0  0
 23 34  1  0  0  0
 24 28  2  0  0  0
 25 33  1  0  0  0
 25 53  1  0  0  0
 25 54  1  0  0  0
 26 33  1  0  0  0
 26 55  1  0  0  0
 26 56  1  0  0  0
 26 57  1  0  0  0
 28 30  1  0  0  0
 28 61  1  0  0  0
 29 62  1  0  0  0
 32 58  1  0  0  0
 32 59  1  0  0  0
 33 60  1  0  0  0
M  CHG  3  28   1  29   1  33   1
M  END
> <s_m_source_file>
../3ezr_ligand.sdf

> <i_m_source_file_index>
1

> <s_epik_input>
W05IMl1jMVtjSF1bY0hdYyhjKFtjSF0xKU9bQ0gzXSktYyhbY0hdW2NIXTIpW2NIXWMoYzIzKVtuSF1uYzMtYyhuNClbbkhdYyhjNDUpW2NIXVtjSF1bY0hdYzVONltDSDJdW0NIMl1bTkgrXShbQ0gzXSlbQ0gyXVtDSDJdNg==

> <s_epik_cmdline>
J2VwaWtfYXBwJywgJy1pbWFlJywgJ2xpZ2FuZF9wcm8ubWFlJywgJy1vbWFlJywgJ2xpZ2FuZF9wcmVwLm1hZScsICctbXMnLCAnMScsICctcGgnLCAnNycsICctcGh0JywgJzAuNScsICctbnQn

> <r_epik_Ionization_Penalty>
  0.0661

> <r_epik_Ionization_Penalty_Charging>
  0.0647

> <r_epik_Ionization_Penalty_Neutral>
  0.0013

> <r_epik_State_Penalty>
  0.0000

> <r_epik_Charging_Adjusted_Penalty>
0.0647487455829113

> <i_epik_Tot_Q>
3

> <i_epik_Tot_abs_Q>
3

> <s_epik_Chemistry_Notes>
This compound has an imine and may undergo hydrolysis.

$$$$
