3f07_ligand
                    3D
 Schrodinger Suite 2020-3.
 37 38  0  0  1  0            999 V2000
  -27.3910   31.0390  -40.1790 N   0  0  0  0  0  0
  -22.6810   31.9490  -45.4140 C   0  0  0  0  0  0
  -29.3170   25.1940  -38.5060 N   0  0  0  0  0  0
  -21.6490   32.1850  -43.1150 C   0  0  0  0  0  0
  -22.8920   31.7590  -42.4440 C   0  0  0  0  0  0
  -24.0350   31.4280  -43.3290 C   0  0  0  0  0  0
  -30.3160   24.3350  -38.3920 O   0  0  0  0  0  0
  -30.6400   26.8100  -39.2920 O   0  0  0  0  0  0
  -23.3360   31.4600  -38.5510 O   0  0  0  0  0  0
  -23.9330   31.5200  -44.7930 C   0  0  0  0  0  0
  -21.5320   32.2840  -44.5650 C   0  0  0  0  0  0
  -22.7960   31.7270  -40.8910 C   0  0  0  0  0  0
  -23.7630   31.3790  -39.6860 C   0  0  0  0  0  0
  -25.2330   30.9450  -39.7890 C   0  0  0  0  0  0
  -26.2540   31.7800  -40.2470 C   0  0  0  0  0  0
  -28.6860   31.6210  -40.5910 C   0  0  0  0  0  0
  -27.2160   29.7150  -39.6950 C   0  0  0  0  0  0
  -25.8260   29.6680  -39.4450 C   0  0  0  0  0  0
  -28.3030   28.6660  -39.5160 C   0  0  0  0  0  0
  -28.2540   27.3420  -39.0520 C   0  0  0  0  0  0
  -29.5150   26.4580  -38.9710 C   0  0  0  0  0  0
  -22.6017   32.0194  -46.4988 H   0  0  0  0  0  0
  -28.2978   24.8931  -38.2221 H   0  0  0  0  0  0
  -20.7833   32.4358  -42.5021 H   0  0  0  0  0  0
  -24.9762   31.1078  -42.8821 H   0  0  0  0  0  0
  -24.7915   31.2682  -45.4157 H   0  0  0  0  0  0
  -20.5938   32.6059  -45.0170 H   0  0  0  0  0  0
  -22.0131   31.0167  -40.5866 H   0  0  0  0  0  0
  -22.5451   32.7311  -40.5184 H   0  0  0  0  0  0
  -26.1589   32.8109  -40.5879 H   0  0  0  0  0  0
  -28.5327   32.6585  -40.9228 H   0  0  0  0  0  0
  -29.3817   31.6074  -39.7390 H   0  0  0  0  0  0
  -29.1071   31.0301  -41.4177 H   0  0  0  0  0  0
  -25.2845   28.8063  -39.0546 H   0  0  0  0  0  0
  -29.2625   29.1044  -39.8277 H   0  0  0  0  0  0
  -27.2958   26.9062  -38.7327 H   0  0  0  0  0  0
  -30.1277   23.3196  -38.0132 H   0  0  0  0  0  0
  1 15  1  0  0  0
  1 16  1  0  0  0
  1 17  1  0  0  0
  2 10  2  0  0  0
  2 11  1  0  0  0
  2 22  1  0  0  0
  3  7  1  0  0  0
  3 21  1  0  0  0
  3 23  1  0  0  0
  4  5  1  0  0  0
  4 11  2  0  0  0
  4 24  1  0  0  0
  5  6  2  0  0  0
  5 12  1  0  0  0
  6 10  1  0  0  0
  6 25  1  0  0  0
  7 37  1  0  0  0
  8 21  2  0  0  0
  9 13  2  0  0  0
 10 26  1  0  0  0
 11 27  1  0  0  0
 12 13  1  0  0  0
 12 28  1  0  0  0
 12 29  1  0  0  0
 13 14  1  0  0  0
 14 15  2  0  0  0
 14 18  1  0  0  0
 15 30  1  0  0  0
 16 31  1  0  0  0
 16 32  1  0  0  0
 16 33  1  0  0  0
 17 18  2  0  0  0
 17 19  1  0  0  0
 18 34  1  0  0  0
 19 20  2  0  0  0
 19 35  1  0  0  0
 20 21  1  0  0  0
 20 36  1  0  0  0
M  END
> <s_m_source_file>
../3f07_ligand.sdf

> <i_m_source_file_index>
1

> <s_epik_input>
W09IXVtOSF1DKD1PKVxbQ0hdPVtDSF1cYzFbY0hdYyhbY0hdbjFbQ0gzXSlDKD1PKVtDSDJdYzJbY0hdW2NIXVtjSF1bY0hdW2NIXTI=

> <s_epik_cmdline>
J2VwaWtfYXBwJywgJy1pbWFlJywgJ2xpZ2FuZF9wcm8ubWFlJywgJy1vbWFlJywgJ2xpZ2FuZF9wcmVwLm1hZScsICctbXMnLCAnMScsICctcGgnLCAnNycsICctcGh0JywgJzAuNScsICctbnQn

> <r_lp_tautomer_probability>
0.99990000499975

> <r_epik_Ionization_Penalty>
  0.0209

> <r_epik_Ionization_Penalty_Charging>
  0.0000

> <r_epik_Ionization_Penalty_Neutral>
  0.0209

> <r_epik_State_Penalty>
  0.0306

> <r_epik_Charging_Adjusted_Penalty>
0.0306053893316601

> <i_epik_Tot_Q>
0

> <i_epik_Tot_abs_Q>
0

> <s_epik_Chemistry_Notes>
This compound has a N-S or N-O group and may undergo hydrolysis at high or low pH.

$$$$
