3f0r_ligand
                    3D
 Schrodinger Suite 2020-3.
 44 44  0  0  1  0            999 V2000
   47.2150   -0.4040   12.0720 O   0  0  0  0  0  0
   45.6310    0.8080   10.2230 O   0  0  0  0  0  0
   40.5610   -0.6150    5.5460 O   0  0  0  0  0  0
   45.9190   -0.8560   11.7090 N   0  0  0  0  0  0
   35.7150   -4.9800    4.8270 N   0  0  0  0  0  0
   38.6440   -1.9690    5.9650 C   0  0  0  0  0  0
   38.7160   -2.6310    4.6490 C   0  0  0  0  0  0
   37.7700   -3.6090    4.2770 C   0  0  0  0  0  0
   36.6930   -3.9870    5.1960 C   0  0  0  0  0  0
   36.6250   -3.3290    6.5080 C   0  0  0  0  0  0
   37.5670   -2.3530    6.8840 C   0  0  0  0  0  0
   39.6640   -0.9180    6.3470 C   0  0  0  0  0  0
   39.6050   -0.2170    7.7210 C   0  0  1  0  0  0
   41.0080    0.0870    8.2430 C   0  0  0  0  0  0
   41.6780   -0.6290    9.1860 C   0  0  0  0  0  0
   43.0330   -0.1350    9.5320 C   0  0  0  0  0  0
   43.8460   -0.7270   10.4550 C   0  0  0  0  0  0
   45.1820   -0.2010   10.7770 C   0  0  0  0  0  0
   38.8170    1.0970    7.6160 C   0  0  0  0  0  0
   41.0750   -1.8740    9.8600 C   0  0  0  0  0  0
   35.7630   -5.6520    3.5110 C   0  0  0  0  0  0
   34.6150   -5.3640    5.7550 C   0  0  0  0  0  0
   45.4955   -1.7522   12.1859 H   0  0  0  0  0  0
   39.5112   -2.3608    3.9542 H   0  0  0  0  0  0
   37.8406   -4.0866    3.2997 H   0  0  0  0  0  0
   35.8306   -3.6016    7.2028 H   0  0  0  0  0  0
   37.4958   -1.8799    7.8634 H   0  0  0  0  0  0
   39.1064   -0.8954    8.4290 H   0  0  0  0  0  0
   41.4775    0.9713    7.7873 H   0  0  0  0  0  0
   43.3728    0.7631    8.9953 H   0  0  0  0  0  0
   43.5089   -1.6289   10.9869 H   0  0  0  0  0  0
   37.8043    0.8882    7.2406 H   0  0  0  0  0  0
   39.3317    1.7788    6.9230 H   0  0  0  0  0  0
   38.7506    1.5651    8.6092 H   0  0  0  0  0  0
   40.0687   -2.0586    9.4558 H   0  0  0  0  0  0
   41.0094   -1.7078   10.9454 H   0  0  0  0  0  0
   41.7158   -2.7455    9.6605 H   0  0  0  0  0  0
   36.6207   -5.2722    2.9364 H   0  0  0  0  0  0
   34.8330   -5.4469    2.9605 H   0  0  0  0  0  0
   35.8710   -6.7369    3.6570 H   0  0  0  0  0  0
   34.7046   -4.7882    6.6879 H   0  0  0  0  0  0
   34.6831   -6.4387    5.9795 H   0  0  0  0  0  0
   33.6451   -5.1487    5.2829 H   0  0  0  0  0  0
   47.7956   -0.9500   12.8301 H   0  0  0  0  0  0
  1  4  1  0  0  0
  1 44  1  0  0  0
  2 18  2  0  0  0
  3 12  2  0  0  0
  4 18  1  0  0  0
  4 23  1  0  0  0
  5  9  1  0  0  0
  5 21  1  0  0  0
  5 22  1  0  0  0
  6  7  2  0  0  0
  6 11  1  0  0  0
  6 12  1  0  0  0
  7  8  1  0  0  0
  7 24  1  0  0  0
  8  9  2  0  0  0
  8 25  1  0  0  0
  9 10  1  0  0  0
 10 11  2  0  0  0
 10 26  1  0  0  0
 11 27  1  0  0  0
 12 13  1  0  0  0
 13 14  1  0  0  0
 13 19  1  0  0  0
 13 28  1  0  0  0
 14 15  2  0  0  0
 14 29  1  0  0  0
 15 16  1  0  0  0
 15 20  1  0  0  0
 16 17  2  0  0  0
 16 30  1  0  0  0
 17 18  1  0  0  0
 17 31  1  0  0  0
 19 32  1  0  0  0
 19 33  1  0  0  0
 19 34  1  0  0  0
 20 35  1  0  0  0
 20 36  1  0  0  0
 20 37  1  0  0  0
 21 38  1  0  0  0
 21 39  1  0  0  0
 21 40  1  0  0  0
 22 41  1  0  0  0
 22 42  1  0  0  0
 22 43  1  0  0  0
M  END
> <s_m_source_file>
../3f0r_ligand.sdf

> <i_m_source_file_index>
1

> <s_epik_input>
W09IXVtOSF1DKD1PKVxbQ0hdPVtDSF1cQyhbQ0gzXSk9W0NIXVxbQ0BASF0oW0NIM10pQyg9TyljMVtjSF1bY0hdYyhOKFtDSDNdKVtDSDNdKVtjSF1bY0hdMQ==

> <s_epik_cmdline>
J2VwaWtfYXBwJywgJy1pbWFlJywgJ2xpZ2FuZF9wcm8ubWFlJywgJy1vbWFlJywgJ2xpZ2FuZF9wcmVwLm1hZScsICctbXMnLCAnMScsICctcGgnLCAnNycsICctcGh0JywgJzAuNScsICctbnQn

> <r_epik_Ionization_Penalty>
  0.0196

> <r_epik_Ionization_Penalty_Charging>
  0.0000

> <r_epik_Ionization_Penalty_Neutral>
  0.0196

> <r_epik_State_Penalty>
  0.0319

> <r_epik_Charging_Adjusted_Penalty>
0.0318907532779766

> <i_epik_Tot_Q>
0

> <i_epik_Tot_abs_Q>
0

> <s_epik_Chemistry_Notes>
This compound has a N-S or N-O group and may undergo hydrolysis at high or low pH.

$$$$
