3f15_ligand
                    3D
 Schrodinger Suite 2020-3.
 40 40  0  0  1  0            999 V2000
   -1.9550   -5.0850   -3.7950 N   0  0  2  0  0  0
   -4.9290   -6.6750   -6.9970 C   0  0  0  0  0  0
   -1.6140   -2.1030   -5.3110 N   0  0  0  0  0  0
   -4.7400   -5.8430   -8.1050 C   0  0  0  0  0  0
   -2.5590   -5.1750   -7.2270 C   0  0  0  0  0  0
   -1.6090   -5.9850   -1.3390 C   0  0  2  0  0  0
   -1.6050   -7.5090   -4.5700 O   0  0  0  0  0  0
   -0.3230   -5.8060   -5.5920 O   0  0  0  0  0  0
   -5.6780   -5.7400   -9.1140 O   0  0  0  0  0  0
   -1.5030   -8.3040   -1.8940 O   0  0  0  0  0  0
   -3.2590   -2.8540   -4.0040 O   0  0  0  0  0  0
   -2.0750   -2.8940   -4.3480 C   0  0  0  0  0  0
   -2.4990   -1.1930   -5.8960 O   0  0  0  0  0  0
   -1.1100   -3.8820   -3.7080 C   0  0  0  0  0  0
   -2.4980   -5.6870   -2.5450 C   0  0  0  0  0  0
   -0.8500   -4.8410   -0.9580 O   0  0  0  0  0  0
   -0.6870   -7.1540   -1.6500 C   0  0  0  0  0  0
   -1.5910   -6.1300   -4.9960 S   0  0  0  0  0  0
   -2.7440   -5.9980   -6.1110 C   0  0  0  0  0  0
   -3.5520   -5.0970   -8.2130 C   0  0  0  0  0  0
   -6.6590   -6.7570   -9.3570 C   0  0  0  0  0  0
   -3.9320   -6.7500   -6.0100 C   0  0  0  0  0  0
   -5.8430   -7.2609   -6.8999 H   0  0  0  0  0  0
   -0.5687   -2.1495   -5.6505 H   0  0  0  0  0  0
   -1.6423   -4.5943   -7.3298 H   0  0  0  0  0  0
   -2.2262   -6.1978   -0.4537 H   0  0  0  0  0  0
   -1.0347   -9.2685   -2.1401 H   0  0  0  0  0  0
   -2.1503   -0.5233   -6.6959 H   0  0  0  0  0  0
   -0.8714   -3.6770   -2.6539 H   0  0  0  0  0  0
   -0.1785   -4.0468   -4.2694 H   0  0  0  0  0  0
   -3.2695   -5.0252   -2.1244 H   0  0  0  0  0  0
   -2.9407   -6.6679   -2.7727 H   0  0  0  0  0  0
   -1.3621   -3.9029   -0.6979 H   0  0  0  0  0  0
   -0.0841   -6.9189   -2.5395 H   0  0  0  0  0  0
   -0.0213   -7.3340   -0.7930 H   0  0  0  0  0  0
   -3.4017   -4.4488   -9.0763 H   0  0  0  0  0  0
   -7.2937   -6.4591  -10.2046 H   0  0  0  0  0  0
   -7.2823   -6.8870   -8.4600 H   0  0  0  0  0  0
   -6.1536   -7.7051   -9.5928 H   0  0  0  0  0  0
   -4.0800   -7.4024   -5.1494 H   0  0  0  0  0  0
  1 14  1  0  0  0
  1 15  1  0  0  0
  1 18  1  0  0  0
  2  4  2  0  0  0
  2 22  1  0  0  0
  2 23  1  0  0  0
  3 12  1  0  0  0
  3 13  1  0  0  0
  3 24  1  0  0  0
  4  9  1  0  0  0
  4 20  1  0  0  0
  5 19  1  0  0  0
  5 20  2  0  0  0
  5 25  1  0  0  0
  6 15  1  0  0  0
  6 16  1  0  0  0
  6 17  1  0  0  0
  6 26  1  0  0  0
  7 18  2  0  0  0
  8 18  2  0  0  0
  9 21  1  0  0  0
 10 17  1  0  0  0
 10 27  1  0  0  0
 11 12  2  0  0  0
 12 14  1  0  0  0
 13 28  1  0  0  0
 14 29  1  0  0  0
 14 30  1  0  0  0
 15 31  1  0  0  0
 15 32  1  0  0  0
 16 33  1  0  0  0
 17 34  1  0  0  0
 17 35  1  0  0  0
 18 19  1  0  0  0
 19 22  2  0  0  0
 20 36  1  0  0  0
 21 37  1  0  0  0
 21 38  1  0  0  0
 21 39  1  0  0  0
 22 40  1  0  0  0
M  END
> <s_m_source_file>
../3f15_ligand.sdf

> <i_m_source_file_index>
1

> <s_epik_input>
W09IXVtDSDJdW0NAQEhdKFtPSF0pW0NIMl1OKFtDSDJdQyg9TylbTkhdW09IXSlTKD1PKSg9TyljKFtjSF1bY0hdMSlbY0hdW2NIXWMxT1tDSDNd

> <s_epik_cmdline>
J2VwaWtfYXBwJywgJy1pbWFlJywgJ2xpZ2FuZF9wcm8ubWFlJywgJy1vbWFlJywgJ2xpZ2FuZF9wcmVwLm1hZScsICctbXMnLCAnMScsICctcGgnLCAnNycsICctcGh0JywgJzAuNScsICctbnQn

> <r_lp_tautomer_probability>
1

> <r_epik_Ionization_Penalty>
  0.0156

> <r_epik_Ionization_Penalty_Charging>
  0.0000

> <r_epik_Ionization_Penalty_Neutral>
  0.0156

> <r_epik_State_Penalty>
  0.0123

> <r_epik_Charging_Adjusted_Penalty>
0.0122702702250063

> <i_epik_Tot_Q>
0

> <i_epik_Tot_abs_Q>
0

> <s_epik_Chemistry_Notes>
This compound has a N-S or N-O group and may undergo hydrolysis at high or low pH.

$$$$
