3f16_ligand
                    3D
 Schrodinger Suite 2020-3.
 33 33  0  0  1  0            999 V2000
   -4.0330   -3.1390   -4.2650 O   0  0  0  0  0  0
   -2.8350   -3.2600   -4.3480 C   0  0  0  0  0  0
   -2.1170   -2.5480   -5.2300 N   0  0  0  0  0  0
   -2.7970   -1.5770   -5.9840 O   0  0  0  0  0  0
   -1.7820   -4.2410   -3.7640 C   0  0  1  0  0  0
   -1.3610   -4.0100   -2.4770 C   0  0  0  0  0  0
   -2.5240   -3.6340   -1.6980 O   0  0  0  0  0  0
   -2.3020   -5.6730   -3.6680 N   0  0  3  0  0  0
   -1.9000   -6.4430   -5.0230 S   0  0  0  0  0  0
   -1.8310   -7.8360   -4.6690 O   0  0  0  0  0  0
   -0.6020   -5.9870   -5.4460 O   0  0  0  0  0  0
   -2.9500   -6.2610   -6.2420 C   0  0  0  0  0  0
   -4.0980   -7.0610   -6.3130 C   0  0  0  0  0  0
   -5.0090   -6.9350   -7.3650 C   0  0  0  0  0  0
   -4.7760   -6.0080   -8.3880 C   0  0  0  0  0  0
   -3.6300   -5.2120   -8.3300 C   0  0  0  0  0  0
   -2.7210   -5.3390   -7.2740 C   0  0  0  0  0  0
   -5.6410   -5.8620   -9.4510 O   0  0  0  0  0  0
   -6.7410   -6.7420   -9.6840 C   0  0  0  0  0  0
   -1.0373   -2.7002   -5.3750 H   0  0  0  0  0  0
   -2.2497   -0.9690   -6.7194 H   0  0  0  0  0  0
   -0.8891   -4.0705   -4.3833 H   0  0  0  0  0  0
   -0.9059   -4.9251   -2.0703 H   0  0  0  0  0  0
   -0.6182   -3.1986   -2.4742 H   0  0  0  0  0  0
   -2.4176   -3.4014   -0.6281 H   0  0  0  0  0  0
   -2.6977   -6.0517   -2.7140 H   0  0  0  0  0  0
   -4.2844   -7.7972   -5.5311 H   0  0  0  0  0  0
   -5.9022   -7.5592   -7.3892 H   0  0  0  0  0  0
   -3.4413   -4.4824   -9.1175 H   0  0  0  0  0  0
   -1.8269   -4.7159   -7.2531 H   0  0  0  0  0  0
   -7.2811   -6.4225  -10.5874 H   0  0  0  0  0  0
   -7.4220   -6.7143   -8.8206 H   0  0  0  0  0  0
   -6.3673   -7.7671   -9.8235 H   0  0  0  0  0  0
  1  2  2  0  0  0
  2  3  1  0  0  0
  2  5  1  0  0  0
  3  4  1  0  0  0
  3 20  1  0  0  0
  4 21  1  0  0  0
  5  6  1  0  0  0
  5  8  1  0  0  0
  5 22  1  0  0  0
  6  7  1  0  0  0
  6 23  1  0  0  0
  6 24  1  0  0  0
  7 25  1  0  0  0
  8  9  1  0  0  0
  8 26  1  0  0  0
  9 10  2  0  0  0
  9 11  2  0  0  0
  9 12  1  0  0  0
 12 13  2  0  0  0
 12 17  1  0  0  0
 13 14  1  0  0  0
 13 27  1  0  0  0
 14 15  2  0  0  0
 14 28  1  0  0  0
 15 16  1  0  0  0
 15 18  1  0  0  0
 16 17  2  0  0  0
 16 29  1  0  0  0
 17 30  1  0  0  0
 18 19  1  0  0  0
 19 31  1  0  0  0
 19 32  1  0  0  0
 19 33  1  0  0  0
M  END
> <s_m_source_file>
../3f16_ligand.sdf

> <i_m_source_file_index>
1

> <s_epik_input>
W09IXVtOSF1DKD1PKVtDQEBIXShbQ0gyXVtPSF0pW05IXVMoPU8pKD1PKWMxW2NIXVtjSF1jKFtjSF1bY0hdMSlPW0NIM10=

> <s_epik_cmdline>
J2VwaWtfYXBwJywgJy1pbWFlJywgJ2xpZ2FuZF9wcm8ubWFlJywgJy1vbWFlJywgJ2xpZ2FuZF9wcmVwLm1hZScsICctbXMnLCAnMScsICctcGgnLCAnNycsICctcGh0JywgJzAuNScsICctbnQn

> <r_lp_tautomer_probability>
1

> <r_epik_Ionization_Penalty>
  0.0212

> <r_epik_Ionization_Penalty_Charging>
  0.0000

> <r_epik_Ionization_Penalty_Neutral>
  0.0212

> <r_epik_State_Penalty>
  0.0166

> <r_epik_Charging_Adjusted_Penalty>
0.0166325996071136

> <i_epik_Tot_Q>
0

> <i_epik_Tot_abs_Q>
0

> <s_epik_Chemistry_Notes>
This compound has a N-S or N-O group and may undergo hydrolysis at high or low pH.

$$$$
