3f2a_ligand
                    3D
 Schrodinger Suite 2020-3.
 47 49  0  0  1  0            999 V2000
   73.3120   36.8670    2.3800 C   0  0  0  0  0  0
   73.9550   35.7990    3.0270 N   0  0  0  0  0  0
   74.0510   35.6590    4.3900 C   0  0  0  0  0  0
   73.4500   36.6740    5.1930 C   0  0  0  0  0  0
   72.8280   37.7060    4.5700 N   0  0  0  0  0  0
   72.7300   37.8510    3.2270 C   0  0  0  0  0  0
   74.7200   34.5550    4.9160 N   0  0  0  0  0  0
   75.6310   33.7940    4.0240 C   0  0  0  0  0  0
   75.0250   32.4830    3.4600 C   0  0  0  0  0  0
   73.7600   32.0960    4.1430 N   0  3  2  0  0  0
   74.0560   31.7080    5.5420 C   0  0  0  0  0  0
   73.7190   32.8540    6.5160 C   0  0  0  0  0  0
   74.5730   34.1330    6.3410 C   0  0  0  0  0  0
   73.1670   30.9460    3.4390 C   0  0  0  0  0  0
   73.1610   36.8120   -2.0030 C   0  0  0  0  0  0
   72.9670   38.0650   -1.3260 C   0  0  0  0  0  0
   73.0170   38.1010    0.1070 C   0  0  0  0  0  0
   73.2600   36.9040    0.8740 C   0  0  0  0  0  0
   73.4510   35.6720    0.1690 C   0  0  0  0  0  0
   73.4050   35.6140   -1.2590 C   0  0  0  0  0  0
   73.6000   34.3320   -1.9840 C   0  0  0  0  0  0
   74.1240   33.1950   -1.4270 C   0  0  0  0  0  0
   74.2780   31.9400   -2.2050 C   0  0  0  0  0  0
   74.9620   31.0730   -1.7560 O   0  0  0  0  0  0
   73.6240   31.8170   -3.3860 O   0  5  0  0  0  0
   73.4898   36.6213    6.2810 H   0  0  0  0  0  0
   72.2121   38.7102    2.8007 H   0  0  0  0  0  0
   75.9053   34.4185    3.1610 H   0  0  0  0  0  0
   76.5392   33.5157    4.5787 H   0  0  0  0  0  0
   74.8050   32.6114    2.3899 H   0  0  0  0  0  0
   75.7441   31.6608    3.5904 H   0  0  0  0  0  0
   73.0520   32.9378    4.1342 H   0  0  0  0  0  0
   73.4559   30.8268    5.8129 H   0  0  0  0  0  0
   75.1250   31.4669    5.6373 H   0  0  0  0  0  0
   72.6697   33.1545    6.3795 H   0  0  0  0  0  0
   73.8710   32.5126    7.5506 H   0  0  0  0  0  0
   75.5663   33.9289    6.7673 H   0  0  0  0  0  0
   74.0866   34.9368    6.9132 H   0  0  0  0  0  0
   72.9447   31.2276    2.3991 H   0  0  0  0  0  0
   72.2371   30.6464    3.9445 H   0  0  0  0  0  0
   73.8763   30.1053    3.4476 H   0  0  0  0  0  0
   73.1220   36.7739   -3.0916 H   0  0  0  0  0  0
   72.7841   38.9767   -1.8947 H   0  0  0  0  0  0
   72.8689   39.0486    0.6249 H   0  0  0  0  0  0
   73.6356   34.7581    0.7337 H   0  0  0  0  0  0
   73.2903   34.3350   -3.0395 H   0  0  0  0  0  0
   74.4445   33.1954   -0.3747 H   0  0  0  0  0  0
  1  2  2  0  0  0
  1  6  1  0  0  0
  1 18  1  0  0  0
  2  3  1  0  0  0
  3  4  2  0  0  0
  3  7  1  0  0  0
  4  5  1  0  0  0
  4 26  1  0  0  0
  5  6  2  0  0  0
  6 27  1  0  0  0
  7  8  1  0  0  0
  7 13  1  0  0  0
  8  9  1  0  0  0
  8 28  1  0  0  0
  8 29  1  0  0  0
  9 10  1  0  0  0
  9 30  1  0  0  0
  9 31  1  0  0  0
 10 11  1  0  0  0
 10 14  1  0  0  0
 10 32  1  0  0  0
 11 12  1  0  0  0
 11 33  1  0  0  0
 11 34  1  0  0  0
 12 13  1  0  0  0
 12 35  1  0  0  0
 12 36  1  0  0  0
 13 37  1  0  0  0
 13 38  1  0  0  0
 14 39  1  0  0  0
 14 40  1  0  0  0
 14 41  1  0  0  0
 15 16  2  0  0  0
 15 20  1  0  0  0
 15 42  1  0  0  0
 16 17  1  0  0  0
 16 43  1  0  0  0
 17 18  2  0  0  0
 17 44  1  0  0  0
 18 19  1  0  0  0
 19 20  2  0  0  0
 19 45  1  0  0  0
 20 21  1  0  0  0
 21 22  2  0  0  0
 21 46  1  0  0  0
 22 23  1  0  0  0
 22 47  1  0  0  0
 23 24  2  0  0  0
 23 25  1  0  0  0
M  CHG  2  10   1  25  -1
M  END
> <s_m_source_file>
../3f2a_ligand.sdf

> <i_m_source_file_index>
1

> <s_epik_input>
Tz1DKFtPSF0pXFtDSF09W0NIXVxjKFtjSF0xKVtjSF1bY0hdW2NIXWMxLWMybmMoW2NIXW5bY0hdMilOM1tDSDJdW0NIMl1bTkBASCtdKFtDSDNdKVtDSDJdW0NIMl1bQ0gyXTM=

> <s_epik_cmdline>
J2VwaWtfYXBwJywgJy1pbWFlJywgJ2xpZ2FuZF9wcm8ubWFlJywgJy1vbWFlJywgJ2xpZ2FuZF9wcmVwLm1hZScsICctbXMnLCAnMScsICctcGgnLCAnNycsICctcGh0JywgJzAuNScsICctbnQn

> <r_lp_tautomer_probability>
1

> <r_epik_Ionization_Penalty>
  0.0039

> <r_epik_Ionization_Penalty_Charging>
  0.0039

> <r_epik_Ionization_Penalty_Neutral>
  0.0000

> <r_epik_State_Penalty>
 -0.0000

> <r_epik_Charging_Adjusted_Penalty>
0.00389516972921906

> <i_epik_Tot_Q>
0

> <i_epik_Tot_abs_Q>
2

$$$$
