3f33_ligand
                    3D
 Schrodinger Suite 2020-3.
 31 31  0  0  1  0            999 V2000
   33.5450    0.2120   33.8030 O   0  0  0  0  0  0
   33.8650    0.0430   35.0750 C   0  0  0  0  0  0
   32.8920   -0.0840   36.0670 C   0  0  0  0  0  0
   35.2210    0.0040   35.3720 C   0  0  0  0  0  0
   33.3130   -0.2580   37.3760 C   0  0  0  0  0  0
   31.3690   -0.0410   35.8070 C   0  0  0  0  0  0
   34.6680   -0.3090   37.6830 C   0  0  0  0  0  0
   35.6250   -0.1810   36.6810 C   0  0  0  0  0  0
   36.2680    0.1270   34.2530 C   0  0  0  0  0  0
   30.8180   -1.4590   35.6570 C   0  0  0  0  0  0
   31.0190    0.8010   34.5870 C   0  0  0  0  0  0
   36.9660   -1.2240   34.0840 C   0  0  0  0  0  0
   37.2920    1.2120   34.6000 C   0  0  0  0  0  0
   32.4876    0.2516   33.5024 H   0  0  0  0  0  0
   32.5749   -0.3558   38.1721 H   0  0  0  0  0  0
   30.8855    0.4402   36.6699 H   0  0  0  0  0  0
   34.9832   -0.4504   38.7168 H   0  0  0  0  0  0
   36.6860   -0.2263   36.9266 H   0  0  0  0  0  0
   35.7773    0.4098   33.3100 H   0  0  0  0  0  0
   31.0807   -2.0504   36.5465 H   0  0  0  0  0  0
   31.2532   -1.9288   34.7626 H   0  0  0  0  0  0
   29.7236   -1.4181   35.5539 H   0  0  0  0  0  0
   31.4235    1.8161   34.7138 H   0  0  0  0  0  0
   29.9256    0.8528   34.4787 H   0  0  0  0  0  0
   31.4552    0.3422   33.6874 H   0  0  0  0  0  0
   36.2202   -1.9934   33.8353 H   0  0  0  0  0  0
   37.4732   -1.4945   35.0219 H   0  0  0  0  0  0
   37.7063   -1.1553   33.2733 H   0  0  0  0  0  0
   36.7777    2.1771   34.7186 H   0  0  0  0  0  0
   38.0334    1.2886   33.7910 H   0  0  0  0  0  0
   37.8003    0.9494   35.5395 H   0  0  0  0  0  0
  1  2  1  0  0  0
  1 14  1  0  0  0
  2  3  2  0  0  0
  2  4  1  0  0  0
  3  5  1  0  0  0
  3  6  1  0  0  0
  4  8  2  0  0  0
  4  9  1  0  0  0
  5  7  2  0  0  0
  5 15  1  0  0  0
  6 10  1  0  0  0
  6 11  1  0  0  0
  6 16  1  0  0  0
  7  8  1  0  0  0
  7 17  1  0  0  0
  8 18  1  0  0  0
  9 12  1  0  0  0
  9 13  1  0  0  0
  9 19  1  0  0  0
 10 20  1  0  0  0
 10 21  1  0  0  0
 10 22  1  0  0  0
 11 23  1  0  0  0
 11 24  1  0  0  0
 11 25  1  0  0  0
 12 26  1  0  0  0
 12 27  1  0  0  0
 12 28  1  0  0  0
 13 29  1  0  0  0
 13 30  1  0  0  0
 13 31  1  0  0  0
M  END
> <s_m_source_file>
../3f33_ligand.sdf

> <i_m_source_file_index>
1

> <s_epik_input>
W09IXWMxYyhbQ0hdKFtDSDNdKVtDSDNdKVtjSF1bY0hdW2NIXWMxW0NIXShbQ0gzXSlbQ0gzXQ==

> <s_epik_cmdline>
J2VwaWtfYXBwJywgJy1pbWFlJywgJ2xpZ2FuZF9wcm8ubWFlJywgJy1vbWFlJywgJ2xpZ2FuZF9wcmVwLm1hZScsICctbXMnLCAnMScsICctcGgnLCAnNycsICctcGh0JywgJzAuNScsICctbnQn

> <r_lp_tautomer_probability>
1

> <r_epik_Ionization_Penalty>
  0.0000

> <r_epik_Ionization_Penalty_Charging>
  0.0000

> <r_epik_Ionization_Penalty_Neutral>
  0.0000

> <r_epik_State_Penalty>
 -0.0000

> <r_epik_Charging_Adjusted_Penalty>
0

> <i_epik_Tot_Q>
0

> <i_epik_Tot_abs_Q>
0

$$$$
