3f35_ligand
                    3D
 Schrodinger Suite 2020-3.
 25 25  0  0  1  0            999 V2000
   30.7170    0.3960   34.5790 C   0  0  0  0  0  0
   31.4170   -0.5670   35.5430 C   0  0  0  0  0  0
   32.9440   -0.3920   35.6750 C   0  0  0  0  0  0
   33.3130   -0.1120   36.9820 C   0  0  0  0  0  0
   34.6390    0.0730   37.3100 C   0  0  0  0  0  0
   35.6320   -0.0290   36.3440 C   0  0  0  0  0  0
   35.3090   -0.3220   35.0320 C   0  0  0  0  0  0
   36.4360   -0.4270   33.9920 C   0  0  0  0  0  0
   35.9730    0.0360   32.5990 C   0  0  0  0  0  0
   33.9780   -0.5020   34.7160 C   0  0  0  0  0  0
   33.8260   -0.7830   33.4170 O   0  0  0  0  0  0
   29.6383    0.1810   34.5649 H   0  0  0  0  0  0
   31.1299    0.2669   33.5676 H   0  0  0  0  0  0
   30.8802    1.4315   34.9123 H   0  0  0  0  0  0
   31.0041   -0.4379   36.5544 H   0  0  0  0  0  0
   31.2538   -1.6025   35.2097 H   0  0  0  0  0  0
   32.5489   -0.0376   37.7557 H   0  0  0  0  0  0
   34.9117    0.3022   38.3401 H   0  0  0  0  0  0
   36.6747    0.1233   36.6227 H   0  0  0  0  0  0
   37.2815    0.2045   34.3025 H   0  0  0  0  0  0
   36.7682   -1.4729   33.9156 H   0  0  0  0  0  0
   36.8063   -0.0547   31.8867 H   0  0  0  0  0  0
   35.6476    1.0855   32.6509 H   0  0  0  0  0  0
   35.1342   -0.5919   32.2640 H   0  0  0  0  0  0
   32.8205   -0.9546   33.0054 H   0  0  0  0  0  0
  1  2  1  0  0  0
  1 12  1  0  0  0
  1 13  1  0  0  0
  1 14  1  0  0  0
  2  3  1  0  0  0
  2 15  1  0  0  0
  2 16  1  0  0  0
  3  4  2  0  0  0
  3 10  1  0  0  0
  4  5  1  0  0  0
  4 17  1  0  0  0
  5  6  2  0  0  0
  5 18  1  0  0  0
  6  7  1  0  0  0
  6 19  1  0  0  0
  7  8  1  0  0  0
  7 10  2  0  0  0
  8  9  1  0  0  0
  8 20  1  0  0  0
  8 21  1  0  0  0
  9 22  1  0  0  0
  9 23  1  0  0  0
  9 24  1  0  0  0
 10 11  1  0  0  0
 11 25  1  0  0  0
M  END
> <s_m_source_file>
../3f35_ligand.sdf

> <i_m_source_file_index>
1

> <s_epik_input>
W0NIM11bQ0gyXWMxW2NIXVtjSF1bY0hdYyhbQ0gyXVtDSDNdKWMxW09IXQ==

> <s_epik_cmdline>
J2VwaWtfYXBwJywgJy1pbWFlJywgJ2xpZ2FuZF9wcm8ubWFlJywgJy1vbWFlJywgJ2xpZ2FuZF9wcmVwLm1hZScsICctbXMnLCAnMScsICctcGgnLCAnNycsICctcGh0JywgJzAuNScsICctbnQn

> <r_lp_tautomer_probability>
1

> <r_epik_Ionization_Penalty>
  0.0002

> <r_epik_Ionization_Penalty_Charging>
  0.0000

> <r_epik_Ionization_Penalty_Neutral>
  0.0002

> <r_epik_State_Penalty>
 -0.0000

> <r_epik_Charging_Adjusted_Penalty>
0

> <i_epik_Tot_Q>
0

> <i_epik_Tot_abs_Q>
0

$$$$
