3f37_ligand
                    3D
 Schrodinger Suite 2020-3.
 19 19  0  0  1  0            999 V2000
   31.4450    0.2680   34.3700 C   0  0  0  0  0  0
   32.6670    0.2810   35.2910 C   0  0  0  0  0  0
   32.5450    0.1430   36.6640 C   0  0  0  0  0  0
   33.6870    0.1310   37.4520 C   0  0  0  0  0  0
   34.9540    0.2190   36.8970 C   0  0  0  0  0  0
   35.0790    0.3230   35.5240 C   0  0  0  0  0  0
   36.4560    0.4190   34.8680 C   0  0  0  0  0  0
   33.9440    0.3410   34.7310 C   0  0  0  0  0  0
   34.1200    0.4390   33.3930 O   0  0  0  0  0  0
   30.5289    0.2187   34.9770 H   0  0  0  0  0  0
   31.4940   -0.6093   33.7082 H   0  0  0  0  0  0
   31.4337    1.1852   33.7629 H   0  0  0  0  0  0
   31.5605    0.0447   37.1213 H   0  0  0  0  0  0
   33.5852    0.0504   38.5342 H   0  0  0  0  0  0
   35.8387    0.2064   37.5335 H   0  0  0  0  0  0
   37.2348    0.3897   35.6443 H   0  0  0  0  0  0
   36.5308    1.3634   34.3090 H   0  0  0  0  0  0
   36.5935   -0.4271   34.1786 H   0  0  0  0  0  0
   33.2475    0.4570   32.7234 H   0  0  0  0  0  0
  1  2  1  0  0  0
  1 10  1  0  0  0
  1 11  1  0  0  0
  1 12  1  0  0  0
  2  3  2  0  0  0
  2  8  1  0  0  0
  3  4  1  0  0  0
  3 13  1  0  0  0
  4  5  2  0  0  0
  4 14  1  0  0  0
  5  6  1  0  0  0
  5 15  1  0  0  0
  6  7  1  0  0  0
  6  8  2  0  0  0
  7 16  1  0  0  0
  7 17  1  0  0  0
  7 18  1  0  0  0
  8  9  1  0  0  0
  9 19  1  0  0  0
M  END
> <s_m_source_file>
../3f37_ligand.sdf

> <i_m_source_file_index>
1

> <s_epik_input>
W0NIM11jMVtjSF1bY0hdW2NIXWMoW0NIM10pYzFbT0hd

> <s_epik_cmdline>
J2VwaWtfYXBwJywgJy1pbWFlJywgJ2xpZ2FuZF9wcm8ubWFlJywgJy1vbWFlJywgJ2xpZ2FuZF9wcmVwLm1hZScsICctbXMnLCAnMScsICctcGgnLCAnNycsICctcGh0JywgJzAuNScsICctbnQn

> <r_lp_tautomer_probability>
1

> <r_epik_Ionization_Penalty>
  0.0001

> <r_epik_Ionization_Penalty_Charging>
  0.0000

> <r_epik_Ionization_Penalty_Neutral>
  0.0001

> <r_epik_State_Penalty>
 -0.0000

> <r_epik_Charging_Adjusted_Penalty>
0

> <i_epik_Tot_Q>
0

> <i_epik_Tot_abs_Q>
0

$$$$
