3f38_ligand
                    3D
 Schrodinger Suite 2020-3.
 19 19  0  0  1  0            999 V2000
   31.3580   -0.0500   34.9490 C   0  0  0  0  0  0
   32.7790   -0.0870   35.5060 C   0  0  0  0  0  0
   32.9720   -0.1640   36.8760 C   0  0  0  0  0  0
   34.2570   -0.2010   37.3960 C   0  0  0  0  0  0
   35.3520   -0.1570   36.5410 C   0  0  0  0  0  0
   35.1600   -0.0830   35.1600 C   0  0  0  0  0  0
   36.3700   -0.0350   34.2200 C   0  0  0  0  0  0
   33.8710   -0.0430   34.6420 C   0  0  0  0  0  0
   33.6600    0.0310   33.2870 O   0  0  0  0  0  0
   30.6376   -0.0936   35.7791 H   0  0  0  0  0  0
   31.2027   -0.9116   34.2830 H   0  0  0  0  0  0
   31.2100    0.8819   34.3836 H   0  0  0  0  0  0
   32.1127   -0.1955   37.5458 H   0  0  0  0  0  0
   34.4081   -0.2645   38.4736 H   0  0  0  0  0  0
   36.3624   -0.1803   36.9493 H   0  0  0  0  0  0
   37.2961   -0.0769   34.8121 H   0  0  0  0  0  0
   36.3472    0.8997   33.6405 H   0  0  0  0  0  0
   36.3348   -0.8933   33.5330 H   0  0  0  0  0  0
   32.6342    0.0620   32.8910 H   0  0  0  0  0  0
  1  2  1  0  0  0
  1 10  1  0  0  0
  1 11  1  0  0  0
  1 12  1  0  0  0
  2  3  2  0  0  0
  2  8  1  0  0  0
  3  4  1  0  0  0
  3 13  1  0  0  0
  4  5  2  0  0  0
  4 14  1  0  0  0
  5  6  1  0  0  0
  5 15  1  0  0  0
  6  7  1  0  0  0
  6  8  2  0  0  0
  7 16  1  0  0  0
  7 17  1  0  0  0
  7 18  1  0  0  0
  8  9  1  0  0  0
  9 19  1  0  0  0
M  END
> <s_m_source_file>
../3f38_ligand.sdf

> <i_m_source_file_index>
1

> <s_epik_input>
W0NIM11jMVtjSF1bY0hdW2NIXWMoW0NIM10pYzFbT0hd

> <s_epik_cmdline>
J2VwaWtfYXBwJywgJy1pbWFlJywgJ2xpZ2FuZF9wcm8ubWFlJywgJy1vbWFlJywgJ2xpZ2FuZF9wcmVwLm1hZScsICctbXMnLCAnMScsICctcGgnLCAnNycsICctcGh0JywgJzAuNScsICctbnQn

> <r_lp_tautomer_probability>
1

> <r_epik_Ionization_Penalty>
  0.0001

> <r_epik_Ionization_Penalty_Charging>
  0.0000

> <r_epik_Ionization_Penalty_Neutral>
  0.0001

> <r_epik_State_Penalty>
 -0.0000

> <r_epik_Charging_Adjusted_Penalty>
0

> <i_epik_Tot_Q>
0

> <i_epik_Tot_abs_Q>
0

$$$$
