3f3t_ligand
                    3D
 Schrodinger Suite 2020-3.
 55 58  0  0  1  0            999 V2000
   -5.3160   35.3030   -9.1670 C   0  0  0  0  0  0
   -5.2040   35.0410  -10.5340 C   0  0  0  0  0  0
   -6.1790   35.5510  -11.3950 C   0  0  0  0  0  0
   -7.2460   36.3230  -10.9300 C   0  0  0  0  0  0
   -7.3510   36.5850   -9.5690 C   0  0  0  0  0  0
   -6.4010   36.0790   -8.6920 C   0  0  0  0  0  0
   -6.5370   36.3470   -7.3330 C   0  0  0  0  0  0
   -5.5930   35.8300   -6.4480 C   0  0  0  0  0  0
   -4.5190   35.0780   -6.9020 C   0  0  0  0  0  0
   -4.3570   34.7970   -8.2690 C   0  0  0  0  0  0
   -3.3200   34.0400   -8.7110 N   0  0  0  0  0  0
   -2.8390   32.9920   -8.0100 C   0  0  0  0  0  0
   -3.3070   32.6940   -6.9070 O   0  0  0  0  0  0
   -1.8200   32.3100   -8.5620 N   0  0  0  0  0  0
   -1.1910   31.2560   -7.9900 C   0  0  0  0  0  0
   -1.7670   30.2030   -7.3820 C   0  0  0  0  0  0
   -0.7350   29.4500   -6.9680 C   0  0  0  0  0  0
   -0.7610   28.0740   -6.2210 C   0  0  0  0  0  0
   -1.4560   27.0300   -7.1120 C   0  0  0  0  0  0
    0.6670   27.6190   -5.9250 C   0  0  0  0  0  0
   -1.4570   28.1530   -4.8590 C   0  0  0  0  0  0
    0.4010   30.0380   -7.3350 N   0  0  0  0  0  0
    0.1480   31.0980   -7.9140 N   0  0  0  0  0  0
    1.1320   31.8850   -8.3950 C   0  0  0  0  0  0
    1.1860   33.2460   -8.1640 C   0  0  0  0  0  0
    2.1700   31.3200   -9.1490 C   0  0  0  0  0  0
    3.2300   32.0820   -9.6820 C   0  0  0  0  0  0
    3.2610   33.4540   -9.4390 C   0  0  0  0  0  0
    2.2330   34.0250   -8.6840 C   0  0  0  0  0  0
    2.2460   35.3370   -8.4280 N   0  0  0  0  0  0
   -4.3733   34.4510  -10.9212 H   0  0  0  0  0  0
   -6.1047   35.3400  -12.4618 H   0  0  0  0  0  0
   -7.9875   36.7153  -11.6260 H   0  0  0  0  0  0
   -8.1776   37.1866   -9.1909 H   0  0  0  0  0  0
   -7.3675   36.9508   -6.9673 H   0  0  0  0  0  0
   -5.7002   36.0197   -5.3800 H   0  0  0  0  0  0
   -3.7892   34.6991   -6.1865 H   0  0  0  0  0  0
   -2.8402   34.2725   -9.6731 H   0  0  0  0  0  0
   -1.4381   32.5979   -9.5526 H   0  0  0  0  0  0
   -2.8313   30.0056   -7.2543 H   0  0  0  0  0  0
   -0.9475   26.9827   -8.0863 H   0  0  0  0  0  0
   -2.5075   27.3167   -7.2607 H   0  0  0  0  0  0
   -1.4099   26.0443   -6.6260 H   0  0  0  0  0  0
    1.2294   27.5401   -6.8671 H   0  0  0  0  0  0
    0.6437   26.6376   -5.4286 H   0  0  0  0  0  0
    1.1561   28.3516   -5.2662 H   0  0  0  0  0  0
   -2.4988   28.4776   -4.9979 H   0  0  0  0  0  0
   -0.9298   28.8760   -4.2192 H   0  0  0  0  0  0
   -1.4423   27.1621   -4.3817 H   0  0  0  0  0  0
    0.4056   33.7219   -7.5702 H   0  0  0  0  0  0
    2.1572   30.2454   -9.3311 H   0  0  0  0  0  0
    4.0118   31.6061  -10.2740 H   0  0  0  0  0  0
    4.0711   34.0695   -9.8301 H   0  0  0  0  0  0
    1.4383   35.7895   -7.8340 H   0  0  0  0  0  0
    3.0644   35.9641   -8.8113 H   0  0  0  0  0  0
  1  2  2  0  0  0
  1  6  1  0  0  0
  1 10  1  0  0  0
  2  3  1  0  0  0
  2 31  1  0  0  0
  3  4  2  0  0  0
  3 32  1  0  0  0
  4  5  1  0  0  0
  4 33  1  0  0  0
  5  6  2  0  0  0
  5 34  1  0  0  0
  6  7  1  0  0  0
  7  8  2  0  0  0
  7 35  1  0  0  0
  8  9  1  0  0  0
  8 36  1  0  0  0
  9 10  2  0  0  0
  9 37  1  0  0  0
 10 11  1  0  0  0
 11 12  1  0  0  0
 11 38  1  0  0  0
 12 13  2  0  0  0
 12 14  1  0  0  0
 14 15  1  0  0  0
 14 39  1  0  0  0
 15 16  2  0  0  0
 15 23  1  0  0  0
 16 17  1  0  0  0
 16 40  1  0  0  0
 17 18  1  0  0  0
 17 22  2  0  0  0
 18 19  1  0  0  0
 18 20  1  0  0  0
 18 21  1  0  0  0
 19 41  1  0  0  0
 19 42  1  0  0  0
 19 43  1  0  0  0
 20 44  1  0  0  0
 20 45  1  0  0  0
 20 46  1  0  0  0
 21 47  1  0  0  0
 21 48  1  0  0  0
 21 49  1  0  0  0
 22 23  1  0  0  0
 23 24  1  0  0  0
 24 25  2  0  0  0
 24 26  1  0  0  0
 25 29  1  0  0  0
 25 50  1  0  0  0
 26 27  2  0  0  0
 26 51  1  0  0  0
 27 28  1  0  0  0
 27 52  1  0  0  0
 28 29  2  0  0  0
 28 53  1  0  0  0
 29 30  1  0  0  0
 30 54  1  0  0  0
 30 55  1  0  0  0
M  END
> <s_m_source_file>
../3f3t_ligand.sdf

> <i_m_source_file_index>
1

> <s_epik_input>
W2NIXTFbY0hdW2NIXVtjSF1jKGMxMilbY0hdW2NIXVtjSF1jMltOSF1DKD1PKVtOSF1jM1tjSF1jKEMoW0NIM10pKFtDSDNdKVtDSDNdKW5uMy1jNFtjSF1jKFtOSDJdKVtjSF1bY0hdW2NIXTQ=

> <s_epik_cmdline>
J2VwaWtfYXBwJywgJy1pbWFlJywgJ2xpZ2FuZF9wcm8ubWFlJywgJy1vbWFlJywgJ2xpZ2FuZF9wcmVwLm1hZScsICctbXMnLCAnMScsICctcGgnLCAnNycsICctcGh0JywgJzAuNScsICctbnQn

> <r_lp_tautomer_probability>
1

> <r_epik_Ionization_Penalty>
  0.0002

> <r_epik_Ionization_Penalty_Charging>
  0.0000

> <r_epik_Ionization_Penalty_Neutral>
  0.0002

> <r_epik_State_Penalty>
 -0.0000

> <r_epik_Charging_Adjusted_Penalty>
0

> <i_epik_Tot_Q>
0

> <i_epik_Tot_abs_Q>
0

$$$$
