3f3w_ligand
                    3D
 Schrodinger Suite 2020-3.
 68 72  0  0  1  0            999 V2000
   11.8580   36.5880    6.2170 C   0  0  0  0  0  0
   10.5810   37.1740    6.4450 C   0  0  0  0  0  0
    9.6720   36.5080    7.2970 C   0  0  0  0  0  0
   10.0980   35.3240    7.8340 N   0  0  0  0  0  0
   12.1710   35.3950    6.7830 N   0  0  0  0  0  0
   -1.4980   35.7560    8.7070 C   0  0  0  0  0  0
   -1.5810   34.2180    9.0170 C   0  0  0  0  0  0
   -0.6300   33.3550    8.4760 C   0  0  0  0  0  0
   -2.5980   33.6940    9.8180 C   0  0  0  0  0  0
   -2.6590   32.3400   10.0760 C   0  0  0  0  0  0
   -1.6920   31.4950    9.5190 C   0  0  0  0  0  0
   -0.6610   31.9860    8.7340 C   0  0  0  0  0  0
    0.2570   31.1640    8.1880 N   0  0  0  0  0  0
   -0.0540   30.1120    7.6050 N   0  0  0  0  0  0
    1.0760   29.5610    7.1600 C   0  0  0  0  0  0
    1.1350   28.2040    6.4140 C   0  0  0  0  0  0
   -0.3160   27.7060    6.2360 C   0  0  0  0  0  0
    1.8310   28.3070    5.0350 C   0  0  0  0  0  0
    1.9730   27.2280    7.2850 C   0  0  0  0  0  0
    2.1360   30.3360    7.4910 C   0  0  0  0  0  0
    1.5950   31.3730    8.1210 C   0  0  0  0  0  0
    2.2520   32.4120    8.6330 N   0  0  0  0  0  0
    3.3670   32.9710    8.1430 C   0  0  0  0  0  0
    3.9100   32.5540    7.1230 O   0  0  0  0  0  0
    3.8660   34.0320    8.8240 N   0  0  0  0  0  0
    4.9870   34.7400    8.5120 C   0  0  0  0  0  0
    5.0360   36.1250    8.7340 C   0  0  0  0  0  0
    6.1940   36.8660    8.4120 C   0  0  0  0  0  0
    6.1430   34.1190    7.9940 C   0  0  0  0  0  0
    7.2840   34.8730    7.6850 C   0  0  0  0  0  0
    7.3330   36.2640    7.8840 C   0  0  0  0  0  0
    8.4290   37.0110    7.5890 N   0  0  0  0  0  0
   10.2610   38.3830    5.8300 C   0  0  0  0  0  0
   11.2130   38.9770    4.9950 C   0  0  0  0  0  0
   10.9360   40.1390    4.4070 N   0  0  0  0  0  0
   12.4650   38.3900    4.7680 C   0  0  0  0  0  0
   12.7980   37.1910    5.3790 C   0  0  0  0  0  0
   11.2930   34.7790    7.5750 C   0  0  0  0  0  0
   -0.6284   35.9538    8.0630 H   0  0  0  0  0  0
   -1.3916   36.3146    9.6486 H   0  0  0  0  0  0
   -2.4159   36.0763    8.1923 H   0  0  0  0  0  0
    0.1551   33.7596    7.8372 H   0  0  0  0  0  0
   -3.3493   34.3598   10.2426 H   0  0  0  0  0  0
   -3.4503   31.9334   10.7057 H   0  0  0  0  0  0
   -1.7515   30.4231    9.7076 H   0  0  0  0  0  0
   -0.8757   28.4215    5.6156 H   0  0  0  0  0  0
   -0.7975   27.6199    7.2212 H   0  0  0  0  0  0
   -0.3082   26.7220    5.7444 H   0  0  0  0  0  0
    1.2637   28.9925    4.3883 H   0  0  0  0  0  0
    1.8703   27.3114    4.5689 H   0  0  0  0  0  0
    2.8535   28.6902    5.1681 H   0  0  0  0  0  0
    1.5071   27.1293    8.2766 H   0  0  0  0  0  0
    2.9942   27.6213    7.3971 H   0  0  0  0  0  0
    2.0110   26.2424    6.7980 H   0  0  0  0  0  0
    3.1908   30.1514    7.2873 H   0  0  0  0  0  0
    1.8851   32.8973    9.5494 H   0  0  0  0  0  0
    3.3526   34.3978    9.7254 H   0  0  0  0  0  0
    4.1711   36.6339    9.1594 H   0  0  0  0  0  0
    6.1963   37.9427    8.5821 H   0  0  0  0  0  0
    6.1492   33.0411    7.8322 H   0  0  0  0  0  0
    8.1590   34.3658    7.2785 H   0  0  0  0  0  0
    8.2634   38.0984    7.5957 H   0  0  0  0  0  0
    9.2922   38.8543    5.9957 H   0  0  0  0  0  0
    9.9598   40.6191    4.5702 H   0  0  0  0  0  0
   11.6833   40.6190    3.7581 H   0  0  0  0  0  0
   13.1810   38.8788    4.1074 H   0  0  0  0  0  0
   13.7709   36.7298    5.2092 H   0  0  0  0  0  0
   11.5520   33.8174    8.0182 H   0  0  0  0  0  0
  1  2  1  0  0  0
  1  5  2  0  0  0
  1 37  1  0  0  0
  2  3  2  0  0  0
  2 33  1  0  0  0
  3  4  1  0  0  0
  3 32  1  0  0  0
  4 38  2  0  0  0
  5 38  1  0  0  0
  6  7  1  0  0  0
  6 39  1  0  0  0
  6 40  1  0  0  0
  6 41  1  0  0  0
  7  8  2  0  0  0
  7  9  1  0  0  0
  8 12  1  0  0  0
  8 42  1  0  0  0
  9 10  2  0  0  0
  9 43  1  0  0  0
 10 11  1  0  0  0
 10 44  1  0  0  0
 11 12  2  0  0  0
 11 45  1  0  0  0
 12 13  1  0  0  0
 13 14  1  0  0  0
 13 21  1  0  0  0
 14 15  2  0  0  0
 15 16  1  0  0  0
 15 20  1  0  0  0
 16 17  1  0  0  0
 16 18  1  0  0  0
 16 19  1  0  0  0
 17 46  1  0  0  0
 17 47  1  0  0  0
 17 48  1  0  0  0
 18 49  1  0  0  0
 18 50  1  0  0  0
 18 51  1  0  0  0
 19 52  1  0  0  0
 19 53  1  0  0  0
 19 54  1  0  0  0
 20 21  2  0  0  0
 20 55  1  0  0  0
 21 22  1  0  0  0
 22 23  1  0  0  0
 22 56  1  0  0  0
 23 24  2  0  0  0
 23 25  1  0  0  0
 25 26  1  0  0  0
 25 57  1  0  0  0
 26 27  2  0  0  0
 26 29  1  0  0  0
 27 28  1  0  0  0
 27 58  1  0  0  0
 28 31  2  0  0  0
 28 59  1  0  0  0
 29 30  2  0  0  0
 29 60  1  0  0  0
 30 31  1  0  0  0
 30 61  1  0  0  0
 31 32  1  0  0  0
 32 62  1  0  0  0
 33 34  2  0  0  0
 33 63  1  0  0  0
 34 35  1  0  0  0
 34 36  1  0  0  0
 35 64  1  0  0  0
 35 65  1  0  0  0
 36 37  2  0  0  0
 36 66  1  0  0  0
 37 67  1  0  0  0
 38 68  1  0  0  0
M  END
> <s_m_source_file>
../3f3w_ligand.sdf

> <i_m_source_file_index>
1

> <s_epik_input>
W2NIXTFbY0hdYyhbTkgyXSlbY0hdYyhjMTIpYyhuW2NIXW4yKVtOSF1jKFtjSF1bY0hdMylbY0hdW2NIXWMzW05IXUMoPU8pW05IXWM0W2NIXWMoQyhbQ0gzXSkoW0NIM10pW0NIM10pbm40LWMoW2NIXWM1W0NIM10pW2NIXVtjSF1bY0hdNQ==

> <s_epik_cmdline>
J2VwaWtfYXBwJywgJy1pbWFlJywgJ2xpZ2FuZF9wcm8ubWFlJywgJy1vbWFlJywgJ2xpZ2FuZF9wcmVwLm1hZScsICctbXMnLCAnMScsICctcGgnLCAnNycsICctcGh0JywgJzAuNScsICctbnQn

> <r_lp_tautomer_probability>
1

> <r_epik_Ionization_Penalty>
  0.0012

> <r_epik_Ionization_Penalty_Charging>
  0.0000

> <r_epik_Ionization_Penalty_Neutral>
  0.0012

> <r_epik_State_Penalty>
 -0.0000

> <r_epik_Charging_Adjusted_Penalty>
0

> <i_epik_Tot_Q>
0

> <i_epik_Tot_abs_Q>
0

$$$$
