3f48_ligand
                    3D
 Schrodinger Suite 2020-3.
 13 12  0  0  1  0            999 V2000
   25.1770   32.4060   18.9430 N   0  3  0  0  0  0
   26.5080   31.7400   18.8570 C   0  0  2  0  0  0
   26.3760   30.3630   18.2020 C   0  0  0  0  0  0
   27.3870   29.6240   18.1340 O   0  5  0  0  0  0
   27.1090   31.6120   20.2560 C   0  0  0  0  0  0
   25.2540   30.0330   17.7530 O   0  0  0  0  0  0
   24.7467   32.4969   17.9348 H   0  0  0  0  0  0
   25.2958   33.4073   19.3826 H   0  0  0  0  0  0
   24.5065   31.8052   19.5751 H   0  0  0  0  0  0
   27.1568   32.3715   18.2323 H   0  0  0  0  0  0
   27.1961   32.6100   20.7103 H   0  0  0  0  0  0
   28.1060   31.1526   20.1861 H   0  0  0  0  0  0
   26.4575   30.9812   20.8786 H   0  0  0  0  0  0
  1  2  1  0  0  0
  1  7  1  0  0  0
  1  8  1  0  0  0
  1  9  1  0  0  0
  2  3  1  0  0  0
  2  5  1  0  0  0
  2 10  1  0  0  0
  3  4  1  0  0  0
  3  6  2  0  0  0
  5 11  1  0  0  0
  5 12  1  0  0  0
  5 13  1  0  0  0
M  CHG  2   1   1   4  -1
M  END
> <s_m_source_file>
../3f48_ligand.sdf

> <i_m_source_file_index>
1

> <s_epik_input>
W05IMytdW0NAQEhdKFtDSDNdKUMoPU8pW09IXQ==

> <s_epik_cmdline>
J2VwaWtfYXBwJywgJy1pbWFlJywgJ2xpZ2FuZF9wcm8ubWFlJywgJy1vbWFlJywgJ2xpZ2FuZF9wcmVwLm1hZScsICctbXMnLCAnMScsICctcGgnLCAnNycsICctcGh0JywgJzAuNScsICctbnQn

> <r_lp_tautomer_probability>
1

> <r_epik_Ionization_Penalty>
  0.0014

> <r_epik_Ionization_Penalty_Charging>
  0.0014

> <r_epik_Ionization_Penalty_Neutral>
  0.0000

> <r_epik_State_Penalty>
 -0.0000

> <r_epik_Charging_Adjusted_Penalty>
0.00136663983590927

> <i_epik_Tot_Q>
0

> <i_epik_Tot_abs_Q>
2

$$$$
