3f5k_ligand
                    3D
 Schrodinger Suite 2020-3.
108112  0  0  1  0            999 V2000
    7.2560    0.2800   35.5230 O   0  0  0  0  0  0
    5.8370    0.3660   35.8190 C   0  0  2  0  0  0
    5.1380    0.8380   34.5490 C   0  0  1  0  0  0
    5.0620   -0.2610   33.6280 O   0  0  0  0  0  0
    3.7650    1.4080   34.9510 C   0  0  2  0  0  0
    3.0090    1.6990   33.7840 O   0  0  0  0  0  0
    4.0640    2.7310   35.6610 C   0  0  1  0  0  0
    2.8600    3.6020   36.0460 C   0  0  0  0  0  0
    1.9430    2.8550   36.8950 O   0  0  0  0  0  0
    4.8170    2.4990   36.8720 O   0  0  0  0  0  0
    5.4780    1.2140   37.0910 C   0  0  1  0  0  0
    4.7800    0.3910   38.0850 O   0  0  0  0  0  0
    3.8750    0.9570   39.0290 C   0  0  2  0  0  0
    4.4750    0.9820   40.4320 C   0  0  2  0  0  0
    3.4410    1.3760   41.3400 O   0  0  0  0  0  0
    5.6610    1.9040   40.6380 C   0  0  0  0  0  0
    5.9260    1.9540   42.0590 O   0  0  0  0  0  0
    2.6590    0.0240   39.0410 C   0  0  2  0  0  0
    1.9880    0.1420   37.7770 O   0  0  0  0  0  0
    1.7030    0.2430   40.2170 C   0  0  1  0  0  0
    0.7720   -0.8380   40.3610 O   0  0  0  0  0  0
    2.4900    0.3410   41.5220 C   0  0  2  0  0  0
    1.6010    0.6960   42.5810 O   0  0  0  0  0  0
    2.0050    0.3330   43.8910 C   0  0  2  0  0  0
    0.7930   -0.3060   44.5530 C   0  0  2  0  0  0
    1.0100   -0.5150   45.9430 O   0  0  0  0  0  0
    0.4200   -1.6510   43.9580 C   0  0  0  0  0  0
   -0.9080   -1.8510   44.4370 O   0  0  0  0  0  0
    2.3410    1.6350   44.6260 C   0  0  2  0  0  0
    3.5460    2.2400   44.1060 O   0  0  0  0  0  0
    2.4870    1.3920   46.1230 C   0  0  1  0  0  0
    2.6440    2.6150   46.8370 O   0  0  0  0  0  0
    1.2420    0.6930   46.6610 C   0  0  2  0  0  0
    1.3770    0.4430   48.0690 O   0  0  0  0  0  0
    0.1670   -0.0440   48.6450 C   0  0  2  0  0  0
   -0.5480    1.0870   49.4170 C   0  0  2  0  0  0
   -1.5230    0.5850   50.3440 O   0  0  0  0  0  0
   -1.3000    1.9590   48.4080 C   0  0  0  0  0  0
   -1.4720    3.3010   48.8660 O   0  0  0  0  0  0
    0.4990   -1.2980   49.4570 C   0  0  2  0  0  0
    0.8520   -2.3780   48.5860 O   0  0  0  0  0  0
   -0.7240   -1.7380   50.2340 C   0  0  1  0  0  0
   -0.3820   -2.8550   51.0550 O   0  0  0  0  0  0
   -1.2410   -0.5980   51.1000 C   0  0  2  0  0  0
   -2.4830   -1.0680   51.6260 O   0  0  0  0  0  0
   -2.8000   -0.5970   52.9230 C   0  0  1  0  0  0
   -3.9690    0.3820   52.8130 C   0  0  2  0  0  0
   -3.5570    1.5830   52.1430 O   0  0  0  0  0  0
   -4.5010    0.7110   54.2020 C   0  0  1  0  0  0
   -5.6480    1.5640   54.1100 O   0  0  0  0  0  0
   -4.8550   -0.5900   54.9180 C   0  0  2  0  0  0
   -5.3970   -0.2920   56.2140 O   0  0  0  0  0  0
   -3.6830   -1.4080   55.0360 O   0  0  0  0  0  0
   -3.1420   -1.8200   53.7740 C   0  0  2  0  0  0
   -1.8830   -2.6980   53.9080 C   0  0  0  0  0  0
   -1.4060   -2.7590   55.3130 O   0  0  0  0  0  0
    7.6021   -0.2934   34.6504 H   0  0  0  0  0  0
    5.5359   -0.6632   36.0642 H   0  0  0  0  0  0
    5.7035    1.5927   33.9828 H   0  0  0  0  0  0
    5.9834   -0.7458   33.2729 H   0  0  0  0  0  0
    3.1480    0.7048   35.5296 H   0  0  0  0  0  0
    2.6848    0.8833   33.1211 H   0  0  0  0  0  0
    4.6763    3.2894   34.9377 H   0  0  0  0  0  0
    3.2099    4.4905   36.5919 H   0  0  0  0  0  0
    2.3290    3.9167   35.1355 H   0  0  0  0  0  0
    1.0228    3.3317   37.2637 H   0  0  0  0  0  0
    6.4090    1.5734   37.5537 H   0  0  0  0  0  0
    3.6731    1.9870   38.6999 H   0  0  0  0  0  0
    4.8278   -0.0347   40.6596 H   0  0  0  0  0  0
    6.5324    1.5070   40.0967 H   0  0  0  0  0  0
    5.4172    2.9061   40.2555 H   0  0  0  0  0  0
    6.7529    2.5695   42.4430 H   0  0  0  0  0  0
    2.9967   -1.0196   39.1232 H   0  0  0  0  0  0
    2.5506    0.0090   36.8411 H   0  0  0  0  0  0
    1.0979    1.1388   40.0135 H   0  0  0  0  0  0
    0.0932   -1.0931   39.5339 H   0  0  0  0  0  0
    3.0072   -0.5806   41.8273 H   0  0  0  0  0  0
    2.8621   -0.3540   43.8327 H   0  0  0  0  0  0
   -0.0346    0.4111   44.4488 H   0  0  0  0  0  0
    0.4712   -1.5934   42.8607 H   0  0  0  0  0  0
    1.1211   -2.4184   44.3180 H   0  0  0  0  0  0
   -1.4588   -2.7638   44.1660 H   0  0  0  0  0  0
    1.5460    2.3712   44.4365 H   0  0  0  0  0  0
    3.6199    2.4875   43.0367 H   0  0  0  0  0  0
    3.4082    0.8194   46.3059 H   0  0  0  0  0  0
    3.4874    3.2823   46.6061 H   0  0  0  0  0  0
    0.3300    1.2960   46.5402 H   0  0  0  0  0  0
   -0.5050   -0.3398   47.8259 H   0  0  0  0  0  0
    0.1809    1.6351   50.0321 H   0  0  0  0  0  0
   -0.7385    1.9932   47.4627 H   0  0  0  0  0  0
   -2.2976    1.5326   48.2267 H   0  0  0  0  0  0
   -1.9972    4.0341   48.2361 H   0  0  0  0  0  0
    1.3640   -1.1066   50.1090 H   0  0  0  0  0  0
    1.7203   -2.2840   47.9173 H   0  0  0  0  0  0
   -1.5119   -2.0861   49.5499 H   0  0  0  0  0  0
    0.0113   -3.7744   50.5968 H   0  0  0  0  0  0
   -0.5256   -0.2947   51.8786 H   0  0  0  0  0  0
   -1.9236   -0.0722   53.3311 H   0  0  0  0  0  0
   -4.7669   -0.0371   52.1824 H   0  0  0  0  0  0
   -3.1452    1.5309   51.1243 H   0  0  0  0  0  0
   -3.7703    1.2969   54.7789 H   0  0  0  0  0  0
   -5.5656    2.5456   53.6204 H   0  0  0  0  0  0
   -5.6082   -1.1878   54.3838 H   0  0  0  0  0  0
   -6.3011    0.3283   56.3027 H   0  0  0  0  0  0
   -3.9678   -2.4097   53.3494 H   0  0  0  0  0  0
   -2.1121   -3.7209   53.5745 H   0  0  0  0  0  0
   -1.0774   -2.2812   53.2857 H   0  0  0  0  0  0
   -0.5133   -3.3500   55.5656 H   0  0  0  0  0  0
  1  2  1  0  0  0
  1 57  1  0  0  0
  2  3  1  0  0  0
  2 11  1  0  0  0
  2 58  1  0  0  0
  3  4  1  0  0  0
  3  5  1  0  0  0
  3 59  1  0  0  0
  4 60  1  0  0  0
  5  6  1  0  0  0
  5  7  1  0  0  0
  5 61  1  0  0  0
  6 62  1  0  0  0
  7  8  1  0  0  0
  7 10  1  0  0  0
  7 63  1  0  0  0
  8  9  1  0  0  0
  8 64  1  0  0  0
  8 65  1  0  0  0
  9 66  1  0  0  0
 10 11  1  0  0  0
 11 12  1  0  0  0
 11 67  1  0  0  0
 12 13  1  0  0  0
 13 14  1  0  0  0
 13 18  1  0  0  0
 13 68  1  0  0  0
 14 15  1  0  0  0
 14 16  1  0  0  0
 14 69  1  0  0  0
 15 22  1  0  0  0
 16 17  1  0  0  0
 16 70  1  0  0  0
 16 71  1  0  0  0
 17 72  1  0  0  0
 18 19  1  0  0  0
 18 20  1  0  0  0
 18 73  1  0  0  0
 19 74  1  0  0  0
 20 21  1  0  0  0
 20 22  1  0  0  0
 20 75  1  0  0  0
 21 76  1  0  0  0
 22 23  1  0  0  0
 22 77  1  0  0  0
 23 24  1  0  0  0
 24 25  1  0  0  0
 24 29  1  0  0  0
 24 78  1  0  0  0
 25 26  1  0  0  0
 25 27  1  0  0  0
 25 79  1  0  0  0
 26 33  1  0  0  0
 27 28  1  0  0  0
 27 80  1  0  0  0
 27 81  1  0  0  0
 28 82  1  0  0  0
 29 30  1  0  0  0
 29 31  1  0  0  0
 29 83  1  0  0  0
 30 84  1  0  0  0
 31 32  1  0  0  0
 31 33  1  0  0  0
 31 85  1  0  0  0
 32 86  1  0  0  0
 33 34  1  0  0  0
 33 87  1  0  0  0
 34 35  1  0  0  0
 35 36  1  0  0  0
 35 40  1  0  0  0
 35 88  1  0  0  0
 36 37  1  0  0  0
 36 38  1  0  0  0
 36 89  1  0  0  0
 37 44  1  0  0  0
 38 39  1  0  0  0
 38 90  1  0  0  0
 38 91  1  0  0  0
 39 92  1  0  0  0
 40 41  1  0  0  0
 40 42  1  0  0  0
 40 93  1  0  0  0
 41 94  1  0  0  0
 42 43  1  0  0  0
 42 44  1  0  0  0
 42 95  1  0  0  0
 43 96  1  0  0  0
 44 45  1  0  0  0
 44 97  1  0  0  0
 45 46  1  0  0  0
 46 47  1  0  0  0
 46 54  1  0  0  0
 46 98  1  0  0  0
 47 48  1  0  0  0
 47 49  1  0  0  0
 47 99  1  0  0  0
 48100  1  0  0  0
 49 50  1  0  0  0
 49 51  1  0  0  0
 49101  1  0  0  0
 50102  1  0  0  0
 51 52  1  0  0  0
 51 53  1  0  0  0
 51103  1  0  0  0
 52104  1  0  0  0
 53 54  1  0  0  0
 54 55  1  0  0  0
 54105  1  0  0  0
 55 56  1  0  0  0
 55106  1  0  0  0
 55107  1  0  0  0
 56108  1  0  0  0
M  END
> <s_m_source_file>
../3f5k_ligand.sdf

> <i_m_source_file_index>
1

> <s_epik_input>
W09IXVtDQEBIXTFbQ0BASF0oW09IXSlbQ0BIXShbT0hdKVtDQEBIXShbQ0gyXVtPSF0pT1tDQEhdMU9bQ0BASF0yW0NAQEhdKFtDSDJdW09IXSlPW0NASF0oW0NASF0oW09IXSlbQ0BIXTJbT0hdKU9bQ0BASF0zW0NAQEhdKFtDSDJdW09IXSlPW0NASF0oW0NASF0oW09IXSlbQ0BIXTNbT0hdKU9bQ0BASF00W0NAQEhdKFtDSDJdW09IXSlPW0NASF0oW0NASF0oW09IXSlbQ0BIXTRbT0hdKU9bQ0BIXTVbQ0BIXShbT0hdKVtDQEBIXShbT0hdKVtDQEhdKFtPSF0pT1tDQEBIXTVbQ0gyXVtPSF0=

> <s_epik_cmdline>
J2VwaWtfYXBwJywgJy1pbWFlJywgJ2xpZ2FuZF9wcm8ubWFlJywgJy1vbWFlJywgJ2xpZ2FuZF9wcmVwLm1hZScsICctbXMnLCAnMScsICctcGgnLCAnNycsICctcGh0JywgJzAuNScsICctbnQn

> <r_lp_tautomer_probability>
1

> <r_epik_Ionization_Penalty>
  0.0000

> <r_epik_Ionization_Penalty_Charging>
  0.0000

> <r_epik_Ionization_Penalty_Neutral>
  0.0000

> <r_epik_State_Penalty>
 -0.0000

> <r_epik_Charging_Adjusted_Penalty>
0

> <i_epik_Tot_Q>
0

> <i_epik_Tot_abs_Q>
0

> <s_epik_Chemistry_Notes>
This compound contains an acetal/aminal-like group ( X-CH(R)-Y where X, Y are N, S, or O) that may be acid/base labile, releasing an aldehyde.

$$$$
