3f66_ligand
                    3D
 Schrodinger Suite 2020-3.
 48 51  0  0  1  0            999 V2000
   -1.2730  -19.8400   31.0320 C   0  0  0  0  0  0
   -1.3350  -21.2170   30.9190 C   0  0  0  0  0  0
   -1.3180  -19.0680   29.8830 C   0  0  0  0  0  0
   -1.4740  -21.8150   29.6760 C   0  0  0  0  0  0
   -1.4340  -19.6750   28.6330 C   0  0  0  0  0  0
   -1.5140  -21.0620   28.5160 C   0  0  0  0  0  0
   -1.5620  -23.2760   29.6370 C   0  0  0  0  0  0
   -0.8940  -24.0720   28.7190 C   0  0  0  0  0  0
   -2.4040  -23.8800   30.5600 C   0  0  0  0  0  0
   -2.5700  -25.2610   30.5600 C   0  0  0  0  0  0
    0.6150  -24.3380   26.9130 C   0  0  0  0  0  0
    0.4480  -25.7090   27.0320 C   0  0  0  0  0  0
    1.4250  -23.7200   25.9600 N   0  0  0  0  0  0
    3.4040  -23.8820   24.4200 C   0  0  0  0  0  0
    1.5200  -22.2460   25.9290 C   0  0  0  0  0  0
   -4.5530  -25.1880   31.8050 F   0  0  0  0  0  0
   -3.4430  -25.8770   31.6180 C   0  0  0  0  0  0
   -2.7630  -25.7790   32.7710 F   0  0  0  0  0  0
   -3.7730  -27.1450   31.3940 F   0  0  0  0  0  0
   -1.4640  -18.9110   27.5140 O   0  0  0  0  0  0
   -1.8970  -26.0450   29.6890 C   0  0  0  0  0  0
   -1.0550  -25.4600   28.7760 C   0  0  0  0  0  0
   -0.3800  -26.2800   27.9430 N   0  0  0  0  0  0
   -0.0500  -23.5130   27.7810 N   0  0  0  0  0  0
    2.7810  -21.6770   25.2400 C   0  0  0  0  0  0
    3.2360  -22.4640   24.0730 N   0  3  0  0  0  0
    4.5280  -21.9420   23.6090 C   0  0  0  0  0  0
    2.0680  -24.4680   24.8500 C   0  0  0  0  0  0
   -1.1899  -19.3690   32.0115 H   0  0  0  0  0  0
   -1.2741  -21.8366   31.8137 H   0  0  0  0  0  0
   -1.2625  -17.9819   29.9561 H   0  0  0  0  0  0
   -1.6053  -21.5388   27.5401 H   0  0  0  0  0  0
   -2.9377  -23.2694   31.2883 H   0  0  0  0  0  0
    1.0089  -26.3599   26.3613 H   0  0  0  0  0  0
    3.7777  -24.4321   23.5438 H   0  0  0  0  0  0
    4.1248  -23.9745   25.2458 H   0  0  0  0  0  0
    0.6564  -21.8343   25.3862 H   0  0  0  0  0  0
    1.5256  -21.8572   26.9580 H   0  0  0  0  0  0
   -1.4016  -17.8157   27.5940 H   0  0  0  0  0  0
   -2.0211  -27.1277   29.7111 H   0  0  0  0  0  0
    2.5752  -20.6570   24.8833 H   0  0  0  0  0  0
    3.6127  -21.6530   25.9595 H   0  0  0  0  0  0
    2.4775  -22.3817   23.2806 H   0  0  0  0  0  0
    4.8688  -22.5255   22.7410 H   0  0  0  0  0  0
    5.2682  -22.0228   24.4187 H   0  0  0  0  0  0
    4.4146  -20.8868   23.3198 H   0  0  0  0  0  0
    2.2490  -25.5065   25.1642 H   0  0  0  0  0  0
    1.4063  -24.4608   23.9713 H   0  0  0  0  0  0
  1  2  2  0  0  0
  1  3  1  0  0  0
  1 29  1  0  0  0
  2  4  1  0  0  0
  2 30  1  0  0  0
  3  5  2  0  0  0
  3 31  1  0  0  0
  4  6  2  0  0  0
  4  7  1  0  0  0
  5  6  1  0  0  0
  5 20  1  0  0  0
  6 32  1  0  0  0
  7  8  2  0  0  0
  7  9  1  0  0  0
  8 22  1  0  0  0
  8 24  1  0  0  0
  9 10  2  0  0  0
  9 33  1  0  0  0
 10 17  1  0  0  0
 10 21  1  0  0  0
 11 12  1  0  0  0
 11 13  1  0  0  0
 11 24  2  0  0  0
 12 23  2  0  0  0
 12 34  1  0  0  0
 13 15  1  0  0  0
 13 28  1  0  0  0
 14 26  1  0  0  0
 14 28  1  0  0  0
 14 35  1  0  0  0
 14 36  1  0  0  0
 15 25  1  0  0  0
 15 37  1  0  0  0
 15 38  1  0  0  0
 16 17  1  0  0  0
 17 18  1  0  0  0
 17 19  1  0  0  0
 20 39  1  0  0  0
 21 22  2  0  0  0
 21 40  1  0  0  0
 22 23  1  0  0  0
 25 26  1  0  0  0
 25 41  1  0  0  0
 25 42  1  0  0  0
 26 27  1  0  0  0
 26 43  1  0  0  0
 27 44  1  0  0  0
 27 45  1  0  0  0
 27 46  1  0  0  0
 28 47  1  0  0  0
 28 48  1  0  0  0
M  CHG  1  26   1
M  END
> <s_m_source_file>
../3f66_ligand.sdf

> <i_m_source_file_index>
1

> <s_epik_input>
W2NIXTFjKFtPSF0pW2NIXVtjSF1bY0hdYzEtYzJbY0hdYyhDKEYpKEYpRilbY0hdYyhjMjMpbltjSF1jKG4zKU40W0NIMl1bQ0gyXVtOSCtdKFtDSDNdKVtDSDJdW0NIMl00

> <s_epik_cmdline>
J2VwaWtfYXBwJywgJy1pbWFlJywgJ2xpZ2FuZF9wcm8ubWFlJywgJy1vbWFlJywgJ2xpZ2FuZF9wcmVwLm1hZScsICctbXMnLCAnMScsICctcGgnLCAnNycsICctcGh0JywgJzAuNScsICctbnQn

> <r_lp_tautomer_probability>
0.999999999997365

> <r_epik_Ionization_Penalty>
  0.0833

> <r_epik_Ionization_Penalty_Charging>
  0.0822

> <r_epik_Ionization_Penalty_Neutral>
  0.0011

> <r_epik_State_Penalty>
  0.0729

> <r_epik_Charging_Adjusted_Penalty>
0.155062231534638

> <i_epik_Tot_Q>
1

> <i_epik_Tot_abs_Q>
1

$$$$
