3f68_ligand
                    3D
 Schrodinger Suite 2020-3.
 62 64  0  0  1  0            999 V2000
   18.0660  -14.4250   24.7040 C   0  0  0  0  0  0
   16.8970  -15.8960   23.1390 N   0  0  0  0  0  0
   17.2460  -17.0620   23.7640 C   0  0  0  0  0  0
   16.6730  -17.5100   25.0830 C   0  0  0  0  0  0
   18.0830  -17.7930   23.2470 O   0  0  0  0  0  0
   17.8040  -14.7420   23.1940 C   0  0  1  0  0  0
   17.2690  -13.5320   22.4620 C   0  0  0  0  0  0
   16.2220  -13.0730   22.9020 O   0  0  0  0  0  0
   17.9290  -12.9930   21.3930 N   0  0  0  0  0  0
   19.0900  -13.6780   20.8010 C   0  0  0  0  0  0
   19.5780  -12.6040   19.7990 C   0  0  0  0  0  0
   18.2600  -11.9090   19.3920 C   0  0  0  0  0  0
   17.4840  -11.7760   20.7390 C   0  0  1  0  0  0
   15.9990  -11.7370   20.4600 C   0  0  0  0  0  0
   15.3080  -10.5830   20.6460 N   0  0  0  0  0  0
   13.8730  -10.5960   20.3560 C   0  0  0  0  0  0
   13.0160  -10.4950   21.6230 C   0  0  0  0  0  0
   13.0730   -9.3430   22.4230 C   0  0  0  0  0  0
   12.3220   -9.2710   23.6070 C   0  0  0  0  0  0
   11.4280  -10.2920   23.9420 C   0  0  0  0  0  0
   11.3700  -11.4470   23.1350 C   0  0  0  0  0  0
   12.1440  -11.5250   21.9710 C   0  0  0  0  0  0
   15.4200  -12.7430   20.0720 O   0  0  0  0  0  0
   19.5960  -14.3690   25.0120 C   0  0  0  0  0  0
   20.4340  -14.4730   23.7030 C   0  0  0  0  0  0
   21.9310  -14.6710   24.0480 C   0  0  0  0  0  0
   22.4320  -13.5320   24.9550 C   0  0  0  0  0  0
   21.5350  -13.2610   26.1780 C   0  0  0  0  0  0
   20.0410  -13.0960   25.7820 C   0  0  0  0  0  0
   12.4570   -7.8540   24.6340 Cl  0  0  0  0  0  0
   17.6213  -13.4511   24.9567 H   0  0  0  0  0  0
   17.6110  -15.2087   25.3275 H   0  0  0  0  0  0
   15.9427  -15.8201   22.5973 H   0  0  0  0  0  0
   15.9394  -16.7695   25.4345 H   0  0  0  0  0  0
   17.4827  -17.6033   25.8217 H   0  0  0  0  0  0
   16.1785  -18.4843   24.9559 H   0  0  0  0  0  0
   18.7096  -15.0283   22.6391 H   0  0  0  0  0  0
   19.8206  -13.9097   21.5900 H   0  0  0  0  0  0
   18.7598  -14.6113   20.3215 H   0  0  0  0  0  0
   20.2820  -11.9254   20.3029 H   0  0  0  0  0  0
   20.0826  -13.0939   18.9532 H   0  0  0  0  0  0
   18.4851  -10.9312   18.9413 H   0  0  0  0  0  0
   17.7256  -12.5349   18.6621 H   0  0  0  0  0  0
   17.6597  -10.9037   21.3857 H   0  0  0  0  0  0
   15.7890   -9.6597   21.0011 H   0  0  0  0  0  0
   13.6220   -9.7426   19.7090 H   0  0  0  0  0  0
   13.6108  -11.5337   19.8442 H   0  0  0  0  0  0
   13.7010   -8.5035   22.1247 H   0  0  0  0  0  0
   10.7838  -10.1966   24.8161 H   0  0  0  0  0  0
   10.7234  -12.2779   23.4171 H   0  0  0  0  0  0
   12.0636  -12.4022   21.3290 H   0  0  0  0  0  0
   19.7873  -15.2310   25.6680 H   0  0  0  0  0  0
   20.0825  -15.3300   23.1098 H   0  0  0  0  0  0
   20.3162  -13.5490   23.1178 H   0  0  0  0  0  0
   22.0628  -15.6289   24.5724 H   0  0  0  0  0  0
   22.5234  -14.6759   23.1211 H   0  0  0  0  0  0
   23.4332  -13.7807   25.3367 H   0  0  0  0  0  0
   22.4817  -12.5976   24.3767 H   0  0  0  0  0  0
   21.6118  -14.1022   26.8826 H   0  0  0  0  0  0
   21.8620  -12.3356   26.6747 H   0  0  0  0  0  0
   19.9177  -12.2146   25.1355 H   0  0  0  0  0  0
   19.4228  -12.9783   26.6842 H   0  0  0  0  0  0
  1  6  1  0  0  0
  1 24  1  0  0  0
  1 31  1  0  0  0
  1 32  1  0  0  0
  2  3  1  0  0  0
  2  6  1  0  0  0
  2 33  1  0  0  0
  3  4  1  0  0  0
  3  5  2  0  0  0
  4 34  1  0  0  0
  4 35  1  0  0  0
  4 36  1  0  0  0
  6  7  1  0  0  0
  6 37  1  0  0  0
  7  8  2  0  0  0
  7  9  1  0  0  0
  9 10  1  0  0  0
  9 13  1  0  0  0
 10 11  1  0  0  0
 10 38  1  0  0  0
 10 39  1  0  0  0
 11 12  1  0  0  0
 11 40  1  0  0  0
 11 41  1  0  0  0
 12 13  1  0  0  0
 12 42  1  0  0  0
 12 43  1  0  0  0
 13 14  1  0  0  0
 13 44  1  0  0  0
 14 15  1  0  0  0
 14 23  2  0  0  0
 15 16  1  0  0  0
 15 45  1  0  0  0
 16 17  1  0  0  0
 16 46  1  0  0  0
 16 47  1  0  0  0
 17 18  2  0  0  0
 17 22  1  0  0  0
 18 19  1  0  0  0
 18 48  1  0  0  0
 19 20  2  0  0  0
 19 30  1  0  0  0
 20 21  1  0  0  0
 20 49  1  0  0  0
 21 22  2  0  0  0
 21 50  1  0  0  0
 22 51  1  0  0  0
 24 25  1  0  0  0
 24 29  1  0  0  0
 24 52  1  0  0  0
 25 26  1  0  0  0
 25 53  1  0  0  0
 25 54  1  0  0  0
 26 27  1  0  0  0
 26 55  1  0  0  0
 26 56  1  0  0  0
 27 28  1  0  0  0
 27 57  1  0  0  0
 27 58  1  0  0  0
 28 29  1  0  0  0
 28 59  1  0  0  0
 28 60  1  0  0  0
 29 61  1  0  0  0
 29 62  1  0  0  0
M  END
> <s_m_source_file>
../3f68_ligand.sdf

> <i_m_source_file_index>
1

> <s_epik_input>
W0NIMl0xW0NIMl1bQ0gyXVtDSDJdW0NIMl1bQ0hdMVtDSDJdW0NAQEhdKFtOSF1DKD1PKVtDSDNdKUMoPU8pTjJbQ0gyXVtDSDJdW0NIMl1bQ0BIXTJDKD1PKVtOSF1bQ0gyXWMzW2NIXWMoQ2wpW2NIXVtjSF1bY0hdMw==

> <s_epik_cmdline>
J2VwaWtfYXBwJywgJy1pbWFlJywgJ2xpZ2FuZF9wcm8ubWFlJywgJy1vbWFlJywgJ2xpZ2FuZF9wcmVwLm1hZScsICctbXMnLCAnMScsICctcGgnLCAnNycsICctcGh0JywgJzAuNScsICctbnQn

> <r_lp_tautomer_probability>
1

> <r_epik_Ionization_Penalty>
  0.0000

> <r_epik_Ionization_Penalty_Charging>
  0.0000

> <r_epik_Ionization_Penalty_Neutral>
  0.0000

> <r_epik_State_Penalty>
 -0.0000

> <r_epik_Charging_Adjusted_Penalty>
0

> <i_epik_Tot_Q>
0

> <i_epik_Tot_abs_Q>
0

$$$$
