3f69_ligand
                    3D
 Schrodinger Suite 2020-3.
 56 63  0  0  1  0            999 V2000
  -42.0940  -49.8320    3.7870 C   0  0  0  0  0  0
  -43.3730  -49.1310    4.0980 O   0  0  0  0  0  0
  -44.0480  -48.4850    3.1000 C   0  0  0  0  0  0
  -43.5930  -48.4370    1.9590 O   0  0  0  0  0  0
  -45.4570  -48.0020    3.3740 C   0  0  1  0  0  0
  -46.1730  -47.4230    2.3000 O   0  0  0  0  0  0
  -46.1030  -48.2840    4.7430 C   0  0  0  0  0  0
  -45.1920  -47.7420    5.8470 C   0  0  1  0  0  0
  -44.4270  -46.7430    5.1980 O   0  0  0  0  0  0
  -45.0760  -46.5560    3.9290 C   0  0  1  0  0  0
  -44.0700  -45.7770    3.0800 C   0  0  0  0  0  0
  -46.2240  -45.5780    4.1600 N   0  0  0  0  0  0
  -46.5870  -44.6440    3.2740 C   0  0  0  0  0  0
  -46.1090  -44.3320    2.0100 C   0  0  0  0  0  0
  -46.6940  -43.2850    1.2940 C   0  0  0  0  0  0
  -47.7570  -42.5620    1.8320 C   0  0  0  0  0  0
  -48.2490  -42.8720    3.0970 C   0  0  0  0  0  0
  -47.6590  -43.9090    3.8000 C   0  0  0  0  0  0
  -47.9290  -44.4340    5.0480 C   0  0  0  0  0  0
  -47.0090  -45.4560    5.2250 C   0  0  0  0  0  0
  -47.0390  -46.1750    6.3920 C   0  0  0  0  0  0
  -46.2390  -47.1820    6.7160 N   0  0  0  0  0  0
  -46.6150  -47.6240    7.9250 C   0  0  0  0  0  0
  -46.1250  -48.6620    8.7110 C   0  0  0  0  0  0
  -46.7180  -48.9520    9.9320 C   0  0  0  0  0  0
  -47.7780  -48.1770   10.3840 C   0  0  0  0  0  0
  -48.2530  -47.1010    9.6290 C   0  0  0  0  0  0
  -47.6890  -46.8360    8.3860 C   0  0  0  0  0  0
  -47.9640  -45.8910    7.4040 C   0  0  0  0  0  0
  -48.9000  -44.8660    7.2480 C   0  0  0  0  0  0
  -48.8560  -44.1450    6.0620 C   0  0  0  0  0  0
  -49.9240  -43.0650    6.0900 C   0  0  0  0  0  0
  -50.5530  -43.2910    7.3930 N   0  0  0  0  0  0
  -49.9420  -44.3110    8.0260 C   0  0  0  0  0  0
  -50.3210  -44.7000    9.1530 O   0  0  0  0  0  0
  -41.6953  -50.2913    4.7036 H   0  0  0  0  0  0
  -41.3656  -49.1081    3.3928 H   0  0  0  0  0  0
  -42.2777  -50.6137    3.0352 H   0  0  0  0  0  0
  -46.6722  -48.0671    1.5611 H   0  0  0  0  0  0
  -47.0833  -47.7878    4.7950 H   0  0  0  0  0  0
  -46.2339  -49.3687    4.8702 H   0  0  0  0  0  0
  -44.4628  -48.3636    6.3873 H   0  0  0  0  0  0
  -43.2003  -46.4151    2.8644 H   0  0  0  0  0  0
  -43.7413  -44.8826    3.6296 H   0  0  0  0  0  0
  -44.5450  -45.4731    2.1355 H   0  0  0  0  0  0
  -45.2839  -44.8990    1.5790 H   0  0  0  0  0  0
  -46.3151  -43.0308    0.3041 H   0  0  0  0  0  0
  -48.2054  -41.7499    1.2597 H   0  0  0  0  0  0
  -49.0800  -42.3110    3.5245 H   0  0  0  0  0  0
  -45.2733  -49.2490    8.3672 H   0  0  0  0  0  0
  -46.3532  -49.7846   10.5336 H   0  0  0  0  0  0
  -48.2458  -48.4110   11.3403 H   0  0  0  0  0  0
  -49.0590  -46.4747   10.0115 H   0  0  0  0  0  0
  -49.4483  -42.0767    6.0071 H   0  0  0  0  0  0
  -50.6153  -43.2110    5.2470 H   0  0  0  0  0  0
  -51.3968  -42.6619    7.7129 H   0  0  0  0  0  0
  1  2  1  0  0  0
  1 36  1  0  0  0
  1 37  1  0  0  0
  1 38  1  0  0  0
  2  3  1  0  0  0
  3  4  2  0  0  0
  3  5  1  0  0  0
  5  6  1  0  0  0
  5  7  1  0  0  0
  5 10  1  0  0  0
  6 39  1  0  0  0
  7  8  1  0  0  0
  7 40  1  0  0  0
  7 41  1  0  0  0
  8  9  1  0  0  0
  8 22  1  0  0  0
  8 42  1  0  0  0
  9 10  1  0  0  0
 10 11  1  0  0  0
 10 12  1  0  0  0
 11 43  1  0  0  0
 11 44  1  0  0  0
 11 45  1  0  0  0
 12 13  1  0  0  0
 12 20  1  0  0  0
 13 14  2  0  0  0
 13 18  1  0  0  0
 14 15  1  0  0  0
 14 46  1  0  0  0
 15 16  2  0  0  0
 15 47  1  0  0  0
 16 17  1  0  0  0
 16 48  1  0  0  0
 17 18  2  0  0  0
 17 49  1  0  0  0
 18 19  1  0  0  0
 19 20  2  0  0  0
 19 31  1  0  0  0
 20 21  1  0  0  0
 21 22  1  0  0  0
 21 29  2  0  0  0
 22 23  1  0  0  0
 23 24  1  0  0  0
 23 28  2  0  0  0
 24 25  2  0  0  0
 24 50  1  0  0  0
 25 26  1  0  0  0
 25 51  1  0  0  0
 26 27  2  0  0  0
 26 52  1  0  0  0
 27 28  1  0  0  0
 27 53  1  0  0  0
 28 29  1  0  0  0
 29 30  1  0  0  0
 30 31  2  0  0  0
 30 34  1  0  0  0
 31 32  1  0  0  0
 32 33  1  0  0  0
 32 54  1  0  0  0
 32 55  1  0  0  0
 33 34  1  0  0  0
 33 56  1  0  0  0
 34 35  2  0  0  0
M  END
> <s_m_source_file>
../3f69_ligand.sdf

> <i_m_source_file_index>
1

> <s_epik_input>
W0NIM11bQ0BAXTEybjNjNGMoW2NIXVtjSF1bY0hdW2NIXTQpYzVjM2M2bihbQ0BIXShPMilbQ0gyXVtDQF0xKFtPSF0pQyg9TylPW0NIM10pYzdjKFtjSF1bY0hdW2NIXVtjSF03KWM2YzhjNVtDSDJdW05IXUM4PU8=

> <s_epik_cmdline>
J2VwaWtfYXBwJywgJy1pbWFlJywgJ2xpZ2FuZF9wcm8ubWFlJywgJy1vbWFlJywgJ2xpZ2FuZF9wcmVwLm1hZScsICctbXMnLCAnMScsICctcGgnLCAnNycsICctcGh0JywgJzAuNScsICctbnQn

> <r_lp_tautomer_probability>
1

> <r_epik_Ionization_Penalty>
  0.0000

> <r_epik_Ionization_Penalty_Charging>
  0.0000

> <r_epik_Ionization_Penalty_Neutral>
  0.0000

> <r_epik_State_Penalty>
 -0.0000

> <r_epik_Charging_Adjusted_Penalty>
0

> <i_epik_Tot_Q>
0

> <i_epik_Tot_abs_Q>
0

> <s_epik_Chemistry_Notes>
This compound has an ester and may undergo hydrolysis at high or low pH. This compound contains an acetal/aminal-like group ( X-CH(R)-Y where X, Y are N, S, or O) that may be acid/base labile, releasing an aldehyde.

$$$$
