3f6e_ligand
                    3D
 Schrodinger Suite 2020-3.
 59 61  0  0  1  0            999 V2000
   64.4320   57.7560  157.5260 C   0  0  0  0  0  0
   63.9260   59.0520  157.4030 C   0  0  0  0  0  0
   64.2370   60.0260  158.3710 C   0  0  0  0  0  0
   65.0040   59.7110  159.4230 N   0  0  0  0  0  0
   65.5210   58.4760  159.5680 C   0  0  0  0  0  0
   65.2530   57.4720  158.6260 C   0  0  0  0  0  0
   65.8230   56.2120  158.7890 C   0  0  0  0  0  0
   65.1030   55.0590  158.9690 C   0  0  0  0  0  0
   65.7620   53.8200  159.1380 C   0  0  2  0  0  0
   65.5950   52.8290  158.1540 O   0  0  0  0  0  0
   66.4820   53.4590  160.4850 C   0  0  0  0  0  0
   65.9630   54.2980  162.0240 S   0  0  0  0  0  0
   66.4580   52.8900  163.0010 C   0  0  0  0  0  0
   66.2640   52.9320  164.4500 C   0  0  0  0  0  0
   67.2580   53.8180  165.2560 C   0  0  0  0  0  0
   66.8430   53.6320  166.6480 O   0  0  0  0  0  0
   67.4140   54.6360  167.7020 P   0  0  1  0  0  0
   67.2470   53.9400  168.9950 O   0  0  0  0  0  0
   68.7840   55.1650  167.4130 O   0  5  0  0  0  0
   66.5800   55.8650  167.6330 O   0  0  0  0  0  0
   64.8450   56.0590  167.7980 P   0  0  0  0  0  0
   64.2240   55.7100  166.4380 O   0  5  0  0  0  0
   64.4580   55.0980  168.9060 O   0  5  0  0  0  0
   64.6480   57.4570  168.1550 O   0  0  0  0  0  0
   66.8630   51.8840  162.1600 C   0  0  0  0  0  0
   67.3700   50.5200  162.7110 C   0  0  0  0  0  0
   66.8900   52.1940  160.8490 N   0  3  0  0  0  0
   67.4540   51.2040  159.8520 C   0  0  0  0  0  0
   69.0080   51.2820  159.6610 C   0  0  0  0  0  0
   69.7020   50.1070  159.8180 C   0  0  0  0  0  0
   71.0470   50.0890  159.6520 N   0  0  0  0  0  0
   71.5800   51.2490  159.2670 C   0  0  0  0  0  0
   73.1190   51.1910  159.0170 C   0  0  0  0  0  0
   70.9520   52.4060  159.0330 N   0  0  0  0  0  0
   69.6030   52.4590  159.1820 C   0  0  0  0  0  0
   69.0630   53.5930  158.9120 N   0  0  0  0  0  0
   64.1956   56.9886  156.7889 H   0  0  0  0  0  0
   63.2895   59.3097  156.5565 H   0  0  0  0  0  0
   63.8522   61.0402  158.2639 H   0  0  0  0  0  0
   66.1546   58.2542  160.4268 H   0  0  0  0  0  0
   66.9222   56.1762  158.7667 H   0  0  0  0  0  0
   64.0036   55.0936  158.9827 H   0  0  0  0  0  0
   66.2316   54.3207  158.2785 H   0  0  0  0  0  0
   65.0915   53.0735  157.2071 H   0  0  0  0  0  0
   65.2609   53.3237  164.6744 H   0  0  0  0  0  0
   66.3621   51.9171  164.8627 H   0  0  0  0  0  0
   68.2863   53.4700  165.0785 H   0  0  0  0  0  0
   67.1637   54.8644  164.9302 H   0  0  0  0  0  0
   67.2481   50.4980  163.8040 H   0  0  0  0  0  0
   68.4331   50.3947  162.4580 H   0  0  0  0  0  0
   66.7871   49.7031  162.2605 H   0  0  0  0  0  0
   67.2248   50.1801  160.1823 H   0  0  0  0  0  0
   67.0026   51.3805  158.8646 H   0  0  0  0  0  0
   69.1717   49.1903  160.0758 H   0  0  0  0  0  0
   73.4908   50.1826  159.2514 H   0  0  0  0  0  0
   73.6231   51.9266  159.6611 H   0  0  0  0  0  0
   73.3281   51.4229  157.9623 H   0  0  0  0  0  0
   67.9746   53.7204  159.0071 H   0  0  0  0  0  0
   69.6891   54.4365  158.5857 H   0  0  0  0  0  0
  1  2  2  0  0  0
  1  6  1  0  0  0
  1 37  1  0  0  0
  2  3  1  0  0  0
  2 38  1  0  0  0
  3  4  2  0  0  0
  3 39  1  0  0  0
  4  5  1  0  0  0
  5  6  2  0  0  0
  5 40  1  0  0  0
  6  7  1  0  0  0
  7  8  2  0  0  0
  7 41  1  0  0  0
  8  9  1  0  0  0
  8 42  1  0  0  0
  9 10  1  0  0  0
  9 11  1  0  0  0
  9 43  1  0  0  0
 10 44  1  0  0  0
 11 12  1  0  0  0
 11 27  2  0  0  0
 12 13  1  0  0  0
 13 14  1  0  0  0
 13 25  2  0  0  0
 14 15  1  0  0  0
 14 45  1  0  0  0
 14 46  1  0  0  0
 15 16  1  0  0  0
 15 47  1  0  0  0
 15 48  1  0  0  0
 16 17  1  0  0  0
 17 18  2  0  0  0
 17 19  1  0  0  0
 17 20  1  0  0  0
 20 21  1  0  0  0
 21 22  1  0  0  0
 21 23  1  0  0  0
 21 24  2  0  0  0
 25 26  1  0  0  0
 25 27  1  0  0  0
 26 49  1  0  0  0
 26 50  1  0  0  0
 26 51  1  0  0  0
 27 28  1  0  0  0
 28 29  1  0  0  0
 28 52  1  0  0  0
 28 53  1  0  0  0
 29 30  2  0  0  0
 29 35  1  0  0  0
 30 31  1  0  0  0
 30 54  1  0  0  0
 31 32  2  0  0  0
 32 33  1  0  0  0
 32 34  1  0  0  0
 33 55  1  0  0  0
 33 56  1  0  0  0
 33 57  1  0  0  0
 34 35  2  0  0  0
 35 36  1  0  0  0
 36 58  1  0  0  0
 36 59  1  0  0  0
M  CHG  4  19  -1  22  -1  23  -1  27   1
M  END
> <s_m_source_file>
../3f6e_ligand.sdf

> <i_m_source_file_index>
1

> <s_epik_input>
W2NIXTFuW2NIXVtjSF1bY0hdYzEvW0NIXT1bQ0hdL1tDQEhdKFtPSF0pYzJzYyhbQ0gyXVtDSDJdT1tQQEBdKD1PKShbT0hdKU9QKD1PKShbT0hdKVtPSF0pYyhbQ0gzXSlbbitdMltDSDJdYzNbY0hdbmMoW0NIM10pbmMzW05IMl0=

> <s_epik_cmdline>
J2VwaWtfYXBwJywgJy1pbWFlJywgJ2xpZ2FuZF9wcm8ubWFlJywgJy1vbWFlJywgJ2xpZ2FuZF9wcmVwLm1hZScsICctbXMnLCAnMScsICctcGgnLCAnNycsICctcGh0JywgJzAuNScsICctbnQn

> <r_lp_tautomer_probability>
1

> <r_epik_Ionization_Penalty>
  0.1106

> <r_epik_Ionization_Penalty_Charging>
  0.0846

> <r_epik_Ionization_Penalty_Neutral>
  0.0259

> <r_epik_State_Penalty>
 -0.0000

> <r_epik_Charging_Adjusted_Penalty>
0.0846133443195182

> <i_epik_Tot_Q>
-2

> <i_epik_Tot_abs_Q>
4

$$$$
