3f70_ligand
                    3D
 Schrodinger Suite 2020-3.
 28 27  0  0  1  0            999 V2000
   30.0160   21.8440  -56.9690 N   0  3  0  0  0  0
   29.5160   20.9120  -55.9250 C   0  0  1  0  0  0
   29.3400   19.5140  -56.5190 C   0  0  0  0  0  0
   29.0710   18.3960  -55.4940 C   0  0  0  0  0  0
   28.1100   17.3820  -56.1140 C   0  0  0  0  0  0
   28.2780   15.9960  -55.5150 C   0  0  0  0  0  0
   27.2820   15.0470  -56.0130 N   0  3  0  0  0  0
   27.0490   13.8980  -55.1360 C   0  0  0  0  0  0
   30.4380   20.9270  -54.7220 C   0  0  0  0  0  0
   29.9110   20.9895  -53.5792 O   0  0  0  0  0  0
   31.6895   20.8786  -54.8602 O   0  5  0  0  0  0
   29.3378   21.8226  -57.8348 H   0  0  0  0  0  0
   31.0234   21.5347  -57.2845 H   0  0  0  0  0  0
   30.0569   22.8645  -56.5604 H   0  0  0  0  0  0
   28.5333   21.2677  -55.5819 H   0  0  0  0  0  0
   28.4864   19.5152  -57.2128 H   0  0  0  0  0  0
   30.2532   19.2286  -57.0618 H   0  0  0  0  0  0
   30.0185   17.9015  -55.2337 H   0  0  0  0  0  0
   28.6226   18.8294  -54.5878 H   0  0  0  0  0  0
   27.0732   17.7065  -55.9416 H   0  0  0  0  0  0
   28.2975   17.3130  -57.1957 H   0  0  0  0  0  0
   29.2747   15.6055  -55.7682 H   0  0  0  0  0  0
   28.1739   16.0540  -54.4215 H   0  0  0  0  0  0
   26.3160   15.5591  -56.1339 H   0  0  0  0  0  0
   27.6094   14.6477  -56.9843 H   0  0  0  0  0  0
   26.2902   13.2411  -55.5862 H   0  0  0  0  0  0
   26.6941   14.2505  -54.1563 H   0  0  0  0  0  0
   27.9876   13.3392  -55.0066 H   0  0  0  0  0  0
  1  2  1  0  0  0
  1 12  1  0  0  0
  1 13  1  0  0  0
  1 14  1  0  0  0
  2  3  1  0  0  0
  2  9  1  0  0  0
  2 15  1  0  0  0
  3  4  1  0  0  0
  3 16  1  0  0  0
  3 17  1  0  0  0
  4  5  1  0  0  0
  4 18  1  0  0  0
  4 19  1  0  0  0
  5  6  1  0  0  0
  5 20  1  0  0  0
  5 21  1  0  0  0
  6  7  1  0  0  0
  6 22  1  0  0  0
  6 23  1  0  0  0
  7  8  1  0  0  0
  7 24  1  0  0  0
  7 25  1  0  0  0
  8 26  1  0  0  0
  8 27  1  0  0  0
  8 28  1  0  0  0
  9 10  2  0  0  0
  9 11  1  0  0  0
M  CHG  3   1   1   7   1  11  -1
M  END
> <s_m_source_file>
../3f70_ligand.sdf

> <i_m_source_file_index>
1

> <s_epik_input>
Tz1DKFtPSF0pW0NAQEhdKFtOSDMrXSlbQ0gyXVtDSDJdW0NIMl1bQ0gyXVtOSDIrXVtDSDNd

> <s_epik_cmdline>
J2VwaWtfYXBwJywgJy1pbWFlJywgJ2xpZ2FuZF9wcm8ubWFlJywgJy1vbWFlJywgJ2xpZ2FuZF9wcmVwLm1hZScsICctbXMnLCAnMScsICctcGgnLCAnNycsICctcGh0JywgJzAuNScsICctbnQn

> <r_lp_tautomer_probability>
1

> <r_epik_Ionization_Penalty>
  0.0016

> <r_epik_Ionization_Penalty_Charging>
  0.0016

> <r_epik_Ionization_Penalty_Neutral>
  0.0000

> <r_epik_State_Penalty>
 -0.0000

> <r_epik_Charging_Adjusted_Penalty>
0.00156520728045857

> <i_epik_Tot_Q>
1

> <i_epik_Tot_abs_Q>
3

$$$$
