3f78_ligand
                    3D
 Schrodinger Suite 2020-3.
 12 11  0  0  1  0            999 V2000
   27.4000   17.1820    3.8110 F   0  0  0  0  0  0
   28.2080   17.2250    4.8700 C   0  0  0  0  0  0
   29.1390   18.1490    4.6670 F   0  0  0  0  0  0
   28.8090   16.0650    5.0390 F   0  0  0  0  0  0
   27.3980   17.5840    6.1190 C   0  0  2  0  0  0
   26.2020   16.2800    6.6240 Cl  0  0  0  0  0  0
   26.6990   18.7920    5.7910 O   0  0  0  0  0  0
   26.6070   19.7000    6.9060 C   0  0  0  0  0  0
   26.3150   19.0230    8.0300 F   0  0  0  0  0  0
   27.7460   20.4040    7.0710 F   0  0  0  0  0  0
   28.1478   17.8984    6.8599 H   0  0  0  0  0  0
   25.8120   20.4459    6.7587 H   0  0  0  0  0  0
  1  2  1  0  0  0
  2  3  1  0  0  0
  2  4  1  0  0  0
  2  5  1  0  0  0
  5  6  1  0  0  0
  5  7  1  0  0  0
  5 11  1  0  0  0
  7  8  1  0  0  0
  8  9  1  0  0  0
  8 10  1  0  0  0
  8 12  1  0  0  0
M  END
> <s_m_source_file>
../3f78_ligand.sdf

> <i_m_source_file_index>
1

> <s_epik_input>
RkMoRikoRilbQ0BIXShDbClPW0NIXShGKUY=

> <s_epik_cmdline>
J2VwaWtfYXBwJywgJy1pbWFlJywgJ2xpZ2FuZF9wcm8ubWFlJywgJy1vbWFlJywgJ2xpZ2FuZF9wcmVwLm1hZScsICctbXMnLCAnMScsICctcGgnLCAnNycsICctcGh0JywgJzAuNScsICctbnQn

> <r_lp_tautomer_probability>
1

> <r_epik_Ionization_Penalty>
  0.0000

> <r_epik_Ionization_Penalty_Charging>
  0.0000

> <r_epik_Ionization_Penalty_Neutral>
  0.0000

> <r_epik_State_Penalty>
 -0.0000

> <r_epik_Charging_Adjusted_Penalty>
0

> <i_epik_Tot_Q>
0

> <i_epik_Tot_abs_Q>
0

$$$$
