3f7g_ligand
                    3D
 Schrodinger Suite 2020-3.
 71 73  0  0  1  0            999 V2000
   22.5020   49.1180   -7.5500 N   0  3  0  0  0  0
   22.9340   48.7090   -6.1850 C   0  0  1  0  0  0
   22.6830   49.8270   -5.1820 C   0  0  0  0  0  0
   22.2090   47.4320   -5.7710 C   0  0  0  0  0  0
   21.1600   47.1070   -6.3200 O   0  0  0  0  0  0
   22.8090   46.6970   -4.8360 N   0  0  0  0  0  0
   22.2400   45.4670   -4.2880 C   0  0  1  0  0  0
   22.9910   44.1880   -4.7680 C   0  0  0  0  0  0
   22.6970   43.8900   -6.2470 C   0  0  0  0  0  0
   24.5000   44.2980   -4.5140 C   0  0  0  0  0  0
   22.3200   45.5430   -2.7610 C   0  0  0  0  0  0
   23.1850   46.2330   -2.2140 O   0  0  0  0  0  0
   21.4100   44.8440   -2.0660 N   0  0  0  0  0  0
   21.5160   44.7850   -0.6130 C   0  0  1  0  0  0
   20.2200   44.0800   -0.1890 C   0  0  0  0  0  0
   19.7520   43.3520   -1.3840 C   0  0  0  0  0  0
   20.2510   44.0980   -2.5790 C   0  0  0  0  0  0
   22.7660   44.0000   -0.1740 C   0  0  0  0  0  0
   23.2480   43.1520   -0.9280 O   0  0  0  0  0  0
   24.5710   43.6400    1.3980 C   0  0  0  0  0  0
   23.3080   44.2800    1.0140 N   0  0  0  0  0  0
   24.9990   43.9090    2.8350 C   0  0  0  0  0  0
   26.1380   43.0110    3.1340 C   0  0  0  0  0  0
   27.4300   43.3270    2.7200 C   0  0  0  0  0  0
   28.4830   42.4630    3.0170 C   0  0  0  0  0  0
   28.2440   41.2910    3.7230 C   0  0  0  0  0  0
   26.9500   40.9750    4.1320 C   0  0  0  0  0  0
   25.8980   41.8340    3.8370 C   0  0  0  0  0  0
   25.2990   45.3390    3.1420 C   0  0  0  0  0  0
   25.5060   46.3050    2.1550 C   0  0  0  0  0  0
   25.7590   47.6230    2.5080 C   0  0  0  0  0  0
   25.8080   48.0050    3.8400 C   0  0  0  0  0  0
   25.5980   47.0470    4.8270 C   0  0  0  0  0  0
   25.3440   45.7240    4.4810 C   0  0  0  0  0  0
   23.0289   50.0388   -7.8408 H   0  0  0  0  0  0
   21.4172   49.3001   -7.5521 H   0  0  0  0  0  0
   22.7408   48.3173   -8.2654 H   0  0  0  0  0  0
   24.0163   48.5168   -6.2250 H   0  0  0  0  0  0
   23.2157   50.7342   -5.5033 H   0  0  0  0  0  0
   23.0478   49.5192   -4.1909 H   0  0  0  0  0  0
   21.6043   50.0351   -5.1273 H   0  0  0  0  0  0
   23.7832   47.0601   -4.4767 H   0  0  0  0  0  0
   21.2040   45.4470   -4.6573 H   0  0  0  0  0  0
   22.6265   43.3309   -4.1827 H   0  0  0  0  0  0
   21.6097   43.8171   -6.3972 H   0  0  0  0  0  0
   23.1710   42.9387   -6.5306 H   0  0  0  0  0  0
   23.0999   44.7009   -6.8715 H   0  0  0  0  0  0
   24.6781   44.5111   -3.4496 H   0  0  0  0  0  0
   24.9164   45.1120   -5.1256 H   0  0  0  0  0  0
   24.9874   43.3498   -4.7847 H   0  0  0  0  0  0
   21.6235   45.7971   -0.1957 H   0  0  0  0  0  0
   20.4324   43.3907    0.6415 H   0  0  0  0  0  0
   19.4840   44.8301    0.1361 H   0  0  0  0  0  0
   20.1546   42.3284   -1.3708 H   0  0  0  0  0  0
   18.6527   43.3137   -1.3829 H   0  0  0  0  0  0
   19.5044   44.8045   -2.9708 H   0  0  0  0  0  0
   20.5764   43.4239   -3.3851 H   0  0  0  0  0  0
   24.4773   42.5494    1.2892 H   0  0  0  0  0  0
   25.3797   44.0052    0.7479 H   0  0  0  0  0  0
   22.8163   44.9833    1.7022 H   0  0  0  0  0  0
   24.1659   43.6923    3.5198 H   0  0  0  0  0  0
   27.6170   44.2467    2.1657 H   0  0  0  0  0  0
   29.4952   42.7075    2.6948 H   0  0  0  0  0  0
   29.0690   40.6182    3.9572 H   0  0  0  0  0  0
   26.7627   40.0537    4.6836 H   0  0  0  0  0  0
   24.8856   41.5861    4.1560 H   0  0  0  0  0  0
   25.4687   46.0226    1.1029 H   0  0  0  0  0  0
   25.9212   48.3673    1.7284 H   0  0  0  0  0  0
   26.0083   49.0418    4.1103 H   0  0  0  0  0  0
   25.6328   47.3351    5.8777 H   0  0  0  0  0  0
   25.1789   44.9826    5.2628 H   0  0  0  0  0  0
  1  2  1  0  0  0
  1 35  1  0  0  0
  1 36  1  0  0  0
  1 37  1  0  0  0
  2  3  1  0  0  0
  2  4  1  0  0  0
  2 38  1  0  0  0
  3 39  1  0  0  0
  3 40  1  0  0  0
  3 41  1  0  0  0
  4  5  2  0  0  0
  4  6  1  0  0  0
  6  7  1  0  0  0
  6 42  1  0  0  0
  7  8  1  0  0  0
  7 11  1  0  0  0
  7 43  1  0  0  0
  8  9  1  0  0  0
  8 10  1  0  0  0
  8 44  1  0  0  0
  9 45  1  0  0  0
  9 46  1  0  0  0
  9 47  1  0  0  0
 10 48  1  0  0  0
 10 49  1  0  0  0
 10 50  1  0  0  0
 11 12  2  0  0  0
 11 13  1  0  0  0
 13 14  1  0  0  0
 13 17  1  0  0  0
 14 15  1  0  0  0
 14 18  1  0  0  0
 14 51  1  0  0  0
 15 16  1  0  0  0
 15 52  1  0  0  0
 15 53  1  0  0  0
 16 17  1  0  0  0
 16 54  1  0  0  0
 16 55  1  0  0  0
 17 56  1  0  0  0
 17 57  1  0  0  0
 18 19  2  0  0  0
 18 21  1  0  0  0
 20 21  1  0  0  0
 20 22  1  0  0  0
 20 58  1  0  0  0
 20 59  1  0  0  0
 21 60  1  0  0  0
 22 23  1  0  0  0
 22 29  1  0  0  0
 22 61  1  0  0  0
 23 24  2  0  0  0
 23 28  1  0  0  0
 24 25  1  0  0  0
 24 62  1  0  0  0
 25 26  2  0  0  0
 25 63  1  0  0  0
 26 27  1  0  0  0
 26 64  1  0  0  0
 27 28  2  0  0  0
 27 65  1  0  0  0
 28 66  1  0  0  0
 29 30  2  0  0  0
 29 34  1  0  0  0
 30 31  1  0  0  0
 30 67  1  0  0  0
 31 32  2  0  0  0
 31 68  1  0  0  0
 32 33  1  0  0  0
 32 69  1  0  0  0
 33 34  2  0  0  0
 33 70  1  0  0  0
 34 71  1  0  0  0
M  CHG  1   1   1
M  END
> <s_m_source_file>
../3f7g_ligand.sdf

> <i_m_source_file_index>
1

> <s_epik_input>
W05IMytdW0NAQEhdKFtDSDNdKUMoPU8pW05IXVtDQEBIXShbQ0hdKFtDSDNdKVtDSDNdKUMoPU8pTjFbQ0BASF0oW0NIMl1bQ0gyXVtDSDJdMSlDKD1PKVtOSF1bQ0gyXVtDSF0oYzJbY0hdW2NIXVtjSF1bY0hdW2NIXTIpYzNbY0hdW2NIXVtjSF1bY0hdW2NIXTM=

> <s_epik_cmdline>
J2VwaWtfYXBwJywgJy1pbWFlJywgJ2xpZ2FuZF9wcm8ubWFlJywgJy1vbWFlJywgJ2xpZ2FuZF9wcmVwLm1hZScsICctbXMnLCAnMScsICctcGgnLCAnNycsICctcGh0JywgJzAuNScsICctbnQn

> <r_epik_Ionization_Penalty>
  0.1185

> <r_epik_Ionization_Penalty_Charging>
  0.1185

> <r_epik_Ionization_Penalty_Neutral>
  0.0000

> <r_epik_State_Penalty>
  0.1080

> <r_epik_Charging_Adjusted_Penalty>
0.226491525258861

> <i_epik_Tot_Q>
1

> <i_epik_Tot_abs_Q>
1

$$$$
