3f7i_ligand
                    3D
 Schrodinger Suite 2020-3.
 74 77  0  0  1  0            999 V2000
   75.6050   61.0330   15.5380 O   0  0  0  0  0  0
   75.8890   62.0910   16.0720 C   0  0  0  0  0  0
   75.4480   62.3850   17.4890 C   0  0  0  0  0  0
   76.4370   62.7600   18.3930 C   0  0  0  0  0  0
   76.1240   63.0660   19.7170 C   0  0  0  0  0  0
   74.8000   62.9990   20.1410 C   0  0  0  0  0  0
   73.8030   62.6310   19.2380 C   0  0  0  0  0  0
   72.4830   62.5710   19.6830 C   0  0  0  0  0  0
   74.1160   62.3260   17.9120 C   0  0  0  0  0  0
   73.0820   61.9610   17.0380 C   0  0  0  0  0  0
   71.7640   61.9030   17.4860 C   0  0  0  0  0  0
   71.4620   62.2070   18.8100 C   0  0  0  0  0  0
   76.5930   63.0400   15.4490 N   0  0  0  0  0  0
   77.3110   62.8560   14.2020 C   0  0  2  0  0  0
   78.5740   63.7180   14.2000 C   0  0  2  0  0  0
   78.3230   64.9030   13.2880 C   0  0  2  0  0  0
   77.0360   64.6260   12.5160 C   0  0  0  0  0  0
   76.4460   63.3210   13.0430 C   0  0  0  0  0  0
   79.5300   65.0110   12.3800 C   0  0  0  0  0  0
   80.1300   63.6170   12.3500 C   0  0  0  0  0  0
   79.7220   63.0090   13.6160 N   0  0  0  0  0  0
   80.2750   61.9800   14.2710 C   0  0  0  0  0  0
   79.8970   61.6720   15.3930 O   0  0  0  0  0  0
   81.3950   61.1890   13.6420 C   0  0  2  0  0  0
   80.8600   59.9620   12.8930 C   0  0  0  0  0  0
   79.9820   60.4060   11.7290 C   0  0  0  0  0  0
   80.0280   59.0690   13.8070 C   0  0  0  0  0  0
   82.0090   59.1490   12.3040 C   0  0  0  0  0  0
   82.3420   60.7950   14.6760 N   0  0  0  0  0  0
   83.6660   60.8280   14.5370 C   0  0  0  0  0  0
   84.2240   61.2350   13.5300 O   0  0  0  0  0  0
   84.4640   60.2990   15.6980 C   0  0  2  0  0  0
   84.5920   61.3500   16.7970 C   0  0  0  0  0  0
   85.7750   59.8490   15.2740 N   0  3  0  0  0  0
   85.8940   58.6740   14.4260 C   0  0  0  0  0  0
   77.4736   62.8155   18.0608 H   0  0  0  0  0  0
   76.9101   63.3554   20.4144 H   0  0  0  0  0  0
   74.5435   63.2331   21.1742 H   0  0  0  0  0  0
   72.2494   62.8105   20.7204 H   0  0  0  0  0  0
   73.3112   61.7207   15.9998 H   0  0  0  0  0  0
   70.9677   61.6189   16.7980 H   0  0  0  0  0  0
   70.4313   62.1603   19.1615 H   0  0  0  0  0  0
   76.6042   64.0188   15.9508 H   0  0  0  0  0  0
   77.5386   61.7815   14.1408 H   0  0  0  0  0  0
   78.8279   63.9857   15.2363 H   0  0  0  0  0  0
   78.2029   65.8541   13.8275 H   0  0  0  0  0  0
   76.3293   65.4543   12.6722 H   0  0  0  0  0  0
   77.2639   64.5357   11.4437 H   0  0  0  0  0  0
   76.4477   62.5548   12.2537 H   0  0  0  0  0  0
   75.4165   63.4821   13.3954 H   0  0  0  0  0  0
   79.2081   65.3346   11.3792 H   0  0  0  0  0  0
   80.2356   65.7464   12.7939 H   0  0  0  0  0  0
   79.7325   63.0653   11.4854 H   0  0  0  0  0  0
   81.2244   63.6905   12.2664 H   0  0  0  0  0  0
   81.9422   61.8305   12.9356 H   0  0  0  0  0  0
   79.1376   60.9980   12.1117 H   0  0  0  0  0  0
   79.5993   59.5208   11.1999 H   0  0  0  0  0  0
   80.5755   61.0197   11.0353 H   0  0  0  0  0  0
   79.1985   59.6522   14.2334 H   0  0  0  0  0  0
   80.6617   58.6844   14.6197 H   0  0  0  0  0  0
   79.6236   58.2262   13.2272 H   0  0  0  0  0  0
   82.6114   59.7904   11.6439 H   0  0  0  0  0  0
   81.6029   58.3062   11.7255 H   0  0  0  0  0  0
   82.6410   58.7643   13.1180 H   0  0  0  0  0  0
   81.9760   60.4408   15.6510 H   0  0  0  0  0  0
   83.9557   59.4029   16.0834 H   0  0  0  0  0  0
   83.5896   61.6804   17.1069 H   0  0  0  0  0  0
   85.1605   62.2113   16.4162 H   0  0  0  0  0  0
   85.1181   60.9159   17.6600 H   0  0  0  0  0  0
   86.2681   60.6465   14.6989 H   0  0  0  0  0  0
   86.3826   59.6051   16.1579 H   0  0  0  0  0  0
   86.9555   58.4852   14.2080 H   0  0  0  0  0  0
   85.3510   58.8447   13.4847 H   0  0  0  0  0  0
   85.4655   57.8032   14.9438 H   0  0  0  0  0  0
  1  2  2  0  0  0
  2  3  1  0  0  0
  2 13  1  0  0  0
  3  4  2  0  0  0
  3  9  1  0  0  0
  4  5  1  0  0  0
  4 36  1  0  0  0
  5  6  2  0  0  0
  5 37  1  0  0  0
  6  7  1  0  0  0
  6 38  1  0  0  0
  7  8  1  0  0  0
  7  9  2  0  0  0
  8 12  2  0  0  0
  8 39  1  0  0  0
  9 10  1  0  0  0
 10 11  2  0  0  0
 10 40  1  0  0  0
 11 12  1  0  0  0
 11 41  1  0  0  0
 12 42  1  0  0  0
 13 14  1  0  0  0
 13 43  1  0  0  0
 14 15  1  0  0  0
 14 18  1  0  0  0
 14 44  1  0  0  0
 15 16  1  0  0  0
 15 21  1  0  0  0
 15 45  1  0  0  0
 16 17  1  0  0  0
 16 19  1  0  0  0
 16 46  1  0  0  0
 17 18  1  0  0  0
 17 47  1  0  0  0
 17 48  1  0  0  0
 18 49  1  0  0  0
 18 50  1  0  0  0
 19 20  1  0  0  0
 19 51  1  0  0  0
 19 52  1  0  0  0
 20 21  1  0  0  0
 20 53  1  0  0  0
 20 54  1  0  0  0
 21 22  1  0  0  0
 22 23  2  0  0  0
 22 24  1  0  0  0
 24 25  1  0  0  0
 24 29  1  0  0  0
 24 55  1  0  0  0
 25 26  1  0  0  0
 25 27  1  0  0  0
 25 28  1  0  0  0
 26 56  1  0  0  0
 26 57  1  0  0  0
 26 58  1  0  0  0
 27 59  1  0  0  0
 27 60  1  0  0  0
 27 61  1  0  0  0
 28 62  1  0  0  0
 28 63  1  0  0  0
 28 64  1  0  0  0
 29 30  1  0  0  0
 29 65  1  0  0  0
 30 31  2  0  0  0
 30 32  1  0  0  0
 32 33  1  0  0  0
 32 34  1  0  0  0
 32 66  1  0  0  0
 33 67  1  0  0  0
 33 68  1  0  0  0
 33 69  1  0  0  0
 34 35  1  0  0  0
 34 70  1  0  0  0
 34 71  1  0  0  0
 35 72  1  0  0  0
 35 73  1  0  0  0
 35 74  1  0  0  0
M  CHG  1  34   1
M  END
> <s_m_source_file>
../3f7i_ligand.sdf

> <i_m_source_file_index>
1

> <s_epik_input>
W2NIXTFbY0hdW2NIXVtjSF1jKGMxMiljKFtjSF1bY0hdW2NIXTIpQyg9TylbTkhdW0NASF0zW0NIMl1bQ0gyXVtDQEBIXShbQ0BASF0zNClbQ0gyXVtDSDJdTjRDKD1PKVtDQEhdKEMoW0NIM10pKFtDSDNdKVtDSDNdKVtOSF1DKD1PKVtDQEhdKFtDSDNdKVtOSDIrXVtDSDNd

> <s_epik_cmdline>
J2VwaWtfYXBwJywgJy1pbWFlJywgJ2xpZ2FuZF9wcm8ubWFlJywgJy1vbWFlJywgJ2xpZ2FuZF9wcmVwLm1hZScsICctbXMnLCAnMScsICctcGgnLCAnNycsICctcGh0JywgJzAuNScsICctbnQn

> <r_epik_Ionization_Penalty>
  0.0784

> <r_epik_Ionization_Penalty_Charging>
  0.0784

> <r_epik_Ionization_Penalty_Neutral>
  0.0000

> <r_epik_State_Penalty>
  0.0693

> <r_epik_Charging_Adjusted_Penalty>
0.147612155305705

> <i_epik_Tot_Q>
1

> <i_epik_Tot_abs_Q>
1

$$$$
