3f7u_ligand
                    3D
 Schrodinger Suite 2020-3.
 44 45  0  0  1  0            999 V2000
   36.4570   39.7950   94.6250 O   0  0  0  0  0  0
   37.0260   40.5750   93.8710 C   0  0  0  0  0  0
   38.3150   40.4370   93.5540 N   0  0  0  0  0  0
   38.8790   39.1270   93.8380 C   0  0  0  0  0  0
   39.4370   38.9980   95.2290 C   0  0  0  0  0  0
   39.9760   40.3220   95.7360 C   0  0  0  0  0  0
   39.3510   40.5500   96.9960 O   0  0  0  0  0  0
   39.5150   41.9440   97.2670 C   0  0  0  0  0  0
   36.2020   41.7340   93.4360 C   0  0  0  0  0  0
   36.6610   42.9980   93.7360 C   0  0  0  0  0  0
   35.0020   41.4590   92.7720 C   0  0  0  0  0  0
   34.2550   42.5210   92.4480 N   0  0  0  0  0  0
   34.6520   43.7910   92.7470 C   0  0  0  0  0  0
   35.8390   44.0670   93.3960 C   0  0  0  0  0  0
   36.2230   45.6180   93.7180 S   0  0  0  0  0  0
   35.0320   46.2110   94.4520 O   0  0  0  0  0  0
   36.4730   46.3380   92.3680 O   0  0  0  0  0  0
   37.6400   45.6710   94.4910 N   0  0  0  0  0  0
   34.5360   39.8230   92.3990 S   0  0  0  0  0  0
   33.0230   39.9510   91.6460 C   0  0  0  0  0  0
   32.9270   40.4600   90.3450 C   0  0  0  0  0  0
   31.6640   40.5360   89.7370 C   0  0  0  0  0  0
   30.5280   40.1100   90.4250 C   0  0  0  0  0  0
   30.6130   39.5820   91.7260 C   0  0  0  0  0  0
   31.8680   39.5090   92.3320 C   0  0  0  0  0  0
   38.9446   41.2225   93.1106 H   0  0  0  0  0  0
   38.0989   38.3597   93.7255 H   0  0  0  0  0  0
   39.6999   38.9210   93.1353 H   0  0  0  0  0  0
   38.6439   38.6601   95.9123 H   0  0  0  0  0  0
   40.2573   38.2652   95.2285 H   0  0  0  0  0  0
   41.0688   40.2562   95.8428 H   0  0  0  0  0  0
   39.7248   41.1185   95.0201 H   0  0  0  0  0  0
   39.0503   42.1867   98.2341 H   0  0  0  0  0  0
   39.0336   42.5313   96.4712 H   0  0  0  0  0  0
   40.5873   42.1866   97.3043 H   0  0  0  0  0  0
   37.6259   43.1533   94.2186 H   0  0  0  0  0  0
   34.0062   44.6216   92.4621 H   0  0  0  0  0  0
   37.9000   46.7174   94.7087 H   0  0  0  0  0  0
   38.4201   45.2235   93.8576 H   0  0  0  0  0  0
   33.8186   40.7918   89.8130 H   0  0  0  0  0  0
   31.5709   40.9290   88.7246 H   0  0  0  0  0  0
   29.5530   40.1879   89.9440 H   0  0  0  0  0  0
   29.7202   39.2382   92.2482 H   0  0  0  0  0  0
   31.9587   39.1083   93.3416 H   0  0  0  0  0  0
  1  2  2  0  0  0
  2  3  1  0  0  0
  2  9  1  0  0  0
  3  4  1  0  0  0
  3 26  1  0  0  0
  4  5  1  0  0  0
  4 27  1  0  0  0
  4 28  1  0  0  0
  5  6  1  0  0  0
  5 29  1  0  0  0
  5 30  1  0  0  0
  6  7  1  0  0  0
  6 31  1  0  0  0
  6 32  1  0  0  0
  7  8  1  0  0  0
  8 33  1  0  0  0
  8 34  1  0  0  0
  8 35  1  0  0  0
  9 10  2  0  0  0
  9 11  1  0  0  0
 10 14  1  0  0  0
 10 36  1  0  0  0
 11 12  2  0  0  0
 11 19  1  0  0  0
 12 13  1  0  0  0
 13 14  2  0  0  0
 13 37  1  0  0  0
 14 15  1  0  0  0
 15 16  2  0  0  0
 15 17  2  0  0  0
 15 18  1  0  0  0
 18 38  1  0  0  0
 18 39  1  0  0  0
 19 20  1  0  0  0
 20 21  2  0  0  0
 20 25  1  0  0  0
 21 22  1  0  0  0
 21 40  1  0  0  0
 22 23  2  0  0  0
 22 41  1  0  0  0
 23 24  1  0  0  0
 23 42  1  0  0  0
 24 25  2  0  0  0
 24 43  1  0  0  0
 25 44  1  0  0  0
M  END
> <s_m_source_file>
../3f7u_ligand.sdf

> <i_m_source_file_index>
1

> <s_epik_input>
W0NIM11PW0NIMl1bQ0gyXVtDSDJdW05IXUMoPU8pYzFbY0hdYyhTKD1PKSg9TylbTkgyXSlbY0hdbmMxU2MyW2NIXVtjSF1bY0hdW2NIXVtjSF0y

> <s_epik_cmdline>
J2VwaWtfYXBwJywgJy1pbWFlJywgJ2xpZ2FuZF9wcm8ubWFlJywgJy1vbWFlJywgJ2xpZ2FuZF9wcmVwLm1hZScsICctbXMnLCAnMScsICctcGgnLCAnNycsICctcGh0JywgJzAuNScsICctbnQn

> <r_lp_tautomer_probability>
1

> <r_epik_Ionization_Penalty>
  0.0059

> <r_epik_Ionization_Penalty_Charging>
  0.0000

> <r_epik_Ionization_Penalty_Neutral>
  0.0059

> <r_epik_State_Penalty>
 -0.0000

> <r_epik_Charging_Adjusted_Penalty>
0

> <i_epik_Tot_Q>
0

> <i_epik_Tot_abs_Q>
0

$$$$
