3f7z_ligand
                    3D
 Schrodinger Suite 2020-3.
 38 41  0  0  1  0            999 V2000
    0.8710   14.1970   13.5740 C   0  0  0  0  0  0
    1.2530   11.8460   19.0440 C   0  0  0  0  0  0
    2.0890   12.9410   15.0170 C   0  0  0  0  0  0
    0.8570   13.3610   15.6750 C   0  0  0  0  0  0
    0.5900   13.0130   16.9870 C   0  0  0  0  0  0
    3.0240   12.1650   15.6740 C   0  0  0  0  0  0
    2.7310   11.8250   16.9970 C   0  0  0  0  0  0
    1.5560   12.2390   17.6350 C   0  0  0  0  0  0
   -3.0120   15.5030   18.2270 F   0  0  0  0  0  0
   -3.0230   14.1680   18.4390 C   0  0  0  0  0  0
   -3.2570   13.1820   17.3250 C   0  0  0  0  0  0
   -3.4750   13.5640   16.0130 O   0  0  0  0  0  0
   -2.7210   14.5880   15.3600 C   0  0  0  0  0  0
   -3.2670   11.8190   17.6350 C   0  0  0  0  0  0
   -3.0540   11.3970   18.9450 C   0  0  0  0  0  0
   -2.8210   13.6820   19.7330 C   0  0  0  0  0  0
   -2.8260   12.3060   19.9890 C   0  0  0  0  0  0
   -2.5990   11.7760   21.4060 C   0  0  0  0  0  0
   -0.9650   11.9620   22.0990 S   0  0  0  0  0  0
    0.1820   11.7070   20.9450 C   0  0  0  0  0  0
    1.2140   10.9730   21.0430 N   0  0  0  0  0  0
    1.9000   11.0580   19.8050 N   0  0  0  0  0  0
    0.0690   12.3660   19.6720 O   0  0  0  0  0  0
    2.0780   13.4290   13.7540 O   0  0  0  0  0  0
    0.1290   14.0990   14.8040 O   0  0  0  0  0  0
    1.1312   15.2435   13.3570 H   0  0  0  0  0  0
    0.2935   13.7813   12.7351 H   0  0  0  0  0  0
   -0.3256   13.3261   17.4887 H   0  0  0  0  0  0
    3.9414   11.8355   15.1863 H   0  0  0  0  0  0
    3.4434   11.2151   17.5526 H   0  0  0  0  0  0
   -3.0810   14.7064   14.3274 H   0  0  0  0  0  0
   -1.6571   14.3086   15.3476 H   0  0  0  0  0  0
   -2.8446   15.5369   15.9026 H   0  0  0  0  0  0
   -3.4420   11.0843   16.8491 H   0  0  0  0  0  0
   -3.0647   10.3296   19.1655 H   0  0  0  0  0  0
   -2.6577   14.3821   20.5523 H   0  0  0  0  0  0
   -3.2730   12.2945   22.1038 H   0  0  0  0  0  0
   -2.8057   10.6959   21.4310 H   0  0  0  0  0  0
  1 24  1  0  0  0
  1 25  1  0  0  0
  1 26  1  0  0  0
  1 27  1  0  0  0
  2  8  1  0  0  0
  2 22  2  0  0  0
  2 23  1  0  0  0
  3  4  2  0  0  0
  3  6  1  0  0  0
  3 24  1  0  0  0
  4  5  1  0  0  0
  4 25  1  0  0  0
  5  8  2  0  0  0
  5 28  1  0  0  0
  6  7  2  0  0  0
  6 29  1  0  0  0
  7  8  1  0  0  0
  7 30  1  0  0  0
  9 10  1  0  0  0
 10 11  2  0  0  0
 10 16  1  0  0  0
 11 12  1  0  0  0
 11 14  1  0  0  0
 12 13  1  0  0  0
 13 31  1  0  0  0
 13 32  1  0  0  0
 13 33  1  0  0  0
 14 15  2  0  0  0
 14 34  1  0  0  0
 15 17  1  0  0  0
 15 35  1  0  0  0
 16 17  2  0  0  0
 16 36  1  0  0  0
 17 18  1  0  0  0
 18 19  1  0  0  0
 18 37  1  0  0  0
 18 38  1  0  0  0
 19 20  1  0  0  0
 20 21  2  0  0  0
 20 23  1  0  0  0
 21 22  1  0  0  0
M  END
> <s_m_source_file>
../3f7z_ligand.sdf

> <i_m_source_file_index>
1

> <s_epik_input>
TzFbQ0gyXU9jKGMxMilbY0hdYyhbY0hdW2NIXTIpLWMzbm5jKG8zKVNbQ0gyXWMoW2NIXTQpW2NIXVtjSF1jKGM0RilPW0NIM10=

> <s_epik_cmdline>
J2VwaWtfYXBwJywgJy1pbWFlJywgJ2xpZ2FuZF9wcm8ubWFlJywgJy1vbWFlJywgJ2xpZ2FuZF9wcmVwLm1hZScsICctbXMnLCAnMScsICctcGgnLCAnNycsICctcGh0JywgJzAuNScsICctbnQn

> <r_lp_tautomer_probability>
1

> <r_epik_Ionization_Penalty>
  0.0000

> <r_epik_Ionization_Penalty_Charging>
  0.0000

> <r_epik_Ionization_Penalty_Neutral>
  0.0000

> <r_epik_State_Penalty>
 -0.0000

> <r_epik_Charging_Adjusted_Penalty>
0

> <i_epik_Tot_Q>
0

> <i_epik_Tot_abs_Q>
0

> <s_epik_Chemistry_Notes>
This compound contains an acetal/aminal-like group ( X-CH(R)-Y where X, Y are N, S, or O) that may be acid/base labile, releasing an aldehyde.

$$$$
