3f81_ligand
                    3D
 Schrodinger Suite 2020-3.
 20 20  0  0  1  0            999 V2000
    1.7190   -0.9980   -4.6530 O   0  0  0  0  0  0
    0.5690   -0.6100   -3.9420 S   0  0  0  0  0  0
   -0.1220   -1.6290   -3.1760 O   0  0  0  0  0  0
    0.4250    0.7820   -3.5620 O   0  5  0  0  0  0
   -0.5950   -0.6020   -5.3270 C   0  0  0  0  0  0
   -0.2550    0.4600   -6.3670 C   0  0  0  0  0  0
   -1.2260    0.4550   -7.4800 N   0  0  0  0  0  0
   -1.8920   -0.6470   -7.9760 C   0  0  0  0  0  0
   -1.8140   -1.8250   -7.5730 O   0  0  0  0  0  0
   -1.4980    1.6110   -8.1160 C   0  0  0  0  0  0
   -0.8670    3.1870   -7.7610 S   0  0  0  0  0  0
   -2.6010    1.3240   -9.3340 S   0  0  0  0  0  0
   -2.7410   -0.3450   -9.0500 C   0  0  0  0  0  0
   -3.5350   -1.2680   -9.7500 C   0  0  0  0  0  0
   -0.5786   -1.5825   -5.8254 H   0  0  0  0  0  0
   -1.6090   -0.3979   -4.9526 H   0  0  0  0  0  0
   -0.2703    1.4535   -5.8951 H   0  0  0  0  0  0
    0.7468    0.2642   -6.7770 H   0  0  0  0  0  0
   -3.5314   -2.3288   -9.4588 H   0  0  0  0  0  0
   -4.1605   -0.9302  -10.5895 H   0  0  0  0  0  0
  1  2  2  0  0  0
  2  3  2  0  0  0
  2  4  1  0  0  0
  2  5  1  0  0  0
  5  6  1  0  0  0
  5 15  1  0  0  0
  5 16  1  0  0  0
  6  7  1  0  0  0
  6 17  1  0  0  0
  6 18  1  0  0  0
  7  8  1  0  0  0
  7 10  1  0  0  0
  8  9  2  0  0  0
  8 13  1  0  0  0
 10 11  2  0  0  0
 10 12  1  0  0  0
 12 13  1  0  0  0
 13 14  2  0  0  0
 14 19  1  0  0  0
 14 20  1  0  0  0
M  CHG  1   4  -1
M  END
> <s_m_source_file>
../3f81_ligand.sdf

> <i_m_source_file_index>
1

> <s_epik_input>
Tz1TKD1PKShbT0hdKVtDSDJdW0NIMl1OMUMoPU8pQyg9W0NIMl0pU0MxPVM=

> <s_epik_cmdline>
J2VwaWtfYXBwJywgJy1pbWFlJywgJ2xpZ2FuZF9wcm8ubWFlJywgJy1vbWFlJywgJ2xpZ2FuZF9wcmVwLm1hZScsICctbXMnLCAnMScsICctcGgnLCAnNycsICctcGh0JywgJzAuNScsICctbnQn

> <r_lp_tautomer_probability>
1

> <r_epik_Ionization_Penalty>
  0.0000

> <r_epik_Ionization_Penalty_Charging>
  0.0000

> <r_epik_Ionization_Penalty_Neutral>
  0.0000

> <r_epik_State_Penalty>
 -0.0000

> <r_epik_Charging_Adjusted_Penalty>
1.18234452013687e-08

> <i_epik_Tot_Q>
-1

> <i_epik_Tot_abs_Q>
1

$$$$
