3f82_ligand
                    3D
 Schrodinger Suite 2020-3.
 55 58  0  0  1  0            999 V2000
    0.9630    0.3810   55.7010 C   0  0  0  0  0  0
   -1.0700    1.5630   56.3390 C   0  0  0  0  0  0
    1.6820    7.6980   57.4590 C   0  0  0  0  0  0
    1.8430    8.8920   58.1500 C   0  0  0  0  0  0
    0.7250   -0.5460   56.7070 C   0  0  0  0  0  0
   -1.3010    0.6360   57.3420 C   0  0  0  0  0  0
   -0.5190   11.2300   58.6730 C   0  0  0  0  0  0
    1.2630    8.9120   55.4060 C   0  0  0  0  0  0
   -1.5180   11.7120   59.5010 C   0  0  0  0  0  0
    0.0590    1.4340   55.5160 C   0  0  0  0  0  0
    1.3910    7.7030   56.0860 C   0  0  0  0  0  0
    1.7140   10.0950   57.4660 C   0  0  0  0  0  0
    0.7780   11.6870   58.8890 C   0  0  0  0  0  0
   -0.4030   -0.4060   57.5130 C   0  0  0  0  0  0
    1.4220   10.1030   56.1030 C   0  0  0  0  0  0
    1.0130   12.5990   59.9220 C   0  0  0  0  0  0
   -0.0540   13.0370   60.7140 C   0  0  0  0  0  0
    0.4350    2.9520   52.2100 C   0  0  0  0  0  0
    0.2210    2.0480   53.1670 C   0  0  0  0  0  0
    0.8070    4.7300   53.8410 C   0  0  0  0  0  0
    0.7330    4.3200   52.5600 C   0  0  0  0  0  0
    0.5680    3.7000   54.9220 C   0  0  0  0  0  0
    1.1230    6.1820   54.1300 C   0  0  0  0  0  0
    1.2330    5.5230   49.1740 C   0  0  0  0  0  0
    1.0480    4.4660   50.2410 C   0  0  0  0  0  0
   -1.3170   12.5960   60.5050 N   0  0  0  0  0  0
    0.2830    2.3940   54.4990 N   0  0  0  0  0  0
    0.1730   13.9550   61.7530 N   0  0  0  0  0  0
    1.2450    6.4480   55.4780 N   0  0  0  0  0  0
    0.6240    4.0170   56.1060 O   0  0  0  0  0  0
    1.2500    7.0050   53.2320 O   0  0  0  0  0  0
    1.8640   11.2810   58.1330 O   0  0  0  0  0  0
    0.9290    5.1590   51.4870 O   0  0  0  0  0  0
   -0.6300   -1.2990   58.4810 F   0  0  0  0  0  0
    1.2960   11.2590   55.4380 F   0  0  0  0  0  0
    2.6150   13.1760   60.2110 Cl  0  0  0  0  0  0
    1.8424    0.2901   55.0634 H   0  0  0  0  0  0
   -1.7635    2.3905   56.1895 H   0  0  0  0  0  0
    1.7824    6.7498   57.9871 H   0  0  0  0  0  0
    2.0679    8.8857   59.2165 H   0  0  0  0  0  0
    1.4142   -1.3756   56.8648 H   0  0  0  0  0  0
   -2.1754    0.7245   57.9868 H   0  0  0  0  0  0
   -0.7404   10.5169   57.8789 H   0  0  0  0  0  0
    1.0406    8.9233   54.3390 H   0  0  0  0  0  0
   -2.5343   11.3555   59.3328 H   0  0  0  0  0  0
    0.3847    2.6571   51.1619 H   0  0  0  0  0  0
   -0.0067    1.0185   52.8906 H   0  0  0  0  0  0
    1.3300    5.0387   48.1911 H   0  0  0  0  0  0
    2.1420    6.1045   49.3876 H   0  0  0  0  0  0
    0.3615    6.1941   49.1677 H   0  0  0  0  0  0
    0.1390    3.8845   50.0274 H   0  0  0  0  0  0
    1.9195    3.7949   50.2473 H   0  0  0  0  0  0
    1.1896   14.3291   61.9441 H   0  0  0  0  0  0
   -0.6659   14.2997   62.3754 H   0  0  0  0  0  0
    1.2181    5.5377   56.0950 H   0  0  0  0  0  0
  1  5  2  0  0  0
  1 10  1  0  0  0
  1 37  1  0  0  0
  2  6  1  0  0  0
  2 10  2  0  0  0
  2 38  1  0  0  0
  3  4  2  0  0  0
  3 11  1  0  0  0
  3 39  1  0  0  0
  4 12  1  0  0  0
  4 40  1  0  0  0
  5 14  1  0  0  0
  5 41  1  0  0  0
  6 14  2  0  0  0
  6 42  1  0  0  0
  7  9  2  0  0  0
  7 13  1  0  0  0
  7 43  1  0  0  0
  8 11  2  0  0  0
  8 15  1  0  0  0
  8 44  1  0  0  0
  9 26  1  0  0  0
  9 45  1  0  0  0
 10 27  1  0  0  0
 11 29  1  0  0  0
 12 15  2  0  0  0
 12 32  1  0  0  0
 13 16  2  0  0  0
 13 32  1  0  0  0
 14 34  1  0  0  0
 15 35  1  0  0  0
 16 17  1  0  0  0
 16 36  1  0  0  0
 17 26  2  0  0  0
 17 28  1  0  0  0
 18 19  2  0  0  0
 18 21  1  0  0  0
 18 46  1  0  0  0
 19 27  1  0  0  0
 19 47  1  0  0  0
 20 21  2  0  0  0
 20 22  1  0  0  0
 20 23  1  0  0  0
 21 33  1  0  0  0
 22 27  1  0  0  0
 22 30  2  0  0  0
 23 29  1  0  0  0
 23 31  2  0  0  0
 24 25  1  0  0  0
 24 48  1  0  0  0
 24 49  1  0  0  0
 24 50  1  0  0  0
 25 33  1  0  0  0
 25 51  1  0  0  0
 25 52  1  0  0  0
 28 53  1  0  0  0
 28 54  1  0  0  0
 29 55  1  0  0  0
M  END
> <s_m_source_file>
../3f82_ligand.sdf

> <i_m_source_file_index>
1

> <s_epik_input>
W2NIXTFbY0hdYyhGKVtjSF1bY0hdYzEtbihjMj1PKVtjSF1bY0hdYyhPW0NIMl1bQ0gzXSljMkMoPU8pW05IXWMzW2NIXVtjSF1jKGMoRilbY0hdMylPYzRbY0hdW2NIXW5jKGM0Q2wpW05IMl0=

> <s_epik_cmdline>
J2VwaWtfYXBwJywgJy1pbWFlJywgJ2xpZ2FuZF9wcm8ubWFlJywgJy1vbWFlJywgJ2xpZ2FuZF9wcmVwLm1hZScsICctbXMnLCAnMScsICctcGgnLCAnNycsICctcGh0JywgJzAuNScsICctbnQn

> <r_lp_tautomer_probability>
1

> <r_epik_Ionization_Penalty>
  0.0027

> <r_epik_Ionization_Penalty_Charging>
  0.0000

> <r_epik_Ionization_Penalty_Neutral>
  0.0027

> <r_epik_State_Penalty>
 -0.0000

> <r_epik_Charging_Adjusted_Penalty>
2.50293117077062e-09

> <i_epik_Tot_Q>
0

> <i_epik_Tot_abs_Q>
0

$$$$
