3f88_ligand
                    3D
 Schrodinger Suite 2020-3.
 34 37  0  0  1  0            999 V2000
    4.1670  -14.3600   32.5100 C   0  0  0  0  0  0
    4.1380  -13.9590   33.8450 C   0  0  0  0  0  0
    5.0490  -14.3420   34.8370 C   0  0  0  0  0  0
    6.0660  -15.1780   34.3760 C   0  0  0  0  0  0
    6.1360  -15.6100   33.0360 C   0  0  0  0  0  0
    3.6740  -14.0180   36.6710 C   0  0  0  0  0  0
    5.5120  -12.0330   38.9920 C   0  0  0  0  0  0
    7.5190  -11.8660   37.6910 C   0  0  0  0  0  0
    5.6800  -13.0980   36.8050 C   0  0  0  0  0  0
   10.9250  -11.2970   36.9610 C   0  0  0  0  0  0
   12.4110  -11.7090   36.1890 S   0  5  0  0  0  0
   10.7810  -10.2230   37.7490 N   0  0  0  0  0  0
    9.4310  -10.2900   38.1300 N   0  0  0  0  0  0
    9.8300  -12.0640   36.8050 O   0  0  0  0  0  0
    8.8940  -11.3910   37.5420 C   0  0  0  0  0  0
    6.8120  -11.5690   38.8550 C   0  0  0  0  0  0
    6.9810  -12.6260   36.6690 C   0  0  0  0  0  0
    4.9520  -12.8070   37.9670 C   0  0  0  0  0  0
    3.7340  -13.3880   37.8590 N   0  0  0  0  0  0
    4.8580  -13.8620   36.0830 N   0  0  0  0  0  0
    5.1840  -15.2040   32.0890 C   0  0  0  0  0  0
    5.2100  -15.5810   30.7640 O   0  0  0  0  0  0
    5.9440  -16.7150   30.2970 C   0  0  0  0  0  0
    3.4049  -14.0167   31.8104 H   0  0  0  0  0  0
    3.3336  -13.2867   34.1434 H   0  0  0  0  0  0
    6.8332  -15.5087   35.0762 H   0  0  0  0  0  0
    6.9456  -16.2724   32.7297 H   0  0  0  0  0  0
    2.8164  -14.5553   36.2662 H   0  0  0  0  0  0
    4.9335  -11.7985   39.8856 H   0  0  0  0  0  0
    7.2745  -10.9800   39.6470 H   0  0  0  0  0  0
    7.5641  -12.8504   35.7758 H   0  0  0  0  0  0
    5.8130  -16.8140   29.2093 H   0  0  0  0  0  0
    5.5726  -17.6227   30.7952 H   0  0  0  0  0  0
    7.0113  -16.5810   30.5271 H   0  0  0  0  0  0
  1  2  2  0  0  0
  1 21  1  0  0  0
  1 24  1  0  0  0
  2  3  1  0  0  0
  2 25  1  0  0  0
  3  4  2  0  0  0
  3 20  1  0  0  0
  4  5  1  0  0  0
  4 26  1  0  0  0
  5 21  2  0  0  0
  5 27  1  0  0  0
  6 19  2  0  0  0
  6 20  1  0  0  0
  6 28  1  0  0  0
  7 16  1  0  0  0
  7 18  2  0  0  0
  7 29  1  0  0  0
  8 15  1  0  0  0
  8 16  2  0  0  0
  8 17  1  0  0  0
  9 17  2  0  0  0
  9 18  1  0  0  0
  9 20  1  0  0  0
 10 11  1  0  0  0
 10 12  2  0  0  0
 10 14  1  0  0  0
 12 13  1  0  0  0
 13 15  2  0  0  0
 14 15  1  0  0  0
 16 30  1  0  0  0
 17 31  1  0  0  0
 18 19  1  0  0  0
 21 22  1  0  0  0
 22 23  1  0  0  0
 23 32  1  0  0  0
 23 33  1  0  0  0
 23 34  1  0  0  0
M  CHG  1  11  -1
M  END
> <s_m_source_file>
../3f88_ligand.sdf

> <i_m_source_file_index>
1

> <s_epik_input>
W2NIXTFbY0hdYyhPW0NIM10pW2NIXVtjSF1jMS1uMltjSF1uYyhjMjMpW2NIXVtjSF1jKFtjSF0zKS1jKG80KW5bbkhdYzQ9Uw==

> <s_epik_cmdline>
J2VwaWtfYXBwJywgJy1pbWFlJywgJ2xpZ2FuZF9wcm8ubWFlJywgJy1vbWFlJywgJ2xpZ2FuZF9wcmVwLm1hZScsICctbXMnLCAnMScsICctcGgnLCAnNycsICctcGh0JywgJzAuNScsICctbnQn

> <r_epik_Ionization_Penalty>
  0.0410

> <r_epik_Ionization_Penalty_Charging>
  0.0000

> <r_epik_Ionization_Penalty_Neutral>
  0.0410

> <r_epik_State_Penalty>
  0.0338

> <r_epik_Charging_Adjusted_Penalty>
0.0337603068138116

> <i_epik_Tot_Q>
-1

> <i_epik_Tot_abs_Q>
1

$$$$
