3f8e_ligand
                    3D
 Schrodinger Suite 2020-3.
 41 41  0  0  1  0            999 V2000
   -2.6550    3.5030   10.9140 C   0  0  0  0  0  0
   -4.1430    3.4800   10.3940 C   0  0  0  0  0  0
   -4.6420    2.0210   10.4280 C   0  0  0  0  0  0
   -5.0700    4.4540   11.1960 C   0  0  0  0  0  0
   -6.2140    5.2550   10.3980 C   0  0  2  0  0  0
   -5.9780    5.2100    9.0840 O   0  0  0  0  0  0
   -6.3380    6.7720   10.5380 C   0  0  0  0  0  0
   -6.1350    7.4850    9.3790 C   0  0  0  0  0  0
   -6.6340    7.4680   11.7070 C   0  0  0  0  0  0
   -6.8020    6.8200   12.8680 O   0  0  0  0  0  0
   -7.5360    7.3980   13.8050 C   0  0  0  0  0  0
   -6.7060    8.8200   11.6420 C   0  0  0  0  0  0
   -6.4820    9.4830   10.4670 C   0  0  0  0  0  0
   -6.5190   10.8060   10.4090 O   0  0  0  0  0  0
   -6.1860    8.8520    9.3200 C   0  0  0  0  0  0
   -6.0060    9.5860    8.1240 C   0  0  0  0  0  0
   -5.5020    9.1520    6.8550 C   0  0  0  0  0  0
   -5.2610    7.9100    6.2090 C   0  0  0  0  0  0
   -5.1410    6.8110    6.7520 O   0  5  0  0  0  0
   -4.9770    7.9510    5.0480 O   0  0  0  0  0  0
   -2.0480    2.8043   10.3195 H   0  0  0  0  0  0
   -2.6314    3.2010   11.9715 H   0  0  0  0  0  0
   -2.2473    4.5197   10.8139 H   0  0  0  0  0  0
   -4.1906    3.8344    9.3537 H   0  0  0  0  0  0
   -3.9548    1.3849    9.8507 H   0  0  0  0  0  0
   -5.6486    1.9674    9.9876 H   0  0  0  0  0  0
   -4.6785    1.6702   11.4699 H   0  0  0  0  0  0
   -5.6101    3.8909   11.9714 H   0  0  0  0  0  0
   -4.4581    5.2357   11.6698 H   0  0  0  0  0  0
   -7.1521    4.7538   10.6788 H   0  0  0  0  0  0
   -5.8262    4.2414    8.5853 H   0  0  0  0  0  0
   -5.9231    6.9344    8.4624 H   0  0  0  0  0  0
   -7.5790    6.7470   14.6906 H   0  0  0  0  0  0
   -8.5539    7.5646   13.4226 H   0  0  0  0  0  0
   -7.0853    8.3628   14.0806 H   0  0  0  0  0  0
   -6.9463    9.3880   12.5408 H   0  0  0  0  0  0
   -6.7551   11.3897   11.3110 H   0  0  0  0  0  0
   -6.9746    9.9867    7.7905 H   0  0  0  0  0  0
   -5.3082   10.4168    8.3052 H   0  0  0  0  0  0
   -6.1410    9.5478    6.0519 H   0  0  0  0  0  0
   -4.4748    9.5224    6.7223 H   0  0  0  0  0  0
  1  2  1  0  0  0
  1 21  1  0  0  0
  1 22  1  0  0  0
  1 23  1  0  0  0
  2  3  1  0  0  0
  2  4  1  0  0  0
  2 24  1  0  0  0
  3 25  1  0  0  0
  3 26  1  0  0  0
  3 27  1  0  0  0
  4  5  1  0  0  0
  4 28  1  0  0  0
  4 29  1  0  0  0
  5  6  1  0  0  0
  5  7  1  0  0  0
  5 30  1  0  0  0
  6 31  1  0  0  0
  7  8  2  0  0  0
  7  9  1  0  0  0
  8 15  1  0  0  0
  8 32  1  0  0  0
  9 10  1  0  0  0
  9 12  2  0  0  0
 10 11  1  0  0  0
 11 33  1  0  0  0
 11 34  1  0  0  0
 11 35  1  0  0  0
 12 13  1  0  0  0
 12 36  1  0  0  0
 13 14  1  0  0  0
 13 15  2  0  0  0
 14 37  1  0  0  0
 15 16  1  0  0  0
 16 17  1  0  0  0
 16 38  1  0  0  0
 16 39  1  0  0  0
 17 18  1  0  0  0
 17 40  1  0  0  0
 17 41  1  0  0  0
 18 19  1  0  0  0
 18 20  2  0  0  0
M  CHG  1  19  -1
M  END
> <s_m_source_file>
../3f8e_ligand.sdf

> <i_m_source_file_index>
1

> <s_epik_input>
W0NIM11bQ0hdKFtDSDNdKVtDSDJdW0NASF0oW09IXSljMVtjSF1jKFtDSDJdW0NIMl1DKD1PKVtPSF0pYyhbT0hdKVtjSF1jMU9bQ0gzXQ==

> <s_epik_cmdline>
J2VwaWtfYXBwJywgJy1pbWFlJywgJ2xpZ2FuZF9wcm8ubWFlJywgJy1vbWFlJywgJ2xpZ2FuZF9wcmVwLm1hZScsICctbXMnLCAnMScsICctcGgnLCAnNycsICctcGh0JywgJzAuNScsICctbnQn

> <r_lp_tautomer_probability>
1

> <r_epik_Ionization_Penalty>
  0.0046

> <r_epik_Ionization_Penalty_Charging>
  0.0042

> <r_epik_Ionization_Penalty_Neutral>
  0.0005

> <r_epik_State_Penalty>
 -0.0000

> <r_epik_Charging_Adjusted_Penalty>
0.00415942774514653

> <i_epik_Tot_Q>
-1

> <i_epik_Tot_abs_Q>
1

$$$$
