3f8f_ligand
                    3D
 Schrodinger Suite 2020-3.
 68 72  0  0  1  0            999 V2000
   25.4770   39.1680   47.9470 C   0  0  0  0  0  0
   26.1120   38.7900   46.7730 C   0  0  0  0  0  0
   25.4470   38.0300   45.8250 C   0  0  0  0  0  0
   24.1290   37.6360   46.0420 C   0  0  0  0  0  0
   23.5400   36.9540   45.1860 O   0  0  0  0  0  0
   23.4770   38.0190   47.2350 C   0  0  0  0  0  0
   22.1560   37.6380   47.4750 C   0  0  0  0  0  0
   21.5540   36.9620   46.6390 O   0  0  0  0  0  0
   21.5130   38.0210   48.6640 C   0  0  0  0  0  0
   20.1910   37.6300   48.8850 C   0  0  0  0  0  0
   19.5390   36.8810   47.9490 O   0  0  0  0  0  0
   19.4830   38.0260   50.1450 C   0  0  0  0  0  0
   18.0680   37.6120   50.3980 C   0  0  1  0  0  0
   17.7380   36.5390   49.5330 O   0  0  0  0  0  0
   17.9740   37.1060   51.8350 C   0  0  0  0  0  0
   18.5200   38.0780   52.9000 C   0  0  2  0  0  0
   19.2800   37.2990   53.8510 O   0  0  0  0  0  0
   17.3300   38.7210   53.6290 C   0  0  0  0  0  0
   16.1230   38.6310   53.1080 O   0  0  0  0  0  0
   17.5730   39.4410   54.9310 C   0  0  0  0  0  0
   19.4400   39.1860   52.3570 C   0  0  0  0  0  0
   20.1450   38.7760   51.0830 C   0  0  0  0  0  0
   21.5670   39.1860   50.8200 C   0  0  0  0  0  0
   22.2510   39.9430   51.7480 O   0  0  0  0  0  0
   22.2000   38.7950   49.6220 C   0  0  0  0  0  0
   23.5260   39.1780   49.3800 C   0  0  0  0  0  0
   24.1390   39.8610   50.2220 O   0  0  0  0  0  0
   24.1620   38.7880   48.1850 C   0  0  0  0  0  0
   24.2720   36.1560   44.2800 C   0  0  0  0  0  0
   16.3440   36.4240   49.2970 C   0  0  1  0  0  0
   16.1040   35.8900   47.8760 C   0  0  0  0  0  0
   16.5810   34.4360   47.7260 C   0  0  2  0  0  0
   16.1080   33.8940   46.4610 N   0  3  0  0  0  0
   16.1030   33.5480   48.8940 C   0  0  2  0  0  0
   14.7320   33.2130   48.7300 O   0  0  0  0  0  0
   16.3290   34.2400   50.2550 C   0  0  1  0  0  0
   15.7460   35.5440   50.2530 O   0  0  0  0  0  0
   15.7570   33.4210   51.4110 C   0  0  0  0  0  0
   26.0117   39.7654   48.6855 H   0  0  0  0  0  0
   27.1436   39.0938   46.5950 H   0  0  0  0  0  0
   25.9568   37.7394   44.9064 H   0  0  0  0  0  0
   20.0546   36.5879   47.0226 H   0  0  0  0  0  0
   17.3703   38.4322   50.1734 H   0  0  0  0  0  0
   16.9206   36.9168   52.0889 H   0  0  0  0  0  0
   18.5481   36.1729   51.9335 H   0  0  0  0  0  0
   18.8102   36.4472   54.3645 H   0  0  0  0  0  0
   18.6434   39.3962   55.1805 H   0  0  0  0  0  0
   16.9898   38.9603   55.7302 H   0  0  0  0  0  0
   17.2632   40.4918   54.8322 H   0  0  0  0  0  0
   18.8436   40.0848   52.1414 H   0  0  0  0  0  0
   20.2071   39.4264   53.1078 H   0  0  0  0  0  0
   21.7560   40.2473   52.6820 H   0  0  0  0  0  0
   23.5764   35.6330   43.6072 H   0  0  0  0  0  0
   24.8662   35.4180   44.8388 H   0  0  0  0  0  0
   24.9436   36.7953   43.6882 H   0  0  0  0  0  0
   15.9167   37.4222   49.4730 H   0  0  0  0  0  0
   15.0287   35.9266   47.6473 H   0  0  0  0  0  0
   16.6539   36.5107   47.1533 H   0  0  0  0  0  0
   17.6801   34.4175   47.6852 H   0  0  0  0  0  0
   16.4539   34.5338   45.6358 H   0  0  0  0  0  0
   15.0085   33.8620   46.4641 H   0  0  0  0  0  0
   16.5041   32.8766   46.3270 H   0  0  0  0  0  0
   16.6224   32.5786   48.8714 H   0  0  0  0  0  0
   14.3945   32.7112   47.8111 H   0  0  0  0  0  0
   17.4051   34.4013   50.4163 H   0  0  0  0  0  0
   16.2087   32.4180   51.4085 H   0  0  0  0  0  0
   14.6669   33.3325   51.2935 H   0  0  0  0  0  0
   15.9836   33.9228   52.3633 H   0  0  0  0  0  0
  1  2  2  0  0  0
  1 28  1  0  0  0
  1 39  1  0  0  0
  2  3  1  0  0  0
  2 40  1  0  0  0
  3  4  2  0  0  0
  3 41  1  0  0  0
  4  5  1  0  0  0
  4  6  1  0  0  0
  5 29  1  0  0  0
  6  7  1  0  0  0
  6 28  2  0  0  0
  7  8  2  0  0  0
  7  9  1  0  0  0
  9 10  2  0  0  0
  9 25  1  0  0  0
 10 11  1  0  0  0
 10 12  1  0  0  0
 11 42  1  0  0  0
 12 13  1  0  0  0
 12 22  2  0  0  0
 13 14  1  0  0  0
 13 15  1  0  0  0
 13 43  1  0  0  0
 14 30  1  0  0  0
 15 16  1  0  0  0
 15 44  1  0  0  0
 15 45  1  0  0  0
 16 17  1  0  0  0
 16 18  1  0  0  0
 16 21  1  0  0  0
 17 46  1  0  0  0
 18 19  2  0  0  0
 18 20  1  0  0  0
 20 47  1  0  0  0
 20 48  1  0  0  0
 20 49  1  0  0  0
 21 22  1  0  0  0
 21 50  1  0  0  0
 21 51  1  0  0  0
 22 23  1  0  0  0
 23 24  1  0  0  0
 23 25  2  0  0  0
 24 52  1  0  0  0
 25 26  1  0  0  0
 26 27  2  0  0  0
 26 28  1  0  0  0
 29 53  1  0  0  0
 29 54  1  0  0  0
 29 55  1  0  0  0
 30 31  1  0  0  0
 30 37  1  0  0  0
 30 56  1  0  0  0
 31 32  1  0  0  0
 31 57  1  0  0  0
 31 58  1  0  0  0
 32 33  1  0  0  0
 32 34  1  0  0  0
 32 59  1  0  0  0
 33 60  1  0  0  0
 33 61  1  0  0  0
 33 62  1  0  0  0
 34 35  1  0  0  0
 34 36  1  0  0  0
 34 63  1  0  0  0
 35 64  1  0  0  0
 36 37  1  0  0  0
 36 38  1  0  0  0
 36 65  1  0  0  0
 38 66  1  0  0  0
 38 67  1  0  0  0
 38 68  1  0  0  0
M  CHG  1  33   1
M  END
> <s_m_source_file>
../3f8f_ligand.sdf

> <i_m_source_file_index>
1

> <s_epik_input>
W0NIM11PYzFbY0hdW2NIXVtjSF1jKGMxMilDKD1PKWMzYyhDMj1PKWMoW09IXSljNGMoYzNbT0hdKVtDSDJdW0NAQF0oW09IXSkoQyg9TylbQ0gzXSlbQ0gyXVtDQEBIXTRPW0NASF01W0NIMl1bQ0BIXShbTkgzK10pW0NASF0oW09IXSlbQ0BASF0oTzUpW0NIM10=

> <s_epik_cmdline>
J2VwaWtfYXBwJywgJy1pbWFlJywgJ2xpZ2FuZF9wcm8ubWFlJywgJy1vbWFlJywgJ2xpZ2FuZF9wcmVwLm1hZScsICctbXMnLCAnMScsICctcGgnLCAnNycsICctcGh0JywgJzAuNScsICctbnQn

> <r_lp_tautomer_probability>
0.99995

> <r_epik_Ionization_Penalty>
  0.0334

> <r_epik_Ionization_Penalty_Charging>
  0.0328

> <r_epik_Ionization_Penalty_Neutral>
  0.0007

> <r_epik_State_Penalty>
  0.0271

> <r_epik_Charging_Adjusted_Penalty>
0.0599001569678461

> <i_epik_Tot_Q>
1

> <i_epik_Tot_abs_Q>
1

> <s_epik_Chemistry_Notes>
This compound contains an acetal/aminal-like group ( X-CH(R)-Y where X, Y are N, S, or O) that may be acid/base labile, releasing an aldehyde.

$$$$
