3f8s_ligand
                    3D
 Schrodinger Suite 2020-3.
 51 54  0  0  1  0            999 V2000
   16.1430   19.4560   40.3580 F   0  0  0  0  0  0
   17.0780   18.6120   39.9920 C   0  0  0  0  0  0
   18.1070   18.6260   40.8040 F   0  0  0  0  0  0
   17.6730   19.2050   38.7760 C   0  0  0  0  0  0
   18.4860   18.0140   38.3480 C   0  0  0  0  0  0
   16.6420   17.1730   39.6260 C   0  0  0  0  0  0
   17.4760   16.9630   38.4580 N   0  0  0  0  0  0
   17.4400   16.0360   37.5030 C   0  0  0  0  0  0
   16.6750   15.1080   37.4880 O   0  0  0  0  0  0
   18.5110   16.2140   36.4300 C   0  0  1  0  0  0
   18.7510   15.0330   35.6110 N   0  0  1  0  0  0
   19.3860   15.5360   34.3910 C   0  0  0  0  0  0
   18.1820   17.3040   35.4120 C   0  0  0  0  0  0
   19.1730   17.0500   34.3130 C   0  0  2  0  0  0
   18.7670   17.4680   32.9350 N   0  3  0  0  0  0
   19.9660   17.4090   32.0590 C   0  0  0  0  0  0
   19.5350   17.5030   30.5960 C   0  0  0  0  0  0
   18.7330   18.7120   30.4120 N   0  0  0  0  0  0
   17.8000   19.2300   31.4350 C   0  0  0  0  0  0
   18.2230   18.8440   32.8680 C   0  0  0  0  0  0
   18.8550   19.3410   29.2070 C   0  0  0  0  0  0
   19.7180   18.8310   28.2700 N   0  0  0  0  0  0
   19.8820   19.4110   27.0620 C   0  0  0  0  0  0
   19.1710   20.5640   26.7750 C   0  0  0  0  0  0
   18.2870   21.0730   27.7410 C   0  0  0  0  0  0
   18.1310   20.4650   28.9360 N   0  0  0  0  0  0
   16.8721   19.4953   38.0801 H   0  0  0  0  0  0
   18.2599   20.0938   39.0509 H   0  0  0  0  0  0
   18.8567   18.1718   37.3245 H   0  0  0  0  0  0
   19.3387   17.8874   39.0313 H   0  0  0  0  0  0
   16.8628   16.4981   40.4661 H   0  0  0  0  0  0
   15.5619   17.1587   39.4184 H   0  0  0  0  0  0
   19.4129   16.4231   37.0240 H   0  0  0  0  0  0
   19.4095   14.3384   36.1532 H   0  0  0  0  0  0
   20.4625   15.3117   34.4188 H   0  0  0  0  0  0
   18.9327   15.0499   33.5145 H   0  0  0  0  0  0
   17.1405   17.1903   35.0768 H   0  0  0  0  0  0
   18.3114   18.2920   35.8779 H   0  0  0  0  0  0
   20.0610   17.6815   34.4637 H   0  0  0  0  0  0
   17.9660   16.7893   32.6066 H   0  0  0  0  0  0
   20.6362   18.2479   32.2978 H   0  0  0  0  0  0
   20.4947   16.4587   32.2246 H   0  0  0  0  0  0
   20.4266   17.5482   29.9533 H   0  0  0  0  0  0
   18.9374   16.6180   30.3322 H   0  0  0  0  0  0
   17.7640   20.3278   31.3761 H   0  0  0  0  0  0
   16.7951   18.8200   31.2559 H   0  0  0  0  0  0
   17.3397   18.9212   33.5191 H   0  0  0  0  0  0
   18.9894   19.5581   33.2037 H   0  0  0  0  0  0
   20.5612   18.9798   26.3266 H   0  0  0  0  0  0
   19.2950   21.0679   25.8164 H   0  0  0  0  0  0
   17.7166   21.9755   27.5215 H   0  0  0  0  0  0
  1  2  1  0  0  0
  2  3  1  0  0  0
  2  4  1  0  0  0
  2  6  1  0  0  0
  4  5  1  0  0  0
  4 27  1  0  0  0
  4 28  1  0  0  0
  5  7  1  0  0  0
  5 29  1  0  0  0
  5 30  1  0  0  0
  6  7  1  0  0  0
  6 31  1  0  0  0
  6 32  1  0  0  0
  7  8  1  0  0  0
  8  9  2  0  0  0
  8 10  1  0  0  0
 10 11  1  0  0  0
 10 13  1  0  0  0
 10 33  1  0  0  0
 11 12  1  0  0  0
 11 34  1  0  0  0
 12 14  1  0  0  0
 12 35  1  0  0  0
 12 36  1  0  0  0
 13 14  1  0  0  0
 13 37  1  0  0  0
 13 38  1  0  0  0
 14 15  1  0  0  0
 14 39  1  0  0  0
 15 16  1  0  0  0
 15 20  1  0  0  0
 15 40  1  0  0  0
 16 17  1  0  0  0
 16 41  1  0  0  0
 16 42  1  0  0  0
 17 18  1  0  0  0
 17 43  1  0  0  0
 17 44  1  0  0  0
 18 19  1  0  0  0
 18 21  1  0  0  0
 19 20  1  0  0  0
 19 45  1  0  0  0
 19 46  1  0  0  0
 20 47  1  0  0  0
 20 48  1  0  0  0
 21 22  2  0  0  0
 21 26  1  0  0  0
 22 23  1  0  0  0
 23 24  2  0  0  0
 23 49  1  0  0  0
 24 25  1  0  0  0
 24 50  1  0  0  0
 25 26  2  0  0  0
 25 51  1  0  0  0
M  CHG  1  15   1
M  END
> <s_m_source_file>
../3f8s_ligand.sdf

> <i_m_source_file_index>
1

> <s_epik_input>
RkMxKEYpW0NIMl1bQ0gyXU4oW0NIMl0xKUMoPU8pW0NASF0yW05IMitdW0NIMl1bQ0BIXShbQ0gyXTIpW05IK10zW0NIMl1bQ0gyXU4oW0NIMl1bQ0gyXTMpYzRuW2NIXVtjSF1bY0hdbjQ=

> <s_epik_cmdline>
J2VwaWtfYXBwJywgJy1pbWFlJywgJ2xpZ2FuZF9wcm8ubWFlJywgJy1vbWFlJywgJ2xpZ2FuZF9wcmVwLm1hZScsICctbXMnLCAnMScsICctcGgnLCAnNycsICctcGh0JywgJzAuNScsICctbnQn

> <r_lp_tautomer_probability>
1

> <r_epik_Ionization_Penalty>
  0.0233

> <r_epik_Ionization_Penalty_Charging>
  0.0229

> <r_epik_Ionization_Penalty_Neutral>
  0.0004

> <r_epik_State_Penalty>
 -0.0000

> <r_epik_Charging_Adjusted_Penalty>
0.0229461090579182

> <i_epik_Tot_Q>
1

> <i_epik_Tot_abs_Q>
1

$$$$
