3f9n_ligand
                    3D
 Schrodinger Suite 2020-3.
 73 77  0  0  1  0            999 V2000
   21.9150  -10.0200   26.5790 C   0  0  0  0  0  0
   22.7720  -10.4020   27.6140 C   0  0  0  0  0  0
   24.0580   -9.8790   27.6790 C   0  0  0  0  0  0
   24.4750   -8.9320   26.7520 C   0  0  0  0  0  0
   23.6520   -8.5590   25.7450 C   0  0  0  0  0  0
   22.3450   -9.1150   25.6140 C   0  0  0  0  0  0
   24.1370   -7.5530   24.7720 C   0  0  0  0  0  0
   23.3920   -7.1880   23.8960 O   0  0  0  0  0  0
   25.4080   -7.0150   24.9700 N   0  0  0  0  0  0
   25.7400   -8.3660   26.8550 N   0  0  0  0  0  0
   26.1610   -7.4120   25.9810 C   0  0  0  0  0  0
   27.7240   -6.6650   26.1310 S   0  0  0  0  0  0
   28.6690   -7.5120   27.3140 C   0  0  2  0  0  0
   27.9600   -7.4310   28.6900 C   0  0  0  0  0  0
   29.9630   -6.7130   27.2780 C   0  0  0  0  0  0
   27.6000   -6.3540   29.1270 O   0  0  0  0  0  0
   27.7420   -8.5720   29.4400 N   0  0  0  0  0  0
   31.1220   -7.4690   27.8670 C   0  0  0  0  0  0
   32.4240   -6.6460   27.7490 C   0  0  0  0  0  0
   32.6760   -5.8450   29.0350 C   0  0  0  0  0  0
   28.1920   -9.8760   28.9430 C   0  0  0  0  0  0
   29.3320  -10.3090   29.9030 C   0  0  0  0  0  0
   28.9650  -10.1700   31.4080 C   0  0  0  0  0  0
   28.1280   -8.9390   31.8260 C   0  0  2  0  0  0
   27.0810   -8.5550   30.7810 C   0  0  0  0  0  0
   29.1460   -7.8310   32.0880 C   0  0  0  0  0  0
   27.4370   -9.2580   33.1920 C   0  0  0  0  0  0
   26.8430   -8.0120   33.8000 C   0  0  0  0  0  0
   28.6570   -6.6580   32.8550 N   0  3  0  0  0  0
   27.9920   -7.0720   34.1610 C   0  0  0  0  0  0
   25.8180   -6.0450   24.1030 C   0  0  0  0  0  0
   26.9190   -6.1850   23.2330 C   0  0  0  0  0  0
   27.2750   -5.1640   22.3420 C   0  0  0  0  0  0
   26.5520   -3.9640   22.3130 C   0  0  0  0  0  0
   25.4750   -3.8430   23.1740 C   0  0  0  0  0  0
   25.0790   -4.8660   24.0640 C   0  0  0  0  0  0
   24.5440   -2.3910   23.1880 Cl  0  0  0  0  0  0
   20.9072  -10.4320   26.5275 H   0  0  0  0  0  0
   22.4323  -11.1098   28.3701 H   0  0  0  0  0  0
   24.7415  -10.2129   28.4597 H   0  0  0  0  0  0
   21.7003   -8.8381   24.7799 H   0  0  0  0  0  0
   28.8926   -8.5846   27.2165 H   0  0  0  0  0  0
   30.2133   -6.4672   26.2354 H   0  0  0  0  0  0
   29.8365   -5.7841   27.8535 H   0  0  0  0  0  0
   30.9245   -7.6732   28.9297 H   0  0  0  0  0  0
   31.2512   -8.4196   27.3288 H   0  0  0  0  0  0
   33.2729   -7.3249   27.5801 H   0  0  0  0  0  0
   32.3403   -5.9464   26.9042 H   0  0  0  0  0  0
   33.6060   -5.2670   28.9306 H   0  0  0  0  0  0
   32.7675   -6.5364   29.8856 H   0  0  0  0  0  0
   31.8349   -5.1580   29.2098 H   0  0  0  0  0  0
   27.3529  -10.5869   28.9666 H   0  0  0  0  0  0
   28.5535   -9.7697   27.9095 H   0  0  0  0  0  0
   29.5824  -11.3647   29.7222 H   0  0  0  0  0  0
   30.2200   -9.6854   29.7225 H   0  0  0  0  0  0
   28.3762  -11.0437   31.7240 H   0  0  0  0  0  0
   29.8863  -10.1128   32.0063 H   0  0  0  0  0  0
   26.6915   -7.5467   30.9850 H   0  0  0  0  0  0
   26.2514   -9.2773   30.7901 H   0  0  0  0  0  0
   29.9910   -8.2379   32.6628 H   0  0  0  0  0  0
   29.5117   -7.4349   31.1292 H   0  0  0  0  0  0
   26.6328   -9.9916   33.0336 H   0  0  0  0  0  0
   28.1790   -9.6725   33.8903 H   0  0  0  0  0  0
   26.1730   -7.5321   33.0715 H   0  0  0  0  0  0
   26.2727   -8.2800   34.7016 H   0  0  0  0  0  0
   29.5034   -5.9970   33.0933 H   0  0  0  0  0  0
   27.9200   -6.1071   32.2522 H   0  0  0  0  0  0
   27.5944   -6.1933   34.6900 H   0  0  0  0  0  0
   28.7064   -7.5988   34.8106 H   0  0  0  0  0  0
   27.5039   -7.1045   23.2541 H   0  0  0  0  0  0
   28.1195   -5.3040   21.6673 H   0  0  0  0  0  0
   26.8278   -3.1549   21.6367 H   0  0  0  0  0  0
   24.2101   -4.7345   24.7088 H   0  0  0  0  0  0
  1  2  2  0  0  0
  1  6  1  0  0  0
  1 38  1  0  0  0
  2  3  1  0  0  0
  2 39  1  0  0  0
  3  4  2  0  0  0
  3 40  1  0  0  0
  4  5  1  0  0  0
  4 10  1  0  0  0
  5  6  2  0  0  0
  5  7  1  0  0  0
  6 41  1  0  0  0
  7  8  2  0  0  0
  7  9  1  0  0  0
  9 11  1  0  0  0
  9 31  1  0  0  0
 10 11  2  0  0  0
 11 12  1  0  0  0
 12 13  1  0  0  0
 13 14  1  0  0  0
 13 15  1  0  0  0
 13 42  1  0  0  0
 14 16  2  0  0  0
 14 17  1  0  0  0
 15 18  1  0  0  0
 15 43  1  0  0  0
 15 44  1  0  0  0
 17 21  1  0  0  0
 17 25  1  0  0  0
 18 19  1  0  0  0
 18 45  1  0  0  0
 18 46  1  0  0  0
 19 20  1  0  0  0
 19 47  1  0  0  0
 19 48  1  0  0  0
 20 49  1  0  0  0
 20 50  1  0  0  0
 20 51  1  0  0  0
 21 22  1  0  0  0
 21 52  1  0  0  0
 21 53  1  0  0  0
 22 23  1  0  0  0
 22 54  1  0  0  0
 22 55  1  0  0  0
 23 24  1  0  0  0
 23 56  1  0  0  0
 23 57  1  0  0  0
 24 25  1  0  0  0
 24 26  1  0  0  0
 24 27  1  0  0  0
 25 58  1  0  0  0
 25 59  1  0  0  0
 26 29  1  0  0  0
 26 60  1  0  0  0
 26 61  1  0  0  0
 27 28  1  0  0  0
 27 62  1  0  0  0
 27 63  1  0  0  0
 28 30  1  0  0  0
 28 64  1  0  0  0
 28 65  1  0  0  0
 29 30  1  0  0  0
 29 66  1  0  0  0
 29 67  1  0  0  0
 30 68  1  0  0  0
 30 69  1  0  0  0
 31 32  2  0  0  0
 31 36  1  0  0  0
 32 33  1  0  0  0
 32 70  1  0  0  0
 33 34  2  0  0  0
 33 71  1  0  0  0
 34 35  1  0  0  0
 34 72  1  0  0  0
 35 36  2  0  0  0
 35 37  1  0  0  0
 36 73  1  0  0  0
M  CHG  1  29   1
M  END
> <s_m_source_file>
../3f9n_ligand.sdf

> <i_m_source_file_index>
1

> <s_epik_input>
W2NIXTFbY0hdW2NIXVtjSF1jKGMxMiljKD1PKVtuK10oLWMzW2NIXVtjSF1bY0hdYyhDbClbY0hdMyljKFtuSF0yKVNbQ0BASF0oW0NIMl1bQ0gyXVtDSDJdW0NIM10pQyg9TylOKFtDSDJdNClbQ0gyXVtDSDJdW0NIMl1bQ0BAXTQ1W0NIMl1bTkgyK11bQ0gyXVtDSDJdW0NIMl01

> <s_epik_cmdline>
J2VwaWtfYXBwJywgJy1pbWFlJywgJ2xpZ2FuZF9wcm8ubWFlJywgJy1vbWFlJywgJ2xpZ2FuZF9wcmVwLm1hZScsICctbXMnLCAnMScsICctcGgnLCAnNycsICctcGh0JywgJzAuNScsICctbnQn

> <r_lp_tautomer_probability>
1

> <r_epik_Ionization_Penalty>
  0.0001

> <r_epik_Ionization_Penalty_Charging>
  0.0001

> <r_epik_Ionization_Penalty_Neutral>
  0.0000

> <r_epik_State_Penalty>
 -0.0000

> <r_epik_Charging_Adjusted_Penalty>
0.000113855621050512

> <i_epik_Tot_Q>
1

> <i_epik_Tot_abs_Q>
1

$$$$
