3f9w_ligand
                    3D
 Schrodinger Suite 2020-3.
155155  0  0  1  0            999 V2000
   -9.6120   12.7620   -8.8880 N   0  3  0  0  0  0
   -9.2940   11.4880   -8.1890 C   0  0  2  0  0  0
   -8.1310   10.7740   -8.8910 C   0  0  0  0  0  0
   -8.2420   10.3640  -10.0500 O   0  0  0  0  0  0
  -10.5220   10.5900   -8.1310 C   0  0  0  0  0  0
   -7.0110   10.6590   -8.1850 N   0  0  0  0  0  0
   -5.8130   10.0320   -8.7360 C   0  0  2  0  0  0
   -5.6280    8.6730   -8.0820 C   0  0  0  0  0  0
   -6.1500    8.4340   -6.9930 O   0  0  0  0  0  0
   -4.5870   10.9150   -8.4700 C   0  0  0  0  0  0
   -4.5950   12.2540   -9.2180 C   0  0  0  0  0  0
   -3.4820   13.1930   -8.7570 C   0  0  0  0  0  0
   -2.1570   12.5660   -8.8030 N   0  0  0  0  0  0
   -1.3860   12.4500   -9.8830 C   0  0  0  0  0  0
   -1.7820   12.9110  -11.0700 N   0  0  0  0  0  0
   -0.2060   11.8430   -9.7720 N   0  0  0  0  0  0
   -4.9090    7.7750   -8.7510 N   0  0  0  0  0  0
   -4.4320    6.5460   -8.1230 C   0  0  2  0  0  0
   -2.9060    6.5720   -8.1160 C   0  0  0  0  0  0
   -2.2840    7.4790   -8.6780 O   0  0  0  0  0  0
   -4.9140    5.3010   -8.8720 C   0  0  0  0  0  0
   -4.2910    5.1540  -10.2260 C   0  0  0  0  0  0
   -3.0670    4.5460  -10.4240 N   0  0  0  0  0  0
   -4.6910    5.6000  -11.4390 C   0  0  0  0  0  0
   -2.7600    4.5950  -11.7090 C   0  0  0  0  0  0
   -3.7200    5.2470  -12.3430 N   0  0  0  0  0  0
   -2.3060    5.5710   -7.4840 N   0  0  0  0  0  0
   -0.8540    5.4470   -7.4660 C   0  0  2  0  0  0
   -0.4280    4.1520   -8.1270 C   0  0  0  0  0  0
   -1.2610    3.3000   -8.4740 O   0  0  0  0  0  0
   -0.3670    5.4410   -6.0220 C   0  0  0  0  0  0
   -0.4400    6.8000   -5.3630 C   0  0  0  0  0  0
   -0.1790    6.6630   -3.8640 C   0  0  0  0  0  0
   -0.3800    7.9510   -3.2070 N   0  0  0  0  0  0
   -0.9840    8.1050   -2.0340 C   0  0  0  0  0  0
   -1.4500    7.0500   -1.3680 N   0  0  0  0  0  0
   -1.1230    9.3230   -1.5310 N   0  0  0  0  0  0
    0.8860    4.0160   -8.3020 N   0  0  0  0  0  0
    1.5110    2.7130   -8.5250 C   0  0  2  0  0  0
    2.3160    2.4750   -7.2370 C   0  0  0  0  0  0
    2.9790    3.3960   -6.7290 O   0  0  0  0  0  0
    2.3980    2.7220   -9.7870 C   0  0  0  0  0  0
    1.6060    3.0060  -11.0750 C   0  0  0  0  0  0
    2.4970    3.3360  -12.2810 C   0  0  0  0  0  0
    1.6480    3.8260  -13.4570 C   0  0  0  0  0  0
    2.4850    4.1620  -14.6420 N   0  3  0  0  0  0
    2.2000    1.2770   -6.6720 N   0  0  0  0  0  0
    2.7790    0.9950   -5.3330 C   0  0  2  0  0  0
    3.4230   -0.3740   -5.3140 C   0  0  0  0  0  0
    2.7980   -1.3600   -5.7000 O   0  0  0  0  0  0
    1.7050    1.0290   -4.2130 C   0  0  0  0  0  0
    2.3900    1.0080   -2.8450 C   0  0  0  0  0  0
    0.8320    2.2500   -4.3220 C   0  0  0  0  0  0
    4.6840   -0.4530   -4.8780 N   0  0  0  0  0  0
    5.3430   -1.7590   -4.8510 C   0  0  2  0  0  0
    4.8110   -2.5950   -3.6920 C   0  0  0  0  0  0
    4.7030   -2.0860   -2.5940 O   0  0  0  0  0  0
    6.8630   -1.6080   -4.7530 C   0  0  0  0  0  0
    7.6920   -2.8850   -4.8830 C   0  0  0  0  0  0
    7.4830   -3.5360   -6.2460 C   0  0  0  0  0  0
    9.1690   -2.5960   -4.6650 C   0  0  0  0  0  0
    4.4770   -3.8570   -3.9740 N   0  0  0  0  0  0
    3.9500   -4.8190   -2.9850 C   0  0  2  0  0  0
    4.7810   -6.1100   -3.0080 C   0  0  0  0  0  0
    5.9880   -6.0700   -3.2350 O   0  0  0  0  0  0
    2.4610   -5.1290   -3.2440 C   0  0  0  0  0  0
    1.5200   -3.9120   -3.1820 C   0  0  0  0  0  0
    0.0770   -4.3280   -3.4490 C   0  0  0  0  0  0
   -0.5390   -4.9200   -2.2630 N   0  0  0  0  0  0
   -1.4950   -4.3470   -1.5400 C   0  0  0  0  0  0
   -2.0060   -3.1700   -1.8940 N   0  0  0  0  0  0
   -1.9630   -4.9780   -0.4690 N   0  0  0  0  0  0
   -8.7141   13.3967   -8.9200 H   0  0  0  0  0  0
  -10.4130   13.2870   -8.3470 H   0  0  0  0  0  0
   -9.9440   12.5444   -9.9139 H   0  0  0  0  0  0
   -9.0008   11.7468   -7.1609 H   0  0  0  0  0  0
  -11.3413   11.1215   -7.6247 H   0  0  0  0  0  0
  -10.2798    9.6732   -7.5734 H   0  0  0  0  0  0
  -10.8321   10.3265   -9.1530 H   0  0  0  0  0  0
   -7.0029   11.0525   -7.1578 H   0  0  0  0  0  0
   -5.9698    9.9208   -9.8191 H   0  0  0  0  0  0
   -4.5289   11.1480   -7.3965 H   0  0  0  0  0  0
   -3.6764   10.3808   -8.7790 H   0  0  0  0  0  0
   -4.4592   12.0734  -10.2945 H   0  0  0  0  0  0
   -5.5559   12.7622   -9.0498 H   0  0  0  0  0  0
   -3.4577   14.0799   -9.4073 H   0  0  0  0  0  0
   -3.6714   13.5044   -7.7191 H   0  0  0  0  0  0
   -1.7186   12.1390   -7.8890 H   0  0  0  0  0  0
   -2.7557   13.4133  -11.1680 H   0  0  0  0  0  0
   -1.1350   12.7890  -11.9512 H   0  0  0  0  0  0
    0.1261   11.4606   -8.7955 H   0  0  0  0  0  0
   -4.6761    7.9796   -9.8064 H   0  0  0  0  0  0
   -4.8526    6.5386   -7.1066 H   0  0  0  0  0  0
   -4.6625    4.4024   -8.2895 H   0  0  0  0  0  0
   -6.0039    5.3552   -9.0102 H   0  0  0  0  0  0
   -5.5841    6.1463  -11.7764 H   0  0  0  0  0  0
   -1.8672    4.1701  -12.1679 H   0  0  0  0  0  0
   -2.9281    4.8258   -6.9667 H   0  0  0  0  0  0
   -0.4597    6.3080   -8.0256 H   0  0  0  0  0  0
   -0.9854    4.7508   -5.4294 H   0  0  0  0  0  0
    0.6823    5.1124   -5.9903 H   0  0  0  0  0  0
    0.3183    7.4630   -5.8051 H   0  0  0  0  0  0
   -1.4400    7.2305   -5.5202 H   0  0  0  0  0  0
   -0.8736    5.9247   -3.4369 H   0  0  0  0  0  0
    0.8565    6.3294   -3.7011 H   0  0  0  0  0  0
   -0.0211    8.8743   -3.6852 H   0  0  0  0  0  0
   -1.3337    6.0397   -1.7872 H   0  0  0  0  0  0
   -1.9512    7.1890   -0.3987 H   0  0  0  0  0  0
   -0.7375   10.1931   -2.0826 H   0  0  0  0  0  0
    1.5045    4.9252   -8.2745 H   0  0  0  0  0  0
    0.7460    1.9430   -8.7035 H   0  0  0  0  0  0
    3.1676    3.5018   -9.6887 H   0  0  0  0  0  0
    2.8825    1.7411   -9.9017 H   0  0  0  0  0  0
    1.0074    2.1220  -11.3398 H   0  0  0  0  0  0
    0.9389    3.8655  -10.9133 H   0  0  0  0  0  0
    3.2121    4.1245  -12.0037 H   0  0  0  0  0  0
    3.0466    2.4342  -12.5885 H   0  0  0  0  0  0
    0.9368    3.0391  -13.7488 H   0  0  0  0  0  0
    1.0943    4.7284  -13.1586 H   0  0  0  0  0  0
    1.8381    4.5086  -15.4614 H   0  0  0  0  0  0
    3.0388    3.2682  -14.9650 H   0  0  0  0  0  0
    3.1963    4.9574  -14.3748 H   0  0  0  0  0  0
    1.6624    0.4866   -7.2163 H   0  0  0  0  0  0
    3.5330    1.7819   -5.1835 H   0  0  0  0  0  0
    1.0425    0.1571   -4.3169 H   0  0  0  0  0  0
    3.0274    0.1148   -2.7678 H   0  0  0  0  0  0
    1.6269    0.9835   -2.0532 H   0  0  0  0  0  0
    3.0082    1.9106   -2.7306 H   0  0  0  0  0  0
    0.3408    2.2628   -5.3061 H   0  0  0  0  0  0
    1.4493    3.1534   -4.2085 H   0  0  0  0  0  0
    0.0679    2.2262   -3.5310 H   0  0  0  0  0  0
    5.2260    0.4436   -4.5428 H   0  0  0  0  0  0
    5.0875   -2.2412   -5.8061 H   0  0  0  0  0  0
    7.2174   -0.9405   -5.5523 H   0  0  0  0  0  0
    7.1267   -1.1804   -3.7744 H   0  0  0  0  0  0
    7.3556   -3.5862   -4.1051 H   0  0  0  0  0  0
    6.4125   -3.7410   -6.3941 H   0  0  0  0  0  0
    8.0468   -4.4794   -6.2920 H   0  0  0  0  0  0
    7.8390   -2.8572   -7.0350 H   0  0  0  0  0  0
    9.3093   -2.1269   -3.6800 H   0  0  0  0  0  0
    9.5291   -1.9149   -5.4501 H   0  0  0  0  0  0
    9.7369   -3.5371   -4.7072 H   0  0  0  0  0  0
    4.6167   -4.1652   -5.0207 H   0  0  0  0  0  0
    4.0509   -4.3270   -2.0064 H   0  0  0  0  0  0
    4.2885   -7.0754   -2.8194 H   0  0  0  0  0  0
    2.3462   -5.5638   -4.2479 H   0  0  0  0  0  0
    2.0990   -5.8445   -2.4910 H   0  0  0  0  0  0
    1.5778   -3.4543   -2.1834 H   0  0  0  0  0  0
    1.8226   -3.1755   -3.9409 H   0  0  0  0  0  0
   -0.5107   -3.4456   -3.7424 H   0  0  0  0  0  0
    0.0535   -5.0704   -4.2603 H   0  0  0  0  0  0
   -0.2150   -5.9106   -1.9114 H   0  0  0  0  0  0
   -1.6190   -2.6467   -2.7808 H   0  0  0  0  0  0
   -2.8153   -2.7206   -1.2997 H   0  0  0  0  0  0
   -1.5413   -5.9507   -0.1757 H   0  0  0  0  0  0
  1  2  1  0  0  0
  1 73  1  0  0  0
  1 74  1  0  0  0
  1 75  1  0  0  0
  2  3  1  0  0  0
  2  5  1  0  0  0
  2 76  1  0  0  0
  3  4  2  0  0  0
  3  6  1  0  0  0
  5 77  1  0  0  0
  5 78  1  0  0  0
  5 79  1  0  0  0
  6  7  1  0  0  0
  6 80  1  0  0  0
  7  8  1  0  0  0
  7 10  1  0  0  0
  7 81  1  0  0  0
  8  9  2  0  0  0
  8 17  1  0  0  0
 10 11  1  0  0  0
 10 82  1  0  0  0
 10 83  1  0  0  0
 11 12  1  0  0  0
 11 84  1  0  0  0
 11 85  1  0  0  0
 12 13  1  0  0  0
 12 86  1  0  0  0
 12 87  1  0  0  0
 13 14  1  0  0  0
 13 88  1  0  0  0
 14 15  1  0  0  0
 14 16  2  0  0  0
 15 89  1  0  0  0
 15 90  1  0  0  0
 16 91  1  0  0  0
 17 18  1  0  0  0
 17 92  1  0  0  0
 18 19  1  0  0  0
 18 21  1  0  0  0
 18 93  1  0  0  0
 19 20  2  0  0  0
 19 27  1  0  0  0
 21 22  1  0  0  0
 21 94  1  0  0  0
 21 95  1  0  0  0
 22 23  2  0  0  0
 22 24  1  0  0  0
 23 25  1  0  0  0
 24 26  2  0  0  0
 24 96  1  0  0  0
 25 26  1  0  0  0
 25 97  1  0  0  0
 27 28  1  0  0  0
 27 98  1  0  0  0
 28 29  1  0  0  0
 28 31  1  0  0  0
 28 99  1  0  0  0
 29 30  2  0  0  0
 29 38  1  0  0  0
 31 32  1  0  0  0
 31100  1  0  0  0
 31101  1  0  0  0
 32 33  1  0  0  0
 32102  1  0  0  0
 32103  1  0  0  0
 33 34  1  0  0  0
 33104  1  0  0  0
 33105  1  0  0  0
 34 35  1  0  0  0
 34106  1  0  0  0
 35 36  1  0  0  0
 35 37  2  0  0  0
 36107  1  0  0  0
 36108  1  0  0  0
 37109  1  0  0  0
 38 39  1  0  0  0
 38110  1  0  0  0
 39 40  1  0  0  0
 39 42  1  0  0  0
 39111  1  0  0  0
 40 41  2  0  0  0
 40 47  1  0  0  0
 42 43  1  0  0  0
 42112  1  0  0  0
 42113  1  0  0  0
 43 44  1  0  0  0
 43114  1  0  0  0
 43115  1  0  0  0
 44 45  1  0  0  0
 44116  1  0  0  0
 44117  1  0  0  0
 45 46  1  0  0  0
 45118  1  0  0  0
 45119  1  0  0  0
 46120  1  0  0  0
 46121  1  0  0  0
 46122  1  0  0  0
 47 48  1  0  0  0
 47123  1  0  0  0
 48 49  1  0  0  0
 48 51  1  0  0  0
 48124  1  0  0  0
 49 50  2  0  0  0
 49 54  1  0  0  0
 51 52  1  0  0  0
 51 53  1  0  0  0
 51125  1  0  0  0
 52126  1  0  0  0
 52127  1  0  0  0
 52128  1  0  0  0
 53129  1  0  0  0
 53130  1  0  0  0
 53131  1  0  0  0
 54 55  1  0  0  0
 54132  1  0  0  0
 55 56  1  0  0  0
 55 58  1  0  0  0
 55133  1  0  0  0
 56 57  2  0  0  0
 56 62  1  0  0  0
 58 59  1  0  0  0
 58134  1  0  0  0
 58135  1  0  0  0
 59 60  1  0  0  0
 59 61  1  0  0  0
 59136  1  0  0  0
 60137  1  0  0  0
 60138  1  0  0  0
 60139  1  0  0  0
 61140  1  0  0  0
 61141  1  0  0  0
 61142  1  0  0  0
 62 63  1  0  0  0
 62143  1  0  0  0
 63 64  1  0  0  0
 63 66  1  0  0  0
 63144  1  0  0  0
 64 65  2  0  0  0
 64145  1  0  0  0
 66 67  1  0  0  0
 66146  1  0  0  0
 66147  1  0  0  0
 67 68  1  0  0  0
 67148  1  0  0  0
 67149  1  0  0  0
 68 69  1  0  0  0
 68150  1  0  0  0
 68151  1  0  0  0
 69 70  1  0  0  0
 69152  1  0  0  0
 70 71  1  0  0  0
 70 72  2  0  0  0
 71153  1  0  0  0
 71154  1  0  0  0
 72155  1  0  0  0
M  CHG  2   1   1  46   1
M  END
> <s_m_source_file>
../3f9w_ligand.sdf

> <i_m_source_file_index>
1

> <s_epik_input>
W0hdL049QyhbTkgyXSlcW05IXVtDSDJdW0NIMl1bQ0gyXVtDQEhdKFtOSF1DKD1PKVtDQEBIXShbTkgzK10pW0NIM10pQyg9TylbTkhdW0NAQEhdKFtDSDJdQzE9TltDSDJdTj1bQ0hdMSlDKD1PKVtOSF1bQ0BASF0oW0NIMl1bQ0gyXVtDSDJdW05IXS9DKFtOSDJdKT1OXFtIXSlDKD1PKVtOSF1bQ0BASF0oW0NIMl1bQ0gyXVtDSDJdW0NIMl1bTkgzK10pQyg9TylbTkhdW0NAQEhdKFtDSF0oW0NIM10pW0NIM10pQyg9TylbTkhdW0NAQEhdKFtDSDJdW0NIXShbQ0gzXSlbQ0gzXSlDKD1PKVtOSF1bQ0BIXShbQ0hdPU8pW0NIMl1bQ0gyXVtDSDJdW05IXS9DKFtOSDJdKT1OXFtIXQ==

> <s_epik_cmdline>
J2VwaWtfYXBwJywgJy1pbWFlJywgJ2xpZ2FuZF9wcm8ubWFlJywgJy1vbWFlJywgJ2xpZ2FuZF9wcmVwLm1hZScsICctbXMnLCAnMScsICctcGgnLCAnNycsICctcGh0JywgJzAuNScsICctbnQn

> <s_epik_pKa_notes>
Molecule size exceeds maximum supported for generating protonation states

> <s_epik_Chemistry_Notes>
This compound has an imine and may undergo hydrolysis.

$$$$
