3f9y_ligand
                    3D
 Schrodinger Suite 2020-3.
149149  0  0  1  0            999 V2000
   -9.3680    1.7100   22.9700 N   0  3  0  0  0  0
  -10.1850    1.0960   24.0720 C   0  0  2  0  0  0
  -10.9690   -0.0940   23.4850 C   0  0  0  0  0  0
  -11.7290    0.0530   22.5270 O   0  0  0  0  0  0
  -11.1850    2.0940   24.6590 C   0  0  0  0  0  0
  -10.6490    3.4920   25.0180 C   0  0  0  0  0  0
  -11.5090    4.1350   26.1290 C   0  0  0  0  0  0
  -12.9350    4.5170   25.6400 C   0  0  0  0  0  0
  -14.0450    4.2180   26.6680 N   0  3  0  0  0  0
  -10.7840   -1.2590   24.0770 N   0  0  0  0  0  0
  -11.3110   -2.4800   23.4790 C   0  0  2  0  0  0
  -12.6850   -2.7990   24.0360 C   0  0  0  0  0  0
  -12.9620   -2.4920   25.2010 O   0  0  0  0  0  0
  -10.3780   -3.6130   23.8210 C   0  0  0  0  0  0
   -9.0020   -3.4800   23.2520 C   0  0  0  0  0  0
   -8.0970   -4.5570   23.8000 C   0  0  0  0  0  0
   -8.6430   -5.9030   23.6310 N   0  0  0  0  0  0
   -8.6810   -6.5910   22.4860 C   0  0  0  0  0  0
   -8.2050   -6.0470   21.3560 N   0  3  0  0  0  0
   -9.2240   -7.8240   22.4680 N   0  0  0  0  0  0
  -13.5180   -3.4700   23.2330 N   0  0  0  0  0  0
  -14.7110   -4.1360   23.7710 C   0  0  2  0  0  0
  -14.4940   -5.6410   23.7740 C   0  0  0  0  0  0
  -13.5280   -6.1450   23.2530 O   0  0  0  0  0  0
  -15.9660   -3.8180   22.9300 C   0  0  0  0  0  0
  -15.9400   -4.3960   21.5390 C   0  0  0  0  0  0
  -16.3470   -5.7060   21.2770 N   0  0  0  0  0  0
  -15.5300   -3.8850   20.3510 C   0  0  0  0  0  0
  -16.2080   -5.9500   19.9860 C   0  0  0  0  0  0
  -15.7030   -4.8730   19.4000 N   0  0  0  0  0  0
  -15.4430   -6.3650   24.3320 N   0  0  0  0  0  0
  -15.3830   -7.8380   24.2470 C   0  0  2  0  0  0
  -16.7170   -8.3930   23.7010 C   0  0  0  0  0  0
  -17.5270   -7.6640   23.1670 O   0  0  0  0  0  0
  -15.0210   -8.4820   25.5870 C   0  0  0  0  0  0
  -16.0020   -8.2050   26.5960 C   0  0  0  0  0  0
  -15.5990   -8.8850   27.8470 C   0  0  0  0  0  0
  -16.5260   -8.6270   28.9200 N   0  0  0  0  0  0
  -16.6800   -9.4540   29.9590 C   0  0  0  0  0  0
  -16.0260  -10.6180   29.9900 N   0  0  0  0  0  0
  -17.5280   -9.1500   30.9230 N   0  3  0  0  0  0
  -16.8500   -9.7220   23.7330 N   0  0  0  0  0  0
  -18.1010  -10.4640   23.5390 C   0  0  1  0  0  0
  -18.0700  -11.3960   22.3160 C   0  0  0  0  0  0
  -17.8290  -10.5530   21.0510 C   0  0  0  0  0  0
  -17.4940  -11.4960   19.8550 C   0  0  0  0  0  0
  -16.9780  -10.6210   18.6990 C   0  0  0  0  0  0
  -16.4690  -11.3710   17.5420 N   0  3  0  0  0  0
  -15.8320  -10.5420   16.5530 C   0  0  0  0  0  0
  -18.3240  -11.2700   24.7830 C   0  0  0  0  0  0
  -17.4030  -11.7450   25.4010 O   0  0  0  0  0  0
  -19.5540  -11.3270   25.2290 N   0  0  0  0  0  0
  -19.8820  -12.0420   26.4820 C   0  0  2  0  0  0
  -21.1660  -12.8120   26.2860 C   0  0  0  0  0  0
  -22.1370  -12.2760   25.7740 O   0  0  0  0  0  0
  -20.1690  -11.1080   27.6630 C   0  0  0  0  0  0
  -20.1090  -11.9450   28.9460 C   0  0  0  0  0  0
  -19.2570   -9.9180   27.6950 C   0  0  0  0  0  0
  -21.1710  -14.0860   26.6720 N   0  0  0  0  0  0
  -22.4160  -14.8630   26.6090 C   0  0  2  0  0  0
  -23.3840  -14.4650   27.7790 C   0  0  0  0  0  0
  -23.0190  -14.5050   28.9843 O   0  0  0  0  0  0
  -22.1070  -16.4030   26.5960 C   0  0  0  0  0  0
  -23.2840  -17.3680   26.3670 C   0  0  0  0  0  0
  -23.8370  -17.2020   24.9790 C   0  0  0  0  0  0
  -22.8580  -18.8300   26.6230 C   0  0  0  0  0  0
  -24.5572  -14.0957   27.5055 O   0  5  0  0  0  0
   -8.6636    0.9627   22.5758 H   0  0  0  0  0  0
   -8.8073    2.5700   23.3649 H   0  0  0  0  0  0
  -10.0352    2.0466   22.1628 H   0  0  0  0  0  0
   -9.4878    0.7917   24.8666 H   0  0  0  0  0  0
  -11.9980    2.2655   23.9381 H   0  0  0  0  0  0
  -11.6023    1.6889   25.5927 H   0  0  0  0  0  0
   -9.6119    3.4066   25.3745 H   0  0  0  0  0  0
  -10.6785    4.1360   24.1267 H   0  0  0  0  0  0
  -11.6179    3.4274   26.9641 H   0  0  0  0  0  0
  -11.0191    5.0524   26.4873 H   0  0  0  0  0  0
  -12.9718    5.5948   25.4233 H   0  0  0  0  0  0
  -13.1735    3.9511   24.7274 H   0  0  0  0  0  0
  -15.0194    4.5137   26.2519 H   0  0  0  0  0  0
  -13.8528    4.7854   27.5906 H   0  0  0  0  0  0
  -14.0545    3.1417   26.8947 H   0  0  0  0  0  0
  -10.2294   -1.3062   25.0258 H   0  0  0  0  0  0
  -11.3734   -2.3125   22.3936 H   0  0  0  0  0  0
  -10.2662   -3.6789   24.9133 H   0  0  0  0  0  0
  -10.7917   -4.5572   23.4372 H   0  0  0  0  0  0
   -9.0474   -3.5743   22.1570 H   0  0  0  0  0  0
   -8.5885   -2.4961   23.5184 H   0  0  0  0  0  0
   -7.1284   -4.5217   23.2798 H   0  0  0  0  0  0
   -7.9413   -4.3925   24.8764 H   0  0  0  0  0  0
   -9.0706   -6.4354   24.4934 H   0  0  0  0  0  0
   -7.7623   -5.0402   21.3743 H   0  0  0  0  0  0
   -9.6134   -8.2671   23.3965 H   0  0  0  0  0  0
   -9.2779   -8.3875   21.5248 H   0  0  0  0  0  0
  -13.2994   -3.5189   22.1561 H   0  0  0  0  0  0
  -14.8262   -3.7486   24.7941 H   0  0  0  0  0  0
  -16.8319   -3.2276   23.2642 H   0  0  0  0  0  0
  -15.1229   -2.9057   20.0589 H   0  0  0  0  0  0
  -16.4660   -6.8831   19.4850 H   0  0  0  0  0  0
  -16.2767   -5.8780   24.8590 H   0  0  0  0  0  0
  -14.5622   -8.0559   23.5479 H   0  0  0  0  0  0
  -14.9530   -9.5729   25.4630 H   0  0  0  0  0  0
  -14.0524   -8.0911   25.9319 H   0  0  0  0  0  0
  -16.0603   -7.1192   26.7624 H   0  0  0  0  0  0
  -16.9827   -8.5786   26.2663 H   0  0  0  0  0  0
  -15.5607   -9.9713   27.6779 H   0  0  0  0  0  0
  -14.6058   -8.5267   28.1556 H   0  0  0  0  0  0
  -17.1443   -7.7173   28.9059 H   0  0  0  0  0  0
  -15.3187  -10.8730   29.1871 H   0  0  0  0  0  0
  -16.1947  -11.3217   30.8184 H   0  0  0  0  0  0
  -18.0675   -8.1917   30.8990 H   0  0  0  0  0  0
  -15.9126  -10.2648   23.9246 H   0  0  0  0  0  0
  -18.8937   -9.7185   23.3781 H   0  0  0  0  0  0
  -17.2583  -12.1289   22.4340 H   0  0  0  0  0  0
  -19.0314  -11.9239   22.2328 H   0  0  0  0  0  0
  -18.7345   -9.9732   20.8188 H   0  0  0  0  0  0
  -16.9877   -9.8656   21.2232 H   0  0  0  0  0  0
  -16.7227  -12.2177   20.1620 H   0  0  0  0  0  0
  -18.4016  -12.0371   19.5493 H   0  0  0  0  0  0
  -17.7940   -9.9822   18.3302 H   0  0  0  0  0  0
  -16.1516   -9.9897   19.0576 H   0  0  0  0  0  0
  -15.7259  -12.1079   17.8808 H   0  0  0  0  0  0
  -17.3021  -11.8914   17.0470 H   0  0  0  0  0  0
  -15.4783  -11.1693   15.7215 H   0  0  0  0  0  0
  -14.9773  -10.0198   17.0077 H   0  0  0  0  0  0
  -16.5536   -9.8033   16.1739 H   0  0  0  0  0  0
  -20.3500  -10.8311   24.6542 H   0  0  0  0  0  0
  -18.9975  -12.6675   26.6727 H   0  0  0  0  0  0
  -21.1631  -10.6492   27.5572 H   0  0  0  0  0  0
  -20.7974  -12.7986   28.8594 H   0  0  0  0  0  0
  -20.4029  -11.3225   29.8040 H   0  0  0  0  0  0
  -19.0837  -12.3144   29.0951 H   0  0  0  0  0  0
  -19.3465   -9.3619   26.7501 H   0  0  0  0  0  0
  -18.2182  -10.2556   27.8248 H   0  0  0  0  0  0
  -19.5374   -9.2636   28.5336 H   0  0  0  0  0  0
  -20.2465  -14.5571   27.0373 H   0  0  0  0  0  0
  -22.8758  -14.5766   25.6517 H   0  0  0  0  0  0
  -21.3904  -16.6264   25.7919 H   0  0  0  0  0  0
  -21.6759  -16.6987   27.5639 H   0  0  0  0  0  0
  -24.0952  -17.1123   27.0646 H   0  0  0  0  0  0
  -24.1316  -16.1535   24.8247 H   0  0  0  0  0  0
  -24.7156  -17.8520   24.8542 H   0  0  0  0  0  0
  -23.0684  -17.4791   24.2425 H   0  0  0  0  0  0
  -22.4582  -18.9220   27.6436 H   0  0  0  0  0  0
  -22.0826  -19.1182   25.8980 H   0  0  0  0  0  0
  -23.7298  -19.4911   26.5097 H   0  0  0  0  0  0
   -8.2573   -6.6077   20.4111 H   0  0  0  0  0  0
  -17.6955   -9.8549   31.7507 H   0  0  0  0  0  0
  -16.7090   -6.3438   22.0968 H   0  0  0  0  0  0
  1  2  1  0  0  0
  1 68  1  0  0  0
  1 69  1  0  0  0
  1 70  1  0  0  0
  2  3  1  0  0  0
  2  5  1  0  0  0
  2 71  1  0  0  0
  3  4  2  0  0  0
  3 10  1  0  0  0
  5  6  1  0  0  0
  5 72  1  0  0  0
  5 73  1  0  0  0
  6  7  1  0  0  0
  6 74  1  0  0  0
  6 75  1  0  0  0
  7  8  1  0  0  0
  7 76  1  0  0  0
  7 77  1  0  0  0
  8  9  1  0  0  0
  8 78  1  0  0  0
  8 79  1  0  0  0
  9 80  1  0  0  0
  9 81  1  0  0  0
  9 82  1  0  0  0
 10 11  1  0  0  0
 10 83  1  0  0  0
 11 12  1  0  0  0
 11 14  1  0  0  0
 11 84  1  0  0  0
 12 13  2  0  0  0
 12 21  1  0  0  0
 14 15  1  0  0  0
 14 85  1  0  0  0
 14 86  1  0  0  0
 15 16  1  0  0  0
 15 87  1  0  0  0
 15 88  1  0  0  0
 16 17  1  0  0  0
 16 89  1  0  0  0
 16 90  1  0  0  0
 17 18  1  0  0  0
 17 91  1  0  0  0
 18 19  2  0  0  0
 18 20  1  0  0  0
 19 92  1  0  0  0
 19147  1  0  0  0
 20 93  1  0  0  0
 20 94  1  0  0  0
 21 22  1  0  0  0
 21 95  1  0  0  0
 22 23  1  0  0  0
 22 25  1  0  0  0
 22 96  1  0  0  0
 23 24  2  0  0  0
 23 31  1  0  0  0
 25 26  2  0  0  0
 25 97  1  0  0  0
 26 27  1  0  0  0
 26 28  1  0  0  0
 27 29  1  0  0  0
 27149  1  0  0  0
 28 30  2  0  0  0
 28 98  1  0  0  0
 29 30  1  0  0  0
 29 99  1  0  0  0
 31 32  1  0  0  0
 31100  1  0  0  0
 32 33  1  0  0  0
 32 35  1  0  0  0
 32101  1  0  0  0
 33 34  2  0  0  0
 33 42  1  0  0  0
 35 36  1  0  0  0
 35102  1  0  0  0
 35103  1  0  0  0
 36 37  1  0  0  0
 36104  1  0  0  0
 36105  1  0  0  0
 37 38  1  0  0  0
 37106  1  0  0  0
 37107  1  0  0  0
 38 39  1  0  0  0
 38108  1  0  0  0
 39 40  1  0  0  0
 39 41  2  0  0  0
 40109  1  0  0  0
 40110  1  0  0  0
 41111  1  0  0  0
 41148  1  0  0  0
 42 43  1  0  0  0
 42112  1  0  0  0
 43 44  1  0  0  0
 43 50  1  0  0  0
 43113  1  0  0  0
 44 45  1  0  0  0
 44114  1  0  0  0
 44115  1  0  0  0
 45 46  1  0  0  0
 45116  1  0  0  0
 45117  1  0  0  0
 46 47  1  0  0  0
 46118  1  0  0  0
 46119  1  0  0  0
 47 48  1  0  0  0
 47120  1  0  0  0
 47121  1  0  0  0
 48 49  1  0  0  0
 48122  1  0  0  0
 48123  1  0  0  0
 49124  1  0  0  0
 49125  1  0  0  0
 49126  1  0  0  0
 50 51  2  0  0  0
 50 52  1  0  0  0
 52 53  1  0  0  0
 52127  1  0  0  0
 53 54  1  0  0  0
 53 56  1  0  0  0
 53128  1  0  0  0
 54 55  2  0  0  0
 54 59  1  0  0  0
 56 57  1  0  0  0
 56 58  1  0  0  0
 56129  1  0  0  0
 57130  1  0  0  0
 57131  1  0  0  0
 57132  1  0  0  0
 58133  1  0  0  0
 58134  1  0  0  0
 58135  1  0  0  0
 59 60  1  0  0  0
 59136  1  0  0  0
 60 61  1  0  0  0
 60 63  1  0  0  0
 60137  1  0  0  0
 61 62  2  0  0  0
 61 67  1  0  0  0
 63 64  1  0  0  0
 63138  1  0  0  0
 63139  1  0  0  0
 64 65  1  0  0  0
 64 66  1  0  0  0
 64140  1  0  0  0
 65141  1  0  0  0
 65142  1  0  0  0
 65143  1  0  0  0
 66144  1  0  0  0
 66145  1  0  0  0
 66146  1  0  0  0
M  CHG  6   1   1   9   1  19   1  41   1  48   1  67  -1
M  END
> <s_m_source_file>
../3f9y_ligand.sdf

> <i_m_source_file_index>
1

> <s_epik_input>
W05IMytdW0NIMl1bQ0gyXVtDSDJdW0NIMl1bQ0BIXShbTkgzK10pQyg9TylbTkhdW0NAQEhdKFtDSDJdW0NIMl1bQ0gyXVtOSF0vQyg9TlxbSF0pW05IMl0pQyg9TylbTkhdW0NAQEhdKFtDSDJdQzE9TltDSDJdTj1bQ0hdMSlDKD1PKVtOSF1bQ0BASF0oW0NIMl1bQ0gyXVtDSDJdW05IXS9DKFtOSDJdKT1OXFtIXSlDKD1PKVtOSF1bQ0BASF0oW0NIMl1bQ0gyXVtDSDJdW0NIMl1bTkgyK11bQ0gzXSlDKD1PKVtOSF1bQ0BASF0oW0NIXShbQ0gzXSlbQ0gzXSlDKD1PKVtOSF1bQ0BIXShDKD1PKVtPSF0pW0NIMl1bQ0hdKFtDSDNdKVtDSDNd

> <s_epik_cmdline>
J2VwaWtfYXBwJywgJy1pbWFlJywgJ2xpZ2FuZF9wcm8ubWFlJywgJy1vbWFlJywgJ2xpZ2FuZF9wcmVwLm1hZScsICctbXMnLCAnMScsICctcGgnLCAnNycsICctcGh0JywgJzAuNScsICctbnQn

> <r_epik_Ionization_Penalty>
  0.1228

> <r_epik_Ionization_Penalty_Charging>
  0.1228

> <r_epik_Ionization_Penalty_Neutral>
  0.0000

> <r_epik_State_Penalty>
  0.1114

> <r_epik_Charging_Adjusted_Penalty>
0.234219225385298

> <i_epik_Tot_Q>
4

> <i_epik_Tot_abs_Q>
6

> <s_epik_Chemistry_Notes>
This compound has an imine and may undergo hydrolysis.

$$$$
