3faa_ligand
                    3D
 Schrodinger Suite 2020-3.
 41 44  0  0  1  0            999 V2000
   75.0700   22.1240   96.0950 C   0  0  0  0  0  0
   74.0740   22.8710   96.7350 C   0  0  0  0  0  0
   73.6510   24.0830   96.2550 N   0  0  0  0  0  0
   74.2380   24.5440   95.1160 C   0  0  0  0  0  0
   75.2760   23.7680   94.4430 C   0  0  0  0  0  0
   75.6780   22.5660   94.9450 N   0  0  0  0  0  0
   73.8420   25.7790   94.5770 C   0  0  0  0  0  0
   74.4390   26.2720   93.3870 C   0  0  0  0  0  0
   75.4570   25.5190   92.7190 C   0  0  0  0  0  0
   75.8620   24.2700   93.2650 C   0  0  0  0  0  0
   76.0780   26.0040   91.4940 C   0  0  0  0  0  0
   76.5180   27.2440   91.0120 C   0  0  0  0  0  0
   77.0340   27.0880   89.7450 N   0  0  0  0  0  0
   76.9340   25.8290   89.4340 C   0  0  0  0  0  0
   76.3610   25.1360   90.4650 N   0  0  0  0  0  0
   76.5020   28.5700   91.6410 C   0  0  0  0  0  0
   76.7760   28.7250   93.0200 C   0  0  0  0  0  0
   76.7570   30.0050   93.5840 C   0  0  0  0  0  0
   76.4690   31.1050   92.7810 C   0  0  0  0  0  0
   76.2090   30.9080   91.4150 C   0  0  0  0  0  0
   76.2210   29.6490   90.8390 N   0  0  0  0  0  0
   77.3230   25.2050   88.2690 N   0  0  0  0  0  0
   75.9020   32.0800   90.5300 C   0  0  0  0  0  0
   76.4490   32.3190   93.3170 F   0  0  0  0  0  0
   77.7870   23.8930   88.2350 C   0  0  0  0  0  0
   77.9240   23.1010   89.1740 O   0  0  0  0  0  0
   78.1420   23.4720   86.8300 C   0  0  0  0  0  0
   75.3711   21.1666   96.5202 H   0  0  0  0  0  0
   73.6204   22.4761   97.6441 H   0  0  0  0  0  0
   73.0697   26.3639   95.0766 H   0  0  0  0  0  0
   74.1199   27.2310   92.9789 H   0  0  0  0  0  0
   76.6384   23.6920   92.7637 H   0  0  0  0  0  0
   76.9999   27.8551   93.6375 H   0  0  0  0  0  0
   76.9663   30.1401   94.6451 H   0  0  0  0  0  0
   77.2739   25.7459   87.3125 H   0  0  0  0  0  0
   75.9288   33.0052   91.1244 H   0  0  0  0  0  0
   74.9014   31.9554   90.0905 H   0  0  0  0  0  0
   76.6508   32.1386   89.7263 H   0  0  0  0  0  0
   77.9535   24.3065   86.1385 H   0  0  0  0  0  0
   77.5257   22.6085   86.5392 H   0  0  0  0  0  0
   79.2055   23.1942   86.7882 H   0  0  0  0  0  0
  1  2  2  0  0  0
  1  6  1  0  0  0
  1 28  1  0  0  0
  2  3  1  0  0  0
  2 29  1  0  0  0
  3  4  2  0  0  0
  4  5  1  0  0  0
  4  7  1  0  0  0
  5  6  2  0  0  0
  5 10  1  0  0  0
  7  8  2  0  0  0
  7 30  1  0  0  0
  8  9  1  0  0  0
  8 31  1  0  0  0
  9 10  2  0  0  0
  9 11  1  0  0  0
 10 32  1  0  0  0
 11 12  2  0  0  0
 11 15  1  0  0  0
 12 13  1  0  0  0
 12 16  1  0  0  0
 13 14  1  0  0  0
 14 15  2  0  0  0
 14 22  1  0  0  0
 16 17  2  0  0  0
 16 21  1  0  0  0
 17 18  1  0  0  0
 17 33  1  0  0  0
 18 19  2  0  0  0
 18 34  1  0  0  0
 19 20  1  0  0  0
 19 24  1  0  0  0
 20 21  2  0  0  0
 20 23  1  0  0  0
 22 25  1  0  0  0
 22 35  1  0  0  0
 23 36  1  0  0  0
 23 37  1  0  0  0
 23 38  1  0  0  0
 25 26  2  0  0  0
 25 27  1  0  0  0
 27 39  1  0  0  0
 27 40  1  0  0  0
 27 41  1  0  0  0
M  END
> <s_m_source_file>
../3faa_ligand.sdf

> <i_m_source_file_index>
1

> <s_epik_input>
bjFbY0hdW2NIXW5jKGMxMilbY0hdYyhbY0hdW2NIXTIpLWMzYyhbbkhdYyhuMylbTkhdQyg9TylbQ0gzXSktYzRbY0hdW2NIXWMoRiljKG40KVtDSDNd

> <s_epik_cmdline>
J2VwaWtfYXBwJywgJy1pbWFlJywgJ2xpZ2FuZF9wcm8ubWFlJywgJy1vbWFlJywgJ2xpZ2FuZF9wcmVwLm1hZScsICctbXMnLCAnMScsICctcGgnLCAnNycsICctcGh0JywgJzAuNScsICctbnQn

> <r_lp_tautomer_probability>
1

> <r_epik_Ionization_Penalty>
 12.9462

> <r_epik_Ionization_Penalty_Charging>
  0.0000

> <r_epik_Ionization_Penalty_Neutral>
 12.9462

> <r_epik_State_Penalty>
 -0.0000

> <r_epik_Charging_Adjusted_Penalty>
0

> <i_epik_Tot_Q>
0

> <i_epik_Tot_abs_Q>
0

$$$$
