3fal_ligand
                    3D
 Schrodinger Suite 2020-3.
 57 58  0  0  1  0            999 V2000
   64.7110   37.0980   23.6580 C   0  0  0  0  0  0
   63.5030   37.6280   24.3860 C   0  0  0  0  0  0
   63.4020   39.1250   24.2140 C   0  0  0  0  0  0
   61.9590   39.5670   24.0540 C   0  0  0  0  0  0
   61.9050   40.9870   24.3490 N   0  0  0  0  0  0
   61.0470   41.4450   25.4380 C   0  0  0  0  0  0
   59.6200   41.5140   25.0180 C   0  0  0  0  0  0
   59.3590   41.4080   23.6730 C   0  0  0  0  0  0
   58.0610   41.4760   23.2480 C   0  0  0  0  0  0
   57.7150   41.3560   21.5800 Cl  0  0  0  0  0  0
   57.0260   41.6440   24.1320 C   0  0  0  0  0  0
   55.7440   41.7120   23.6110 O   0  0  0  0  0  0
   54.9280   40.9180   24.4550 C   0  0  0  0  0  0
   57.2800   41.7480   25.4820 C   0  0  0  0  0  0
   56.1990   41.9280   26.3490 O   0  0  0  0  0  0
   56.5170   41.2990   27.5800 C   0  0  0  0  0  0
   58.5870   41.6840   25.9260 C   0  0  0  0  0  0
   62.1960   41.8840   23.2770 C   0  0  0  0  0  0
   62.0300   43.2470   23.4090 C   0  0  0  0  0  0
   62.3170   44.1310   22.3850 C   0  0  0  0  0  0
   62.7860   43.6820   21.1710 C   0  0  0  0  0  0
   62.9540   42.3210   21.0260 C   0  0  0  0  0  0
   62.6730   41.4440   22.0570 C   0  0  0  0  0  0
   63.0700   44.6560   20.0540 C   0  0  0  0  0  0
   63.1990   45.9790   20.5740 O   0  0  0  0  0  0
   64.3590   44.3730   19.3020 C   0  0  0  0  0  0
   64.2430   43.2940   18.4870 F   0  0  0  0  0  0
   64.6870   45.4340   18.5120 F   0  0  0  0  0  0
   65.3930   44.1390   20.1520 F   0  0  0  0  0  0
   61.8800   44.6250   19.0890 C   0  0  0  0  0  0
   60.7630   45.1340   19.6780 F   0  0  0  0  0  0
   62.1180   45.3420   17.9570 F   0  0  0  0  0  0
   61.5660   43.3730   18.6590 F   0  0  0  0  0  0
   64.7710   36.0079   23.7924 H   0  0  0  0  0  0
   65.6190   37.5680   24.0637 H   0  0  0  0  0  0
   64.6249   37.3312   22.5865 H   0  0  0  0  0  0
   62.5950   37.1580   23.9803 H   0  0  0  0  0  0
   63.5891   37.3948   25.4575 H   0  0  0  0  0  0
   63.8245   39.6250   25.0980 H   0  0  0  0  0  0
   63.9621   39.4297   23.3177 H   0  0  0  0  0  0
   61.6290   39.3750   23.0224 H   0  0  0  0  0  0
   61.3233   39.0038   24.7531 H   0  0  0  0  0  0
   61.1267   40.7482   26.2854 H   0  0  0  0  0  0
   61.3643   42.4486   25.7575 H   0  0  0  0  0  0
   60.1710   41.2723   22.9586 H   0  0  0  0  0  0
   53.8919   40.9360   24.0859 H   0  0  0  0  0  0
   54.9596   41.3193   25.4787 H   0  0  0  0  0  0
   55.2992   39.8825   24.4554 H   0  0  0  0  0  0
   55.6807   41.4257   28.2832 H   0  0  0  0  0  0
   57.4237   41.7569   28.0022 H   0  0  0  0  0  0
   56.6932   40.2267   27.4091 H   0  0  0  0  0  0
   58.8055   41.7672   26.9906 H   0  0  0  0  0  0
   61.6591   43.6417   24.3549 H   0  0  0  0  0  0
   62.1696   45.1996   22.5414 H   0  0  0  0  0  0
   63.3168   41.9276   20.0764 H   0  0  0  0  0  0
   62.8320   40.3766   21.9035 H   0  0  0  0  0  0
   64.0002   46.2126   21.2906 H   0  0  0  0  0  0
  1  2  1  0  0  0
  1 34  1  0  0  0
  1 35  1  0  0  0
  1 36  1  0  0  0
  2  3  1  0  0  0
  2 37  1  0  0  0
  2 38  1  0  0  0
  3  4  1  0  0  0
  3 39  1  0  0  0
  3 40  1  0  0  0
  4  5  1  0  0  0
  4 41  1  0  0  0
  4 42  1  0  0  0
  5  6  1  0  0  0
  5 18  1  0  0  0
  6  7  1  0  0  0
  6 43  1  0  0  0
  6 44  1  0  0  0
  7  8  2  0  0  0
  7 17  1  0  0  0
  8  9  1  0  0  0
  8 45  1  0  0  0
  9 10  1  0  0  0
  9 11  2  0  0  0
 11 12  1  0  0  0
 11 14  1  0  0  0
 12 13  1  0  0  0
 13 46  1  0  0  0
 13 47  1  0  0  0
 13 48  1  0  0  0
 14 15  1  0  0  0
 14 17  2  0  0  0
 15 16  1  0  0  0
 16 49  1  0  0  0
 16 50  1  0  0  0
 16 51  1  0  0  0
 17 52  1  0  0  0
 18 19  2  0  0  0
 18 23  1  0  0  0
 19 20  1  0  0  0
 19 53  1  0  0  0
 20 21  2  0  0  0
 20 54  1  0  0  0
 21 22  1  0  0  0
 21 24  1  0  0  0
 22 23  2  0  0  0
 22 55  1  0  0  0
 23 56  1  0  0  0
 24 25  1  0  0  0
 24 26  1  0  0  0
 24 30  1  0  0  0
 25 57  1  0  0  0
 26 27  1  0  0  0
 26 28  1  0  0  0
 26 29  1  0  0  0
 30 31  1  0  0  0
 30 32  1  0  0  0
 30 33  1  0  0  0
M  END
> <s_m_source_file>
../3fal_ligand.sdf

> <i_m_source_file_index>
1

> <s_epik_input>
RkMoRikoRilDKFtPSF0pKEMoRikoRilGKWMoW2NIXVtjSF0xKVtjSF1bY0hdYzFOKFtDSDJdW0NIMl1bQ0gyXVtDSDNdKVtDSDJdYzJbY0hdYyhDbCljKE9bQ0gzXSljKFtjSF0yKU9bQ0gzXQ==

> <s_epik_cmdline>
J2VwaWtfYXBwJywgJy1pbWFlJywgJ2xpZ2FuZF9wcm8ubWFlJywgJy1vbWFlJywgJ2xpZ2FuZF9wcmVwLm1hZScsICctbXMnLCAnMScsICctcGgnLCAnNycsICctcGh0JywgJzAuNScsICctbnQn

> <r_lp_tautomer_probability>
1

> <r_epik_Ionization_Penalty>
  0.0274

> <r_epik_Ionization_Penalty_Charging>
  0.0000

> <r_epik_Ionization_Penalty_Neutral>
  0.0274

> <r_epik_State_Penalty>
  0.0222

> <r_epik_Charging_Adjusted_Penalty>
0.0221501822161708

> <i_epik_Tot_Q>
0

> <i_epik_Tot_abs_Q>
0

$$$$
