3fas_ligand
                    3D
 Schrodinger Suite 2020-3.
 18 17  0  0  1  0            999 V2000
   19.1270   16.3160   33.8520 N   0  3  0  0  0  0
   19.3750   15.6470   32.5330 C   0  0  2  0  0  0
   20.8570   15.4350   32.3140 C   0  0  0  0  0  0
   21.2360   14.8960   31.2680 O   0  0  0  0  0  0
   18.7890   16.4530   31.3700 C   0  0  0  0  0  0
   17.2920   16.2760   31.1750 C   0  0  0  0  0  0
   16.8550   14.9080   30.6570 C   0  0  0  0  0  0
   15.6330   14.6240   30.7910 O   0  0  0  0  0  0
   17.6820   14.1160   30.1170 O   0  5  0  0  0  0
   21.6510   15.8040   33.1890 O   0  5  0  0  0  0
   19.5617   15.7079   34.6590 H   0  0  0  0  0  0
   18.0437   16.4186   34.0131 H   0  0  0  0  0  0
   19.5936   17.3121   33.8514 H   0  0  0  0  0  0
   18.8734   14.6693   32.5818 H   0  0  0  0  0  0
   18.9657   17.5251   31.5412 H   0  0  0  0  0  0
   19.2733   16.1469   30.4310 H   0  0  0  0  0  0
   16.7771   16.4233   32.1358 H   0  0  0  0  0  0
   16.9272   17.0150   30.4465 H   0  0  0  0  0  0
  1  2  1  0  0  0
  1 11  1  0  0  0
  1 12  1  0  0  0
  1 13  1  0  0  0
  2  3  1  0  0  0
  2  5  1  0  0  0
  2 14  1  0  0  0
  3  4  2  0  0  0
  3 10  1  0  0  0
  5  6  1  0  0  0
  5 15  1  0  0  0
  5 16  1  0  0  0
  6  7  1  0  0  0
  6 17  1  0  0  0
  6 18  1  0  0  0
  7  8  2  0  0  0
  7  9  1  0  0  0
M  CHG  3   1   1   9  -1  10  -1
M  END
> <s_m_source_file>
../3fas_ligand.sdf

> <i_m_source_file_index>
1

> <s_epik_input>
Tz1DKFtPSF0pW0NAQEhdKFtOSDMrXSlbQ0gyXVtDSDJdQyg9TylbT0hd

> <s_epik_cmdline>
J2VwaWtfYXBwJywgJy1pbWFlJywgJ2xpZ2FuZF9wcm8ubWFlJywgJy1vbWFlJywgJ2xpZ2FuZF9wcmVwLm1hZScsICctbXMnLCAnMScsICctcGgnLCAnNycsICctcGh0JywgJzAuNScsICctbnQn

> <r_lp_tautomer_probability>
1

> <r_epik_Ionization_Penalty>
  0.0027

> <r_epik_Ionization_Penalty_Charging>
  0.0027

> <r_epik_Ionization_Penalty_Neutral>
  0.0000

> <r_epik_State_Penalty>
 -0.0000

> <r_epik_Charging_Adjusted_Penalty>
0.00270099915882496

> <i_epik_Tot_Q>
-1

> <i_epik_Tot_abs_Q>
3

$$$$
