3fat_ligand
                    3D
 Schrodinger Suite 2020-3.
 22 22  0  0  1  0            999 V2000
   11.8850   49.7560   20.0440 N   0  3  0  0  0  0
   12.3460   51.0730   20.5210 C   0  0  2  0  0  0
   13.2510   50.8730   21.7330 C   0  0  0  0  0  0
   13.7100   51.9090   22.2670 O   0  5  0  0  0  0
   13.5060   49.6970   22.0790 O   0  0  0  0  0  0
   11.1220   51.9450   20.8920 C   0  0  0  0  0  0
   10.2720   52.2340   19.6490 C   0  0  0  0  0  0
   10.4890   53.2840   18.7620 C   0  0  0  0  0  0
    9.1610   51.5580   19.1560 C   0  0  0  0  0  0
    8.5040   50.3170   19.7590 C   0  0  0  0  0  0
   11.4920   54.2050   18.8710 O   0  5  0  0  0  0
    9.5960   53.2650   17.7810 N   0  0  0  0  0  0
    8.7320   52.1650   18.0160 O   0  0  0  0  0  0
   12.7549   49.1365   19.7804 H   0  0  0  0  0  0
   11.2478   49.8896   19.1574 H   0  0  0  0  0  0
   11.3085   49.2595   20.8384 H   0  0  0  0  0  0
   12.9183   51.5462   19.7095 H   0  0  0  0  0  0
   10.5045   51.4144   21.6317 H   0  0  0  0  0  0
   11.4668   52.8985   21.3186 H   0  0  0  0  0  0
    9.0393   50.0273   20.6753 H   0  0  0  0  0  0
    8.5453   49.4911   19.0336 H   0  0  0  0  0  0
    7.4545   50.5393   20.0022 H   0  0  0  0  0  0
  1  2  1  0  0  0
  1 14  1  0  0  0
  1 15  1  0  0  0
  1 16  1  0  0  0
  2  3  1  0  0  0
  2  6  1  0  0  0
  2 17  1  0  0  0
  3  4  1  0  0  0
  3  5  2  0  0  0
  6  7  1  0  0  0
  6 18  1  0  0  0
  6 19  1  0  0  0
  7  8  1  0  0  0
  7  9  2  0  0  0
  8 11  1  0  0  0
  8 12  2  0  0  0
  9 10  1  0  0  0
  9 13  1  0  0  0
 10 20  1  0  0  0
 10 21  1  0  0  0
 10 22  1  0  0  0
 12 13  1  0  0  0
M  CHG  3   1   1   4  -1  11  -1
M  END
> <s_m_source_file>
../3fat_ligand.sdf

> <i_m_source_file_index>
1

> <s_epik_input>
W09IXUMoPU8pW0NAQEhdKFtOSDMrXSlbQ0gyXWMxYyg9Tylbbkhdb2MxW0NIM10=

> <s_epik_cmdline>
J2VwaWtfYXBwJywgJy1pbWFlJywgJ2xpZ2FuZF9wcm8ubWFlJywgJy1vbWFlJywgJ2xpZ2FuZF9wcmVwLm1hZScsICctbXMnLCAnMScsICctcGgnLCAnNycsICctcGh0JywgJzAuNScsICctbnQn

> <r_lp_tautomer_probability>
1

> <r_epik_Ionization_Penalty>
  0.0109

> <r_epik_Ionization_Penalty_Charging>
  0.0109

> <r_epik_Ionization_Penalty_Neutral>
  0.0000

> <r_epik_State_Penalty>
 -0.0000

> <r_epik_Charging_Adjusted_Penalty>
0.0109459785625358

> <i_epik_Tot_Q>
-1

> <i_epik_Tot_abs_Q>
3

$$$$
