3fbr_ligand
                    3D
 Schrodinger Suite 2020-3.
 84 83  0  0  1  0            999 V2000
   -0.3870    3.6430   66.1870 N   0  3  0  0  0  0
   -0.8290    4.3390   67.3990 C   0  0  2  0  0  0
    0.2990    4.4540   68.4100 C   0  0  0  0  0  0
    1.1410    3.5730   68.5100 O   0  0  0  0  0  0
   -2.0390    3.6330   68.0100 C   0  0  0  0  0  0
    0.2710    5.5640   69.1920 N   0  0  0  0  0  0
    1.2620    5.7770   70.2130 C   0  0  2  0  0  0
    0.8670    6.4850   71.4780 C   0  0  0  0  0  0
    0.2410    7.5470   71.5150 O   0  0  0  0  0  0
    2.4440    6.4960   69.5890 C   0  0  0  0  0  0
    1.2980    5.7570   72.4750 N   0  0  0  0  0  0
    1.3580    6.1690   73.8580 C   0  0  0  0  0  0
    2.4800    7.1760   73.6450 C   0  0  0  0  0  0
    3.3970    6.9290   72.8500 O   0  0  0  0  0  0
    2.4630    8.3360   74.3260 N   0  0  0  0  0  0
    3.4140    9.3780   73.8690 C   0  0  0  0  0  0
    4.2720   10.2380   74.8350 C   0  0  0  0  0  0
    4.5120    9.8750   75.9910 O   0  0  0  0  0  0
    4.7520   11.3860   74.2670 N   0  0  0  0  0  0
    5.6950   12.4360   74.7620 C   0  0  2  0  0  0
    5.3390   13.3800   75.9390 C   0  0  0  0  0  0
    5.0400   12.9530   77.0590 O   0  0  0  0  0  0
    6.0840   13.2910   73.5670 C   0  0  0  0  0  0
    5.4600   14.6850   75.5790 N   0  0  0  0  0  0
    5.1440   15.8390   76.3910 C   0  0  2  0  0  0
    3.6240   15.9130   76.3980 C   0  0  0  0  0  0
    3.0070   16.1400   75.3620 O   0  0  0  0  0  0
    5.7500   17.1250   75.8340 C   0  0  0  0  0  0
    3.0470   15.7170   77.5390 N   0  0  0  0  0  0
    1.6070   15.7210   77.8320 C   0  0  2  0  0  0
    0.5130   16.1190   76.8110 C   0  0  0  0  0  0
   -0.6610   15.9180   77.1600 O   0  0  0  0  0  0
    1.4060   16.5880   79.0600 C   0  0  0  0  0  0
    0.7430   16.6550   75.6320 N   0  0  0  0  0  0
   -0.3930   17.0350   74.7570 C   0  0  0  0  0  0
   -1.3750   15.8880   74.4520 C   0  0  0  0  0  0
   -0.9980   14.7280   74.5970 O   0  0  0  0  0  0
   -2.5970   16.2020   74.0330 N   0  0  0  0  0  0
   -3.5960   15.1930   73.6840 C   0  0  2  0  0  0
   -4.0100   15.2840   72.2230 C   0  0  0  0  0  0
   -4.4300   16.3420   71.7490 O   0  0  0  0  0  0
   -4.8170   15.3250   74.5800 C   0  0  0  0  0  0
    0.4832    4.1643   65.7616 H   0  0  0  0  0  0
   -1.2045    3.6333   65.4510 H   0  0  0  0  0  0
   -0.1081    2.6092   66.4389 H   0  0  0  0  0  0
   -1.1123    5.3517   67.0764 H   0  0  0  0  0  0
   -2.8400    3.5626   67.2594 H   0  0  0  0  0  0
   -2.3986    4.2061   68.8773 H   0  0  0  0  0  0
   -1.7492    2.6222   68.3330 H   0  0  0  0  0  0
   -0.5254    6.3063   69.0352 H   0  0  0  0  0  0
    1.4362    4.7405   70.5374 H   0  0  0  0  0  0
    2.7380    5.9821   68.6620 H   0  0  0  0  0  0
    3.2886    6.4929   70.2937 H   0  0  0  0  0  0
    2.1620    7.5341   69.3591 H   0  0  0  0  0  0
    1.6338    4.7502   72.1860 H   0  0  0  0  0  0
    0.3847    6.5834   74.1597 H   0  0  0  0  0  0
    1.5984    5.3008   74.4892 H   0  0  0  0  0  0
    1.7960    8.5355   75.1776 H   0  0  0  0  0  0
    4.1806    8.9188   73.2275 H   0  0  0  0  0  0
    2.8705   10.1458   73.2987 H   0  0  0  0  0  0
    4.3106   11.4723   73.2631 H   0  0  0  0  0  0
    6.4737   11.7950   75.2010 H   0  0  0  0  0  0
    6.3411   12.6399   72.7185 H   0  0  0  0  0  0
    6.9529   13.9129   73.8284 H   0  0  0  0  0  0
    5.2396   13.9389   73.2893 H   0  0  0  0  0  0
    5.8414   14.8200   74.5561 H   0  0  0  0  0  0
    5.5820   15.6881   77.3887 H   0  0  0  0  0  0
    6.8471   17.0458   75.8398 H   0  0  0  0  0  0
    5.4405   17.9764   76.4579 H   0  0  0  0  0  0
    5.3989   17.2792   74.8030 H   0  0  0  0  0  0
    3.7718   15.5309   78.3452 H   0  0  0  0  0  0
    1.4816   14.6307   77.9064 H   0  0  0  0  0  0
    2.1660   16.3369   79.8145 H   0  0  0  0  0  0
    0.4034   16.4084   79.4755 H   0  0  0  0  0  0
    1.5028   17.6475   78.7806 H   0  0  0  0  0  0
    1.7767   16.8215   75.2947 H   0  0  0  0  0  0
   -0.9748   17.8350   75.2382 H   0  0  0  0  0  0
   -0.0079   17.3922   73.7905 H   0  0  0  0  0  0
   -2.8439   17.2710   73.9535 H   0  0  0  0  0  0
   -3.0974   14.2272   73.8533 H   0  0  0  0  0  0
   -3.9307   14.3897   71.5874 H   0  0  0  0  0  0
   -4.5077   15.2580   75.6335 H   0  0  0  0  0  0
   -5.5268   14.5156   74.3541 H   0  0  0  0  0  0
   -5.3000   16.2969   74.4007 H   0  0  0  0  0  0
  1  2  1  0  0  0
  1 43  1  0  0  0
  1 44  1  0  0  0
  1 45  1  0  0  0
  2  3  1  0  0  0
  2  5  1  0  0  0
  2 46  1  0  0  0
  3  4  2  0  0  0
  3  6  1  0  0  0
  5 47  1  0  0  0
  5 48  1  0  0  0
  5 49  1  0  0  0
  6  7  1  0  0  0
  6 50  1  0  0  0
  7  8  1  0  0  0
  7 10  1  0  0  0
  7 51  1  0  0  0
  8  9  2  0  0  0
  8 11  1  0  0  0
 10 52  1  0  0  0
 10 53  1  0  0  0
 10 54  1  0  0  0
 11 12  1  0  0  0
 11 55  1  0  0  0
 12 13  1  0  0  0
 12 56  1  0  0  0
 12 57  1  0  0  0
 13 14  2  0  0  0
 13 15  1  0  0  0
 15 16  1  0  0  0
 15 58  1  0  0  0
 16 17  1  0  0  0
 16 59  1  0  0  0
 16 60  1  0  0  0
 17 18  2  0  0  0
 17 19  1  0  0  0
 19 20  1  0  0  0
 19 61  1  0  0  0
 20 21  1  0  0  0
 20 23  1  0  0  0
 20 62  1  0  0  0
 21 22  2  0  0  0
 21 24  1  0  0  0
 23 63  1  0  0  0
 23 64  1  0  0  0
 23 65  1  0  0  0
 24 25  1  0  0  0
 24 66  1  0  0  0
 25 26  1  0  0  0
 25 28  1  0  0  0
 25 67  1  0  0  0
 26 27  2  0  0  0
 26 29  1  0  0  0
 28 68  1  0  0  0
 28 69  1  0  0  0
 28 70  1  0  0  0
 29 30  1  0  0  0
 29 71  1  0  0  0
 30 31  1  0  0  0
 30 33  1  0  0  0
 30 72  1  0  0  0
 31 32  2  0  0  0
 31 34  1  0  0  0
 33 73  1  0  0  0
 33 74  1  0  0  0
 33 75  1  0  0  0
 34 35  1  0  0  0
 34 76  1  0  0  0
 35 36  1  0  0  0
 35 77  1  0  0  0
 35 78  1  0  0  0
 36 37  2  0  0  0
 36 38  1  0  0  0
 38 39  1  0  0  0
 38 79  1  0  0  0
 39 40  1  0  0  0
 39 42  1  0  0  0
 39 80  1  0  0  0
 40 41  2  0  0  0
 40 81  1  0  0  0
 42 82  1  0  0  0
 42 83  1  0  0  0
 42 84  1  0  0  0
M  CHG  1   1   1
M  END
> <s_m_source_file>
../3fbr_ligand.sdf

> <i_m_source_file_index>
1

> <s_epik_input>
W05IMytdW0NAQEhdKFtDSDNdKUMoPU8pW05IXVtDQEBIXShbQ0gzXSlDKD1PKVtOSF1bQ0gyXUMoPU8pW05IXVtDSDJdQyg9TylbTkhdW0NAQEhdKFtDSDNdKUMoPU8pW05IXVtDQEBIXShbQ0gzXSlDKD1PKVtOSF1bQ0BASF0oW0NIM10pQyg9TylbTkhdW0NIMl1DKD1PKVtOSF1bQ0BIXShbQ0hdPU8pW0NIM10=

> <s_epik_cmdline>
J2VwaWtfYXBwJywgJy1pbWFlJywgJ2xpZ2FuZF9wcm8ubWFlJywgJy1vbWFlJywgJ2xpZ2FuZF9wcmVwLm1hZScsICctbXMnLCAnMScsICctcGgnLCAnNycsICctcGh0JywgJzAuNScsICctbnQn

> <r_lp_tautomer_probability>
0.99990000499975

> <r_epik_Ionization_Penalty>
  0.1241

> <r_epik_Ionization_Penalty_Charging>
  0.1239

> <r_epik_Ionization_Penalty_Neutral>
  0.0002

> <r_epik_State_Penalty>
  0.1134

> <r_epik_Charging_Adjusted_Penalty>
0.237354511000365

> <i_epik_Tot_Q>
1

> <i_epik_Tot_abs_Q>
1

$$$$
