3fc2_ligand
                    3D
 Schrodinger Suite 2020-3.
 96101  0  0  1  0            999 V2000
   51.3340   -0.9140    9.5630 C   0  0  0  0  0  0
   52.2400    0.2950    9.2360 C   0  0  0  0  0  0
   53.1760   -2.0350   10.6170 C   0  0  0  0  0  0
   54.1060   -0.8360   10.3100 C   0  0  0  0  0  0
   49.3040   -4.8030    8.6510 C   0  0  0  0  0  0
   50.0260   -3.4450    8.8300 C   0  0  0  0  0  0
   51.3230   -6.0230    9.2350 C   0  0  0  0  0  0
   52.1330   -4.7060    9.4000 C   0  0  0  0  0  0
   47.2310   -9.3550    7.9190 C   0  0  0  0  0  0
   47.6870  -11.4320    6.1530 C   0  0  0  0  0  0
   48.2740   -9.2290    6.9840 C   0  0  0  0  0  0
   48.4800  -10.2810    6.0990 C   0  0  0  0  0  0
   42.4420  -12.9700   12.1850 C   0  0  1  0  0  0
   42.1240  -14.8970   10.6010 N   0  0  0  0  0  0
   43.1220  -14.3450    9.7300 C   0  0  0  0  0  0
   43.3060  -13.4930   13.3750 C   0  0  0  0  0  0
   44.5820  -14.2730   12.9590 C   0  0  0  0  0  0
   43.9630  -11.1270   11.7920 C   0  0  0  0  0  0
   45.3720  -10.8250   11.2990 C   0  0  0  0  0  0
   43.0430   -9.8930   11.6820 C   0  0  0  0  0  0
   41.4420  -16.1750   10.2940 C   0  0  0  0  0  0
   49.0960  -12.8170    4.6800 C   0  0  0  0  0  0
   49.1590   -7.9890    6.9350 C   0  0  0  0  0  0
   49.6650   -7.7030    5.8870 O   0  0  0  0  0  0
   47.8620  -12.4980    5.3050 O   0  0  0  0  0  0
   46.6520  -11.5440    7.0780 C   0  0  0  0  0  0
   45.9580  -12.7920    7.0550 N   0  0  0  0  0  0
   45.0190  -13.3310    7.9740 C   0  0  0  0  0  0
   44.6880  -12.6510    9.1330 N   0  0  0  0  0  0
   43.7440  -13.1260   10.0220 C   0  0  0  0  0  0
   43.3950  -12.3960   11.2130 N   0  0  0  0  0  0
   44.4080  -14.5280    7.6920 N   0  0  0  0  0  0
   43.4680  -15.0220    8.5700 C   0  0  0  0  0  0
   41.7550  -14.2360   11.7700 C   0  0  0  0  0  0
   40.9280  -14.6910   12.5390 O   0  0  0  0  0  0
   46.4270  -10.4980    7.9660 C   0  0  0  0  0  0
   49.4110   -7.1880    8.0600 N   0  0  0  0  0  0
   50.2190   -5.9320    8.1790 C   0  0  1  0  0  0
   51.2850   -3.4520    9.7480 C   0  0  1  0  0  0
   52.1030   -2.1950    9.5910 N   0  0  1  0  0  0
   53.3610    0.4360   10.1910 N   0  3  1  0  0  0
   54.2470    1.5720    9.8800 C   0  0  0  0  0  0
   53.8040    2.9140   10.4990 C   0  0  0  0  0  0
   54.0860    4.2970    9.9520 C   0  0  0  0  0  0
   52.7320    3.7130    9.7130 C   0  0  0  0  0  0
   50.8708   -0.7687   10.5501 H   0  0  0  0  0  0
   50.5480   -1.0007    8.7983 H   0  0  0  0  0  0
   52.6657    0.1725    8.2291 H   0  0  0  0  0  0
   51.6451    1.2195    9.2725 H   0  0  0  0  0  0
   53.7679   -2.9619   10.6391 H   0  0  0  0  0  0
   52.6940   -1.8844   11.5942 H   0  0  0  0  0  0
   54.8414   -0.7255   11.1205 H   0  0  0  0  0  0
   54.6313   -1.0133    9.3599 H   0  0  0  0  0  0
   48.8687   -5.1162    9.6114 H   0  0  0  0  0  0
   48.5043   -4.6974    7.9031 H   0  0  0  0  0  0
   50.3665   -3.0789    7.8502 H   0  0  0  0  0  0
   49.3314   -2.7159    9.2727 H   0  0  0  0  0  0
   52.0010   -6.8351    8.9336 H   0  0  0  0  0  0
   50.8440   -6.2811   10.1910 H   0  0  0  0  0  0
   52.8658   -4.8255   10.2116 H   0  0  0  0  0  0
   52.6595   -4.4792    8.4612 H   0  0  0  0  0  0
   47.0453   -8.5436    8.6227 H   0  0  0  0  0  0
   49.2707  -10.2079    5.3523 H   0  0  0  0  0  0
   41.6981  -12.1701   12.3147 H   0  0  0  0  0  0
   43.6398  -12.6424   13.9874 H   0  0  0  0  0  0
   42.7042  -14.1758   13.9928 H   0  0  0  0  0  0
   45.1222  -14.5994   13.8599 H   0  0  0  0  0  0
   45.2318  -13.6194   12.3585 H   0  0  0  0  0  0
   44.2962  -15.1528   12.3638 H   0  0  0  0  0  0
   44.0346  -11.3689   12.8627 H   0  0  0  0  0  0
   45.7280   -9.8901   11.7565 H   0  0  0  0  0  0
   45.3622  -10.7171   10.2044 H   0  0  0  0  0  0
   46.0434  -11.6497   11.5801 H   0  0  0  0  0  0
   43.5432   -9.0217   12.1299 H   0  0  0  0  0  0
   42.1010  -10.0893   12.2151 H   0  0  0  0  0  0
   42.8290   -9.6885   10.6226 H   0  0  0  0  0  0
   41.8315  -16.5805    9.3486 H   0  0  0  0  0  0
   40.3601  -15.9999   10.1999 H   0  0  0  0  0  0
   41.6278  -16.8939   11.1055 H   0  0  0  0  0  0
   48.9691  -13.7124    4.0538 H   0  0  0  0  0  0
   49.8570  -13.0127    5.4497 H   0  0  0  0  0  0
   49.4180  -11.9731    4.0522 H   0  0  0  0  0  0
   46.1246  -13.4988    6.2288 H   0  0  0  0  0  0
   42.9824  -15.9720    8.3466 H   0  0  0  0  0  0
   45.6235  -10.5691    8.6991 H   0  0  0  0  0  0
   48.9101   -7.6057    8.9458 H   0  0  0  0  0  0
   50.6571   -5.7777    7.1819 H   0  0  0  0  0  0
   50.9825   -3.4594   10.8056 H   0  0  0  0  0  0
   52.9246    0.6730   11.1725 H   0  0  0  0  0  0
   55.2584    1.3625   10.2585 H   0  0  0  0  0  0
   54.2864    1.7188    8.7905 H   0  0  0  0  0  0
   53.9813    2.4849   11.4962 H   0  0  0  0  0  0
   54.3429    4.9736   10.7804 H   0  0  0  0  0  0
   54.9272    4.2472    9.2450 H   0  0  0  0  0  0
   52.4361    3.1468    8.8175 H   0  0  0  0  0  0
   51.8517    3.8733   10.3529 H   0  0  0  0  0  0
  1  2  1  0  0  0
  1 40  1  0  0  0
  1 46  1  0  0  0
  1 47  1  0  0  0
  2 41  1  0  0  0
  2 48  1  0  0  0
  2 49  1  0  0  0
  3  4  1  0  0  0
  3 40  1  0  0  0
  3 50  1  0  0  0
  3 51  1  0  0  0
  4 41  1  0  0  0
  4 52  1  0  0  0
  4 53  1  0  0  0
  5  6  1  0  0  0
  5 38  1  0  0  0
  5 54  1  0  0  0
  5 55  1  0  0  0
  6 39  1  0  0  0
  6 56  1  0  0  0
  6 57  1  0  0  0
  7  8  1  0  0  0
  7 38  1  0  0  0
  7 58  1  0  0  0
  7 59  1  0  0  0
  8 39  1  0  0  0
  8 60  1  0  0  0
  8 61  1  0  0  0
  9 11  2  0  0  0
  9 36  1  0  0  0
  9 62  1  0  0  0
 10 12  2  0  0  0
 10 25  1  0  0  0
 10 26  1  0  0  0
 11 12  1  0  0  0
 11 23  1  0  0  0
 12 63  1  0  0  0
 13 16  1  0  0  0
 13 31  1  0  0  0
 13 34  1  0  0  0
 13 64  1  0  0  0
 14 15  1  0  0  0
 14 21  1  0  0  0
 14 34  1  0  0  0
 15 30  2  0  0  0
 15 33  1  0  0  0
 16 17  1  0  0  0
 16 65  1  0  0  0
 16 66  1  0  0  0
 17 67  1  0  0  0
 17 68  1  0  0  0
 17 69  1  0  0  0
 18 19  1  0  0  0
 18 20  1  0  0  0
 18 31  1  0  0  0
 18 70  1  0  0  0
 19 71  1  0  0  0
 19 72  1  0  0  0
 19 73  1  0  0  0
 20 74  1  0  0  0
 20 75  1  0  0  0
 20 76  1  0  0  0
 21 77  1  0  0  0
 21 78  1  0  0  0
 21 79  1  0  0  0
 22 25  1  0  0  0
 22 80  1  0  0  0
 22 81  1  0  0  0
 22 82  1  0  0  0
 23 24  2  0  0  0
 23 37  1  0  0  0
 26 27  1  0  0  0
 26 36  2  0  0  0
 27 28  1  0  0  0
 27 83  1  0  0  0
 28 29  2  0  0  0
 28 32  1  0  0  0
 29 30  1  0  0  0
 30 31  1  0  0  0
 32 33  2  0  0  0
 33 84  1  0  0  0
 34 35  2  0  0  0
 36 85  1  0  0  0
 37 38  1  0  0  0
 37 86  1  0  0  0
 38 87  1  0  0  0
 39 40  1  0  0  0
 39 88  1  0  0  0
 41 42  1  0  0  0
 41 89  1  0  0  0
 42 43  1  0  0  0
 42 90  1  0  0  0
 42 91  1  0  0  0
 43 44  1  0  0  0
 43 45  1  0  0  0
 43 92  1  0  0  0
 44 45  1  0  0  0
 44 93  1  0  0  0
 44 94  1  0  0  0
 45 95  1  0  0  0
 45 96  1  0  0  0
M  CHG  1  41   1
M  END
> <s_m_source_file>
../3fc2_ligand.sdf

> <i_m_source_file_index>
1

> <s_epik_input>
W0NIMl0xW0NIMl1bQ0hdMVtDSDJdW05ASCtdKFtDSDJdW0NIMl0yKVtDSDJdW0NIMl1bTkBASCtdMltDQEhdKFtDSDJdW0NIMl0zKVtDSDJdW0NIMl1bQ0BASF0zW05IXUMoPU8pYyhbY0hdYzRPW0NIM10pW2NIXVtjSF1jNFtOSF1jKG5bY0hdNSluYyhjNTYpTihbQ0hdKFtDSDNdKVtDSDNdKVtDQEhdKFtDSDJdW0NIM10pQyg9TylONltDSDNd

> <s_epik_cmdline>
J2VwaWtfYXBwJywgJy1pbWFlJywgJ2xpZ2FuZF9wcm8ubWFlJywgJy1vbWFlJywgJ2xpZ2FuZF9wcmVwLm1hZScsICctbXMnLCAnMScsICctcGgnLCAnNycsICctcGh0JywgJzAuNScsICctbnQn

> <r_lp_tautomer_probability>
0.999999648617923

> <r_epik_Ionization_Penalty>
  0.2056

> <r_epik_Ionization_Penalty_Charging>
  0.0003

> <r_epik_Ionization_Penalty_Neutral>
  0.2054

> <r_epik_State_Penalty>
  0.3136

> <r_epik_Charging_Adjusted_Penalty>
0.313848729778456

> <i_epik_Tot_Q>
1

> <i_epik_Tot_abs_Q>
1

$$$$
