3fc8_ligand
                    3D
 Schrodinger Suite 2020-3.
 39 40  0  0  1  0            999 V2000
   21.2200   -2.3560   -7.9650 F   0  0  0  0  0  0
   21.1810   -1.1600   -8.5630 C   0  0  0  0  0  0
   21.2000   -1.1490   -9.9590 C   0  0  0  0  0  0
   21.1510    0.0470  -10.6530 C   0  0  0  0  0  0
   21.1690    0.0430  -12.0020 F   0  0  0  0  0  0
   21.0970    1.2400   -9.9270 C   0  0  0  0  0  0
   21.0980    1.2210   -8.5210 C   0  0  0  0  0  0
   21.1210    0.0130   -7.7990 C   0  0  0  0  0  0
   21.1330   -0.0300   -6.3630 C   0  0  0  0  0  0
   20.1650    0.6540   -5.6100 C   0  0  0  0  0  0
   22.0610   -0.7330   -5.5650 C   0  0  0  0  0  0
   22.1000   -0.7980   -4.1120 C   0  0  0  0  0  0
   23.6320   -1.9410   -3.2100 I   0  0  0  0  0  0
   21.2140   -0.0970   -3.1990 C   0  0  0  0  0  0
   21.0660   -0.0590   -1.9720 O   0  0  0  0  0  0
   20.1730    0.6250   -4.1500 C   0  0  0  0  0  0
   18.9600    1.4680   -3.6130 C   0  0  0  0  0  0
   18.0810    2.0320   -4.3060 O   0  0  0  0  0  0
   18.8540    1.5080   -2.2750 N   0  0  0  0  0  0
   17.8470    2.1350   -1.4090 C   0  0  0  0  0  0
   16.6480    1.1860   -1.4740 C   0  0  0  0  0  0
   15.9400    0.9830   -0.1530 C   0  0  0  0  0  0
   16.0840    1.7740    0.7700 O   0  0  0  0  0  0
   15.0680   -0.1700    0.0360 O   0  0  0  0  0  0
   13.9880   -0.1250    0.9740 C   0  0  0  0  0  0
   21.2539   -2.0900  -10.5065 H   0  0  0  0  0  0
   21.0538    2.1927  -10.4548 H   0  0  0  0  0  0
   21.0805    2.1652   -7.9767 H   0  0  0  0  0  0
   19.3899    1.2196   -6.1271 H   0  0  0  0  0  0
   22.8339   -1.2887   -6.0960 H   0  0  0  0  0  0
   19.6969    0.9588   -1.8301 H   0  0  0  0  0  0
   18.2462    2.2247   -0.3879 H   0  0  0  0  0  0
   17.6020    3.1351   -1.7961 H   0  0  0  0  0  0
   15.9035    1.5837   -2.1794 H   0  0  0  0  0  0
   16.9828    0.1950   -1.8143 H   0  0  0  0  0  0
   13.4553   -1.0874    0.9662 H   0  0  0  0  0  0
   13.2933    0.6809    0.6949 H   0  0  0  0  0  0
   14.3854    0.0660    1.9818 H   0  0  0  0  0  0
   21.7909   -0.5615   -1.3148 H   0  0  0  0  0  0
  1  2  1  0  0  0
  2  3  2  0  0  0
  2  8  1  0  0  0
  3  4  1  0  0  0
  3 26  1  0  0  0
  4  5  1  0  0  0
  4  6  2  0  0  0
  6  7  1  0  0  0
  6 27  1  0  0  0
  7  8  2  0  0  0
  7 28  1  0  0  0
  8  9  1  0  0  0
  9 10  2  0  0  0
  9 11  1  0  0  0
 10 16  1  0  0  0
 10 29  1  0  0  0
 11 12  2  0  0  0
 11 30  1  0  0  0
 12 13  1  0  0  0
 12 14  1  0  0  0
 14 15  1  0  0  0
 14 16  2  0  0  0
 15 39  1  0  0  0
 16 17  1  0  0  0
 17 18  2  0  0  0
 17 19  1  0  0  0
 19 20  1  0  0  0
 19 31  1  0  0  0
 20 21  1  0  0  0
 20 32  1  0  0  0
 20 33  1  0  0  0
 21 22  1  0  0  0
 21 34  1  0  0  0
 21 35  1  0  0  0
 22 23  2  0  0  0
 22 24  1  0  0  0
 24 25  1  0  0  0
 25 36  1  0  0  0
 25 37  1  0  0  0
 25 38  1  0  0  0
M  END
> <s_m_source_file>
../3fc8_ligand.sdf

> <i_m_source_file_index>
1

> <s_epik_input>
RmMxW2NIXWMoRilbY0hdW2NIXWMxQzI9W0NIXVtDSF0oQyg9TylDKEkpPVtDSF0yKUMoPU8pW05IXVtDSDJdW0NIMl1DKD1PKU9bQ0gzXQ==

> <s_epik_cmdline>
J2VwaWtfYXBwJywgJy1pbWFlJywgJ2xpZ2FuZF9wcm8ubWFlJywgJy1vbWFlJywgJ2xpZ2FuZF9wcmVwLm1hZScsICctbXMnLCAnMScsICctcGgnLCAnNycsICctcGh0JywgJzAuNScsICctbnQn

> <r_lp_tautomer_probability>
0.999999999997365

> <r_epik_Ionization_Penalty>
  0.5283

> <r_epik_Ionization_Penalty_Charging>
  0.0000

> <r_epik_Ionization_Penalty_Neutral>
  0.5283

> <r_epik_State_Penalty>
  0.0005

> <r_epik_Charging_Adjusted_Penalty>
0.000517365315785042

> <i_epik_Tot_Q>
0

> <i_epik_Tot_abs_Q>
0

> <s_epik_Chemistry_Notes>
This compound has an ester and may undergo hydrolysis at high or low pH.

$$$$
