3fcb_ligand
                    3D
 Schrodinger Suite 2020-3.
 34 35  0  0  1  0            999 V2000
   16.3770    0.2720   -0.7450 O   0  0  0  0  0  0
   17.4320    0.8580   -0.7780 C   0  0  0  0  0  0
   18.4700    0.3830   -0.2400 O   0  5  0  0  0  0
   17.4810    2.2040   -1.4870 C   0  0  0  0  0  0
   18.9310    2.8220   -1.5200 C   0  0  0  0  0  0
   19.7910    2.0010   -2.4780 N   0  0  0  0  0  0
   19.5820    1.7910   -3.7280 C   0  0  0  0  0  0
   18.5460    2.2610   -4.3020 O   0  0  0  0  0  0
   20.6030    0.8770   -4.4770 C   0  0  0  0  0  0
   20.6340    0.8310   -5.8650 C   0  0  0  0  0  0
   21.5150    0.0320   -3.7360 C   0  0  0  0  0  0
   21.5190    0.0280   -2.4160 O   0  5  0  0  0  0
   22.4340   -0.8160   -4.4080 C   0  0  0  0  0  0
   23.8320   -2.0950   -3.3050 I   0  0  0  0  0  0
   22.4100   -0.7950   -5.8090 C   0  0  0  0  0  0
   21.5210    0.0160   -6.5650 C   0  0  0  0  0  0
   21.5220    0.0140   -7.9980 C   0  0  0  0  0  0
   21.5410   -1.2220   -8.7620 C   0  0  0  0  0  0
   21.5790   -2.4000   -8.1890 F   0  0  0  0  0  0
   21.4980    1.2600   -8.7230 C   0  0  0  0  0  0
   21.4900    1.2630  -10.1160 C   0  0  0  0  0  0
   21.5220    0.0140  -10.8160 C   0  0  0  0  0  0
   21.5240    0.0040  -12.1690 F   0  0  0  0  0  0
   21.5470   -1.2240  -10.1360 C   0  0  0  0  0  0
   17.1425    2.0833   -2.5267 H   0  0  0  0  0  0
   16.8230    2.9162   -0.9676 H   0  0  0  0  0  0
   18.8773    3.8648   -1.8661 H   0  0  0  0  0  0
   19.3651    2.7929   -0.5097 H   0  0  0  0  0  0
   20.7053    1.5102   -2.1132 H   0  0  0  0  0  0
   19.9392    1.4552   -6.4269 H   0  0  0  0  0  0
   23.1099   -1.4343   -6.3471 H   0  0  0  0  0  0
   21.4861    2.2042   -8.1785 H   0  0  0  0  0  0
   21.4598    2.2036  -10.6660 H   0  0  0  0  0  0
   21.5706   -2.1622  -10.6903 H   0  0  0  0  0  0
  1  2  2  0  0  0
  2  3  1  0  0  0
  2  4  1  0  0  0
  4  5  1  0  0  0
  4 25  1  0  0  0
  4 26  1  0  0  0
  5  6  1  0  0  0
  5 27  1  0  0  0
  5 28  1  0  0  0
  6  7  1  0  0  0
  6 29  1  0  0  0
  7  8  2  0  0  0
  7  9  1  0  0  0
  9 10  2  0  0  0
  9 11  1  0  0  0
 10 16  1  0  0  0
 10 30  1  0  0  0
 11 12  1  0  0  0
 11 13  2  0  0  0
 13 14  1  0  0  0
 13 15  1  0  0  0
 15 16  2  0  0  0
 15 31  1  0  0  0
 16 17  1  0  0  0
 17 18  2  0  0  0
 17 20  1  0  0  0
 18 19  1  0  0  0
 18 24  1  0  0  0
 20 21  2  0  0  0
 20 32  1  0  0  0
 21 22  1  0  0  0
 21 33  1  0  0  0
 22 23  1  0  0  0
 22 24  2  0  0  0
 24 34  1  0  0  0
M  CHG  2   3  -1  12  -1
M  END
> <s_m_source_file>
../3fcb_ligand.sdf

> <i_m_source_file_index>
1

> <s_epik_input>
Tz1DKFtPSF0pW0NIMl1bQ0gyXVtOSF1DKD1PKWMxW2NIXWMoW2NIXWMoSSljMVtPSF0pLWMyYyhGKVtjSF1jKEYpW2NIXVtjSF0y

> <s_epik_cmdline>
J2VwaWtfYXBwJywgJy1pbWFlJywgJ2xpZ2FuZF9wcm8ubWFlJywgJy1vbWFlJywgJ2xpZ2FuZF9wcmVwLm1hZScsICctbXMnLCAnMScsICctcGgnLCAnNycsICctcGh0JywgJzAuNScsICctbnQn

> <r_epik_Ionization_Penalty>
  0.3782

> <r_epik_Ionization_Penalty_Charging>
  0.3782

> <r_epik_Ionization_Penalty_Neutral>
  0.0000

> <r_epik_State_Penalty>
  0.3742

> <r_epik_Charging_Adjusted_Penalty>
0.752356668966408

> <i_epik_Tot_Q>
-2

> <i_epik_Tot_abs_Q>
2

$$$$
