3fcf_ligand
                    3D
 Schrodinger Suite 2020-3.
 38 39  0  0  1  0            999 V2000
  -11.8940   -7.5360   -1.4420 O   0  5  0  0  0  0
  -12.4150   -7.3750   -2.7660 C   0  0  0  0  0  0
  -12.6310   -8.3610   -3.5070 O   0  0  0  0  0  0
  -12.7200   -5.9920   -3.2720 C   0  0  0  0  0  0
  -13.0780   -5.7900   -4.6080 C   0  0  0  0  0  0
  -13.3650   -4.5070   -5.0760 C   0  0  0  0  0  0
  -12.6520   -4.9010   -2.4020 C   0  0  0  0  0  0
  -12.9360   -3.6160   -2.8660 C   0  0  0  0  0  0
  -13.2930   -3.4220   -4.2040 C   0  0  0  0  0  0
  -12.8570   -2.4720   -1.9260 C   0  0  0  0  0  0
  -13.2000   -1.3080   -2.2730 N   0  0  0  0  0  0
  -13.1210   -0.2820   -1.3880 O   0  0  0  0  0  0
  -13.4680    1.0450   -1.7900 C   0  0  0  0  0  0
  -14.9770    1.2460   -1.6660 C   0  0  0  0  0  0
  -15.3010    1.9220   -0.4470 O   0  0  0  0  0  0
  -15.1160    1.3030    0.7470 N   0  0  0  0  0  0
  -15.8180    1.5900    1.7550 C   0  0  0  0  0  0
  -15.5660    0.8790    3.0270 C   0  0  0  0  0  0
  -14.9970   -0.3370    2.9960 N   0  0  0  0  0  0
  -15.9080    1.4510    4.2490 C   0  0  0  0  0  0
  -15.6410    0.7250    5.4090 C   0  0  0  0  0  0
  -15.9250    1.1920    6.5320 O   0  0  0  0  0  0
  -15.0700   -0.4870    5.3190 N   0  0  0  0  0  0
  -14.7480   -1.0130    4.1270 C   0  0  0  0  0  0
  -14.2130   -2.1410    4.0700 O   0  0  0  0  0  0
  -13.1333   -6.6398   -5.2884 H   0  0  0  0  0  0
  -13.6441   -4.3541   -6.1185 H   0  0  0  0  0  0
  -12.3765   -5.0539   -1.3585 H   0  0  0  0  0  0
  -13.5158   -2.4185   -4.5664 H   0  0  0  0  0  0
  -12.4892   -2.6558   -0.9057 H   0  0  0  0  0  0
  -12.9505    1.7706   -1.1452 H   0  0  0  0  0  0
  -13.1651    1.2024   -2.8357 H   0  0  0  0  0  0
  -15.3373    1.8490   -2.5125 H   0  0  0  0  0  0
  -15.4791    0.2673   -1.6730 H   0  0  0  0  0  0
  -16.6020    2.3578    1.6787 H   0  0  0  0  0  0
  -15.3655    2.3997    4.3744 H   0  0  0  0  0  0
  -16.9910    1.6418    4.2742 H   0  0  0  0  0  0
  -14.8592   -1.0648    6.2310 H   0  0  0  0  0  0
  1  2  1  0  0  0
  2  3  2  0  0  0
  2  4  1  0  0  0
  4  5  2  0  0  0
  4  7  1  0  0  0
  5  6  1  0  0  0
  5 26  1  0  0  0
  6  9  2  0  0  0
  6 27  1  0  0  0
  7  8  2  0  0  0
  7 28  1  0  0  0
  8  9  1  0  0  0
  8 10  1  0  0  0
  9 29  1  0  0  0
 10 11  2  0  0  0
 10 30  1  0  0  0
 11 12  1  0  0  0
 12 13  1  0  0  0
 13 14  1  0  0  0
 13 31  1  0  0  0
 13 32  1  0  0  0
 14 15  1  0  0  0
 14 33  1  0  0  0
 14 34  1  0  0  0
 15 16  1  0  0  0
 16 17  2  0  0  0
 17 18  1  0  0  0
 17 35  1  0  0  0
 18 19  2  0  0  0
 18 20  1  0  0  0
 19 24  1  0  0  0
 20 21  1  0  0  0
 20 36  1  0  0  0
 20 37  1  0  0  0
 21 22  2  0  0  0
 21 23  1  0  0  0
 23 24  1  0  0  0
 23 38  1  0  0  0
 24 25  2  0  0  0
M  CHG  1   1  -1
M  END
> <s_m_source_file>
../3fcf_ligand.sdf

> <i_m_source_file_index>
1

> <s_epik_input>
W09IXUMoPU8pYzFbY0hdW2NIXVtjSF1jKFtjSF0xKS9bQ0hdPU4vT1tDSDJdW0NIMl1PL049W0NIXS9DMj1OQyg9TylbTkhdQyg9TylbQ0gyXTI=

> <s_epik_cmdline>
J2VwaWtfYXBwJywgJy1pbWFlJywgJ2xpZ2FuZF9wcm8ubWFlJywgJy1vbWFlJywgJ2xpZ2FuZF9wcmVwLm1hZScsICctbXMnLCAnMScsICctcGgnLCAnNycsICctcGh0JywgJzAuNScsICctbnQn

> <r_epik_Ionization_Penalty>
  0.0108

> <r_epik_Ionization_Penalty_Charging>
  0.0004

> <r_epik_Ionization_Penalty_Neutral>
  0.0105

> <r_epik_State_Penalty>
  0.0080

> <r_epik_Charging_Adjusted_Penalty>
0.00837665881548409

> <i_epik_Tot_Q>
-1

> <i_epik_Tot_abs_Q>
1

> <s_epik_Chemistry_Notes>
This compound has an imine and may undergo hydrolysis.

$$$$
