3fci_ligand
                    3D
 Schrodinger Suite 2020-3.
 42 43  0  0  1  0            999 V2000
  -12.9750   -4.8020   -5.5910 C   0  0  0  0  0  0
  -13.0810   -3.6930   -4.7500 C   0  0  0  0  0  0
  -12.8910   -3.8110   -3.3720 C   0  0  0  0  0  0
  -12.5960   -5.0200   -2.7450 C   0  0  0  0  0  0
  -12.4980   -6.1530   -3.6160 C   0  0  0  0  0  0
  -12.6850   -6.0430   -5.0170 C   0  0  0  0  0  0
  -11.6310   -7.7600   -2.0980 O   0  0  0  0  0  0
  -12.1950   -7.5490   -3.1390 C   0  0  0  0  0  0
  -12.6360   -8.5580   -4.0020 O   0  5  0  0  0  0
  -13.0600   -2.4860   -2.6670 C   0  0  0  0  0  0
  -12.5520   -1.2670   -2.5120 N   0  0  0  0  0  0
  -13.0850   -0.2560   -1.7000 O   0  0  0  0  0  0
  -13.2500    0.9440   -2.4090 C   0  0  0  0  0  0
  -12.9030    2.0730   -1.4860 C   0  0  0  0  0  0
  -14.1910    2.5380   -0.7730 C   0  0  0  0  0  0
  -14.3870    1.8700    0.5110 N   0  0  1  0  0  0
  -15.7080    1.7780    1.1730 C   0  0  0  0  0  0
  -15.5710    1.0750    2.5440 C   0  0  0  0  0  0
  -15.8920    1.6000    3.7940 N   0  0  0  0  0  0
  -15.0350   -0.2150    2.3200 C   0  0  0  0  0  0
  -14.8680   -0.8860    3.5140 C   0  0  0  0  0  0
  -14.3750   -2.0980    3.4240 O   0  0  0  0  0  0
  -15.1600   -0.4790    4.7470 N   0  0  0  0  0  0
  -15.6740    0.7900    4.8990 C   0  0  0  0  0  0
  -15.9190    1.1780    6.0550 O   0  0  0  0  0  0
  -13.1148   -4.7028   -6.6674 H   0  0  0  0  0  0
  -13.3162   -2.7179   -5.1766 H   0  0  0  0  0  0
  -12.4501   -5.0981   -1.6676 H   0  0  0  0  0  0
  -12.6025   -6.9280   -5.6479 H   0  0  0  0  0  0
  -13.9681   -2.7772   -2.1187 H   0  0  0  0  0  0
  -12.5832    0.9476   -3.2839 H   0  0  0  0  0  0
  -14.2942    1.0317   -2.7435 H   0  0  0  0  0  0
  -12.1677    1.7275   -0.7444 H   0  0  0  0  0  0
  -12.4753    2.9034   -2.0670 H   0  0  0  0  0  0
  -14.1372    3.6211   -0.5883 H   0  0  0  0  0  0
  -15.0617    2.3171   -1.4078 H   0  0  0  0  0  0
  -14.0908    0.8142    0.4240 H   0  0  0  0  0  0
  -16.1127    2.7894    1.3260 H   0  0  0  0  0  0
  -16.3963    1.1997    0.5392 H   0  0  0  0  0  0
  -15.7203   -0.7908    1.6807 H   0  0  0  0  0  0
  -14.0581   -0.1249    1.8225 H   0  0  0  0  0  0
  -14.9890   -1.1492    5.6024 H   0  0  0  0  0  0
  1  2  2  0  0  0
  1  6  1  0  0  0
  1 26  1  0  0  0
  2  3  1  0  0  0
  2 27  1  0  0  0
  3  4  2  0  0  0
  3 10  1  0  0  0
  4  5  1  0  0  0
  4 28  1  0  0  0
  5  6  2  0  0  0
  5  8  1  0  0  0
  6 29  1  0  0  0
  7  8  2  0  0  0
  8  9  1  0  0  0
 10 11  2  0  0  0
 10 30  1  0  0  0
 11 12  1  0  0  0
 12 13  1  0  0  0
 13 14  1  0  0  0
 13 31  1  0  0  0
 13 32  1  0  0  0
 14 15  1  0  0  0
 14 33  1  0  0  0
 14 34  1  0  0  0
 15 16  1  0  0  0
 15 35  1  0  0  0
 15 36  1  0  0  0
 16 17  1  0  0  0
 16 37  1  0  0  0
 17 18  1  0  0  0
 17 38  1  0  0  0
 17 39  1  0  0  0
 18 19  2  0  0  0
 18 20  1  0  0  0
 19 24  1  0  0  0
 20 21  1  0  0  0
 20 40  1  0  0  0
 20 41  1  0  0  0
 21 22  2  0  0  0
 21 23  1  0  0  0
 23 24  1  0  0  0
 23 42  1  0  0  0
 24 25  2  0  0  0
M  CHG  1   9  -1
M  END
> <s_m_source_file>
../3fci_ligand.sdf

> <i_m_source_file_index>
1

> <s_epik_input>
Tz1DKFtPSF0pYyhbY0hdMSlbY0hdW2NIXVtjSF1jMS9bQ0hdPU4vT1tDSDJdW0NIMl1bQ0gyXVtOSDIrXVtDSDJdQzI9TkMoPU8pW05IXUMoPU8pW0NIMl0y

> <s_epik_cmdline>
J2VwaWtfYXBwJywgJy1pbWFlJywgJ2xpZ2FuZF9wcm8ubWFlJywgJy1vbWFlJywgJ2xpZ2FuZF9wcmVwLm1hZScsICctbXMnLCAnMScsICctcGgnLCAnNycsICctcGh0JywgJzAuNScsICctbnQn

> <r_lp_tautomer_probability>
2.59503626005217e-08

> <r_epik_Ionization_Penalty>
  0.3458

> <r_epik_Ionization_Penalty_Charging>
  0.0004

> <r_epik_Ionization_Penalty_Neutral>
  0.3454

> <r_epik_State_Penalty>
  0.3337

> <r_epik_Charging_Adjusted_Penalty>
0.334100541410994

> <i_epik_Tot_Q>
-1

> <i_epik_Tot_abs_Q>
1

> <s_epik_Chemistry_Notes>
This compound has an imine and may undergo hydrolysis.

$$$$
