3fck_ligand
                    3D
 Schrodinger Suite 2020-3.
 43 44  0  0  1  0            999 V2000
  -18.0920   -2.4200    9.2670 C   0  0  0  0  0  0
  -17.3120   -1.7000    8.3680 C   0  0  0  0  0  0
  -17.4500   -1.8990    6.9970 C   0  0  0  0  0  0
  -18.3790   -2.8250    6.5370 C   0  0  0  0  0  0
  -19.1630   -3.5500    7.4280 C   0  0  0  0  0  0
  -19.0170   -3.3450    8.7980 C   0  0  0  0  0  0
  -16.8390    0.3650    4.0530 C   0  0  0  0  0  0
  -20.2450   -4.7070    5.7370 O   0  0  0  0  0  0
  -20.1320   -4.5210    6.9090 C   0  0  0  0  0  0
  -20.8660   -5.1690    7.8290 O   0  5  0  0  0  0
  -16.6190   -1.1330    6.0060 C   0  0  0  0  0  0
  -17.4370   -0.1610    5.2810 N   0  3  0  0  0  0
  -17.0630   -0.5600    2.8500 C   0  0  0  0  0  0
  -16.4860    0.0100    1.5520 C   0  0  0  0  0  0
  -16.7490   -0.8900    0.5000 O   0  0  0  0  0  0
  -15.8620   -0.8430   -0.7620 N   0  0  0  0  0  0
  -16.4230   -1.0440   -1.8730 C   0  0  0  0  0  0
  -15.8400   -0.5190   -3.1330 C   0  0  0  0  0  0
  -15.1420    0.6320   -3.1460 N   0  0  0  0  0  0
  -16.0230   -1.2210   -4.3230 C   0  0  0  0  0  0
  -15.4740   -0.7110   -5.4960 C   0  0  0  0  0  0
  -15.6180   -1.3140   -6.5800 O   0  0  0  0  0  0
  -14.7850    0.4380   -5.4550 N   0  0  0  0  0  0
  -14.6210    1.0980   -4.2980 C   0  0  0  0  0  0
  -13.9740    2.1640   -4.3060 O   0  0  0  0  0  0
  -17.9777   -2.2587   10.3389 H   0  0  0  0  0  0
  -16.5878   -0.9750    8.7395 H   0  0  0  0  0  0
  -18.4944   -2.9849    5.4650 H   0  0  0  0  0  0
  -19.6281   -3.9099    9.5020 H   0  0  0  0  0  0
  -17.2853    1.3424    3.8173 H   0  0  0  0  0  0
  -15.7543    0.4816    4.1941 H   0  0  0  0  0  0
  -15.8183   -0.5964    6.5361 H   0  0  0  0  0  0
  -16.1749   -1.8319    5.2819 H   0  0  0  0  0  0
  -17.6305    0.6672    5.9786 H   0  0  0  0  0  0
  -18.3839   -0.6665    5.0404 H   0  0  0  0  0  0
  -16.5780   -1.5293    3.0375 H   0  0  0  0  0  0
  -18.1421   -0.7127    2.7008 H   0  0  0  0  0  0
  -16.9567    0.9806    1.3367 H   0  0  0  0  0  0
  -15.3999    0.1455    1.6619 H   0  0  0  0  0  0
  -17.3608   -1.6170   -1.9199 H   0  0  0  0  0  0
  -15.5859   -2.2258   -4.2268 H   0  0  0  0  0  0
  -17.0987   -1.3079   -4.5358 H   0  0  0  0  0  0
  -14.3468    0.8497   -6.3761 H   0  0  0  0  0  0
  1  2  2  0  0  0
  1  6  1  0  0  0
  1 26  1  0  0  0
  2  3  1  0  0  0
  2 27  1  0  0  0
  3  4  2  0  0  0
  3 11  1  0  0  0
  4  5  1  0  0  0
  4 28  1  0  0  0
  5  6  2  0  0  0
  5  9  1  0  0  0
  6 29  1  0  0  0
  7 12  1  0  0  0
  7 13  1  0  0  0
  7 30  1  0  0  0
  7 31  1  0  0  0
  8  9  2  0  0  0
  9 10  1  0  0  0
 11 12  1  0  0  0
 11 32  1  0  0  0
 11 33  1  0  0  0
 12 34  1  0  0  0
 12 35  1  0  0  0
 13 14  1  0  0  0
 13 36  1  0  0  0
 13 37  1  0  0  0
 14 15  1  0  0  0
 14 38  1  0  0  0
 14 39  1  0  0  0
 15 16  1  0  0  0
 16 17  2  0  0  0
 17 18  1  0  0  0
 17 40  1  0  0  0
 18 19  2  0  0  0
 18 20  1  0  0  0
 19 24  1  0  0  0
 20 21  1  0  0  0
 20 41  1  0  0  0
 20 42  1  0  0  0
 21 22  2  0  0  0
 21 23  1  0  0  0
 23 24  1  0  0  0
 23 43  1  0  0  0
 24 25  2  0  0  0
M  CHG  2  10  -1  12   1
M  END
> <s_m_source_file>
../3fck_ligand.sdf

> <i_m_source_file_index>
1

> <s_epik_input>
Tz1DKFtPSF0pYyhbY0hdMSlbY0hdW2NIXVtjSF1jMVtDSDJdW05IMitdW0NIMl1bQ0gyXVtDSDJdTy9OPVtDSF0vQzI9TkMoPU8pW05IXUMoPU8pW0NIMl0y

> <s_epik_cmdline>
J2VwaWtfYXBwJywgJy1pbWFlJywgJ2xpZ2FuZF9wcm8ubWFlJywgJy1vbWFlJywgJ2xpZ2FuZF9wcmVwLm1hZScsICctbXMnLCAnMScsICctcGgnLCAnNycsICctcGh0JywgJzAuNScsICctbnQn

> <r_lp_tautomer_probability>
1

> <r_epik_Ionization_Penalty>
  0.0340

> <r_epik_Ionization_Penalty_Charging>
  0.0233

> <r_epik_Ionization_Penalty_Neutral>
  0.0108

> <r_epik_State_Penalty>
 -0.0000

> <r_epik_Charging_Adjusted_Penalty>
0.0232653364834395

> <i_epik_Tot_Q>
0

> <i_epik_Tot_abs_Q>
2

> <s_epik_Chemistry_Notes>
This compound has an imine and may undergo hydrolysis.

$$$$
