3fcl_ligand
                    3D
 Schrodinger Suite 2020-3.
 47 48  0  0  1  0            999 V2000
   35.0190    4.6120   19.0000 C   0  0  0  0  0  0
   40.9530    1.0470   14.9850 C   0  0  0  0  0  0
   41.5200    2.3120   14.8690 C   0  0  0  0  0  0
   39.3140    3.2920   14.8070 C   0  0  0  0  0  0
   39.5670    0.8960   15.0060 C   0  0  0  0  0  0
   41.8780   -0.8370   16.0430 O   0  0  0  0  0  0
   41.8590   -0.1460   15.0620 C   0  0  0  0  0  0
   42.6280   -0.3970   14.0100 O   0  5  0  0  0  0
   40.7010    3.4350   14.7830 C   0  0  0  0  0  0
   38.7480    2.0250   14.9180 C   0  0  0  0  0  0
   37.2440    1.8880   14.9510 C   0  0  0  0  0  0
   36.8120    1.6570   16.3170 N   0  3  0  0  0  0
   36.8750    2.7140   17.3040 C   0  0  0  0  0  0
   36.0250    2.3820   18.5220 C   0  0  0  0  0  0
   35.9790    3.5420   19.5040 C   0  0  0  0  0  0
   33.8040    4.6370   19.7300 N   0  0  1  0  0  0
   33.1230    5.8270   19.3690 C   0  0  0  0  0  0
   31.8710    5.4740   18.6000 C   0  0  0  0  0  0
   31.9660    4.8730   17.3990 N   0  0  0  0  0  0
   30.6260    5.7740   19.1360 C   0  0  0  0  0  0
   29.5030    5.4370   18.3910 C   0  0  0  0  0  0
   28.3620    5.6830   18.8290 O   0  0  0  0  0  0
   29.6490    4.8340   17.1970 N   0  0  0  0  0  0
   30.8640    4.5560   16.7020 C   0  0  0  0  0  0
   30.9640    3.9900   15.5920 O   0  0  0  0  0  0
   35.4909    5.6012   19.0931 H   0  0  0  0  0  0
   34.7765    4.4193   17.9445 H   0  0  0  0  0  0
   42.6040    2.4241   14.8455 H   0  0  0  0  0  0
   38.6737    4.1715   14.7389 H   0  0  0  0  0  0
   39.1249   -0.0967   15.0906 H   0  0  0  0  0  0
   41.1446    4.4269   14.6968 H   0  0  0  0  0  0
   36.7833    2.8117   14.5708 H   0  0  0  0  0  0
   36.9391    1.0398   14.3205 H   0  0  0  0  0  0
   35.7519    1.3635   16.3216 H   0  0  0  0  0  0
   37.4169    0.8532   16.7619 H   0  0  0  0  0  0
   37.9168    2.8497   17.6299 H   0  0  0  0  0  0
   36.5041    3.6507   16.8624 H   0  0  0  0  0  0
   34.9971    2.1569   18.2014 H   0  0  0  0  0  0
   36.4483    1.5071   19.0371 H   0  0  0  0  0  0
   36.9866    3.9715   19.6048 H   0  0  0  0  0  0
   35.6374    3.1746   20.4830 H   0  0  0  0  0  0
   33.2026    3.7531   19.4713 H   0  0  0  0  0  0
   32.8515    6.3842   20.2778 H   0  0  0  0  0  0
   33.7780    6.4479   18.7402 H   0  0  0  0  0  0
   30.5037    5.2495   20.0951 H   0  0  0  0  0  0
   30.5488    6.8591   19.2991 H   0  0  0  0  0  0
   28.7619    4.5595   16.6073 H   0  0  0  0  0  0
  1 15  1  0  0  0
  1 16  1  0  0  0
  1 26  1  0  0  0
  1 27  1  0  0  0
  2  3  2  0  0  0
  2  5  1  0  0  0
  2  7  1  0  0  0
  3  9  1  0  0  0
  3 28  1  0  0  0
  4  9  2  0  0  0
  4 10  1  0  0  0
  4 29  1  0  0  0
  5 10  2  0  0  0
  5 30  1  0  0  0
  6  7  2  0  0  0
  7  8  1  0  0  0
  9 31  1  0  0  0
 10 11  1  0  0  0
 11 12  1  0  0  0
 11 32  1  0  0  0
 11 33  1  0  0  0
 12 13  1  0  0  0
 12 34  1  0  0  0
 12 35  1  0  0  0
 13 14  1  0  0  0
 13 36  1  0  0  0
 13 37  1  0  0  0
 14 15  1  0  0  0
 14 38  1  0  0  0
 14 39  1  0  0  0
 15 40  1  0  0  0
 15 41  1  0  0  0
 16 17  1  0  0  0
 16 42  1  0  0  0
 17 18  1  0  0  0
 17 43  1  0  0  0
 17 44  1  0  0  0
 18 19  2  0  0  0
 18 20  1  0  0  0
 19 24  1  0  0  0
 20 21  1  0  0  0
 20 45  1  0  0  0
 20 46  1  0  0  0
 21 22  2  0  0  0
 21 23  1  0  0  0
 23 24  1  0  0  0
 23 47  1  0  0  0
 24 25  2  0  0  0
M  CHG  2   8  -1  12   1
M  END
> <s_m_source_file>
../3fcl_ligand.sdf

> <i_m_source_file_index>
1

> <s_epik_input>
W0NIMl0xQyg9TylbTkhdQyg9TylOPUMxW0NIMl1bTkgyK11bQ0gyXVtDSDJdW0NIMl1bQ0gyXVtOSDIrXVtDSDJdYyhbY0hdMilbY0hdW2NIXVtjSF1jMkMoPU8pW09IXQ==

> <s_epik_cmdline>
J2VwaWtfYXBwJywgJy1pbWFlJywgJ2xpZ2FuZF9wcm8ubWFlJywgJy1vbWFlJywgJ2xpZ2FuZF9wcmVwLm1hZScsICctbXMnLCAnMScsICctcGgnLCAnNycsICctcGh0JywgJzAuNScsICctbnQn

> <r_lp_tautomer_probability>
2.59503626005217e-08

> <r_epik_Ionization_Penalty>
  0.4051

> <r_epik_Ionization_Penalty_Charging>
  0.0139

> <r_epik_Ionization_Penalty_Neutral>
  0.3912

> <r_epik_State_Penalty>
  0.3822

> <r_epik_Charging_Adjusted_Penalty>
0.396127221232462

> <i_epik_Tot_Q>
0

> <i_epik_Tot_abs_Q>
2

> <s_epik_Chemistry_Notes>
This compound has an imine and may undergo hydrolysis.

$$$$
