3fdm_ligand
                    3D
 Schrodinger Suite 2020-3.
256260  0  0  1  0            999 V2000
    2.8380    8.2060   14.4060 N   0  3  0  0  0  0
    2.7170    9.5440   14.9850 C   0  0  1  0  0  0
    2.4620    9.2630   16.4490 C   0  0  0  0  0  0
    3.8250    9.2230   17.0480 N   0  3  0  0  0  0
    4.8380    9.6000   16.0230 C   0  0  0  0  0  0
    4.0370   10.2980   14.9470 C   0  0  2  0  0  0
    3.9090   11.7840   15.3580 C   0  0  0  0  0  0
    2.8230   12.2520   15.7620 O   0  0  0  0  0  0
    5.0220   12.5210   15.2550 N   0  0  0  0  0  0
    5.0600   13.9340   15.6690 C   0  0  2  0  0  0
    4.2290   14.8060   14.6880 C   0  0  0  0  0  0
    3.8780   15.9590   14.9780 O   0  0  0  0  0  0
    6.5190   14.4260   15.8410 C   0  0  0  0  0  0
    3.9480   14.2010   13.5350 N   0  0  0  0  0  0
    3.0650   15.1140   12.7850 C   0  0  1  0  0  0
    3.7200   15.7250   11.5270 C   0  0  0  0  0  0
    2.5410   16.1430   10.6480 C   0  0  0  0  0  0
    1.3960   15.1920   10.9600 C   0  0  0  0  0  0
    1.8290   14.4420   12.2080 C   0  0  2  0  0  0
    0.6520   14.4180   13.1480 C   0  0  0  0  0  0
    0.2390   15.4550   13.6670 O   0  0  0  0  0  0
    0.0890   13.2250   13.3410 N   0  0  0  0  0  0
   -1.1300   13.1090   14.1250 C   0  0  2  0  0  0
   -0.9620   13.7850   15.5020 C   0  0  0  0  0  0
   -1.9320   14.1910   16.0940 O   0  0  0  0  0  0
   -1.6290   11.6480   14.1840 C   0  0  0  0  0  0
   -2.1860   11.0970   12.8210 C   0  0  0  0  0  0
   -2.8830   12.1650   11.8830 C   0  0  0  0  0  0
   -4.1890   12.5930   12.4070 N   0  0  0  0  0  0
   -4.9950   13.5020   11.8460 C   0  0  0  0  0  0
   -6.1730   13.7990   12.4030 N   0  0  0  0  0  0
   -4.6510   14.0990   10.7000 N   0  0  0  0  0  0
    0.2880   13.8400   15.9820 N   0  0  0  0  0  0
    0.2420   14.4580   17.3460 C   0  0  1  0  0  0
    0.6250   13.4460   18.4360 C   0  0  0  0  0  0
    1.2700   14.2410   19.5830 C   0  0  0  0  0  0
    1.6600   15.6300   19.0500 C   0  0  0  0  0  0
    1.2440   15.6280   17.5760 C   0  0  2  0  0  0
    0.8940   17.0240   17.0200 C   0  0  0  0  0  0
    0.0100   17.6950   17.5130 O   0  0  0  0  0  0
    1.6230   17.4390   15.9820 N   0  0  0  0  0  0
    1.4870   18.7820   15.3710 C   0  0  2  0  0  0
    0.0630   18.9540   14.9100 C   0  0  0  0  0  0
   -0.5570   20.0240   15.1090 O   0  0  0  0  0  0
    2.4210   18.9220   14.1610 C   0  0  0  0  0  0
    2.2710   20.2280   13.3440 C   0  0  0  0  0  0
    2.9080   21.4200   14.1150 C   0  0  0  0  0  0
    2.9070   20.0990   11.9570 C   0  0  0  0  0  0
   -0.4060   17.9120   14.2210 N   0  0  0  0  0  0
   -1.7550   18.0960   13.6910 C   0  0  1  0  0  0
   -1.7520   17.6900   12.2090 C   0  0  0  0  0  0
   -3.0940   17.0700   11.8910 C   0  0  0  0  0  0
   -3.7710   16.7620   13.2250 C   0  0  0  0  0  0
   -2.7620   17.1280   14.3140 C   0  0  2  0  0  0
   -3.4550   17.6060   15.5850 C   0  0  0  0  0  0
   -3.9380   18.7530   15.6450 O   0  0  0  0  0  0
   -3.4950   16.7380   16.5960 N   0  0  0  0  0  0
   -4.2950   17.0130   17.7920 C   0  0  2  0  0  0
   -3.7060   18.1400   18.6240 C   0  0  0  0  0  0
   -4.4460   18.8400   19.3310 O   0  0  0  0  0  0
   -4.6030   15.7490   18.6440 C   0  0  0  0  0  0
   -3.4070   14.9750   19.2320 C   0  0  0  0  0  0
   -3.8800   14.2330   20.4740 C   0  0  0  0  0  0
   -2.9770   13.0870   20.9190 C   0  0  0  0  0  0
   -3.7630   12.1400   21.7660 N   0  3  0  0  0  0
   -3.1040   22.0900   18.7840 O   0  0  0  0  0  0
   -2.3360   21.3770   18.1450 C   0  0  0  0  0  0
   -1.3160   20.5160   18.8790 C   0  0  0  0  0  0
   -1.9940   19.3180   19.5570 C   0  0  1  0  0  0
   -2.3840   18.2770   18.5730 N   0  0  0  0  0  0
   -0.9580   18.7470   20.5350 C   0  0  0  0  0  0
   -1.5460   17.6260   21.4050 C   0  0  0  0  0  0
   -0.4860   17.0340   22.3180 C   0  0  0  0  0  0
   -2.7320   18.0930   22.2270 C   0  0  0  0  0  0
   -2.3510   21.3550   16.8130 N   0  0  0  0  0  0
   -3.1990   22.3200   16.0610 C   0  0  0  0  0  0
   -4.6560   22.3430   16.5130 C   0  0  0  0  0  0
   -5.1880   23.3940   16.8450 O   0  0  0  0  0  0
   -5.3070   21.1760   16.5560 N   0  0  0  0  0  0
   -6.7150   21.0710   16.9540 C   0  0  2  0  0  0
   -6.9680   21.5940   18.3450 C   0  0  0  0  0  0
   -7.9380   22.3600   18.5640 O   0  0  0  0  0  0
   -7.2630   19.6170   16.7870 C   0  0  0  0  0  0
   -7.4060   19.2210   15.3300 C   0  0  0  0  0  0
   -7.4520   20.1430   14.4730 O   0  0  0  0  0  0
   -7.4430   18.0110   15.0150 O   0  0  0  0  0  0
   -6.1020   21.2290   19.2860 N   0  0  0  0  0  0
   -6.2630   21.7050   20.6470 C   0  0  2  0  0  0
   -6.1780   23.2320   20.7080 C   0  0  0  0  0  0
   -6.7360   23.8470   21.6070 O   0  0  0  0  0  0
   -5.2000   21.0770   21.5930 C   0  0  0  0  0  0
   -5.4850   23.8370   19.7420 N   0  0  0  0  0  0
   -5.2930   25.2930   19.7290 C   0  0  2  0  0  0
   -6.3090   26.0580   18.9260 C   0  0  0  0  0  0
   -6.2010   27.2840   18.8110 O   0  0  0  0  0  0
   -3.9050   25.6410   19.1910 C   0  0  0  0  0  0
   -3.4000   26.9640   19.6570 C   0  0  0  0  0  0
   -3.2290   27.2110   21.0240 C   0  0  0  0  0  0
   -3.0990   27.9840   18.7390 C   0  0  0  0  0  0
   -2.7540   28.4470   21.4740 C   0  0  0  0  0  0
   -2.6180   29.2270   19.1880 C   0  0  0  0  0  0
   -2.4520   29.4490   20.5470 C   0  0  0  0  0  0
   -7.2750   25.3520   18.3550 N   0  0  0  0  0  0
   -8.3300   25.9610   17.5600 C   0  0  2  0  0  0
   -9.3800   26.7250   18.3590 C   0  0  0  0  0  0
   -9.9970   26.1540   19.2270 O   0  0  0  0  0  0
   -9.0640   24.8610   16.7830 C   0  0  0  0  0  0
  -10.0710   25.4130   15.8530 C   0  0  0  0  0  0
   -9.8290   26.4360   15.2560 O   0  0  0  0  0  0
  -11.2170   24.7510   15.7190 N   0  0  0  0  0  0
   -9.6220   27.9970   18.0320 N   0  0  0  0  0  0
  -10.5610   28.8170   18.7910 C   0  0  2  0  0  0
  -11.7930   29.1360   17.9600 C   0  0  0  0  0  0
  -11.8230   28.7690   16.7720 O   0  0  0  0  0  0
   -9.8850   30.0980   19.2510 C   0  0  0  0  0  0
   -8.8290   29.8290   20.2680 C   0  0  0  0  0  0
   -8.0740   31.0620   20.6430 C   0  0  0  0  0  0
   -6.9460   30.6860   21.4910 N   0  0  0  0  0  0
   -5.9990   31.5210   21.9120 C   0  0  0  0  0  0
   -6.0330   32.8010   21.5240 N   0  0  0  0  0  0
   -5.0090   31.0700   22.7030 N   0  0  0  0  0  0
  -12.7570   29.7430   19.0460 N   0  0  0  0  0  0
    1.8642    7.6966   14.4532 H   0  0  0  0  0  0
    3.5824    7.6273   14.9725 H   0  0  0  0  0  0
    3.1584    8.2881   13.3569 H   0  0  0  0  0  0
    1.9472   10.1054   14.4352 H   0  0  0  0  0  0
    1.8446   10.0678   16.8747 H   0  0  0  0  0  0
    1.9348    8.3031   16.5517 H   0  0  0  0  0  0
    3.8771    9.9309   17.8883 H   0  0  0  0  0  0
    4.0362    8.2064   17.4113 H   0  0  0  0  0  0
    5.5878   10.2654   16.4759 H   0  0  0  0  0  0
    5.3329    8.6930   15.6456 H   0  0  0  0  0  0
    4.4665   10.2754   13.9346 H   0  0  0  0  0  0
    5.9250   12.0427   14.8477 H   0  0  0  0  0  0
    4.5824   13.9737   16.6591 H   0  0  0  0  0  0
    7.0476   13.7667   16.5452 H   0  0  0  0  0  0
    6.5155   15.4538   16.2330 H   0  0  0  0  0  0
    7.0296   14.4068   14.8669 H   0  0  0  0  0  0
    4.2373   13.2336   13.0985 H   0  0  0  0  0  0
    2.8419   15.8335   13.5865 H   0  0  0  0  0  0
    4.3407   16.5853   11.8179 H   0  0  0  0  0  0
    4.3495   14.9678   11.0368 H   0  0  0  0  0  0
    2.2596   17.1805   10.8812 H   0  0  0  0  0  0
    2.8294   16.0705    9.5890 H   0  0  0  0  0  0
    0.4765   15.7700   11.1346 H   0  0  0  0  0  0
    1.2444   14.5096   10.1107 H   0  0  0  0  0  0
    2.1085   13.3973   12.0070 H   0  0  0  0  0  0
    0.5499   12.3266   12.9047 H   0  0  0  0  0  0
   -1.8879   13.6800   13.5685 H   0  0  0  0  0  0
   -0.8000   10.9892   14.4818 H   0  0  0  0  0  0
   -2.4432   11.5680   14.9193 H   0  0  0  0  0  0
   -1.3611   10.6642   12.2360 H   0  0  0  0  0  0
   -2.9407   10.3218   13.0198 H   0  0  0  0  0  0
   -2.2401   13.0535   11.7981 H   0  0  0  0  0  0
   -3.0403   11.7296   10.8852 H   0  0  0  0  0  0
   -4.5782   12.1555   13.3382 H   0  0  0  0  0  0
   -6.4726   13.3177   13.3456 H   0  0  0  0  0  0
   -3.6853   13.8668   10.2272 H   0  0  0  0  0  0
   -5.3337   14.8223   10.2301 H   0  0  0  0  0  0
    1.2506   13.5242   15.5535 H   0  0  0  0  0  0
   -0.8048   14.7945   17.3782 H   0  0  0  0  0  0
   -0.2781   12.9240   18.7853 H   0  0  0  0  0  0
    1.3351   12.7141   18.0236 H   0  0  0  0  0  0
    0.5503   14.3427   20.4086 H   0  0  0  0  0  0
    2.1646   13.7096   19.9398 H   0  0  0  0  0  0
    1.1252   16.4046   19.6193 H   0  0  0  0  0  0
    2.7445   15.7749   19.1631 H   0  0  0  0  0  0
    2.1137   15.4161   16.9367 H   0  0  0  0  0  0
    2.3557   16.7236   15.5803 H   0  0  0  0  0  0
    1.7431   19.5279   16.1379 H   0  0  0  0  0  0
    3.4671   18.8889   14.4995 H   0  0  0  0  0  0
    2.2368   18.0961   13.4581 H   0  0  0  0  0  0
    1.1971   20.4114   13.1923 H   0  0  0  0  0  0
    2.4443   21.5035   15.1090 H   0  0  0  0  0  0
    2.7414   22.3510   13.5533 H   0  0  0  0  0  0
    3.9886   21.2482   14.2278 H   0  0  0  0  0  0
    2.4498   19.2541   11.4211 H   0  0  0  0  0  0
    3.9877   19.9237   12.0640 H   0  0  0  0  0  0
    2.7404   21.0265   11.3896 H   0  0  0  0  0  0
    0.1336   16.9712   14.0372 H   0  0  0  0  0  0
   -1.9879   19.1479   13.9131 H   0  0  0  0  0  0
   -1.5880   18.5810   11.5851 H   0  0  0  0  0  0
   -0.9460   16.9633   12.0295 H   0  0  0  0  0  0
   -3.6959   17.7796   11.3043 H   0  0  0  0  0  0
   -2.9436   16.1484   11.3095 H   0  0  0  0  0  0
   -4.6876   17.3630   13.3184 H   0  0  0  0  0  0
   -4.0274   15.6932   13.2679 H   0  0  0  0  0  0
   -2.1990   16.2531   14.6712 H   0  0  0  0  0  0
   -2.9168   15.8050   16.5236 H   0  0  0  0  0  0
   -5.2421   17.3740   17.3645 H   0  0  0  0  0  0
   -5.2189   16.0320   19.5104 H   0  0  0  0  0  0
   -5.1481   15.0169   18.0301 H   0  0  0  0  0  0
   -3.0309   14.2594   18.4861 H   0  0  0  0  0  0
   -2.6073   15.6822   19.4974 H   0  0  0  0  0  0
   -3.9409   14.9344   21.3192 H   0  0  0  0  0  0
   -4.8729   13.7987   20.2858 H   0  0  0  0  0  0
   -2.5929   12.5581   20.0343 H   0  0  0  0  0  0
   -2.1342   13.4888   21.5006 H   0  0  0  0  0  0
   -3.1146   11.3121   22.0887 H   0  0  0  0  0  0
   -4.6059   11.7400   21.1833 H   0  0  0  0  0  0
   -4.1472   12.6707   22.6496 H   0  0  0  0  0  0
   -0.5702   20.1405   18.1630 H   0  0  0  0  0  0
   -0.8134   21.1193   19.6493 H   0  0  0  0  0  0
   -2.9356   19.6124   20.0435 H   0  0  0  0  0  0
   -1.6143   17.7783   17.9657 H   0  0  0  0  0  0
   -0.1090   18.3344   19.9702 H   0  0  0  0  0  0
   -0.6016   19.5473   21.2002 H   0  0  0  0  0  0
   -1.9096   16.8422   20.7243 H   0  0  0  0  0  0
    0.3706   16.6976   21.7154 H   0  0  0  0  0  0
   -0.9090   16.1779   22.8640 H   0  0  0  0  0  0
   -0.1521   17.7978   23.0357 H   0  0  0  0  0  0
   -3.4951   18.5202   21.5598 H   0  0  0  0  0  0
   -2.4021   18.8587   22.9445 H   0  0  0  0  0  0
   -3.1589   17.2387   22.7728 H   0  0  0  0  0  0
   -1.7361   20.6230   16.2689 H   0  0  0  0  0  0
   -2.8009   23.3371   16.1915 H   0  0  0  0  0  0
   -3.1931   22.0583   14.9926 H   0  0  0  0  0  0
   -4.7452   20.2721   16.2779 H   0  0  0  0  0  0
   -7.2222   21.7612   16.2638 H   0  0  0  0  0  0
   -6.5728   18.9077   17.2671 H   0  0  0  0  0  0
   -8.2534   19.5419   17.2597 H   0  0  0  0  0  0
   -7.5553   19.8973   13.4058 H   0  0  0  0  0  0
   -5.2627   20.5652   19.0312 H   0  0  0  0  0  0
   -7.2767   21.3774   20.9211 H   0  0  0  0  0  0
   -5.2675   19.9802   21.5435 H   0  0  0  0  0  0
   -5.3854   21.4096   22.6250 H   0  0  0  0  0  0
   -4.1954   21.3971   21.2795 H   0  0  0  0  0  0
   -5.0525   23.2180   18.9421 H   0  0  0  0  0  0
   -5.4361   25.5657   20.7850 H   0  0  0  0  0  0
   -3.1828   24.8791   19.5195 H   0  0  0  0  0  0
   -3.9342   25.6688   18.0917 H   0  0  0  0  0  0
   -3.4689   26.4308   21.7464 H   0  0  0  0  0  0
   -3.2391   27.8109   17.6720 H   0  0  0  0  0  0
   -2.6201   28.6279   22.5405 H   0  0  0  0  0  0
   -2.3768   30.0121   18.4714 H   0  0  0  0  0  0
   -2.0827   30.4135   20.8955 H   0  0  0  0  0  0
   -7.2570   24.2621   18.5026 H   0  0  0  0  0  0
   -7.7756   26.6797   16.9386 H   0  0  0  0  0  0
   -8.3378   24.2802   16.1954 H   0  0  0  0  0  0
   -9.5801   24.1948   17.4899 H   0  0  0  0  0  0
  -11.3862   23.8239   16.2864 H   0  0  0  0  0  0
  -11.9954   25.1307   15.0408 H   0  0  0  0  0  0
   -9.0934   28.4240   17.1670 H   0  0  0  0  0  0
  -10.8566   28.2151   19.6630 H   0  0  0  0  0  0
   -9.4168   30.5955   18.3888 H   0  0  0  0  0  0
  -10.6342   30.7677   19.6984 H   0  0  0  0  0  0
   -9.2926   29.4237   21.1795 H   0  0  0  0  0  0
   -8.1105   29.0992   19.8664 H   0  0  0  0  0  0
   -7.7059   31.5577   19.7326 H   0  0  0  0  0  0
   -8.7386   31.7468   21.1901 H   0  0  0  0  0  0
   -6.8347   29.6450   21.8285 H   0  0  0  0  0  0
   -6.8478   33.1581   20.8770 H   0  0  0  0  0  0
   -4.9918   30.0154   23.0154 H   0  0  0  0  0  0
   -4.2166   31.7557   23.0374 H   0  0  0  0  0  0
  -12.3803   29.9591   20.0567 H   0  0  0  0  0  0
  -13.8074   29.9512   18.7943 H   0  0  0  0  0  0
  1  2  1  0  0  0
  1123  1  0  0  0
  1124  1  0  0  0
  1125  1  0  0  0
  2  3  1  0  0  0
  2  6  1  0  0  0
  2126  1  0  0  0
  3  4  1  0  0  0
  3127  1  0  0  0
  3128  1  0  0  0
  4  5  1  0  0  0
  4129  1  0  0  0
  4130  1  0  0  0
  5  6  1  0  0  0
  5131  1  0  0  0
  5132  1  0  0  0
  6  7  1  0  0  0
  6133  1  0  0  0
  7  8  2  0  0  0
  7  9  1  0  0  0
  9 10  1  0  0  0
  9134  1  0  0  0
 10 11  1  0  0  0
 10 13  1  0  0  0
 10135  1  0  0  0
 11 12  2  0  0  0
 11 14  1  0  0  0
 13136  1  0  0  0
 13137  1  0  0  0
 13138  1  0  0  0
 14 15  1  0  0  0
 14139  1  0  0  0
 15 16  1  0  0  0
 15 19  1  0  0  0
 15140  1  0  0  0
 16 17  1  0  0  0
 16141  1  0  0  0
 16142  1  0  0  0
 17 18  1  0  0  0
 17143  1  0  0  0
 17144  1  0  0  0
 18 19  1  0  0  0
 18145  1  0  0  0
 18146  1  0  0  0
 19 20  1  0  0  0
 19147  1  0  0  0
 20 21  2  0  0  0
 20 22  1  0  0  0
 22 23  1  0  0  0
 22148  1  0  0  0
 23 24  1  0  0  0
 23 26  1  0  0  0
 23149  1  0  0  0
 24 25  2  0  0  0
 24 33  1  0  0  0
 26 27  1  0  0  0
 26150  1  0  0  0
 26151  1  0  0  0
 27 28  1  0  0  0
 27152  1  0  0  0
 27153  1  0  0  0
 28 29  1  0  0  0
 28154  1  0  0  0
 28155  1  0  0  0
 29 30  1  0  0  0
 29156  1  0  0  0
 30 31  2  0  0  0
 30 32  1  0  0  0
 31157  1  0  0  0
 32158  1  0  0  0
 32159  1  0  0  0
 33 34  1  0  0  0
 33160  1  0  0  0
 34 35  1  0  0  0
 34 38  1  0  0  0
 34161  1  0  0  0
 35 36  1  0  0  0
 35162  1  0  0  0
 35163  1  0  0  0
 36 37  1  0  0  0
 36164  1  0  0  0
 36165  1  0  0  0
 37 38  1  0  0  0
 37166  1  0  0  0
 37167  1  0  0  0
 38 39  1  0  0  0
 38168  1  0  0  0
 39 40  2  0  0  0
 39 41  1  0  0  0
 41 42  1  0  0  0
 41169  1  0  0  0
 42 43  1  0  0  0
 42 45  1  0  0  0
 42170  1  0  0  0
 43 44  2  0  0  0
 43 49  1  0  0  0
 45 46  1  0  0  0
 45171  1  0  0  0
 45172  1  0  0  0
 46 47  1  0  0  0
 46 48  1  0  0  0
 46173  1  0  0  0
 47174  1  0  0  0
 47175  1  0  0  0
 47176  1  0  0  0
 48177  1  0  0  0
 48178  1  0  0  0
 48179  1  0  0  0
 49 50  1  0  0  0
 49180  1  0  0  0
 50 51  1  0  0  0
 50 54  1  0  0  0
 50181  1  0  0  0
 51 52  1  0  0  0
 51182  1  0  0  0
 51183  1  0  0  0
 52 53  1  0  0  0
 52184  1  0  0  0
 52185  1  0  0  0
 53 54  1  0  0  0
 53186  1  0  0  0
 53187  1  0  0  0
 54 55  1  0  0  0
 54188  1  0  0  0
 55 56  2  0  0  0
 55 57  1  0  0  0
 57 58  1  0  0  0
 57189  1  0  0  0
 58 59  1  0  0  0
 58 61  1  0  0  0
 58190  1  0  0  0
 59 60  2  0  0  0
 59 70  1  0  0  0
 61 62  1  0  0  0
 61191  1  0  0  0
 61192  1  0  0  0
 62 63  1  0  0  0
 62193  1  0  0  0
 62194  1  0  0  0
 63 64  1  0  0  0
 63195  1  0  0  0
 63196  1  0  0  0
 64 65  1  0  0  0
 64197  1  0  0  0
 64198  1  0  0  0
 65199  1  0  0  0
 65200  1  0  0  0
 65201  1  0  0  0
 66 67  2  0  0  0
 67 68  1  0  0  0
 67 75  1  0  0  0
 68 69  1  0  0  0
 68202  1  0  0  0
 68203  1  0  0  0
 69 70  1  0  0  0
 69 71  1  0  0  0
 69204  1  0  0  0
 70205  1  0  0  0
 71 72  1  0  0  0
 71206  1  0  0  0
 71207  1  0  0  0
 72 73  1  0  0  0
 72 74  1  0  0  0
 72208  1  0  0  0
 73209  1  0  0  0
 73210  1  0  0  0
 73211  1  0  0  0
 74212  1  0  0  0
 74213  1  0  0  0
 74214  1  0  0  0
 75 76  1  0  0  0
 75215  1  0  0  0
 76 77  1  0  0  0
 76216  1  0  0  0
 76217  1  0  0  0
 77 78  2  0  0  0
 77 79  1  0  0  0
 79 80  1  0  0  0
 79218  1  0  0  0
 80 81  1  0  0  0
 80 83  1  0  0  0
 80219  1  0  0  0
 81 82  2  0  0  0
 81 87  1  0  0  0
 83 84  1  0  0  0
 83220  1  0  0  0
 83221  1  0  0  0
 84 85  1  0  0  0
 84 86  2  0  0  0
 85222  1  0  0  0
 87 88  1  0  0  0
 87223  1  0  0  0
 88 89  1  0  0  0
 88 91  1  0  0  0
 88224  1  0  0  0
 89 90  2  0  0  0
 89 92  1  0  0  0
 91225  1  0  0  0
 91226  1  0  0  0
 91227  1  0  0  0
 92 93  1  0  0  0
 92228  1  0  0  0
 93 94  1  0  0  0
 93 96  1  0  0  0
 93229  1  0  0  0
 94 95  2  0  0  0
 94103  1  0  0  0
 96 97  1  0  0  0
 96230  1  0  0  0
 96231  1  0  0  0
 97 98  2  0  0  0
 97 99  1  0  0  0
 98100  1  0  0  0
 98232  1  0  0  0
 99101  2  0  0  0
 99233  1  0  0  0
100102  2  0  0  0
100234  1  0  0  0
101102  1  0  0  0
101235  1  0  0  0
102236  1  0  0  0
103104  1  0  0  0
103237  1  0  0  0
104105  1  0  0  0
104107  1  0  0  0
104238  1  0  0  0
105106  2  0  0  0
105111  1  0  0  0
107108  1  0  0  0
107239  1  0  0  0
107240  1  0  0  0
108109  2  0  0  0
108110  1  0  0  0
110241  1  0  0  0
110242  1  0  0  0
111112  1  0  0  0
111243  1  0  0  0
112113  1  0  0  0
112115  1  0  0  0
112244  1  0  0  0
113114  2  0  0  0
113122  1  0  0  0
115116  1  0  0  0
115245  1  0  0  0
115246  1  0  0  0
116117  1  0  0  0
116247  1  0  0  0
116248  1  0  0  0
117118  1  0  0  0
117249  1  0  0  0
117250  1  0  0  0
118119  1  0  0  0
118251  1  0  0  0
119120  2  0  0  0
119121  1  0  0  0
120252  1  0  0  0
121253  1  0  0  0
121254  1  0  0  0
122255  1  0  0  0
122256  1  0  0  0
M  CHG  3   1   1   4   1  65   1
M  END
> <s_m_source_file>
../3fdm_ligand.sdf

> <i_m_source_file_index>
1

> <s_epik_input>
W05IMytdW0NASF0xW0NIMl1bTkgyK11bQ0gyXVtDQEBIXTFDKD1PKVtOSF1bQ0BASF0oW0NIM10pQyg9TylbTkhdW0NASF0yW0NIMl1bQ0gyXVtDSDJdW0NAQEhdMkMoPU8pW05IXVtDQEBIXShbQ0gyXVtDSDJdW0NIMl1bTkhdL0MoPU5cW0hdKVtOSDJdKUMoPU8pW05IXVtDQEhdM1tDSDJdW0NIMl1bQ0gyXVtDQEBIXTNDKD1PKVtOSF1bQ0BASF0oW0NIMl1bQ0hdKFtDSDNdKVtDSDNdKUMoPU8pW05IXVtDQEhdNFtDSDJdW0NIMl1bQ0gyXVtDQEBIXTRDKD1PKVtOSF1bQ0BASF0oW0NIMl1bQ0gyXVtDSDJdW0NIMl1bTkgzK10pQyg9TylbTkhdW0NAQEhdKFtDSDJdW0NIXShbQ0gzXSlbQ0gzXSlbQ0gyXUMoPU8pW05IXVtDSDJdQyg9TylbTkhdW0NAQEhdKFtDSDJdQyg9TylbT0hdKUMoPU8pW05IXVtDQEBIXShbQ0gzXSlDKD1PKVtOSF1bQ0BASF0oW0NIMl1jNVtjSF1bY0hdW2NIXVtjSF1bY0hdNSlDKD1PKVtOSF1bQ0BASF0oW0NIMl1DKD1PKVtOSDJdKUMoPU8pW05IXVtDQEhdKEMoPU8pW05IMl0pW0NIMl1bQ0gyXVtDSDJdW05IXS9DKD1OXFtIXSlbTkgyXQ==

> <s_epik_cmdline>
J2VwaWtfYXBwJywgJy1pbWFlJywgJ2xpZ2FuZF9wcm8ubWFlJywgJy1vbWFlJywgJ2xpZ2FuZF9wcmVwLm1hZScsICctbXMnLCAnMScsICctcGgnLCAnNycsICctcGh0JywgJzAuNScsICctbnQn

> <s_epik_pKa_notes>
Molecule size exceeds maximum supported for generating protonation states

> <s_epik_Chemistry_Notes>
This compound has an imine and may undergo hydrolysis.

$$$$
