3fdn_ligand
                    3D
 Schrodinger Suite 2020-3.
 53 55  0  0  1  0            999 V2000
   -4.5100  -33.6370   -0.7240 C   0  0  0  0  0  0
   -4.7860  -33.0070    0.6470 C   0  0  0  0  0  0
   -4.7230  -33.7300    1.6420 O   0  0  0  0  0  0
   -5.0940  -31.6900    0.6170 N   0  0  0  0  0  0
   -5.3540  -30.8530    1.6630 C   0  0  0  0  0  0
   -4.8580  -31.0820    2.9500 C   0  0  0  0  0  0
   -6.0930  -29.6840    1.4500 C   0  0  0  0  0  0
   -6.3510  -28.7720    2.4800 C   0  0  0  0  0  0
   -5.8580  -29.0260    3.7790 C   0  0  0  0  0  0
   -5.0880  -30.1800    4.0090 C   0  0  0  0  0  0
   -4.6180  -30.5220    5.2280 N   0  0  0  0  0  0
   -5.0020  -29.9860    6.3960 C   0  0  0  0  0  0
   -5.8310  -29.0880    6.4800 O   0  0  0  0  0  0
   -4.4120  -30.6090    7.6810 C   0  0  0  0  0  0
   -4.5950  -30.1460    8.9740 C   0  0  0  0  0  0
   -5.3410  -28.8490    9.4530 C   0  0  0  0  0  0
   -3.9820  -30.9970    9.8110 N   0  3  0  0  0  0
   -3.4750  -31.9400    9.1770 N   0  0  0  0  0  0
   -3.6980  -31.8060    7.8630 C   0  0  0  0  0  0
   -3.2160  -32.7330    7.0010 N   0  3  0  0  0  0
   -2.8380  -32.5500    5.8370 N   0  0  0  0  0  0
   -2.3380  -33.6020    5.1970 C   0  0  0  0  0  0
   -1.9110  -33.6160    3.8660 C   0  0  0  0  0  0
   -1.9350  -32.4760    3.0520 C   0  0  0  0  0  0
   -1.5170  -32.5520    1.7150 C   0  0  0  0  0  0
   -1.0940  -33.7800    1.1910 C   0  0  0  0  0  0
   -0.6940  -33.8470   -0.1130 O   0  0  0  0  0  0
   -0.1990  -35.1680   -0.4890 C   0  0  0  0  0  0
   -1.0800  -34.9170    1.9930 C   0  0  0  0  0  0
   -1.4900  -34.8360    3.3230 C   0  0  0  0  0  0
   -4.2703  -34.7029   -0.5961 H   0  0  0  0  0  0
   -3.6603  -33.1245   -1.1986 H   0  0  0  0  0  0
   -5.4015  -33.5354   -1.3604 H   0  0  0  0  0  0
   -5.1600  -31.1624   -0.3460 H   0  0  0  0  0  0
   -4.2766  -31.9841    3.1402 H   0  0  0  0  0  0
   -6.4794  -29.4774    0.4519 H   0  0  0  0  0  0
   -6.9296  -27.8700    2.2806 H   0  0  0  0  0  0
   -6.0721  -28.3350    4.5944 H   0  0  0  0  0  0
   -3.8510  -31.3049    5.3220 H   0  0  0  0  0  0
   -5.7580  -28.3229    8.5816 H   0  0  0  0  0  0
   -4.6317  -28.1896    9.9746 H   0  0  0  0  0  0
   -6.1556  -29.1265   10.1381 H   0  0  0  0  0  0
   -1.4287  -33.9461    5.7116 H   0  0  0  0  0  0
   -3.0819  -34.4122    5.1861 H   0  0  0  0  0  0
   -2.2800  -31.5257    3.4594 H   0  0  0  0  0  0
   -1.5214  -31.6606    1.0877 H   0  0  0  0  0  0
    0.1064  -35.1580   -1.5457 H   0  0  0  0  0  0
   -0.9955  -35.9128   -0.3445 H   0  0  0  0  0  0
    0.6650  -35.4285    0.1400 H   0  0  0  0  0  0
   -0.7487  -35.8705    1.5816 H   0  0  0  0  0  0
   -1.4828  -35.7305    3.9458 H   0  0  0  0  0  0
   -3.8863  -30.9560   10.9061 H   0  0  0  0  0  0
   -3.1796  -33.7414    7.4390 H   0  0  0  0  0  0
  1  2  1  0  0  0
  1 31  1  0  0  0
  1 32  1  0  0  0
  1 33  1  0  0  0
  2  3  2  0  0  0
  2  4  1  0  0  0
  4  5  1  0  0  0
  4 34  1  0  0  0
  5  6  2  0  0  0
  5  7  1  0  0  0
  6 10  1  0  0  0
  6 35  1  0  0  0
  7  8  2  0  0  0
  7 36  1  0  0  0
  8  9  1  0  0  0
  8 37  1  0  0  0
  9 10  2  0  0  0
  9 38  1  0  0  0
 10 11  1  0  0  0
 11 12  1  0  0  0
 11 39  1  0  0  0
 12 13  2  0  0  0
 12 14  1  0  0  0
 14 15  2  0  0  0
 14 19  1  0  0  0
 15 16  1  0  0  0
 15 17  1  0  0  0
 16 40  1  0  0  0
 16 41  1  0  0  0
 16 42  1  0  0  0
 17 18  1  0  0  0
 17 52  1  0  0  0
 18 19  2  0  0  0
 19 20  1  0  0  0
 20 21  2  0  0  0
 20 53  1  0  0  0
 21 22  1  0  0  0
 22 23  1  0  0  0
 22 43  1  0  0  0
 22 44  1  0  0  0
 23 24  2  0  0  0
 23 30  1  0  0  0
 24 25  1  0  0  0
 24 45  1  0  0  0
 25 26  2  0  0  0
 25 46  1  0  0  0
 26 27  1  0  0  0
 26 29  1  0  0  0
 27 28  1  0  0  0
 28 47  1  0  0  0
 28 48  1  0  0  0
 28 49  1  0  0  0
 29 30  2  0  0  0
 29 50  1  0  0  0
 30 51  1  0  0  0
M  CHG  2  17   1  20   1
M  END
> <s_m_source_file>
../3fdn_ligand.sdf

> <i_m_source_file_index>
1

> <s_epik_input>
W0NIM11DKD1PKVtOSF1jMVtjSF1jKFtjSF1bY0hdW2NIXTEpW05IXUMoPU8pYzJjKFtDSDNdKVtuSF1uYzIvTj1OL1tDSDJdYzNbY0hdW2NIXWMoT1tDSDNdKVtjSF1bY0hdMw==

> <s_epik_cmdline>
J2VwaWtfYXBwJywgJy1pbWFlJywgJ2xpZ2FuZF9wcm8ubWFlJywgJy1vbWFlJywgJ2xpZ2FuZF9wcmVwLm1hZScsICctbXMnLCAnMScsICctcGgnLCAnNycsICctcGh0JywgJzAuNScsICctbnQn

> <r_lp_tautomer_probability>
1

> <r_epik_Ionization_Penalty>
  0.0003

> <r_epik_Ionization_Penalty_Charging>
  0.0002

> <r_epik_Ionization_Penalty_Neutral>
  0.0000

> <r_epik_State_Penalty>
 -0.0000

> <r_epik_Charging_Adjusted_Penalty>
0.000248014878574869

> <i_epik_Tot_Q>
2

> <i_epik_Tot_abs_Q>
2

> <s_epik_Chemistry_Notes>
This compound has an imine and may undergo hydrolysis.

$$$$
