3fdt_ligand
                    3D
 Schrodinger Suite 2020-3.
154153  0  0  1  0            999 V2000
   16.9420   21.6500   28.5430 N   0  3  0  0  0  0
   16.4960   20.2470   28.3100 C   0  0  2  0  0  0
   15.0280   20.1460   27.9580 C   0  0  0  0  0  0
   14.5720   19.0850   27.5500 O   0  0  0  0  0  0
   16.8360   19.3680   29.4570 C   0  0  0  0  0  0
   14.2990   21.2370   28.1410 N   0  0  0  0  0  0
   12.9380   21.3550   27.6170 C   0  0  2  0  0  0
   12.9810   21.2260   26.0660 C   0  0  0  0  0  0
   13.9060   21.7360   25.4460 O   0  0  0  0  0  0
   12.4530   22.7300   28.0340 C   0  0  0  0  0  0
   11.2810   23.3240   27.3090 C   0  0  0  0  0  0
   10.8920   24.6890   27.9740 C   0  0  0  0  0  0
   11.9870   25.6390   27.9990 N   0  0  0  0  0  0
   12.4650   26.3120   29.0430 C   0  0  0  0  0  0
   11.9840   26.1810   30.2480 N   0  0  0  0  0  0
   13.4770   27.1410   28.8580 N   0  0  0  0  0  0
   12.0050   20.5730   25.4390 N   0  0  0  0  0  0
   12.0590   20.3500   23.9860 C   0  0  2  0  0  0
   11.4410   21.5500   23.2880 C   0  0  0  0  0  0
   10.6970   22.2890   23.8950 O   0  0  0  0  0  0
   11.2300   19.1530   23.5950 C   0  0  2  0  0  0
    9.9150   19.3430   24.1190 O   0  0  0  0  0  0
   11.7950   17.8560   24.1970 C   0  0  0  0  0  0
   11.7510   21.7420   22.0090 N   0  0  0  0  0  0
   11.0750   22.7190   21.1630 C   0  0  2  0  0  0
   10.7750   22.0520   19.8170 C   0  0  0  0  0  0
   11.4950   21.1360   19.3770 O   0  0  0  0  0  0
   11.9440   23.9620   20.9580 C   0  0  0  0  0  0
    9.6920   22.4700   19.1750 N   0  0  0  0  0  0
    9.3370   21.9270   17.8640 C   0  0  2  0  0  0
   10.1030   22.7880   16.8410 C   0  0  0  0  0  0
    9.8020   23.9630   16.7220 O   0  0  0  0  0  0
    7.8280   22.0040   17.6450 C   0  0  0  0  0  0
    7.0050   21.2550   18.6870 C   0  0  0  0  0  0
    7.2380   19.7600   18.6300 C   0  0  0  0  0  0
    7.7540   19.1330   19.5890 O   0  0  0  0  0  0
    6.8930   19.1700   17.5000 N   0  0  0  0  0  0
   11.0950   22.2150   16.1300 N   0  0  0  0  0  0
   11.8830   23.0100   15.1660 C   0  0  2  0  0  0
   12.0280   22.3340   13.8000 C   0  0  0  0  0  0
   11.7170   21.1630   13.6260 O   0  0  0  0  0  0
   13.3200   23.2880   15.6760 C   0  0  2  0  0  0
   13.9490   22.0300   15.8820 O   0  0  0  0  0  0
   13.3040   24.0390   17.0100 C   0  0  0  0  0  0
   12.5470   23.0880   12.8400 N   0  0  0  0  0  0
   12.8880   22.5270   11.5280 C   0  0  2  0  0  0
   13.9810   23.3910   10.9140 C   0  0  0  0  0  0
   14.0520   24.5730   11.2210 O   0  0  0  0  0  0
   11.6480   22.5440   10.6210 C   0  0  0  0  0  0
   14.8120   22.8070   10.0470 N   0  0  0  0  0  0
   15.7640   23.5750    9.2210 C   0  0  2  0  0  0
   15.0300   24.0750    7.9920 C   0  0  0  0  0  0
   14.2640   23.3370    7.3770 O   0  0  0  0  0  0
   16.9140   22.6850    8.7290 C   0  0  0  0  0  0
   15.2550   25.3170    7.6240 N   0  0  0  0  0  0
   14.6160   25.8670    6.4700 C   0  0  1  0  0  0
   14.4520   27.2760    6.9230 C   0  0  0  0  0  0
   13.6320   28.1760    6.0540 C   0  0  0  0  0  0
   12.9260   28.9900    7.1370 C   0  0  0  0  0  0
   12.6540   30.3440    6.5550 C   0  0  0  0  0  0
   12.1120   31.3360    7.4850 N   0  3  0  0  0  0
   15.5750   25.8040    5.3100 C   0  0  0  0  0  0
   16.6950   26.2300    5.4520 O   0  0  0  0  0  0
   10.9810   31.9300    6.7860 C   0  0  0  0  0  0
   13.1400   32.3360    7.7100 C   0  0  0  0  0  0
   11.6650   30.8600    8.7850 C   0  0  0  0  0  0
   15.1540   25.2710    4.1700 N   0  0  0  0  0  0
   16.0680   24.9990    3.0400 C   0  0  2  0  0  0
   16.8120   26.2530    2.5480 C   0  0  0  0  0  0
   16.2070   27.3460    2.4840 O   0  0  0  0  0  0
   15.2820   24.4060    1.8720 C   0  0  0  0  0  0
   14.9250   23.0610    2.1250 O   0  0  0  0  0  0
   18.0240   26.1792    2.2115 O   0  0  0  0  0  0
   16.6734   22.2691   27.6744 H   0  0  0  0  0  0
   18.0328   21.6694   28.6839 H   0  0  0  0  0  0
   16.4489   22.0468   29.4427 H   0  0  0  0  0  0
   17.0712   19.8902   27.4429 H   0  0  0  0  0  0
   17.9073   19.4640   29.6876 H   0  0  0  0  0  0
   16.6088   18.3233   29.1983 H   0  0  0  0  0  0
   16.2439   19.6654   30.3350 H   0  0  0  0  0  0
   14.7451   22.0691   28.7056 H   0  0  0  0  0  0
   12.2972   20.5685   28.0423 H   0  0  0  0  0  0
   12.1480   22.7064   29.0906 H   0  0  0  0  0  0
   13.2649   23.4605   27.9030 H   0  0  0  0  0  0
   11.5487   23.4926   26.2555 H   0  0  0  0  0  0
   10.4270   22.6328   27.3642 H   0  0  0  0  0  0
   10.0645   25.1476   27.4128 H   0  0  0  0  0  0
   10.5775   24.5140   29.0135 H   0  0  0  0  0  0
   12.5308   25.8760   27.0726 H   0  0  0  0  0  0
   11.1416   25.4982   30.4327 H   0  0  0  0  0  0
   13.9038   27.2722   27.8527 H   0  0  0  0  0  0
   13.8928   27.6999   29.7093 H   0  0  0  0  0  0
   11.1504   20.1983   26.0216 H   0  0  0  0  0  0
   13.1168   20.1907   23.7295 H   0  0  0  0  0  0
   11.1729   19.0879   22.4984 H   0  0  0  0  0  0
    9.3236   20.2197   23.8162 H   0  0  0  0  0  0
   12.8101   17.6839   23.8098 H   0  0  0  0  0  0
   11.1483   17.0107   23.9191 H   0  0  0  0  0  0
   11.8308   17.9456   25.2928 H   0  0  0  0  0  0
   12.5592   21.1214   21.5947 H   0  0  0  0  0  0
   10.1533   23.0159   21.6849 H   0  0  0  0  0  0
   12.1508   24.4295   21.9320 H   0  0  0  0  0  0
   11.4136   24.6779   20.3129 H   0  0  0  0  0  0
   12.8922   23.6720   20.4818 H   0  0  0  0  0  0
    9.0571   23.2368   19.6430 H   0  0  0  0  0  0
    9.6155   20.8640   17.8145 H   0  0  0  0  0  0
    7.5063   23.0555   17.6753 H   0  0  0  0  0  0
    7.5772   21.5720   16.6650 H   0  0  0  0  0  0
    7.2794   21.6063   19.6926 H   0  0  0  0  0  0
    5.9351   21.4417   18.5127 H   0  0  0  0  0  0
    6.4441   19.7591   16.6867 H   0  0  0  0  0  0
    7.0546   18.0895   17.3721 H   0  0  0  0  0  0
   11.3157   21.1468   16.2723 H   0  0  0  0  0  0
   11.2753   23.9231   15.0833 H   0  0  0  0  0  0
   13.9105   23.8506   14.9379 H   0  0  0  0  0  0
   14.0642   21.3286   15.0425 H   0  0  0  0  0  0
   12.8206   25.0177   16.8740 H   0  0  0  0  0  0
   14.3363   24.1854   17.3607 H   0  0  0  0  0  0
   12.7436   23.4534   17.7537 H   0  0  0  0  0  0
   12.7207   24.1549   13.0440 H   0  0  0  0  0  0
   13.2373   21.4947   11.6776 H   0  0  0  0  0  0
   10.8595   21.9194   11.0661 H   0  0  0  0  0  0
   11.9134   22.1482    9.6296 H   0  0  0  0  0  0
   11.2833   23.5766   10.5179 H   0  0  0  0  0  0
   14.7687   21.7112    9.9611 H   0  0  0  0  0  0
   16.1423   24.3923    9.8527 H   0  0  0  0  0  0
   17.4749   22.2996    9.5932 H   0  0  0  0  0  0
   17.5864   23.2752    8.0890 H   0  0  0  0  0  0
   16.5047   21.8425    8.1522 H   0  0  0  0  0  0
   15.9454   25.9346    8.2172 H   0  0  0  0  0  0
   13.6881   25.3519    6.1808 H   0  0  0  0  0  0
   13.9633   27.2898    7.9084 H   0  0  0  0  0  0
   15.4396   27.7547    6.9968 H   0  0  0  0  0  0
   14.2971   28.7659    5.4062 H   0  0  0  0  0  0
   12.9572   27.5698    5.4317 H   0  0  0  0  0  0
   11.9871   28.4904    7.4176 H   0  0  0  0  0  0
   13.5775   29.0687    8.0198 H   0  0  0  0  0  0
   13.5893   30.7685    6.1613 H   0  0  0  0  0  0
   11.9212   30.2522    5.7398 H   0  0  0  0  0  0
   11.3087   32.2934    5.8008 H   0  0  0  0  0  0
   10.5870   32.7715    7.3748 H   0  0  0  0  0  0
   10.1931   31.1738    6.6544 H   0  0  0  0  0  0
   13.4994   32.7165    6.7425 H   0  0  0  0  0  0
   13.9780   31.8830    8.2601 H   0  0  0  0  0  0
   12.7215   33.1662    8.2979 H   0  0  0  0  0  0
   10.8832   30.0985    8.6476 H   0  0  0  0  0  0
   11.2587   31.7024    9.3640 H   0  0  0  0  0  0
   12.5152   30.4192    9.3262 H   0  0  0  0  0  0
   14.0842   25.0303    4.0823 H   0  0  0  0  0  0
   16.7997   24.2849    3.4457 H   0  0  0  0  0  0
   14.3626   24.9891    1.7151 H   0  0  0  0  0  0
   15.8976   24.4398    0.9610 H   0  0  0  0  0  0
   14.3538   22.4933    1.3757 H   0  0  0  0  0  0
   18.5530   27.0774    1.8602 H   0  0  0  0  0  0
  1  2  1  0  0  0
  1 74  1  0  0  0
  1 75  1  0  0  0
  1 76  1  0  0  0
  2  3  1  0  0  0
  2  5  1  0  0  0
  2 77  1  0  0  0
  3  4  2  0  0  0
  3  6  1  0  0  0
  5 78  1  0  0  0
  5 79  1  0  0  0
  5 80  1  0  0  0
  6  7  1  0  0  0
  6 81  1  0  0  0
  7  8  1  0  0  0
  7 10  1  0  0  0
  7 82  1  0  0  0
  8  9  2  0  0  0
  8 17  1  0  0  0
 10 11  1  0  0  0
 10 83  1  0  0  0
 10 84  1  0  0  0
 11 12  1  0  0  0
 11 85  1  0  0  0
 11 86  1  0  0  0
 12 13  1  0  0  0
 12 87  1  0  0  0
 12 88  1  0  0  0
 13 14  1  0  0  0
 13 89  1  0  0  0
 14 15  2  0  0  0
 14 16  1  0  0  0
 15 90  1  0  0  0
 16 91  1  0  0  0
 16 92  1  0  0  0
 17 18  1  0  0  0
 17 93  1  0  0  0
 18 19  1  0  0  0
 18 21  1  0  0  0
 18 94  1  0  0  0
 19 20  2  0  0  0
 19 24  1  0  0  0
 21 22  1  0  0  0
 21 23  1  0  0  0
 21 95  1  0  0  0
 22 96  1  0  0  0
 23 97  1  0  0  0
 23 98  1  0  0  0
 23 99  1  0  0  0
 24 25  1  0  0  0
 24100  1  0  0  0
 25 26  1  0  0  0
 25 28  1  0  0  0
 25101  1  0  0  0
 26 27  2  0  0  0
 26 29  1  0  0  0
 28102  1  0  0  0
 28103  1  0  0  0
 28104  1  0  0  0
 29 30  1  0  0  0
 29105  1  0  0  0
 30 31  1  0  0  0
 30 33  1  0  0  0
 30106  1  0  0  0
 31 32  2  0  0  0
 31 38  1  0  0  0
 33 34  1  0  0  0
 33107  1  0  0  0
 33108  1  0  0  0
 34 35  1  0  0  0
 34109  1  0  0  0
 34110  1  0  0  0
 35 36  2  0  0  0
 35 37  1  0  0  0
 37111  1  0  0  0
 37112  1  0  0  0
 38 39  1  0  0  0
 38113  1  0  0  0
 39 40  1  0  0  0
 39 42  1  0  0  0
 39114  1  0  0  0
 40 41  2  0  0  0
 40 45  1  0  0  0
 42 43  1  0  0  0
 42 44  1  0  0  0
 42115  1  0  0  0
 43116  1  0  0  0
 44117  1  0  0  0
 44118  1  0  0  0
 44119  1  0  0  0
 45 46  1  0  0  0
 45120  1  0  0  0
 46 47  1  0  0  0
 46 49  1  0  0  0
 46121  1  0  0  0
 47 48  2  0  0  0
 47 50  1  0  0  0
 49122  1  0  0  0
 49123  1  0  0  0
 49124  1  0  0  0
 50 51  1  0  0  0
 50125  1  0  0  0
 51 52  1  0  0  0
 51 54  1  0  0  0
 51126  1  0  0  0
 52 53  2  0  0  0
 52 55  1  0  0  0
 54127  1  0  0  0
 54128  1  0  0  0
 54129  1  0  0  0
 55 56  1  0  0  0
 55130  1  0  0  0
 56 57  1  0  0  0
 56 62  1  0  0  0
 56131  1  0  0  0
 57 58  1  0  0  0
 57132  1  0  0  0
 57133  1  0  0  0
 58 59  1  0  0  0
 58134  1  0  0  0
 58135  1  0  0  0
 59 60  1  0  0  0
 59136  1  0  0  0
 59137  1  0  0  0
 60 61  1  0  0  0
 60138  1  0  0  0
 60139  1  0  0  0
 61 64  1  0  0  0
 61 65  1  0  0  0
 61 66  1  0  0  0
 62 63  2  0  0  0
 62 67  1  0  0  0
 64140  1  0  0  0
 64141  1  0  0  0
 64142  1  0  0  0
 65143  1  0  0  0
 65144  1  0  0  0
 65145  1  0  0  0
 66146  1  0  0  0
 66147  1  0  0  0
 66148  1  0  0  0
 67 68  1  0  0  0
 67149  1  0  0  0
 68 69  1  0  0  0
 68 71  1  0  0  0
 68150  1  0  0  0
 69 70  2  0  0  0
 69 73  1  0  0  0
 71 72  1  0  0  0
 71151  1  0  0  0
 71152  1  0  0  0
 72153  1  0  0  0
 73154  1  0  0  0
M  CHG  2   1   1  61   1
M  END
> <s_m_source_file>
../3fdt_ligand.sdf

> <i_m_source_file_index>
1

> <s_epik_input>
W0hdL049QyhbTkgyXSlcW05IXVtDSDJdW0NIMl1bQ0gyXVtDQEhdKFtOSF1DKD1PKVtDQEBIXShbTkgzK10pW0NIM10pQyg9TylbTkhdW0NAQEhdKFtDQEhdKFtPSF0pW0NIM10pQyg9TylbTkhdW0NAQEhdKFtDSDNdKUMoPU8pW05IXVtDQEBIXShbQ0gyXVtDSDJdQyg9TylbTkgyXSlDKD1PKVtOSF1bQ0BASF0oW0NASF0oW09IXSlbQ0gzXSlDKD1PKVtOSF1bQ0BASF0oW0NIM10pQyg9TylbTkhdW0NAQEhdKFtDSDNdKUMoPU8pW05IXVtDQEhdKEMoPU8pW05IXVtDQEhdKEMoPU8pW09IXSlbQ0gyXVtPSF0pW0NIMl1bQ0gyXVtDSDJdW0NIMl1bTitdKFtDSDNdKShbQ0gzXSlbQ0gzXQ==

> <s_epik_cmdline>
J2VwaWtfYXBwJywgJy1pbWFlJywgJ2xpZ2FuZF9wcm8ubWFlJywgJy1vbWFlJywgJ2xpZ2FuZF9wcmVwLm1hZScsICctbXMnLCAnMScsICctcGgnLCAnNycsICctcGh0JywgJzAuNScsICctbnQn

> <s_epik_pKa_notes>
Molecule size exceeds maximum supported for generating protonation states

> <s_epik_Chemistry_Notes>
This compound has an imine and may undergo hydrolysis.

$$$$
