3fe7_ligand
                    3D
 Schrodinger Suite 2020-3.
156160  0  0  1  0            999 V2000
   13.9620   23.9290    4.3630 C   0  0  0  0  0  0
   15.0330   23.6680    4.8800 O   0  0  0  0  0  0
   13.3150   25.2820    4.4590 C   0  0  0  0  0  0
   13.2810   23.0530    3.6130 N   0  0  0  0  0  0
   13.7770   21.6790    3.4410 C   0  0  2  0  0  0
   15.1650   21.5700    2.8790 C   0  0  0  0  0  0
   16.0180   20.8670    3.4420 O   0  0  0  0  0  0
   12.7900   20.8310    2.5730 C   0  0  0  0  0  0
   13.3790   19.4540    2.3370 C   0  0  0  0  0  0
   13.4330   18.4830    3.3270 C   0  0  0  0  0  0
   13.9260   19.1320    1.0840 C   0  0  0  0  0  0
   14.0260   17.2430    3.0650 C   0  0  0  0  0  0
   14.5110   17.9030    0.8070 C   0  0  0  0  0  0
   14.5500   16.9320    1.8130 C   0  0  0  0  0  0
   15.4290   22.2470    1.7690 N   0  0  0  0  0  0
   16.7600   22.1190    1.1830 C   0  0  2  0  0  0
   17.8220   22.6750    2.0680 C   0  0  0  0  0  0
   18.9240   22.0840    2.1290 O   0  0  0  0  0  0
   16.7020   22.8340   -0.1510 C   0  0  0  0  0  0
   17.8980   22.4980   -1.0580 C   0  0  0  0  0  0
   18.2420   20.7710   -1.3760 S   0  0  0  0  0  0
   16.8270   19.8950   -1.7770 C   0  0  0  0  0  0
   17.6090   23.7560    2.7780 N   0  0  0  0  0  0
   18.6090   24.3300    3.6910 C   0  0  0  0  0  0
   19.0250   23.2360    4.6750 C   0  0  0  0  0  0
   20.2290   23.0240    4.9820 O   0  0  0  0  0  0
   17.9250   25.4180    4.4860 C   0  0  0  0  0  0
   19.8250   24.8810    2.9220 C   0  0  0  0  0  0
   18.0370   22.4690    5.2030 N   0  0  0  0  0  0
   18.3900   21.3890    6.1140 C   0  0  1  0  0  0
   17.1150   20.8230    6.7640 C   0  0  0  0  0  0
   16.4320   21.6170    7.8620 C   0  0  0  0  0  0
   15.1160   22.0720    7.6560 C   0  0  0  0  0  0
   14.4390   22.7820    8.6620 C   0  0  0  0  0  0
   17.1000   21.8620    9.0650 C   0  0  0  0  0  0
   16.4140   22.5810   10.0700 C   0  0  0  0  0  0
   15.1160   23.0330    9.8530 C   0  0  0  0  0  0
   14.4260   23.8090   10.9730 C   0  0  0  0  0  0
   14.7280   25.6060   10.8780 P   0  0  0  0  0  0
   16.1630   25.7530   11.3280 O   0  0  0  0  0  0
   14.4690   26.0710    9.4650 O   0  0  0  0  0  0
   13.7500   26.2810   11.8360 O   0  0  0  0  0  0
   19.0510   20.2460    5.4060 C   0  0  0  0  0  0
   20.0880   19.7280    5.8500 O   0  0  0  0  0  0
   18.4800   19.7930    4.2740 N   0  0  0  0  0  0
   19.0410   18.6410    3.5700 C   0  0  2  0  0  0
   20.4670   18.8170    3.1190 C   0  0  0  0  0  0
   21.2790   17.8990    3.3010 O   0  0  0  0  0  0
   18.0930   18.3630    2.3450 C   0  0  0  0  0  0
   18.5330   17.0880    1.7120 C   0  0  0  0  0  0
   19.3950   16.9600    0.6240 C   0  0  0  0  0  0
   18.2120   15.7190    2.1170 C   0  0  0  0  0  0
   19.6150   15.6330    0.3430 N   0  0  0  0  0  0
   18.9160   14.8830    1.2320 C   0  0  0  0  0  0
   17.4040   15.2160    3.1480 C   0  0  0  0  0  0
   18.7910   13.5120    1.3590 C   0  0  0  0  0  0
   17.2860   13.8340    3.2450 C   0  0  0  0  0  0
   17.9780   13.0060    2.3760 C   0  0  0  0  0  0
   20.7400   19.9750    2.5260 N   0  0  0  0  0  0
   22.1140   20.1920    2.0340 C   0  0  2  0  0  0
   23.1290   20.3160    3.1450 C   0  0  0  0  0  0
   24.3380   20.2820    2.8570 O   0  0  0  0  0  0
   22.1970   21.4790    1.1990 C   0  0  0  0  0  0
   21.4280   21.6760   -0.1170 C   0  0  0  0  0  0
   21.6080   23.1350   -0.6270 C   0  0  0  0  0  0
   22.0790   24.0480    0.1040 O   0  0  0  0  0  0
   21.2580   23.4300   -1.7900 O   0  0  0  0  0  0
   24.4910   21.7350    5.6620 C   0  0  0  0  0  0
   23.2930   21.6430    6.5800 C   0  0  0  0  0  0
   23.5400   20.5360    5.5530 C   0  0  0  0  0  0
   23.9460   19.2100    6.0870 C   0  0  0  0  0  0
   24.7660   19.1330    7.0350 O   0  0  0  0  0  0
   22.6570   20.4500    4.3890 N   0  0  0  0  0  0
   23.4680   18.1000    5.5540 N   0  0  0  0  0  0
   23.8630   16.7780    6.0550 C   0  0  2  0  0  0
   25.3290   16.5160    5.7940 C   0  0  0  0  0  0
   25.8700   16.8620    4.7500 O   0  0  0  0  0  0
   22.9980   15.6740    5.3840 C   0  0  0  0  0  0
   21.5660   15.6210    5.9320 C   0  0  0  0  0  0
   20.6940   14.7310    5.0330 C   0  0  0  0  0  0
   21.5590   15.0460    7.3550 C   0  0  0  0  0  0
   26.0270   15.9130    6.7450 N   0  0  0  0  0  0
   13.9323   25.9398    5.0884 H   0  0  0  0  0  0
   12.3152   25.1794    4.9060 H   0  0  0  0  0  0
   13.2239   25.7171    3.4528 H   0  0  0  0  0  0
   12.3463   23.3655    3.1244 H   0  0  0  0  0  0
   13.8556   21.3338    4.4825 H   0  0  0  0  0  0
   11.8294   20.7334    3.1000 H   0  0  0  0  0  0
   12.6289   21.3313    1.6067 H   0  0  0  0  0  0
   13.0122   18.6869    4.3116 H   0  0  0  0  0  0
   13.8898   19.8808    0.2928 H   0  0  0  0  0  0
   14.0791   16.5011    3.8618 H   0  0  0  0  0  0
   14.9324   17.6988   -0.1773 H   0  0  0  0  0  0
   14.9825   15.9502    1.6205 H   0  0  0  0  0  0
   14.6770   22.8916    1.2904 H   0  0  0  0  0  0
   17.0092   21.0527    1.0786 H   0  0  0  0  0  0
   15.7841   22.5436   -0.6830 H   0  0  0  0  0  0
   16.7009   23.9213    0.0155 H   0  0  0  0  0  0
   17.7443   22.9489   -2.0495 H   0  0  0  0  0  0
   18.8203   22.8986   -0.6120 H   0  0  0  0  0  0
   17.0877   18.8427   -1.9631 H   0  0  0  0  0  0
   16.3731   20.3258   -2.6816 H   0  0  0  0  0  0
   16.1110   19.9537   -0.9440 H   0  0  0  0  0  0
   16.6261   24.2370    2.6662 H   0  0  0  0  0  0
   17.0633   24.9937    5.0222 H   0  0  0  0  0  0
   17.5793   26.2085    3.8037 H   0  0  0  0  0  0
   18.6345   25.8437    5.2108 H   0  0  0  0  0  0
   20.2998   24.0668    2.3549 H   0  0  0  0  0  0
   20.5493   25.3024    3.6346 H   0  0  0  0  0  0
   19.4941   25.6672    2.2275 H   0  0  0  0  0  0
   16.9822   22.6538    4.9516 H   0  0  0  0  0  0
   19.0961   21.8483    6.8215 H   0  0  0  0  0  0
   16.3387   20.6923    5.9957 H   0  0  0  0  0  0
   17.3400   19.8509    7.2270 H   0  0  0  0  0  0
   14.6176   21.8718    6.7075 H   0  0  0  0  0  0
   13.4152   23.1259    8.5148 H   0  0  0  0  0  0
   18.1191   21.5093    9.2233 H   0  0  0  0  0  0
   16.9052   22.7829   11.0219 H   0  0  0  0  0  0
   13.3395   23.6474   10.9156 H   0  0  0  0  0  0
   14.7981   23.4567   11.9464 H   0  0  0  0  0  0
   16.9748   25.3135   10.7298 H   0  0  0  0  0  0
   13.7930   26.0592   12.9125 H   0  0  0  0  0  0
   17.5850   20.2963    3.8794 H   0  0  0  0  0  0
   19.1047   17.8351    4.3160 H   0  0  0  0  0  0
   17.0545   18.2768    2.6972 H   0  0  0  0  0  0
   18.1689   19.1928    1.6269 H   0  0  0  0  0  0
   19.8322   17.7937    0.0745 H   0  0  0  0  0  0
   16.8907   15.8803    3.8432 H   0  0  0  0  0  0
   19.3158   12.8401    0.6799 H   0  0  0  0  0  0
   16.6440   13.3986    4.0107 H   0  0  0  0  0  0
   17.8851   11.9259    2.4895 H   0  0  0  0  0  0
   19.9793   20.7590    2.3968 H   0  0  0  0  0  0
   22.3239   19.2839    1.4499 H   0  0  0  0  0  0
   21.8505   22.3307    1.8027 H   0  0  0  0  0  0
   23.2388   21.6487    0.8894 H   0  0  0  0  0  0
   21.8135   20.9781   -0.8749 H   0  0  0  0  0  0
   20.3584   21.4812    0.0506 H   0  0  0  0  0  0
   22.1909   25.0677   -0.2931 H   0  0  0  0  0  0
   24.4221   22.6532    5.0602 H   0  0  0  0  0  0
   25.4123   21.7586    6.2626 H   0  0  0  0  0  0
   23.6333   21.6219    7.6258 H   0  0  0  0  0  0
   22.6431   22.5166    6.4234 H   0  0  0  0  0  0
   21.5660   20.4952    4.5218 H   0  0  0  0  0  0
   22.7591   18.1816    4.7168 H   0  0  0  0  0  0
   23.7066   16.8114    7.1433 H   0  0  0  0  0  0
   22.9356   15.8640    4.3023 H   0  0  0  0  0  0
   23.4594   14.6906    5.5575 H   0  0  0  0  0  0
   21.1649   16.6451    5.9494 H   0  0  0  0  0  0
   20.6917   15.1341    4.0095 H   0  0  0  0  0  0
   19.6653   14.7128    5.4222 H   0  0  0  0  0  0
   21.1007   13.7090    5.0237 H   0  0  0  0  0  0
   22.1808   15.6759    8.0081 H   0  0  0  0  0  0
   21.9633   14.0231    7.3391 H   0  0  0  0  0  0
   20.5279   15.0269    7.7377 H   0  0  0  0  0  0
   25.5333   15.6059    7.6788 H   0  0  0  0  0  0
   27.1002   15.7195    6.6008 H   0  0  0  0  0  0
  1  2  2  0  0  0
  1  3  1  0  0  0
  1  4  1  0  0  0
  3 83  1  0  0  0
  3 84  1  0  0  0
  3 85  1  0  0  0
  4  5  1  0  0  0
  4 86  1  0  0  0
  5  6  1  0  0  0
  5  8  1  0  0  0
  5 87  1  0  0  0
  6  7  2  0  0  0
  6 15  1  0  0  0
  8  9  1  0  0  0
  8 88  1  0  0  0
  8 89  1  0  0  0
  9 10  2  0  0  0
  9 11  1  0  0  0
 10 12  1  0  0  0
 10 90  1  0  0  0
 11 13  2  0  0  0
 11 91  1  0  0  0
 12 14  2  0  0  0
 12 92  1  0  0  0
 13 14  1  0  0  0
 13 93  1  0  0  0
 14 94  1  0  0  0
 15 16  1  0  0  0
 15 95  1  0  0  0
 16 17  1  0  0  0
 16 19  1  0  0  0
 16 96  1  0  0  0
 17 18  2  0  0  0
 17 23  1  0  0  0
 19 20  1  0  0  0
 19 97  1  0  0  0
 19 98  1  0  0  0
 20 21  1  0  0  0
 20 99  1  0  0  0
 20100  1  0  0  0
 21 22  1  0  0  0
 22101  1  0  0  0
 22102  1  0  0  0
 22103  1  0  0  0
 23 24  1  0  0  0
 23104  1  0  0  0
 24 25  1  0  0  0
 24 27  1  0  0  0
 24 28  1  0  0  0
 25 26  2  0  0  0
 25 29  1  0  0  0
 27105  1  0  0  0
 27106  1  0  0  0
 27107  1  0  0  0
 28108  1  0  0  0
 28109  1  0  0  0
 28110  1  0  0  0
 29 30  1  0  0  0
 29111  1  0  0  0
 30 31  1  0  0  0
 30 43  1  0  0  0
 30112  1  0  0  0
 31 32  1  0  0  0
 31113  1  0  0  0
 31114  1  0  0  0
 32 33  2  0  0  0
 32 35  1  0  0  0
 33 34  1  0  0  0
 33115  1  0  0  0
 34 37  2  0  0  0
 34116  1  0  0  0
 35 36  2  0  0  0
 35117  1  0  0  0
 36 37  1  0  0  0
 36118  1  0  0  0
 37 38  1  0  0  0
 38 39  1  0  0  0
 38119  1  0  0  0
 38120  1  0  0  0
 39 40  1  0  0  0
 39 41  2  0  0  0
 39 42  1  0  0  0
 40121  1  0  0  0
 42122  1  0  0  0
 43 44  2  0  0  0
 43 45  1  0  0  0
 45 46  1  0  0  0
 45123  1  0  0  0
 46 47  1  0  0  0
 46 49  1  0  0  0
 46124  1  0  0  0
 47 48  2  0  0  0
 47 59  1  0  0  0
 49 50  1  0  0  0
 49125  1  0  0  0
 49126  1  0  0  0
 50 51  2  0  0  0
 50 52  1  0  0  0
 51 53  1  0  0  0
 51127  1  0  0  0
 52 54  2  0  0  0
 52 55  1  0  0  0
 53 54  1  0  0  0
 54 56  1  0  0  0
 55 57  2  0  0  0
 55128  1  0  0  0
 56 58  2  0  0  0
 56129  1  0  0  0
 57 58  1  0  0  0
 57130  1  0  0  0
 58131  1  0  0  0
 59 60  1  0  0  0
 59132  1  0  0  0
 60 61  1  0  0  0
 60 63  1  0  0  0
 60133  1  0  0  0
 61 62  2  0  0  0
 61 73  1  0  0  0
 63 64  1  0  0  0
 63134  1  0  0  0
 63135  1  0  0  0
 64 65  1  0  0  0
 64136  1  0  0  0
 64137  1  0  0  0
 65 66  1  0  0  0
 65 67  2  0  0  0
 66138  1  0  0  0
 68 69  1  0  0  0
 68 70  1  0  0  0
 68139  1  0  0  0
 68140  1  0  0  0
 69 70  1  0  0  0
 69141  1  0  0  0
 69142  1  0  0  0
 70 71  1  0  0  0
 70 73  1  0  0  0
 71 72  2  0  0  0
 71 74  1  0  0  0
 73143  1  0  0  0
 74 75  1  0  0  0
 74144  1  0  0  0
 75 76  1  0  0  0
 75 78  1  0  0  0
 75145  1  0  0  0
 76 77  2  0  0  0
 76 82  1  0  0  0
 78 79  1  0  0  0
 78146  1  0  0  0
 78147  1  0  0  0
 79 80  1  0  0  0
 79 81  1  0  0  0
 79148  1  0  0  0
 80149  1  0  0  0
 80150  1  0  0  0
 80151  1  0  0  0
 81152  1  0  0  0
 81153  1  0  0  0
 81154  1  0  0  0
 82155  1  0  0  0
 82156  1  0  0  0
M  END
> <s_m_source_file>
../3fe7_ligand.sdf

> <i_m_source_file_index>
1

> <s_epik_input>
W2NIXTFbY0hdW2NIXVtjSF1bY0hdYzFbQ0gyXVtDQEhdKFtOSF1DKD1PKVtDSDNdKUMoPU8pW05IXVtDQEBIXShbQ0gyXVtDSDJdU1tDSDNdKUMoPU8pW05IXUMoW0NIM10pKFtDSDNdKUMoPU8pW05IXVtDQEBIXShbQ0gyXWMyW2NIXVtjSF1jKFtjSF1bY0hdMilbQ0gyXVAoPU8pKFtPSF0pW09IXSlDKD1PKVtOSF1bQ0BASF0oW0NIMl1jM1tjSF1bbkhdYyhjMzQpW2NIXVtjSF1bY0hdW2NIXTQpQyg9TylbTkhdW0NAQEhdKFtDSDJdW0NIMl1DKD1PKVtPSF0pQyg9TylbTkhdQzUoW0NIMl1bQ0gyXTUpQyg9TylbTkhdW0NASF0oQyg9TylbTkgyXSlbQ0gyXVtDSF0oW0NIM10pW0NIM10=

> <s_epik_cmdline>
J2VwaWtfYXBwJywgJy1pbWFlJywgJ2xpZ2FuZF9wcm8ubWFlJywgJy1vbWFlJywgJ2xpZ2FuZF9wcmVwLm1hZScsICctbXMnLCAnMScsICctcGgnLCAnNycsICctcGh0JywgJzAuNScsICctbnQn

> <s_epik_pKa_notes>
Molecule size exceeds maximum supported for generating protonation states

$$$$
