3fea_ligand
                    3D
 Schrodinger Suite 2020-3.
156160  0  0  1  0            999 V2000
   12.7410   24.3730    5.1550 C   0  0  0  0  0  0
   13.8220   24.1170    5.6650 O   0  0  0  0  0  0
   12.0720   25.6920    5.4760 C   0  0  0  0  0  0
   12.0730   23.5490    4.3210 N   0  0  0  0  0  0
   12.5930   22.2240    3.9770 C   0  0  2  0  0  0
   14.0020   22.2590    3.4340 C   0  0  0  0  0  0
   14.8430   21.4850    3.9070 O   0  0  0  0  0  0
   11.6380   21.4800    2.9980 C   0  0  0  0  0  0
   12.2710   20.1520    2.5590 C   0  0  0  0  0  0
   12.2510   19.0600    3.4260 C   0  0  0  0  0  0
   12.8920   20.0090    1.3140 C   0  0  0  0  0  0
   12.8240   17.8410    3.0540 C   0  0  0  0  0  0
   13.4780   18.7860    0.9490 C   0  0  0  0  0  0
   13.4600   17.6890    1.8080 C   0  0  0  0  0  0
   14.2580   23.1060    2.4400 N   0  0  0  0  0  0
   15.5960   23.1080    1.8370 C   0  0  2  0  0  0
   16.6900   23.4350    2.8110 C   0  0  0  0  0  0
   17.7200   22.7520    2.7670 O   0  0  0  0  0  0
   15.5500   24.1830    0.7360 C   0  0  0  0  0  0
   16.4500   23.8500   -0.4820 C   0  0  0  0  0  0
   15.4340   23.9460   -1.9910 S   0  0  0  0  0  0
   14.9140   25.6950   -1.9650 C   0  0  0  0  0  0
   16.5020   24.4260    3.6910 N   0  0  0  0  0  0
   17.5150   24.8050    4.6790 C   0  0  0  0  0  0
   17.8570   23.5630    5.4780 C   0  0  0  0  0  0
   19.0240   23.2750    5.7480 O   0  0  0  0  0  0
   16.8590   25.8020    5.6560 C   0  0  0  0  0  0
   18.7760   25.3920    3.9560 C   0  0  0  0  0  0
   16.8490   22.7770    5.9190 N   0  0  0  0  0  0
   17.1310   21.5860    6.6770 C   0  0  1  0  0  0
   15.8290   20.9660    7.2520 C   0  0  0  0  0  0
   15.2160   21.7150    8.4210 C   0  0  0  0  0  0
   13.9450   22.2720    8.2300 C   0  0  0  0  0  0
   13.3100   22.9530    9.2870 C   0  0  0  0  0  0
   15.8540   21.7690    9.6670 C   0  0  0  0  0  0
   15.2100   22.4360   10.7330 C   0  0  0  0  0  0
   13.9570   23.0400   10.5260 C   0  0  0  0  0  0
   13.2560   23.7490   11.7040 C   0  0  0  0  0  0
   13.7330   25.4730   11.7940 P   0  0  0  0  0  0
   15.1900   25.6780   12.0130 O   0  0  0  0  0  0
   13.1310   26.1120   10.4570 O   0  0  0  0  0  0
   12.8220   26.0610   12.9860 O   0  0  0  0  0  0
   17.8150   20.5170    5.8400 C   0  0  0  0  0  0
   18.8010   19.9170    6.2700 O   0  0  0  0  0  0
   17.3060   20.2500    4.6160 N   0  0  0  0  0  0
   17.8740   19.1840    3.7920 C   0  0  1  0  0  0
   17.0420   19.0400    2.4700 C   0  0  0  0  0  0
   17.4590   17.8250    1.7200 C   0  0  0  0  0  0
   17.0320   16.4570    2.0670 C   0  0  0  0  0  0
   16.2040   15.9090    3.0350 C   0  0  0  0  0  0
   17.7150   15.6490    1.1430 C   0  0  0  0  0  0
   18.4610   16.4470    0.3330 N   0  0  0  0  0  0
   18.3280   17.7260    0.6820 C   0  0  0  0  0  0
   17.5410   14.2660    1.1870 C   0  0  0  0  0  0
   16.6830   13.7610    2.1580 C   0  0  3  0  0  0
   16.4280   12.0610    2.2090 Cl  0  0  0  0  0  0
   15.9890   14.5570    3.0820 C   0  0  0  0  0  0
   19.3500   19.3990    3.4690 C   0  0  0  0  0  0
   20.1450   18.4430    3.5190 O   0  0  0  0  0  0
   19.7000   20.6390    3.1590 N   0  0  0  0  0  0
   21.0900   20.9750    2.8170 C   0  0  2  0  0  0
   21.9960   20.7290    4.0080 C   0  0  0  0  0  0
   23.2040   20.5800    3.7800 O   0  0  0  0  0  0
   21.1720   22.4470    2.3880 C   0  0  0  0  0  0
   20.5480   22.7030    0.9920 C   0  0  0  0  0  0
   20.7090   24.1470    0.5680 C   0  0  0  0  0  0
   21.1530   25.0460    1.2850 O   0  0  0  0  0  0
   20.3330   24.4180   -0.6730 O   0  0  0  0  0  0
   23.2930   21.5450    6.8340 C   0  0  0  0  0  0
   21.9710   21.4560    7.6130 C   0  0  0  0  0  0
   22.2490   20.4720    6.4600 C   0  0  0  0  0  0
   22.5180   19.0460    6.7640 C   0  0  0  0  0  0
   23.2070   18.7300    7.7450 O   0  0  0  0  0  0
   21.4760   20.6830    5.2410 N   0  0  0  0  0  0
   22.0290   18.0740    6.0260 N   0  0  0  0  0  0
   22.2520   16.6700    6.3420 C   0  0  2  0  0  0
   23.7250   16.3050    6.3210 C   0  0  0  0  0  0
   24.4430   16.6200    5.3690 O   0  0  0  0  0  0
   21.4710   15.7640    5.3310 C   0  0  0  0  0  0
   20.0490   15.4460    5.8510 C   0  0  0  0  0  0
   19.1880   14.9110    4.6740 C   0  0  0  0  0  0
   20.0740   14.3920    6.9720 C   0  0  0  0  0  0
   24.1860   15.5850    7.3650 N   0  0  0  0  0  0
   12.7105   26.2700    6.1602 H   0  0  0  0  0  0
   11.0994   25.5031    5.9538 H   0  0  0  0  0  0
   11.9198   26.2615    4.5473 H   0  0  0  0  0  0
   11.1178   23.8921    3.8969 H   0  0  0  0  0  0
   12.6475   21.7149    4.9506 H   0  0  0  0  0  0
   10.6816   21.2770    3.5021 H   0  0  0  0  0  0
   11.4596   22.1073    2.1122 H   0  0  0  0  0  0
   11.7829   19.1584    4.4054 H   0  0  0  0  0  0
   12.9213   20.8515    0.6231 H   0  0  0  0  0  0
   12.7776   16.9948    3.7395 H   0  0  0  0  0  0
   13.9565   18.6930   -0.0259 H   0  0  0  0  0  0
   13.9234   16.7441    1.5241 H   0  0  0  0  0  0
   13.4866   23.7970    2.0693 H   0  0  0  0  0  0
   15.8077   22.0860    1.4895 H   0  0  0  0  0  0
   14.5186   24.2870    0.3680 H   0  0  0  0  0  0
   15.8911   25.1443    1.1477 H   0  0  0  0  0  0
   17.2753   24.5752   -0.5372 H   0  0  0  0  0  0
   16.8602   22.8357   -0.3684 H   0  0  0  0  0  0
   14.2791   25.9018   -2.8391 H   0  0  0  0  0  0
   15.8029   26.3423   -1.9961 H   0  0  0  0  0  0
   14.3467   25.8952   -1.0441 H   0  0  0  0  0  0
   15.5427   24.9630    3.6530 H   0  0  0  0  0  0
   15.9842   25.3310    6.1281 H   0  0  0  0  0  0
   16.5398   26.6990    5.1051 H   0  0  0  0  0  0
   17.5852   26.0870    6.4315 H   0  0  0  0  0  0
   19.1947   24.6349    3.2767 H   0  0  0  0  0  0
   19.5317   25.6705    4.7052 H   0  0  0  0  0  0
   18.4863   26.2825    3.3788 H   0  0  0  0  0  0
   15.8080   23.0528    5.6951 H   0  0  0  0  0  0
   17.8144   21.9642    7.4515 H   0  0  0  0  0  0
   15.0607   20.9318    6.4655 H   0  0  0  0  0  0
   16.0348   19.9458    7.6081 H   0  0  0  0  0  0
   13.4479   22.1786    7.2645 H   0  0  0  0  0  0
   12.3291   23.4058    9.1426 H   0  0  0  0  0  0
   16.8296   21.3048    9.8114 H   0  0  0  0  0  0
   15.6833   22.4824   11.7138 H   0  0  0  0  0  0
   12.1657   23.6920   11.5699 H   0  0  0  0  0  0
   13.5356   23.2567   12.6471 H   0  0  0  0  0  0
   13.5782   25.8694    9.4817 H   0  0  0  0  0  0
   13.0272   25.7741   14.0279 H   0  0  0  0  0  0
   16.4579   20.8420    4.2415 H   0  0  0  0  0  0
   17.8145   18.2935    4.4350 H   0  0  0  0  0  0
   15.9732   18.9577    2.7166 H   0  0  0  0  0  0
   17.2050   19.9240    1.8360 H   0  0  0  0  0  0
   15.7182   16.5690    3.7688 H   0  0  0  0  0  0
   18.8865   18.5045    0.1416 H   0  0  0  0  0  0
   18.0725   13.6217    0.4712 H   0  0  0  0  0  0
   15.2948   14.1360    3.8241 H   0  0  0  0  0  0
   18.9290   21.4235    3.1606 H   0  0  0  0  0  0
   21.3900   20.3108    1.9931 H   0  0  0  0  0  0
   20.6334   23.0716    3.1159 H   0  0  0  0  0  0
   22.2261   22.7587    2.3465 H   0  0  0  0  0  0
   21.0436   22.0642    0.2461 H   0  0  0  0  0  0
   19.4741   22.4668    1.0215 H   0  0  0  0  0  0
   20.4168   25.4437   -1.0615 H   0  0  0  0  0  0
   23.3763   22.5367    6.3653 H   0  0  0  0  0  0
   24.1361   21.3936    7.5241 H   0  0  0  0  0  0
   22.1834   21.2621    8.6747 H   0  0  0  0  0  0
   21.4236   22.4052    7.5160 H   0  0  0  0  0  0
   20.3858   20.8180    5.2975 H   0  0  0  0  0  0
   21.4336   18.3513    5.1436 H   0  0  0  0  0  0
   21.8921   16.5679    7.3764 H   0  0  0  0  0  0
   21.3843   16.2829    4.3650 H   0  0  0  0  0  0
   22.0141   14.8177    5.1914 H   0  0  0  0  0  0
   19.6231   16.3698    6.2696 H   0  0  0  0  0  0
   19.1646   15.6586    3.8674 H   0  0  0  0  0  0
   18.1637   14.7196    5.0264 H   0  0  0  0  0  0
   19.6260   13.9760    4.2947 H   0  0  0  0  0  0
   20.6820   14.7628    7.8104 H   0  0  0  0  0  0
   20.5101   13.4582    6.5876 H   0  0  0  0  0  0
   19.0478   14.2017    7.3193 H   0  0  0  0  0  0
   23.5118   15.3252    8.1944 H   0  0  0  0  0  0
   25.2360   15.2579    7.3866 H   0  0  0  0  0  0
  1  2  2  0  0  0
  1  3  1  0  0  0
  1  4  1  0  0  0
  3 84  1  0  0  0
  3 85  1  0  0  0
  3 86  1  0  0  0
  4  5  1  0  0  0
  4 87  1  0  0  0
  5  6  1  0  0  0
  5  8  1  0  0  0
  5 88  1  0  0  0
  6  7  2  0  0  0
  6 15  1  0  0  0
  8  9  1  0  0  0
  8 89  1  0  0  0
  8 90  1  0  0  0
  9 10  2  0  0  0
  9 11  1  0  0  0
 10 12  1  0  0  0
 10 91  1  0  0  0
 11 13  2  0  0  0
 11 92  1  0  0  0
 12 14  2  0  0  0
 12 93  1  0  0  0
 13 14  1  0  0  0
 13 94  1  0  0  0
 14 95  1  0  0  0
 15 16  1  0  0  0
 15 96  1  0  0  0
 16 17  1  0  0  0
 16 19  1  0  0  0
 16 97  1  0  0  0
 17 18  2  0  0  0
 17 23  1  0  0  0
 19 20  1  0  0  0
 19 98  1  0  0  0
 19 99  1  0  0  0
 20 21  1  0  0  0
 20100  1  0  0  0
 20101  1  0  0  0
 21 22  1  0  0  0
 22102  1  0  0  0
 22103  1  0  0  0
 22104  1  0  0  0
 23 24  1  0  0  0
 23105  1  0  0  0
 24 25  1  0  0  0
 24 27  1  0  0  0
 24 28  1  0  0  0
 25 26  2  0  0  0
 25 29  1  0  0  0
 27106  1  0  0  0
 27107  1  0  0  0
 27108  1  0  0  0
 28109  1  0  0  0
 28110  1  0  0  0
 28111  1  0  0  0
 29 30  1  0  0  0
 29112  1  0  0  0
 30 31  1  0  0  0
 30 43  1  0  0  0
 30113  1  0  0  0
 31 32  1  0  0  0
 31114  1  0  0  0
 31115  1  0  0  0
 32 33  2  0  0  0
 32 35  1  0  0  0
 33 34  1  0  0  0
 33116  1  0  0  0
 34 37  2  0  0  0
 34117  1  0  0  0
 35 36  2  0  0  0
 35118  1  0  0  0
 36 37  1  0  0  0
 36119  1  0  0  0
 37 38  1  0  0  0
 38 39  1  0  0  0
 38120  1  0  0  0
 38121  1  0  0  0
 39 40  2  0  0  0
 39 41  1  0  0  0
 39 42  1  0  0  0
 41122  1  0  0  0
 42123  1  0  0  0
 43 44  2  0  0  0
 43 45  1  0  0  0
 45 46  1  0  0  0
 45124  1  0  0  0
 46 47  1  0  0  0
 46 58  1  0  0  0
 46125  1  0  0  0
 47 48  1  0  0  0
 47126  1  0  0  0
 47127  1  0  0  0
 48 49  2  0  0  0
 48 53  1  0  0  0
 49 50  1  0  0  0
 49 51  1  0  0  0
 50 57  2  0  0  0
 50128  1  0  0  0
 51 52  1  0  0  0
 51 54  2  0  0  0
 52 53  2  0  0  0
 53129  1  0  0  0
 54 55  1  0  0  0
 54130  1  0  0  0
 55 56  1  0  0  0
 55 57  1  0  0  0
 57131  1  0  0  0
 58 59  2  0  0  0
 58 60  1  0  0  0
 60 61  1  0  0  0
 60132  1  0  0  0
 61 62  1  0  0  0
 61 64  1  0  0  0
 61133  1  0  0  0
 62 63  2  0  0  0
 62 74  1  0  0  0
 64 65  1  0  0  0
 64134  1  0  0  0
 64135  1  0  0  0
 65 66  1  0  0  0
 65136  1  0  0  0
 65137  1  0  0  0
 66 67  2  0  0  0
 66 68  1  0  0  0
 68138  1  0  0  0
 69 70  1  0  0  0
 69 71  1  0  0  0
 69139  1  0  0  0
 69140  1  0  0  0
 70 71  1  0  0  0
 70141  1  0  0  0
 70142  1  0  0  0
 71 72  1  0  0  0
 71 74  1  0  0  0
 72 73  2  0  0  0
 72 75  1  0  0  0
 74143  1  0  0  0
 75 76  1  0  0  0
 75144  1  0  0  0
 76 77  1  0  0  0
 76 79  1  0  0  0
 76145  1  0  0  0
 77 78  2  0  0  0
 77 83  1  0  0  0
 79 80  1  0  0  0
 79146  1  0  0  0
 79147  1  0  0  0
 80 81  1  0  0  0
 80 82  1  0  0  0
 80148  1  0  0  0
 81149  1  0  0  0
 81150  1  0  0  0
 81151  1  0  0  0
 82152  1  0  0  0
 82153  1  0  0  0
 82154  1  0  0  0
 83155  1  0  0  0
 83156  1  0  0  0
M  END
> <s_m_source_file>
../3fea_ligand.sdf

> <i_m_source_file_index>
1

> <s_epik_input>
W2NIXTFbY0hdW2NIXVtjSF1bY0hdYzFbQ0gyXVtDQEhdKFtOSF1DKD1PKVtDSDNdKUMoPU8pW05IXVtDQEBIXShbQ0gyXVtDSDJdU1tDSDNdKUMoPU8pW05IXUMoW0NIM10pKFtDSDNdKUMoPU8pW05IXVtDQEBIXShbQ0gyXWMyW2NIXVtjSF1jKFtjSF1bY0hdMilbQ0gyXVAoPU8pKFtPSF0pW09IXSlDKD1PKVtOSF1bQ0BASF0oW0NIMl1DPTNbQ0hdPU5DKEMzNCk9W0NIXVtDSF0oQ2wpW0NIXT1bQ0hdNClDKD1PKVtOSF1bQ0BASF0oW0NIMl1bQ0gyXUMoPU8pW09IXSlDKD1PKVtOSF1DNShbQ0gyXVtDSDJdNSlDKD1PKVtOSF1bQ0BIXShDKD1PKVtOSDJdKVtDSDJdW0NIXShbQ0gzXSlbQ0gzXQ==

> <s_epik_cmdline>
J2VwaWtfYXBwJywgJy1pbWFlJywgJ2xpZ2FuZF9wcm8ubWFlJywgJy1vbWFlJywgJ2xpZ2FuZF9wcmVwLm1hZScsICctbXMnLCAnMScsICctcGgnLCAnNycsICctcGh0JywgJzAuNScsICctbnQn

> <s_epik_pKa_notes>
Molecule size exceeds maximum supported for generating protonation states

> <s_epik_Chemistry_Notes>
This compound has an imine and may undergo hydrolysis.

$$$$
