3fed_ligand
                    3D
 Schrodinger Suite 2020-3.
 35 34  0  0  1  0            999 V2000
   22.7110   44.6760   15.8310 C   0  0  2  0  0  0
   21.0930   45.2890   17.7790 C   0  0  0  0  0  0
   22.4110   45.9540   15.1150 C   0  0  0  0  0  0
   21.5760   44.2040   16.7940 C   0  0  0  0  0  0
   18.5420   43.8280   18.1310 C   0  0  0  0  0  0
   22.8480   46.9960   15.6410 O   0  0  0  0  0  0
   14.8810   40.5640   16.7220 O   0  0  0  0  0  0
   15.6400   41.2130   16.0280 C   0  0  0  0  0  0
   15.4790   41.3710   14.8060 O   0  5  0  0  0  0
   16.8510   41.8730   16.6490 C   0  0  0  0  0  0
   16.8120   41.9870   18.1830 C   0  0  0  0  0  0
   18.1300   42.5160   18.7980 C   0  0  1  0  0  0
   19.1500   41.4400   18.5880 C   0  0  0  0  0  0
   19.1900   40.4590   19.3500 O   0  0  0  0  0  0
   19.9940   41.5290   17.6280 O   0  5  0  0  0  0
   19.8950   44.7490   19.0050 P   0  0  1  0  0  0
   20.5680   43.8330   19.9820 O   0  5  0  0  0  0
   19.2410   45.8780   19.6660 O   0  0  0  0  0  0
   23.9310   44.7870   16.5960 N   0  3  0  0  0  0
   21.7070   45.9640   14.0650 O   0  5  0  0  0  0
   22.8821   43.9464   15.0258 H   0  0  0  0  0  0
   21.9528   45.6835   18.3403 H   0  0  0  0  0  0
   20.6147   46.1060   17.2189 H   0  0  0  0  0  0
   20.7019   43.8901   16.2045 H   0  0  0  0  0  0
   21.9352   43.3568   17.3967 H   0  0  0  0  0  0
   18.9026   43.6239   17.1120 H   0  0  0  0  0  0
   17.6753   44.5038   18.0847 H   0  0  0  0  0  0
   17.7526   41.2950   16.3981 H   0  0  0  0  0  0
   16.9513   42.8965   16.2587 H   0  0  0  0  0  0
   16.0101   42.6794   18.4789 H   0  0  0  0  0  0
   16.6202   40.9957   18.6196 H   0  0  0  0  0  0
   18.0478   42.7274   19.8744 H   0  0  0  0  0  0
   24.7475   45.1189   15.9379 H   0  0  0  0  0  0
   24.1834   43.8073   17.0279 H   0  0  0  0  0  0
   23.7912   45.5193   17.4048 H   0  0  0  0  0  0
  1  3  1  0  0  0
  1  4  1  0  0  0
  1 19  1  0  0  0
  1 21  1  0  0  0
  2  4  1  0  0  0
  2 16  1  0  0  0
  2 22  1  0  0  0
  2 23  1  0  0  0
  3  6  2  0  0  0
  3 20  1  0  0  0
  4 24  1  0  0  0
  4 25  1  0  0  0
  5 12  1  0  0  0
  5 16  1  0  0  0
  5 26  1  0  0  0
  5 27  1  0  0  0
  7  8  2  0  0  0
  8  9  1  0  0  0
  8 10  1  0  0  0
 10 11  1  0  0  0
 10 28  1  0  0  0
 10 29  1  0  0  0
 11 12  1  0  0  0
 11 30  1  0  0  0
 11 31  1  0  0  0
 12 13  1  0  0  0
 12 32  1  0  0  0
 13 14  2  0  0  0
 13 15  1  0  0  0
 16 17  1  0  0  0
 16 18  2  0  0  0
 19 33  1  0  0  0
 19 34  1  0  0  0
 19 35  1  0  0  0
M  CHG  5   9  -1  15  -1  17  -1  19   1  20  -1
M  END
> <s_m_source_file>
../3fed_ligand.sdf

> <i_m_source_file_index>
1

> <s_epik_input>
Tz1DKFtPSF0pW0NAQEhdKFtOSDMrXSlbQ0gyXVtDSDJdW1BAXSg9TykoW09IXSlbQ0gyXVtDQEhdKEMoPU8pW09IXSlbQ0gyXVtDSDJdQyg9TylbT0hd

> <s_epik_cmdline>
J2VwaWtfYXBwJywgJy1pbWFlJywgJ2xpZ2FuZF9wcm8ubWFlJywgJy1vbWFlJywgJ2xpZ2FuZF9wcmVwLm1hZScsICctbXMnLCAnMScsICctcGgnLCAnNycsICctcGh0JywgJzAuNScsICctbnQn

> <r_lp_tautomer_probability>
1

> <r_epik_Ionization_Penalty>
  0.0107

> <r_epik_Ionization_Penalty_Charging>
  0.0107

> <r_epik_Ionization_Penalty_Neutral>
  0.0000

> <r_epik_State_Penalty>
 -0.0000

> <r_epik_Charging_Adjusted_Penalty>
0.0107446611525793

> <i_epik_Tot_Q>
-3

> <i_epik_Tot_abs_Q>
5

$$$$
