3fee_ligand
                    3D
 Schrodinger Suite 2020-3.
 19 19  0  0  1  0            999 V2000
   19.0100   41.3910   18.4550 C   0  0  0  0  0  0
   18.0320   42.5190   18.6570 C   0  0  2  0  0  0
   16.6110   42.1340   18.1870 C   0  0  0  0  0  0
   15.5740   40.8810   16.3360 C   0  0  0  0  0  0
   16.4560   41.9860   14.7250 C   0  0  0  0  0  0
   18.4810   43.7450   17.9610 N   0  3  0  0  0  0
   16.7370   41.4520   16.8880 N   0  0  0  0  0  0
   15.4830   41.1150   15.0190 N   0  0  0  0  0  0
   19.8700   41.5150   17.5730 O   0  0  0  0  0  0
   18.8550   40.3790   19.1870 O   0  5  0  0  0  0
   14.8000   40.2420   17.0130 O   0  5  0  0  0  0
   16.7640   42.5010   13.6590 O   0  0  0  0  0  0
   17.2480   42.3420   15.8700 O   0  0  0  0  0  0
   18.0273   42.7449   19.7336 H   0  0  0  0  0  0
   16.1490   41.4640   18.9270 H   0  0  0  0  0  0
   16.0001   43.0429   18.0836 H   0  0  0  0  0  0
   19.4925   44.0106   18.3020 H   0  0  0  0  0  0
   17.7892   44.5696   18.1878 H   0  0  0  0  0  0
   18.4951   43.5662   16.8757 H   0  0  0  0  0  0
  1  2  1  0  0  0
  1  9  2  0  0  0
  1 10  1  0  0  0
  2  3  1  0  0  0
  2  6  1  0  0  0
  2 14  1  0  0  0
  3  7  1  0  0  0
  3 15  1  0  0  0
  3 16  1  0  0  0
  4  7  1  0  0  0
  4  8  2  0  0  0
  4 11  1  0  0  0
  5  8  1  0  0  0
  5 12  2  0  0  0
  5 13  1  0  0  0
  6 17  1  0  0  0
  6 18  1  0  0  0
  6 19  1  0  0  0
  7 13  1  0  0  0
M  CHG  3   6   1  10  -1  11  -1
M  END
> <s_m_source_file>
../3fee_ligand.sdf

> <i_m_source_file_index>
1

> <s_epik_input>
Tz1DKFtPSF0pW0NAQEhdKFtOSDMrXSlbQ0gyXW4oYzE9TylvYyg9TylbbkhdMQ==

> <s_epik_cmdline>
J2VwaWtfYXBwJywgJy1pbWFlJywgJ2xpZ2FuZF9wcm8ubWFlJywgJy1vbWFlJywgJ2xpZ2FuZF9wcmVwLm1hZScsICctbXMnLCAnMScsICctcGgnLCAnNycsICctcGh0JywgJzAuNScsICctbnQn

> <r_lp_tautomer_probability>
1

> <r_epik_Ionization_Penalty>
  0.0168

> <r_epik_Ionization_Penalty_Charging>
  0.0168

> <r_epik_Ionization_Penalty_Neutral>
  0.0000

> <r_epik_State_Penalty>
 -0.0000

> <r_epik_Charging_Adjusted_Penalty>
0.0168115722335693

> <i_epik_Tot_Q>
-1

> <i_epik_Tot_abs_Q>
3

$$$$
