3feg_ligand
                    3D
 Schrodinger Suite 2020-3.
 67 69  0  0  1  0            999 V2000
   25.7660   61.1140   -2.7830 C   0  0  0  0  0  0
   26.6970   61.5850   -3.8190 N   0  3  0  0  0  0
   27.7750   60.5930   -4.0070 C   0  0  0  0  0  0
   25.9360   61.7600   -5.0630 C   0  0  0  0  0  0
   27.2840   62.8770   -3.4400 C   0  0  0  0  0  0
   27.8980   62.7970   -2.0390 C   0  0  0  0  0  0
   26.9030   62.4080   -1.0860 O   0  0  0  0  0  0
   26.4510   61.0840   -1.4170 C   0  0  2  0  0  0
   27.5650   60.1940   -1.4400 O   0  0  0  0  0  0
   25.4330   60.5900   -0.3850 C   0  0  0  0  0  0
   24.9950   59.2710   -0.3850 C   0  0  0  0  0  0
   24.0630   58.8370    0.5760 C   0  0  0  0  0  0
   24.9390   61.4790    0.5580 C   0  0  0  0  0  0
   24.0110   61.0450    1.5070 C   0  0  0  0  0  0
   23.5710   59.7220    1.5370 C   0  0  0  0  0  0
   22.6120   59.3000    2.4940 C   0  0  0  0  0  0
   22.6050   58.0250    3.0560 C   0  0  0  0  0  0
   21.6380   57.6350    4.0030 C   0  0  0  0  0  0
   21.6110   60.1740    2.8920 C   0  0  0  0  0  0
   20.6410   59.7820    3.8060 C   0  0  0  0  0  0
   20.6410   58.5160    4.3760 C   0  0  0  0  0  0
   19.5690   58.1230    5.3960 C   0  0  0  0  0  0
   18.6240   58.8880    5.6160 O   0  0  0  0  0  0
   19.7050   56.8040    6.1670 C   0  0  0  0  0  0
   18.9070   56.7610    7.4260 N   0  3  0  0  0  0
   19.2350   55.4800    8.0670 C   0  0  0  0  0  0
   17.4550   56.7790    7.1450 C   0  0  0  0  0  0
   19.2100   57.8820    8.3410 C   0  0  0  0  0  0
   20.5630   57.8090    9.0430 C   0  0  0  0  0  0
   21.5790   57.8080    8.1160 O   0  0  0  0  0  0
   23.0400   57.3140    8.5230 P   0  0  0  0  0  0
   23.5390   58.2550    9.6700 O   0  5  0  0  0  0
   23.8220   57.5840    7.2220 O   0  5  0  0  0  0
   23.0460   55.8450    8.8490 O   0  0  0  0  0  0
   24.9005   61.7910   -2.7326 H   0  0  0  0  0  0
   25.4234   60.0988   -3.0320 H   0  0  0  0  0  0
   27.3369   59.6248   -4.2909 H   0  0  0  0  0  0
   28.3371   60.4800   -3.0682 H   0  0  0  0  0  0
   28.4539   60.9355   -4.8019 H   0  0  0  0  0  0
   25.4904   60.7987   -5.3586 H   0  0  0  0  0  0
   26.6094   62.1120   -5.8583 H   0  0  0  0  0  0
   25.1382   62.5004   -4.9037 H   0  0  0  0  0  0
   28.0705   63.1477   -4.1598 H   0  0  0  0  0  0
   26.5017   63.6503   -3.4436 H   0  0  0  0  0  0
   28.7096   62.0545   -2.0362 H   0  0  0  0  0  0
   28.3007   63.7814   -1.7584 H   0  0  0  0  0  0
   28.4061   60.3831   -2.1233 H   0  0  0  0  0  0
   25.3739   58.5717   -1.1304 H   0  0  0  0  0  0
   23.7226   57.8015    0.5699 H   0  0  0  0  0  0
   25.2749   62.5159    0.5584 H   0  0  0  0  0  0
   23.6231   61.7540    2.2384 H   0  0  0  0  0  0
   23.3695   57.3091    2.7542 H   0  0  0  0  0  0
   21.6762   56.6379    4.4417 H   0  0  0  0  0  0
   21.5851   61.1834    2.4815 H   0  0  0  0  0  0
   19.8582   60.4880    4.0833 H   0  0  0  0  0  0
   19.3629   55.9722    5.5337 H   0  0  0  0  0  0
   20.7585   56.6466    6.4414 H   0  0  0  0  0  0
   19.0052   54.6551    7.3766 H   0  0  0  0  0  0
   18.6398   55.3664    8.9851 H   0  0  0  0  0  0
   20.3055   55.4597    8.3192 H   0  0  0  0  0  0
   17.2030   55.9524    6.4645 H   0  0  0  0  0  0
   17.1843   57.7361    6.6753 H   0  0  0  0  0  0
   16.8979   56.6619    8.0862 H   0  0  0  0  0  0
   19.2030   58.8270    7.7780 H   0  0  0  0  0  0
   18.4500   57.9228    9.1352 H   0  0  0  0  0  0
   20.6801   58.6797    9.7049 H   0  0  0  0  0  0
   20.6178   56.8858    9.6385 H   0  0  0  0  0  0
  1  2  1  0  0  0
  1  8  1  0  0  0
  1 35  1  0  0  0
  1 36  1  0  0  0
  2  3  1  0  0  0
  2  4  1  0  0  0
  2  5  1  0  0  0
  3 37  1  0  0  0
  3 38  1  0  0  0
  3 39  1  0  0  0
  4 40  1  0  0  0
  4 41  1  0  0  0
  4 42  1  0  0  0
  5  6  1  0  0  0
  5 43  1  0  0  0
  5 44  1  0  0  0
  6  7  1  0  0  0
  6 45  1  0  0  0
  6 46  1  0  0  0
  7  8  1  0  0  0
  8  9  1  0  0  0
  8 10  1  0  0  0
  9 47  1  0  0  0
 10 11  2  0  0  0
 10 13  1  0  0  0
 11 12  1  0  0  0
 11 48  1  0  0  0
 12 15  2  0  0  0
 12 49  1  0  0  0
 13 14  2  0  0  0
 13 50  1  0  0  0
 14 15  1  0  0  0
 14 51  1  0  0  0
 15 16  1  0  0  0
 16 17  2  0  0  0
 16 19  1  0  0  0
 17 18  1  0  0  0
 17 52  1  0  0  0
 18 21  2  0  0  0
 18 53  1  0  0  0
 19 20  2  0  0  0
 19 54  1  0  0  0
 20 21  1  0  0  0
 20 55  1  0  0  0
 21 22  1  0  0  0
 22 23  2  0  0  0
 22 24  1  0  0  0
 24 25  1  0  0  0
 24 56  1  0  0  0
 24 57  1  0  0  0
 25 26  1  0  0  0
 25 27  1  0  0  0
 25 28  1  0  0  0
 26 58  1  0  0  0
 26 59  1  0  0  0
 26 60  1  0  0  0
 27 61  1  0  0  0
 27 62  1  0  0  0
 27 63  1  0  0  0
 28 29  1  0  0  0
 28 64  1  0  0  0
 28 65  1  0  0  0
 29 30  1  0  0  0
 29 66  1  0  0  0
 29 67  1  0  0  0
 30 31  1  0  0  0
 31 32  1  0  0  0
 31 33  1  0  0  0
 31 34  2  0  0  0
M  CHG  4   2   1  25   1  32  -1  33  -1
M  END
> <s_m_source_file>
../3feg_ligand.sdf

> <i_m_source_file_index>
1

> <s_epik_input>
W0NIM11bTitdMShbQ0gzXSlbQ0gyXVtDQEBdKFtPSF0pKE9bQ0gyXVtDSDJdMSljMltjSF1bY0hdYyhbY0hdW2NIXTIpLWMzW2NIXVtjSF1jKFtjSF1bY0hdMylDKD1PKVtDSDJdW04rXShbQ0gzXSkoW0NIM10pW0NIMl1bQ0gyXU9QKD1PKShbT0hdKVtPSF0=

> <s_epik_cmdline>
J2VwaWtfYXBwJywgJy1pbWFlJywgJ2xpZ2FuZF9wcm8ubWFlJywgJy1vbWFlJywgJ2xpZ2FuZF9wcmVwLm1hZScsICctbXMnLCAnMScsICctcGgnLCAnNycsICctcGh0JywgJzAuNScsICctbnQn

> <r_epik_Ionization_Penalty>
  0.0489

> <r_epik_Ionization_Penalty_Charging>
  0.0460

> <r_epik_Ionization_Penalty_Neutral>
  0.0029

> <r_epik_State_Penalty>
  0.0391

> <r_epik_Charging_Adjusted_Penalty>
0.0850310129962176

> <i_epik_Tot_Q>
0

> <i_epik_Tot_abs_Q>
4

$$$$
