3fei_ligand
                    3D
 Schrodinger Suite 2020-3.
 50 52  0  0  1  0            999 V2000
   48.0770   31.0950   35.1900 N   0  0  0  0  0  0
   48.3560   31.4880   36.4230 C   0  0  0  0  0  0
   47.3110   32.7150   37.0750 S   0  0  0  0  0  0
   46.9890   31.7680   34.7000 C   0  0  0  0  0  0
   46.4480   32.6790   35.5610 C   0  0  0  0  0  0
   48.4710   38.0940   28.5530 C   0  0  0  0  0  0
   46.3480   35.4980   30.2460 C   0  0  0  0  0  0
   46.6050   36.4950   29.1620 C   0  0  0  0  0  0
   49.4190   31.0020   37.2940 C   0  0  0  0  0  0
   45.4390   35.7820   31.2780 C   0  0  0  0  0  0
   47.8950   37.2030   29.6000 C   0  0  2  0  0  0
   45.2200   34.8520   32.2780 C   0  0  0  0  0  0
   48.2400   39.2980   28.4940 O   0  0  0  0  0  0
   47.0560   34.2920   30.2290 C   0  0  0  0  0  0
   49.5380   31.5550   38.5760 C   0  0  0  0  0  0
   50.3150   30.0000   36.8960 C   0  0  0  0  0  0
   46.3950   31.5680   33.3200 C   0  0  0  0  0  0
   45.9290   33.6560   32.2320 C   0  0  0  0  0  0
   45.6680   32.7760   33.2350 O   0  0  0  0  0  0
   49.2860   37.5030   27.6590 O   0  5  0  0  0  0
   51.4260   30.1400   39.0380 C   0  0  0  0  0  0
   46.8460   33.3470   31.2280 C   0  0  0  0  0  0
   50.5380   31.1330   39.4460 C   0  0  0  0  0  0
   51.3150   29.5760   37.7670 C   0  0  0  0  0  0
   52.6980   29.5990   40.1390 Cl  0  0  0  0  0  0
   47.6990   37.9910   30.7720 O   0  0  0  0  0  0
   44.6710   37.0660   31.3160 C   0  0  0  0  0  0
   48.9290   38.6250   31.1170 C   0  0  0  0  0  0
   48.6920   39.6220   32.2510 C   0  0  0  0  0  0
   45.5856   33.3046   35.3308 H   0  0  0  0  0  0
   46.7272   35.9705   28.2029 H   0  0  0  0  0  0
   45.7552   37.1901   29.0941 H   0  0  0  0  0  0
   48.6272   36.4217   29.8519 H   0  0  0  0  0  0
   44.5104   35.0510   33.0811 H   0  0  0  0  0  0
   47.7728   34.0924   29.4325 H   0  0  0  0  0  0
   48.8374   32.3264   38.8959 H   0  0  0  0  0  0
   50.2289   29.5532   35.9055 H   0  0  0  0  0  0
   47.2054   31.4655   32.5833 H   0  0  0  0  0  0
   45.7776   30.6576   33.3150 H   0  0  0  0  0  0
   47.3803   32.3969   31.2260 H   0  0  0  0  0  0
   50.6261   31.5754   40.4383 H   0  0  0  0  0  0
   52.0140   28.8002   37.4545 H   0  0  0  0  0  0
   44.9588   37.6909   30.4577 H   0  0  0  0  0  0
   44.8963   37.6005   32.2506 H   0  0  0  0  0  0
   43.5934   36.8503   31.2676 H   0  0  0  0  0  0
   49.6540   37.8652   31.4441 H   0  0  0  0  0  0
   49.3260   39.1570   30.2398 H   0  0  0  0  0  0
   49.6420   40.1095   32.5151 H   0  0  0  0  0  0
   48.2957   39.0911   33.1291 H   0  0  0  0  0  0
   47.9677   40.3829   31.9248 H   0  0  0  0  0  0
  1  2  2  0  0  0
  1  4  1  0  0  0
  2  3  1  0  0  0
  2  9  1  0  0  0
  3  5  1  0  0  0
  4  5  2  0  0  0
  4 17  1  0  0  0
  5 30  1  0  0  0
  6 11  1  0  0  0
  6 13  2  0  0  0
  6 20  1  0  0  0
  7  8  1  0  0  0
  7 10  2  0  0  0
  7 14  1  0  0  0
  8 11  1  0  0  0
  8 31  1  0  0  0
  8 32  1  0  0  0
  9 15  2  0  0  0
  9 16  1  0  0  0
 10 12  1  0  0  0
 10 27  1  0  0  0
 11 26  1  0  0  0
 11 33  1  0  0  0
 12 18  2  0  0  0
 12 34  1  0  0  0
 14 22  2  0  0  0
 14 35  1  0  0  0
 15 23  1  0  0  0
 15 36  1  0  0  0
 16 24  2  0  0  0
 16 37  1  0  0  0
 17 19  1  0  0  0
 17 38  1  0  0  0
 17 39  1  0  0  0
 18 19  1  0  0  0
 18 22  1  0  0  0
 21 23  2  0  0  0
 21 24  1  0  0  0
 21 25  1  0  0  0
 22 40  1  0  0  0
 23 41  1  0  0  0
 24 42  1  0  0  0
 26 28  1  0  0  0
 27 43  1  0  0  0
 27 44  1  0  0  0
 27 45  1  0  0  0
 28 29  1  0  0  0
 28 46  1  0  0  0
 28 47  1  0  0  0
 29 48  1  0  0  0
 29 49  1  0  0  0
 29 50  1  0  0  0
M  CHG  1  20  -1
M  END
> <s_m_source_file>
../3fei_ligand.sdf

> <i_m_source_file_index>
1

> <s_epik_input>
W2NIXTFbY0hdYyhDbClbY0hdW2NIXWMxLWMybmMoW2NIXXMyKVtDSDJdT2MoW2NIXVtjSF0zKVtjSF1jKFtDSDNdKWMzW0NIMl1bQ0BASF0oQyg9TylbT0hdKU9bQ0gyXVtDSDNd

> <s_epik_cmdline>
J2VwaWtfYXBwJywgJy1pbWFlJywgJ2xpZ2FuZF9wcm8ubWFlJywgJy1vbWFlJywgJ2xpZ2FuZF9wcmVwLm1hZScsICctbXMnLCAnMScsICctcGgnLCAnNycsICctcGh0JywgJzAuNScsICctbnQn

> <r_lp_tautomer_probability>
1

> <r_epik_Ionization_Penalty>
  0.0004

> <r_epik_Ionization_Penalty_Charging>
  0.0004

> <r_epik_Ionization_Penalty_Neutral>
  0.0000

> <r_epik_State_Penalty>
 -0.0000

> <r_epik_Charging_Adjusted_Penalty>
0.00041426071065441

> <i_epik_Tot_Q>
-1

> <i_epik_Tot_abs_Q>
1

$$$$
