3fej_ligand
                    3D
 Schrodinger Suite 2020-3.
 50 52  0  0  1  0            999 V2000
    6.7330   24.1690   17.1050 N   0  0  0  0  0  0
    7.0120   24.4000   15.8520 C   0  0  0  0  0  0
    7.6150   26.0030   15.5000 S   0  0  0  0  0  0
    6.9720   25.2660   17.8680 C   0  0  0  0  0  0
    7.4530   26.3440   17.1970 C   0  0  0  0  0  0
   -1.2690   28.4770   20.0010 C   0  0  0  0  0  0
    2.4520   27.6830   20.4590 C   0  0  0  0  0  0
    1.0520   28.1220   20.7880 C   0  0  0  0  0  0
    6.8290   23.4120   14.7980 C   0  0  0  0  0  0
    3.3860   28.6040   19.9710 C   0  0  0  0  0  0
    0.1180   28.0780   19.5730 C   0  0  2  0  0  0
    4.6960   28.2030   19.7420 C   0  0  0  0  0  0
   -1.5900   29.7030   19.9690 O   0  5  0  0  0  0
    2.8340   26.3560   20.6780 C   0  0  0  0  0  0
    7.1460   23.7110   13.4670 C   0  0  0  0  0  0
    6.3110   22.1470   15.1080 C   0  0  0  0  0  0
    6.7030   25.2430   19.3420 C   0  0  0  0  0  0
    5.0730   26.8850   19.9860 C   0  0  0  0  0  0
    6.3890   26.5540   19.7850 O   0  0  0  0  0  0
   -2.0470   27.5760   20.4340 O   0  0  0  0  0  0
    6.4030   21.5220   12.7850 C   0  0  0  0  0  0
    4.1440   25.9470   20.4400 C   0  0  0  0  0  0
    6.9340   22.7730   12.4650 C   0  0  0  0  0  0
    6.0980   21.2070   14.1100 C   0  0  0  0  0  0
    6.1080   20.3430   11.5180 Cl  0  0  0  0  0  0
    0.5940   28.9380   18.5370 O   0  0  0  0  0  0
    3.0150   30.0380   19.7160 C   0  0  0  0  0  0
    0.1630   28.5100   17.2480 C   0  0  0  0  0  0
    0.7000   29.4520   16.1700 C   0  0  0  0  0  0
    7.7044   27.2976   17.6612 H   0  0  0  0  0  0
    0.6322   27.4605   21.5601 H   0  0  0  0  0  0
    1.0704   29.1564   21.1619 H   0  0  0  0  0  0
    0.1004   27.0810   19.1086 H   0  0  0  0  0  0
    5.4287   28.9199   19.3714 H   0  0  0  0  0  0
    2.1001   25.6351   21.0382 H   0  0  0  0  0  0
    7.5620   24.6867   13.2158 H   0  0  0  0  0  0
    6.0733   21.8995   16.1426 H   0  0  0  0  0  0
    5.8560   24.5726   19.5497 H   0  0  0  0  0  0
    7.5961   24.8805   19.8721 H   0  0  0  0  0  0
    4.4392   24.9109   20.6056 H   0  0  0  0  0  0
    7.1816   23.0129   11.4310 H   0  0  0  0  0  0
    5.6939   20.2260   14.3599 H   0  0  0  0  0  0
    1.9495   30.1874   19.9451 H   0  0  0  0  0  0
    3.2008   30.2825   18.6597 H   0  0  0  0  0  0
    3.6232   30.6936   20.3566 H   0  0  0  0  0  0
    0.5364   27.4934   17.0554 H   0  0  0  0  0  0
   -0.9364   28.5101   17.2102 H   0  0  0  0  0  0
    0.3598   29.1098   15.1815 H   0  0  0  0  0  0
    1.7996   29.4536   16.1991 H   0  0  0  0  0  0
    0.3269   30.4703   16.3539 H   0  0  0  0  0  0
  1  2  2  0  0  0
  1  4  1  0  0  0
  2  3  1  0  0  0
  2  9  1  0  0  0
  3  5  1  0  0  0
  4  5  2  0  0  0
  4 17  1  0  0  0
  5 30  1  0  0  0
  6 11  1  0  0  0
  6 13  1  0  0  0
  6 20  2  0  0  0
  7  8  1  0  0  0
  7 10  2  0  0  0
  7 14  1  0  0  0
  8 11  1  0  0  0
  8 31  1  0  0  0
  8 32  1  0  0  0
  9 15  2  0  0  0
  9 16  1  0  0  0
 10 12  1  0  0  0
 10 27  1  0  0  0
 11 26  1  0  0  0
 11 33  1  0  0  0
 12 18  2  0  0  0
 12 34  1  0  0  0
 14 22  2  0  0  0
 14 35  1  0  0  0
 15 23  1  0  0  0
 15 36  1  0  0  0
 16 24  2  0  0  0
 16 37  1  0  0  0
 17 19  1  0  0  0
 17 38  1  0  0  0
 17 39  1  0  0  0
 18 19  1  0  0  0
 18 22  1  0  0  0
 21 23  2  0  0  0
 21 24  1  0  0  0
 21 25  1  0  0  0
 22 40  1  0  0  0
 23 41  1  0  0  0
 24 42  1  0  0  0
 26 28  1  0  0  0
 27 43  1  0  0  0
 27 44  1  0  0  0
 27 45  1  0  0  0
 28 29  1  0  0  0
 28 46  1  0  0  0
 28 47  1  0  0  0
 29 48  1  0  0  0
 29 49  1  0  0  0
 29 50  1  0  0  0
M  CHG  1  13  -1
M  END
> <s_m_source_file>
../3fej_ligand.sdf

> <i_m_source_file_index>
1

> <s_epik_input>
W2NIXTFbY0hdYyhDbClbY0hdW2NIXWMxLWMybmMoW2NIXXMyKVtDSDJdT2MoW2NIXVtjSF0zKVtjSF1jKFtDSDNdKWMzW0NIMl1bQ0BASF0oQyg9TylbT0hdKU9bQ0gyXVtDSDNd

> <s_epik_cmdline>
J2VwaWtfYXBwJywgJy1pbWFlJywgJ2xpZ2FuZF9wcm8ubWFlJywgJy1vbWFlJywgJ2xpZ2FuZF9wcmVwLm1hZScsICctbXMnLCAnMScsICctcGgnLCAnNycsICctcGh0JywgJzAuNScsICctbnQn

> <r_lp_tautomer_probability>
1

> <r_epik_Ionization_Penalty>
  0.0004

> <r_epik_Ionization_Penalty_Charging>
  0.0004

> <r_epik_Ionization_Penalty_Neutral>
  0.0000

> <r_epik_State_Penalty>
 -0.0000

> <r_epik_Charging_Adjusted_Penalty>
0.00041426071065441

> <i_epik_Tot_Q>
-1

> <i_epik_Tot_abs_Q>
1

$$$$
