3ff6_ligand
                    3D
 Schrodinger Suite 2020-3.
 72 77  0  0  1  0            999 V2000
    8.6880   17.8500   26.0430 C   0  0  0  0  0  0
    9.6030   16.6560   25.9210 C   0  0  0  0  0  0
   10.9300   17.0780   25.6430 O   0  0  0  0  0  0
   10.9610   17.7800   24.4120 C   0  0  0  0  0  0
   10.3320   19.1160   24.6870 C   0  0  0  0  0  0
    8.9630   18.9020   25.0730 N   0  0  0  0  0  0
    7.9700   19.4900   24.3190 C   0  0  0  0  0  0
    8.1080   19.9000   23.1750 O   0  0  0  0  0  0
    6.6600   19.5680   25.0550 C   0  0  1  0  0  0
    6.2320   21.0160   25.2290 C   0  0  0  0  0  0
    5.6750   18.6960   24.3070 C   0  0  0  0  0  0
    5.1800   19.3860   23.0750 C   0  0  0  0  0  0
    4.6210   20.7170   23.4750 C   0  0  0  0  0  0
    5.7120   21.5880   23.9750 N   0  3  1  0  0  0
    5.2900   23.0170   24.0850 C   0  0  0  0  0  0
    3.8030   23.1890   24.2910 C   0  0  0  0  0  0
    3.4850   24.6230   24.0010 C   0  0  0  0  0  0
    5.9780   23.7670   25.1970 C   0  0  0  0  0  0
    5.5960   25.2280   25.1160 C   0  0  0  0  0  0
    4.1680   25.4260   24.9670 N   0  0  0  0  0  0
    3.4330   26.3330   25.6870 C   0  0  0  0  0  0
    2.2230   26.4980   25.6360 O   0  0  0  0  0  0
    4.2020   27.1700   26.6010 C   0  0  0  0  0  0
    4.3240   26.7770   27.9240 C   0  0  0  0  0  0
    3.7490   25.6200   28.4140 C   0  0  0  0  0  0
    3.8960   25.2700   29.7330 C   0  0  0  0  0  0
    4.6220   26.0730   30.5750 C   0  0  0  0  0  0
    5.1990   27.2240   30.0950 C   0  0  0  0  0  0
    5.0500   27.5760   28.7730 C   0  0  0  0  0  0
    5.6290   28.7320   28.2980 C   0  0  0  0  0  0
    5.4940   29.1050   26.9760 C   0  0  0  0  0  0
    4.7750   28.3230   26.1030 C   0  0  0  0  0  0
    4.6480   28.7120   24.7830 C   0  0  0  0  0  0
    5.2310   29.8750   24.3330 C   0  0  0  0  0  0
    5.9490   30.6510   25.2080 C   0  0  0  0  0  0
    6.0800   30.2660   26.5240 C   0  0  0  0  0  0
    7.6463   17.5305   25.8922 H   0  0  0  0  0  0
    8.7944   18.2927   27.0443 H   0  0  0  0  0  0
    9.5963   16.0910   26.8648 H   0  0  0  0  0  0
    9.2536   16.0083   25.1034 H   0  0  0  0  0  0
   12.0036   17.8907   24.0792 H   0  0  0  0  0  0
   10.3923   17.2192   23.6557 H   0  0  0  0  0  0
   10.8781   19.6181   25.4992 H   0  0  0  0  0  0
   10.3747   19.7353   23.7789 H   0  0  0  0  0  0
    6.7406   19.1782   26.0804 H   0  0  0  0  0  0
    5.4398   21.0753   25.9899 H   0  0  0  0  0  0
    7.0951   21.6173   25.5507 H   0  0  0  0  0  0
    6.1664   17.7567   24.0131 H   0  0  0  0  0  0
    4.8159   18.4727   24.9567 H   0  0  0  0  0  0
    6.0142   19.5229   22.3712 H   0  0  0  0  0  0
    4.3975   18.7747   22.6017 H   0  0  0  0  0  0
    4.1458   21.1918   22.6040 H   0  0  0  0  0  0
    3.8733   20.5769   24.2696 H   0  0  0  0  0  0
    6.5418   21.5997   23.2530 H   0  0  0  0  0  0
    5.5942   23.4261   23.1103 H   0  0  0  0  0  0
    3.2584   22.5233   23.6052 H   0  0  0  0  0  0
    3.5450   22.9357   25.3299 H   0  0  0  0  0  0
    3.8246   24.8758   22.9857 H   0  0  0  0  0  0
    2.3987   24.7797   24.0739 H   0  0  0  0  0  0
    5.6631   23.3547   26.1670 H   0  0  0  0  0  0
    7.0678   23.6623   25.0905 H   0  0  0  0  0  0
    5.9129   25.7414   26.0358 H   0  0  0  0  0  0
    6.0920   25.6892   24.2493 H   0  0  0  0  0  0
    3.1731   24.9790   27.7465 H   0  0  0  0  0  0
    3.4369   24.3562   30.1103 H   0  0  0  0  0  0
    4.7411   25.7987   31.6232 H   0  0  0  0  0  0
    5.7773   27.8610   30.7643 H   0  0  0  0  0  0
    6.2031   29.3624   28.9771 H   0  0  0  0  0  0
    4.0798   28.0910   24.0904 H   0  0  0  0  0  0
    5.1233   30.1768   23.2912 H   0  0  0  0  0  0
    6.4160   31.5728   24.8613 H   0  0  0  0  0  0
    6.6527   30.8860   27.2137 H   0  0  0  0  0  0
  1  2  1  0  0  0
  1  6  1  0  0  0
  1 37  1  0  0  0
  1 38  1  0  0  0
  2  3  1  0  0  0
  2 39  1  0  0  0
  2 40  1  0  0  0
  3  4  1  0  0  0
  4  5  1  0  0  0
  4 41  1  0  0  0
  4 42  1  0  0  0
  5  6  1  0  0  0
  5 43  1  0  0  0
  5 44  1  0  0  0
  6  7  1  0  0  0
  7  8  2  0  0  0
  7  9  1  0  0  0
  9 10  1  0  0  0
  9 11  1  0  0  0
  9 45  1  0  0  0
 10 14  1  0  0  0
 10 46  1  0  0  0
 10 47  1  0  0  0
 11 12  1  0  0  0
 11 48  1  0  0  0
 11 49  1  0  0  0
 12 13  1  0  0  0
 12 50  1  0  0  0
 12 51  1  0  0  0
 13 14  1  0  0  0
 13 52  1  0  0  0
 13 53  1  0  0  0
 14 15  1  0  0  0
 14 54  1  0  0  0
 15 16  1  0  0  0
 15 18  1  0  0  0
 15 55  1  0  0  0
 16 17  1  0  0  0
 16 56  1  0  0  0
 16 57  1  0  0  0
 17 20  1  0  0  0
 17 58  1  0  0  0
 17 59  1  0  0  0
 18 19  1  0  0  0
 18 60  1  0  0  0
 18 61  1  0  0  0
 19 20  1  0  0  0
 19 62  1  0  0  0
 19 63  1  0  0  0
 20 21  1  0  0  0
 21 22  2  0  0  0
 21 23  1  0  0  0
 23 24  2  0  0  0
 23 32  1  0  0  0
 24 25  1  0  0  0
 24 29  1  0  0  0
 25 26  2  0  0  0
 25 64  1  0  0  0
 26 27  1  0  0  0
 26 65  1  0  0  0
 27 28  2  0  0  0
 27 66  1  0  0  0
 28 29  1  0  0  0
 28 67  1  0  0  0
 29 30  2  0  0  0
 30 31  1  0  0  0
 30 68  1  0  0  0
 31 32  2  0  0  0
 31 36  1  0  0  0
 32 33  1  0  0  0
 33 34  2  0  0  0
 33 69  1  0  0  0
 34 35  1  0  0  0
 34 70  1  0  0  0
 35 36  2  0  0  0
 35 71  1  0  0  0
 36 72  1  0  0  0
M  CHG  1  14   1
M  END
> <s_m_source_file>
../3ff6_ligand.sdf

> <i_m_source_file_index>
1

> <s_epik_input>
W0NIMl0xW0NIMl1PW0NIMl1bQ0gyXU4xQyg9TylbQ0BIXTJbQ0gyXVtOQEBIK10oW0NIMl1bQ0gyXVtDSDJdMilbQ0hdM1tDSDJdW0NIMl1OKFtDSDJdW0NIMl0zKUMoPU8pYzRjKFtjSF1bY0hdW2NIXVtjSF01KWM1W2NIXWMoYzQ2KVtjSF1bY0hdW2NIXVtjSF02

> <s_epik_cmdline>
J2VwaWtfYXBwJywgJy1pbWFlJywgJ2xpZ2FuZF9wcm8ubWFlJywgJy1vbWFlJywgJ2xpZ2FuZF9wcmVwLm1hZScsICctbXMnLCAnMScsICctcGgnLCAnNycsICctcGh0JywgJzAuNScsICctbnQn

> <r_epik_Ionization_Penalty>
  0.0117

> <r_epik_Ionization_Penalty_Charging>
  0.0117

> <r_epik_Ionization_Penalty_Neutral>
  0.0000

> <r_epik_State_Penalty>
  0.0090

> <r_epik_Charging_Adjusted_Penalty>
0.0207478621571625

> <i_epik_Tot_Q>
1

> <i_epik_Tot_abs_Q>
1

$$$$
