3ffu_ligand
                    3D
 Schrodinger Suite 2020-3.
 45 47  0  0  1  0            999 V2000
   28.0640   -8.8070  -18.3680 P   0  0  0  0  0  0
   27.8920   -7.4940  -19.1260 O   0  0  0  0  0  0
   27.9650   -8.5420  -16.8670 O   0  5  0  0  0  0
   29.4530   -9.3790  -18.6510 O   0  0  0  0  0  0
   26.8900   -9.8310  -18.8790 O   0  0  0  0  0  0
   25.3030   -9.6130  -18.6110 P   0  0  1  0  0  0
   24.7850   -8.4300  -19.3960 O   0  5  0  0  0  0
   24.5400  -10.8720  -18.9330 O   0  0  0  0  0  0
   25.1250   -9.2980  -17.0280 O   0  0  0  0  0  0
   25.2450  -10.5020  -15.9700 P   0  0  1  0  0  0
   24.8180  -11.7810  -16.6340 O   0  5  0  0  0  0
   26.6510  -10.5600  -15.4570 O   0  0  0  0  0  0
   24.2210  -10.2300  -14.7690 O   0  0  0  0  0  0
   24.2360   -9.0110  -14.0810 C   0  0  0  0  0  0
   24.3400   -9.2030  -12.5590 C   0  0  1  0  0  0
   23.3160   -9.9900  -11.9480 O   0  0  0  0  0  0
   25.6760   -9.8060  -12.1740 C   0  0  1  0  0  0
   26.4020   -8.8250  -11.4500 O   0  0  0  0  0  0
   25.3010  -10.9980  -11.3180 C   0  0  1  0  0  0
   26.1050  -11.0240  -10.1730 O   0  0  0  0  0  0
   23.8720  -10.7390  -10.8780 C   0  0  2  0  0  0
   23.1190  -11.9960  -10.6240 N   0  0  0  0  0  0
   22.6820  -12.4990   -9.4190 C   0  0  0  0  0  0
   22.0200  -13.6640   -9.6750 N   0  0  0  0  0  0
   22.0110  -13.9070  -11.0110 C   0  0  0  0  0  0
   21.4890  -14.9210  -11.8230 C   0  0  0  0  0  0
   20.8760  -15.8820  -11.3500 O   0  0  0  0  0  0
   21.6710  -14.8630  -13.1900 N   0  3  0  0  0  0
   22.3640  -13.8090  -13.7470 C   0  0  0  0  0  0
   22.5720  -13.7100  -15.0520 N   0  0  0  0  0  0
   22.8650  -12.8200  -12.9460 N   0  0  0  0  0  0
   22.7050  -12.8660  -11.6060 C   0  0  0  0  0  0
   30.3505   -8.8100  -18.3668 H   0  0  0  0  0  0
   25.1003   -8.4151  -14.4096 H   0  0  0  0  0  0
   23.3084   -8.4590  -14.2927 H   0  0  0  0  0  0
   24.1673   -8.2083  -12.1223 H   0  0  0  0  0  0
   26.3543  -10.0759  -12.9969 H   0  0  0  0  0  0
   26.7369   -7.9060  -11.9532 H   0  0  0  0  0  0
   25.4707  -11.9656  -11.8130 H   0  0  0  0  0  0
   27.1871  -11.1994  -10.2646 H   0  0  0  0  0  0
   23.7826  -10.1676   -9.9423 H   0  0  0  0  0  0
   22.8369  -12.0482   -8.4387 H   0  0  0  0  0  0
   22.1855  -14.4845  -15.7309 H   0  0  0  0  0  0
   23.1311  -12.8533  -15.4564 H   0  0  0  0  0  0
   21.2635  -15.6568  -13.8333 H   0  0  0  0  0  0
  1  2  2  0  0  0
  1  3  1  0  0  0
  1  4  1  0  0  0
  1  5  1  0  0  0
  4 33  1  0  0  0
  5  6  1  0  0  0
  6  7  1  0  0  0
  6  8  2  0  0  0
  6  9  1  0  0  0
  9 10  1  0  0  0
 10 11  1  0  0  0
 10 12  2  0  0  0
 10 13  1  0  0  0
 13 14  1  0  0  0
 14 15  1  0  0  0
 14 34  1  0  0  0
 14 35  1  0  0  0
 15 16  1  0  0  0
 15 17  1  0  0  0
 15 36  1  0  0  0
 16 21  1  0  0  0
 17 18  1  0  0  0
 17 19  1  0  0  0
 17 37  1  0  0  0
 18 38  1  0  0  0
 19 20  1  0  0  0
 19 21  1  0  0  0
 19 39  1  0  0  0
 20 40  1  0  0  0
 21 22  1  0  0  0
 21 41  1  0  0  0
 22 23  1  0  0  0
 22 32  1  0  0  0
 23 24  2  0  0  0
 23 42  1  0  0  0
 24 25  1  0  0  0
 25 26  1  0  0  0
 25 32  2  0  0  0
 26 27  2  0  0  0
 26 28  1  0  0  0
 28 29  1  0  0  0
 28 45  1  0  0  0
 29 30  1  0  0  0
 29 31  2  0  0  0
 30 43  1  0  0  0
 30 44  1  0  0  0
 31 32  1  0  0  0
M  CHG  4   3  -1   7  -1  11  -1  28   1
M  END
> <s_m_source_file>
../3ffu_ligand.sdf

> <i_m_source_file_index>
1

> <s_epik_input>
Tz1QKFtPSF0pKFtPSF0pT1tQQF0oPU8pKFtPSF0pT1tQQF0oPU8pKFtPSF0pT1tDSDJdW0NASF0xT1tDQEhdKFtDQEhdKFtPSF0pW0NAQEhdMVtPSF0pbihbY0hdbjIpYyhjMjMpW25IXWMoPU5cW0hdKVxbbkhdYzM9Tw==

> <s_epik_cmdline>
J2VwaWtfYXBwJywgJy1pbWFlJywgJ2xpZ2FuZF9wcm8ubWFlJywgJy1vbWFlJywgJ2xpZ2FuZF9wcmVwLm1hZScsICctbXMnLCAnMScsICctcGgnLCAnNycsICctcGh0JywgJzAuNScsICctbnQn

> <r_epik_Ionization_Penalty>
  3.6149

> <r_epik_Ionization_Penalty_Charging>
  2.3889

> <r_epik_Ionization_Penalty_Neutral>
  1.2259

> <r_epik_State_Penalty>
  0.0136

> <r_epik_Charging_Adjusted_Penalty>
2.40246252490279

> <i_epik_Tot_Q>
-2

> <i_epik_Tot_abs_Q>
4

> <s_epik_Chemistry_Notes>
This compound has an imine and may undergo hydrolysis. This compound contains an acetal/aminal-like group ( X-CH(R)-Y where X, Y are N, S, or O) that may be acid/base labile, releasing an aldehyde.

$$$$
