3fgc_ligand
                    3D
 Schrodinger Suite 2020-3.
 50 52  0  0  1  0            999 V2000
    0.6980   19.8780   31.6080 N   0  0  0  0  0  0
    0.5930   21.2340   31.3070 C   0  0  0  0  0  0
   -0.0780   22.0100   32.0040 O   0  0  0  0  0  0
    1.2490   21.7130   30.1990 N   0  0  0  0  0  0
    1.9920   20.8670   29.4230 C   0  0  0  0  0  0
    2.6010   21.3700   28.4930 O   0  0  0  0  0  0
    2.0910   19.4950   29.7370 C   0  0  0  0  0  0
    2.8350   18.6230   28.9460 N   0  0  0  0  0  0
    2.9470   17.2810   29.2490 C   0  0  0  0  0  0
    3.7170   16.4640   28.4270 C   0  0  0  0  0  0
    3.8500   15.1030   28.6970 C   0  0  0  0  0  0
    4.6790   14.2220   27.8090 C   0  0  0  0  0  0
    3.2160   14.5580   29.8010 C   0  0  0  0  0  0
    3.3620   13.0760   30.0470 C   0  0  0  0  0  0
    2.4400   15.3860   30.6280 C   0  0  0  0  0  0
    2.2940   16.7620   30.3710 C   0  0  0  0  0  0
    1.5050   17.6260   31.1750 N   0  0  0  0  0  0
    1.4350   18.9940   30.8500 C   0  0  0  0  0  0
    0.4220   17.0450   32.0760 C   0  0  0  0  0  0
   -0.9920   16.9490   31.4480 C   0  0  2  0  0  0
   -1.5620   18.2530   31.2870 O   0  0  0  0  0  0
   -2.0040   16.1120   32.2870 C   0  0  2  0  0  0
   -1.9390   16.4810   33.6530 O   0  0  0  0  0  0
   -1.9020   14.5720   32.3210 C   0  0  2  0  0  0
   -0.5890   14.0860   32.1410 O   0  0  0  0  0  0
   -2.8650   13.8400   31.3920 C   0  0  0  0  0  0
   -4.0770   14.5360   31.2150 O   0  0  0  0  0  0
   -5.5200   13.9260   31.6380 P   0  0  0  0  0  0
   -5.7590   14.2650   33.1030 O   0  5  0  0  0  0
   -6.5370   14.5580   30.7280 O   0  0  0  0  0  0
   -5.5000   12.4200   31.4940 O   0  5  0  0  0  0
    1.1770   22.7784   29.9350 H   0  0  0  0  0  0
    4.2221   16.8933   27.5618 H   0  0  0  0  0  0
    5.1023   14.8216   26.9897 H   0  0  0  0  0  0
    4.0473   13.4243   27.3911 H   0  0  0  0  0  0
    5.4950   13.7744   28.3953 H   0  0  0  0  0  0
    4.0128   12.6386   29.2755 H   0  0  0  0  0  0
    2.3721   12.5982   30.0056 H   0  0  0  0  0  0
    3.8075   12.9112   31.0391 H   0  0  0  0  0  0
    1.9373   14.9515   31.4920 H   0  0  0  0  0  0
    0.6996   16.0221   32.3702 H   0  0  0  0  0  0
    0.3190   17.6700   32.9753 H   0  0  0  0  0  0
   -0.8630   16.5165   30.4448 H   0  0  0  0  0  0
   -1.0189   19.0247   30.7217 H   0  0  0  0  0  0
   -2.9663   16.3846   31.8291 H   0  0  0  0  0  0
   -1.9891   17.5420   33.9391 H   0  0  0  0  0  0
   -2.1269   14.2800   33.3574 H   0  0  0  0  0  0
    0.2382   14.5039   32.7335 H   0  0  0  0  0  0
   -2.3981   13.7160   30.4038 H   0  0  0  0  0  0
   -3.1004   12.8514   31.8130 H   0  0  0  0  0  0
  1  2  1  0  0  0
  1 18  2  0  0  0
  2  3  2  0  0  0
  2  4  1  0  0  0
  4  5  1  0  0  0
  4 32  1  0  0  0
  5  6  2  0  0  0
  5  7  1  0  0  0
  7  8  2  0  0  0
  7 18  1  0  0  0
  8  9  1  0  0  0
  9 10  2  0  0  0
  9 16  1  0  0  0
 10 11  1  0  0  0
 10 33  1  0  0  0
 11 12  1  0  0  0
 11 13  2  0  0  0
 12 34  1  0  0  0
 12 35  1  0  0  0
 12 36  1  0  0  0
 13 14  1  0  0  0
 13 15  1  0  0  0
 14 37  1  0  0  0
 14 38  1  0  0  0
 14 39  1  0  0  0
 15 16  2  0  0  0
 15 40  1  0  0  0
 16 17  1  0  0  0
 17 18  1  0  0  0
 17 19  1  0  0  0
 19 20  1  0  0  0
 19 41  1  0  0  0
 19 42  1  0  0  0
 20 21  1  0  0  0
 20 22  1  0  0  0
 20 43  1  0  0  0
 21 44  1  0  0  0
 22 23  1  0  0  0
 22 24  1  0  0  0
 22 45  1  0  0  0
 23 46  1  0  0  0
 24 25  1  0  0  0
 24 26  1  0  0  0
 24 47  1  0  0  0
 25 48  1  0  0  0
 26 27  1  0  0  0
 26 49  1  0  0  0
 26 50  1  0  0  0
 27 28  1  0  0  0
 28 29  1  0  0  0
 28 30  2  0  0  0
 28 31  1  0  0  0
M  CHG  2  29  -1  31  -1
M  END
> <s_m_source_file>
../3fgc_ligand.sdf

> <i_m_source_file_index>
1

> <s_epik_input>
Tz1jMVtuSF1jKD1PKW5jKGMxMiluKGMzYyhuMilbY0hdYyhbQ0gzXSljKFtDSDNdKVtjSF0zKVtDSDJdW0NASF0oW09IXSlbQ0BIXShbT0hdKVtDQEhdKFtPSF0pW0NIMl1PUCg9TykoW09IXSlbT0hd

> <s_epik_cmdline>
J2VwaWtfYXBwJywgJy1pbWFlJywgJ2xpZ2FuZF9wcm8ubWFlJywgJy1vbWFlJywgJ2xpZ2FuZF9wcmVwLm1hZScsICctbXMnLCAnMScsICctcGgnLCAnNycsICctcGh0JywgJzAuNScsICctbnQn

> <r_epik_Ionization_Penalty>
  0.1164

> <r_epik_Ionization_Penalty_Charging>
  0.1164

> <r_epik_Ionization_Penalty_Neutral>
  0.0000

> <r_epik_State_Penalty>
  0.1054

> <r_epik_Charging_Adjusted_Penalty>
0.2218027979184

> <i_epik_Tot_Q>
-2

> <i_epik_Tot_abs_Q>
2

$$$$
