3fh7_ligand
                    3D
 Schrodinger Suite 2020-3.
 51 53  0  0  1  0            999 V2000
   24.5860   87.3330   -2.8990 C   0  0  0  0  0  0
   24.0210   86.6650   -3.9770 C   0  0  0  0  0  0
   23.7390   85.3130   -3.8610 C   0  0  0  0  0  0
   23.0740   84.5200   -5.2140 Cl  0  0  0  0  0  0
   23.9910   84.5890   -2.7020 C   0  0  0  0  0  0
   24.5470   85.2560   -1.6180 C   0  0  0  0  0  0
   24.8440   86.6230   -1.7370 C   0  0  0  0  0  0
   25.3730   87.3030   -0.7060 O   0  0  0  0  0  0
   26.5830   86.9350   -0.2250 C   0  0  0  0  0  0
   27.7310   86.9390   -1.0300 C   0  0  0  0  0  0
   28.9660   86.5830   -0.4510 C   0  0  0  0  0  0
   26.6650   86.6090    1.1210 C   0  0  0  0  0  0
   27.8890   86.2660    1.7010 C   0  0  0  0  0  0
   29.0440   86.2410    0.9070 C   0  0  0  0  0  0
   30.2150   85.8980    1.5100 O   0  0  0  0  0  0
   31.1990   85.3340    0.6580 C   0  0  0  0  0  0
   32.0800   84.7140    1.7380 C   0  0  2  0  0  0
   32.7380   85.7800    2.6020 C   0  0  0  0  0  0
   34.0700   85.1580    2.9390 C   0  0  0  0  0  0
   34.4490   84.4730    1.6470 C   0  0  0  0  0  0
   33.1830   83.8610    1.2130 N   0  3  2  0  0  0
   33.1610   83.6650   -0.2320 C   0  0  0  0  0  0
   33.8160   82.3290   -0.4970 C   0  0  0  0  0  0
   35.2170   82.5700   -1.0570 C   0  0  0  0  0  0
   35.1820   83.0630   -2.4900 C   0  0  0  0  0  0
   34.1680   82.7770   -3.1800 O   0  5  0  0  0  0
   36.1980   83.6550   -2.8830 O   0  0  0  0  0  0
   24.8221   88.3951   -2.9652 H   0  0  0  0  0  0
   23.8020   87.1971   -4.9028 H   0  0  0  0  0  0
   23.7584   83.5256   -2.6451 H   0  0  0  0  0  0
   24.7500   84.7254   -0.6877 H   0  0  0  0  0  0
   27.6697   87.2122   -2.0834 H   0  0  0  0  0  0
   29.8675   86.5734   -1.0636 H   0  0  0  0  0  0
   25.7635   86.6206    1.7336 H   0  0  0  0  0  0
   27.9453   86.0201    2.7614 H   0  0  0  0  0  0
   30.7242   84.6127   -0.0233 H   0  0  0  0  0  0
   31.6773   86.1323    0.0715 H   0  0  0  0  0  0
   31.3985   84.0689    2.3119 H   0  0  0  0  0  0
   32.8373   86.7106    2.0240 H   0  0  0  0  0  0
   32.1179   85.9653    3.4915 H   0  0  0  0  0  0
   34.7804   85.9467    3.2278 H   0  0  0  0  0  0
   33.9448   84.4534    3.7744 H   0  0  0  0  0  0
   34.8243   85.2202    0.9322 H   0  0  0  0  0  0
   35.2335   83.7274    1.8437 H   0  0  0  0  0  0
   33.0695   82.8392    1.6043 H   0  0  0  0  0  0
   32.1197   83.6683   -0.5866 H   0  0  0  0  0  0
   33.7174   84.4783   -0.7209 H   0  0  0  0  0  0
   33.8828   81.7606    0.4424 H   0  0  0  0  0  0
   33.2155   81.7643   -1.2253 H   0  0  0  0  0  0
   35.7304   83.3277   -0.4468 H   0  0  0  0  0  0
   35.7885   81.6304   -1.0321 H   0  0  0  0  0  0
  1  2  2  0  0  0
  1  7  1  0  0  0
  1 28  1  0  0  0
  2  3  1  0  0  0
  2 29  1  0  0  0
  3  4  1  0  0  0
  3  5  2  0  0  0
  5  6  1  0  0  0
  5 30  1  0  0  0
  6  7  2  0  0  0
  6 31  1  0  0  0
  7  8  1  0  0  0
  8  9  1  0  0  0
  9 10  2  0  0  0
  9 12  1  0  0  0
 10 11  1  0  0  0
 10 32  1  0  0  0
 11 14  2  0  0  0
 11 33  1  0  0  0
 12 13  2  0  0  0
 12 34  1  0  0  0
 13 14  1  0  0  0
 13 35  1  0  0  0
 14 15  1  0  0  0
 15 16  1  0  0  0
 16 17  1  0  0  0
 16 36  1  0  0  0
 16 37  1  0  0  0
 17 18  1  0  0  0
 17 21  1  0  0  0
 17 38  1  0  0  0
 18 19  1  0  0  0
 18 39  1  0  0  0
 18 40  1  0  0  0
 19 20  1  0  0  0
 19 41  1  0  0  0
 19 42  1  0  0  0
 20 21  1  0  0  0
 20 43  1  0  0  0
 20 44  1  0  0  0
 21 22  1  0  0  0
 21 45  1  0  0  0
 22 23  1  0  0  0
 22 46  1  0  0  0
 22 47  1  0  0  0
 23 24  1  0  0  0
 23 48  1  0  0  0
 23 49  1  0  0  0
 24 25  1  0  0  0
 24 50  1  0  0  0
 24 51  1  0  0  0
 25 26  1  0  0  0
 25 27  2  0  0  0
M  CHG  2  21   1  26  -1
M  END
> <s_m_source_file>
../3fh7_ligand.sdf

> <i_m_source_file_index>
1

> <s_epik_input>
Q2xjMVtjSF1bY0hdYyhbY0hdW2NIXTEpT2MyW2NIXVtjSF1jKFtjSF1bY0hdMilPW0NIMl1bQ0BASF0zW0NIMl1bQ0gyXVtDSDJdW05AQEgrXTNbQ0gyXVtDSDJdW0NIMl1DKD1PKVtPSF0=

> <s_epik_cmdline>
J2VwaWtfYXBwJywgJy1pbWFlJywgJ2xpZ2FuZF9wcm8ubWFlJywgJy1vbWFlJywgJ2xpZ2FuZF9wcmVwLm1hZScsICctbXMnLCAnMScsICctcGgnLCAnNycsICctcGh0JywgJzAuNScsICctbnQn

> <r_lp_tautomer_probability>
1

> <r_epik_Ionization_Penalty>
  0.0043

> <r_epik_Ionization_Penalty_Charging>
  0.0043

> <r_epik_Ionization_Penalty_Neutral>
  0.0000

> <r_epik_State_Penalty>
 -0.0000

> <r_epik_Charging_Adjusted_Penalty>
0.00426304854077169

> <i_epik_Tot_Q>
0

> <i_epik_Tot_abs_Q>
2

$$$$
