3fhb_ligand
                    3D
 Schrodinger Suite 2020-3.
 16 16  0  0  1  0            999 V2000
   15.8290   -7.0170   11.2010 C   0  0  0  0  0  0
   14.6310   -6.6170   11.2000 O   0  5  0  0  0  0
   16.8390   -6.3450   11.5520 O   0  0  0  0  0  0
   16.1020   -8.4350   10.7320 C   0  0  0  0  0  0
   17.1930   -9.1380   11.2190 C   0  0  0  0  0  0
   17.4080  -10.4350   10.7530 C   0  0  0  0  0  0
   16.5740  -11.0240    9.8240 C   0  0  0  0  0  0
   15.4900  -10.3050    9.3460 C   0  0  0  0  0  0
   15.2560   -9.0150    9.8020 C   0  0  0  0  0  0
   18.4350  -11.1360   11.1990 N   0  0  0  0  0  0
   17.8665   -8.6881   11.9484 H   0  0  0  0  0  0
   16.7649  -12.0379    9.4722 H   0  0  0  0  0  0
   14.8207  -10.7528    8.6114 H   0  0  0  0  0  0
   14.4003   -8.4547    9.4253 H   0  0  0  0  0  0
   19.1199  -10.6977   11.9398 H   0  0  0  0  0  0
   18.6052  -12.1581   10.8296 H   0  0  0  0  0  0
  1  2  1  0  0  0
  1  3  2  0  0  0
  1  4  1  0  0  0
  4  5  2  0  0  0
  4  9  1  0  0  0
  5  6  1  0  0  0
  5 11  1  0  0  0
  6  7  2  0  0  0
  6 10  1  0  0  0
  7  8  1  0  0  0
  7 12  1  0  0  0
  8  9  2  0  0  0
  8 13  1  0  0  0
  9 14  1  0  0  0
 10 15  1  0  0  0
 10 16  1  0  0  0
M  CHG  1   2  -1
M  END
> <s_m_source_file>
../3fhb_ligand.sdf

> <i_m_source_file_index>
1

> <s_epik_input>
W09IXUMoPU8pYzFbY0hdYyhbTkgyXSlbY0hdW2NIXVtjSF0x

> <s_epik_cmdline>
J2VwaWtfYXBwJywgJy1pbWFlJywgJ2xpZ2FuZF9wcm8ubWFlJywgJy1vbWFlJywgJ2xpZ2FuZF9wcmVwLm1hZScsICctbXMnLCAnMScsICctcGgnLCAnNycsICctcGh0JywgJzAuNScsICctbnQn

> <r_lp_tautomer_probability>
1

> <r_epik_Ionization_Penalty>
  0.0021

> <r_epik_Ionization_Penalty_Charging>
  0.0009

> <r_epik_Ionization_Penalty_Neutral>
  0.0012

> <r_epik_State_Penalty>
 -0.0000

> <r_epik_Charging_Adjusted_Penalty>
0.000875703197476001

> <i_epik_Tot_Q>
-1

> <i_epik_Tot_abs_Q>
1

$$$$
