3fhe_ligand
                    3D
 Schrodinger Suite 2020-3.
 49 50  0  0  1  0            999 V2000
   24.1120   86.4030   -3.9430 C   0  0  0  0  0  0
   23.8000   85.5770   -5.0040 C   0  0  0  0  0  0
   23.5280   84.2400   -4.7880 C   0  0  0  0  0  0
   23.5630   83.7290   -3.4950 C   0  0  0  0  0  0
   23.8800   84.5550   -2.4300 C   0  0  0  0  0  0
   24.1680   85.8970   -2.6570 C   0  0  0  0  0  0
   24.5000   86.8410   -1.4840 C   0  0  0  0  0  0
   25.9490   86.7050   -0.9790 C   0  0  0  0  0  0
   26.1770   86.0680    0.2100 C   0  0  0  0  0  0
   27.4560   85.9300    0.7090 C   0  0  0  0  0  0
   27.0110   87.2410   -1.6830 C   0  0  0  0  0  0
   28.3060   87.1150   -1.2060 C   0  0  0  0  0  0
   28.5250   86.4650   -0.0070 C   0  0  0  0  0  0
   29.7900   86.3700    0.4380 O   0  0  0  0  0  0
   29.9940   85.6300    1.7010 C   0  0  0  0  0  0
   31.4980   85.3090    1.7410 C   0  0  0  0  0  0
   32.0900   84.8360    0.3810 C   0  0  0  0  0  0
   33.2070   83.8840    0.5490 N   0  3  2  0  0  0
   34.3100   84.3640    1.3920 C   0  0  0  0  0  0
   33.6480   83.3420   -0.7560 C   0  0  0  0  0  0
   34.8580   84.0770   -1.2860 C   0  0  0  0  0  0
   35.3020   83.4900   -2.6490 C   0  0  0  0  0  0
   34.4670   83.1540   -3.5190 O   0  5  0  0  0  0
   36.5090   83.3700   -2.8650 O   0  0  0  0  0  0
   24.3152   87.4592   -4.1195 H   0  0  0  0  0  0
   23.7681   85.9811   -6.0158 H   0  0  0  0  0  0
   23.2869   83.5881   -5.6276 H   0  0  0  0  0  0
   23.3405   82.6764   -3.3197 H   0  0  0  0  0  0
   23.9039   84.1549   -1.4164 H   0  0  0  0  0  0
   24.3580   87.8845   -1.8017 H   0  0  0  0  0  0
   23.8335   86.6217   -0.6369 H   0  0  0  0  0  0
   25.3353   85.6632    0.7719 H   0  0  0  0  0  0
   27.6279   85.4093    1.6510 H   0  0  0  0  0  0
   26.8285   87.7667   -2.6203 H   0  0  0  0  0  0
   29.1432   87.5246   -1.7712 H   0  0  0  0  0  0
   29.6926   86.2623    2.5492 H   0  0  0  0  0  0
   29.3849   84.7141    1.6918 H   0  0  0  0  0  0
   32.0570   86.2082    2.0393 H   0  0  0  0  0  0
   31.6821   84.5047    2.4685 H   0  0  0  0  0  0
   31.3056   84.3364   -0.2064 H   0  0  0  0  0  0
   32.4680   85.7056   -0.1767 H   0  0  0  0  0  0
   32.8059   83.0480    1.1408 H   0  0  0  0  0  0
   33.9061   84.7498    2.3397 H   0  0  0  0  0  0
   34.8485   85.1678    0.8686 H   0  0  0  0  0  0
   35.0014   83.5338    1.5990 H   0  0  0  0  0  0
   33.9104   82.2798   -0.6421 H   0  0  0  0  0  0
   32.8336   83.4420   -1.4887 H   0  0  0  0  0  0
   34.6111   85.1405   -1.4206 H   0  0  0  0  0  0
   35.6879   83.9809   -0.5704 H   0  0  0  0  0  0
  1  2  2  0  0  0
  1  6  1  0  0  0
  1 25  1  0  0  0
  2  3  1  0  0  0
  2 26  1  0  0  0
  3  4  2  0  0  0
  3 27  1  0  0  0
  4  5  1  0  0  0
  4 28  1  0  0  0
  5  6  2  0  0  0
  5 29  1  0  0  0
  6  7  1  0  0  0
  7  8  1  0  0  0
  7 30  1  0  0  0
  7 31  1  0  0  0
  8  9  2  0  0  0
  8 11  1  0  0  0
  9 10  1  0  0  0
  9 32  1  0  0  0
 10 13  2  0  0  0
 10 33  1  0  0  0
 11 12  2  0  0  0
 11 34  1  0  0  0
 12 13  1  0  0  0
 12 35  1  0  0  0
 13 14  1  0  0  0
 14 15  1  0  0  0
 15 16  1  0  0  0
 15 36  1  0  0  0
 15 37  1  0  0  0
 16 17  1  0  0  0
 16 38  1  0  0  0
 16 39  1  0  0  0
 17 18  1  0  0  0
 17 40  1  0  0  0
 17 41  1  0  0  0
 18 19  1  0  0  0
 18 20  1  0  0  0
 18 42  1  0  0  0
 19 43  1  0  0  0
 19 44  1  0  0  0
 19 45  1  0  0  0
 20 21  1  0  0  0
 20 46  1  0  0  0
 20 47  1  0  0  0
 21 22  1  0  0  0
 21 48  1  0  0  0
 21 49  1  0  0  0
 22 23  1  0  0  0
 22 24  2  0  0  0
M  CHG  2  18   1  23  -1
M  END
> <s_m_source_file>
../3fhe_ligand.sdf

> <i_m_source_file_index>
1

> <s_epik_input>
W2NIXTFbY0hdW2NIXVtjSF1bY0hdYzFbQ0gyXWMyW2NIXVtjSF1jKFtjSF1bY0hdMilPW0NIMl1bQ0gyXVtDSDJdW05ASCtdKFtDSDNdKVtDSDJdW0NIMl1DKD1PKVtPSF0=

> <s_epik_cmdline>
J2VwaWtfYXBwJywgJy1pbWFlJywgJ2xpZ2FuZF9wcm8ubWFlJywgJy1vbWFlJywgJ2xpZ2FuZF9wcmVwLm1hZScsICctbXMnLCAnMScsICctcGgnLCAnNycsICctcGh0JywgJzAuNScsICctbnQn

> <r_lp_tautomer_probability>
1

> <r_epik_Ionization_Penalty>
  0.0011

> <r_epik_Ionization_Penalty_Charging>
  0.0011

> <r_epik_Ionization_Penalty_Neutral>
  0.0000

> <r_epik_State_Penalty>
 -0.0000

> <r_epik_Charging_Adjusted_Penalty>
0.00110488661602956

> <i_epik_Tot_Q>
0

> <i_epik_Tot_abs_Q>
2

$$$$
