3fi2_ligand
                    3D
 Schrodinger Suite 2020-3.
 68 71  0  0  1  0            999 V2000
   14.5350   34.6280   10.6880 O   0  0  0  0  0  0
   15.0360   36.6770    9.4420 N   0  0  0  0  0  0
    1.6180   39.4260   14.2990 C   0  0  0  0  0  0
    1.2650   36.6160   12.7520 O   0  0  0  0  0  0
   16.4160   38.5370    6.4700 C   0  0  0  0  0  0
   14.4570   39.7050    7.4600 C   0  0  0  0  0  0
    9.6320   31.5020   13.6850 C   0  0  0  0  0  0
   16.2860   37.5390    7.4470 C   0  0  0  0  0  0
    8.4420   32.0250   14.3260 C   0  0  0  0  0  0
   10.2280   32.2300   12.4750 C   0  0  0  0  0  0
    3.4670   35.5080   13.1020 C   0  0  0  0  0  0
   11.5180   34.0280   10.4970 C   0  0  0  0  0  0
   14.1340   35.8730   10.2370 C   0  0  1  0  0  0
    6.6210   33.8680   14.4550 C   0  0  0  0  0  0
   15.2380   37.6570    8.4100 C   0  0  0  0  0  0
    4.6690   35.3750   13.9100 C   0  0  0  0  0  0
    7.8470   33.2050   13.8260 C   0  0  0  0  0  0
    9.6130   33.3790   12.0340 C   0  0  0  0  0  0
    3.8280   37.1620   15.4780 C   0  0  0  0  0  0
    2.4280   36.4850   13.5320 C   0  0  0  0  0  0
    2.6410   37.2960   14.7200 C   0  0  0  0  0  0
    5.1420   37.5900   17.4520 C   0  0  0  0  0  0
    9.3410   34.8370    9.9480 N   0  0  1  0  0  0
    1.0000   36.3070   11.3890 C   0  0  0  0  0  0
    6.3730   33.8010   15.6010 O   0  0  0  0  0  0
   12.8840   35.7870    9.5120 N   0  3  0  0  0  0
    4.0690   37.9350   16.6090 O   0  0  0  0  0  0
   15.5390   39.6020    6.4580 C   0  0  0  0  0  0
    5.7580   34.5010   13.4860 N   0  0  0  0  0  0
   10.1510   34.1070   10.9220 N   0  0  0  0  0  0
    1.6890   38.2570   15.0850 O   0  0  0  0  0  0
   14.3300   38.7460    8.4090 C   0  0  0  0  0  0
   10.2760   35.7580    9.2720 C   0  0  0  0  0  0
    8.3940   33.9290   12.6620 C   0  0  0  0  0  0
    4.9030   36.1580   15.0550 C   0  0  0  0  0  0
   11.6530   35.0570    9.3200 C   0  0  2  0  0  0
   15.4696   34.5246   11.2588 H   0  0  0  0  0  0
   16.1223   36.6021    9.5981 H   0  0  0  0  0  0
    0.8339   40.0876   14.6959 H   0  0  0  0  0  0
    1.3782   39.1553   13.2601 H   0  0  0  0  0  0
    2.5865   39.9467   14.3280 H   0  0  0  0  0  0
   17.2070   38.4714    5.7230 H   0  0  0  0  0  0
   13.7655   40.5472    7.4356 H   0  0  0  0  0  0
   10.1017   30.5936   14.0623 H   0  0  0  0  0  0
   16.9705   36.6911    7.4707 H   0  0  0  0  0  0
    8.0101   31.5128   15.1858 H   0  0  0  0  0  0
   11.1179   31.8466   11.9758 H   0  0  0  0  0  0
    3.3297   34.9070   12.2031 H   0  0  0  0  0  0
   12.1787   34.2898   11.3366 H   0  0  0  0  0  0
   11.7392   33.0039   10.1619 H   0  0  0  0  0  0
   14.0851   36.3589   11.2226 H   0  0  0  0  0  0
    5.1907   38.2985   18.2921 H   0  0  0  0  0  0
    6.0827   37.6303   16.8833 H   0  0  0  0  0  0
    4.9911   36.5716   17.8395 H   0  0  0  0  0  0
    8.8928   34.2048    9.2847 H   0  0  0  0  0  0
   -0.0447   36.5574   11.1527 H   0  0  0  0  0  0
    1.1676   35.2335   11.2171 H   0  0  0  0  0  0
    1.6722   36.8911   10.7432 H   0  0  0  0  0  0
   12.2944   36.6988    9.6883 H   0  0  0  0  0  0
   13.0902   35.6860    8.4362 H   0  0  0  0  0  0
   15.6453   40.3777    5.6997 H   0  0  0  0  0  0
    5.9169   34.3272   12.4115 H   0  0  0  0  0  0
   13.5423   38.8108    9.1596 H   0  0  0  0  0  0
    9.9445   35.9219    8.2360 H   0  0  0  0  0  0
   10.2954   36.7189    9.8071 H   0  0  0  0  0  0
    7.9180   34.8326   12.2812 H   0  0  0  0  0  0
    5.8255   36.0525   15.6259 H   0  0  0  0  0  0
   11.8724   34.7432    8.2888 H   0  0  0  0  0  0
  1 13  1  0  0  0
  1 37  1  0  0  0
  2 13  1  0  0  0
  2 15  1  0  0  0
  2 38  1  0  0  0
  3 31  1  0  0  0
  3 39  1  0  0  0
  3 40  1  0  0  0
  3 41  1  0  0  0
  4 20  1  0  0  0
  4 24  1  0  0  0
  5  8  2  0  0  0
  5 28  1  0  0  0
  5 42  1  0  0  0
  6 28  2  0  0  0
  6 32  1  0  0  0
  6 43  1  0  0  0
  7  9  2  0  0  0
  7 10  1  0  0  0
  7 44  1  0  0  0
  8 15  1  0  0  0
  8 45  1  0  0  0
  9 17  1  0  0  0
  9 46  1  0  0  0
 10 18  2  0  0  0
 10 47  1  0  0  0
 11 16  2  0  0  0
 11 20  1  0  0  0
 11 48  1  0  0  0
 12 30  1  0  0  0
 12 36  1  0  0  0
 12 49  1  0  0  0
 12 50  1  0  0  0
 13 26  1  0  0  0
 13 51  1  0  0  0
 14 17  1  0  0  0
 14 25  2  0  0  0
 14 29  1  0  0  0
 15 32  2  0  0  0
 16 29  1  0  0  0
 16 35  1  0  0  0
 17 34  2  0  0  0
 18 30  1  0  0  0
 18 34  1  0  0  0
 19 21  1  0  0  0
 19 27  1  0  0  0
 19 35  2  0  0  0
 20 21  2  0  0  0
 21 31  1  0  0  0
 22 27  1  0  0  0
 22 52  1  0  0  0
 22 53  1  0  0  0
 22 54  1  0  0  0
 23 30  1  0  0  0
 23 33  1  0  0  0
 23 55  1  0  0  0
 24 56  1  0  0  0
 24 57  1  0  0  0
 24 58  1  0  0  0
 26 36  1  0  0  0
 26 59  1  0  0  0
 26 60  1  0  0  0
 28 61  1  0  0  0
 29 62  1  0  0  0
 32 63  1  0  0  0
 33 36  1  0  0  0
 33 64  1  0  0  0
 33 65  1  0  0  0
 34 66  1  0  0  0
 35 67  1  0  0  0
 36 68  1  0  0  0
M  CHG  1  26   1
M  END
> <s_m_source_file>
../3fi2_ligand.sdf

> <i_m_source_file_index>
1

> <s_epik_input>
W2NIXTFbY0hdW2NIXVtjSF1bY0hdYzFbTkhdW0NASF0oW09IXSlbTkgyK11bQ0BIXShbQ0gyXVtOSDIrXTIpW0NIMl1OMmMoW2NIXTMpW2NIXVtjSF1bY0hdYzNDKD1PKVtOSF1jNFtjSF1jKE9bQ0gzXSljKE9bQ0gzXSljKFtjSF00KU9bQ0gzXQ==

> <s_epik_cmdline>
J2VwaWtfYXBwJywgJy1pbWFlJywgJ2xpZ2FuZF9wcm8ubWFlJywgJy1vbWFlJywgJ2xpZ2FuZF9wcmVwLm1hZScsICctbXMnLCAnMScsICctcGgnLCAnNycsICctcGh0JywgJzAuNScsICctbnQn

> <r_lp_tautomer_probability>
1

> <r_epik_Ionization_Penalty>
  0.1063

> <r_epik_Ionization_Penalty_Charging>
  0.0948

> <r_epik_Ionization_Penalty_Neutral>
  0.0114

> <r_epik_State_Penalty>
  0.0861

> <r_epik_Charging_Adjusted_Penalty>
0.180979170494964

> <i_epik_Tot_Q>
1

> <i_epik_Tot_abs_Q>
1

> <s_epik_Chemistry_Notes>
This compound contains an acetal/aminal-like group ( X-CH(R)-Y where X, Y are N, S, or O) that may be acid/base labile, releasing an aldehyde.

$$$$
