3fjz_ligand
                    3D
 Schrodinger Suite 2020-3.
 16 15  0  0  1  0            999 V2000
   59.7700    7.8610   28.2300 C   0  0  0  0  0  0
   59.8430    7.9900   30.7410 C   0  0  0  0  0  0
   60.4190    8.8600   31.8480 C   0  0  0  0  0  0
   60.2120   10.2180   27.1920 O   0  0  0  0  0  0
   59.0840    8.4030   25.8560 O   0  5  0  0  0  0
   61.5470    8.3340   26.3530 O   0  5  0  0  0  0
   61.0100    9.9520   31.5290 O   0  5  0  0  0  0
   60.1690    8.7760   26.8160 P   0  0  0  0  0  0
   60.2760    8.4520   33.0020 O   0  0  0  0  0  0
   60.1130    8.5870   29.4410 N   0  3  0  0  0  0
   58.6898    7.6536   28.2398 H   0  0  0  0  0  0
   60.3255    6.9116   28.2213 H   0  0  0  0  0  0
   60.3038    6.9920   30.7817 H   0  0  0  0  0  0
   58.7552    7.8974   30.8759 H   0  0  0  0  0  0
   61.1949    8.7850   29.4558 H   0  0  0  0  0  0
   59.5654    9.5407   29.4643 H   0  0  0  0  0  0
  1  8  1  0  0  0
  1 10  1  0  0  0
  1 11  1  0  0  0
  1 12  1  0  0  0
  2  3  1  0  0  0
  2 10  1  0  0  0
  2 13  1  0  0  0
  2 14  1  0  0  0
  3  7  1  0  0  0
  3  9  2  0  0  0
  4  8  2  0  0  0
  5  8  1  0  0  0
  6  8  1  0  0  0
 10 15  1  0  0  0
 10 16  1  0  0  0
M  CHG  4   5  -1   6  -1   7  -1  10   1
M  END
> <s_m_source_file>
../3fjz_ligand.sdf

> <i_m_source_file_index>
1

> <s_epik_input>
Tz1QKFtPSF0pKFtPSF0pW0NIMl1bTkgyK11bQ0gyXUMoPU8pW09IXQ==

> <s_epik_cmdline>
J2VwaWtfYXBwJywgJy1pbWFlJywgJ2xpZ2FuZF9wcm8ubWFlJywgJy1vbWFlJywgJ2xpZ2FuZF9wcmVwLm1hZScsICctbXMnLCAnMScsICctcGgnLCAnNycsICctcGh0JywgJzAuNScsICctbnQn

> <r_lp_tautomer_probability>
1

> <r_epik_Ionization_Penalty>
  0.0859

> <r_epik_Ionization_Penalty_Charging>
  0.0859

> <r_epik_Ionization_Penalty_Neutral>
  0.0000

> <r_epik_State_Penalty>
 -0.0000

> <r_epik_Charging_Adjusted_Penalty>
0.0859451347210524

> <i_epik_Tot_Q>
-2

> <i_epik_Tot_abs_Q>
4

$$$$
