3fkt_ligand
                    3D
 Schrodinger Suite 2020-3.
 71 75  0  0  1  0            999 V2000
   34.8350   41.6210   -0.0400 C   0  0  0  0  0  0
   34.4260   42.9580    0.0910 C   0  0  0  0  0  0
   33.5250   43.4020    1.0740 C   0  0  0  0  0  0
   32.8660   40.0550    2.7710 C   0  0  0  0  0  0
   34.2920   44.9160   -1.4700 C   0  0  0  0  0  0
   34.8910   45.4960   -2.7380 C   0  0  0  0  0  0
   31.5780   39.8480   -2.2250 C   0  0  0  0  0  0
   30.4730   40.3190   -1.5080 C   0  0  0  0  0  0
   30.2770   41.6920   -1.3130 C   0  0  0  0  0  0
   31.1740   42.6420   -1.8010 C   0  0  0  0  0  0
   32.2830   42.1860   -2.5060 C   0  0  0  0  0  0
   32.4610   40.8160   -2.7000 C   0  0  0  0  0  0
   29.1670   39.7340    1.3990 C   0  0  0  0  0  0
   31.9090   38.4130    1.1060 C   0  0  0  0  0  0
   30.4720   40.2690    2.0240 C   0  0  0  0  0  0
   28.2140   37.9180   -0.0620 C   0  0  0  0  0  0
   28.5770   38.9670   -1.8740 C   0  0  0  0  0  0
   26.2760   35.0260   -0.0550 C   0  0  0  0  0  0
   24.0650   35.6830    1.8750 C   0  0  0  0  0  0
   33.4980   40.3460   -3.3670 F   0  0  0  0  0  0
   34.9680   43.7710   -0.8350 N   0  0  0  0  0  0
   33.2840   45.4210   -1.0090 O   0  0  0  0  0  0
   31.6400   39.3290    2.2380 N   0  0  2  0  0  0
   28.4450   39.2480   -3.0630 O   0  0  0  0  0  0
   29.5930   39.4000   -1.0620 N   0  0  0  0  0  0
   33.0130   42.4520    1.9730 C   0  0  0  0  0  0
   27.6930   38.1970   -1.2160 N   0  3  0  0  0  0
   33.4280   41.1120    1.8430 C   0  0  0  0  0  0
   27.4540   37.1750    0.9480 N   0  0  0  0  0  0
   34.3220   40.6820    0.8640 C   0  0  0  0  0  0
   29.4570   38.7550    0.2450 C   0  0  1  0  0  0
   30.6000   37.7760    0.6200 C   0  0  0  0  0  0
   25.3780   33.8980    0.4630 C   0  0  0  0  0  0
   26.5270   36.0520    1.0440 C   0  0  0  0  0  0
   25.2260   36.6530    1.5750 C   0  0  0  0  0  0
   24.0500   34.3910    1.0520 C   0  0  0  0  0  0
   35.5320   41.3223   -0.8230 H   0  0  0  0  0  0
   33.2328   44.4502    1.1367 H   0  0  0  0  0  0
   32.6111   40.5619    3.7134 H   0  0  0  0  0  0
   33.6724   39.3290    2.9517 H   0  0  0  0  0  0
   35.7901   44.9251   -3.0132 H   0  0  0  0  0  0
   35.1627   46.5481   -2.5672 H   0  0  0  0  0  0
   34.1544   45.4351   -3.5527 H   0  0  0  0  0  0
   31.7392   38.7846   -2.4021 H   0  0  0  0  0  0
   29.3975   42.0280   -0.7637 H   0  0  0  0  0  0
   31.0113   43.7070   -1.6353 H   0  0  0  0  0  0
   33.0087   42.8949   -2.9045 H   0  0  0  0  0  0
   28.5825   39.2056    2.1666 H   0  0  0  0  0  0
   28.5780   40.5748    1.0039 H   0  0  0  0  0  0
   32.3650   38.9766    0.2787 H   0  0  0  0  0  0
   32.5972   37.6193    1.4321 H   0  0  0  0  0  0
   30.8820   41.0680    1.3889 H   0  0  0  0  0  0
   30.2612   40.6694    3.0266 H   0  0  0  0  0  0
   27.2395   34.6072   -0.3811 H   0  0  0  0  0  0
   25.7861   35.5238   -0.9049 H   0  0  0  0  0  0
   24.1072   35.3760    2.9304 H   0  0  0  0  0  0
   23.1068   36.1858    1.6774 H   0  0  0  0  0  0
   36.0002   43.6044   -1.1767 H   0  0  0  0  0  0
   32.3106   42.7448    2.7534 H   0  0  0  0  0  0
   27.7550   37.7188    1.8556 H   0  0  0  0  0  0
   34.6165   39.6343    0.8029 H   0  0  0  0  0  0
   30.7958   37.1795   -0.2833 H   0  0  0  0  0  0
   30.1941   37.1251    1.4084 H   0  0  0  0  0  0
   25.1365   33.2129   -0.3631 H   0  0  0  0  0  0
   25.9037   33.3455    1.2557 H   0  0  0  0  0  0
   27.1257   35.3834    1.6800 H   0  0  0  0  0  0
   24.9088   37.3800    0.8128 H   0  0  0  0  0  0
   25.5060   37.1857    2.4958 H   0  0  0  0  0  0
   23.6892   33.5616    1.6781 H   0  0  0  0  0  0
   23.3818   34.5150    0.1870 H   0  0  0  0  0  0
   26.6984   37.8076   -1.4791 H   0  0  0  0  0  0
  1  2  2  0  0  0
  1 30  1  0  0  0
  1 37  1  0  0  0
  2  3  1  0  0  0
  2 21  1  0  0  0
  3 26  2  0  0  0
  3 38  1  0  0  0
  4 23  1  0  0  0
  4 28  1  0  0  0
  4 39  1  0  0  0
  4 40  1  0  0  0
  5  6  1  0  0  0
  5 21  1  0  0  0
  5 22  2  0  0  0
  6 41  1  0  0  0
  6 42  1  0  0  0
  6 43  1  0  0  0
  7  8  2  0  0  0
  7 12  1  0  0  0
  7 44  1  0  0  0
  8  9  1  0  0  0
  8 25  1  0  0  0
  9 10  2  0  0  0
  9 45  1  0  0  0
 10 11  1  0  0  0
 10 46  1  0  0  0
 11 12  2  0  0  0
 11 47  1  0  0  0
 12 20  1  0  0  0
 13 15  1  0  0  0
 13 31  1  0  0  0
 13 48  1  0  0  0
 13 49  1  0  0  0
 14 23  1  0  0  0
 14 32  1  0  0  0
 14 50  1  0  0  0
 14 51  1  0  0  0
 15 23  1  0  0  0
 15 52  1  0  0  0
 15 53  1  0  0  0
 16 27  2  0  0  0
 16 29  1  0  0  0
 16 31  1  0  0  0
 17 24  2  0  0  0
 17 25  1  0  0  0
 17 27  1  0  0  0
 18 33  1  0  0  0
 18 34  1  0  0  0
 18 54  1  0  0  0
 18 55  1  0  0  0
 19 35  1  0  0  0
 19 36  1  0  0  0
 19 56  1  0  0  0
 19 57  1  0  0  0
 21 58  1  0  0  0
 25 31  1  0  0  0
 26 28  1  0  0  0
 26 59  1  0  0  0
 27 71  1  0  0  0
 28 30  2  0  0  0
 29 34  1  0  0  0
 29 60  1  0  0  0
 30 61  1  0  0  0
 31 32  1  0  0  0
 32 62  1  0  0  0
 32 63  1  0  0  0
 33 36  1  0  0  0
 33 64  1  0  0  0
 33 65  1  0  0  0
 34 35  1  0  0  0
 34 66  1  0  0  0
 35 67  1  0  0  0
 35 68  1  0  0  0
 36 69  1  0  0  0
 36 70  1  0  0  0
M  CHG  1  27   1
M  END
> <s_m_source_file>
../3fkt_ligand.sdf

> <i_m_source_file_index>
1

> <s_epik_input>
W0NIM11DKD1PKVtOSF1jMVtjSF1bY0hdYyhbY0hdW2NIXTEpW0NIMl1bTkBIK10oW0NIMl1bQ0gyXTIpW0NIMl1bQ0gyXVtDQF0yM0MoW05IXVtDSF00W0NIMl1bQ0gyXVtDSDJdW0NIMl1bQ0gyXTQpPU5DKD1PKU4zYzVbY0hdYyhGKVtjSF1bY0hdW2NIXTU=

> <s_epik_cmdline>
J2VwaWtfYXBwJywgJy1pbWFlJywgJ2xpZ2FuZF9wcm8ubWFlJywgJy1vbWFlJywgJ2xpZ2FuZF9wcmVwLm1hZScsICctbXMnLCAnMScsICctcGgnLCAnNycsICctcGh0JywgJzAuNScsICctbnQn

> <r_lp_tautomer_probability>
1

> <r_epik_Ionization_Penalty>
  0.2231

> <r_epik_Ionization_Penalty_Charging>
  0.0045

> <r_epik_Ionization_Penalty_Neutral>
  0.2187

> <r_epik_State_Penalty>
 -0.0000

> <r_epik_Charging_Adjusted_Penalty>
0.00446642031835307

> <i_epik_Tot_Q>
1

> <i_epik_Tot_abs_Q>
1

> <s_epik_Chemistry_Notes>
This compound has an imine and may undergo hydrolysis.

$$$$
