3fl5_ligand
                    3D
 Schrodinger Suite 2020-3.
 28 30  0  0  1  0            999 V2000
   21.3460    9.2370   18.7070 O   0  0  0  0  0  0
   22.1030    8.2550   18.5470 C   0  0  0  0  0  0
   22.3690    7.3270   19.6940 C   0  0  0  0  0  0
   21.7700    7.5490   20.9400 C   0  0  0  0  0  0
   20.9500    8.6270   21.1120 O   0  0  0  0  0  0
   22.0200    6.6860   22.0070 C   0  0  0  0  0  0
   22.8680    5.5850   21.8280 C   0  0  0  0  0  0
   23.4590    5.3640   20.5810 C   0  0  0  0  0  0
   24.2840    4.2960   20.3930 O   0  0  0  0  0  0
   23.2160    6.2310   19.5150 C   0  0  0  0  0  0
   23.8500    5.9900   18.1810 C   0  0  0  0  0  0
   24.5980    5.0020   18.0080 O   0  0  0  0  0  0
   22.7320    8.0220   17.2180 C   0  0  0  0  0  0
   23.5790    6.9220   17.0460 C   0  0  0  0  0  0
   22.4880    8.8950   16.1470 C   0  0  0  0  0  0
   23.0850    8.6550   14.8990 C   0  0  0  0  0  0
   23.9250    7.5510   14.7350 C   0  0  0  0  0  0
   24.5160    7.2930   13.5340 O   0  0  0  0  0  0
   24.1650    6.6900   15.7990 C   0  0  0  0  0  0
   24.9860    5.6210   15.6250 O   0  0  0  0  0  0
   20.7527    9.3077   20.2708 H   0  0  0  0  0  0
   21.5571    6.8675   22.9770 H   0  0  0  0  0  0
   23.0656    4.9048   22.6565 H   0  0  0  0  0  0
   24.4853    3.6036   21.2237 H   0  0  0  0  0  0
   21.8362    9.7579   16.2836 H   0  0  0  0  0  0
   22.8939    9.3269   14.0622 H   0  0  0  0  0  0
   24.3391    7.9621   12.6790 H   0  0  0  0  0  0
   25.1808    4.9350   16.4626 H   0  0  0  0  0  0
  1  2  2  0  0  0
  2  3  1  0  0  0
  2 13  1  0  0  0
  3  4  2  0  0  0
  3 10  1  0  0  0
  4  5  1  0  0  0
  4  6  1  0  0  0
  5 21  1  0  0  0
  6  7  2  0  0  0
  6 22  1  0  0  0
  7  8  1  0  0  0
  7 23  1  0  0  0
  8  9  1  0  0  0
  8 10  2  0  0  0
  9 24  1  0  0  0
 10 11  1  0  0  0
 11 12  2  0  0  0
 11 14  1  0  0  0
 13 14  2  0  0  0
 13 15  1  0  0  0
 14 19  1  0  0  0
 15 16  2  0  0  0
 15 25  1  0  0  0
 16 17  1  0  0  0
 16 26  1  0  0  0
 17 18  1  0  0  0
 17 19  2  0  0  0
 18 27  1  0  0  0
 19 20  1  0  0  0
 20 28  1  0  0  0
M  END
> <s_m_source_file>
../3fl5_ligand.sdf

> <i_m_source_file_index>
1

> <s_epik_input>
W09IXWMxYyhbT0hdKVtjSF1bY0hdYyhDMj1PKWMxQyg9TyljKGMyMyljKFtPSF0pW2NIXVtjSF1jM1tPSF0=

> <s_epik_cmdline>
J2VwaWtfYXBwJywgJy1pbWFlJywgJ2xpZ2FuZF9wcm8ubWFlJywgJy1vbWFlJywgJ2xpZ2FuZF9wcmVwLm1hZScsICctbXMnLCAnMScsICctcGgnLCAnNycsICctcGh0JywgJzAuNScsICctbnQn

> <r_epik_Ionization_Penalty>
  0.0493

> <r_epik_Ionization_Penalty_Charging>
  0.0000

> <r_epik_Ionization_Penalty_Neutral>
  0.0493

> <r_epik_State_Penalty>
  0.0400

> <r_epik_Charging_Adjusted_Penalty>
0.0400392771701679

> <i_epik_Tot_Q>
0

> <i_epik_Tot_abs_Q>
0

$$$$
