3fl8_ligand
                    3D
 Schrodinger Suite 2020-3.
 75 78  0  0  1  0            999 V2000
   15.3970  -31.3430   -6.2690 N   0  0  0  0  0  0
   15.8540  -31.8660   -5.0940 C   0  0  0  0  0  0
   16.2330  -30.9060   -4.0160 C   0  0  0  0  0  0
   16.1620  -29.4160   -4.2890 C   0  0  0  0  0  0
   16.9700  -28.6240   -3.2920 C   0  0  1  0  0  0
   16.2650  -27.4860   -2.5250 C   0  0  0  0  0  0
   17.0230  -26.7130   -1.4790 C   0  0  3  0  0  0
   16.3420  -25.7030   -0.8310 O   0  0  0  0  0  0
   15.0780  -25.4890   -1.3010 C   0  0  0  0  0  0
   18.4860  -27.0610   -1.1890 C   0  0  3  0  0  0
   19.0900  -26.3360   -0.1930 O   0  0  0  0  0  0
   18.6330  -26.5470    1.1530 C   0  0  0  0  0  0
   19.2210  -28.2020   -1.9390 C   0  0  1  0  0  0
   20.6800  -28.5920   -1.6810 C   0  0  0  0  0  0
   21.5310  -27.8320   -1.0510 C   0  0  0  0  0  0
   22.9260  -28.2980   -0.6990 C   0  0  0  0  0  0
   23.5290  -29.3200   -1.4780 N   0  0  0  0  0  0
   22.6920  -29.8720   -2.5010 N   0  0  1  0  0  0
   23.1870  -30.9750   -3.2220 C   0  0  0  0  0  0
   24.9290  -29.7900   -1.3140 C   0  0  1  0  0  0
   25.1220  -31.2630   -0.7360 C   0  0  0  0  0  0
   26.1410  -31.2130    0.3760 C   0  0  0  0  0  0
   25.8070  -30.0460    1.2950 C   0  0  0  0  0  0
   25.4890  -30.1040   -2.7450 C   0  0  0  0  0  0
   24.5700  -30.7260   -3.6910 C   0  0  0  0  0  0
   25.0310  -31.0640   -5.1120 C   0  0  0  0  0  0
   26.4580  -30.7340   -5.4390 C   0  0  0  0  0  0
   27.3820  -30.1120   -4.4570 C   0  0  0  0  0  0
   26.9420  -29.7690   -3.0780 C   0  0  0  0  0  0
   23.5170  -27.8010    0.1640 O   0  0  0  0  0  0
   18.4360  -28.9780   -2.9930 C   0  0  0  0  0  0
   16.7030  -31.4680   -2.7430 C   0  0  0  0  0  0
   16.7610  -32.8710   -2.6230 N   0  3  0  0  0  0
   16.3770  -33.8330   -3.7060 C   0  0  0  0  0  0
   16.5040  -35.2090   -3.5200 N   0  0  0  0  0  0
   15.9230  -33.2890   -4.9570 N   0  0  0  0  0  0
   15.3348  -30.2524   -6.3983 H   0  0  0  0  0  0
   15.0909  -32.0121   -7.0867 H   0  0  0  0  0  0
   16.5558  -29.2084   -5.2949 H   0  0  0  0  0  0
   15.1158  -29.0816   -4.2286 H   0  0  0  0  0  0
   17.5864  -28.5191   -4.1970 H   0  0  0  0  0  0
   15.9282  -26.7179   -3.2367 H   0  0  0  0  0  0
   15.3967  -27.8910   -1.9846 H   0  0  0  0  0  0
   17.3531  -25.9978   -2.2468 H   0  0  0  0  0  0
   14.6089  -24.6723   -0.7327 H   0  0  0  0  0  0
   14.4828  -26.4066   -1.1833 H   0  0  0  0  0  0
   15.1240  -25.2158   -2.3655 H   0  0  0  0  0  0
   19.4069  -26.5560   -0.8622 H   0  0  0  0  0  0
   19.2033  -25.9034    1.8390 H   0  0  0  0  0  0
   18.7823  -27.6011    1.4299 H   0  0  0  0  0  0
   17.5637  -26.2981    1.2204 H   0  0  0  0  0  0
   19.5482  -27.4861   -2.7074 H   0  0  0  0  0  0
   20.9965  -29.5745   -2.0611 H   0  0  0  0  0  0
   21.2439  -26.8119   -0.7559 H   0  0  0  0  0  0
   21.8584  -30.2103   -2.0204 H   0  0  0  0  0  0
   23.1889  -31.8648   -2.5753 H   0  0  0  0  0  0
   22.5459  -31.1589   -4.0967 H   0  0  0  0  0  0
   25.3276  -28.9786   -0.6874 H   0  0  0  0  0  0
   24.1616  -31.6334   -0.3480 H   0  0  0  0  0  0
   25.4746  -31.9283   -1.5379 H   0  0  0  0  0  0
   26.1110  -32.1549    0.9434 H   0  0  0  0  0  0
   27.1447  -31.0748   -0.0523 H   0  0  0  0  0  0
   26.5436  -29.9991    2.1106 H   0  0  0  0  0  0
   24.8012  -30.1879    1.7171 H   0  0  0  0  0  0
   25.8349  -29.1079    0.7213 H   0  0  0  0  0  0
   24.3617  -31.5177   -5.8430 H   0  0  0  0  0  0
   26.8313  -30.9601   -6.4378 H   0  0  0  0  0  0
   28.4093  -29.9013   -4.7543 H   0  0  0  0  0  0
   27.6125  -29.3086   -2.3524 H   0  0  0  0  0  0
   18.4985  -30.0210   -2.6491 H   0  0  0  0  0  0
   19.0362  -28.8566   -3.9068 H   0  0  0  0  0  0
   16.9976  -30.8204   -1.9172 H   0  0  0  0  0  0
   16.8533  -35.6036   -2.5544 H   0  0  0  0  0  0
   16.2549  -35.9000   -4.3388 H   0  0  0  0  0  0
   17.1070  -33.3289   -1.6846 H   0  0  0  0  0  0
  1  2  1  0  0  0
  1 37  1  0  0  0
  1 38  1  0  0  0
  2  3  2  0  0  0
  2 36  1  0  0  0
  3  4  1  0  0  0
  3 32  1  0  0  0
  4  5  1  0  0  0
  4 39  1  0  0  0
  4 40  1  0  0  0
  5  6  1  0  0  0
  5 31  1  0  0  0
  5 41  1  0  0  0
  6  7  1  0  0  0
  6 42  1  0  0  0
  6 43  1  0  0  0
  7  8  1  0  0  0
  7 10  1  0  0  0
  7 44  1  0  0  0
  8  9  1  0  0  0
  9 45  1  0  0  0
  9 46  1  0  0  0
  9 47  1  0  0  0
 10 11  1  0  0  0
 10 13  1  0  0  0
 10 48  1  0  0  0
 11 12  1  0  0  0
 12 49  1  0  0  0
 12 50  1  0  0  0
 12 51  1  0  0  0
 13 14  1  0  0  0
 13 31  1  0  0  0
 13 52  1  0  0  0
 14 15  2  0  0  0
 14 53  1  0  0  0
 15 16  1  0  0  0
 15 54  1  0  0  0
 16 17  1  0  0  0
 16 30  2  0  0  0
 17 18  1  0  0  0
 17 20  1  0  0  0
 18 19  1  0  0  0
 18 55  1  0  0  0
 19 25  1  0  0  0
 19 56  1  0  0  0
 19 57  1  0  0  0
 20 21  1  0  0  0
 20 24  1  0  0  0
 20 58  1  0  0  0
 21 22  1  0  0  0
 21 59  1  0  0  0
 21 60  1  0  0  0
 22 23  1  0  0  0
 22 61  1  0  0  0
 22 62  1  0  0  0
 23 63  1  0  0  0
 23 64  1  0  0  0
 23 65  1  0  0  0
 24 25  2  0  0  0
 24 29  1  0  0  0
 25 26  1  0  0  0
 26 27  2  0  0  0
 26 66  1  0  0  0
 27 28  1  0  0  0
 27 67  1  0  0  0
 28 29  2  0  0  0
 28 68  1  0  0  0
 29 69  1  0  0  0
 31 70  1  0  0  0
 31 71  1  0  0  0
 32 33  2  0  0  0
 32 72  1  0  0  0
 33 34  1  0  0  0
 33 75  1  0  0  0
 34 35  1  0  0  0
 34 36  2  0  0  0
 35 73  1  0  0  0
 35 74  1  0  0  0
M  CHG  1  33   1
M  END
> <s_m_source_file>
../3fl8_ligand.sdf

> <i_m_source_file_index>
1

> <s_epik_input>
W05IMl1jKG4xKW5bY0hdYyhjMVtOSDJdKVtDSDJdW0NASF0yW0NIMl1bQ0hdKE9bQ0gzXSlbQ0hdKE9bQ0gzXSlbQ0hdKFtDSDJdMikvW0NIXT1bQ0hdL0MoPU8pTihbQ0BIXTNbQ0gyXVtDSDJdW0NIM10pW05IMitdW0NIMl1jKGMzNClbY0hdW2NIXVtjSF1bY0hdNA==

> <s_epik_cmdline>
J2VwaWtfYXBwJywgJy1pbWFlJywgJ2xpZ2FuZF9wcm8ubWFlJywgJy1vbWFlJywgJ2xpZ2FuZF9wcmVwLm1hZScsICctbXMnLCAnMScsICctcGgnLCAnNycsICctcGh0JywgJzAuNScsICctbnQn

> <r_lp_tautomer_probability>
0.575010577011949

> <r_epik_Ionization_Penalty>
  0.1135

> <r_epik_Ionization_Penalty_Charging>
  0.1134

> <r_epik_Ionization_Penalty_Neutral>
  0.0001

> <r_epik_State_Penalty>
  0.3305

> <r_epik_Charging_Adjusted_Penalty>
0.443925358091427

> <i_epik_Tot_Q>
1

> <i_epik_Tot_abs_Q>
1

$$$$
