3fl9_ligand
                    3D
 Schrodinger Suite 2020-3.
 40 41  0  0  1  0            999 V2000
   18.3770   10.8000   38.0650 C   0  0  0  0  0  0
   18.4500   12.1040   38.2420 N   0  3  0  0  0  0
   19.4430   12.8200   37.7080 C   0  0  0  0  0  0
   19.4790   14.1330   37.9090 N   0  0  0  0  0  0
   20.3930   12.2210   36.9760 N   0  0  0  0  0  0
   20.3600   10.8950   36.7710 C   0  0  0  0  0  0
   21.3140   10.3240   36.0440 N   0  0  0  0  0  0
   19.3350   10.1290   37.3190 C   0  0  0  0  0  0
   19.1980    8.6080   37.1410 C   0  0  0  0  0  0
   18.4230    7.9630   38.3040 C   0  0  0  0  0  0
   19.0580    7.0380   39.1230 C   0  0  0  0  0  0
   18.3810    6.4350   40.1790 C   0  0  0  0  0  0
   19.0680    5.5380   40.9510 O   0  0  0  0  0  0
   20.0700    4.8610   40.1790 C   0  0  0  0  0  0
   17.0380    6.7620   40.4280 C   0  0  0  0  0  0
   16.3530    6.1950   41.4670 O   0  0  0  0  0  0
   16.7500    4.8790   41.8420 C   0  0  0  0  0  0
   16.3950    7.7010   39.6050 C   0  0  0  0  0  0
   15.0860    8.0850   39.7530 O   0  0  0  0  0  0
   14.1600    7.0680   40.1590 C   0  0  0  0  0  0
   17.0920    8.2790   38.5490 C   0  0  0  0  0  0
   17.5535   10.2417   38.5104 H   0  0  0  0  0  0
   18.6967   14.6190   38.5105 H   0  0  0  0  0  0
   20.2911   14.7340   37.4739 H   0  0  0  0  0  0
   22.1200   10.9374   35.6149 H   0  0  0  0  0  0
   21.2979    9.2378   35.8711 H   0  0  0  0  0  0
   18.6579    8.3954   36.2066 H   0  0  0  0  0  0
   20.1982    8.1523   37.0982 H   0  0  0  0  0  0
   20.1006    6.7809   38.9361 H   0  0  0  0  0  0
   20.6071    4.1471   40.8208 H   0  0  0  0  0  0
   20.7805    5.5969   39.7745 H   0  0  0  0  0  0
   19.5906    4.3200   39.3498 H   0  0  0  0  0  0
   16.1297    4.5344   42.6825 H   0  0  0  0  0  0
   17.8072    4.8875   42.1458 H   0  0  0  0  0  0
   16.6196    4.1991   40.9872 H   0  0  0  0  0  0
   13.1522    7.5012   40.2408 H   0  0  0  0  0  0
   14.4652    6.6627   41.1350 H   0  0  0  0  0  0
   14.1523    6.2600   39.4126 H   0  0  0  0  0  0
   16.5844    8.9936   37.9011 H   0  0  0  0  0  0
   17.6845   12.6218   38.8385 H   0  0  0  0  0  0
  1  2  2  0  0  0
  1  8  1  0  0  0
  1 22  1  0  0  0
  2  3  1  0  0  0
  2 40  1  0  0  0
  3  4  1  0  0  0
  3  5  2  0  0  0
  4 23  1  0  0  0
  4 24  1  0  0  0
  5  6  1  0  0  0
  6  7  1  0  0  0
  6  8  2  0  0  0
  7 25  1  0  0  0
  7 26  1  0  0  0
  8  9  1  0  0  0
  9 10  1  0  0  0
  9 27  1  0  0  0
  9 28  1  0  0  0
 10 11  2  0  0  0
 10 21  1  0  0  0
 11 12  1  0  0  0
 11 29  1  0  0  0
 12 13  1  0  0  0
 12 15  2  0  0  0
 13 14  1  0  0  0
 14 30  1  0  0  0
 14 31  1  0  0  0
 14 32  1  0  0  0
 15 16  1  0  0  0
 15 18  1  0  0  0
 16 17  1  0  0  0
 17 33  1  0  0  0
 17 34  1  0  0  0
 17 35  1  0  0  0
 18 19  1  0  0  0
 18 21  2  0  0  0
 19 20  1  0  0  0
 20 36  1  0  0  0
 20 37  1  0  0  0
 20 38  1  0  0  0
 21 39  1  0  0  0
M  CHG  1   2   1
M  END
> <s_m_source_file>
../3fl9_ligand.sdf

> <i_m_source_file_index>
1

> <s_epik_input>
W05IMl1jMW5bY0hdYyhjKG4xKVtOSDJdKVtDSDJdYzJbY0hdYyhPW0NIM10pYyhPW0NIM10pYyhbY0hdMilPW0NIM10=

> <s_epik_cmdline>
J2VwaWtfYXBwJywgJy1pbWFlJywgJ2xpZ2FuZF9wcm8ubWFlJywgJy1vbWFlJywgJ2xpZ2FuZF9wcmVwLm1hZScsICctbXMnLCAnMScsICctcGgnLCAnNycsICctcGh0JywgJzAuNScsICctbnQn

> <r_lp_tautomer_probability>
0.575010577011949

> <r_epik_Ionization_Penalty>
  0.2380

> <r_epik_Ionization_Penalty_Charging>
  0.2380

> <r_epik_Ionization_Penalty_Neutral>
  0.0000

> <r_epik_State_Penalty>
  0.4697

> <r_epik_Charging_Adjusted_Penalty>
0.707697881122565

> <i_epik_Tot_Q>
1

> <i_epik_Tot_abs_Q>
1

$$$$
