3fmz_ligand
                    3D
 Schrodinger Suite 2020-3.
 46 48  0  0  1  0            999 V2000
   11.1400  -20.3900    3.3340 N   0  0  0  0  0  0
    9.9020  -18.9950    1.9970 N   0  0  0  0  0  0
   13.8960  -24.8360    3.0400 C   0  0  0  0  0  0
   14.0900  -26.0940    2.4800 C   0  0  0  0  0  0
   13.3850  -26.4850    1.3470 C   0  0  0  0  0  0
   12.7650  -22.6200    3.0230 C   0  0  0  0  0  0
   12.6340  -21.5770    1.9180 C   0  0  0  0  0  0
   11.2730  -21.2750    4.4790 C   0  0  0  0  0  0
    8.7200  -18.3300    1.6170 C   0  0  0  0  0  0
    8.7750  -17.1760    0.8480 C   0  0  0  0  0  0
    7.4780  -18.8400    1.9860 C   0  0  0  0  0  0
   10.0830  -16.5860    0.4170 C   0  0  0  0  0  0
   11.1540  -17.1040    0.8100 O   0  5  0  0  0  0
   10.0560  -15.5810   -0.3290 O   0  0  0  0  0  0
    7.6050  -16.5340    0.4670 C   0  0  0  0  0  0
    6.3720  -17.0450    0.8460 C   0  0  0  0  0  0
    6.3070  -18.2000    1.6090 C   0  0  0  0  0  0
    9.9830  -19.8010    3.0580 C   0  0  0  0  0  0
    9.0330  -20.0010    3.7880 O   0  0  0  0  0  0
   11.4870  -22.6410    3.8510 C   0  0  0  0  0  0
   12.3410  -20.2100    2.5250 C   0  0  0  0  0  0
   12.9900  -23.9630    2.4490 C   0  0  0  0  0  0
   12.2840  -24.3500    1.3140 C   0  0  0  0  0  0
   12.4820  -25.6100    0.7620 C   0  0  0  0  0  0
   14.6930  -24.4550    4.2640 C   0  0  0  0  0  0
   15.9570  -24.3490    3.9010 F   0  0  0  0  0  0
   14.5860  -25.3880    5.1910 F   0  0  0  0  0  0
   14.2970  -23.3040    4.7810 F   0  0  0  0  0  0
   10.8214  -18.8623    1.4079 H   0  0  0  0  0  0
   14.8031  -26.7817    2.9346 H   0  0  0  0  0  0
   13.5415  -27.4757    0.9202 H   0  0  0  0  0  0
   13.6373  -22.3835    3.6500 H   0  0  0  0  0  0
   13.5736  -21.5265    1.3482 H   0  0  0  0  0  0
   11.8112  -21.8580    1.2442 H   0  0  0  0  0  0
   12.1304  -20.9572    5.0904 H   0  0  0  0  0  0
   10.3553  -21.2323    5.0840 H   0  0  0  0  0  0
    7.4256  -19.7534    2.5784 H   0  0  0  0  0  0
    7.6550  -15.6249   -0.1323 H   0  0  0  0  0  0
    5.4553  -16.5385    0.5439 H   0  0  0  0  0  0
    5.3405  -18.6033    1.9112 H   0  0  0  0  0  0
   10.6334  -22.8855    3.2017 H   0  0  0  0  0  0
   11.5751  -23.4002    4.6421 H   0  0  0  0  0  0
   12.1488  -19.4579    1.7456 H   0  0  0  0  0  0
   13.1676  -19.8704    3.1663 H   0  0  0  0  0  0
   11.5730  -23.6623    0.8561 H   0  0  0  0  0  0
   11.9291  -25.9097   -0.1283 H   0  0  0  0  0  0
  1  8  1  0  0  0
  1 18  1  0  0  0
  1 21  1  0  0  0
  2  9  1  0  0  0
  2 18  1  0  0  0
  2 29  1  0  0  0
  3  4  2  0  0  0
  3 22  1  0  0  0
  3 25  1  0  0  0
  4  5  1  0  0  0
  4 30  1  0  0  0
  5 24  2  0  0  0
  5 31  1  0  0  0
  6  7  1  0  0  0
  6 20  1  0  0  0
  6 22  1  0  0  0
  6 32  1  0  0  0
  7 21  1  0  0  0
  7 33  1  0  0  0
  7 34  1  0  0  0
  8 20  1  0  0  0
  8 35  1  0  0  0
  8 36  1  0  0  0
  9 10  2  0  0  0
  9 11  1  0  0  0
 10 12  1  0  0  0
 10 15  1  0  0  0
 11 17  2  0  0  0
 11 37  1  0  0  0
 12 13  1  0  0  0
 12 14  2  0  0  0
 15 16  2  0  0  0
 15 38  1  0  0  0
 16 17  1  0  0  0
 16 39  1  0  0  0
 17 40  1  0  0  0
 18 19  2  0  0  0
 20 41  1  0  0  0
 20 42  1  0  0  0
 21 43  1  0  0  0
 21 44  1  0  0  0
 22 23  2  0  0  0
 23 24  1  0  0  0
 23 45  1  0  0  0
 24 46  1  0  0  0
 25 26  1  0  0  0
 25 27  1  0  0  0
 25 28  1  0  0  0
M  CHG  1  13  -1
M  END
> <s_m_source_file>
../3fmz_ligand.sdf

> <i_m_source_file_index>
1

> <s_epik_input>
W2NIXTFbY0hdW2NIXVtjSF1jKEMoPU8pW09IXSljMVtOSF1DKD1PKU4yW0NIMl1bQ0gyXVtDSF0oW0NIMl1bQ0gyXTIpYzNbY0hdW2NIXVtjSF1bY0hdYzNDKEYpKEYpRg==

> <s_epik_cmdline>
J2VwaWtfYXBwJywgJy1pbWFlJywgJ2xpZ2FuZF9wcm8ubWFlJywgJy1vbWFlJywgJ2xpZ2FuZF9wcmVwLm1hZScsICctbXMnLCAnMScsICctcGgnLCAnNycsICctcGh0JywgJzAuNScsICctbnQn

> <r_lp_tautomer_probability>
1

> <r_epik_Ionization_Penalty>
  0.0015

> <r_epik_Ionization_Penalty_Charging>
  0.0015

> <r_epik_Ionization_Penalty_Neutral>
  0.0000

> <r_epik_State_Penalty>
 -0.0000

> <r_epik_Charging_Adjusted_Penalty>
0.00146591582907655

> <i_epik_Tot_Q>
-1

> <i_epik_Tot_abs_Q>
1

$$$$
