3fn0_ligand
                    3D
 Schrodinger Suite 2020-3.
153157  0  0  1  0            999 V2000
   66.8600   27.3070   40.6160 N   0  3  0  0  0  0
   65.8630   28.1890   41.2350 C   0  0  2  0  0  0
   66.4580   29.1230   42.2840 C   0  0  0  0  0  0
   65.8470   30.1280   42.6550 O   0  0  0  0  0  0
   64.7570   27.3640   41.8990 C   0  0  0  0  0  0
   65.2670   26.1000   42.5070 C   0  0  0  0  0  0
   65.8170   25.9520   43.7410 C   0  0  0  0  0  0
   65.2760   24.7970   41.9050 C   0  0  0  0  0  0
   66.1570   24.6460   43.9520 N   0  0  0  0  0  0
   65.8480   23.9140   42.8370 C   0  0  0  0  0  0
   64.8480   24.2930   40.6750 C   0  0  0  0  0  0
   65.9980   22.5490   42.5870 C   0  0  0  0  0  0
   65.0110   22.9130   40.4160 C   0  0  0  0  0  0
   65.5800   22.0710   41.3690 C   0  0  0  0  0  0
   67.6600   28.7860   42.7880 N   0  0  0  0  0  0
   68.1870   29.5200   43.9310 C   0  0  2  0  0  0
   68.7470   30.9120   43.5930 C   0  0  0  0  0  0
   68.8100   31.7670   44.4630 O   0  0  0  0  0  0
   69.2650   28.7060   44.6550 C   0  0  0  0  0  0
   68.6800   27.6460   45.5610 C   0  0  0  0  0  0
   67.7580   27.9080   46.3870 O   0  0  0  0  0  0
   69.2240   26.4300   45.4380 N   0  0  0  0  0  0
   69.1020   31.1360   42.3370 N   0  0  0  0  0  0
   69.7860   32.3680   41.9330 C   0  0  2  0  0  0
   69.0220   33.1840   40.9080 C   0  0  0  0  0  0
   69.2230   34.3830   40.8290 O   0  0  0  0  0  0
   71.2090   32.0610   41.3880 C   0  0  0  0  0  0
   71.9980   31.2880   42.3770 C   0  0  0  0  0  0
   72.2080   29.9370   42.4010 C   0  0  0  0  0  0
   72.6100   31.8040   43.5420 C   0  0  0  0  0  0
   72.9170   29.5900   43.5070 N   0  0  0  0  0  0
   73.1760   30.7210   44.2300 C   0  0  0  0  0  0
   72.7360   33.0800   44.0750 C   0  0  0  0  0  0
   73.8640   30.8770   45.4170 C   0  0  0  0  0  0
   73.4180   33.2300   45.2510 C   0  0  0  0  0  0
   73.9680   32.1380   45.9150 C   0  0  0  0  0  0
   68.1410   32.5270   40.1500 N   0  0  0  0  0  0
   67.3210   33.1570   39.1300 C   0  0  2  0  0  0
   65.8670   32.7060   39.3810 C   0  0  0  0  0  0
   65.5980   31.5040   39.5510 O   0  0  0  0  0  0
   67.7690   32.8080   37.6850 C   0  0  0  0  0  0
   69.1880   33.2410   37.3710 C   0  0  0  0  0  0
   69.4790   34.5840   37.1600 C   0  0  0  0  0  0
   70.2170   32.3310   37.3840 C   0  0  0  0  0  0
   70.8010   35.0360   36.9360 C   0  0  0  0  0  0
   71.5320   32.7450   37.1190 C   0  0  0  0  0  0
   71.8290   34.1070   36.9060 C   0  0  0  0  0  0
   64.9500   33.6750   39.4110 N   0  0  0  0  0  0
   63.5420   33.4290   39.8050 C   0  0  2  0  0  0
   62.7920   32.5060   38.8420 C   0  0  0  0  0  0
   62.4610   32.8680   37.7180 O   0  0  0  0  0  0
   62.8140   34.7720   40.0090 C   0  0  0  0  0  0
   61.4400   34.6210   40.7280 C   0  0  0  0  0  0
   60.9010   33.5130   40.7190 O   0  0  0  0  0  0
   60.9790   35.6070   41.3370 O   0  0  0  0  0  0
   62.5190   31.2980   39.3050 N   0  0  0  0  0  0
   61.7830   30.3160   38.5260 C   0  0  2  0  0  0
   60.3530   30.7300   38.1040 C   0  0  0  0  0  0
   59.7530   30.0760   37.2410 O   0  0  0  0  0  0
   61.8010   28.9330   39.2270 C   0  0  2  0  0  0
   61.4960   27.7930   38.2630 C   0  0  0  0  0  0
   60.7860   28.8590   40.3690 C   0  0  0  0  0  0
   61.3590   26.4110   38.9950 C   0  0  0  0  0  0
   59.8170   31.8100   38.6960 N   0  0  0  0  0  0
   58.4460   32.2520   38.3790 C   0  0  2  0  0  0
   58.4100   33.4030   37.3600 C   0  0  0  0  0  0
   57.3510   33.9530   37.0920 O   0  0  0  0  0  0
   57.7030   32.6960   39.6530 C   0  0  2  0  0  0
   58.2250   33.9370   40.1370 O   0  0  0  0  0  0
   57.8460   31.6320   40.7190 C   0  0  0  0  0  0
   59.5700   33.7780   36.8090 N   0  0  0  0  0  0
   59.6230   34.6500   35.6150 C   0  0  2  0  0  0
   59.3870   33.8920   34.3090 C   0  0  0  0  0  0
   59.4330   32.6610   34.2760 O   0  0  0  0  0  0
   60.9620   35.3780   35.4750 C   0  0  0  0  0  0
   61.2690   36.2630   36.6400 C   0  0  0  0  0  0
   60.4630   36.4060   37.5520 O   0  0  0  0  0  0
   62.4630   36.8590   36.6330 N   0  0  0  0  0  0
   59.1840   34.6470   33.2280 N   0  0  0  0  0  0
   58.9160   34.0770   31.9060 C   0  0  2  0  0  0
   60.1460   34.0680   30.9900 C   0  0  0  0  0  0
   60.8630   35.0670   30.8600 O   0  0  0  0  0  0
   57.7670   34.8330   31.2360 C   0  0  0  0  0  0
   67.6457   27.9157   40.1446 H   0  0  0  0  0  0
   66.3731   26.6819   39.8530 H   0  0  0  0  0  0
   67.3082   26.6626   41.3866 H   0  0  0  0  0  0
   65.4878   28.7857   40.3905 H   0  0  0  0  0  0
   64.2872   27.9564   42.6980 H   0  0  0  0  0  0
   63.9994   27.0948   41.1483 H   0  0  0  0  0  0
   65.9654   26.7589   44.4586 H   0  0  0  0  0  0
   64.3979   24.9497   39.9306 H   0  0  0  0  0  0
   66.4325   21.8843   43.3337 H   0  0  0  0  0  0
   64.6877   22.5028   39.4593 H   0  0  0  0  0  0
   65.6959   21.0109   41.1434 H   0  0  0  0  0  0
   68.2432   27.9651   42.3451 H   0  0  0  0  0  0
   67.2840   29.6468   44.5463 H   0  0  0  0  0  0
   69.9040   28.2030   43.9142 H   0  0  0  0  0  0
   69.8789   29.3780   45.2727 H   0  0  0  0  0  0
   70.0238   26.2571   44.7028 H   0  0  0  0  0  0
   68.8715   25.6031   46.0720 H   0  0  0  0  0  0
   68.8694   30.3650   41.5877 H   0  0  0  0  0  0
   69.8060   32.9476   42.8677 H   0  0  0  0  0  0
   71.1280   31.4725   40.4622 H   0  0  0  0  0  0
   71.7327   33.0052   41.1777 H   0  0  0  0  0  0
   71.8569   29.2384   41.6416 H   0  0  0  0  0  0
   72.3017   33.9417   43.5682 H   0  0  0  0  0  0
   74.3054   30.0246   45.9334 H   0  0  0  0  0  0
   73.5331   34.2266   45.6773 H   0  0  0  0  0  0
   74.4944   32.2970   46.8561 H   0  0  0  0  0  0
   68.0555   31.4459   40.3342 H   0  0  0  0  0  0
   67.4619   34.2400   39.2618 H   0  0  0  0  0  0
   67.7166   31.7192   37.5378 H   0  0  0  0  0  0
   67.1049   33.3078   36.9644 H   0  0  0  0  0  0
   68.6655   35.3095   37.1673 H   0  0  0  0  0  0
   70.0115   31.2828   37.6010 H   0  0  0  0  0  0
   71.0072   36.0963   36.7896 H   0  0  0  0  0  0
   72.3320   32.0058   37.0774 H   0  0  0  0  0  0
   72.8548   34.4253   36.7200 H   0  0  0  0  0  0
   65.2732   34.6878   39.1286 H   0  0  0  0  0  0
   63.5997   32.8796   40.7562 H   0  0  0  0  0  0
   63.4387   35.4383   40.6220 H   0  0  0  0  0  0
   62.6281   35.2405   39.0313 H   0  0  0  0  0  0
   60.0111   35.5308   41.8542 H   0  0  0  0  0  0
   62.8696   31.0467   40.3169 H   0  0  0  0  0  0
   62.3752   30.3046   37.5991 H   0  0  0  0  0  0
   62.8185   28.8045   39.6247 H   0  0  0  0  0  0
   60.5489   27.9968   37.7421 H   0  0  0  0  0  0
   62.3087   27.7082   37.5265 H   0  0  0  0  0  0
   60.9796   29.6715   41.0848 H   0  0  0  0  0  0
   60.8796   27.8896   40.8805 H   0  0  0  0  0  0
   59.7690   28.9627   39.9629 H   0  0  0  0  0  0
   61.1398   25.6253   38.2570 H   0  0  0  0  0  0
   60.5407   26.4640   39.7282 H   0  0  0  0  0  0
   62.3005   26.1754   39.5127 H   0  0  0  0  0  0
   60.4191   32.3676   39.4285 H   0  0  0  0  0  0
   57.9863   31.3568   37.9349 H   0  0  0  0  0  0
   56.6418   32.8972   39.4450 H   0  0  0  0  0  0
   58.2055   34.8298   39.4947 H   0  0  0  0  0  0
   57.4436   30.6798   40.3429 H   0  0  0  0  0  0
   57.2891   31.9361   41.6176 H   0  0  0  0  0  0
   58.9092   31.5066   40.9715 H   0  0  0  0  0  0
   60.5021   33.4187   37.2695 H   0  0  0  0  0  0
   58.8021   35.3552   35.8120 H   0  0  0  0  0  0
   61.7736   34.6401   35.3924 H   0  0  0  0  0  0
   60.9449   36.0068   34.5726 H   0  0  0  0  0  0
   63.1524   36.6994   35.7909 H   0  0  0  0  0  0
   62.7577   37.5099   37.4694 H   0  0  0  0  0  0
   59.2241   35.7385   33.3585 H   0  0  0  0  0  0
   58.6394   33.0331   32.1153 H   0  0  0  0  0  0
   60.3845   33.1447   30.4417 H   0  0  0  0  0  0
   56.8910   34.8331   31.9013 H   0  0  0  0  0  0
   57.5072   34.3398   30.2877 H   0  0  0  0  0  0
   58.0767   35.8696   31.0373 H   0  0  0  0  0  0
  1  2  1  0  0  0
  1 84  1  0  0  0
  1 85  1  0  0  0
  1 86  1  0  0  0
  2  3  1  0  0  0
  2  5  1  0  0  0
  2 87  1  0  0  0
  3  4  2  0  0  0
  3 15  1  0  0  0
  5  6  1  0  0  0
  5 88  1  0  0  0
  5 89  1  0  0  0
  6  7  2  0  0  0
  6  8  1  0  0  0
  7  9  1  0  0  0
  7 90  1  0  0  0
  8 10  2  0  0  0
  8 11  1  0  0  0
  9 10  1  0  0  0
 10 12  1  0  0  0
 11 13  2  0  0  0
 11 91  1  0  0  0
 12 14  2  0  0  0
 12 92  1  0  0  0
 13 14  1  0  0  0
 13 93  1  0  0  0
 14 94  1  0  0  0
 15 16  1  0  0  0
 15 95  1  0  0  0
 16 17  1  0  0  0
 16 19  1  0  0  0
 16 96  1  0  0  0
 17 18  2  0  0  0
 17 23  1  0  0  0
 19 20  1  0  0  0
 19 97  1  0  0  0
 19 98  1  0  0  0
 20 21  2  0  0  0
 20 22  1  0  0  0
 22 99  1  0  0  0
 22100  1  0  0  0
 23 24  1  0  0  0
 23101  1  0  0  0
 24 25  1  0  0  0
 24 27  1  0  0  0
 24102  1  0  0  0
 25 26  2  0  0  0
 25 37  1  0  0  0
 27 28  1  0  0  0
 27103  1  0  0  0
 27104  1  0  0  0
 28 29  2  0  0  0
 28 30  1  0  0  0
 29 31  1  0  0  0
 29105  1  0  0  0
 30 32  2  0  0  0
 30 33  1  0  0  0
 31 32  1  0  0  0
 32 34  1  0  0  0
 33 35  2  0  0  0
 33106  1  0  0  0
 34 36  2  0  0  0
 34107  1  0  0  0
 35 36  1  0  0  0
 35108  1  0  0  0
 36109  1  0  0  0
 37 38  1  0  0  0
 37110  1  0  0  0
 38 39  1  0  0  0
 38 41  1  0  0  0
 38111  1  0  0  0
 39 40  2  0  0  0
 39 48  1  0  0  0
 41 42  1  0  0  0
 41112  1  0  0  0
 41113  1  0  0  0
 42 43  2  0  0  0
 42 44  1  0  0  0
 43 45  1  0  0  0
 43114  1  0  0  0
 44 46  2  0  0  0
 44115  1  0  0  0
 45 47  2  0  0  0
 45116  1  0  0  0
 46 47  1  0  0  0
 46117  1  0  0  0
 47118  1  0  0  0
 48 49  1  0  0  0
 48119  1  0  0  0
 49 50  1  0  0  0
 49 52  1  0  0  0
 49120  1  0  0  0
 50 51  2  0  0  0
 50 56  1  0  0  0
 52 53  1  0  0  0
 52121  1  0  0  0
 52122  1  0  0  0
 53 54  2  0  0  0
 53 55  1  0  0  0
 55123  1  0  0  0
 56 57  1  0  0  0
 56124  1  0  0  0
 57 58  1  0  0  0
 57 60  1  0  0  0
 57125  1  0  0  0
 58 59  2  0  0  0
 58 64  1  0  0  0
 60 61  1  0  0  0
 60 62  1  0  0  0
 60126  1  0  0  0
 61 63  1  0  0  0
 61127  1  0  0  0
 61128  1  0  0  0
 62129  1  0  0  0
 62130  1  0  0  0
 62131  1  0  0  0
 63132  1  0  0  0
 63133  1  0  0  0
 63134  1  0  0  0
 64 65  1  0  0  0
 64135  1  0  0  0
 65 66  1  0  0  0
 65 68  1  0  0  0
 65136  1  0  0  0
 66 67  2  0  0  0
 66 71  1  0  0  0
 68 69  1  0  0  0
 68 70  1  0  0  0
 68137  1  0  0  0
 69138  1  0  0  0
 70139  1  0  0  0
 70140  1  0  0  0
 70141  1  0  0  0
 71 72  1  0  0  0
 71142  1  0  0  0
 72 73  1  0  0  0
 72 75  1  0  0  0
 72143  1  0  0  0
 73 74  2  0  0  0
 73 79  1  0  0  0
 75 76  1  0  0  0
 75144  1  0  0  0
 75145  1  0  0  0
 76 77  2  0  0  0
 76 78  1  0  0  0
 78146  1  0  0  0
 78147  1  0  0  0
 79 80  1  0  0  0
 79148  1  0  0  0
 80 81  1  0  0  0
 80 83  1  0  0  0
 80149  1  0  0  0
 81 82  2  0  0  0
 81150  1  0  0  0
 83151  1  0  0  0
 83152  1  0  0  0
 83153  1  0  0  0
M  CHG  1   1   1
M  END
> <s_m_source_file>
../3fn0_ligand.sdf

> <i_m_source_file_index>
1

> <s_epik_input>
W2NIXTFbY0hdW2NIXVtjSF1jKGMxMilbbkhdW2NIXWMyW0NIMl1bQ0BIXShbTkgzK10pQyg9TylbTkhdW0NAQEhdKFtDSDJdQyg9TylbTkgyXSlDKD1PKVtOSF1bQ0BASF0oW0NIMl1jM1tjSF1bbkhdYyhjMzQpW2NIXVtjSF1bY0hdW2NIXTQpQyg9TylbTkhdW0NAQEhdKFtDSDJdYzVbY0hdW2NIXVtjSF1bY0hdW2NIXTUpQyg9TylbTkhdW0NAQEhdKFtDSDJdQyg9TylbT0hdKUMoPU8pW05IXVtDQEBIXShbQ0BASF0oW0NIM10pW0NIMl1bQ0gzXSlDKD1PKVtOSF1bQ0BASF0oW0NASF0oW09IXSlbQ0gzXSlDKD1PKVtOSF1bQ0BASF0oW0NIMl1DKD1PKVtOSDJdKUMoPU8pW05IXVtDQEhdKFtDSF09TylbQ0gzXQ==

> <s_epik_cmdline>
J2VwaWtfYXBwJywgJy1pbWFlJywgJ2xpZ2FuZF9wcm8ubWFlJywgJy1vbWFlJywgJ2xpZ2FuZF9wcmVwLm1hZScsICctbXMnLCAnMScsICctcGgnLCAnNycsICctcGh0JywgJzAuNScsICctbnQn

> <s_epik_pKa_notes>
Molecule size exceeds maximum supported for generating protonation states

$$$$
