3fnu_ligand
                    3D
 Schrodinger Suite 2020-3.
 86 90  0  0  1  0            999 V2000
  -10.2780  -51.2260  -74.0490 O   0  0  0  0  0  0
   -9.8100  -50.5900  -74.9820 C   0  0  0  0  0  0
  -10.6480  -49.5050  -75.6120 C   0  0  0  0  0  0
  -10.9510  -49.8420  -76.9670 O   0  0  0  0  0  0
  -12.1010  -49.4320  -77.6170 C   0  0  0  0  0  0
  -12.2600  -48.1120  -78.0720 C   0  0  0  0  0  0
  -11.2010  -47.0630  -77.8660 C   0  0  0  0  0  0
  -13.4220  -47.7240  -78.7360 C   0  0  0  0  0  0
  -14.4320  -48.6510  -78.9570 C   0  0  0  0  0  0
  -14.2790  -49.9660  -78.5130 C   0  0  0  0  0  0
  -13.1190  -50.3620  -77.8460 C   0  0  0  0  0  0
  -12.9960  -51.7970  -77.3870 C   0  0  0  0  0  0
   -8.5860  -50.7910  -75.4880 N   0  0  0  0  0  0
   -7.6890  -51.8220  -74.9520 C   0  0  1  0  0  0
   -7.5060  -52.8560  -76.0630 C   0  0  0  0  0  0
   -8.6680  -53.8260  -76.1000 C   0  0  0  0  0  0
   -8.7340  -54.8810  -75.1810 C   0  0  0  0  0  0
   -9.8060  -55.7730  -75.2190 C   0  0  0  0  0  0
  -10.8070  -55.6080  -76.1780 C   0  0  0  0  0  0
  -10.7400  -54.5580  -77.0970 C   0  0  0  0  0  0
   -9.6700  -53.6650  -77.0590 C   0  0  0  0  0  0
   -6.3260  -51.2310  -74.5380 C   0  0  2  0  0  0
   -6.2370  -51.1770  -73.1030 O   0  0  0  0  0  0
   -5.9670  -49.8820  -75.1390 C   0  0  0  0  0  0
   -6.7460  -48.9360  -75.0650 O   0  0  0  0  0  0
   -4.7560  -49.8050  -75.7310 N   0  0  0  0  0  0
   -3.8070  -50.9200  -75.8190 C   0  0  0  0  0  0
   -2.2200  -50.1990  -75.9760 S   0  0  0  0  0  0
   -2.6900  -48.6150  -76.5610 C   0  0  0  0  0  0
   -1.9940  -47.5780  -75.6790 C   0  0  0  0  0  0
   -2.2110  -48.5270  -78.0110 C   0  0  0  0  0  0
   -4.2390  -48.5510  -76.3600 C   0  0  1  0  0  0
   -5.1130  -48.0910  -77.5420 C   0  0  0  0  0  0
   -5.9940  -48.8400  -77.9430 O   0  0  0  0  0  0
   -5.0240  -46.8850  -78.1420 N   0  0  0  0  0  0
   -4.0930  -45.7730  -77.9360 C   0  0  1  0  0  0
   -4.2370  -44.8150  -79.0500 C   0  0  0  0  0  0
   -4.2320  -45.1250  -80.4110 C   0  0  0  0  0  0
   -4.3830  -44.0690  -81.3160 C   0  0  0  0  0  0
   -4.5290  -42.7530  -80.8570 C   0  0  0  0  0  0
   -4.5340  -42.4610  -79.4890 C   0  0  0  0  0  0
   -4.3840  -43.5240  -78.6000 C   0  0  0  0  0  0
   -4.3670  -43.4430  -77.0910 C   0  0  0  0  0  0
   -4.3910  -44.9240  -76.6840 C   0  0  1  0  0  0
   -5.6530  -45.2570  -76.0960 O   0  0  0  0  0  0
  -11.5867  -49.3935  -75.0495 H   0  0  0  0  0  0
  -10.0935  -48.5552  -75.5919 H   0  0  0  0  0  0
  -10.3461  -47.5047  -77.3330 H   0  0  0  0  0  0
  -11.6155  -46.2353  -77.2719 H   0  0  0  0  0  0
  -10.8672  -46.6822  -78.8425 H   0  0  0  0  0  0
  -13.5378  -46.6964  -79.0807 H   0  0  0  0  0  0
  -15.3428  -48.3526  -79.4762 H   0  0  0  0  0  0
  -15.0739  -50.6907  -78.6892 H   0  0  0  0  0  0
  -12.0286  -51.9391  -76.8832 H   0  0  0  0  0  0
  -13.0581  -52.4669  -78.2573 H   0  0  0  0  0  0
  -13.8118  -52.0291  -76.6866 H   0  0  0  0  0  0
   -8.2586  -50.1592  -76.3268 H   0  0  0  0  0  0
   -8.1610  -52.2497  -74.0552 H   0  0  0  0  0  0
   -7.4440  -52.3434  -77.0343 H   0  0  0  0  0  0
   -6.5796  -53.4226  -75.8876 H   0  0  0  0  0  0
   -7.9479  -55.0050  -74.4362 H   0  0  0  0  0  0
   -9.8617  -56.5939  -74.5041 H   0  0  0  0  0  0
  -11.6462  -56.3029  -76.2099 H   0  0  0  0  0  0
  -11.5245  -54.4369  -77.8440 H   0  0  0  0  0  0
   -9.6159  -52.8447  -77.7748 H   0  0  0  0  0  0
   -5.5478  -51.9216  -74.8952 H   0  0  0  0  0  0
   -6.4646  -52.0709  -72.5038 H   0  0  0  0  0  0
   -3.8751  -51.5322  -74.9077 H   0  0  0  0  0  0
   -4.0489  -51.5391  -76.6955 H   0  0  0  0  0  0
   -0.9064  -47.6367  -75.8327 H   0  0  0  0  0  0
   -2.2265  -47.7796  -74.6229 H   0  0  0  0  0  0
   -2.3484  -46.5717  -75.9469 H   0  0  0  0  0  0
   -1.1127  -48.5813  -78.0382 H   0  0  0  0  0  0
   -2.5420  -47.5739  -78.4493 H   0  0  0  0  0  0
   -2.6339  -49.3625  -78.5882 H   0  0  0  0  0  0
   -4.3897  -47.7325  -75.6407 H   0  0  0  0  0  0
   -5.8187  -46.8041  -78.8983 H   0  0  0  0  0  0
   -3.1125  -46.2693  -77.8874 H   0  0  0  0  0  0
   -4.1147  -46.1523  -80.7560 H   0  0  0  0  0  0
   -4.3871  -44.2715  -82.3870 H   0  0  0  0  0  0
   -4.6405  -41.9433  -81.5781 H   0  0  0  0  0  0
   -4.6511  -41.4382  -79.1308 H   0  0  0  0  0  0
   -3.4554  -42.9227  -76.7620 H   0  0  0  0  0  0
   -5.2512  -42.8885  -76.7436 H   0  0  0  0  0  0
   -3.6809  -45.1499  -75.8749 H   0  0  0  0  0  0
   -5.8431  -46.2822  -75.7457 H   0  0  0  0  0  0
  1  2  2  0  0  0
  2  3  1  0  0  0
  2 13  1  0  0  0
  3  4  1  0  0  0
  3 46  1  0  0  0
  3 47  1  0  0  0
  4  5  1  0  0  0
  5  6  2  0  0  0
  5 11  1  0  0  0
  6  7  1  0  0  0
  6  8  1  0  0  0
  7 48  1  0  0  0
  7 49  1  0  0  0
  7 50  1  0  0  0
  8  9  2  0  0  0
  8 51  1  0  0  0
  9 10  1  0  0  0
  9 52  1  0  0  0
 10 11  2  0  0  0
 10 53  1  0  0  0
 11 12  1  0  0  0
 12 54  1  0  0  0
 12 55  1  0  0  0
 12 56  1  0  0  0
 13 14  1  0  0  0
 13 57  1  0  0  0
 14 15  1  0  0  0
 14 22  1  0  0  0
 14 58  1  0  0  0
 15 16  1  0  0  0
 15 59  1  0  0  0
 15 60  1  0  0  0
 16 17  2  0  0  0
 16 21  1  0  0  0
 17 18  1  0  0  0
 17 61  1  0  0  0
 18 19  2  0  0  0
 18 62  1  0  0  0
 19 20  1  0  0  0
 19 63  1  0  0  0
 20 21  2  0  0  0
 20 64  1  0  0  0
 21 65  1  0  0  0
 22 23  1  0  0  0
 22 24  1  0  0  0
 22 66  1  0  0  0
 23 67  1  0  0  0
 24 25  2  0  0  0
 24 26  1  0  0  0
 26 27  1  0  0  0
 26 32  1  0  0  0
 27 28  1  0  0  0
 27 68  1  0  0  0
 27 69  1  0  0  0
 28 29  1  0  0  0
 29 30  1  0  0  0
 29 31  1  0  0  0
 29 32  1  0  0  0
 30 70  1  0  0  0
 30 71  1  0  0  0
 30 72  1  0  0  0
 31 73  1  0  0  0
 31 74  1  0  0  0
 31 75  1  0  0  0
 32 33  1  0  0  0
 32 76  1  0  0  0
 33 34  2  0  0  0
 33 35  1  0  0  0
 35 36  1  0  0  0
 35 77  1  0  0  0
 36 37  1  0  0  0
 36 44  1  0  0  0
 36 78  1  0  0  0
 37 38  2  0  0  0
 37 42  1  0  0  0
 38 39  1  0  0  0
 38 79  1  0  0  0
 39 40  2  0  0  0
 39 80  1  0  0  0
 40 41  1  0  0  0
 40 81  1  0  0  0
 41 42  2  0  0  0
 41 82  1  0  0  0
 42 43  1  0  0  0
 43 44  1  0  0  0
 43 83  1  0  0  0
 43 84  1  0  0  0
 44 45  1  0  0  0
 44 85  1  0  0  0
 45 86  1  0  0  0
M  END
> <s_m_source_file>
../3fnu_ligand.sdf

> <i_m_source_file_index>
1

> <s_epik_input>
W0NIM11jMVtjSF1bY0hdW2NIXWMoW0NIM10pYzFPW0NIMl1DKD1PKVtOSF1bQ0BASF0oW0NIMl1jMltjSF1bY0hdW2NIXVtjSF1bY0hdMilbQ0BIXShbT0hdKUMoPU8pTihbQ0gyXVNDMyhbQ0gzXSlbQ0gzXSlbQ0BASF0zQyg9TylbTkhdW0NAQEhdNFtDQEhdKFtPSF0pW0NIMl1jKGM0NSlbY0hdW2NIXVtjSF1bY0hdNQ==

> <s_epik_cmdline>
J2VwaWtfYXBwJywgJy1pbWFlJywgJ2xpZ2FuZF9wcm8ubWFlJywgJy1vbWFlJywgJ2xpZ2FuZF9wcmVwLm1hZScsICctbXMnLCAnMScsICctcGgnLCAnNycsICctcGh0JywgJzAuNScsICctbnQn

> <r_lp_tautomer_probability>
1

> <r_epik_Ionization_Penalty>
  0.0036

> <r_epik_Ionization_Penalty_Charging>
  0.0000

> <r_epik_Ionization_Penalty_Neutral>
  0.0036

> <r_epik_State_Penalty>
 -0.0000

> <r_epik_Charging_Adjusted_Penalty>
0

> <i_epik_Tot_Q>
0

> <i_epik_Tot_abs_Q>
0

> <s_epik_Chemistry_Notes>
This compound contains an acetal/aminal-like group ( X-CH(R)-Y where X, Y are N, S, or O) that may be acid/base labile, releasing an aldehyde.

$$$$
