3fpd_ligand
                    3D
 Schrodinger Suite 2020-3.
 77 81  0  0  1  0            999 V2000
    1.8990  -29.1890   46.6310 C   0  0  0  0  0  0
    0.0320  -27.4210   47.5100 C   0  0  0  0  0  0
   -0.2820  -28.3580   46.5330 C   0  0  0  0  0  0
    4.1570  -30.0370   46.7880 C   0  0  0  0  0  0
    4.2220  -30.9210   48.0360 C   0  0  0  0  0  0
    3.2190  -32.0780   47.9980 C   0  0  0  0  0  0
    3.2680  -32.8060   46.7210 N   0  3  1  0  0  0
    3.1900  -34.2520   46.9800 C   0  0  0  0  0  0
    2.1260  -32.4060   45.8850 C   0  0  0  0  0  0
    2.4050  -31.0640   45.2060 C   0  0  0  0  0  0
    2.8030  -30.0740   46.2170 N   0  0  0  0  0  0
    2.2270  -28.2860   47.5670 N   0  0  0  0  0  0
    0.6610  -29.2180   46.1170 N   0  3  0  0  0  0
   -1.5760  -28.4240   46.0270 C   0  0  0  0  0  0
   -2.5560  -27.5640   46.5130 C   0  0  0  0  0  0
   -3.8120  -27.5720   45.9890 O   0  0  0  0  0  0
   -4.1880  -28.8640   45.5020 C   0  0  0  0  0  0
   -2.2460  -26.6430   47.5100 C   0  0  0  0  0  0
   -3.2440  -25.8940   48.0530 O   0  0  0  0  0  0
   -2.7860  -24.6450   48.5800 C   0  0  0  0  0  0
   -0.9470  -26.5650   48.0030 C   0  0  0  0  0  0
    1.3280  -27.3950   48.0120 C   0  0  0  0  0  0
    1.6880  -26.4360   48.8610 N   0  0  0  0  0  0
    3.0780  -26.3330   49.3300 C   0  0  1  0  0  0
    3.5670  -24.8860   49.2370 C   0  0  0  0  0  0
    4.9520  -24.7390   49.8730 C   0  0  0  0  0  0
    3.1450  -26.8070   50.7840 C   0  0  0  0  0  0
    4.5520  -26.5950   51.3450 C   0  0  0  0  0  0
    4.8890  -25.1650   51.2790 N   0  3  1  0  0  0
    6.1780  -24.9280   51.9470 C   0  0  0  0  0  0
    6.0320  -25.2140   53.4440 C   0  0  0  0  0  0
    5.6540  -24.1930   54.3110 C   0  0  0  0  0  0
    5.4690  -24.4630   55.6630 C   0  0  0  0  0  0
    5.6610  -25.7520   56.1510 C   0  0  0  0  0  0
    6.0420  -26.7740   55.2890 C   0  0  0  0  0  0
    6.2280  -26.5010   53.9370 C   0  0  0  0  0  0
    4.4076  -29.0008   47.0592 H   0  0  0  0  0  0
    4.8756  -30.4044   46.0406 H   0  0  0  0  0  0
    5.2295  -31.3531   48.1272 H   0  0  0  0  0  0
    4.0012  -30.3146   48.9268 H   0  0  0  0  0  0
    3.4467  -32.7873   48.8073 H   0  0  0  0  0  0
    2.2003  -31.6847   48.1309 H   0  0  0  0  0  0
    4.2088  -32.5702   46.2020 H   0  0  0  0  0  0
    4.0414  -34.5590   47.6052 H   0  0  0  0  0  0
    3.2205  -34.7976   46.0254 H   0  0  0  0  0  0
    2.2497  -34.4806   47.5031 H   0  0  0  0  0  0
    1.9526  -33.1690   45.1118 H   0  0  0  0  0  0
    1.2280  -32.3095   46.5128 H   0  0  0  0  0  0
    3.2167  -31.1854   44.4736 H   0  0  0  0  0  0
    1.4963  -30.7171   44.6922 H   0  0  0  0  0  0
   -1.8220  -29.1485   45.2507 H   0  0  0  0  0  0
   -5.2070  -28.8183   45.0902 H   0  0  0  0  0  0
   -4.1584  -29.5900   46.3279 H   0  0  0  0  0  0
   -3.4876  -29.1767   44.7136 H   0  0  0  0  0  0
   -3.6374  -24.0908   49.0019 H   0  0  0  0  0  0
   -2.3265  -24.0536   47.7744 H   0  0  0  0  0  0
   -2.0421  -24.8306   49.3688 H   0  0  0  0  0  0
   -0.6976  -25.8352   48.7732 H   0  0  0  0  0  0
    0.9343  -25.7159   49.2122 H   0  0  0  0  0  0
    3.6899  -26.9713   48.6756 H   0  0  0  0  0  0
    3.6283  -24.5869   48.1802 H   0  0  0  0  0  0
    2.8625  -24.2262   49.7645 H   0  0  0  0  0  0
    5.6734  -25.3672   49.3299 H   0  0  0  0  0  0
    5.2697  -23.6872   49.8209 H   0  0  0  0  0  0
    2.4263  -26.2353   51.3895 H   0  0  0  0  0  0
    2.8957  -27.8773   50.8326 H   0  0  0  0  0  0
    4.5846  -26.9339   52.3910 H   0  0  0  0  0  0
    5.2749  -27.1723   50.7499 H   0  0  0  0  0  0
    4.1130  -24.5786   51.7928 H   0  0  0  0  0  0
    6.9413  -25.5936   51.5176 H   0  0  0  0  0  0
    6.4801  -23.8806   51.7999 H   0  0  0  0  0  0
    5.5030  -23.1826   53.9309 H   0  0  0  0  0  0
    5.1730  -23.6631   56.3417 H   0  0  0  0  0  0
    5.5125  -25.9606   57.2105 H   0  0  0  0  0  0
    6.1943  -27.7838   55.6700 H   0  0  0  0  0  0
    6.5291  -27.3002   53.2597 H   0  0  0  0  0  0
    0.4046  -29.9548   45.3415 H   0  0  0  0  0  0
  1 11  1  0  0  0
  1 12  2  0  0  0
  1 13  1  0  0  0
  2  3  1  0  0  0
  2 21  1  0  0  0
  2 22  2  0  0  0
  3 13  2  0  0  0
  3 14  1  0  0  0
  4  5  1  0  0  0
  4 11  1  0  0  0
  4 37  1  0  0  0
  4 38  1  0  0  0
  5  6  1  0  0  0
  5 39  1  0  0  0
  5 40  1  0  0  0
  6  7  1  0  0  0
  6 41  1  0  0  0
  6 42  1  0  0  0
  7  8  1  0  0  0
  7  9  1  0  0  0
  7 43  1  0  0  0
  8 44  1  0  0  0
  8 45  1  0  0  0
  8 46  1  0  0  0
  9 10  1  0  0  0
  9 47  1  0  0  0
  9 48  1  0  0  0
 10 11  1  0  0  0
 10 49  1  0  0  0
 10 50  1  0  0  0
 12 22  1  0  0  0
 13 77  1  0  0  0
 14 15  2  0  0  0
 14 51  1  0  0  0
 15 16  1  0  0  0
 15 18  1  0  0  0
 16 17  1  0  0  0
 17 52  1  0  0  0
 17 53  1  0  0  0
 17 54  1  0  0  0
 18 19  1  0  0  0
 18 21  2  0  0  0
 19 20  1  0  0  0
 20 55  1  0  0  0
 20 56  1  0  0  0
 20 57  1  0  0  0
 21 58  1  0  0  0
 22 23  1  0  0  0
 23 24  1  0  0  0
 23 59  1  0  0  0
 24 25  1  0  0  0
 24 27  1  0  0  0
 24 60  1  0  0  0
 25 26  1  0  0  0
 25 61  1  0  0  0
 25 62  1  0  0  0
 26 29  1  0  0  0
 26 63  1  0  0  0
 26 64  1  0  0  0
 27 28  1  0  0  0
 27 65  1  0  0  0
 27 66  1  0  0  0
 28 29  1  0  0  0
 28 67  1  0  0  0
 28 68  1  0  0  0
 29 30  1  0  0  0
 29 69  1  0  0  0
 30 31  1  0  0  0
 30 70  1  0  0  0
 30 71  1  0  0  0
 31 32  2  0  0  0
 31 36  1  0  0  0
 32 33  1  0  0  0
 32 72  1  0  0  0
 33 34  2  0  0  0
 33 73  1  0  0  0
 34 35  1  0  0  0
 34 74  1  0  0  0
 35 36  2  0  0  0
 35 75  1  0  0  0
 36 76  1  0  0  0
M  CHG  3   7   1  13   1  29   1
M  END
> <s_m_source_file>
../3fpd_ligand.sdf

> <i_m_source_file_index>
1

> <s_epik_input>
W0NIM11PYyhbY0hdMSljKE9bQ0gzXSlbY0hdYyhjMTIpbmMoTihbQ0gyXVtDSDJdMylbQ0gyXVtDSDJdW0NIMl1bTkBIK10zW0NIM10pbmMyW05IXVtDQEhdNFtDSDJdW0NIMl1bTkBASCtdKFtDSDJdW0NIMl00KVtDSDJdYzVbY0hdW2NIXVtjSF1bY0hdW2NIXTU=

> <s_epik_cmdline>
J2VwaWtfYXBwJywgJy1pbWFlJywgJ2xpZ2FuZF9wcm8ubWFlJywgJy1vbWFlJywgJ2xpZ2FuZF9wcmVwLm1hZScsICctbXMnLCAnMScsICctcGgnLCAnNycsICctcGh0JywgJzAuNScsICctbnQn

> <r_lp_tautomer_probability>
1

> <r_epik_Ionization_Penalty>
  0.1926

> <r_epik_Ionization_Penalty_Charging>
  0.1926

> <r_epik_Ionization_Penalty_Neutral>
  0.0000

> <r_epik_State_Penalty>
 -0.0000

> <r_epik_Charging_Adjusted_Penalty>
0.192601460050012

> <i_epik_Tot_Q>
3

> <i_epik_Tot_abs_Q>
3

$$$$
