3fpm_ligand
                    3D
 Schrodinger Suite 2020-3.
 35 37  0  0  1  0            999 V2000
  232.7380   76.9440  187.1310 C   0  0  0  0  0  0
  232.0570   77.8620  186.1110 C   0  0  2  0  0  0
  231.3810   77.1050  184.9760 C   0  0  0  0  0  0
  229.9790   77.0030  184.8990 C   0  0  0  0  0  0
  229.3670   76.3040  183.8510 C   0  0  0  0  0  0
  230.1460   75.6990  182.8620 C   0  0  0  0  0  0
  232.1270   81.6970  184.1110 C   0  0  0  0  0  0
  231.4240   80.5540  184.6870 C   0  0  0  0  0  0
  235.1630   82.6740  183.7030 C   0  0  0  0  0  0
  234.4520   83.8650  183.4950 C   0  0  0  0  0  0
  235.1200   84.9720  182.9800 C   0  0  0  0  0  0
  237.1120   83.8260  182.8700 C   0  0  0  0  0  0
  236.5320   82.6690  183.3790 C   0  0  0  0  0  0
  231.5400   75.7910  182.9210 C   0  0  0  0  0  0
  232.1540   76.4890  183.9700 C   0  0  0  0  0  0
  233.0240   78.8160  185.5670 N   0  0  0  0  0  0
  232.7350   79.9590  184.9900 C   0  0  0  0  0  0
  233.3990   81.0330  184.4480 C   0  0  0  0  0  0
  231.6850   82.6960  183.6080 O   0  0  0  0  0  0
  230.2450   80.3470  184.7860 O   0  0  0  0  0  0
  234.6190   81.4720  184.2250 N   0  0  0  0  0  0
  236.4350   84.9790  182.6640 N   0  0  0  0  0  0
  232.0018   76.2321  187.5325 H   0  0  0  0  0  0
  233.1484   77.5495  187.9526 H   0  0  0  0  0  0
  233.5527   76.3913  186.6403 H   0  0  0  0  0  0
  231.2811   78.4375  186.6370 H   0  0  0  0  0  0
  229.3622   77.4739  185.6645 H   0  0  0  0  0  0
  228.2803   76.2319  183.8070 H   0  0  0  0  0  0
  229.6684   75.1564  182.0462 H   0  0  0  0  0  0
  233.3900   83.9228  183.7336 H   0  0  0  0  0  0
  234.5497   85.8874  182.8220 H   0  0  0  0  0  0
  238.1733   83.8025  182.6228 H   0  0  0  0  0  0
  237.1305   81.7698  183.5250 H   0  0  0  0  0  0
  232.1498   75.3194  182.1504 H   0  0  0  0  0  0
  233.2412   76.5565  184.0087 H   0  0  0  0  0  0
  1  2  1  0  0  0
  1 23  1  0  0  0
  1 24  1  0  0  0
  1 25  1  0  0  0
  2  3  1  0  0  0
  2 16  1  0  0  0
  2 26  1  0  0  0
  3  4  2  0  0  0
  3 15  1  0  0  0
  4  5  1  0  0  0
  4 27  1  0  0  0
  5  6  2  0  0  0
  5 28  1  0  0  0
  6 14  1  0  0  0
  6 29  1  0  0  0
  7  8  1  0  0  0
  7 18  1  0  0  0
  7 19  2  0  0  0
  8 17  1  0  0  0
  8 20  2  0  0  0
  9 10  2  0  0  0
  9 13  1  0  0  0
  9 21  1  0  0  0
 10 11  1  0  0  0
 10 30  1  0  0  0
 11 22  2  0  0  0
 11 31  1  0  0  0
 12 13  2  0  0  0
 12 22  1  0  0  0
 12 32  1  0  0  0
 13 33  1  0  0  0
 14 15  2  0  0  0
 14 34  1  0  0  0
 15 35  1  0  0  0
 16 17  2  0  0  0
 17 18  1  0  0  0
 18 21  2  0  0  0
M  END
> <s_m_source_file>
../3fpm_ligand.sdf

> <i_m_source_file_index>
1

> <s_epik_input>
W2NIXTFbY0hdW2NIXVtjSF1bY0hdYzFbQ0BASF0oW0NIM10pL049QyhcQyg9TylDMj1PKUNcMj1OXGMzW2NIXVtjSF1uW2NIXVtjSF0z

> <s_epik_cmdline>
J2VwaWtfYXBwJywgJy1pbWFlJywgJ2xpZ2FuZF9wcm8ubWFlJywgJy1vbWFlJywgJ2xpZ2FuZF9wcmVwLm1hZScsICctbXMnLCAnMScsICctcGgnLCAnNycsICctcGh0JywgJzAuNScsICctbnQn

> <r_lp_tautomer_probability>
1

> <r_epik_Ionization_Penalty>
  0.0000

> <r_epik_Ionization_Penalty_Charging>
  0.0000

> <r_epik_Ionization_Penalty_Neutral>
  0.0000

> <r_epik_State_Penalty>
 -0.0000

> <r_epik_Charging_Adjusted_Penalty>
0

> <i_epik_Tot_Q>
0

> <i_epik_Tot_abs_Q>
0

> <s_epik_Chemistry_Notes>
This compound has an imine and may undergo hydrolysis.

$$$$
