3fq7_ligand
                    3D
 Schrodinger Suite 2020-3.
 39 40  0  0  1  0            999 V2000
    4.1940   15.9520  -34.3100 N   0  3  0  0  0  0
    4.1130   17.0600  -35.1750 C   0  0  0  0  0  0
    3.3250   16.9030  -36.4400 C   0  0  0  0  0  0
    4.7690   18.3030  -34.8130 C   0  0  0  0  0  0
    4.6710   19.3800  -35.5850 O   0  5  0  0  0  0
    5.5520   17.3250  -32.7230 C   0  0  0  0  0  0
    4.9080   16.1100  -33.1100 C   0  0  0  0  0  0
    6.0540   17.3840  -31.2860 C   0  0  0  0  0  0
    5.3640   18.0090  -30.0610 O   0  0  0  0  0  0
    6.3180   18.8620  -29.1380 P   0  0  0  0  0  0
    5.2950   19.3930  -28.1470 O   0  5  0  0  0  0
    7.3650   17.8460  -28.3030 O   0  5  0  0  0  0
    7.1890   19.7850  -29.9230 O   0  0  0  0  0  0
    5.4890   18.4590  -33.6210 C   0  0  0  0  0  0
    6.2020   19.8860  -33.3840 C   0  0  0  0  0  0
   10.1570   23.1920  -31.7350 C   0  0  0  0  0  0
    9.0610   23.1380  -32.8230 C   0  0  0  0  0  0
   10.8350   24.2040  -31.4890 O   0  0  0  0  0  0
    7.9910   22.1430  -32.8490 C   0  0  0  0  0  0
    7.1290   21.9920  -34.0370 C   0  0  0  0  0  0
    7.3690   22.8000  -35.0930 C   0  0  0  0  0  0
    8.4010   23.8820  -35.0310 C   0  0  0  0  0  0
    9.1250   24.0940  -33.8150 C   0  0  0  0  0  0
   10.4490   22.2190  -31.0080 O   0  5  0  0  0  0
    6.0750   21.1290  -34.1800 N   0  0  0  0  0  0
    2.9241   15.8803  -36.4977 H   0  0  0  0  0  0
    3.9787   17.0900  -37.3047 H   0  0  0  0  0  0
    2.4938   17.6235  -36.4460 H   0  0  0  0  0  0
    4.9743   15.2562  -32.4356 H   0  0  0  0  0  0
    6.2027   16.3620  -30.9073 H   0  0  0  0  0  0
    7.0086   17.9296  -31.2532 H   0  0  0  0  0  0
    5.9156   20.2796  -32.3976 H   0  0  0  0  0  0
    7.2941   19.7617  -33.4262 H   0  0  0  0  0  0
    7.8278   21.5049  -31.9805 H   0  0  0  0  0  0
    6.7980   22.6606  -36.0109 H   0  0  0  0  0  0
    8.5995   24.5032  -35.9044 H   0  0  0  0  0  0
    9.7182   24.9976  -33.6749 H   0  0  0  0  0  0
    5.1892   21.2892  -34.8122 H   0  0  0  0  0  0
    3.7076   15.0040  -34.5835 H   0  0  0  0  0  0
  1  2  2  0  0  0
  1  7  1  0  0  0
  1 39  1  0  0  0
  2  3  1  0  0  0
  2  4  1  0  0  0
  3 26  1  0  0  0
  3 27  1  0  0  0
  3 28  1  0  0  0
  4  5  1  0  0  0
  4 14  2  0  0  0
  6  7  2  0  0  0
  6  8  1  0  0  0
  6 14  1  0  0  0
  7 29  1  0  0  0
  8  9  1  0  0  0
  8 30  1  0  0  0
  8 31  1  0  0  0
  9 10  1  0  0  0
 10 11  1  0  0  0
 10 12  1  0  0  0
 10 13  2  0  0  0
 14 15  1  0  0  0
 15 25  1  0  0  0
 15 32  1  0  0  0
 15 33  1  0  0  0
 16 17  1  0  0  0
 16 18  2  0  0  0
 16 24  1  0  0  0
 17 19  2  0  0  0
 17 23  1  0  0  0
 19 20  1  0  0  0
 19 34  1  0  0  0
 20 21  2  0  0  0
 20 25  1  0  0  0
 21 22  1  0  0  0
 21 35  1  0  0  0
 22 23  2  0  0  0
 22 36  1  0  0  0
 23 37  1  0  0  0
 25 38  1  0  0  0
M  CHG  5   1   1   5  -1  11  -1  12  -1  24  -1
M  END
> <s_m_source_file>
../3fq7_ligand.sdf

> <i_m_source_file_index>
1

> <s_epik_input>
W0NIM11jMW5bY0hdYyhbQ0gyXU9QKD1PKShbT0hdKVtPSF0pYyhjMVtPSF0pW0NIMl1bTkhdYyhbY0hdW2NIXVtjSF0yKVtjSF1jMkMoPU8pW09IXQ==

> <s_epik_cmdline>
J2VwaWtfYXBwJywgJy1pbWFlJywgJ2xpZ2FuZF9wcm8ubWFlJywgJy1vbWFlJywgJ2xpZ2FuZF9wcmVwLm1hZScsICctbXMnLCAnMScsICctcGgnLCAnNycsICctcGh0JywgJzAuNScsICctbnQn

> <r_lp_tautomer_probability>
0.56342

> <r_epik_Ionization_Penalty>
  0.2189

> <r_epik_Ionization_Penalty_Charging>
  0.2189

> <r_epik_Ionization_Penalty_Neutral>
  0.0000

> <r_epik_State_Penalty>
  0.1860

> <r_epik_Charging_Adjusted_Penalty>
0.404932793352413

> <i_epik_Tot_Q>
-3

> <i_epik_Tot_abs_Q>
5

$$$$
