3fqa_ligand
                    3D
 Schrodinger Suite 2020-3.
 16 16  0  0  1  0            999 V2000
    9.9040   25.4340  -30.7060 C   0  0  0  0  0  0
   10.7560   25.4560  -29.8170 O   0  0  0  0  0  0
    9.3240   26.6300  -30.6540 O   0  5  0  0  0  0
    9.5350   24.3720  -31.6530 C   0  0  0  0  0  0
   10.2610   23.0100  -31.6460 C   0  0  0  0  0  0
    9.7860   22.0260  -32.6700 C   0  0  0  0  0  0
    8.7130   22.3450  -33.5860 C   0  0  0  0  0  0
    8.1030   23.5780  -33.5300 C   0  0  0  0  0  0
    8.5190   24.6010  -32.5600 C   0  0  0  0  0  0
   10.3720   20.8460  -32.7270 N   0  0  0  0  0  0
   11.0633   22.7804  -30.9448 H   0  0  0  0  0  0
    8.3872   21.6089  -34.3209 H   0  0  0  0  0  0
    7.2912   23.8011  -34.2223 H   0  0  0  0  0  0
    8.0122   25.5660  -32.5564 H   0  0  0  0  0  0
   11.1881   20.6030  -32.0306 H   0  0  0  0  0  0
   10.0448   20.1048  -33.4710 H   0  0  0  0  0  0
  1  2  2  0  0  0
  1  3  1  0  0  0
  1  4  1  0  0  0
  4  5  2  0  0  0
  4  9  1  0  0  0
  5  6  1  0  0  0
  5 11  1  0  0  0
  6  7  2  0  0  0
  6 10  1  0  0  0
  7  8  1  0  0  0
  7 12  1  0  0  0
  8  9  2  0  0  0
  8 13  1  0  0  0
  9 14  1  0  0  0
 10 15  1  0  0  0
 10 16  1  0  0  0
M  CHG  1   3  -1
M  END
> <s_m_source_file>
../3fqa_ligand.sdf

> <i_m_source_file_index>
1

> <s_epik_input>
Tz1DKFtPSF0pYzFbY0hdYyhbTkgyXSlbY0hdW2NIXVtjSF0x

> <s_epik_cmdline>
J2VwaWtfYXBwJywgJy1pbWFlJywgJ2xpZ2FuZF9wcm8ubWFlJywgJy1vbWFlJywgJ2xpZ2FuZF9wcmVwLm1hZScsICctbXMnLCAnMScsICctcGgnLCAnNycsICctcGh0JywgJzAuNScsICctbnQn

> <r_lp_tautomer_probability>
1

> <r_epik_Ionization_Penalty>
  0.0021

> <r_epik_Ionization_Penalty_Charging>
  0.0009

> <r_epik_Ionization_Penalty_Neutral>
  0.0012

> <r_epik_State_Penalty>
 -0.0000

> <r_epik_Charging_Adjusted_Penalty>
0.000875703197476001

> <i_epik_Tot_Q>
-1

> <i_epik_Tot_abs_Q>
1

$$$$
