3fqh_ligand
                    3D
 Schrodinger Suite 2020-3.
 48 51  0  0  1  0            999 V2000
   -7.4760   -5.9830   10.0950 O   0  0  0  0  0  0
   -6.3320   -5.5830   10.3080 C   0  0  0  0  0  0
   -5.2660   -6.1510    9.7190 N   0  0  0  0  0  0
   -5.3000   -7.2850    8.7720 C   0  0  0  0  0  0
   -6.1700   -8.4520    9.2410 C   0  0  0  0  0  0
   -5.8510   -6.8400    7.4120 C   0  0  0  0  0  0
   -3.8720   -7.8080    8.5770 C   0  0  0  0  0  0
   -3.7830   -8.9780    7.7340 O   0  0  0  0  0  0
   -6.1710   -4.4170   11.2640 C   0  0  0  0  0  0
   -7.3220   -3.9040   11.8780 C   0  0  0  0  0  0
   -7.2430   -2.8290   12.7660 C   0  0  0  0  0  0
   -6.0090   -2.2430   13.0620 C   0  0  0  0  0  0
   -5.6610   -1.2140   13.8750 N   0  0  0  0  0  0
   -6.5910   -0.3970   14.6990 C   0  0  0  0  0  0
   -4.3280   -1.0210   13.8240 C   0  0  0  0  0  0
   -4.9210   -3.8370   11.5570 C   0  0  0  0  0  0
   -4.8600   -2.7570   12.4470 C   0  0  0  0  0  0
   -3.8340   -1.9740   12.9510 C   0  0  0  0  0  0
   -2.4630   -2.0520   12.6570 C   0  0  0  0  0  0
   -1.6660   -0.9760   12.8130 N   0  0  0  0  0  0
   -1.8280   -3.1940   12.2020 C   0  0  0  0  0  0
   -0.4980   -2.6690   12.1010 C   0  0  0  0  0  0
    0.6540   -3.3310   11.6690 C   0  0  0  0  0  0
    1.8610   -2.6270   11.6320 C   0  0  0  0  0  0
   -0.4200   -1.3350   12.4750 C   0  0  0  0  0  0
    0.7610   -0.6660   12.4210 N   0  0  0  0  0  0
    1.8890   -1.2890   12.0190 C   0  0  0  0  0  0
   -4.3041   -5.6963    9.9983 H   0  0  0  0  0  0
   -7.2027   -8.1032    9.3889 H   0  0  0  0  0  0
   -5.7761   -8.8447   10.1900 H   0  0  0  0  0  0
   -6.1569   -9.2475    8.4814 H   0  0  0  0  0  0
   -6.8764   -6.4620    7.5377 H   0  0  0  0  0  0
   -5.8579   -7.6961    6.7213 H   0  0  0  0  0  0
   -5.2140   -6.0427    7.0014 H   0  0  0  0  0  0
   -3.2553   -7.0253    8.1110 H   0  0  0  0  0  0
   -3.4442   -8.0790    9.5535 H   0  0  0  0  0  0
   -2.8036   -9.4347    7.5287 H   0  0  0  0  0  0
   -8.2921   -4.3503   11.6593 H   0  0  0  0  0  0
   -8.1503   -2.4441   13.2317 H   0  0  0  0  0  0
   -7.6198   -0.7609   14.5603 H   0  0  0  0  0  0
   -6.5292    0.6559   14.3865 H   0  0  0  0  0  0
   -6.3119   -0.4817   15.7596 H   0  0  0  0  0  0
   -3.7547   -0.2662   14.3621 H   0  0  0  0  0  0
   -4.0120   -4.2241   11.0966 H   0  0  0  0  0  0
   -2.0274   -4.2421   11.9340 H   0  0  0  0  0  0
    0.6233   -4.3866   11.3613 H   0  0  0  0  0  0
    2.7809   -3.1297   11.2988 H   0  0  0  0  0  0
    2.8305   -0.7401   11.9970 H   0  0  0  0  0  0
  1  2  2  0  0  0
  2  3  1  0  0  0
  2  9  1  0  0  0
  3  4  1  0  0  0
  3 28  1  0  0  0
  4  5  1  0  0  0
  4  6  1  0  0  0
  4  7  1  0  0  0
  5 29  1  0  0  0
  5 30  1  0  0  0
  5 31  1  0  0  0
  6 32  1  0  0  0
  6 33  1  0  0  0
  6 34  1  0  0  0
  7  8  1  0  0  0
  7 35  1  0  0  0
  7 36  1  0  0  0
  8 37  1  0  0  0
  9 10  2  0  0  0
  9 16  1  0  0  0
 10 11  1  0  0  0
 10 38  1  0  0  0
 11 12  2  0  0  0
 11 39  1  0  0  0
 12 13  1  0  0  0
 12 17  1  0  0  0
 13 14  1  0  0  0
 13 15  1  0  0  0
 14 40  1  0  0  0
 14 41  1  0  0  0
 14 42  1  0  0  0
 15 18  2  0  0  0
 15 43  1  0  0  0
 16 17  2  0  0  0
 16 44  1  0  0  0
 17 18  1  0  0  0
 18 19  1  0  0  0
 19 20  2  0  0  0
 19 21  1  0  0  0
 20 25  1  0  0  0
 21 22  2  0  0  0
 21 45  1  0  0  0
 22 23  1  0  0  0
 22 25  1  0  0  0
 23 24  2  0  0  0
 23 46  1  0  0  0
 24 27  1  0  0  0
 24 47  1  0  0  0
 25 26  2  0  0  0
 26 27  1  0  0  0
 27 48  1  0  0  0
M  END
> <s_m_source_file>
../3fqh_ligand.sdf

> <i_m_source_file_index>
1

> <s_epik_input>
W09IXVtDSDJdQyhbQ0gzXSkoW0NIM10pW05IXUMoPU8pYyhbY0hdW2NIXTEpW2NIXWMoYzEyKWMoW2NIXW4yW0NIM10pQyhbQ0hdPTMpPU5DKEMzNCk9TltDSDJdW0NIXT1bQ0hdNA==

> <s_epik_cmdline>
J2VwaWtfYXBwJywgJy1pbWFlJywgJ2xpZ2FuZF9wcm8ubWFlJywgJy1vbWFlJywgJ2xpZ2FuZF9wcmVwLm1hZScsICctbXMnLCAnMScsICctcGgnLCAnNycsICctcGh0JywgJzAuNScsICctbnQn

> <r_epik_Ionization_Penalty>
  0.1682

> <r_epik_Ionization_Penalty_Charging>
  0.0000

> <r_epik_Ionization_Penalty_Neutral>
  0.1682

> <r_epik_State_Penalty>
  0.1467

> <r_epik_Charging_Adjusted_Penalty>
0.146697114349589

> <i_epik_Tot_Q>
0

> <i_epik_Tot_abs_Q>
0

> <s_epik_Chemistry_Notes>
This compound has an imine and may undergo hydrolysis.

$$$$
