3fqk_ligand
                    3D
 Schrodinger Suite 2020-3.
 54 57  0  0  1  0            999 V2000
  -50.2710    8.7310    9.1190 C   0  0  0  0  0  0
  -49.6810    8.8100   10.5370 C   0  0  0  0  0  0
  -48.9570    8.0160    9.4410 C   0  0  0  0  0  0
  -45.8720   15.3300   11.0380 C   0  0  0  0  0  0
  -44.6290   15.3640   10.3860 C   0  0  0  0  0  0
  -43.8470   16.4900   10.4890 C   0  0  0  0  0  0
  -44.2750   17.5630   11.2610 C   0  0  0  0  0  0
  -45.4860   17.5330   11.9310 C   0  0  0  0  0  0
  -46.2810   16.4050   11.8390 C   0  0  0  0  0  0
  -49.1330   10.1460   11.0150 C   0  0  0  0  0  0
  -49.5550   10.7340   12.2370 C   0  0  0  0  0  0
  -49.0370   11.9630   12.6310 C   0  0  0  0  0  0
  -48.2210   10.8500   10.2210 C   0  0  0  0  0  0
  -47.7060   12.0880   10.6340 C   0  0  0  0  0  0
  -48.1210   12.6470   11.8520 C   0  0  0  0  0  0
  -47.5020   13.8320   12.0340 O   0  0  0  0  0  0
  -46.6980   14.1150   11.0030 C   0  0  0  0  0  0
  -46.7430   13.0640   10.0750 C   0  0  0  0  0  0
  -46.0340   12.9020    8.8040 C   0  0  0  0  0  0
  -45.2360   11.9890    8.7030 O   0  0  0  0  0  0
  -46.2930   13.7200    7.7640 N   0  0  0  0  0  0
  -45.6110   13.5910    6.4680 C   0  0  0  0  0  0
  -50.4380   10.1750   13.1800 N   0  0  0  0  0  0
  -49.7620    9.3270   14.4520 S   0  0  0  0  0  0
  -50.5680    8.1660   14.6160 O   0  0  0  0  0  0
  -48.3820    9.1150   14.2150 O   0  0  0  0  0  0
  -49.9110   10.4510   15.8670 C   0  0  0  0  0  0
  -43.4910   18.6420   11.3580 F   0  0  0  0  0  0
  -51.8880   10.4030   13.1610 C   0  0  0  0  0  0
  -52.6020    9.8930   11.9150 C   0  0  0  0  0  0
  -53.6790   10.8030   11.6810 O   0  0  0  0  0  0
  -51.2688    8.2700    9.1622 H   0  0  0  0  0  0
  -50.3531    9.7444    8.6990 H   0  0  0  0  0  0
  -50.0225    8.5781   11.5566 H   0  0  0  0  0  0
  -49.0729    6.9371    9.2607 H   0  0  0  0  0  0
  -48.1572    8.4114    8.7976 H   0  0  0  0  0  0
  -44.2879   14.5073    9.8047 H   0  0  0  0  0  0
  -42.8922   16.5409    9.9656 H   0  0  0  0  0  0
  -45.8092   18.3884   12.5242 H   0  0  0  0  0  0
  -47.2217   16.3522   12.3871 H   0  0  0  0  0  0
  -49.3606   12.3979   13.5766 H   0  0  0  0  0  0
  -47.9055   10.4298    9.2660 H   0  0  0  0  0  0
  -47.0470   14.5070    7.9128 H   0  0  0  0  0  0
  -45.9840   14.3631    5.7790 H   0  0  0  0  0  0
  -45.8112   12.5951    6.0459 H   0  0  0  0  0  0
  -44.5276   13.7182    6.6095 H   0  0  0  0  0  0
  -50.9746   10.6365   16.0775 H   0  0  0  0  0  0
  -49.4121   11.4030   15.6331 H   0  0  0  0  0  0
  -49.4367    9.9953   16.7487 H   0  0  0  0  0  0
  -52.3503    9.8949   14.0201 H   0  0  0  0  0  0
  -52.0903   11.4826   13.2212 H   0  0  0  0  0  0
  -51.8994    9.8813   11.0687 H   0  0  0  0  0  0
  -52.9740    8.8739   12.0968 H   0  0  0  0  0  0
  -54.3531   10.6490   10.8255 H   0  0  0  0  0  0
  1  2  1  0  0  0
  1  3  1  0  0  0
  1 32  1  0  0  0
  1 33  1  0  0  0
  2  3  1  0  0  0
  2 10  1  0  0  0
  2 34  1  0  0  0
  3 35  1  0  0  0
  3 36  1  0  0  0
  4  5  2  0  0  0
  4  9  1  0  0  0
  4 17  1  0  0  0
  5  6  1  0  0  0
  5 37  1  0  0  0
  6  7  2  0  0  0
  6 38  1  0  0  0
  7  8  1  0  0  0
  7 28  1  0  0  0
  8  9  2  0  0  0
  8 39  1  0  0  0
  9 40  1  0  0  0
 10 11  2  0  0  0
 10 13  1  0  0  0
 11 12  1  0  0  0
 11 23  1  0  0  0
 12 15  2  0  0  0
 12 41  1  0  0  0
 13 14  2  0  0  0
 13 42  1  0  0  0
 14 15  1  0  0  0
 14 18  1  0  0  0
 15 16  1  0  0  0
 16 17  1  0  0  0
 17 18  2  0  0  0
 18 19  1  0  0  0
 19 20  2  0  0  0
 19 21  1  0  0  0
 21 22  1  0  0  0
 21 43  1  0  0  0
 22 44  1  0  0  0
 22 45  1  0  0  0
 22 46  1  0  0  0
 23 24  1  0  0  0
 23 29  1  0  0  0
 24 25  2  0  0  0
 24 26  2  0  0  0
 24 27  1  0  0  0
 27 47  1  0  0  0
 27 48  1  0  0  0
 27 49  1  0  0  0
 29 30  1  0  0  0
 29 50  1  0  0  0
 29 51  1  0  0  0
 30 31  1  0  0  0
 30 52  1  0  0  0
 30 53  1  0  0  0
 31 54  1  0  0  0
M  END
> <s_m_source_file>
../3fqk_ligand.sdf

> <i_m_source_file_index>
1

> <s_epik_input>
W0NIMl0xW0NIMl1bQ0hdMWMoW2NIXTIpYyhOKFMoPU8pKD1PKVtDSDNdKVtDSDJdW0NIMl1bT0hdKVtjSF1jKGMyMylvYyhjM0MoPU8pW05IXVtDSDNdKS1jNFtjSF1bY0hdYyhGKVtjSF1bY0hdNA==

> <s_epik_cmdline>
J2VwaWtfYXBwJywgJy1pbWFlJywgJ2xpZ2FuZF9wcm8ubWFlJywgJy1vbWFlJywgJ2xpZ2FuZF9wcmVwLm1hZScsICctbXMnLCAnMScsICctcGgnLCAnNycsICctcGh0JywgJzAuNScsICctbnQn

> <r_lp_tautomer_probability>
1

> <r_epik_Ionization_Penalty>
  0.0000

> <r_epik_Ionization_Penalty_Charging>
  0.0000

> <r_epik_Ionization_Penalty_Neutral>
  0.0000

> <r_epik_State_Penalty>
 -0.0000

> <r_epik_Charging_Adjusted_Penalty>
0

> <i_epik_Tot_Q>
0

> <i_epik_Tot_abs_Q>
0

$$$$
