3fql_ligand
                    3D
 Schrodinger Suite 2020-3.
 54 57  0  0  1  0            999 V2000
  -14.2680   -9.6220   12.1590 C   0  0  0  0  0  0
  -14.4440   -9.7210   10.6420 C   0  0  0  0  0  0
  -13.1480  -10.1830   11.2940 C   0  0  0  0  0  0
  -18.4190  -16.0240    9.0740 C   0  0  0  0  0  0
  -17.6810  -17.1960    9.1660 C   0  0  0  0  0  0
  -18.2820  -18.3960    8.8350 C   0  0  0  0  0  0
  -19.5960  -18.4120    8.3880 C   0  0  0  0  0  0
  -20.3120  -17.2320    8.2490 C   0  0  0  0  0  0
  -19.7190  -16.0230    8.5820 C   0  0  0  0  0  0
  -15.4080  -10.7340   10.1300 C   0  0  0  0  0  0
  -16.4030  -10.3250    9.2180 C   0  0  0  0  0  0
  -17.3260  -11.2420    8.7130 C   0  0  0  0  0  0
  -15.3580  -12.0760   10.5580 C   0  0  0  0  0  0
  -16.2900  -12.9650   10.0380 C   0  0  0  0  0  0
  -17.2530  -12.5480    9.1340 C   0  0  0  0  0  0
  -18.1320  -13.5750    8.7270 O   0  0  0  0  0  0
  -17.7650  -14.7460    9.3480 C   0  0  0  0  0  0
  -16.5990  -14.4110   10.2110 C   0  0  0  0  0  0
  -15.7860  -15.3060   11.0950 C   0  0  0  0  0  0
  -14.5900  -15.3970   10.8810 O   0  0  0  0  0  0
  -16.3400  -16.0160   12.0780 N   0  0  0  0  0  0
  -15.6070  -16.9150   12.9650 C   0  0  0  0  0  0
  -16.5250   -9.0050    8.6980 N   0  0  0  0  0  0
  -15.9290   -8.7640    7.3020 S   0  0  0  0  0  0
  -15.1660   -7.5600    7.2420 O   0  0  0  0  0  0
  -15.0750   -9.8250    6.8270 O   0  0  0  0  0  0
  -17.2130   -8.6880    6.2330 C   0  0  0  0  0  0
  -20.1480  -19.6000    8.0610 F   0  0  0  0  0  0
  -17.2530   -7.9290    9.3200 C   0  0  0  0  0  0
  -17.5750   -8.2540   10.7640 C   0  0  0  0  0  0
  -18.0160   -7.0550   11.3900 O   0  0  0  0  0  0
  -14.3605   -8.5712   12.4710 H   0  0  0  0  0  0
  -15.0431  -10.2222   12.6580 H   0  0  0  0  0  0
  -14.6965   -9.0370    9.8183 H   0  0  0  0  0  0
  -12.2462   -9.5649   11.4155 H   0  0  0  0  0  0
  -12.9288  -11.2159   11.6024 H   0  0  0  0  0  0
  -16.6420  -17.1704    9.4947 H   0  0  0  0  0  0
  -17.7248  -19.3285    8.9249 H   0  0  0  0  0  0
  -21.3372  -17.2548    7.8793 H   0  0  0  0  0  0
  -20.2639  -15.0869    8.4598 H   0  0  0  0  0  0
  -18.0885  -10.9289    7.9998 H   0  0  0  0  0  0
  -14.6087  -12.4070   11.2771 H   0  0  0  0  0  0
  -17.4261  -15.8895   12.1983 H   0  0  0  0  0  0
  -16.3047  -17.3716   13.6824 H   0  0  0  0  0  0
  -14.8398  -16.3464   13.5109 H   0  0  0  0  0  0
  -15.1243  -17.7042   12.3698 H   0  0  0  0  0  0
  -17.9036   -7.8909    6.5456 H   0  0  0  0  0  0
  -17.7434   -9.6517    6.2280 H   0  0  0  0  0  0
  -16.8364   -8.4714    5.2224 H   0  0  0  0  0  0
  -16.6466   -7.0117    9.2920 H   0  0  0  0  0  0
  -18.1954   -7.7622    8.7777 H   0  0  0  0  0  0
  -18.3660   -9.0175   10.8004 H   0  0  0  0  0  0
  -16.6728   -8.6366   11.2637 H   0  0  0  0  0  0
  -18.3047   -7.0628   12.4514 H   0  0  0  0  0  0
  1  2  1  0  0  0
  1  3  1  0  0  0
  1 32  1  0  0  0
  1 33  1  0  0  0
  2  3  1  0  0  0
  2 10  1  0  0  0
  2 34  1  0  0  0
  3 35  1  0  0  0
  3 36  1  0  0  0
  4  5  2  0  0  0
  4  9  1  0  0  0
  4 17  1  0  0  0
  5  6  1  0  0  0
  5 37  1  0  0  0
  6  7  2  0  0  0
  6 38  1  0  0  0
  7  8  1  0  0  0
  7 28  1  0  0  0
  8  9  2  0  0  0
  8 39  1  0  0  0
  9 40  1  0  0  0
 10 11  2  0  0  0
 10 13  1  0  0  0
 11 12  1  0  0  0
 11 23  1  0  0  0
 12 15  2  0  0  0
 12 41  1  0  0  0
 13 14  2  0  0  0
 13 42  1  0  0  0
 14 15  1  0  0  0
 14 18  1  0  0  0
 15 16  1  0  0  0
 16 17  1  0  0  0
 17 18  2  0  0  0
 18 19  1  0  0  0
 19 20  2  0  0  0
 19 21  1  0  0  0
 21 22  1  0  0  0
 21 43  1  0  0  0
 22 44  1  0  0  0
 22 45  1  0  0  0
 22 46  1  0  0  0
 23 24  1  0  0  0
 23 29  1  0  0  0
 24 25  2  0  0  0
 24 26  2  0  0  0
 24 27  1  0  0  0
 27 47  1  0  0  0
 27 48  1  0  0  0
 27 49  1  0  0  0
 29 30  1  0  0  0
 29 50  1  0  0  0
 29 51  1  0  0  0
 30 31  1  0  0  0
 30 52  1  0  0  0
 30 53  1  0  0  0
 31 54  1  0  0  0
M  END
> <s_m_source_file>
../3fql_ligand.sdf

> <i_m_source_file_index>
1

> <s_epik_input>
W0NIMl0xW0NIMl1bQ0hdMWMoW2NIXTIpYyhOKFMoPU8pKD1PKVtDSDNdKVtDSDJdW0NIMl1bT0hdKVtjSF1jKGMyMylvYyhjM0MoPU8pW05IXVtDSDNdKS1jNFtjSF1bY0hdYyhGKVtjSF1bY0hdNA==

> <s_epik_cmdline>
J2VwaWtfYXBwJywgJy1pbWFlJywgJ2xpZ2FuZF9wcm8ubWFlJywgJy1vbWFlJywgJ2xpZ2FuZF9wcmVwLm1hZScsICctbXMnLCAnMScsICctcGgnLCAnNycsICctcGh0JywgJzAuNScsICctbnQn

> <r_lp_tautomer_probability>
1

> <r_epik_Ionization_Penalty>
  0.0000

> <r_epik_Ionization_Penalty_Charging>
  0.0000

> <r_epik_Ionization_Penalty_Neutral>
  0.0000

> <r_epik_State_Penalty>
 -0.0000

> <r_epik_Charging_Adjusted_Penalty>
0

> <i_epik_Tot_Q>
0

> <i_epik_Tot_abs_Q>
0

$$$$
