3fr2_ligand
                    3D
 Schrodinger Suite 2020-3.
 37 40  0  0  1  0            999 V2000
   17.6020    5.1640    1.0550 O   0  0  0  0  0  0
   18.0400    6.0880    1.7230 C   0  0  0  0  0  0
   17.4000    7.2540    1.6380 O   0  5  0  0  0  0
   19.1460    5.8400    2.7000 C   0  0  0  0  0  0
   18.8430    6.0320    4.0380 C   0  0  0  0  0  0
   19.7700    5.8230    5.0530 C   0  0  0  0  0  0
   21.0780    5.4000    4.8290 C   0  0  0  0  0  0
   21.4790    5.1670    3.5260 C   0  0  0  0  0  0
   22.7360    4.7430    2.8940 C   0  0  0  0  0  0
   24.0410    4.3600    3.5350 C   0  0  0  0  0  0
   25.1090    4.1730    2.4650 C   0  0  0  0  0  0
   24.6450    3.6030    1.1230 C   0  0  0  0  0  0
   23.4830    4.3450    0.4410 C   0  0  0  0  0  0
   22.4230    4.7350    1.4440 C   0  0  0  0  0  0
   21.1190    5.1000    1.2200 N   0  0  0  0  0  0
   20.5320    5.3720    2.4010 C   0  0  0  0  0  0
   20.5110    5.2600   -0.1000 C   0  0  0  0  0  0
   20.1900    4.0500   -0.9260 C   0  0  0  0  0  0
   20.2980    2.7770   -0.4000 C   0  0  0  0  0  0
   19.9970    1.6790   -1.2080 C   0  0  0  0  0  0
   19.5660    1.8730   -2.5200 C   0  0  0  0  0  0
   19.4610    3.1610   -3.0410 C   0  0  0  0  0  0
   19.7700    4.2570   -2.2390 C   0  0  0  0  0  0
   17.8385    6.3598    4.3056 H   0  0  0  0  0  0
   19.4555    6.0001    6.0815 H   0  0  0  0  0  0
   21.7685    5.2562    5.6600 H   0  0  0  0  0  0
   24.1993    4.2348    4.6061 H   0  0  0  0  0  0
   26.1520    4.4324    2.6464 H   0  0  0  0  0  0
   25.1100    2.7238    0.6770 H   0  0  0  0  0  0
   23.4312    4.5611   -0.6261 H   0  0  0  0  0  0
   19.5459    5.7780    0.0012 H   0  0  0  0  0  0
   21.1794    5.8522   -0.7423 H   0  0  0  0  0  0
   20.6143    2.6318    0.6329 H   0  0  0  0  0  0
   20.0990    0.6684   -0.8127 H   0  0  0  0  0  0
   19.3103    1.0139   -3.1402 H   0  0  0  0  0  0
   19.1385    3.3102   -4.0715 H   0  0  0  0  0  0
   19.6841    5.2689   -2.6350 H   0  0  0  0  0  0
  1  2  2  0  0  0
  2  3  1  0  0  0
  2  4  1  0  0  0
  4  5  2  0  0  0
  4 16  1  0  0  0
  5  6  1  0  0  0
  5 24  1  0  0  0
  6  7  2  0  0  0
  6 25  1  0  0  0
  7  8  1  0  0  0
  7 26  1  0  0  0
  8  9  1  0  0  0
  8 16  2  0  0  0
  9 10  2  0  0  0
  9 14  1  0  0  0
 10 11  1  0  0  0
 10 27  1  0  0  0
 11 12  2  0  0  0
 11 28  1  0  0  0
 12 13  1  0  0  0
 12 29  1  0  0  0
 13 14  2  0  0  0
 13 30  1  0  0  0
 14 15  1  0  0  0
 15 16  1  0  0  0
 15 17  1  0  0  0
 17 18  1  0  0  0
 17 31  1  0  0  0
 17 32  1  0  0  0
 18 19  2  0  0  0
 18 23  1  0  0  0
 19 20  1  0  0  0
 19 33  1  0  0  0
 20 21  2  0  0  0
 20 34  1  0  0  0
 21 22  1  0  0  0
 21 35  1  0  0  0
 22 23  2  0  0  0
 22 36  1  0  0  0
 23 37  1  0  0  0
M  CHG  1   3  -1
M  END
> <s_m_source_file>
../3fr2_ligand.sdf

> <i_m_source_file_index>
1

> <s_epik_input>
W2NIXTFbY0hdW2NIXWMoQyg9TylbT0hdKWMybihjKGMzYzEyKVtjSF1bY0hdW2NIXVtjSF0zKVtDSDJdYzRbY0hdW2NIXVtjSF1bY0hdW2NIXTQ=

> <s_epik_cmdline>
J2VwaWtfYXBwJywgJy1pbWFlJywgJ2xpZ2FuZF9wcm8ubWFlJywgJy1vbWFlJywgJ2xpZ2FuZF9wcmVwLm1hZScsICctbXMnLCAnMScsICctcGgnLCAnNycsICctcGh0JywgJzAuNScsICctbnQn

> <r_lp_tautomer_probability>
1

> <r_epik_Ionization_Penalty>
  0.0008

> <r_epik_Ionization_Penalty_Charging>
  0.0008

> <r_epik_Ionization_Penalty_Neutral>
  0.0000

> <r_epik_State_Penalty>
 -0.0000

> <r_epik_Charging_Adjusted_Penalty>
0.000798702719088152

> <i_epik_Tot_Q>
-1

> <i_epik_Tot_abs_Q>
1

$$$$
