3fr4_ligand
                    3D
 Schrodinger Suite 2020-3.
 44 47  0  0  1  0            999 V2000
   20.3950    4.6200   -4.4170 F   0  0  0  0  0  0
   20.7030    4.9190   -3.1670 C   0  0  0  0  0  0
   21.9640    5.2030   -3.0900 F   0  0  0  0  0  0
   19.9950    5.9550   -2.7770 F   0  0  0  0  0  0
   20.4010    3.7500   -2.2880 C   0  0  0  0  0  0
   19.9760    2.5550   -2.8580 C   0  0  0  0  0  0
   19.6820    1.4850   -2.0170 C   0  0  0  0  0  0
   19.7740    1.5780   -0.6120 C   0  0  0  0  0  0
   20.1640    2.7710    0.0000 C   0  0  0  0  0  0
   20.4800    3.8660   -0.8070 C   0  0  0  0  0  0
   20.9260    5.1790   -0.2250 C   0  0  0  0  0  0
   21.4570    5.0260    1.1210 N   0  0  0  0  0  0
   22.7140    4.5740    1.3980 C   0  0  0  0  0  0
   23.8180    4.1210    0.4600 C   0  0  0  0  0  0
   24.8850    3.4450    1.3050 C   0  0  0  0  0  0
   25.2600    4.3070    2.5090 C   0  0  0  0  0  0
   24.1770    4.1370    3.5630 C   0  0  0  0  0  0
   22.9100    4.5650    2.8620 C   0  0  0  0  0  0
   20.7670    5.3270    2.2600 C   0  0  0  0  0  0
   21.6440    5.0790    3.4170 C   0  0  0  0  0  0
   21.1880    5.3230    4.7020 C   0  0  0  0  0  0
   19.8870    5.8090    4.8690 C   0  0  0  0  0  0
   19.0280    6.0820    3.8130 C   0  0  0  0  0  0
   19.3660    5.8490    2.4760 C   0  0  0  0  0  0
   18.2880    6.2340    1.4770 C   0  0  0  0  0  0
   17.7130    7.3010    1.6220 O   0  0  0  0  0  0
   17.8730    5.4740    0.4670 O   0  5  0  0  0  0
   19.8753    2.4581   -3.9390 H   0  0  0  0  0  0
   19.3690    0.5399   -2.4607 H   0  0  0  0  0  0
   19.5381    0.7091    0.0023 H   0  0  0  0  0  0
   20.2206    2.8461    1.0859 H   0  0  0  0  0  0
   21.7145    5.6118   -0.8582 H   0  0  0  0  0  0
   20.0710    5.8697   -0.1806 H   0  0  0  0  0  0
   23.4065    3.4155   -0.2768 H   0  0  0  0  0  0
   24.2366    4.9939   -0.0622 H   0  0  0  0  0  0
   24.5068    2.4781    1.6684 H   0  0  0  0  0  0
   25.7858    3.2807    0.6955 H   0  0  0  0  0  0
   26.2319    3.9791    2.9062 H   0  0  0  0  0  0
   25.3270    5.3603    2.1992 H   0  0  0  0  0  0
   24.1377    3.0850    3.8820 H   0  0  0  0  0  0
   24.4055    4.7747    4.4297 H   0  0  0  0  0  0
   21.8291    5.1403    5.5644 H   0  0  0  0  0  0
   19.5281    5.9828    5.8834 H   0  0  0  0  0  0
   18.0451    6.4970    4.0362 H   0  0  0  0  0  0
  1  2  1  0  0  0
  2  3  1  0  0  0
  2  4  1  0  0  0
  2  5  1  0  0  0
  5  6  2  0  0  0
  5 10  1  0  0  0
  6  7  1  0  0  0
  6 28  1  0  0  0
  7  8  2  0  0  0
  7 29  1  0  0  0
  8  9  1  0  0  0
  8 30  1  0  0  0
  9 10  2  0  0  0
  9 31  1  0  0  0
 10 11  1  0  0  0
 11 12  1  0  0  0
 11 32  1  0  0  0
 11 33  1  0  0  0
 12 13  1  0  0  0
 12 19  1  0  0  0
 13 14  1  0  0  0
 13 18  2  0  0  0
 14 15  1  0  0  0
 14 34  1  0  0  0
 14 35  1  0  0  0
 15 16  1  0  0  0
 15 36  1  0  0  0
 15 37  1  0  0  0
 16 17  1  0  0  0
 16 38  1  0  0  0
 16 39  1  0  0  0
 17 18  1  0  0  0
 17 40  1  0  0  0
 17 41  1  0  0  0
 18 20  1  0  0  0
 19 20  2  0  0  0
 19 24  1  0  0  0
 20 21  1  0  0  0
 21 22  2  0  0  0
 21 42  1  0  0  0
 22 23  1  0  0  0
 22 43  1  0  0  0
 23 24  2  0  0  0
 23 44  1  0  0  0
 24 25  1  0  0  0
 25 26  2  0  0  0
 25 27  1  0  0  0
M  CHG  1  27  -1
M  END
> <s_m_source_file>
../3fr4_ligand.sdf

> <i_m_source_file_index>
1

> <s_epik_input>
RkMoRikoRiljMVtjSF1bY0hdW2NIXVtjSF1jMVtDSDJdbjJjKGMoQyg9TylbT0hdKVtjSF1bY0hdW2NIXTMpYzNjKGMyNClbQ0gyXVtDSDJdW0NIMl1bQ0gyXTQ=

> <s_epik_cmdline>
J2VwaWtfYXBwJywgJy1pbWFlJywgJ2xpZ2FuZF9wcm8ubWFlJywgJy1vbWFlJywgJ2xpZ2FuZF9wcmVwLm1hZScsICctbXMnLCAnMScsICctcGgnLCAnNycsICctcGh0JywgJzAuNScsICctbnQn

> <r_lp_tautomer_probability>
1

> <r_epik_Ionization_Penalty>
  0.0011

> <r_epik_Ionization_Penalty_Charging>
  0.0011

> <r_epik_Ionization_Penalty_Neutral>
  0.0000

> <r_epik_State_Penalty>
 -0.0000

> <r_epik_Charging_Adjusted_Penalty>
0.00106421366722597

> <i_epik_Tot_Q>
-1

> <i_epik_Tot_abs_Q>
1

$$$$
