3fr5_ligand
                    3D
 Schrodinger Suite 2020-3.
 48 51  0  0  1  0            999 V2000
   16.9070    4.7650    2.8130 O   0  0  0  0  0  0
   17.5870    5.7870    2.7560 C   0  0  0  0  0  0
   17.2000    6.7600    1.9360 O   0  5  0  0  0  0
   18.8160    5.9430    3.5890 C   0  0  0  0  0  0
   20.0840    5.2170    3.3170 C   0  0  0  0  0  0
   21.2260    5.4290    4.2370 C   0  0  0  0  0  0
   22.3000    4.5840    3.6710 C   0  0  0  0  0  0
   23.7130    4.3500    4.1200 C   0  0  0  0  0  0
   24.6820    4.6820    2.9900 C   0  0  0  0  0  0
   24.8500    3.6190    1.9050 C   0  0  0  0  0  0
   23.5870    3.6330    1.0130 C   0  0  0  0  0  0
   22.3440    2.9480    1.5820 C   0  0  0  0  0  0
   21.6590    3.9210    2.4900 C   0  0  0  0  0  0
   21.0790    6.2990    5.3200 C   0  0  0  0  0  0
   19.8700    6.9620    5.5400 C   0  0  0  0  0  0
   18.7760    6.7830    4.6900 C   0  0  0  0  0  0
   20.3970    4.3160    2.3490 N   0  0  0  0  0  0
   19.5810    3.8280    1.2600 C   0  0  0  0  0  0
   19.9060    4.4160   -0.0950 C   0  0  0  0  0  0
   19.6180    3.6300   -1.1970 C   0  0  0  0  0  0
   19.9060    4.0940   -2.4740 C   0  0  0  0  0  0
   19.6230    3.2120   -3.6530 C   0  0  0  0  0  0
   20.2560    3.5060   -4.7760 N   0  0  0  0  0  0
   18.8790    2.2320   -3.5540 O   0  0  0  0  0  0
   20.4610    5.3610   -2.6760 C   0  0  0  0  0  0
   20.7220    6.1590   -1.5630 C   0  0  0  0  0  0
   20.4640    5.6840   -0.2710 C   0  0  0  0  0  0
   23.9336    4.9917    4.9858 H   0  0  0  0  0  0
   23.8373    3.2948    4.4046 H   0  0  0  0  0  0
   24.3431    5.5911    2.4716 H   0  0  0  0  0  0
   25.6865    4.8499    3.4058 H   0  0  0  0  0  0
   25.7408    3.8484    1.3017 H   0  0  0  0  0  0
   24.9696    2.6315    2.3746 H   0  0  0  0  0  0
   23.2918    4.6734    0.8117 H   0  0  0  0  0  0
   23.8035    3.1229    0.0628 H   0  0  0  0  0  0
   21.6748    2.6594    0.7580 H   0  0  0  0  0  0
   22.6441    2.0502    2.1422 H   0  0  0  0  0  0
   21.9156    6.4618    5.9994 H   0  0  0  0  0  0
   19.7779    7.6338    6.3934 H   0  0  0  0  0  0
   17.8546    7.3256    4.9013 H   0  0  0  0  0  0
   19.7046    2.7388    1.1688 H   0  0  0  0  0  0
   18.5249    4.0617    1.4599 H   0  0  0  0  0  0
   19.1655    2.6475   -1.0629 H   0  0  0  0  0  0
   20.9106    4.3888   -4.8235 H   0  0  0  0  0  0
   20.1281    2.8678   -5.6628 H   0  0  0  0  0  0
   20.6848    5.7172   -3.6816 H   0  0  0  0  0  0
   21.1301    7.1605   -1.6994 H   0  0  0  0  0  0
   20.6982    6.3027    0.5953 H   0  0  0  0  0  0
  1  2  2  0  0  0
  2  3  1  0  0  0
  2  4  1  0  0  0
  4  5  1  0  0  0
  4 16  2  0  0  0
  5  6  2  0  0  0
  5 17  1  0  0  0
  6  7  1  0  0  0
  6 14  1  0  0  0
  7  8  1  0  0  0
  7 13  2  0  0  0
  8  9  1  0  0  0
  8 28  1  0  0  0
  8 29  1  0  0  0
  9 10  1  0  0  0
  9 30  1  0  0  0
  9 31  1  0  0  0
 10 11  1  0  0  0
 10 32  1  0  0  0
 10 33  1  0  0  0
 11 12  1  0  0  0
 11 34  1  0  0  0
 11 35  1  0  0  0
 12 13  1  0  0  0
 12 36  1  0  0  0
 12 37  1  0  0  0
 13 17  1  0  0  0
 14 15  2  0  0  0
 14 38  1  0  0  0
 15 16  1  0  0  0
 15 39  1  0  0  0
 16 40  1  0  0  0
 17 18  1  0  0  0
 18 19  1  0  0  0
 18 41  1  0  0  0
 18 42  1  0  0  0
 19 20  2  0  0  0
 19 27  1  0  0  0
 20 21  1  0  0  0
 20 43  1  0  0  0
 21 22  1  0  0  0
 21 25  2  0  0  0
 22 23  1  0  0  0
 22 24  2  0  0  0
 23 44  1  0  0  0
 23 45  1  0  0  0
 25 26  1  0  0  0
 25 46  1  0  0  0
 26 27  2  0  0  0
 26 47  1  0  0  0
 27 48  1  0  0  0
M  CHG  1   3  -1
M  END
> <s_m_source_file>
../3fr5_ligand.sdf

> <i_m_source_file_index>
1

> <s_epik_input>
Tz1DKFtPSF0pYzFbY0hdW2NIXVtjSF1jKGMxMiljM2MoW0NIMl1bQ0gyXVtDSDJdW0NIMl1bQ0gyXTMpbjJbQ0gyXWM0W2NIXWMoQyg9TylbTkgyXSlbY0hdW2NIXVtjSF00

> <s_epik_cmdline>
J2VwaWtfYXBwJywgJy1pbWFlJywgJ2xpZ2FuZF9wcm8ubWFlJywgJy1vbWFlJywgJ2xpZ2FuZF9wcmVwLm1hZScsICctbXMnLCAnMScsICctcGgnLCAnNycsICctcGh0JywgJzAuNScsICctbnQn

> <r_lp_tautomer_probability>
1

> <r_epik_Ionization_Penalty>
  0.0011

> <r_epik_Ionization_Penalty_Charging>
  0.0011

> <r_epik_Ionization_Penalty_Neutral>
  0.0000

> <r_epik_State_Penalty>
 -0.0000

> <r_epik_Charging_Adjusted_Penalty>
0.00106637380283049

> <i_epik_Tot_Q>
-1

> <i_epik_Tot_abs_Q>
1

$$$$
