3frg_ligand
                    3D
 Schrodinger Suite 2020-3.
 43 45  0  0  1  0            999 V2000
   50.3210   48.5390   64.3570 O   0  0  0  0  0  0
   49.8820   48.1920   65.6740 S   0  0  0  0  0  0
   50.1050   49.2010   66.6770 O   0  0  0  0  0  0
   50.6470   46.6940   66.1750 C   0  0  0  0  0  0
   48.1720   47.8010   65.6730 C   0  0  0  0  0  0
   47.4370   47.9590   66.8300 C   0  0  0  0  0  0
   46.0920   47.6760   66.8570 C   0  0  0  0  0  0
   45.4740   47.2120   65.7030 C   0  0  0  0  0  0
   44.1200   46.9460   65.7620 N   0  0  0  0  0  0
   43.4960   46.5240   64.6590 C   0  0  0  0  0  0
   44.1680   46.2840   63.4720 C   0  0  0  0  0  0
   43.3620   45.8630   62.2700 C   0  0  0  0  0  0
   43.8400   46.0620   61.1630 O   0  0  0  0  0  0
   42.0550   45.4880   62.4640 N   0  0  0  0  0  0
   46.2040   47.0490   64.5180 C   0  0  0  0  0  0
   47.5800   47.3240   64.5180 C   0  0  0  0  0  0
   45.5330   46.5720   63.3630 C   0  0  0  0  0  0
   46.3010   46.3350   62.1680 N   0  0  0  0  0  0
   47.5840   45.6980   62.0060 C   0  0  0  0  0  0
   48.4160   45.9150   60.9540 C   0  0  0  0  0  0
   49.6270   45.2680   60.8670 C   0  0  0  0  0  0
   50.3940   45.5090   59.7870 O   0  0  0  0  0  0
   49.9720   46.4110   58.7830 C   0  0  0  0  0  0
   50.0550   44.3820   61.8650 C   0  0  0  0  0  0
   49.2200   44.1390   62.9460 C   0  0  0  0  0  0
   47.9860   44.8020   62.9980 C   0  0  0  0  0  0
   51.7377   46.8327   66.2088 H   0  0  0  0  0  0
   50.4006   45.8983   65.4565 H   0  0  0  0  0  0
   50.2821   46.4121   67.1737 H   0  0  0  0  0  0
   47.9298   48.3132   67.7354 H   0  0  0  0  0  0
   45.5175   47.8141   67.7730 H   0  0  0  0  0  0
   42.4186   46.3626   64.6944 H   0  0  0  0  0  0
   41.6760   45.3218   63.4832 H   0  0  0  0  0  0
   41.3873   45.3539   61.6002 H   0  0  0  0  0  0
   48.1748   47.1636   63.6188 H   0  0  0  0  0  0
   45.9140   46.6619   61.1916 H   0  0  0  0  0  0
   48.1202   46.6107   60.1688 H   0  0  0  0  0  0
   50.7365   46.4652   57.9939 H   0  0  0  0  0  0
   49.8282   47.4087   59.2234 H   0  0  0  0  0  0
   49.0231   46.0607   58.3508 H   0  0  0  0  0  0
   51.0263   43.8927   61.7932 H   0  0  0  0  0  0
   49.5164   43.4490   63.7360 H   0  0  0  0  0  0
   47.3196   44.6119   63.8393 H   0  0  0  0  0  0
  1  2  2  0  0  0
  2  3  2  0  0  0
  2  4  1  0  0  0
  2  5  1  0  0  0
  4 27  1  0  0  0
  4 28  1  0  0  0
  4 29  1  0  0  0
  5  6  2  0  0  0
  5 16  1  0  0  0
  6  7  1  0  0  0
  6 30  1  0  0  0
  7  8  2  0  0  0
  7 31  1  0  0  0
  8  9  1  0  0  0
  8 15  1  0  0  0
  9 10  2  0  0  0
 10 11  1  0  0  0
 10 32  1  0  0  0
 11 12  1  0  0  0
 11 17  2  0  0  0
 12 13  2  0  0  0
 12 14  1  0  0  0
 14 33  1  0  0  0
 14 34  1  0  0  0
 15 16  2  0  0  0
 15 17  1  0  0  0
 16 35  1  0  0  0
 17 18  1  0  0  0
 18 19  1  0  0  0
 18 36  1  0  0  0
 19 20  2  0  0  0
 19 26  1  0  0  0
 20 21  1  0  0  0
 20 37  1  0  0  0
 21 22  1  0  0  0
 21 24  2  0  0  0
 22 23  1  0  0  0
 23 38  1  0  0  0
 23 39  1  0  0  0
 23 40  1  0  0  0
 24 25  1  0  0  0
 24 41  1  0  0  0
 25 26  2  0  0  0
 25 42  1  0  0  0
 26 43  1  0  0  0
M  END
> <s_m_source_file>
../3frg_ligand.sdf

> <i_m_source_file_index>
1

> <s_epik_input>
Tz1TKD1PKShbQ0gzXSljKFtjSF1bY0hdMSlbY0hdYyhjMTIpYyhjKFtjSF1uMilDKD1PKVtOSDJdKVtOSF1jM1tjSF1jKE9bQ0gzXSlbY0hdW2NIXVtjSF0z

> <s_epik_cmdline>
J2VwaWtfYXBwJywgJy1pbWFlJywgJ2xpZ2FuZF9wcm8ubWFlJywgJy1vbWFlJywgJ2xpZ2FuZF9wcmVwLm1hZScsICctbXMnLCAnMScsICctcGgnLCAnNycsICctcGh0JywgJzAuNScsICctbnQn

> <r_lp_tautomer_probability>
1

> <r_epik_Ionization_Penalty>
  0.0002

> <r_epik_Ionization_Penalty_Charging>
  0.0000

> <r_epik_Ionization_Penalty_Neutral>
  0.0002

> <r_epik_State_Penalty>
 -0.0000

> <r_epik_Charging_Adjusted_Penalty>
0

> <i_epik_Tot_Q>
0

> <i_epik_Tot_abs_Q>
0

$$$$
