3frz_ligand
                    3D
 Schrodinger Suite 2020-3.
 74 78  0  0  1  0            999 V2000
   44.3910   15.1730   53.4050 O   0  0  0  0  0  0
   43.3270   14.6420   53.3930 C   0  0  0  0  0  0
   43.0870   13.5250   52.4850 C   0  0  0  0  0  0
   41.8380   12.9230   52.5130 C   0  0  0  0  0  0
   41.5840   11.8920   51.6950 O   0  5  0  0  0  0
   44.2620   13.0230   51.5630 C   0  0  0  0  0  0
   44.5410   13.8790   50.3340 C   0  0  0  0  0  0
   45.7290   14.0770   49.8250 N   0  0  0  0  0  0
   43.5340   14.5690   49.6350 N   0  0  0  0  0  0
   44.1590   15.1600   48.6940 C   0  0  0  0  0  0
   45.4790   14.8470   48.8200 N   0  0  0  0  0  0
   46.3370   15.3880   47.9440 C   0  0  0  0  0  0
   45.8850   16.2230   46.9550 C   0  0  0  0  0  0
   47.7950   15.0410   48.0970 C   0  0  0  0  0  0
   43.6220   15.9730   47.7660 N   0  0  0  0  0  0
   44.5030   16.4880   46.8930 C   0  0  0  0  0  0
   43.9820   17.4050   45.8200 C   0  0  0  0  0  0
   42.3030   15.0680   54.1570 O   0  0  0  0  0  0
   41.0500   14.4180   54.3730 C   0  0  2  0  0  0
   40.6630   13.3270   53.3690 C   0  0  0  0  0  0
   39.9540   15.4580   54.7220 C   0  0  0  0  0  0
   38.6510   14.9170   55.3320 C   0  0  0  0  0  0
   39.5430   16.3050   53.5470 C   0  0  0  0  0  0
   38.1800   16.9360   53.9030 C   0  0  0  0  0  0
   37.6030   15.9930   54.9470 C   0  0  0  0  0  0
   41.3930   13.5900   55.6550 C   0  0  0  0  0  0
   41.9230   14.4070   56.8880 C   0  0  0  0  0  0
   42.2090   13.4780   58.0000 C   0  0  0  0  0  0
   43.4390   12.7680   58.1400 C   0  0  0  0  0  0
   41.2750   13.2220   58.9650 C   0  0  0  0  0  0
   41.4860   12.3590   59.9760 C   0  0  0  0  0  0
   40.3700   12.1700   60.9790 C   0  0  0  0  0  0
   40.6310   12.9700   62.2710 C   0  0  0  0  0  0
   42.6520   11.6790   60.1470 N   0  3  0  0  0  0
   43.5830   11.9150   59.2220 C   0  0  0  0  0  0
   44.8850   11.1630   59.3880 C   0  0  0  0  0  0
   44.9860   10.0280   58.3810 C   0  0  0  0  0  0
   45.1968   12.9967   52.1421 H   0  0  0  0  0  0
   44.0316   12.0132   51.1926 H   0  0  0  0  0  0
   46.5746   16.6685   46.2380 H   0  0  0  0  0  0
   47.9222   14.3606   48.9519 H   0  0  0  0  0  0
   48.3743   15.9599   48.2703 H   0  0  0  0  0  0
   48.1530   14.5492   47.1805 H   0  0  0  0  0  0
   44.8172   17.7424   45.1887 H   0  0  0  0  0  0
   43.4988   18.2767   46.2855 H   0  0  0  0  0  0
   43.2491   16.8663   45.2014 H   0  0  0  0  0  0
   39.8576   13.7137   52.7273 H   0  0  0  0  0  0
   40.2986   12.4524   53.9278 H   0  0  0  0  0  0
   40.4670   16.0673   55.4807 H   0  0  0  0  0  0
   38.4228   13.9332   54.8960 H   0  0  0  0  0  0
   38.7698   14.8168   56.4210 H   0  0  0  0  0  0
   40.2997   17.0844   53.3743 H   0  0  0  0  0  0
   39.4572   15.6724   52.6512 H   0  0  0  0  0  0
   38.3378   17.9495   54.3005 H   0  0  0  0  0  0
   37.5538   16.9896   53.0002 H   0  0  0  0  0  0
   36.7086   15.5028   54.5351 H   0  0  0  0  0  0
   37.3255   16.5710   55.8408 H   0  0  0  0  0  0
   40.4918   13.0646   56.0042 H   0  0  0  0  0  0
   42.1770   12.8556   55.4183 H   0  0  0  0  0  0
   42.8432   14.9400   56.6065 H   0  0  0  0  0  0
   41.1595   15.1341   57.2017 H   0  0  0  0  0  0
   44.2434   12.8935   57.4152 H   0  0  0  0  0  0
   40.3172   13.7397   58.9133 H   0  0  0  0  0  0
   39.4215   12.5147   60.5414 H   0  0  0  0  0  0
   40.2878   11.1045   61.2396 H   0  0  0  0  0  0
   39.8017   12.8094   62.9756 H   0  0  0  0  0  0
   40.7056   14.0408   62.0305 H   0  0  0  0  0  0
   41.5719   12.6306   62.7287 H   0  0  0  0  0  0
   45.7285   11.8515   59.2317 H   0  0  0  0  0  0
   44.9385   10.7421   60.4029 H   0  0  0  0  0  0
   45.9392    9.4972   58.5212 H   0  0  0  0  0  0
   44.9410   10.4376   57.3611 H   0  0  0  0  0  0
   44.1509    9.3282   58.5323 H   0  0  0  0  0  0
   42.7702   10.9960   61.0011 H   0  0  0  0  0  0
  1  2  2  0  0  0
  2  3  1  0  0  0
  2 18  1  0  0  0
  3  4  2  0  0  0
  3  6  1  0  0  0
  4  5  1  0  0  0
  4 20  1  0  0  0
  6  7  1  0  0  0
  6 38  1  0  0  0
  6 39  1  0  0  0
  7  8  2  0  0  0
  7  9  1  0  0  0
  8 11  1  0  0  0
  9 10  2  0  0  0
 10 11  1  0  0  0
 10 15  1  0  0  0
 11 12  1  0  0  0
 12 13  2  0  0  0
 12 14  1  0  0  0
 13 16  1  0  0  0
 13 40  1  0  0  0
 14 41  1  0  0  0
 14 42  1  0  0  0
 14 43  1  0  0  0
 15 16  2  0  0  0
 16 17  1  0  0  0
 17 44  1  0  0  0
 17 45  1  0  0  0
 17 46  1  0  0  0
 18 19  1  0  0  0
 19 20  1  0  0  0
 19 21  1  0  0  0
 19 26  1  0  0  0
 20 47  1  0  0  0
 20 48  1  0  0  0
 21 22  1  0  0  0
 21 23  1  0  0  0
 21 49  1  0  0  0
 22 25  1  0  0  0
 22 50  1  0  0  0
 22 51  1  0  0  0
 23 24  1  0  0  0
 23 52  1  0  0  0
 23 53  1  0  0  0
 24 25  1  0  0  0
 24 54  1  0  0  0
 24 55  1  0  0  0
 25 56  1  0  0  0
 25 57  1  0  0  0
 26 27  1  0  0  0
 26 58  1  0  0  0
 26 59  1  0  0  0
 27 28  1  0  0  0
 27 60  1  0  0  0
 27 61  1  0  0  0
 28 29  2  0  0  0
 28 30  1  0  0  0
 29 35  1  0  0  0
 29 62  1  0  0  0
 30 31  2  0  0  0
 30 63  1  0  0  0
 31 32  1  0  0  0
 31 34  1  0  0  0
 32 33  1  0  0  0
 32 64  1  0  0  0
 32 65  1  0  0  0
 33 66  1  0  0  0
 33 67  1  0  0  0
 33 68  1  0  0  0
 34 35  2  0  0  0
 34 74  1  0  0  0
 35 36  1  0  0  0
 36 37  1  0  0  0
 36 69  1  0  0  0
 36 70  1  0  0  0
 37 71  1  0  0  0
 37 72  1  0  0  0
 37 73  1  0  0  0
M  CHG  2   5  -1  34   1
M  END
> <s_m_source_file>
../3frz_ligand.sdf

> <i_m_source_file_index>
1

> <s_epik_input>
bjFjKFtDSDNdKVtjSF1jKFtDSDNdKW4oYzEyKW5jKG4yKVtDSDJdQyg9QyhbT0hdKVtDSDJdMylDKD1PKU9bQ0BdMyhbQ0hdNFtDSDJdW0NIMl1bQ0gyXVtDSDJdNClbQ0gyXVtDSDJdYzVbY0hdYyhbQ0gyXVtDSDNdKW5jKFtjSF01KVtDSDJdW0NIM10=

> <s_epik_cmdline>
J2VwaWtfYXBwJywgJy1pbWFlJywgJ2xpZ2FuZF9wcm8ubWFlJywgJy1vbWFlJywgJ2xpZ2FuZF9wcmVwLm1hZScsICctbXMnLCAnMScsICctcGgnLCAnNycsICctcGh0JywgJzAuNScsICctbnQn

> <r_epik_Ionization_Penalty>
  0.3444

> <r_epik_Ionization_Penalty_Charging>
  0.3444

> <r_epik_Ionization_Penalty_Neutral>
  0.0000

> <r_epik_State_Penalty>
  0.3098

> <r_epik_Charging_Adjusted_Penalty>
0.654181129531507

> <i_epik_Tot_Q>
0

> <i_epik_Tot_abs_Q>
2

> <s_epik_Chemistry_Notes>
This compound has an ester and may undergo hydrolysis at high or low pH.

$$$$
