3fsj_ligand
                    3D
 Schrodinger Suite 2020-3.
 80 82  0  0  1  0            999 V2000
   27.0510    6.7110   30.3630 P   0  0  2  0  0  0
   26.8620    6.0090   31.8130 O   0  5  0  0  0  0
   28.4210    7.1450   30.1110 O   0  0  0  0  0  0
   24.3250    9.7660   30.7880 O   0  5  0  0  0  0
   24.5220    8.1860   30.4060 P   0  0  0  0  0  0
   24.0200    7.2200   31.6290 O   0  5  0  0  0  0
   23.9210    7.8600   29.1050 O   0  0  0  0  0  0
   26.1430    8.0550   30.2520 O   0  0  0  0  0  0
   26.5390    5.6390   29.2520 O   0  0  0  0  0  0
   26.8760    5.8180   27.9050 C   0  0  0  0  0  0
   25.6810    5.2030   27.1790 C   0  0  0  0  0  0
   25.8700    5.2630   25.6740 C   0  0  2  0  0  0
   26.5120    4.1330   24.8110 C   0  0  1  0  0  0
   27.0380    2.8010   25.3570 C   0  0  0  0  0  0
   25.6860    6.6280   24.7750 S   0  0  0  0  0  0
   26.2820    6.0360   23.1880 C   0  0  1  0  0  0
   26.5460    4.5330   23.3090 N   0  0  3  0  0  0
   26.9370    3.6080   22.2580 C   0  0  0  0  0  0
   28.4590    3.4750   22.1430 C   0  0  1  0  0  0
   29.1220    2.1600   22.4290 C   0  0  0  0  0  0
   29.3060    4.6480   21.6920 C   0  0  1  0  0  0
   28.7270    5.9220   21.3940 N   0  3  0  0  0  0
   30.7420    4.5400   21.5620 N   0  0  1  0  0  0
   31.4010    3.2430   21.8600 C   0  0  1  0  0  0
   30.5660    2.0450   22.2880 N   0  3  0  0  0  0
   32.9080    3.1560   21.7010 C   0  0  0  0  0  0
   23.3850    6.9890   20.1690 O   0  5  0  0  0  0
   23.9710    6.0950   21.4300 P   0  0  2  0  0  0
   24.0810    4.6930   21.0470 O   0  0  0  0  0  0
   22.9740    6.2540   22.7390 O   0  0  0  0  0  0
   21.6800    6.7580   22.5620 C   0  0  0  0  0  0
   25.6960    6.6630   21.8810 C   0  0  2  0  0  0
   26.4630    6.3050   20.7520 O   0  0  0  0  0  0
   25.7580    8.2010   22.0080 C   0  0  0  0  0  0
   26.9880    8.9580   21.4220 C   0  0  0  0  0  0
   27.0720   10.4820   21.5350 C   0  0  0  0  0  0
   25.9330   11.2700   22.2400 C   0  0  0  0  0  0
   24.7170   10.5250   22.8270 C   0  0  0  0  0  0
   24.6300    8.9860   22.7100 C   0  0  0  0  0  0
   26.9953    6.8914   27.6964 H   0  0  0  0  0  0
   27.8201    5.2957   27.6907 H   0  0  0  0  0  0
   25.5716    4.1505   27.4793 H   0  0  0  0  0  0
   24.7675    5.7563   27.4424 H   0  0  0  0  0  0
   25.1503    4.7948   26.3616 H   0  0  0  0  0  0
   27.5042    4.5848   24.9575 H   0  0  0  0  0  0
   26.8957    2.7699   26.4473 H   0  0  0  0  0  0
   28.1089    2.7066   25.1241 H   0  0  0  0  0  0
   26.4869    1.9706   24.8914 H   0  0  0  0  0  0
   27.2518    6.3360   22.7644 H   0  0  0  0  0  0
   26.5217    2.6123   22.4727 H   0  0  0  0  0  0
   26.5508    3.9659   21.2922 H   0  0  0  0  0  0
   28.7119    3.6646   23.1966 H   0  0  0  0  0  0
   28.9257    1.8695   23.4716 H   0  0  0  0  0  0
   28.7197    1.3917   21.7523 H   0  0  0  0  0  0
   29.1719    4.3419   20.6440 H   0  0  0  0  0  0
   27.6368    5.8703   21.5308 H   0  0  0  0  0  0
   28.9534    6.1930   20.3522 H   0  0  0  0  0  0
   29.1457    6.6822   22.0699 H   0  0  0  0  0  0
   31.0342    4.7637   20.5254 H   0  0  0  0  0  0
   31.5124    3.5415   22.9128 H   0  0  0  0  0  0
   31.0065    1.7531   23.2528 H   0  0  0  0  0  0
   30.8009    1.2816   21.5317 H   0  0  0  0  0  0
   33.3006    4.1343   21.3866 H   0  0  0  0  0  0
   33.1534    2.4006   20.9400 H   0  0  0  0  0  0
   33.3621    2.8701   22.6612 H   0  0  0  0  0  0
   21.1644    6.7936   23.5330 H   0  0  0  0  0  0
   21.1228    6.1045   21.8747 H   0  0  0  0  0  0
   21.7361    7.7720   22.1392 H   0  0  0  0  0  0
   26.5611    5.2472   20.4667 H   0  0  0  0  0  0
   26.2790    8.1004   22.9716 H   0  0  0  0  0  0
   27.9055    8.6035   21.9145 H   0  0  0  0  0  0
   27.0551    8.7670   20.3408 H   0  0  0  0  0  0
   27.9759   10.7587   22.0975 H   0  0  0  0  0  0
   27.1177   10.9224   20.5280 H   0  0  0  0  0  0
   26.3445   11.8184   23.1002 H   0  0  0  0  0  0
   25.4864   11.9823   21.5307 H   0  0  0  0  0  0
   24.6576   10.7154   23.9088 H   0  0  0  0  0  0
   23.7977   10.8832   22.3406 H   0  0  0  0  0  0
   23.6800    8.8126   22.1833 H   0  0  0  0  0  0
   24.5393    8.6448   23.7518 H   0  0  0  0  0  0
  1  2  1  0  0  0
  1  3  2  0  0  0
  1  8  1  0  0  0
  1  9  1  0  0  0
  4  5  1  0  0  0
  5  6  1  0  0  0
  5  7  2  0  0  0
  5  8  1  0  0  0
  9 10  1  0  0  0
 10 11  1  0  0  0
 10 40  1  0  0  0
 10 41  1  0  0  0
 11 12  1  0  0  0
 11 42  1  0  0  0
 11 43  1  0  0  0
 12 13  1  0  0  0
 12 15  1  0  0  0
 12 44  1  0  0  0
 13 14  1  0  0  0
 13 17  1  0  0  0
 13 45  1  0  0  0
 14 46  1  0  0  0
 14 47  1  0  0  0
 14 48  1  0  0  0
 15 16  1  0  0  0
 16 17  1  0  0  0
 16 32  1  0  0  0
 16 49  1  0  0  0
 17 18  1  0  0  0
 18 19  1  0  0  0
 18 50  1  0  0  0
 18 51  1  0  0  0
 19 20  1  0  0  0
 19 21  1  0  0  0
 19 52  1  0  0  0
 20 25  1  0  0  0
 20 53  1  0  0  0
 20 54  1  0  0  0
 21 22  1  0  0  0
 21 23  1  0  0  0
 21 55  1  0  0  0
 22 56  1  0  0  0
 22 57  1  0  0  0
 22 58  1  0  0  0
 23 24  1  0  0  0
 23 59  1  0  0  0
 24 25  1  0  0  0
 24 26  1  0  0  0
 24 60  1  0  0  0
 25 61  1  0  0  0
 25 62  1  0  0  0
 26 63  1  0  0  0
 26 64  1  0  0  0
 26 65  1  0  0  0
 27 28  1  0  0  0
 28 29  2  0  0  0
 28 30  1  0  0  0
 28 32  1  0  0  0
 30 31  1  0  0  0
 31 66  1  0  0  0
 31 67  1  0  0  0
 31 68  1  0  0  0
 32 33  1  0  0  0
 32 34  1  0  0  0
 33 69  1  0  0  0
 34 35  1  0  0  0
 34 39  1  0  0  0
 34 70  1  0  0  0
 35 36  1  0  0  0
 35 71  1  0  0  0
 35 72  1  0  0  0
 36 37  1  0  0  0
 36 73  1  0  0  0
 36 74  1  0  0  0
 37 38  1  0  0  0
 37 75  1  0  0  0
 37 76  1  0  0  0
 38 39  1  0  0  0
 38 77  1  0  0  0
 38 78  1  0  0  0
 39 79  1  0  0  0
 39 80  1  0  0  0
M  CHG  6   2  -1   4  -1   6  -1  22   1  25   1  27  -1
M  END
> <s_m_source_file>
../3fsj_ligand.sdf

> <i_m_source_file_index>
1

> <s_epik_input>
W09IXVAoPU8pKFtPSF0pT1tQQEBdKD1PKShbT0hdKU9bQ0gyXVtDSDJdW0NAQEhdMVtDSF0oW0NIM10pW05IK10oW0NASF0oUzEpW0NAQF0oW09IXSkoW1BAXSg9TykoW09IXSlPW0NIM10pW0NIXTJbQ0gyXVtDSDJdW0NIMl1bQ0gyXVtDSDJdMilbQ0gyXVtDQEhdM1tDSDJdW05IMitdW0NIXShbQ0gzXSlbTkgyK11bQ0hdM1tOSDMrXQ==

> <s_epik_cmdline>
J2VwaWtfYXBwJywgJy1pbWFlJywgJ2xpZ2FuZF9wcm8ubWFlJywgJy1vbWFlJywgJ2xpZ2FuZF9wcmVwLm1hZScsICctbXMnLCAnMScsICctcGgnLCAnNycsICctcGh0JywgJzAuNScsICctbnQn

> <r_epik_Ionization_Penalty>
  0.4112

> <r_epik_Ionization_Penalty_Charging>
  0.4111

> <r_epik_Ionization_Penalty_Neutral>
  0.0001

> <r_epik_State_Penalty>
  0.1502

> <r_epik_Charging_Adjusted_Penalty>
0.561326870215282

> <i_epik_Tot_Q>
-2

> <i_epik_Tot_abs_Q>
6

> <s_epik_Chemistry_Notes>
This compound contains an acetal/aminal-like group ( X-CH(R)-Y where X, Y are N, S, or O) that may be acid/base labile, releasing an aldehyde.

$$$$
