3fsm_ligand
                    3D
 Schrodinger Suite 2020-3.
123122  0  0  1  0            999 V2000
    4.4010   -8.8450   16.3700 C   0  0  0  0  0  0
    3.5210   -8.6950   17.2250 O   0  0  0  0  0  0
    4.1290   -9.5660   15.0670 C   0  0  0  0  0  0
    5.7070   -8.6900   16.6840 N   0  0  0  0  0  0
    6.2050   -8.0010   17.8940 C   0  0  2  0  0  0
    6.7980   -6.5730   17.7130 C   0  0  0  0  0  0
    7.0580   -5.8650   18.7030 O   0  0  0  0  0  0
    7.2730   -8.8240   18.5750 C   0  0  2  0  0  0
    8.3880   -9.0430   17.7050 O   0  0  0  0  0  0
    6.6870  -10.2050   19.0410 C   0  0  0  0  0  0
    6.9410   -6.1060   16.4880 N   0  0  0  0  0  0
    7.4620   -4.7880   16.2250 C   0  0  2  0  0  0
    6.4160   -3.8830   15.5340 C   0  0  0  0  0  0
    6.3110   -3.7880   14.3080 O   0  0  0  0  0  0
    8.8170   -4.8400   15.4450 C   0  0  2  0  0  0
    9.8140   -5.8370   16.0610 C   0  0  0  0  0  0
    9.4690   -3.4840   15.3830 C   0  0  0  0  0  0
   10.2030   -5.6140   17.4710 C   0  0  0  0  0  0
    5.5620   -3.2570   16.2990 N   0  0  0  0  0  0
    4.4390   -2.5650   15.6580 C   0  0  2  0  0  0
    4.6320   -1.0690   15.4890 C   0  0  0  0  0  0
    3.1100   -2.9340   16.3540 C   0  0  0  0  0  0
    2.9040   -4.4170   16.6390 C   0  0  0  0  0  0
    2.7780   -5.3130   15.3990 C   0  0  0  0  0  0
    1.7650   -4.6420   14.4980 C   0  0  0  0  0  0
    5.8920   -0.6900   14.8600 N   0  3  0  0  0  0
    5.8880    0.4950   13.9670 C   0  0  2  0  0  0
    4.8110    0.4090   12.8950 C   0  0  0  0  0  0
    4.5430   -0.5880   12.2030 O   0  0  0  0  0  0
    7.3060    0.7540   13.4480 C   0  0  0  0  0  0
    7.4940    1.9190   12.4660 C   0  0  0  0  0  0
    7.5800    1.3900   11.0320 C   0  0  0  0  0  0
    8.7240    0.4150   10.7910 C   0  0  0  0  0  0
    4.1960    1.5400   12.6730 N   0  0  0  0  0  0
    3.2220    1.6660   11.6010 C   0  0  2  0  0  0
    3.2490    3.0780   10.9890 C   0  0  0  0  0  0
    3.3200    4.1080   11.6650 O   0  0  0  0  0  0
    1.8250    1.2380   12.0590 C   0  0  0  0  0  0
    0.7300    1.4090   10.9830 C   0  0  0  0  0  0
    0.1080    2.7700   10.9340 C   0  0  0  0  0  0
    0.1570    3.5100   11.8990 O   0  0  0  0  0  0
   -0.5170    3.1000    9.8280 N   0  0  0  0  0  0
    3.2270    3.0900    9.6880 N   0  0  0  0  0  0
    3.3260    4.3070    8.9270 C   0  0  2  0  0  0
    2.0580    4.4170    8.1230 C   0  0  0  0  0  0
    1.7730    3.5250    7.2760 O   0  0  0  0  0  0
    4.5550    4.1760    8.0320 C   0  0  0  0  0  0
    5.8050    3.8230    8.8040 C   0  0  0  0  0  0
    7.0720    4.1940    8.0950 C   0  0  0  0  0  0
    6.9540    5.4420    7.3340 N   0  0  0  0  0  0
    7.9850    6.1100    6.8350 C   0  0  0  0  0  0
    7.7830    7.2270    6.1410 N   0  0  0  0  0  0
    9.2180    5.6860    7.0640 N   0  3  0  0  0  0
    1.3960    5.5850    8.0750 N   0  0  0  0  0  0
    3.0430   -9.6382   14.9077 H   0  0  0  0  0  0
    4.5613  -10.5766   15.1100 H   0  0  0  0  0  0
    4.5850   -9.0071   14.2366 H   0  0  0  0  0  0
    6.4186   -9.1204   15.9640 H   0  0  0  0  0  0
    5.2679   -7.9333   18.4661 H   0  0  0  0  0  0
    7.6849   -8.2302   19.4042 H   0  0  0  0  0  0
    8.9287   -8.1858   17.2775 H   0  0  0  0  0  0
    5.8304  -10.0331   19.7093 H   0  0  0  0  0  0
    7.4631  -10.7703   19.5777 H   0  0  0  0  0  0
    6.3571  -10.7786   18.1623 H   0  0  0  0  0  0
    6.6476   -6.7583   15.6523 H   0  0  0  0  0  0
    7.6398   -4.3980   17.2381 H   0  0  0  0  0  0
    8.5903   -5.1569   14.4163 H   0  0  0  0  0  0
    9.3865   -6.8500   16.0291 H   0  0  0  0  0  0
   10.7532   -5.8172   15.4888 H   0  0  0  0  0  0
    8.7672   -2.7595   14.9441 H   0  0  0  0  0  0
   10.3744   -3.5406   14.7609 H   0  0  0  0  0  0
    9.7416   -3.1615   16.3987 H   0  0  0  0  0  0
   10.9147   -6.3927   17.7826 H   0  0  0  0  0  0
    9.3084   -5.6582   18.1095 H   0  0  0  0  0  0
   10.6751   -4.6253   17.5691 H   0  0  0  0  0  0
    5.6665   -3.2389   17.3939 H   0  0  0  0  0  0
    4.4505   -2.9489   14.6272 H   0  0  0  0  0  0
    3.8255   -0.6640   14.8600 H   0  0  0  0  0  0
    4.6073   -0.5824   16.4752 H   0  0  0  0  0  0
    3.0504   -2.4217   17.3256 H   0  0  0  0  0  0
    2.2658   -2.6209   15.7220 H   0  0  0  0  0  0
    3.7579   -4.8015   17.2160 H   0  0  0  0  0  0
    1.9788   -4.5541   17.2180 H   0  0  0  0  0  0
    3.7570   -5.3938   14.9040 H   0  0  0  0  0  0
    2.4371   -6.3137   15.7028 H   0  0  0  0  0  0
    1.6312   -5.2421   13.5859 H   0  0  0  0  0  0
    2.1235   -3.6380   14.2270 H   0  0  0  0  0  0
    0.8036   -4.5580   15.0259 H   0  0  0  0  0  0
    6.6363   -0.4631   15.6375 H   0  0  0  0  0  0
    6.2548   -1.5203   14.2363 H   0  0  0  0  0  0
    5.5908    1.3668   14.5683 H   0  0  0  0  0  0
    7.9719    0.9748   14.2952 H   0  0  0  0  0  0
    7.6709   -0.1379   12.9176 H   0  0  0  0  0  0
    6.6398    2.6075   12.5460 H   0  0  0  0  0  0
    8.4224    2.4568   12.7085 H   0  0  0  0  0  0
    6.6487    0.8617   10.7796 H   0  0  0  0  0  0
    7.7235    2.2318   10.3386 H   0  0  0  0  0  0
    8.7112    0.0871    9.7411 H   0  0  0  0  0  0
    8.6063   -0.4583   11.4494 H   0  0  0  0  0  0
    9.6811    0.9118   11.0084 H   0  0  0  0  0  0
    4.4252    2.4052   13.3124 H   0  0  0  0  0  0
    3.5526    0.9496   10.8345 H   0  0  0  0  0  0
    1.8409    0.1744   12.3392 H   0  0  0  0  0  0
    1.5230    1.8415   12.9276 H   0  0  0  0  0  0
    1.1606    1.2203    9.9885 H   0  0  0  0  0  0
   -0.0843    0.6940   11.1717 H   0  0  0  0  0  0
   -0.5375    2.4015    8.9784 H   0  0  0  0  0  0
   -1.0203    4.0750    9.7506 H   0  0  0  0  0  0
    3.1285    2.1243    9.1706 H   0  0  0  0  0  0
    3.4233    5.1803    9.5887 H   0  0  0  0  0  0
    4.3841    3.3839    7.2881 H   0  0  0  0  0  0
    4.7364    5.1305    7.5162 H   0  0  0  0  0  0
    5.8015    4.3513    9.7688 H   0  0  0  0  0  0
    5.8328    2.7376    8.9804 H   0  0  0  0  0  0
    7.8791    4.3247    8.8308 H   0  0  0  0  0  0
    7.3448    3.3953    7.3895 H   0  0  0  0  0  0
    5.9626    5.8802    7.1464 H   0  0  0  0  0  0
    6.7582    7.5788    5.9511 H   0  0  0  0  0  0
    8.6408    7.7987    5.7572 H   0  0  0  0  0  0
    9.3843    4.7624    7.6379 H   0  0  0  0  0  0
    1.6261    6.3779    8.8019 H   0  0  0  0  0  0
    0.6239    5.7485    7.3088 H   0  0  0  0  0  0
   10.0762    6.2573    6.6804 H   0  0  0  0  0  0
  1  2  2  0  0  0
  1  3  1  0  0  0
  1  4  1  0  0  0
  3 55  1  0  0  0
  3 56  1  0  0  0
  3 57  1  0  0  0
  4  5  1  0  0  0
  4 58  1  0  0  0
  5  6  1  0  0  0
  5  8  1  0  0  0
  5 59  1  0  0  0
  6  7  2  0  0  0
  6 11  1  0  0  0
  8  9  1  0  0  0
  8 10  1  0  0  0
  8 60  1  0  0  0
  9 61  1  0  0  0
 10 62  1  0  0  0
 10 63  1  0  0  0
 10 64  1  0  0  0
 11 12  1  0  0  0
 11 65  1  0  0  0
 12 13  1  0  0  0
 12 15  1  0  0  0
 12 66  1  0  0  0
 13 14  2  0  0  0
 13 19  1  0  0  0
 15 16  1  0  0  0
 15 17  1  0  0  0
 15 67  1  0  0  0
 16 18  1  0  0  0
 16 68  1  0  0  0
 16 69  1  0  0  0
 17 70  1  0  0  0
 17 71  1  0  0  0
 17 72  1  0  0  0
 18 73  1  0  0  0
 18 74  1  0  0  0
 18 75  1  0  0  0
 19 20  1  0  0  0
 19 76  1  0  0  0
 20 21  1  0  0  0
 20 22  1  0  0  0
 20 77  1  0  0  0
 21 26  1  0  0  0
 21 78  1  0  0  0
 21 79  1  0  0  0
 22 23  1  0  0  0
 22 80  1  0  0  0
 22 81  1  0  0  0
 23 24  1  0  0  0
 23 82  1  0  0  0
 23 83  1  0  0  0
 24 25  1  0  0  0
 24 84  1  0  0  0
 24 85  1  0  0  0
 25 86  1  0  0  0
 25 87  1  0  0  0
 25 88  1  0  0  0
 26 27  1  0  0  0
 26 89  1  0  0  0
 26 90  1  0  0  0
 27 28  1  0  0  0
 27 30  1  0  0  0
 27 91  1  0  0  0
 28 29  2  0  0  0
 28 34  1  0  0  0
 30 31  1  0  0  0
 30 92  1  0  0  0
 30 93  1  0  0  0
 31 32  1  0  0  0
 31 94  1  0  0  0
 31 95  1  0  0  0
 32 33  1  0  0  0
 32 96  1  0  0  0
 32 97  1  0  0  0
 33 98  1  0  0  0
 33 99  1  0  0  0
 33100  1  0  0  0
 34 35  1  0  0  0
 34101  1  0  0  0
 35 36  1  0  0  0
 35 38  1  0  0  0
 35102  1  0  0  0
 36 37  2  0  0  0
 36 43  1  0  0  0
 38 39  1  0  0  0
 38103  1  0  0  0
 38104  1  0  0  0
 39 40  1  0  0  0
 39105  1  0  0  0
 39106  1  0  0  0
 40 41  2  0  0  0
 40 42  1  0  0  0
 42107  1  0  0  0
 42108  1  0  0  0
 43 44  1  0  0  0
 43109  1  0  0  0
 44 45  1  0  0  0
 44 47  1  0  0  0
 44110  1  0  0  0
 45 46  2  0  0  0
 45 54  1  0  0  0
 47 48  1  0  0  0
 47111  1  0  0  0
 47112  1  0  0  0
 48 49  1  0  0  0
 48113  1  0  0  0
 48114  1  0  0  0
 49 50  1  0  0  0
 49115  1  0  0  0
 49116  1  0  0  0
 50 51  1  0  0  0
 50117  1  0  0  0
 51 52  1  0  0  0
 51 53  2  0  0  0
 52118  1  0  0  0
 52119  1  0  0  0
 53120  1  0  0  0
 53123  1  0  0  0
 54121  1  0  0  0
 54122  1  0  0  0
M  CHG  2  26   1  53   1
M  END
> <s_m_source_file>
../3fsm_ligand.sdf

> <i_m_source_file_index>
1

> <s_epik_input>
Tz1DKFtDSDNdKVtOSF1bQ0BASF0oW0NASF0oW09IXSlbQ0gzXSlDKD1PKVtOSF1bQ0BASF0oW0NAQEhdKFtDSDNdKVtDSDJdW0NIM10pQyg9TylbTkhdW0NAQEhdKFtDSDJdW0NIMl1bQ0gyXVtDSDNdKVtDSDJdW05IMitdW0NAQEhdKFtDSDJdW0NIMl1bQ0gyXVtDSDNdKUMoPU8pW05IXVtDQEBIXShbQ0gyXVtDSDJdQyg9TylbTkgyXSlDKD1PKVtOSF1bQ0BIXShDKD1PKVtOSDJdKVtDSDJdW0NIMl1bQ0gyXVtOSF0vQyhbTkgyXSk9TlxbSF0=

> <s_epik_cmdline>
J2VwaWtfYXBwJywgJy1pbWFlJywgJ2xpZ2FuZF9wcm8ubWFlJywgJy1vbWFlJywgJ2xpZ2FuZF9wcmVwLm1hZScsICctbXMnLCAnMScsICctcGgnLCAnNycsICctcGh0JywgJzAuNScsICctbnQn

> <r_epik_Ionization_Penalty>
  0.1921

> <r_epik_Ionization_Penalty_Charging>
  0.1921

> <r_epik_Ionization_Penalty_Neutral>
  0.0000

> <r_epik_State_Penalty>
  0.1818

> <r_epik_Charging_Adjusted_Penalty>
0.37396405168134

> <i_epik_Tot_Q>
2

> <i_epik_Tot_abs_Q>
2

> <s_epik_Chemistry_Notes>
This compound has an imine and may undergo hydrolysis.

$$$$
