3ft4_ligand
                    3D
 Schrodinger Suite 2020-3.
152151  0  0  1  0            999 V2000
  -15.2190    1.5480    8.6430 N   0  3  0  0  0  0
  -15.8530    2.8560    8.2910 C   0  0  2  0  0  0
  -15.3370    3.9740    9.2140 C   0  0  0  0  0  0
  -15.1410    3.7550   10.4150 O   0  0  0  0  0  0
  -17.4040    2.7110    8.3230 C   0  0  0  0  0  0
  -18.0770    3.9040    8.9050 C   0  0  0  0  0  0
  -17.9470    2.3680    6.9370 C   0  0  0  0  0  0
  -15.0700    5.1480    8.6420 N   0  0  0  0  0  0
  -14.6180    6.3130    9.4030 C   0  0  2  0  0  0
  -15.6980    6.8470   10.3300 C   0  0  0  0  0  0
  -16.8870    6.6310   10.0950 O   0  0  0  0  0  0
  -14.2230    7.4440    8.4520 C   0  0  0  0  0  0
  -12.9670    7.2630    7.6020 C   0  0  0  0  0  0
  -12.8280    8.4450    6.6640 C   0  0  0  0  0  0
  -11.7470    7.1730    8.4830 C   0  0  0  0  0  0
  -15.2760    7.5480   11.3790 N   0  0  0  0  0  0
  -16.2070    8.2950   12.2190 C   0  0  2  0  0  0
  -16.8080    9.4230   11.3930 C   0  0  0  0  0  0
  -16.1440    9.9700   10.5130 O   0  0  0  0  0  0
  -15.4970    8.8560   13.4610 C   0  0  0  0  0  0
  -16.3710    9.7640   14.3070 C   0  0  0  0  0  0
  -16.0580    9.6450   15.7910 C   0  0  0  0  0  0
  -17.0600   10.3030   16.6290 N   0  0  0  0  0  0
  -18.3230   10.5310   16.2730 C   0  0  0  0  0  0
  -18.7740   10.1470   15.0900 N   0  0  0  0  0  0
  -19.1480   11.1430   17.1120 N   0  0  0  0  0  0
  -18.0650    9.7580   11.6790 N   0  0  0  0  0  0
  -18.8390   10.6920   10.8590 C   0  0  2  0  0  0
  -18.4100   12.1560   11.0100 C   0  0  0  0  0  0
  -18.6290   12.9660   10.0960 O   0  0  0  0  0  0
  -20.3360   10.5490   11.1700 C   0  0  0  0  0  0
  -21.2260   10.9340    9.9930 C   0  0  0  0  0  0
  -20.7290   11.5360    9.0180 O   0  0  0  0  0  0
  -22.4380   10.6290   10.0470 O   0  0  0  0  0  0
  -17.8110   12.5030   12.1470 N   0  0  0  0  0  0
  -17.3880   13.8860   12.3800 C   0  0  2  0  0  0
  -16.3220   13.9860   13.4740 C   0  0  0  0  0  0
  -16.3900   13.2910   14.4860 O   0  0  0  0  0  0
  -18.5990   14.7640   12.7370 C   0  0  0  0  0  0
  -18.3060   16.2610   12.6080 C   0  0  0  0  0  0
  -17.2020   16.6260   12.1490 O   0  0  0  0  0  0
  -19.1880   17.0740   12.9580 O   0  0  0  0  0  0
  -15.3310   14.8400   13.2500 N   0  0  0  0  0  0
  -14.2930   15.0920   14.2370 C   0  0  2  0  0  0
  -14.3420   16.5380   14.7010 C   0  0  0  0  0  0
  -14.2860   17.4630   13.8830 O   0  0  0  0  0  0
  -12.9140   14.8120   13.6440 C   0  0  0  0  0  0
  -12.4670   13.3780   13.4030 C   0  0  0  0  0  0
  -11.0620   13.4120   12.8230 C   0  0  0  0  0  0
  -12.4970   12.5620   14.6850 C   0  0  0  0  0  0
  -14.4370   16.7410   16.0090 N   0  0  0  0  0  0
  -14.3920   18.0930   16.5550 C   0  0  2  0  0  0
  -12.9650   18.6500   16.5190 C   0  0  0  0  0  0
  -12.0080   17.9140   16.7340 O   0  0  0  0  0  0
  -14.9050   18.0970   17.9920 C   0  0  0  0  0  0
  -15.0770   19.4970   18.5820 C   0  0  0  0  0  0
  -16.0880   20.2880   17.7570 C   0  0  0  0  0  0
  -15.5250   19.3890   20.0310 C   0  0  0  0  0  0
  -12.8340   19.9510   16.2630 N   0  0  0  0  0  0
  -11.5250   20.6110   16.2150 C   0  0  2  0  0  0
  -10.8960   20.6170   17.6140 C   0  0  0  0  0  0
  -11.6100   20.5790   18.6130 O   0  0  0  0  0  0
  -11.6650   22.0400   15.6450 C   0  0  0  0  0  0
  -12.0490   22.0540   14.1510 C   0  0  0  0  0  0
  -12.5610   23.4030   13.6090 C   0  0  0  0  0  0
  -12.4770   24.4460   14.2980 O   0  0  0  0  0  0
  -13.0540   23.4170   12.4550 O   0  0  0  0  0  0
   -9.5690   20.6370   17.6730 N   0  0  0  0  0  0
   -8.8260   20.7130   18.9360 C   0  0  2  0  0  0
   -8.7760   22.1340   19.5090 C   0  0  0  0  0  0
   -9.1370   23.0990   18.8260 O   0  0  0  0  0  0
   -7.4070   20.1850   18.7430 C   0  0  0  0  0  0
   -8.3500   22.3560   20.6590 O   0  0  0  0  0  0
  -14.1243    1.6531    8.6197 H   0  0  0  0  0  0
  -15.5295    0.7827    7.9164 H   0  0  0  0  0  0
  -15.5370    1.2461    9.6518 H   0  0  0  0  0  0
  -15.5396    3.1178    7.2696 H   0  0  0  0  0  0
  -17.6786    1.8955    9.0082 H   0  0  0  0  0  0
  -17.6561    4.1137    9.8994 H   0  0  0  0  0  0
  -19.1555    3.7080    8.9971 H   0  0  0  0  0  0
  -17.9168    4.7720    8.2486 H   0  0  0  0  0  0
  -17.4229    1.4832    6.5466 H   0  0  0  0  0  0
  -17.7852    3.2189    6.2589 H   0  0  0  0  0  0
  -19.0239    2.1549    7.0075 H   0  0  0  0  0  0
  -15.2020    5.2203    7.5523 H   0  0  0  0  0  0
  -13.7668    5.9387    9.9907 H   0  0  0  0  0  0
  -15.0341    7.6152    7.7289 H   0  0  0  0  0  0
  -14.0463    8.3636    9.0292 H   0  0  0  0  0  0
  -13.0424    6.3315    7.0218 H   0  0  0  0  0  0
  -13.7185    8.5100    6.0216 H   0  0  0  0  0  0
  -11.9331    8.3131    6.0381 H   0  0  0  0  0  0
  -12.7314    9.3699    7.2515 H   0  0  0  0  0  0
  -11.8487    6.3148    9.1635 H   0  0  0  0  0  0
  -11.6502    8.0977    9.0709 H   0  0  0  0  0  0
  -10.8519    7.0408    7.8574 H   0  0  0  0  0  0
  -14.2001    7.5570   11.6078 H   0  0  0  0  0  0
  -16.9874    7.5881   12.5372 H   0  0  0  0  0  0
  -15.1707    8.0249   14.1035 H   0  0  0  0  0  0
  -14.6212    9.4436   13.1486 H   0  0  0  0  0  0
  -16.2109   10.8102   14.0073 H   0  0  0  0  0  0
  -17.4279    9.4977   14.1588 H   0  0  0  0  0  0
  -16.0240    8.5827   16.0745 H   0  0  0  0  0  0
  -15.0836   10.1113   15.9988 H   0  0  0  0  0  0
  -16.7909   10.6514   17.6371 H   0  0  0  0  0  0
  -18.1015    9.6383   14.3836 H   0  0  0  0  0  0
  -18.7873   11.4680   18.0990 H   0  0  0  0  0  0
  -20.1929   11.3256   16.8208 H   0  0  0  0  0  0
  -18.5194    9.3027   12.5713 H   0  0  0  0  0  0
  -18.6031   10.3815    9.8304 H   0  0  0  0  0  0
  -20.5582    9.5036   11.4301 H   0  0  0  0  0  0
  -20.5987   11.2011   12.0160 H   0  0  0  0  0  0
  -23.1087   10.8913    9.2156 H   0  0  0  0  0  0
  -17.6347   11.7369   12.9164 H   0  0  0  0  0  0
  -16.9429   14.2034   11.4255 H   0  0  0  0  0  0
  -19.4355   14.5264   12.0633 H   0  0  0  0  0  0
  -18.8993   14.5692   13.7771 H   0  0  0  0  0  0
  -16.9749   17.6977   12.0495 H   0  0  0  0  0  0
  -15.3096   15.3643   12.2832 H   0  0  0  0  0  0
  -14.5112   14.4089   15.0711 H   0  0  0  0  0  0
  -12.8381   15.2843   12.6534 H   0  0  0  0  0  0
  -12.1391   15.2242   14.3071 H   0  0  0  0  0  0
  -13.1591   12.8918   12.6997 H   0  0  0  0  0  0
  -11.0617   14.0063   11.8974 H   0  0  0  0  0  0
  -10.7323   12.3864   12.6004 H   0  0  0  0  0  0
  -10.3755   13.8678   13.5516 H   0  0  0  0  0  0
  -13.5205   12.5498   15.0880 H   0  0  0  0  0  0
  -11.8177   13.0136   15.4230 H   0  0  0  0  0  0
  -12.1745   11.5322   14.4718 H   0  0  0  0  0  0
  -14.5505   15.8791   16.6830 H   0  0  0  0  0  0
  -15.0498   18.6917   15.9078 H   0  0  0  0  0  0
  -15.8870   17.6029   18.0321 H   0  0  0  0  0  0
  -14.1959   17.5562   18.6360 H   0  0  0  0  0  0
  -14.1163   20.0322   18.5566 H   0  0  0  0  0  0
  -15.7413   20.3516   16.7150 H   0  0  0  0  0  0
  -16.1877   21.3015   18.1728 H   0  0  0  0  0  0
  -17.0637   19.7811   17.7886 H   0  0  0  0  0  0
  -14.7808   18.8156   20.6031 H   0  0  0  0  0  0
  -16.4972   18.8764   20.0770 H   0  0  0  0  0  0
  -15.6211   20.3968   20.4611 H   0  0  0  0  0  0
  -13.7502   20.5329   16.0843 H   0  0  0  0  0  0
  -10.8938   20.0144   15.5399 H   0  0  0  0  0  0
  -12.4478   22.5801   16.1977 H   0  0  0  0  0  0
  -10.7081   22.5722   15.7505 H   0  0  0  0  0  0
  -11.1705   21.7897   13.5441 H   0  0  0  0  0  0
  -12.8516   21.3235   13.9718 H   0  0  0  0  0  0
  -13.4314   24.3586   12.0295 H   0  0  0  0  0  0
   -9.0261   20.5936   16.7173 H   0  0  0  0  0  0
   -9.3944   20.0734   19.6273 H   0  0  0  0  0  0
   -7.4479   19.1655   18.3318 H   0  0  0  0  0  0
   -6.8868   20.1690   19.7121 H   0  0  0  0  0  0
   -6.8637   20.8400   18.0460 H   0  0  0  0  0  0
   -8.3244   23.3850   21.0469 H   0  0  0  0  0  0
  1  2  1  0  0  0
  1 74  1  0  0  0
  1 75  1  0  0  0
  1 76  1  0  0  0
  2  3  1  0  0  0
  2  5  1  0  0  0
  2 77  1  0  0  0
  3  4  2  0  0  0
  3  8  1  0  0  0
  5  6  1  0  0  0
  5  7  1  0  0  0
  5 78  1  0  0  0
  6 79  1  0  0  0
  6 80  1  0  0  0
  6 81  1  0  0  0
  7 82  1  0  0  0
  7 83  1  0  0  0
  7 84  1  0  0  0
  8  9  1  0  0  0
  8 85  1  0  0  0
  9 10  1  0  0  0
  9 12  1  0  0  0
  9 86  1  0  0  0
 10 11  2  0  0  0
 10 16  1  0  0  0
 12 13  1  0  0  0
 12 87  1  0  0  0
 12 88  1  0  0  0
 13 14  1  0  0  0
 13 15  1  0  0  0
 13 89  1  0  0  0
 14 90  1  0  0  0
 14 91  1  0  0  0
 14 92  1  0  0  0
 15 93  1  0  0  0
 15 94  1  0  0  0
 15 95  1  0  0  0
 16 17  1  0  0  0
 16 96  1  0  0  0
 17 18  1  0  0  0
 17 20  1  0  0  0
 17 97  1  0  0  0
 18 19  2  0  0  0
 18 27  1  0  0  0
 20 21  1  0  0  0
 20 98  1  0  0  0
 20 99  1  0  0  0
 21 22  1  0  0  0
 21100  1  0  0  0
 21101  1  0  0  0
 22 23  1  0  0  0
 22102  1  0  0  0
 22103  1  0  0  0
 23 24  1  0  0  0
 23104  1  0  0  0
 24 25  2  0  0  0
 24 26  1  0  0  0
 25105  1  0  0  0
 26106  1  0  0  0
 26107  1  0  0  0
 27 28  1  0  0  0
 27108  1  0  0  0
 28 29  1  0  0  0
 28 31  1  0  0  0
 28109  1  0  0  0
 29 30  2  0  0  0
 29 35  1  0  0  0
 31 32  1  0  0  0
 31110  1  0  0  0
 31111  1  0  0  0
 32 33  2  0  0  0
 32 34  1  0  0  0
 34112  1  0  0  0
 35 36  1  0  0  0
 35113  1  0  0  0
 36 37  1  0  0  0
 36 39  1  0  0  0
 36114  1  0  0  0
 37 38  2  0  0  0
 37 43  1  0  0  0
 39 40  1  0  0  0
 39115  1  0  0  0
 39116  1  0  0  0
 40 41  1  0  0  0
 40 42  2  0  0  0
 41117  1  0  0  0
 43 44  1  0  0  0
 43118  1  0  0  0
 44 45  1  0  0  0
 44 47  1  0  0  0
 44119  1  0  0  0
 45 46  2  0  0  0
 45 51  1  0  0  0
 47 48  1  0  0  0
 47120  1  0  0  0
 47121  1  0  0  0
 48 49  1  0  0  0
 48 50  1  0  0  0
 48122  1  0  0  0
 49123  1  0  0  0
 49124  1  0  0  0
 49125  1  0  0  0
 50126  1  0  0  0
 50127  1  0  0  0
 50128  1  0  0  0
 51 52  1  0  0  0
 51129  1  0  0  0
 52 53  1  0  0  0
 52 55  1  0  0  0
 52130  1  0  0  0
 53 54  2  0  0  0
 53 59  1  0  0  0
 55 56  1  0  0  0
 55131  1  0  0  0
 55132  1  0  0  0
 56 57  1  0  0  0
 56 58  1  0  0  0
 56133  1  0  0  0
 57134  1  0  0  0
 57135  1  0  0  0
 57136  1  0  0  0
 58137  1  0  0  0
 58138  1  0  0  0
 58139  1  0  0  0
 59 60  1  0  0  0
 59140  1  0  0  0
 60 61  1  0  0  0
 60 63  1  0  0  0
 60141  1  0  0  0
 61 62  2  0  0  0
 61 68  1  0  0  0
 63 64  1  0  0  0
 63142  1  0  0  0
 63143  1  0  0  0
 64 65  1  0  0  0
 64144  1  0  0  0
 64145  1  0  0  0
 65 66  2  0  0  0
 65 67  1  0  0  0
 67146  1  0  0  0
 68 69  1  0  0  0
 68147  1  0  0  0
 69 70  1  0  0  0
 69 72  1  0  0  0
 69148  1  0  0  0
 70 71  2  0  0  0
 70 73  1  0  0  0
 72149  1  0  0  0
 72150  1  0  0  0
 72151  1  0  0  0
 73152  1  0  0  0
M  CHG  1   1   1
M  END
> <s_m_source_file>
../3ft4_ligand.sdf

> <i_m_source_file_index>
1

> <s_epik_input>
W0NIM11bQ0hdKFtDSDNdKVtDQEhdKFtOSDMrXSlDKD1PKVtOSF1bQ0BASF0oW0NIMl1bQ0hdKFtDSDNdKVtDSDNdKUMoPU8pW05IXVtDQEBIXShbQ0gyXVtDSDJdW0NIMl1bTkhdL0MoPU5cW0hdKVtOSDJdKUMoPU8pW05IXVtDQEBIXShbQ0gyXUMoPU8pW09IXSlDKD1PKVtOSF1bQ0BASF0oW0NIMl1DKD1PKVtPSF0pQyg9TylbTkhdW0NAQEhdKFtDSDJdW0NIXShbQ0gzXSlbQ0gzXSlDKD1PKVtOSF1bQ0BASF0oW0NIMl1bQ0hdKFtDSDNdKVtDSDNdKUMoPU8pW05IXVtDQEBIXShbQ0gyXVtDSDJdQyg9TylbT0hdKUMoPU8pW05IXVtDQEBIXShbQ0gzXSlDKD1PKVtPSF0=

> <s_epik_cmdline>
J2VwaWtfYXBwJywgJy1pbWFlJywgJ2xpZ2FuZF9wcm8ubWFlJywgJy1vbWFlJywgJ2xpZ2FuZF9wcmVwLm1hZScsICctbXMnLCAnMScsICctcGgnLCAnNycsICctcGh0JywgJzAuNScsICctbnQn

> <s_epik_pKa_notes>
Molecule size exceeds maximum supported for generating protonation states

> <s_epik_Chemistry_Notes>
This compound has an imine and may undergo hydrolysis.

$$$$
