3ft8_ligand
                    3D
 Schrodinger Suite 2020-3.
 45 48  0  0  1  0            999 V2000
    8.3260   10.2340   22.3600 F   0  0  0  0  0  0
    7.1430   10.3840   22.9920 C   0  0  0  0  0  0
    6.8600   11.5880   23.6500 C   0  0  0  0  0  0
    5.6620   11.8060   24.3170 C   0  0  0  0  0  0
    5.4690   13.1210   25.0240 C   0  0  0  0  0  0
    6.4780   13.5900   25.8690 C   0  0  0  0  0  0
    6.3380   14.7650   26.4970 N   0  0  0  0  0  0
    5.2340   15.5240   26.3250 C   0  0  0  0  0  0
    4.2030   15.1320   25.4920 C   0  0  0  0  0  0
    4.3300   13.8980   24.8410 C   0  0  0  0  0  0
    6.2090    9.3620   22.9690 C   0  0  0  0  0  0
    4.9790    9.5180   23.6320 C   0  0  0  0  0  0
    4.6640   10.7000   24.3170 C   0  0  0  0  0  0
    3.3520   10.8200   25.0090 C   0  0  2  0  0  0
    3.2900    9.6380   25.9780 C   0  0  0  0  0  0
    1.9180    9.4860   26.6280 C   0  0  0  0  0  0
    1.8130    8.7360   27.6370 N   0  0  0  0  0  0
    2.9330    8.1470   28.2360 O   0  0  0  0  0  0
    0.6880   10.1230   26.0110 C   0  0  0  0  0  0
    2.1850   10.7750   24.0050 C   0  0  0  0  0  0
    0.8350   10.7550   24.6940 C   0  0  0  0  0  0
   -0.2430   11.3250   24.1240 N   0  0  0  0  0  0
   -1.4580   11.2810   24.7170 C   0  0  0  0  0  0
   -2.5010   11.8300   24.0650 N   0  0  0  0  0  0
   -1.6590   10.7360   25.9440 N   0  0  0  0  0  0
   -0.6500   10.1520   26.6400 C   0  0  0  0  0  0
   -0.9440    9.5570   27.9910 C   0  0  0  0  0  0
    7.6069   12.3818   23.6379 H   0  0  0  0  0  0
    7.3813   12.9984   26.0176 H   0  0  0  0  0  0
    5.1539   16.4716   26.8577 H   0  0  0  0  0  0
    3.3238   15.7597   25.3470 H   0  0  0  0  0  0
    3.5321   13.5450   24.1877 H   0  0  0  0  0  0
    6.4274    8.4362   22.4367 H   0  0  0  0  0  0
    4.2553    8.7031   23.6130 H   0  0  0  0  0  0
    3.2924   11.7866   25.5307 H   0  0  0  0  0  0
    3.5125    8.7072   25.4357 H   0  0  0  0  0  0
    4.0300    9.7814   26.7791 H   0  0  0  0  0  0
    2.8088    7.4975   29.1151 H   0  0  0  0  0  0
    2.2241   11.6632   23.3573 H   0  0  0  0  0  0
    2.2666    9.8677   23.3884 H   0  0  0  0  0  0
   -2.3547   12.2757   23.0700 H   0  0  0  0  0  0
   -3.4990   11.8326   24.5275 H   0  0  0  0  0  0
   -0.0220    9.1293   28.4118 H   0  0  0  0  0  0
   -1.7008    8.7656   27.8863 H   0  0  0  0  0  0
   -1.3240   10.3413   28.6622 H   0  0  0  0  0  0
  1  2  1  0  0  0
  2  3  2  0  0  0
  2 11  1  0  0  0
  3  4  1  0  0  0
  3 28  1  0  0  0
  4  5  1  0  0  0
  4 13  2  0  0  0
  5  6  2  0  0  0
  5 10  1  0  0  0
  6  7  1  0  0  0
  6 29  1  0  0  0
  7  8  2  0  0  0
  8  9  1  0  0  0
  8 30  1  0  0  0
  9 10  2  0  0  0
  9 31  1  0  0  0
 10 32  1  0  0  0
 11 12  2  0  0  0
 11 33  1  0  0  0
 12 13  1  0  0  0
 12 34  1  0  0  0
 13 14  1  0  0  0
 14 15  1  0  0  0
 14 20  1  0  0  0
 14 35  1  0  0  0
 15 16  1  0  0  0
 15 36  1  0  0  0
 15 37  1  0  0  0
 16 17  2  0  0  0
 16 19  1  0  0  0
 17 18  1  0  0  0
 18 38  1  0  0  0
 19 21  2  0  0  0
 19 26  1  0  0  0
 20 21  1  0  0  0
 20 39  1  0  0  0
 20 40  1  0  0  0
 21 22  1  0  0  0
 22 23  2  0  0  0
 23 24  1  0  0  0
 23 25  1  0  0  0
 24 41  1  0  0  0
 24 42  1  0  0  0
 25 26  2  0  0  0
 26 27  1  0  0  0
 27 43  1  0  0  0
 27 44  1  0  0  0
 27 45  1  0  0  0
M  END
> <s_m_source_file>
../3ft8_ligand.sdf

> <i_m_source_file_index>
1

> <s_epik_input>
W2NIXTFbY0hdW2NIXW5bY0hdYzEtYyhbY0hdYzJGKWMoW2NIXVtjSF0yKVtDQEhdKFtDSDJdL0MzPU5cW09IXSlbQ0gyXWMoYzM0KW5jKFtOSDJdKW5jNFtDSDNd

> <s_epik_cmdline>
J2VwaWtfYXBwJywgJy1pbWFlJywgJ2xpZ2FuZF9wcm8ubWFlJywgJy1vbWFlJywgJ2xpZ2FuZF9wcmVwLm1hZScsICctbXMnLCAnMScsICctcGgnLCAnNycsICctcGh0JywgJzAuNScsICctbnQn

> <r_lp_tautomer_probability>
1

> <r_epik_Ionization_Penalty>
  0.0048

> <r_epik_Ionization_Penalty_Charging>
  0.0000

> <r_epik_Ionization_Penalty_Neutral>
  0.0048

> <r_epik_State_Penalty>
 -0.0000

> <r_epik_Charging_Adjusted_Penalty>
0

> <i_epik_Tot_Q>
0

> <i_epik_Tot_abs_Q>
0

> <s_epik_Chemistry_Notes>
This compound has an imine and may undergo hydrolysis.

$$$$
