3ftq_ligand
                    3D
 Schrodinger Suite 2020-3.
 46 48  0  0  1  0            999 V2000
   34.4590   14.3900    3.4350 P   0  0  0  0  0  0
   34.8950   14.7590    2.0370 O   0  0  0  0  0  0
   33.1380   14.9560    3.9090 O   0  5  0  0  0  0
   35.6330   14.7640    4.3120 O   0  0  0  0  0  0
   34.3600   12.7960    3.5120 N   0  0  1  0  0  0
   33.1970   11.8970    2.8920 P   0  0  1  0  0  0
   31.9790   11.9850    3.7460 O   0  5  0  0  0  0
   33.0300   12.3200    1.4820 O   0  0  0  0  0  0
   33.7080   10.4400    2.9160 O   0  0  0  0  0  0
   34.3970    9.7140    1.7450 P   0  0  1  0  0  0
   33.3700    9.3360    0.7470 O   0  5  0  0  0  0
   35.5770   10.4600    1.2730 O   0  0  0  0  0  0
   34.9540    8.3530    2.2910 O   0  0  0  0  0  0
   35.9240    8.2810    3.3360 C   0  0  0  0  0  0
   36.3880    6.8470    3.4260 C   0  0  1  0  0  0
   35.3500    6.0240    4.0220 O   0  0  0  0  0  0
   36.5850    6.2380    2.0490 C   0  0  1  0  0  0
   37.8950    6.5260    1.6610 O   0  0  0  0  0  0
   36.3540    4.7480    2.2600 C   0  0  1  0  0  0
   37.5750    4.0990    2.5340 O   0  0  0  0  0  0
   35.4560    4.7060    3.5020 C   0  0  2  0  0  0
   34.1080    4.2740    3.2060 N   0  0  0  0  0  0
   33.3360    4.7340    2.1620 C   0  0  0  0  0  0
   32.1470    4.2000    2.1010 N   0  0  0  0  0  0
   32.1400    3.3390    3.1790 C   0  0  0  0  0  0
   31.1070    2.5110    3.6070 C   0  0  0  0  0  0
   30.0020    2.3780    3.0940 O   0  0  0  0  0  0
   31.4510    1.7910    4.7400 N   0  3  0  0  0  0
   32.6530    1.8700    5.3850 C   0  0  0  0  0  0
   32.7520    1.0860    6.4600 N   0  0  0  0  0  0
   33.6530    2.6590    4.9980 N   0  0  0  0  0  0
   33.3250    3.3660    3.8830 C   0  0  0  0  0  0
   35.9165   15.8202    4.4305 H   0  0  0  0  0  0
   35.2418   12.3501    3.0286 H   0  0  0  0  0  0
   36.7688    8.9443    3.0985 H   0  0  0  0  0  0
   35.4653    8.5969    4.2845 H   0  0  0  0  0  0
   37.3029    6.8456    4.0367 H   0  0  0  0  0  0
   35.9798    6.6449    1.2255 H   0  0  0  0  0  0
   38.1972    7.5672    1.4749 H   0  0  0  0  0  0
   35.9795    4.2079    1.3779 H   0  0  0  0  0  0
   38.3485    4.0306    1.7549 H   0  0  0  0  0  0
   35.8677    4.0188    4.2558 H   0  0  0  0  0  0
   33.6878    5.4794    1.4488 H   0  0  0  0  0  0
   31.9072    0.4455    6.7533 H   0  0  0  0  0  0
   33.6784    1.0801    7.0530 H   0  0  0  0  0  0
   30.7298    1.0908    5.1867 H   0  0  0  0  0  0
  1  2  2  0  0  0
  1  3  1  0  0  0
  1  4  1  0  0  0
  1  5  1  0  0  0
  4 33  1  0  0  0
  5  6  1  0  0  0
  5 34  1  0  0  0
  6  7  1  0  0  0
  6  8  2  0  0  0
  6  9  1  0  0  0
  9 10  1  0  0  0
 10 11  1  0  0  0
 10 12  2  0  0  0
 10 13  1  0  0  0
 13 14  1  0  0  0
 14 15  1  0  0  0
 14 35  1  0  0  0
 14 36  1  0  0  0
 15 16  1  0  0  0
 15 17  1  0  0  0
 15 37  1  0  0  0
 16 21  1  0  0  0
 17 18  1  0  0  0
 17 19  1  0  0  0
 17 38  1  0  0  0
 18 39  1  0  0  0
 19 20  1  0  0  0
 19 21  1  0  0  0
 19 40  1  0  0  0
 20 41  1  0  0  0
 21 22  1  0  0  0
 21 42  1  0  0  0
 22 23  1  0  0  0
 22 32  1  0  0  0
 23 24  2  0  0  0
 23 43  1  0  0  0
 24 25  1  0  0  0
 25 26  1  0  0  0
 25 32  2  0  0  0
 26 27  2  0  0  0
 26 28  1  0  0  0
 28 29  1  0  0  0
 28 46  1  0  0  0
 29 30  1  0  0  0
 29 31  2  0  0  0
 30 44  1  0  0  0
 30 45  1  0  0  0
 31 32  1  0  0  0
M  CHG  4   3  -1   7  -1  11  -1  28   1
M  END
> <s_m_source_file>
../3ftq_ligand.sdf

> <i_m_source_file_index>
1

> <s_epik_input>
Tz1QKFtPSF0pKFtPSF0pW05IXVtQQF0oPU8pKFtPSF0pT1tQQF0oPU8pKFtPSF0pT1tDSDJdW0NASF0xT1tDQEhdKFtDQEhdKFtPSF0pW0NAQEhdMVtPSF0pbihbY0hdbjIpYyhjMjMpW25IXWMoPU5cW0hdKVxbbkhdYzM9Tw==

> <s_epik_cmdline>
J2VwaWtfYXBwJywgJy1pbWFlJywgJ2xpZ2FuZF9wcm8ubWFlJywgJy1vbWFlJywgJ2xpZ2FuZF9wcmVwLm1hZScsICctbXMnLCAnMScsICctcGgnLCAnNycsICctcGh0JywgJzAuNScsICctbnQn

> <r_lp_tautomer_probability>
1

> <r_epik_Ionization_Penalty>
  2.8872

> <r_epik_Ionization_Penalty_Charging>
  2.3888

> <r_epik_Ionization_Penalty_Neutral>
  0.4985

> <r_epik_State_Penalty>
 -0.0000

> <r_epik_Charging_Adjusted_Penalty>
2.3887781483746

> <i_epik_Tot_Q>
-2

> <i_epik_Tot_abs_Q>
4

> <s_epik_Chemistry_Notes>
This compound has an imine and may undergo hydrolysis. This compound contains an acetal/aminal-like group ( X-CH(R)-Y where X, Y are N, S, or O) that may be acid/base labile, releasing an aldehyde.

$$$$
