3ftu_ligand
                    3D
 Schrodinger Suite 2020-3.
 31 32  0  0  1  0            999 V2000
   22.4510   -2.8540   -4.4560 C   0  0  0  0  0  0
   22.1970   -1.7950   -5.3160 C   0  0  0  0  0  0
   22.7080   -0.5380   -5.0300 C   0  0  0  0  0  0
   25.2740    0.1880   -1.6330 C   0  0  0  0  0  0
   24.5630   -1.1840   -1.7440 C   0  0  0  0  0  0
   23.4660   -0.3490   -3.8850 C   0  0  0  0  0  0
   23.7110   -1.3940   -3.0030 C   0  0  0  0  0  0
   23.1920   -2.6480   -3.2970 C   0  0  0  0  0  0
   22.4690    0.5210   -5.8800 O   0  0  0  0  0  0
   21.9240   -4.0800   -4.7300 O   0  0  0  0  0  0
   26.3430    0.0110   -0.5700 C   0  0  0  0  0  0
   26.0100   -0.2870    0.7480 C   0  0  0  0  0  0
   27.0200   -0.4690    1.7060 C   0  0  0  0  0  0
   28.3740   -0.3470    1.3620 C   0  0  0  0  0  0
   29.3840   -0.5230    2.3020 O   0  0  0  0  0  0
   28.6920   -0.0350    0.0490 C   0  0  0  0  0  0
   27.6790    0.1520   -0.9140 C   0  0  0  0  0  0
   21.5979   -1.9507   -6.2132 H   0  0  0  0  0  0
   25.7160    0.4516   -2.6052 H   0  0  0  0  0  0
   24.5435    0.9571   -1.3418 H   0  0  0  0  0  0
   25.3143   -1.9874   -1.7435 H   0  0  0  0  0  0
   23.8847   -1.3158   -0.8881 H   0  0  0  0  0  0
   23.8774    0.6378   -3.6727 H   0  0  0  0  0  0
   23.3669   -3.4786   -2.6132 H   0  0  0  0  0  0
   21.8676    0.3719   -6.7889 H   0  0  0  0  0  0
   21.3392   -4.2344   -5.6488 H   0  0  0  0  0  0
   24.9631   -0.3793    1.0370 H   0  0  0  0  0  0
   26.7473   -0.7090    2.7337 H   0  0  0  0  0  0
   29.1294   -0.7705    3.3431 H   0  0  0  0  0  0
   29.7374    0.0669   -0.2423 H   0  0  0  0  0  0
   27.9486    0.4098   -1.9382 H   0  0  0  0  0  0
  1  2  2  0  0  0
  1  8  1  0  0  0
  1 10  1  0  0  0
  2  3  1  0  0  0
  2 18  1  0  0  0
  3  6  2  0  0  0
  3  9  1  0  0  0
  4  5  1  0  0  0
  4 11  1  0  0  0
  4 19  1  0  0  0
  4 20  1  0  0  0
  5  7  1  0  0  0
  5 21  1  0  0  0
  5 22  1  0  0  0
  6  7  1  0  0  0
  6 23  1  0  0  0
  7  8  2  0  0  0
  8 24  1  0  0  0
  9 25  1  0  0  0
 10 26  1  0  0  0
 11 12  2  0  0  0
 11 17  1  0  0  0
 12 13  1  0  0  0
 12 27  1  0  0  0
 13 14  2  0  0  0
 13 28  1  0  0  0
 14 15  1  0  0  0
 14 16  1  0  0  0
 15 29  1  0  0  0
 16 17  2  0  0  0
 16 30  1  0  0  0
 17 31  1  0  0  0
M  END
> <s_m_source_file>
../3ftu_ligand.sdf

> <i_m_source_file_index>
1

> <s_epik_input>
W09IXWMxW2NIXWMoW09IXSlbY0hdYyhbY0hdMSlbQ0gyXVtDSDJdYzJbY0hdW2NIXWMoW09IXSlbY0hdW2NIXTI=

> <s_epik_cmdline>
J2VwaWtfYXBwJywgJy1pbWFlJywgJ2xpZ2FuZF9wcm8ubWFlJywgJy1vbWFlJywgJ2xpZ2FuZF9wcmVwLm1hZScsICctbXMnLCAnMScsICctcGgnLCAnNycsICctcGh0JywgJzAuNScsICctbnQn

> <r_lp_tautomer_probability>
1

> <r_epik_Ionization_Penalty>
  0.0041

> <r_epik_Ionization_Penalty_Charging>
  0.0000

> <r_epik_Ionization_Penalty_Neutral>
  0.0041

> <r_epik_State_Penalty>
 -0.0000

> <r_epik_Charging_Adjusted_Penalty>
0

> <i_epik_Tot_Q>
0

> <i_epik_Tot_abs_Q>
0

$$$$
