3ftv_ligand
                    3D
 Schrodinger Suite 2020-3.
 26 27  0  0  1  0            999 V2000
  -23.6130   -1.3160    4.8490 N   0  0  0  0  0  0
  -27.8360   -0.3320    0.9130 C   0  0  0  0  0  0
  -29.1370   -0.4950    0.4140 C   0  0  0  0  0  0
  -26.7610   -0.4520    0.0430 C   0  0  0  0  0  0
  -26.9890   -0.7130   -1.3100 C   0  0  0  0  0  0
  -29.3680   -0.7520   -0.9330 C   0  0  0  0  0  0
  -28.2890   -0.8490   -1.8130 C   0  0  0  0  0  0
  -24.1380   -0.4430    4.0100 C   0  0  0  0  0  0
  -24.4010   -2.1070    2.3370 C   0  0  0  0  0  0
  -23.8500   -3.0100    3.2460 C   0  0  0  0  0  0
  -23.4500   -2.5780    4.5040 C   0  0  0  0  0  0
  -25.1660    0.2690    1.7930 C   0  0  0  0  0  0
  -24.5580   -0.7900    2.7370 C   0  0  0  0  0  0
  -25.5030   -0.3210    0.4740 N   0  0  0  0  0  0
  -27.6717   -0.1143    1.9683 H   0  0  0  0  0  0
  -29.9839   -0.4187    1.0959 H   0  0  0  0  0  0
  -26.1401   -0.8126   -1.9864 H   0  0  0  0  0  0
  -30.3868   -0.8771   -1.2998 H   0  0  0  0  0  0
  -28.4555   -1.0278   -2.8753 H   0  0  0  0  0  0
  -24.2453    0.5928    4.3321 H   0  0  0  0  0  0
  -24.6999   -2.4287    1.3393 H   0  0  0  0  0  0
  -23.7330   -4.0575    2.9684 H   0  0  0  0  0  0
  -23.0017   -3.2817    5.2054 H   0  0  0  0  0  0
  -26.0845    0.6756    2.2413 H   0  0  0  0  0  0
  -24.4417    1.0825    1.6395 H   0  0  0  0  0  0
  -24.7014   -0.6715   -0.1927 H   0  0  0  0  0  0
  1  8  2  0  0  0
  1 11  1  0  0  0
  2  3  2  0  0  0
  2  4  1  0  0  0
  2 15  1  0  0  0
  3  6  1  0  0  0
  3 16  1  0  0  0
  4  5  2  0  0  0
  4 14  1  0  0  0
  5  7  1  0  0  0
  5 17  1  0  0  0
  6  7  2  0  0  0
  6 18  1  0  0  0
  7 19  1  0  0  0
  8 13  1  0  0  0
  8 20  1  0  0  0
  9 10  1  0  0  0
  9 13  2  0  0  0
  9 21  1  0  0  0
 10 11  2  0  0  0
 10 22  1  0  0  0
 11 23  1  0  0  0
 12 13  1  0  0  0
 12 14  1  0  0  0
 12 24  1  0  0  0
 12 25  1  0  0  0
 14 26  1  0  0  0
M  END
> <s_m_source_file>
../3ftv_ligand.sdf

> <i_m_source_file_index>
1

> <s_epik_input>
W2NIXTFbY0hdW2NIXW5bY0hdYzFbQ0gyXVtOSF1jMltjSF1bY0hdW2NIXVtjSF1bY0hdMg==

> <s_epik_cmdline>
J2VwaWtfYXBwJywgJy1pbWFlJywgJ2xpZ2FuZF9wcm8ubWFlJywgJy1vbWFlJywgJ2xpZ2FuZF9wcmVwLm1hZScsICctbXMnLCAnMScsICctcGgnLCAnNycsICctcGh0JywgJzAuNScsICctbnQn

> <r_epik_Ionization_Penalty>
  0.0236

> <r_epik_Ionization_Penalty_Charging>
  0.0000

> <r_epik_Ionization_Penalty_Neutral>
  0.0236

> <r_epik_State_Penalty>
  0.0188

> <r_epik_Charging_Adjusted_Penalty>
0.0188493407436151

> <i_epik_Tot_Q>
0

> <i_epik_Tot_abs_Q>
0

$$$$
