3ftw_ligand
                    3D
 Schrodinger Suite 2020-3.
 26 27  0  0  1  0            999 V2000
   15.5980   -1.3120    4.7780 N   0  0  0  0  0  0
   11.3320   -0.1800    0.9180 C   0  0  0  0  0  0
   10.0330   -0.3170    0.4390 C   0  0  0  0  0  0
   12.3840   -0.3470    0.0330 C   0  0  0  0  0  0
   12.1210   -0.6350   -1.3210 C   0  0  0  0  0  0
    9.7670   -0.6080   -0.8940 C   0  0  0  0  0  0
   10.8060   -0.7510   -1.8000 C   0  0  0  0  0  0
   15.0650   -0.3920    3.9850 C   0  0  0  0  0  0
   14.7790   -2.0020    2.2660 C   0  0  0  0  0  0
   15.3490   -2.9390    3.1380 C   0  0  0  0  0  0
   15.7620   -2.5660    4.3920 C   0  0  0  0  0  0
   13.9880    0.3790    1.7870 C   0  0  0  0  0  0
   14.6340   -0.6900    2.7040 C   0  0  0  0  0  0
   13.6380   -0.2180    0.4680 N   0  0  0  0  0  0
   11.5175    0.0536    1.9664 H   0  0  0  0  0  0
    9.1989   -0.1924    1.1296 H   0  0  0  0  0  0
   12.9546   -0.7704   -2.0101 H   0  0  0  0  0  0
    8.7361   -0.7243   -1.2284 H   0  0  0  0  0  0
   10.6082   -0.9478   -2.8537 H   0  0  0  0  0  0
   14.9634    0.6289    4.3531 H   0  0  0  0  0  0
   14.4565   -2.2948    1.2668 H   0  0  0  0  0  0
   15.4654   -3.9741    2.8170 H   0  0  0  0  0  0
   16.2196   -3.2942    5.0617 H   0  0  0  0  0  0
   13.0737    0.7649    2.2614 H   0  0  0  0  0  0
   14.6971    1.2054    1.6313 H   0  0  0  0  0  0
   14.4333   -0.5787   -0.2009 H   0  0  0  0  0  0
  1  8  2  0  0  0
  1 11  1  0  0  0
  2  3  2  0  0  0
  2  4  1  0  0  0
  2 15  1  0  0  0
  3  6  1  0  0  0
  3 16  1  0  0  0
  4  5  2  0  0  0
  4 14  1  0  0  0
  5  7  1  0  0  0
  5 17  1  0  0  0
  6  7  2  0  0  0
  6 18  1  0  0  0
  7 19  1  0  0  0
  8 13  1  0  0  0
  8 20  1  0  0  0
  9 10  1  0  0  0
  9 13  2  0  0  0
  9 21  1  0  0  0
 10 11  2  0  0  0
 10 22  1  0  0  0
 11 23  1  0  0  0
 12 13  1  0  0  0
 12 14  1  0  0  0
 12 24  1  0  0  0
 12 25  1  0  0  0
 14 26  1  0  0  0
M  END
> <s_m_source_file>
../3ftw_ligand.sdf

> <i_m_source_file_index>
1

> <s_epik_input>
W2NIXTFbY0hdW2NIXW5bY0hdYzFbQ0gyXVtOSF1jMltjSF1bY0hdW2NIXVtjSF1bY0hdMg==

> <s_epik_cmdline>
J2VwaWtfYXBwJywgJy1pbWFlJywgJ2xpZ2FuZF9wcm8ubWFlJywgJy1vbWFlJywgJ2xpZ2FuZF9wcmVwLm1hZScsICctbXMnLCAnMScsICctcGgnLCAnNycsICctcGh0JywgJzAuNScsICctbnQn

> <r_epik_Ionization_Penalty>
  0.0236

> <r_epik_Ionization_Penalty_Charging>
  0.0000

> <r_epik_Ionization_Penalty_Neutral>
  0.0236

> <r_epik_State_Penalty>
  0.0188

> <r_epik_Charging_Adjusted_Penalty>
0.0188493407436151

> <i_epik_Tot_Q>
0

> <i_epik_Tot_abs_Q>
0

$$$$
