3fty_ligand
                    3D
 Schrodinger Suite 2020-3.
 28 29  0  0  1  0            999 V2000
   23.8930    1.7210    1.1220 N   0  0  0  0  0  0
   23.7380    1.4650    2.4410 C   0  0  0  0  0  0
   22.9250    2.2560    3.1830 N   0  3  0  0  0  0
   22.7220    2.0690    4.4920 C   0  0  0  0  0  0
   23.3660    1.0310    5.1340 C   0  0  0  0  0  0
   24.1990    0.2040    4.3920 C   0  0  0  0  0  0
   24.4110    0.4010    3.0310 C   0  0  0  0  0  0
   25.2760   -0.4310    2.3280 O   0  0  0  0  0  0
   25.3510   -0.4470    0.8890 C   0  0  0  0  0  0
   26.6530   -0.0240    0.2150 C   0  0  0  0  0  0
   27.8790   -0.0240    0.8770 C   0  0  0  0  0  0
   29.0440    0.3650    0.1980 C   0  0  0  0  0  0
   29.0150    0.7410   -1.1460 C   0  0  0  0  0  0
   27.7930    0.7250   -1.8140 C   0  0  0  0  0  0
   26.6260    0.3480   -1.1390 C   0  0  0  0  0  0
   23.3589    2.5637    0.6588 H   0  0  0  0  0  0
   24.5532    1.0865    0.5125 H   0  0  0  0  0  0
   22.0549    2.7296    5.0457 H   0  0  0  0  0  0
   23.2237    0.8637    6.2016 H   0  0  0  0  0  0
   24.7019   -0.6245    4.8908 H   0  0  0  0  0  0
   25.1687   -1.4684    0.5237 H   0  0  0  0  0  0
   24.5910    0.2317    0.4746 H   0  0  0  0  0  0
   27.9333   -0.3263    1.9228 H   0  0  0  0  0  0
   29.9938    0.3737    0.7327 H   0  0  0  0  0  0
   29.9279    1.0403   -1.6609 H   0  0  0  0  0  0
   27.7452    1.0069   -2.8658 H   0  0  0  0  0  0
   25.6770    0.3431   -1.6752 H   0  0  0  0  0  0
   22.3960    3.0972    2.7113 H   0  0  0  0  0  0
  1  2  1  0  0  0
  1 16  1  0  0  0
  1 17  1  0  0  0
  2  3  2  0  0  0
  2  7  1  0  0  0
  3  4  1  0  0  0
  3 28  1  0  0  0
  4  5  2  0  0  0
  4 18  1  0  0  0
  5  6  1  0  0  0
  5 19  1  0  0  0
  6  7  2  0  0  0
  6 20  1  0  0  0
  7  8  1  0  0  0
  8  9  1  0  0  0
  9 10  1  0  0  0
  9 21  1  0  0  0
  9 22  1  0  0  0
 10 11  2  0  0  0
 10 15  1  0  0  0
 11 12  1  0  0  0
 11 23  1  0  0  0
 12 13  2  0  0  0
 12 24  1  0  0  0
 13 14  1  0  0  0
 13 25  1  0  0  0
 14 15  2  0  0  0
 14 26  1  0  0  0
 15 27  1  0  0  0
M  CHG  1   3   1
M  END
> <s_m_source_file>
../3fty_ligand.sdf

> <i_m_source_file_index>
1

> <s_epik_input>
W05IMl1jMW5bY0hdW2NIXVtjSF1jMU9bQ0gyXWMyW2NIXVtjSF1bY0hdW2NIXVtjSF0y

> <s_epik_cmdline>
J2VwaWtfYXBwJywgJy1pbWFlJywgJ2xpZ2FuZF9wcm8ubWFlJywgJy1vbWFlJywgJ2xpZ2FuZF9wcmVwLm1hZScsICctbXMnLCAnMScsICctcGgnLCAnNycsICctcGh0JywgJzAuNScsICctbnQn

> <r_lp_tautomer_probability>
0.999998096099721

> <r_epik_Ionization_Penalty>
  0.2025

> <r_epik_Ionization_Penalty_Charging>
  0.2025

> <r_epik_Ionization_Penalty_Neutral>
  0.0000

> <r_epik_State_Penalty>
  0.1924

> <r_epik_Charging_Adjusted_Penalty>
0.394828561803928

> <i_epik_Tot_Q>
1

> <i_epik_Tot_abs_Q>
1

$$$$
