3ftz_ligand
                    3D
 Schrodinger Suite 2020-3.
 27 28  0  0  1  0            999 V2000
   24.3580    1.6590    0.9140 N   0  0  0  0  0  0
   23.9950    1.5070    2.2030 C   0  0  0  0  0  0
   23.1290    2.4260    2.7870 C   0  0  0  0  0  0
   24.4800    0.4330    2.9370 C   0  0  0  0  0  0
   24.0750    0.3150    4.2630 C   0  0  0  0  0  0
   23.2270    1.2390    4.8560 C   0  0  0  0  0  0
   22.7400    2.2990    4.1120 C   0  0  0  0  0  0
   25.3560   -0.4980    2.4090 O   0  0  0  0  0  0
   25.4960   -0.7850    1.0100 C   0  0  0  0  0  0
   26.7120   -0.1700    0.3280 C   0  0  0  0  0  0
   27.9110    0.0360    1.0020 C   0  0  0  0  0  0
   29.0040    0.5880    0.3170 C   0  0  0  0  0  0
   28.8950    0.9110   -1.0350 C   0  0  0  0  0  0
   27.7300    0.6880   -1.6710 N   0  0  0  0  0  0
   26.6570    0.1680   -1.0300 C   0  0  0  0  0  0
   23.9745    2.5095    0.3312 H   0  0  0  0  0  0
   25.0378    0.9326    0.4447 H   0  0  0  0  0  0
   22.7505    3.2586    2.1940 H   0  0  0  0  0  0
   24.4345   -0.5280    4.8530 H   0  0  0  0  0  0
   22.9456    1.1304    5.9034 H   0  0  0  0  0  0
   22.0606    3.0236    4.5607 H   0  0  0  0  0  0
   25.5783   -1.8723    0.8652 H   0  0  0  0  0  0
   24.6156   -0.4086    0.4686 H   0  0  0  0  0  0
   28.0010   -0.2296    2.0553 H   0  0  0  0  0  0
   29.9418    0.7650    0.8437 H   0  0  0  0  0  0
   29.7427    1.3388   -1.5702 H   0  0  0  0  0  0
   25.7309    0.0090   -1.5824 H   0  0  0  0  0  0
  1  2  1  0  0  0
  1 16  1  0  0  0
  1 17  1  0  0  0
  2  3  2  0  0  0
  2  4  1  0  0  0
  3  7  1  0  0  0
  3 18  1  0  0  0
  4  5  2  0  0  0
  4  8  1  0  0  0
  5  6  1  0  0  0
  5 19  1  0  0  0
  6  7  2  0  0  0
  6 20  1  0  0  0
  7 21  1  0  0  0
  8  9  1  0  0  0
  9 10  1  0  0  0
  9 22  1  0  0  0
  9 23  1  0  0  0
 10 11  2  0  0  0
 10 15  1  0  0  0
 11 12  1  0  0  0
 11 24  1  0  0  0
 12 13  2  0  0  0
 12 25  1  0  0  0
 13 14  1  0  0  0
 13 26  1  0  0  0
 14 15  2  0  0  0
 15 27  1  0  0  0
M  END
> <s_m_source_file>
../3ftz_ligand.sdf

> <i_m_source_file_index>
1

> <s_epik_input>
W05IMl1jMVtjSF1bY0hdW2NIXVtjSF1jMU9bQ0gyXWMyW2NIXVtjSF1bY0hdbltjSF0y

> <s_epik_cmdline>
J2VwaWtfYXBwJywgJy1pbWFlJywgJ2xpZ2FuZF9wcm8ubWFlJywgJy1vbWFlJywgJ2xpZ2FuZF9wcmVwLm1hZScsICctbXMnLCAnMScsICctcGgnLCAnNycsICctcGh0JywgJzAuNScsICctbnQn

> <r_lp_tautomer_probability>
1

> <r_epik_Ionization_Penalty>
  0.0067

> <r_epik_Ionization_Penalty_Charging>
  0.0000

> <r_epik_Ionization_Penalty_Neutral>
  0.0067

> <r_epik_State_Penalty>
 -0.0000

> <r_epik_Charging_Adjusted_Penalty>
0

> <i_epik_Tot_Q>
0

> <i_epik_Tot_abs_Q>
0

$$$$
