3fu3_ligand
                    3D
 Schrodinger Suite 2020-3.
 21 22  0  0  1  0            999 V2000
   -9.5380   21.5230   10.8300 O   0  0  0  0  0  0
   -9.7540   23.9700   13.5300 C   0  0  0  0  0  0
   -9.2780   23.2740   12.4260 C   0  0  0  0  0  0
  -10.0040   22.2050   11.9120 C   0  0  0  0  0  0
  -11.6820   22.5300   13.6090 C   0  0  0  0  0  0
  -11.2060   21.8330   12.5040 C   0  0  0  0  0  0
  -10.9560   23.5980   14.1220 C   0  0  0  0  0  0
  -11.4650   24.3450   15.3060 C   0  0  0  0  0  0
  -12.3320   24.5540   17.4020 C   0  0  0  0  0  0
  -11.5240   25.7530   15.3370 C   0  0  0  0  0  0
  -12.1890   26.2530   16.9200 S   0  0  0  0  0  0
  -11.9100   23.7030   16.4420 N   0  0  0  0  0  0
  -12.8110   24.1520   18.6040 N   0  0  0  0  0  0
   -8.5871   21.8175   10.3619 H   0  0  0  0  0  0
   -9.1850   24.8081   13.9324 H   0  0  0  0  0  0
   -8.3355   23.5657   11.9626 H   0  0  0  0  0  0
  -12.6244   22.2387   14.0727 H   0  0  0  0  0  0
  -11.7751   20.9949   12.1018 H   0  0  0  0  0  0
  -11.2168   26.4225   14.5336 H   0  0  0  0  0  0
  -13.1388   24.8981   19.3428 H   0  0  0  0  0  0
  -12.8720   23.0796   18.8410 H   0  0  0  0  0  0
  1  4  1  0  0  0
  1 14  1  0  0  0
  2  3  2  0  0  0
  2  7  1  0  0  0
  2 15  1  0  0  0
  3  4  1  0  0  0
  3 16  1  0  0  0
  4  6  2  0  0  0
  5  6  1  0  0  0
  5  7  2  0  0  0
  5 17  1  0  0  0
  6 18  1  0  0  0
  7  8  1  0  0  0
  8 10  2  0  0  0
  8 12  1  0  0  0
  9 11  1  0  0  0
  9 12  2  0  0  0
  9 13  1  0  0  0
 10 11  1  0  0  0
 10 19  1  0  0  0
 13 20  1  0  0  0
 13 21  1  0  0  0
M  END
> <s_m_source_file>
../3fu3_ligand.sdf

> <i_m_source_file_index>
1

> <s_epik_input>
W09IXWMxW2NIXVtjSF1jKFtjSF1bY0hdMSktYzJbY0hdc2MobjIpW05IMl0=

> <s_epik_cmdline>
J2VwaWtfYXBwJywgJy1pbWFlJywgJ2xpZ2FuZF9wcm8ubWFlJywgJy1vbWFlJywgJ2xpZ2FuZF9wcmVwLm1hZScsICctbXMnLCAnMScsICctcGgnLCAnNycsICctcGh0JywgJzAuNScsICctbnQn

> <r_lp_tautomer_probability>
1

> <r_epik_Ionization_Penalty>
  0.0030

> <r_epik_Ionization_Penalty_Charging>
  0.0000

> <r_epik_Ionization_Penalty_Neutral>
  0.0030

> <r_epik_State_Penalty>
 -0.0000

> <r_epik_Charging_Adjusted_Penalty>
0

> <i_epik_Tot_Q>
0

> <i_epik_Tot_abs_Q>
0

$$$$
