3fu5_ligand
                    3D
 Schrodinger Suite 2020-3.
 22 23  0  0  1  0            999 V2000
   34.3770    1.4710    1.6840 N   0  3  0  0  0  0
   34.2750    2.3060    0.4980 C   0  0  0  0  0  0
   33.0110    1.9750   -0.2540 C   0  0  0  0  0  0
   31.6320    1.4920    0.7720 S   0  0  0  0  0  0
   30.6100    1.2580   -0.6670 C   0  0  0  0  0  0
   31.3010    1.5490   -1.8430 C   0  0  0  0  0  0
   32.6370    1.9430   -1.6030 C   0  0  0  0  0  0
   29.1780    0.8230   -0.5700 C   0  0  0  0  0  0
   27.9840    0.9590   -1.8720 S   0  0  0  0  0  0
   26.6880    0.2600   -0.8360 C   0  0  0  0  0  0
   27.2530   -0.0370    0.4070 C   0  0  0  0  0  0
   28.6110    0.2650    0.5660 C   0  0  0  0  0  0
   35.3009    1.7176    2.2276 H   0  0  0  0  0  0
   34.3982    0.4123    1.3863 H   0  0  0  0  0  0
   33.5091    1.6515    2.3352 H   0  0  0  0  0  0
   34.2538    3.3647    0.7957 H   0  0  0  0  0  0
   35.1429    2.1255   -0.1533 H   0  0  0  0  0  0
   30.8596    1.4802   -2.8372 H   0  0  0  0  0  0
   33.3247    2.2025   -2.4078 H   0  0  0  0  0  0
   25.6499    0.0978   -1.1261 H   0  0  0  0  0  0
   26.6667   -0.4810    1.2115 H   0  0  0  0  0  0
   29.1647    0.0807    1.4866 H   0  0  0  0  0  0
  1  2  1  0  0  0
  1 13  1  0  0  0
  1 14  1  0  0  0
  1 15  1  0  0  0
  2  3  1  0  0  0
  2 16  1  0  0  0
  2 17  1  0  0  0
  3  4  1  0  0  0
  3  7  2  0  0  0
  4  5  1  0  0  0
  5  6  2  0  0  0
  5  8  1  0  0  0
  6  7  1  0  0  0
  6 18  1  0  0  0
  7 19  1  0  0  0
  8  9  1  0  0  0
  8 12  2  0  0  0
  9 10  1  0  0  0
 10 11  2  0  0  0
 10 20  1  0  0  0
 11 12  1  0  0  0
 11 21  1  0  0  0
 12 22  1  0  0  0
M  CHG  1   1   1
M  END
> <s_m_source_file>
../3fu5_ligand.sdf

> <i_m_source_file_index>
1

> <s_epik_input>
W05IMytdW0NIMl1jMXNjKFtjSF1bY0hdMSktYzJzW2NIXVtjSF1bY0hdMg==

> <s_epik_cmdline>
J2VwaWtfYXBwJywgJy1pbWFlJywgJ2xpZ2FuZF9wcm8ubWFlJywgJy1vbWFlJywgJ2xpZ2FuZF9wcmVwLm1hZScsICctbXMnLCAnMScsICctcGgnLCAnNycsICctcGh0JywgJzAuNScsICctbnQn

> <r_epik_Ionization_Penalty>
  0.0253

> <r_epik_Ionization_Penalty_Charging>
  0.0253

> <r_epik_Ionization_Penalty_Neutral>
  0.0000

> <r_epik_State_Penalty>
  0.0206

> <r_epik_Charging_Adjusted_Penalty>
0.0459277718206646

> <i_epik_Tot_Q>
1

> <i_epik_Tot_abs_Q>
1

$$$$
