3fu6_ligand
                    3D
 Schrodinger Suite 2020-3.
 25 26  0  0  1  0            999 V2000
   25.8510    0.5640    1.3510 C   0  0  0  0  0  0
   25.5350    1.0840    0.1010 C   0  0  0  0  0  0
   26.4660    1.0340   -0.9290 C   0  0  0  0  0  0
   27.7140    0.4620   -0.7100 C   0  0  0  0  0  0
   28.0310   -0.0580    0.5400 C   0  0  0  0  0  0
   27.0990   -0.0080    1.5700 C   0  0  0  0  0  0
   24.8520    0.6180    2.4550 C   0  0  0  0  0  0
   22.9170    1.4920    3.9530 C   0  0  0  0  0  0
   23.4830    0.2700    4.3210 C   0  0  0  0  0  0
   24.5290   -0.2150    3.5210 C   0  0  0  0  0  0
   28.7270    0.4070   -1.8300 C   0  0  0  0  0  0
   29.7880    1.3610   -1.5700 N   0  3  0  0  0  0
   23.7870    2.0420    2.4920 S   0  0  0  0  0  0
   24.5560    1.5313   -0.0711 H   0  0  0  0  0  0
   26.2180    1.4431   -1.9084 H   0  0  0  0  0  0
   29.0102   -0.5048    0.7121 H   0  0  0  0  0  0
   27.3466   -0.4173    2.5494 H   0  0  0  0  0  0
   22.1023    2.0102    4.4588 H   0  0  0  0  0  0
   23.1283   -0.2827    5.1909 H   0  0  0  0  0  0
   25.0409   -1.1572    3.7169 H   0  0  0  0  0  0
   29.1516   -0.6059   -1.8909 H   0  0  0  0  0  0
   28.2352    0.6562   -2.7818 H   0  0  0  0  0  0
   30.5252    1.3207   -2.3854 H   0  0  0  0  0  0
   30.2800    1.1118   -0.6182 H   0  0  0  0  0  0
   29.3635    2.3740   -1.5092 H   0  0  0  0  0  0
  1  2  2  0  0  0
  1  6  1  0  0  0
  1  7  1  0  0  0
  2  3  1  0  0  0
  2 14  1  0  0  0
  3  4  2  0  0  0
  3 15  1  0  0  0
  4  5  1  0  0  0
  4 11  1  0  0  0
  5  6  2  0  0  0
  5 16  1  0  0  0
  6 17  1  0  0  0
  7 10  2  0  0  0
  7 13  1  0  0  0
  8  9  2  0  0  0
  8 13  1  0  0  0
  8 18  1  0  0  0
  9 10  1  0  0  0
  9 19  1  0  0  0
 10 20  1  0  0  0
 11 12  1  0  0  0
 11 21  1  0  0  0
 11 22  1  0  0  0
 12 23  1  0  0  0
 12 24  1  0  0  0
 12 25  1  0  0  0
M  CHG  1  12   1
M  END
> <s_m_source_file>
../3fu6_ligand.sdf

> <i_m_source_file_index>
1

> <s_epik_input>
czFbY0hdW2NIXVtjSF1jMS1jMltjSF1bY0hdYyhbY0hdW2NIXTIpW0NIMl1bTkgzK10=

> <s_epik_cmdline>
J2VwaWtfYXBwJywgJy1pbWFlJywgJ2xpZ2FuZF9wcm8ubWFlJywgJy1vbWFlJywgJ2xpZ2FuZF9wcmVwLm1hZScsICctbXMnLCAnMScsICctcGgnLCAnNycsICctcGh0JywgJzAuNScsICctbnQn

> <r_epik_Ionization_Penalty>
  0.0281

> <r_epik_Ionization_Penalty_Charging>
  0.0281

> <r_epik_Ionization_Penalty_Neutral>
  0.0000

> <r_epik_State_Penalty>
  0.0231

> <r_epik_Charging_Adjusted_Penalty>
0.0512281053481589

> <i_epik_Tot_Q>
1

> <i_epik_Tot_abs_Q>
1

$$$$
