3fuc_ligand
                    3D
 Schrodinger Suite 2020-3.
 35 36  0  0  1  0            999 V2000
   32.3860  -14.9410   24.9800 O   0  5  0  0  0  0
   31.3390  -14.0990   24.1700 P   0  0  0  0  0  0
   30.0310  -13.8640   25.0680 O   0  0  0  0  0  0
   30.9710  -14.6990   22.8460 O   0  0  0  0  0  0
   31.9840  -12.4160   23.8580 C   0  0  0  0  0  0
   32.9330  -12.4970   22.8860 F   0  0  0  0  0  0
   30.9860  -11.6460   23.4100 F   0  0  0  0  0  0
   32.6100  -11.8350   25.1200 C   0  0  0  0  0  0
   32.7940  -10.3110   24.9620 C   0  0  0  0  0  0
   33.3950   -9.6850   26.2270 C   0  0  0  0  0  0
   32.6170  -10.1110   27.4920 C   0  0  0  0  0  0
   33.0520   -9.3200   28.7270 C   0  0  0  0  0  0
   34.1090   -9.5590   29.5300 C   0  0  0  0  0  0
   34.1320   -8.6250   30.5030 N   0  3  0  0  0  0
   33.0950   -7.7550   30.3580 C   0  0  0  0  0  0
   32.6570   -6.6250   31.0250 C   0  0  0  0  0  0
   33.1950   -6.1300   32.0220 O   0  0  0  0  0  0
   31.4850   -5.9810   30.5030 N   0  0  0  0  0  0
   30.8530   -6.5460   29.3350 C   0  0  0  0  0  0
   29.7440   -5.8420   29.0170 N   0  0  0  0  0  0
   31.2320   -7.5640   28.7140 N   0  0  0  0  0  0
   32.4070   -8.1990   29.2290 C   0  0  0  0  0  0
   29.4348  -14.7240   25.4070 H   0  0  0  0  0  0
   31.9534  -12.0337   25.9799 H   0  0  0  0  0  0
   33.5907  -12.3028   25.2917 H   0  0  0  0  0  0
   33.4698  -10.1088   24.1179 H   0  0  0  0  0  0
   31.8177   -9.8417   24.7706 H   0  0  0  0  0  0
   34.4407  -10.0089   26.3351 H   0  0  0  0  0  0
   33.3572   -8.5886   26.1471 H   0  0  0  0  0  0
   31.5417   -9.9397   27.3361 H   0  0  0  0  0  0
   32.7935  -11.1788   27.6888 H   0  0  0  0  0  0
   34.7751  -10.4097   29.3238 H   0  0  0  0  0  0
   29.4680   -4.9549   29.6060 H   0  0  0  0  0  0
   34.9230   -8.6462   31.2671 H   0  0  0  0  0  0
   29.1174   -6.1561   28.1692 H   0  0  0  0  0  0
  1  2  1  0  0  0
  2  3  1  0  0  0
  2  4  2  0  0  0
  2  5  1  0  0  0
  3 23  1  0  0  0
  5  6  1  0  0  0
  5  7  1  0  0  0
  5  8  1  0  0  0
  8  9  1  0  0  0
  8 24  1  0  0  0
  8 25  1  0  0  0
  9 10  1  0  0  0
  9 26  1  0  0  0
  9 27  1  0  0  0
 10 11  1  0  0  0
 10 28  1  0  0  0
 10 29  1  0  0  0
 11 12  1  0  0  0
 11 30  1  0  0  0
 11 31  1  0  0  0
 12 13  2  0  0  0
 12 22  1  0  0  0
 13 14  1  0  0  0
 13 32  1  0  0  0
 14 15  1  0  0  0
 14 34  1  0  0  0
 15 16  1  0  0  0
 15 22  2  0  0  0
 16 17  2  0  0  0
 16 18  1  0  0  0
 18 19  1  0  0  0
 19 20  1  0  0  0
 19 21  2  0  0  0
 20 33  1  0  0  0
 20 35  1  0  0  0
 21 22  1  0  0  0
M  CHG  2   1  -1  14   1
M  END
> <s_m_source_file>
../3fuc_ligand.sdf

> <i_m_source_file_index>
1

> <s_epik_input>
W09IXVAoPU8pKFtPSF0pQyhGKShGKVtDSDJdW0NIMl1bQ0gyXVtDSDJdYyhbY0hdW25IXTEpYyhjMTIpW25IXWMoPU5cW0hdKVxbbkhdYzI9Tw==

> <s_epik_cmdline>
J2VwaWtfYXBwJywgJy1pbWFlJywgJ2xpZ2FuZF9wcm8ubWFlJywgJy1vbWFlJywgJ2xpZ2FuZF9wcmVwLm1hZScsICctbXMnLCAnMScsICctcGgnLCAnNycsICctcGh0JywgJzAuNScsICctbnQn

> <r_epik_Ionization_Penalty>
 13.9964

> <r_epik_Ionization_Penalty_Charging>
  0.0000

> <r_epik_Ionization_Penalty_Neutral>
 13.9964

> <r_epik_State_Penalty>
  0.0150

> <r_epik_Charging_Adjusted_Penalty>
0.0150061352654392

> <i_epik_Tot_Q>
0

> <i_epik_Tot_abs_Q>
2

> <s_epik_Chemistry_Notes>
This compound has an imine and may undergo hydrolysis.

$$$$
