3fud_ligand
                    3D
 Schrodinger Suite 2020-3.
 28 29  0  0  1  0            999 V2000
   -4.3410   18.7510  -24.0810 C   0  0  0  0  0  0
   -4.9740   19.1900  -22.8420 N   0  3  0  0  0  0
   -5.2120   18.2670  -21.7340 C   0  0  0  0  0  0
   -4.0390   18.2720  -20.7650 C   0  0  0  0  0  0
   -2.7490   18.3940  -21.2980 C   0  0  0  0  0  0
   -1.6210   18.4070  -20.4850 C   0  0  0  0  0  0
   -1.7830   18.2900  -19.1120 C   0  0  0  0  0  0
   -3.0550   18.1650  -18.5610 C   0  0  0  0  0  0
   -4.1920   18.1550  -19.3740 C   0  0  0  0  0  0
   -5.5040   18.0090  -18.6680 C   0  0  0  0  0  0
   -6.8410   18.3310  -18.8860 C   0  0  0  0  0  0
   -7.6950   17.9520  -17.8270 C   0  0  0  0  0  0
   -7.1320   17.3140  -16.7170 C   0  0  0  0  0  0
   -5.3870   17.2110  -17.0840 S   0  0  0  0  0  0
   -4.2607   19.6021  -24.7733 H   0  0  0  0  0  0
   -4.9489   17.9589  -24.5426 H   0  0  0  0  0  0
   -3.3362   18.3611  -23.8612 H   0  0  0  0  0  0
   -4.3662   19.9821  -22.3804 H   0  0  0  0  0  0
   -5.9788   19.5800  -23.0617 H   0  0  0  0  0  0
   -6.1203   18.5704  -21.1927 H   0  0  0  0  0  0
   -5.3427   17.2480  -22.1272 H   0  0  0  0  0  0
   -2.6265   18.4809  -22.3776 H   0  0  0  0  0  0
   -0.6262   18.5074  -20.9191 H   0  0  0  0  0  0
   -0.9088   18.2960  -18.4609 H   0  0  0  0  0  0
   -3.1661   18.0736  -17.4805 H   0  0  0  0  0  0
   -7.1951   18.8286  -19.7888 H   0  0  0  0  0  0
   -8.7656   18.1516  -17.8735 H   0  0  0  0  0  0
   -7.6455   16.9578  -15.8239 H   0  0  0  0  0  0
  1  2  1  0  0  0
  1 15  1  0  0  0
  1 16  1  0  0  0
  1 17  1  0  0  0
  2  3  1  0  0  0
  2 18  1  0  0  0
  2 19  1  0  0  0
  3  4  1  0  0  0
  3 20  1  0  0  0
  3 21  1  0  0  0
  4  5  2  0  0  0
  4  9  1  0  0  0
  5  6  1  0  0  0
  5 22  1  0  0  0
  6  7  2  0  0  0
  6 23  1  0  0  0
  7  8  1  0  0  0
  7 24  1  0  0  0
  8  9  2  0  0  0
  8 25  1  0  0  0
  9 10  1  0  0  0
 10 11  2  0  0  0
 10 14  1  0  0  0
 11 12  1  0  0  0
 11 26  1  0  0  0
 12 13  2  0  0  0
 12 27  1  0  0  0
 13 14  1  0  0  0
 13 28  1  0  0  0
M  CHG  1   2   1
M  END
> <s_m_source_file>
../3fud_ligand.sdf

> <i_m_source_file_index>
1

> <s_epik_input>
W0NIM11bTkgyK11bQ0gyXWMxW2NIXVtjSF1bY0hdW2NIXWMxLWMyW2NIXVtjSF1bY0hdczI=

> <s_epik_cmdline>
J2VwaWtfYXBwJywgJy1pbWFlJywgJ2xpZ2FuZF9wcm8ubWFlJywgJy1vbWFlJywgJ2xpZ2FuZF9wcmVwLm1hZScsICctbXMnLCAnMScsICctcGgnLCAnNycsICctcGh0JywgJzAuNScsICctbnQn

> <r_epik_Ionization_Penalty>
  0.0196

> <r_epik_Ionization_Penalty_Charging>
  0.0196

> <r_epik_Ionization_Penalty_Neutral>
  0.0000

> <r_epik_State_Penalty>
  0.0157

> <r_epik_Charging_Adjusted_Penalty>
0.0352498372946734

> <i_epik_Tot_Q>
1

> <i_epik_Tot_abs_Q>
1

$$$$
