3fue_ligand
                    3D
 Schrodinger Suite 2020-3.
 15 16  0  0  1  0            999 V2000
   22.4820   -3.0260   -5.5770 C   0  0  0  0  0  0
   22.8700   -3.2290   -4.2550 C   0  0  0  0  0  0
   24.3200    0.0370   -4.8090 C   0  0  0  0  0  0
   24.9350    0.3370   -3.6040 C   0  0  0  0  0  0
   24.8990   -0.5280   -2.5340 C   0  0  3  0  0  0
   24.2210   -1.7530   -2.6250 C   0  0  0  0  0  0
   23.6020   -2.0660   -3.8510 C   0  0  0  0  0  0
   23.6500   -1.1810   -4.9230 C   0  0  0  0  0  0
   25.7670    0.1420   -1.1100 Cl  0  0  0  0  0  0
   22.9650   -1.7820   -5.9480 N   0  0  0  0  0  0
   21.9020   -3.7975   -6.1046 H   0  0  0  0  0  0
   22.5952   -4.1602   -3.7380 H   0  0  0  0  0  0
   24.3682    0.7515   -5.6440 H   0  0  0  0  0  0
   25.4715    1.2896   -3.4825 H   0  0  0  0  0  0
   24.1619   -2.4585   -1.7831 H   0  0  0  0  0  0
  1  2  2  0  0  0
  1 10  1  0  0  0
  1 11  1  0  0  0
  2  7  1  0  0  0
  2 12  1  0  0  0
  3  4  2  0  0  0
  3  8  1  0  0  0
  3 13  1  0  0  0
  4  5  1  0  0  0
  4 14  1  0  0  0
  5  6  1  0  0  0
  5  9  1  0  0  0
  6  7  2  0  0  0
  6 15  1  0  0  0
  7  8  1  0  0  0
  8 10  2  0  0  0
M  END
> <s_m_source_file>
../3fue_ligand.sdf

> <i_m_source_file_index>
1

> <s_epik_input>
W0NIXTE9W0NIXU49QyhDMTIpW0NIXT1bQ0hdW0NIXShDbClbQ0hdPTI=

> <s_epik_cmdline>
J2VwaWtfYXBwJywgJy1pbWFlJywgJ2xpZ2FuZF9wcm8ubWFlJywgJy1vbWFlJywgJ2xpZ2FuZF9wcmVwLm1hZScsICctbXMnLCAnMScsICctcGgnLCAnNycsICctcGh0JywgJzAuNScsICctbnQn

> <r_lp_tautomer_probability>
1

> <r_epik_Ionization_Penalty>
  0.0000

> <r_epik_Ionization_Penalty_Charging>
  0.0000

> <r_epik_Ionization_Penalty_Neutral>
  0.0000

> <r_epik_State_Penalty>
 -0.0000

> <r_epik_Charging_Adjusted_Penalty>
0

> <i_epik_Tot_Q>
0

> <i_epik_Tot_abs_Q>
0

> <s_epik_Chemistry_Notes>
This compound has an imine and may undergo hydrolysis.

$$$$
