3fuf_ligand
                    3D
 Schrodinger Suite 2020-3.
 16 17  0  0  1  0            999 V2000
   14.2750   -0.0260    4.3190 C   0  0  0  0  0  0
   13.8010    0.2660    3.0390 C   0  0  0  0  0  0
   14.0930   -0.5400    1.9480 C   0  0  0  0  0  0
   14.8910   -1.6760    2.1150 C   0  0  0  0  0  0
   15.3830   -1.9530    3.4010 C   0  0  0  0  0  0
   15.0730   -1.1400    4.4880 C   0  0  0  0  0  0
   16.3640   -2.8250    5.1840 C   0  0  0  0  0  0
   16.2050   -3.0490    3.8130 C   0  0  0  0  0  0
   13.5790   -0.1670    0.7650 F   0  0  0  0  0  0
   15.7000   -1.6830    5.5640 N   0  3  0  0  0  0
   14.0209    0.6111    5.1661 H   0  0  0  0  0  0
   13.1839    1.1524    2.8923 H   0  0  0  0  0  0
   15.1242   -2.3270    1.2725 H   0  0  0  0  0  0
   16.9580   -3.5246    5.7904 H   0  0  0  0  0  0
   16.6792   -3.9214    3.3396 H   0  0  0  0  0  0
   15.6221   -1.1984    6.5484 H   0  0  0  0  0  0
  1  2  2  0  0  0
  1  6  1  0  0  0
  1 11  1  0  0  0
  2  3  1  0  0  0
  2 12  1  0  0  0
  3  4  2  0  0  0
  3  9  1  0  0  0
  4  5  1  0  0  0
  4 13  1  0  0  0
  5  6  2  0  0  0
  5  8  1  0  0  0
  6 10  1  0  0  0
  7  8  2  0  0  0
  7 10  1  0  0  0
  7 14  1  0  0  0
  8 15  1  0  0  0
 10 16  1  0  0  0
M  CHG  1  10   1
M  END
> <s_m_source_file>
../3fuf_ligand.sdf

> <i_m_source_file_index>
1

> <s_epik_input>
W2NIXTFjKEYpW2NIXVtjSF1jKGMxMilbbkhdW2NIXVtjSF0y

> <s_epik_cmdline>
J2VwaWtfYXBwJywgJy1pbWFlJywgJ2xpZ2FuZF9wcm8ubWFlJywgJy1vbWFlJywgJ2xpZ2FuZF9wcmVwLm1hZScsICctbXMnLCAnMScsICctcGgnLCAnNycsICctcGh0JywgJzAuNScsICctbnQn

> <r_lp_tautomer_probability>
1

> <r_epik_Ionization_Penalty>
  0.0000

> <r_epik_Ionization_Penalty_Charging>
  0.0000

> <r_epik_Ionization_Penalty_Neutral>
  0.0000

> <r_epik_State_Penalty>
 -0.0000

> <r_epik_Charging_Adjusted_Penalty>
0

> <i_epik_Tot_Q>
1

> <i_epik_Tot_abs_Q>
1

$$$$
