3fui_ligand
                    3D
 Schrodinger Suite 2020-3.
 44 46  0  0  1  0            999 V2000
    4.8220   -2.2950   -1.0420 C   0  0  0  0  0  0
    5.7930   -1.6680   -1.9290 N   0  3  0  0  0  0
    5.4830   -3.5610   -0.5080 C   0  0  0  0  0  0
    6.9640   -3.3400   -0.7850 C   0  0  0  0  0  0
    6.9990   -2.4690   -2.0290 C   0  0  2  0  0  0
    8.3120   -1.7020   -2.2240 C   0  0  0  0  0  0
    8.6590   -0.7850   -1.1960 O   0  0  0  0  0  0
    9.9770   -0.6380   -0.7700 C   0  0  0  0  0  0
   11.0440   -0.8880   -1.6430 C   0  0  0  0  0  0
   12.3510   -0.7670   -1.1790 C   0  0  0  0  0  0
   12.6150   -0.3970    0.1560 C   0  0  0  0  0  0
   11.5380   -0.1390    1.0060 C   0  0  0  0  0  0
   10.2270   -0.2510    0.5530 C   0  0  0  0  0  0
   13.9100   -0.2820    0.5850 N   0  0  0  0  0  0
   14.2820    0.2420    1.8950 C   0  0  0  0  0  0
   14.7580   -0.8630    2.8540 C   0  0  0  0  0  0
   15.1470   -0.5440    4.1590 C   0  0  0  0  0  0
   15.5790   -1.5280    5.0390 C   0  0  0  0  0  0
   15.6360   -2.8400    4.6190 C   0  0  0  0  0  0
   15.2540   -3.1770    3.3250 C   0  0  0  0  0  0
   14.8240   -2.2010    2.4390 C   0  0  0  0  0  0
    4.5740   -1.6040   -0.2228 H   0  0  0  0  0  0
    3.9098   -2.5351   -1.6080 H   0  0  0  0  0  0
    5.3566   -1.5606   -2.9330 H   0  0  0  0  0  0
    6.0602   -0.6755   -1.5372 H   0  0  0  0  0  0
    5.2704   -3.6603    0.5667 H   0  0  0  0  0  0
    5.0851   -4.4360   -1.0428 H   0  0  0  0  0  0
    7.4275   -2.8386    0.0774 H   0  0  0  0  0  0
    7.4546   -4.3103   -0.9522 H   0  0  0  0  0  0
    6.9402   -3.0387   -2.9681 H   0  0  0  0  0  0
    9.1469   -2.4152   -2.2901 H   0  0  0  0  0  0
    8.2584   -1.1132   -3.1516 H   0  0  0  0  0  0
   10.8523   -1.1749   -2.6770 H   0  0  0  0  0  0
   13.1820   -0.9610   -1.8571 H   0  0  0  0  0  0
   11.7266    0.1542    2.0387 H   0  0  0  0  0  0
    9.3965   -0.0381    1.2260 H   0  0  0  0  0  0
   14.6899   -0.6104   -0.1178 H   0  0  0  0  0  0
   15.1000    0.9684    1.7805 H   0  0  0  0  0  0
   13.4128    0.7376    2.3520 H   0  0  0  0  0  0
   15.1106    0.4936    4.4908 H   0  0  0  0  0  0
   15.8712   -1.2646    6.0555 H   0  0  0  0  0  0
   15.9814   -3.6152    5.3030 H   0  0  0  0  0  0
   15.2930   -4.2180    3.0043 H   0  0  0  0  0  0
   14.5381   -2.4729    1.4229 H   0  0  0  0  0  0
  1  2  1  0  0  0
  1  3  1  0  0  0
  1 22  1  0  0  0
  1 23  1  0  0  0
  2  5  1  0  0  0
  2 24  1  0  0  0
  2 25  1  0  0  0
  3  4  1  0  0  0
  3 26  1  0  0  0
  3 27  1  0  0  0
  4  5  1  0  0  0
  4 28  1  0  0  0
  4 29  1  0  0  0
  5  6  1  0  0  0
  5 30  1  0  0  0
  6  7  1  0  0  0
  6 31  1  0  0  0
  6 32  1  0  0  0
  7  8  1  0  0  0
  8  9  2  0  0  0
  8 13  1  0  0  0
  9 10  1  0  0  0
  9 33  1  0  0  0
 10 11  2  0  0  0
 10 34  1  0  0  0
 11 12  1  0  0  0
 11 14  1  0  0  0
 12 13  2  0  0  0
 12 35  1  0  0  0
 13 36  1  0  0  0
 14 15  1  0  0  0
 14 37  1  0  0  0
 15 16  1  0  0  0
 15 38  1  0  0  0
 15 39  1  0  0  0
 16 17  2  0  0  0
 16 21  1  0  0  0
 17 18  1  0  0  0
 17 40  1  0  0  0
 18 19  2  0  0  0
 18 41  1  0  0  0
 19 20  1  0  0  0
 19 42  1  0  0  0
 20 21  2  0  0  0
 20 43  1  0  0  0
 21 44  1  0  0  0
M  CHG  1   2   1
M  END
> <s_m_source_file>
../3fui_ligand.sdf

> <i_m_source_file_index>
1

> <s_epik_input>
W0NIMl0xW0NIMl1bQ0gyXVtOSDIrXVtDQEhdMVtDSDJdT2MyW2NIXVtjSF1jKFtjSF1bY0hdMilbTkhdW0NIMl1jM1tjSF1bY0hdW2NIXVtjSF1bY0hdMw==

> <s_epik_cmdline>
J2VwaWtfYXBwJywgJy1pbWFlJywgJ2xpZ2FuZF9wcm8ubWFlJywgJy1vbWFlJywgJ2xpZ2FuZF9wcmVwLm1hZScsICctbXMnLCAnMScsICctcGgnLCAnNycsICctcGh0JywgJzAuNScsICctbnQn

> <r_lp_tautomer_probability>
1

> <r_epik_Ionization_Penalty>
  0.0057

> <r_epik_Ionization_Penalty_Charging>
  0.0008

> <r_epik_Ionization_Penalty_Neutral>
  0.0049

> <r_epik_State_Penalty>
 -0.0000

> <r_epik_Charging_Adjusted_Penalty>
0.000778793748837202

> <i_epik_Tot_Q>
1

> <i_epik_Tot_abs_Q>
1

$$$$
