3fuj_ligand
                    3D
 Schrodinger Suite 2020-3.
 31 33  0  0  1  0            999 V2000
  -31.0550   -2.9130   -0.4530 C   0  0  0  0  0  0
  -32.4660   -3.3690   -0.0690 C   0  0  0  0  0  0
  -33.4640   -2.7030   -1.0070 C   0  0  0  0  0  0
  -32.6800   -1.7590   -1.9200 C   0  0  0  0  0  0
  -31.2950   -1.9290   -1.5020 N   0  0  0  0  0  0
  -30.2440   -1.1550   -2.1650 C   0  0  0  0  0  0
  -28.8440   -1.3330   -1.5640 C   0  0  0  0  0  0
  -28.5850   -0.2660   -0.6360 O   0  0  0  0  0  0
  -27.5370   -0.1810    0.2710 C   0  0  0  0  0  0
  -27.6720    0.8050    1.2410 C   0  0  0  0  0  0
  -26.4050   -0.9950    0.2790 C   0  0  0  0  0  0
  -25.4130   -0.8020    1.2720 C   0  0  0  0  0  0
  -24.1840   -1.4980    1.4890 C   0  0  0  0  0  0
  -23.6470   -0.8750    2.6210 C   0  0  0  0  0  0
  -24.4830    0.1380    3.0340 N   0  3  0  0  0  0
  -25.5610    0.1910    2.2270 C   0  0  0  0  0  0
  -26.6810    0.9880    2.2010 C   0  0  0  0  0  0
  -30.1016   -3.2442   -0.0414 H   0  0  0  0  0  0
  -32.7143   -4.0555    0.7404 H   0  0  0  0  0  0
  -34.5412   -2.8689   -1.0245 H   0  0  0  0  0  0
  -33.0685   -1.1084   -2.7035 H   0  0  0  0  0  0
  -30.1781   -1.4556   -3.2211 H   0  0  0  0  0  0
  -30.4835   -0.0832   -2.1031 H   0  0  0  0  0  0
  -28.7903   -2.2982   -1.0391 H   0  0  0  0  0  0
  -28.0941   -1.3110   -2.3685 H   0  0  0  0  0  0
  -28.5589    1.4386    1.2500 H   0  0  0  0  0  0
  -26.2841   -1.7743   -0.4734 H   0  0  0  0  0  0
  -23.6407   -2.3234    1.0057 H   0  0  0  0  0  0
  -22.6905   -1.2227    3.0385 H   0  0  0  0  0  0
  -26.7948    1.7766    2.9448 H   0  0  0  0  0  0
  -24.2139    0.7521    3.9060 H   0  0  0  0  0  0
  1  2  2  0  0  0
  1  5  1  0  0  0
  1 18  1  0  0  0
  2  3  1  0  0  0
  2 19  1  0  0  0
  3  4  2  0  0  0
  3 20  1  0  0  0
  4  5  1  0  0  0
  4 21  1  0  0  0
  5  6  1  0  0  0
  6  7  1  0  0  0
  6 22  1  0  0  0
  6 23  1  0  0  0
  7  8  1  0  0  0
  7 24  1  0  0  0
  7 25  1  0  0  0
  8  9  1  0  0  0
  9 10  2  0  0  0
  9 11  1  0  0  0
 10 17  1  0  0  0
 10 26  1  0  0  0
 11 12  2  0  0  0
 11 27  1  0  0  0
 12 13  1  0  0  0
 12 16  1  0  0  0
 13 14  2  0  0  0
 13 28  1  0  0  0
 14 15  1  0  0  0
 14 29  1  0  0  0
 15 16  1  0  0  0
 15 31  1  0  0  0
 16 17  2  0  0  0
 17 30  1  0  0  0
M  CHG  1  15   1
M  END
> <s_m_source_file>
../3fuj_ligand.sdf

> <i_m_source_file_index>
1

> <s_epik_input>
W2NIXTFbY0hdW2NIXVtjSF1uMVtDSDJdW0NIMl1PYyhbY0hdMilbY0hdW2NIXWMoYzIzKVtuSF1bY0hdW2NIXTM=

> <s_epik_cmdline>
J2VwaWtfYXBwJywgJy1pbWFlJywgJ2xpZ2FuZF9wcm8ubWFlJywgJy1vbWFlJywgJ2xpZ2FuZF9wcmVwLm1hZScsICctbXMnLCAnMScsICctcGgnLCAnNycsICctcGh0JywgJzAuNScsICctbnQn

> <r_lp_tautomer_probability>
1

> <r_epik_Ionization_Penalty>
  0.0000

> <r_epik_Ionization_Penalty_Charging>
  0.0000

> <r_epik_Ionization_Penalty_Neutral>
  0.0000

> <r_epik_State_Penalty>
 -0.0000

> <r_epik_Charging_Adjusted_Penalty>
0

> <i_epik_Tot_Q>
1

> <i_epik_Tot_abs_Q>
1

$$$$
