3fuk_ligand
                    3D
 Schrodinger Suite 2020-3.
 41 43  0  0  1  0            999 V2000
  -36.3690   -3.7590    2.5380 O   0  5  0  0  0  0
  -35.2230   -4.1670    2.2180 C   0  0  0  0  0  0
  -34.2970   -4.1950    3.0580 O   0  0  0  0  0  0
  -34.9630   -4.6440    0.7980 C   0  0  2  0  0  0
  -33.5030   -4.9300    0.4550 C   0  0  0  0  0  0
  -32.6090   -3.6810    0.3700 C   0  0  0  0  0  0
  -35.4290   -3.6440   -0.2550 C   0  0  0  0  0  0
  -34.5970   -2.3800   -0.4460 C   0  0  0  0  0  0
  -33.1890   -2.7230   -0.5620 N   0  3  1  0  0  0
  -32.3930   -2.0500   -1.5960 C   0  0  0  0  0  0
  -30.9030   -2.1940   -1.2620 C   0  0  0  0  0  0
  -30.0730   -1.1100   -1.7170 O   0  0  0  0  0  0
  -29.1020   -0.6670   -0.8350 C   0  0  0  0  0  0
  -29.4110    0.3420    0.0840 C   0  0  0  0  0  0
  -27.8150   -1.2230   -0.8090 C   0  0  0  0  0  0
  -26.8650   -0.7640    0.1190 C   0  0  0  0  0  0
  -25.5160   -1.2000    0.3110 C   0  0  0  0  0  0
  -25.0580   -0.4070    1.3500 C   0  0  0  0  0  0
  -26.0600    0.4320    1.7530 N   0  3  0  0  0  0
  -27.1860    0.2330    1.0140 C   0  0  0  0  0  0
  -28.4620    0.7970    1.0020 C   0  0  0  0  0  0
  -35.5400   -5.5803    0.7791 H   0  0  0  0  0  0
  -33.0665   -5.5829    1.2252 H   0  0  0  0  0  0
  -33.4472   -5.4294   -0.5235 H   0  0  0  0  0  0
  -32.5294   -3.2187    1.3650 H   0  0  0  0  0  0
  -31.6075   -3.9701    0.0188 H   0  0  0  0  0  0
  -35.4463   -4.1312   -1.2411 H   0  0  0  0  0  0
  -36.4396   -3.2903   -0.0030 H   0  0  0  0  0  0
  -34.9199   -1.8635   -1.3619 H   0  0  0  0  0  0
  -34.7369   -1.7147    0.4188 H   0  0  0  0  0  0
  -32.6691   -3.6653   -0.7895 H   0  0  0  0  0  0
  -32.5975   -2.5105   -2.5738 H   0  0  0  0  0  0
  -32.6616   -0.9838   -1.6295 H   0  0  0  0  0  0
  -30.7759   -2.2531   -0.1710 H   0  0  0  0  0  0
  -30.5098   -3.1100   -1.7271 H   0  0  0  0  0  0
  -30.4091    0.7802    0.0833 H   0  0  0  0  0  0
  -27.5506   -2.0139   -1.5110 H   0  0  0  0  0  0
  -24.8502   -1.9475   -0.1451 H   0  0  0  0  0  0
  -24.0266   -0.5205    1.7151 H   0  0  0  0  0  0
  -28.7171    1.5892    1.7059 H   0  0  0  0  0  0
  -25.8859    1.1413    2.5755 H   0  0  0  0  0  0
  1  2  1  0  0  0
  2  3  2  0  0  0
  2  4  1  0  0  0
  4  5  1  0  0  0
  4  7  1  0  0  0
  4 22  1  0  0  0
  5  6  1  0  0  0
  5 23  1  0  0  0
  5 24  1  0  0  0
  6  9  1  0  0  0
  6 25  1  0  0  0
  6 26  1  0  0  0
  7  8  1  0  0  0
  7 27  1  0  0  0
  7 28  1  0  0  0
  8  9  1  0  0  0
  8 29  1  0  0  0
  8 30  1  0  0  0
  9 10  1  0  0  0
  9 31  1  0  0  0
 10 11  1  0  0  0
 10 32  1  0  0  0
 10 33  1  0  0  0
 11 12  1  0  0  0
 11 34  1  0  0  0
 11 35  1  0  0  0
 12 13  1  0  0  0
 13 14  2  0  0  0
 13 15  1  0  0  0
 14 21  1  0  0  0
 14 36  1  0  0  0
 15 16  2  0  0  0
 15 37  1  0  0  0
 16 17  1  0  0  0
 16 20  1  0  0  0
 17 18  2  0  0  0
 17 38  1  0  0  0
 18 19  1  0  0  0
 18 39  1  0  0  0
 19 20  1  0  0  0
 19 41  1  0  0  0
 20 21  2  0  0  0
 21 40  1  0  0  0
M  CHG  3   1  -1   9   1  19   1
M  END
> <s_m_source_file>
../3fuk_ligand.sdf

> <i_m_source_file_index>
1

> <s_epik_input>
W09IXUMoPU8pW0NAQEhdMVtDSDJdW0NIMl1bTkBASCtdKFtDSDJdW0NIMl0xKVtDSDJdW0NIMl1PYyhbY0hdMilbY0hdW2NIXWMoYzIzKVtuSF1bY0hdW2NIXTM=

> <s_epik_cmdline>
J2VwaWtfYXBwJywgJy1pbWFlJywgJ2xpZ2FuZF9wcm8ubWFlJywgJy1vbWFlJywgJ2xpZ2FuZF9wcmVwLm1hZScsICctbXMnLCAnMScsICctcGgnLCAnNycsICctcGh0JywgJzAuNScsICctbnQn

> <r_lp_tautomer_probability>
1

> <r_epik_Ionization_Penalty>
  0.0047

> <r_epik_Ionization_Penalty_Charging>
  0.0047

> <r_epik_Ionization_Penalty_Neutral>
  0.0000

> <r_epik_State_Penalty>
 -0.0000

> <r_epik_Charging_Adjusted_Penalty>
0.00465379157344944

> <i_epik_Tot_Q>
1

> <i_epik_Tot_abs_Q>
3

$$$$
