3fun_ligand
                    3D
 Schrodinger Suite 2020-3.
 48 51  0  0  1  0            999 V2000
  -24.8150    1.2580    0.4690 O   0  0  0  0  0  0
  -25.3660    0.3200    0.9820 C   0  0  0  0  0  0
  -24.7520   -0.4750    2.1000 C   0  0  0  0  0  0
  -24.4280    0.1240    3.3110 C   0  0  0  0  0  0
  -23.8680   -0.6440    4.3400 C   0  0  0  0  0  0
  -23.6240   -2.0120    4.1680 C   0  0  0  0  0  0
  -23.0210   -2.8450    5.2720 C   0  0  0  0  0  0
  -23.2500   -2.4650    6.6000 C   0  0  0  0  0  0
  -22.4250   -3.6310    7.6440 S   0  0  0  0  0  0
  -21.7050   -4.6270    6.3220 C   0  0  0  0  0  0
  -22.1670   -3.9940    5.1250 C   0  0  0  0  0  0
  -23.9620   -2.5950    2.9560 C   0  0  0  0  0  0
  -24.5100   -1.8300    1.9210 C   0  0  0  0  0  0
  -26.7030   -0.0400    0.4580 C   0  0  0  0  0  0
  -26.8180   -0.4920   -0.8570 C   0  0  0  0  0  0
  -28.0930   -0.8340   -1.3700 C   0  0  0  0  0  0
  -29.1820   -0.7090   -0.5180 C   0  0  0  0  0  0
  -29.0340   -0.2400    0.7770 C   0  0  0  0  0  0
  -27.7900    0.0900    1.2920 C   0  0  0  0  0  0
  -30.4610   -1.0410   -0.9150 O   0  0  0  0  0  0
  -30.6530   -1.8840   -2.0300 C   0  0  0  0  0  0
  -32.0010   -2.5500   -1.8810 C   0  0  2  0  0  0
  -33.1190   -1.6510   -1.6530 N   0  3  0  0  0  0
  -34.2390   -2.4760   -1.1780 C   0  0  0  0  0  0
  -33.5980   -3.6710   -0.4860 C   0  0  0  0  0  0
  -32.0880   -3.5050   -0.6940 C   0  0  0  0  0  0
  -24.6090    1.1885    3.4600 H   0  0  0  0  0  0
  -23.6184   -0.1694    5.2890 H   0  0  0  0  0  0
  -23.8321   -1.6051    6.9312 H   0  0  0  0  0  0
  -21.0669   -5.5059    6.4142 H   0  0  0  0  0  0
  -21.8834   -4.3671    4.1409 H   0  0  0  0  0  0
  -23.7987   -3.6625    2.8080 H   0  0  0  0  0  0
  -24.7486   -2.3012    0.9675 H   0  0  0  0  0  0
  -25.9320   -0.5813   -1.4856 H   0  0  0  0  0  0
  -28.2148   -1.1824   -2.3956 H   0  0  0  0  0  0
  -29.9170   -0.1277    1.4062 H   0  0  0  0  0  0
  -27.6771    0.4391    2.3184 H   0  0  0  0  0  0
  -30.6239   -1.2848   -2.9520 H   0  0  0  0  0  0
  -29.8552   -2.6408   -2.0592 H   0  0  0  0  0  0
  -32.1124   -3.0250   -2.8669 H   0  0  0  0  0  0
  -32.8389   -0.9017   -0.8980 H   0  0  0  0  0  0
  -33.3796   -1.1440   -2.5937 H   0  0  0  0  0  0
  -34.8556   -1.8904   -0.4802 H   0  0  0  0  0  0
  -34.8529   -2.7895   -2.0352 H   0  0  0  0  0  0
  -33.8596   -3.6597    0.5824 H   0  0  0  0  0  0
  -33.9663   -4.6009   -0.9439 H   0  0  0  0  0  0
  -31.5918   -4.4530   -0.9490 H   0  0  0  0  0  0
  -31.5906   -3.0536    0.1771 H   0  0  0  0  0  0
  1  2  2  0  0  0
  2  3  1  0  0  0
  2 14  1  0  0  0
  3  4  2  0  0  0
  3 13  1  0  0  0
  4  5  1  0  0  0
  4 27  1  0  0  0
  5  6  2  0  0  0
  5 28  1  0  0  0
  6  7  1  0  0  0
  6 12  1  0  0  0
  7  8  2  0  0  0
  7 11  1  0  0  0
  8  9  1  0  0  0
  8 29  1  0  0  0
  9 10  1  0  0  0
 10 11  2  0  0  0
 10 30  1  0  0  0
 11 31  1  0  0  0
 12 13  2  0  0  0
 12 32  1  0  0  0
 13 33  1  0  0  0
 14 15  2  0  0  0
 14 19  1  0  0  0
 15 16  1  0  0  0
 15 34  1  0  0  0
 16 17  2  0  0  0
 16 35  1  0  0  0
 17 18  1  0  0  0
 17 20  1  0  0  0
 18 19  2  0  0  0
 18 36  1  0  0  0
 19 37  1  0  0  0
 20 21  1  0  0  0
 21 22  1  0  0  0
 21 38  1  0  0  0
 21 39  1  0  0  0
 22 23  1  0  0  0
 22 26  1  0  0  0
 22 40  1  0  0  0
 23 24  1  0  0  0
 23 41  1  0  0  0
 23 42  1  0  0  0
 24 25  1  0  0  0
 24 43  1  0  0  0
 24 44  1  0  0  0
 25 26  1  0  0  0
 25 45  1  0  0  0
 25 46  1  0  0  0
 26 47  1  0  0  0
 26 48  1  0  0  0
M  CHG  1  23   1
M  END
> <s_m_source_file>
../3fun_ligand.sdf

> <i_m_source_file_index>
1

> <s_epik_input>
W2NIXTFbY0hdc1tjSF1jMS1jKFtjSF1bY0hdMilbY0hdW2NIXWMyQyg9TyljM1tjSF1bY0hdYyhbY0hdW2NIXTMpT1tDSDJdW0NAQEhdNFtOSDIrXVtDSDJdW0NIMl1bQ0gyXTQ=

> <s_epik_cmdline>
J2VwaWtfYXBwJywgJy1pbWFlJywgJ2xpZ2FuZF9wcm8ubWFlJywgJy1vbWFlJywgJ2xpZ2FuZF9wcmVwLm1hZScsICctbXMnLCAnMScsICctcGgnLCAnNycsICctcGh0JywgJzAuNScsICctbnQn

> <r_lp_tautomer_probability>
1

> <r_epik_Ionization_Penalty>
  0.0008

> <r_epik_Ionization_Penalty_Charging>
  0.0008

> <r_epik_Ionization_Penalty_Neutral>
  0.0000

> <r_epik_State_Penalty>
 -0.0000

> <r_epik_Charging_Adjusted_Penalty>
0.000778793748837202

> <i_epik_Tot_Q>
1

> <i_epik_Tot_abs_Q>
1

$$$$
