3fup_ligand
                    3D
 Schrodinger Suite 2020-3.
 43 45  0  0  1  0            999 V2000
  -57.4340    9.4780    0.5310 C   0  0  1  0  0  0
  -56.3220    8.4320    0.4380 C   0  0  0  0  0  0
  -55.8400    8.7950    2.9180 C   0  0  0  0  0  0
  -56.8560    9.9570    3.0180 C   0  0  0  0  0  0
  -57.1750   10.5680    1.6340 C   0  0  1  0  0  0
  -56.1520    7.9000    1.7880 N   0  0  0  0  0  0
  -56.5060    5.8990    0.9780 O   0  0  0  0  0  0
  -56.2650    6.6170    1.9400 C   0  0  0  0  0  0
  -56.0830    6.1110    3.3000 C   0  0  0  0  0  0
  -56.5170    4.9590    3.5980 C   0  0  0  0  0  0
  -56.6770    3.8260    3.8130 N   0  0  0  0  0  0
  -56.1490   11.6450    1.2840 C   0  0  0  0  0  0
  -57.5700   10.1590   -0.7640 N   0  0  0  0  0  0
  -56.4410   10.2590   -1.7270 C   0  0  0  0  0  0
  -58.8020   10.6870   -1.0900 C   0  0  0  0  0  0
  -59.8920   10.6100   -0.2150 C   0  0  0  0  0  0
  -60.1110   10.0400    1.0990 C   0  0  0  0  0  0
  -61.4560   10.3500    1.3320 C   0  0  0  0  0  0
  -62.0250   11.0510    0.2990 N   0  3  0  0  0  0
  -61.1230   11.2650   -0.6710 C   0  0  0  0  0  0
  -61.1610   11.8620   -1.8740 N   0  0  0  0  0  0
  -60.0950   11.9030   -2.6540 C   0  0  0  0  0  0
  -58.9600   11.3430   -2.2770 N   0  0  0  0  0  0
  -58.3644    8.9318    0.7457 H   0  0  0  0  0  0
  -56.6208    7.6407   -0.2652 H   0  0  0  0  0  0
  -55.3979    8.9100    0.0809 H   0  0  0  0  0  0
  -54.8294    9.2033    2.7699 H   0  0  0  0  0  0
  -55.8648    8.2053    3.8463 H   0  0  0  0  0  0
  -57.7952    9.5863    3.4546 H   0  0  0  0  0  0
  -56.4429   10.7513    3.6572 H   0  0  0  0  0  0
  -58.1273   11.1152    1.6945 H   0  0  0  0  0  0
  -55.0091    6.0657    3.5337 H   0  0  0  0  0  0
  -56.5851    6.7831    4.0115 H   0  0  0  0  0  0
  -56.3868   12.0714    0.2983 H   0  0  0  0  0  0
  -55.1438   11.1991    1.2579 H   0  0  0  0  0  0
  -56.1780   12.4398    2.0439 H   0  0  0  0  0  0
  -55.5473    9.7853   -1.2947 H   0  0  0  0  0  0
  -56.2300   11.3182   -1.9358 H   0  0  0  0  0  0
  -56.7108    9.7474   -2.6627 H   0  0  0  0  0  0
  -59.4093    9.5071    1.7407 H   0  0  0  0  0  0
  -61.9933   10.0652    2.2366 H   0  0  0  0  0  0
  -60.1533   12.4049   -3.6198 H   0  0  0  0  0  0
  -63.0821   11.3501    0.3538 H   0  0  0  0  0  0
  1  2  1  0  0  0
  1  5  1  0  0  0
  1 13  1  0  0  0
  1 24  1  0  0  0
  2  6  1  0  0  0
  2 25  1  0  0  0
  2 26  1  0  0  0
  3  4  1  0  0  0
  3  6  1  0  0  0
  3 27  1  0  0  0
  3 28  1  0  0  0
  4  5  1  0  0  0
  4 29  1  0  0  0
  4 30  1  0  0  0
  5 12  1  0  0  0
  5 31  1  0  0  0
  6  8  1  0  0  0
  7  8  2  0  0  0
  8  9  1  0  0  0
  9 10  1  0  0  0
  9 32  1  0  0  0
  9 33  1  0  0  0
 10 11  3  0  0  0
 12 34  1  0  0  0
 12 35  1  0  0  0
 12 36  1  0  0  0
 13 14  1  0  0  0
 13 15  1  0  0  0
 14 37  1  0  0  0
 14 38  1  0  0  0
 14 39  1  0  0  0
 15 16  2  0  0  0
 15 23  1  0  0  0
 16 17  1  0  0  0
 16 20  1  0  0  0
 17 18  2  0  0  0
 17 40  1  0  0  0
 18 19  1  0  0  0
 18 41  1  0  0  0
 19 20  2  0  0  0
 19 43  1  0  0  0
 20 21  1  0  0  0
 21 22  1  0  0  0
 22 23  2  0  0  0
 22 42  1  0  0  0
M  CHG  1  19   1
M  END
> <s_m_source_file>
../3fup_ligand.sdf

> <i_m_source_file_index>
1

> <s_epik_input>
TiNDW0NIMl1DKD1PKU4oW0NIMl1bQ0gyXVtDQEhdMVtDSDNdKVtDSDJdW0NAQEhdMU4oW0NIM10pYzJuW2NIXVtuSF1jKGMyMyluW2NIXVtjSF0z

> <s_epik_cmdline>
J2VwaWtfYXBwJywgJy1pbWFlJywgJ2xpZ2FuZF9wcm8ubWFlJywgJy1vbWFlJywgJ2xpZ2FuZF9wcmVwLm1hZScsICctbXMnLCAnMScsICctcGgnLCAnNycsICctcGh0JywgJzAuNScsICctbnQn

> <r_lp_tautomer_probability>
1

> <r_epik_Ionization_Penalty>
  0.0000

> <r_epik_Ionization_Penalty_Charging>
  0.0000

> <r_epik_Ionization_Penalty_Neutral>
  0.0000

> <r_epik_State_Penalty>
 -0.0000

> <r_epik_Charging_Adjusted_Penalty>
5.71454020758408e-08

> <i_epik_Tot_Q>
1

> <i_epik_Tot_abs_Q>
1

$$$$
