3fv3_ligand
                    3D
 Schrodinger Suite 2020-3.
110109  0  0  1  0            999 V2000
   19.7600   26.2340   50.9010 C   0  0  0  0  0  0
   18.9760   27.5100   50.6440 C   0  0  0  0  0  0
   19.0280   28.4530   51.8400 C   0  0  0  0  0  0
   19.5120   28.2220   49.4100 C   0  0  0  0  0  0
   19.1570   25.4240   52.0360 C   0  0  0  0  0  0
   17.9540   25.1870   52.1040 O   0  0  0  0  0  0
   20.0210   24.9720   52.9420 N   0  0  0  0  0  0
   19.5820   24.2000   54.0970 C   0  0  2  0  0  0
   20.1040   24.8530   55.3580 C   0  0  0  0  0  0
   21.0570   25.6200   55.2890 O   0  0  0  0  0  0
   20.0690   22.7380   54.0290 C   0  0  0  0  0  0
   19.3840   21.9600   52.8880 C   0  0  0  0  0  0
   21.5950   22.5810   53.8890 C   0  0  0  0  0  0
   19.4800   24.5320   56.4900 N   0  0  0  0  0  0
   20.0030   24.9520   57.8040 C   0  0  2  0  0  0
   19.8630   23.7750   58.7200 C   0  0  0  0  0  0
   18.7400   23.4350   59.0470 O   0  0  0  0  0  0
   19.2460   26.1720   58.3500 C   0  0  0  0  0  0
   19.8000   26.5750   59.7280 C   0  0  0  0  0  0
   19.3030   27.3880   57.4230 C   0  0  0  0  0  0
   20.9830   23.1460   59.0660 N   0  0  0  0  0  0
   21.0020   21.8870   59.8200 C   0  0  1  0  0  0
   21.5040   20.7230   58.9200 C   0  0  0  0  0  0
   20.7400   20.6280   57.5820 C   0  0  0  0  0  0
   21.5210   19.6890   56.6320 C   0  0  0  0  0  0
   19.3140   20.1350   57.7970 C   0  0  0  0  0  0
   21.9380   21.9840   61.0320 C   0  0  1  0  0  0
   23.2480   22.3490   60.5950 O   0  0  0  0  0  0
   21.4990   23.0360   62.0600 C   0  0  0  0  0  0
   20.3390   22.5230   62.8910 C   0  0  0  0  0  0
   19.1920   22.6630   62.4840 O   0  0  0  0  0  0
   20.6500   21.9560   64.0750 N   0  0  0  0  0  0
   19.6440   21.6910   65.0860 C   0  0  2  0  0  0
   19.7110   22.7970   66.0980 C   0  0  0  0  0  0
   20.7140   22.9340   66.8030 O   0  0  0  0  0  0
   19.8780   20.3110   65.7080 C   0  0  0  0  0  0
   18.6760   23.6310   66.0920 N   0  0  0  0  0  0
   18.7630   24.9500   66.7130 C   0  0  1  0  0  0
   18.3720   26.0450   65.7250 C   0  0  0  0  0  0
   19.1370   26.0660   64.3910 C   0  0  0  0  0  0
   18.6600   27.2980   63.6220 C   0  0  0  0  0  0
   20.6550   26.1590   64.5000 C   0  0  0  0  0  0
   17.8480   24.9520   67.9500 C   0  0  1  0  0  0
   18.2640   23.9220   68.8730 O   0  0  0  0  0  0
   17.8060   26.2750   68.7120 C   0  0  0  0  0  0
   16.8100   26.0900   69.8590 C   0  0  0  0  0  0
   17.2310   26.2320   71.0310 O   0  0  0  0  0  0
   15.6050   25.7800   69.6160 O   0  5  0  0  0  0
   19.7578   25.6131   49.9930 H   0  0  0  0  0  0
   20.7962   26.4880   51.1690 H   0  0  0  0  0  0
   17.9280   27.2205   50.4767 H   0  0  0  0  0  0
   18.6404   27.9371   52.7308 H   0  0  0  0  0  0
   18.4125   29.3411   51.6337 H   0  0  0  0  0  0
   20.0686   28.7615   52.0187 H   0  0  0  0  0  0
   19.4738   27.5401   48.5477 H   0  0  0  0  0  0
   20.5528   28.5304   49.5878 H   0  0  0  0  0  0
   18.8967   29.1100   49.2028 H   0  0  0  0  0  0
   21.0893   25.1941   52.8027 H   0  0  0  0  0  0
   18.4827   24.2281   54.0682 H   0  0  0  0  0  0
   19.7846   22.3146   55.0036 H   0  0  0  0  0  0
   18.2926   22.0643   52.9768 H   0  0  0  0  0  0
   19.6573   20.8965   52.9537 H   0  0  0  0  0  0
   19.7134   22.3641   51.9194 H   0  0  0  0  0  0
   22.0961   23.1323   54.6983 H   0  0  0  0  0  0
   21.9173   22.9831   52.9172 H   0  0  0  0  0  0
   21.8612   21.5155   53.9515 H   0  0  0  0  0  0
   18.5548   23.9401   56.4299 H   0  0  0  0  0  0
   21.0608   25.2328   57.6937 H   0  0  0  0  0  0
   18.1923   25.8647   58.4232 H   0  0  0  0  0  0
   19.7647   25.7087   60.4050 H   0  0  0  0  0  0
   19.1903   27.3906   60.1440 H   0  0  0  0  0  0
   20.8410   26.9137   59.6199 H   0  0  0  0  0  0
   18.9094   27.1133   56.4333 H   0  0  0  0  0  0
   20.3456   27.7240   57.3226 H   0  0  0  0  0  0
   18.6950   28.2009   57.8467 H   0  0  0  0  0  0
   21.9282   23.6168   58.7577 H   0  0  0  0  0  0
   19.9604   21.7461   60.1444 H   0  0  0  0  0  0
   22.5691   20.8716   58.6885 H   0  0  0  0  0  0
   21.3737   19.7677   59.4495 H   0  0  0  0  0  0
   20.6510   21.6274   57.1312 H   0  0  0  0  0  0
   22.5436   20.0713   56.4976 H   0  0  0  0  0  0
   21.0134   19.6491   55.6570 H   0  0  0  0  0  0
   21.5612   18.6791   57.0661 H   0  0  0  0  0  0
   18.7868   20.8222   58.4750 H   0  0  0  0  0  0
   19.3369   19.1285   58.2401 H   0  0  0  0  0  0
   18.7891   20.0985   56.8310 H   0  0  0  0  0  0
   21.9870   20.9896   61.4998 H   0  0  0  0  0  0
   23.7705   21.7326   59.8487 H   0  0  0  0  0  0
   22.3404   23.2679   62.7295 H   0  0  0  0  0  0
   21.1839   23.9509   61.5368 H   0  0  0  0  0  0
   21.7014   21.6932   64.2632 H   0  0  0  0  0  0
   18.6511   21.6978   64.6127 H   0  0  0  0  0  0
   19.8181   19.5409   64.9248 H   0  0  0  0  0  0
   19.1100   20.1180   66.4715 H   0  0  0  0  0  0
   20.8739   20.2831   66.1743 H   0  0  0  0  0  0
   17.7414   23.3117   65.6076 H   0  0  0  0  0  0
   19.8134   25.1174   66.9935 H   0  0  0  0  0  0
   17.3092   25.9390   65.4618 H   0  0  0  0  0  0
   18.5394   27.0303   66.1845 H   0  0  0  0  0  0
   18.9337   25.1056   63.8946 H   0  0  0  0  0  0
   17.5650   27.2668   63.5225 H   0  0  0  0  0  0
   19.1190   27.3067   62.6224 H   0  0  0  0  0  0
   18.9528   28.2070   64.1678 H   0  0  0  0  0  0
   21.0373   25.2862   65.0496 H   0  0  0  0  0  0
   20.9283   27.0791   65.0373 H   0  0  0  0  0  0
   21.0945   26.1788   63.4918 H   0  0  0  0  0  0
   16.8318   24.7226   67.5968 H   0  0  0  0  0  0
   18.3615   22.8818   68.5289 H   0  0  0  0  0  0
   18.8093   26.5075   69.0985 H   0  0  0  0  0  0
   17.4787   27.0778   68.0350 H   0  0  0  0  0  0
  1  2  1  0  0  0
  1  5  1  0  0  0
  1 49  1  0  0  0
  1 50  1  0  0  0
  2  3  1  0  0  0
  2  4  1  0  0  0
  2 51  1  0  0  0
  3 52  1  0  0  0
  3 53  1  0  0  0
  3 54  1  0  0  0
  4 55  1  0  0  0
  4 56  1  0  0  0
  4 57  1  0  0  0
  5  6  2  0  0  0
  5  7  1  0  0  0
  7  8  1  0  0  0
  7 58  1  0  0  0
  8  9  1  0  0  0
  8 11  1  0  0  0
  8 59  1  0  0  0
  9 10  2  0  0  0
  9 14  1  0  0  0
 11 12  1  0  0  0
 11 13  1  0  0  0
 11 60  1  0  0  0
 12 61  1  0  0  0
 12 62  1  0  0  0
 12 63  1  0  0  0
 13 64  1  0  0  0
 13 65  1  0  0  0
 13 66  1  0  0  0
 14 15  1  0  0  0
 14 67  1  0  0  0
 15 16  1  0  0  0
 15 18  1  0  0  0
 15 68  1  0  0  0
 16 17  2  0  0  0
 16 21  1  0  0  0
 18 19  1  0  0  0
 18 20  1  0  0  0
 18 69  1  0  0  0
 19 70  1  0  0  0
 19 71  1  0  0  0
 19 72  1  0  0  0
 20 73  1  0  0  0
 20 74  1  0  0  0
 20 75  1  0  0  0
 21 22  1  0  0  0
 21 76  1  0  0  0
 22 23  1  0  0  0
 22 27  1  0  0  0
 22 77  1  0  0  0
 23 24  1  0  0  0
 23 78  1  0  0  0
 23 79  1  0  0  0
 24 25  1  0  0  0
 24 26  1  0  0  0
 24 80  1  0  0  0
 25 81  1  0  0  0
 25 82  1  0  0  0
 25 83  1  0  0  0
 26 84  1  0  0  0
 26 85  1  0  0  0
 26 86  1  0  0  0
 27 28  1  0  0  0
 27 29  1  0  0  0
 27 87  1  0  0  0
 28 88  1  0  0  0
 29 30  1  0  0  0
 29 89  1  0  0  0
 29 90  1  0  0  0
 30 31  2  0  0  0
 30 32  1  0  0  0
 32 33  1  0  0  0
 32 91  1  0  0  0
 33 34  1  0  0  0
 33 36  1  0  0  0
 33 92  1  0  0  0
 34 35  2  0  0  0
 34 37  1  0  0  0
 36 93  1  0  0  0
 36 94  1  0  0  0
 36 95  1  0  0  0
 37 38  1  0  0  0
 37 96  1  0  0  0
 38 39  1  0  0  0
 38 43  1  0  0  0
 38 97  1  0  0  0
 39 40  1  0  0  0
 39 98  1  0  0  0
 39 99  1  0  0  0
 40 41  1  0  0  0
 40 42  1  0  0  0
 40100  1  0  0  0
 41101  1  0  0  0
 41102  1  0  0  0
 41103  1  0  0  0
 42104  1  0  0  0
 42105  1  0  0  0
 42106  1  0  0  0
 43 44  1  0  0  0
 43 45  1  0  0  0
 43107  1  0  0  0
 44108  1  0  0  0
 45 46  1  0  0  0
 45109  1  0  0  0
 45110  1  0  0  0
 46 47  2  0  0  0
 46 48  1  0  0  0
M  CHG  1  48  -1
M  END
> <s_m_source_file>
../3fv3_ligand.sdf

> <i_m_source_file_index>
1

> <s_epik_input>
W0NIM11bQ0hdKFtDSDNdKVtDSDJdQyg9TylbTkhdW0NAQEhdKFtDSF0oW0NIM10pW0NIM10pQyg9TylbTkhdW0NAQEhdKFtDSF0oW0NIM10pW0NIM10pQyg9TylbTkhdW0NAQEhdKFtDSDJdW0NIXShbQ0gzXSlbQ0gzXSlbQ0BASF0oW09IXSlbQ0gyXUMoPU8pW05IXVtDQEBIXShbQ0gzXSlDKD1PKVtOSF1bQ0BASF0oW0NIMl1bQ0hdKFtDSDNdKVtDSDNdKVtDQEBIXShbT0hdKVtDSDJdQyg9TylbT0hd

> <s_epik_cmdline>
J2VwaWtfYXBwJywgJy1pbWFlJywgJ2xpZ2FuZF9wcm8ubWFlJywgJy1vbWFlJywgJ2xpZ2FuZF9wcmVwLm1hZScsICctbXMnLCAnMScsICctcGgnLCAnNycsICctcGh0JywgJzAuNScsICctbnQn

> <r_lp_tautomer_probability>
1

> <r_epik_Ionization_Penalty>
  0.0021

> <r_epik_Ionization_Penalty_Charging>
  0.0021

> <r_epik_Ionization_Penalty_Neutral>
  0.0000

> <r_epik_State_Penalty>
 -0.0000

> <r_epik_Charging_Adjusted_Penalty>
0.00208702823195129

> <i_epik_Tot_Q>
-1

> <i_epik_Tot_abs_Q>
1

$$$$
