3fv8_ligand
                    3D
 Schrodinger Suite 2020-3.
 45 47  0  0  1  0            999 V2000
  -10.5140  -30.9900   15.5440 Cl  0  0  0  0  0  0
  -11.4650  -36.4200    8.5680 C   0  0  0  0  0  0
  -12.8420  -36.6270    8.4310 C   0  0  0  0  0  0
  -13.5750  -35.9520    9.4700 C   0  0  0  0  0  0
  -12.5490  -35.3070   10.2730 O   0  0  0  0  0  0
  -11.3070  -35.5690    9.7600 C   0  0  0  0  0  0
  -10.0670  -34.9970   10.4110 C   0  0  0  0  0  0
   -8.9720  -35.2130   10.0410 O   0  0  0  0  0  0
  -10.4040  -34.1510   11.5330 N   0  0  0  0  0  0
   -9.5550  -33.3900   12.4050 C   0  0  0  0  0  0
   -8.1820  -33.3490   12.3270 C   0  0  0  0  0  0
   -7.4740  -32.5710   13.2540 C   0  0  0  0  0  0
   -8.1670  -31.8320   14.2700 C   0  0  0  0  0  0
   -9.5770  -31.8940   14.3250 C   0  0  0  0  0  0
  -10.2630  -32.6370   13.4200 C   0  0  0  0  0  0
  -11.7070  -32.7430   13.5020 N   0  0  0  0  0  0
  -12.2700  -34.0140   13.9750 C   0  0  0  0  0  0
  -13.5890  -33.8860   14.5820 C   0  0  0  0  0  0
  -12.6040  -31.5790   13.0900 C   0  0  0  0  0  0
  -14.1850  -31.8880   13.1290 C   0  0  0  0  0  0
  -14.5490  -33.3010   13.6380 N   0  3  0  0  0  0
  -16.0410  -33.5880   13.8910 C   0  0  0  0  0  0
  -16.7830  -34.5200   12.9220 C   0  0  0  0  0  0
  -17.2850  -34.0600   11.7940 C   0  0  0  0  0  0
  -15.5210  -35.8640    9.8060 Br  0  0  0  0  0  0
  -10.6738  -36.8077    7.9263 H   0  0  0  0  0  0
  -13.3000  -37.2218    7.6407 H   0  0  0  0  0  0
  -11.4560  -34.0196   11.8263 H   0  0  0  0  0  0
   -7.6536  -33.9118   11.5575 H   0  0  0  0  0  0
   -6.3861  -32.5271   13.2023 H   0  0  0  0  0  0
   -7.6124  -31.2304   14.9902 H   0  0  0  0  0  0
  -12.3673  -34.7095   13.1284 H   0  0  0  0  0  0
  -11.6036  -34.4506   14.7334 H   0  0  0  0  0  0
  -13.9520  -34.8797   14.8833 H   0  0  0  0  0  0
  -13.5239  -33.2357   15.4668 H   0  0  0  0  0  0
  -12.4334  -30.7277   13.7655 H   0  0  0  0  0  0
  -12.3674  -31.2812   12.0579 H   0  0  0  0  0  0
  -14.6827  -31.1693   13.7967 H   0  0  0  0  0  0
  -14.6017  -31.7959   12.1152 H   0  0  0  0  0  0
  -14.3416  -33.9687   12.7888 H   0  0  0  0  0  0
  -16.1619  -34.0566   14.8788 H   0  0  0  0  0  0
  -16.6061  -32.6447   13.8610 H   0  0  0  0  0  0
  -16.8929  -35.5838   13.1795 H   0  0  0  0  0  0
  -17.1751  -32.9962   11.5365 H   0  0  0  0  0  0
  -17.8140  -34.7397   11.1098 H   0  0  0  0  0  0
  1 14  1  0  0  0
  2  3  1  0  0  0
  2  6  2  0  0  0
  2 26  1  0  0  0
  3  4  2  0  0  0
  3 27  1  0  0  0
  4  5  1  0  0  0
  4 25  1  0  0  0
  5  6  1  0  0  0
  6  7  1  0  0  0
  7  8  2  0  0  0
  7  9  1  0  0  0
  9 10  1  0  0  0
  9 28  1  0  0  0
 10 11  2  0  0  0
 10 15  1  0  0  0
 11 12  1  0  0  0
 11 29  1  0  0  0
 12 13  2  0  0  0
 12 30  1  0  0  0
 13 14  1  0  0  0
 13 31  1  0  0  0
 14 15  2  0  0  0
 15 16  1  0  0  0
 16 17  1  0  0  0
 16 19  1  0  0  0
 17 18  1  0  0  0
 17 32  1  0  0  0
 17 33  1  0  0  0
 18 21  1  0  0  0
 18 34  1  0  0  0
 18 35  1  0  0  0
 19 20  1  0  0  0
 19 36  1  0  0  0
 19 37  1  0  0  0
 20 21  1  0  0  0
 20 38  1  0  0  0
 20 39  1  0  0  0
 21 22  1  0  0  0
 21 40  1  0  0  0
 22 23  1  0  0  0
 22 41  1  0  0  0
 22 42  1  0  0  0
 23 24  2  0  0  0
 23 43  1  0  0  0
 24 44  1  0  0  0
 24 45  1  0  0  0
M  CHG  1  21   1
M  END
> <s_m_source_file>
../3fv8_ligand.sdf

> <i_m_source_file_index>
1

> <s_epik_input>
W0NIMl09W0NIXVtDSDJdW05IK10oW0NIMl1bQ0gyXTEpW0NIMl1bQ0gyXU4xYzJjKENsKVtjSF1bY0hdW2NIXWMyW05IXUMoPU8pYyhvMylbY0hdW2NIXWMzQnI=

> <s_epik_cmdline>
J2VwaWtfYXBwJywgJy1pbWFlJywgJ2xpZ2FuZF9wcm8ubWFlJywgJy1vbWFlJywgJ2xpZ2FuZF9wcmVwLm1hZScsICctbXMnLCAnMScsICctcGgnLCAnNycsICctcGh0JywgJzAuNScsICctbnQn

> <r_lp_tautomer_probability>
1

> <r_epik_Ionization_Penalty>
  0.0063

> <r_epik_Ionization_Penalty_Charging>
  0.0063

> <r_epik_Ionization_Penalty_Neutral>
  0.0000

> <r_epik_State_Penalty>
 -0.0000

> <r_epik_Charging_Adjusted_Penalty>
0.00627877191635915

> <i_epik_Tot_Q>
1

> <i_epik_Tot_abs_Q>
1

$$$$
