3fvg_ligand
                    3D
 Schrodinger Suite 2020-3.
 34 35  0  0  1  0            999 V2000
   -3.5700   16.3350   18.5940 O   0  0  0  0  0  0
   -4.0510   15.2950   18.0960 C   0  0  0  0  0  0
   -3.3750   14.4550   17.4540 O   0  5  0  0  0  0
   -5.5160   15.0580   18.2710 C   0  0  1  0  0  0
   -5.8850   13.7700   17.6760 N   0  3  0  0  0  0
   -5.8450   15.1520   19.7660 C   0  0  0  0  0  0
   -7.3390   15.3630   20.0200 C   0  0  1  0  0  0
   -7.6640   15.3370   21.5210 C   0  0  0  0  0  0
   -7.7960   16.6740   19.4120 C   0  0  0  0  0  0
   -7.0560   17.6760   19.5190 O   0  5  0  0  0  0
   -8.8990   16.6870   18.8260 O   0  0  0  0  0  0
   -8.0860   14.2750   19.4980 O   0  0  0  0  0  0
   -8.1160   13.2510   20.4910 C   0  0  1  0  0  0
   -8.3840   14.0250   21.7770 C   0  0  2  0  0  0
   -9.1100   12.1450   20.1290 C   0  0  0  0  0  0
  -10.5400   12.5740   20.4150 C   0  0  0  0  0  0
  -10.6390   13.1670   21.8200 C   0  0  0  0  0  0
   -9.7840   14.3090   21.9660 O   0  0  0  0  0  0
   -6.1082   15.7969   17.7112 H   0  0  0  0  0  0
   -5.6227   13.7710   16.6077 H   0  0  0  0  0  0
   -6.9678   13.6114   17.7875 H   0  0  0  0  0  0
   -5.3414   12.9612   18.1863 H   0  0  0  0  0  0
   -5.5426   14.2207   20.2672 H   0  0  0  0  0  0
   -5.3014   15.9997   20.2085 H   0  0  0  0  0  0
   -6.7301   15.3948   22.0994 H   0  0  0  0  0  0
   -8.3047   16.1951   21.7724 H   0  0  0  0  0  0
   -7.1581   12.7129   20.5447 H   0  0  0  0  0  0
   -8.1070   13.4723   22.6868 H   0  0  0  0  0  0
   -9.0224   11.9094   19.0581 H   0  0  0  0  0  0
   -8.8890   11.2450   20.7216 H   0  0  0  0  0  0
  -10.8492   13.3322   19.6804 H   0  0  0  0  0  0
  -11.2059   11.7013   20.3436 H   0  0  0  0  0  0
  -11.6757   13.4795   22.0139 H   0  0  0  0  0  0
  -10.3399   12.4096   22.5596 H   0  0  0  0  0  0
  1  2  2  0  0  0
  2  3  1  0  0  0
  2  4  1  0  0  0
  4  5  1  0  0  0
  4  6  1  0  0  0
  4 19  1  0  0  0
  5 20  1  0  0  0
  5 21  1  0  0  0
  5 22  1  0  0  0
  6  7  1  0  0  0
  6 23  1  0  0  0
  6 24  1  0  0  0
  7  8  1  0  0  0
  7  9  1  0  0  0
  7 12  1  0  0  0
  8 14  1  0  0  0
  8 25  1  0  0  0
  8 26  1  0  0  0
  9 10  1  0  0  0
  9 11  2  0  0  0
 12 13  1  0  0  0
 13 14  1  0  0  0
 13 15  1  0  0  0
 13 27  1  0  0  0
 14 18  1  0  0  0
 14 28  1  0  0  0
 15 16  1  0  0  0
 15 29  1  0  0  0
 15 30  1  0  0  0
 16 17  1  0  0  0
 16 31  1  0  0  0
 16 32  1  0  0  0
 17 18  1  0  0  0
 17 33  1  0  0  0
 17 34  1  0  0  0
M  CHG  3   3  -1   5   1  10  -1
M  END
> <s_m_source_file>
../3fvg_ligand.sdf

> <i_m_source_file_index>
1

> <s_epik_input>
Tz1DKFtPSF0pW0NAQEhdKFtOSDMrXSlbQ0gyXVtDQF0oTzEpKEMoPU8pW09IXSlbQ0gyXVtDQEhdKFtDQEhdMTIpT1tDSDJdW0NIMl1bQ0gyXTI=

> <s_epik_cmdline>
J2VwaWtfYXBwJywgJy1pbWFlJywgJ2xpZ2FuZF9wcm8ubWFlJywgJy1vbWFlJywgJ2xpZ2FuZF9wcmVwLm1hZScsICctbXMnLCAnMScsICctcGgnLCAnNycsICctcGh0JywgJzAuNScsICctbnQn

> <r_lp_tautomer_probability>
1

> <r_epik_Ionization_Penalty>
  0.0018

> <r_epik_Ionization_Penalty_Charging>
  0.0018

> <r_epik_Ionization_Penalty_Neutral>
  0.0000

> <r_epik_State_Penalty>
 -0.0000

> <r_epik_Charging_Adjusted_Penalty>
0.00175194005505595

> <i_epik_Tot_Q>
-1

> <i_epik_Tot_abs_Q>
3

$$$$
