3fvk_ligand
                    3D
 Schrodinger Suite 2020-3.
 35 36  0  0  1  0            999 V2000
   -3.6690   16.2690   18.6560 O   0  0  0  0  0  0
   -4.1570   15.2260   18.1780 C   0  0  0  0  0  0
   -3.4860   14.3940   17.5220 O   0  5  0  0  0  0
   -5.6300   15.0170   18.3980 C   0  0  1  0  0  0
   -6.0110   13.7190   17.8370 N   0  3  0  0  0  0
   -5.8970   15.1290   19.9100 C   0  0  0  0  0  0
   -7.3580   15.3890   20.2800 C   0  0  1  0  0  0
   -7.5520   15.4550   21.7960 C   0  0  0  0  0  0
   -7.9170   16.6530   19.6510 C   0  0  0  0  0  0
   -9.1080   16.6300   19.2460 O   0  5  0  0  0  0
   -7.1690   17.6520   19.5570 O   0  0  0  0  0  0
   -8.1330   14.2700   19.8200 O   0  0  0  0  0  0
   -8.4680   13.4380   20.9200 C   0  0  1  0  0  0
   -8.6020   14.4040   22.0830 C   0  0  2  0  0  0
   -9.7240   12.6260   20.5910 C   0  0  0  0  0  0
  -10.9830   13.4830   20.6440 C   0  0  2  0  0  0
  -10.9550   14.5070   19.6420 O   0  0  0  0  0  0
  -11.0050   14.1530   22.0060 C   0  0  0  0  0  0
   -9.8860   15.0410   22.0920 O   0  0  0  0  0  0
   -6.2461   15.7466   17.8521 H   0  0  0  0  0  0
   -5.7943   13.7078   16.7586 H   0  0  0  0  0  0
   -7.0865   13.5520   17.9967 H   0  0  0  0  0  0
   -5.4384   12.9223   18.3344 H   0  0  0  0  0  0
   -5.6046   14.1909   20.4044 H   0  0  0  0  0  0
   -5.3095   15.9610   20.3255 H   0  0  0  0  0  0
   -6.5985   15.2332   22.2977 H   0  0  0  0  0  0
   -7.8893   16.4630   22.0790 H   0  0  0  0  0  0
   -7.6776   12.6993   21.1193 H   0  0  0  0  0  0
   -8.5339   13.9122   23.0646 H   0  0  0  0  0  0
   -9.6346   12.2066   19.5780 H   0  0  0  0  0  0
   -9.8327   11.8079   21.3183 H   0  0  0  0  0  0
  -11.8821   12.8881   20.4258 H   0  0  0  0  0  0
  -10.9358   14.2337   18.5767 H   0  0  0  0  0  0
  -11.9422   14.7170   22.1221 H   0  0  0  0  0  0
  -10.9383   13.3870   22.7926 H   0  0  0  0  0  0
  1  2  2  0  0  0
  2  3  1  0  0  0
  2  4  1  0  0  0
  4  5  1  0  0  0
  4  6  1  0  0  0
  4 20  1  0  0  0
  5 21  1  0  0  0
  5 22  1  0  0  0
  5 23  1  0  0  0
  6  7  1  0  0  0
  6 24  1  0  0  0
  6 25  1  0  0  0
  7  8  1  0  0  0
  7  9  1  0  0  0
  7 12  1  0  0  0
  8 14  1  0  0  0
  8 26  1  0  0  0
  8 27  1  0  0  0
  9 10  1  0  0  0
  9 11  2  0  0  0
 12 13  1  0  0  0
 13 14  1  0  0  0
 13 15  1  0  0  0
 13 28  1  0  0  0
 14 19  1  0  0  0
 14 29  1  0  0  0
 15 16  1  0  0  0
 15 30  1  0  0  0
 15 31  1  0  0  0
 16 17  1  0  0  0
 16 18  1  0  0  0
 16 32  1  0  0  0
 17 33  1  0  0  0
 18 19  1  0  0  0
 18 34  1  0  0  0
 18 35  1  0  0  0
M  CHG  3   3  -1   5   1  10  -1
M  END
> <s_m_source_file>
../3fvk_ligand.sdf

> <i_m_source_file_index>
1

> <s_epik_input>
Tz1DKFtPSF0pW0NAQEhdKFtOSDMrXSlbQ0gyXVtDQF0oTzEpKEMoPU8pW09IXSlbQ0gyXVtDQEhdKFtDQEhdMTIpT1tDSDJdW0NASF0oW0NIMl0yKVtPSF0=

> <s_epik_cmdline>
J2VwaWtfYXBwJywgJy1pbWFlJywgJ2xpZ2FuZF9wcm8ubWFlJywgJy1vbWFlJywgJ2xpZ2FuZF9wcmVwLm1hZScsICctbXMnLCAnMScsICctcGgnLCAnNycsICctcGh0JywgJzAuNScsICctbnQn

> <r_lp_tautomer_probability>
1

> <r_epik_Ionization_Penalty>
  0.0018

> <r_epik_Ionization_Penalty_Charging>
  0.0018

> <r_epik_Ionization_Penalty_Neutral>
  0.0000

> <r_epik_State_Penalty>
 -0.0000

> <r_epik_Charging_Adjusted_Penalty>
0.00176681416021792

> <i_epik_Tot_Q>
-1

> <i_epik_Tot_abs_Q>
3

$$$$
