3fvl_ligand
                    3D
 Schrodinger Suite 2020-3.
 29 29  0  0  1  0            999 V2000
  -27.0000    0.6110   -8.8690 C   0  0  0  0  0  0
  -28.2910    0.1580   -8.6170 C   0  0  0  0  0  0
  -28.7030   -0.0690   -7.3090 C   0  0  0  0  0  0
  -27.8240    0.1550   -6.2550 C   0  0  0  0  0  0
  -26.5330    0.6060   -6.5100 C   0  0  0  0  0  0
  -26.1200    0.8370   -7.8170 C   0  0  0  0  0  0
  -24.7100    1.3740   -8.0790 C   0  0  0  0  0  0
  -23.8660    0.4410   -8.9500 C   0  0  1  0  0  0
  -24.4280    0.4130  -10.3740 C   0  0  0  0  0  0
  -24.6820   -0.7090  -10.8640 O   0  5  0  0  0  0
  -24.5940    1.5150  -10.9390 O   0  0  0  0  0  0
  -22.4370    0.9880   -8.9940 C   0  0  0  0  0  0
  -21.4980    0.0780   -9.7910 C   0  0  0  0  0  0
  -21.1710   -1.0220   -9.3500 O   0  0  0  0  0  0
  -20.9490    0.5640  -11.1350 C   0  0  0  0  0  0
  -19.6300    0.0600  -11.3630 O   0  0  0  0  0  0
  -26.6775    0.7893   -9.8948 H   0  0  0  0  0  0
  -28.9785   -0.0187   -9.4442 H   0  0  0  0  0  0
  -29.7146   -0.4224   -7.1096 H   0  0  0  0  0  0
  -28.1466   -0.0228   -5.2291 H   0  0  0  0  0  0
  -25.8439    0.7786   -5.6833 H   0  0  0  0  0  0
  -24.7768    2.3429   -8.5954 H   0  0  0  0  0  0
  -24.1835    1.5041   -7.1220 H   0  0  0  0  0  0
  -23.8821   -0.5763   -8.5317 H   0  0  0  0  0  0
  -22.4386    1.9801   -9.4692 H   0  0  0  0  0  0
  -22.0451    1.0728   -7.9697 H   0  0  0  0  0  0
  -21.6047    0.2155  -11.9465 H   0  0  0  0  0  0
  -20.9120    1.6634  -11.1401 H   0  0  0  0  0  0
  -19.0945    0.3192  -12.2882 H   0  0  0  0  0  0
  1  2  2  0  0  0
  1  6  1  0  0  0
  1 17  1  0  0  0
  2  3  1  0  0  0
  2 18  1  0  0  0
  3  4  2  0  0  0
  3 19  1  0  0  0
  4  5  1  0  0  0
  4 20  1  0  0  0
  5  6  2  0  0  0
  5 21  1  0  0  0
  6  7  1  0  0  0
  7  8  1  0  0  0
  7 22  1  0  0  0
  7 23  1  0  0  0
  8  9  1  0  0  0
  8 12  1  0  0  0
  8 24  1  0  0  0
  9 10  1  0  0  0
  9 11  2  0  0  0
 12 13  1  0  0  0
 12 25  1  0  0  0
 12 26  1  0  0  0
 13 14  2  0  0  0
 13 15  1  0  0  0
 15 16  1  0  0  0
 15 27  1  0  0  0
 15 28  1  0  0  0
 16 29  1  0  0  0
M  CHG  1  10  -1
M  END
> <s_m_source_file>
../3fvl_ligand.sdf

> <i_m_source_file_index>
1

> <s_epik_input>
W2NIXTFbY0hdW2NIXVtjSF1bY0hdYzFbQ0gyXVtDQEBIXShDKD1PKVtPSF0pW0NIMl1DKD1PKVtDSDJdW09IXQ==

> <s_epik_cmdline>
J2VwaWtfYXBwJywgJy1pbWFlJywgJ2xpZ2FuZF9wcm8ubWFlJywgJy1vbWFlJywgJ2xpZ2FuZF9wcmVwLm1hZScsICctbXMnLCAnMScsICctcGgnLCAnNycsICctcGh0JywgJzAuNScsICctbnQn

> <r_lp_tautomer_probability>
1

> <r_epik_Ionization_Penalty>
  0.0013

> <r_epik_Ionization_Penalty_Charging>
  0.0013

> <r_epik_Ionization_Penalty_Neutral>
  0.0000

> <r_epik_State_Penalty>
 -0.0000

> <r_epik_Charging_Adjusted_Penalty>
0.00130286774018414

> <i_epik_Tot_Q>
-1

> <i_epik_Tot_abs_Q>
1

$$$$
