3fvn_ligand
                    3D
 Schrodinger Suite 2020-3.
 35 36  0  0  1  0            999 V2000
   -7.0560   17.7670   19.4970 O   0  5  0  0  0  0
   -7.7730   16.7380   19.4510 C   0  0  0  0  0  0
   -8.8810   16.6960   18.8790 O   0  0  0  0  0  0
   -7.2700   15.4580   20.1610 C   0  0  2  0  0  0
   -5.8130   15.1900   19.8510 C   0  0  0  0  0  0
   -5.4930   15.1160   18.3530 C   0  0  2  0  0  0
   -5.8840   13.7970   17.7580 N   0  3  0  0  0  0
   -4.0270   15.3480   18.1550 C   0  0  0  0  0  0
   -3.5180   16.3880   18.6220 O   0  0  0  0  0  0
   -3.3600   14.4930   17.4890 O   0  5  0  0  0  0
   -8.0700   14.3160   19.7840 O   0  0  0  0  0  0
   -8.7900   13.8130   20.8890 C   0  0  2  0  0  0
  -10.2510   13.5930   20.4770 C   0  0  2  0  0  0
  -10.7390   14.5670   19.5530 O   0  0  0  0  0  0
  -11.1930   13.7490   21.6840 C   0  0  0  0  0  0
  -11.0600   15.1750   22.3040 C   0  0  0  0  0  0
   -9.8210   15.7880   21.8970 O   0  0  0  0  0  0
   -8.6820   14.8890   21.9620 C   0  0  2  0  0  0
   -7.4360   15.6590   21.6690 C   0  0  0  0  0  0
   -5.1941   15.9949   20.2741 H   0  0  0  0  0  0
   -5.5151   14.2277   20.2928 H   0  0  0  0  0  0
   -6.0670   15.8862   17.8170 H   0  0  0  0  0  0
   -6.9614   13.6327   17.9067 H   0  0  0  0  0  0
   -5.3189   12.9912   18.2493 H   0  0  0  0  0  0
   -5.6586   13.7992   16.6814 H   0  0  0  0  0  0
   -8.3447   12.8569   21.2014 H   0  0  0  0  0  0
  -10.2735   12.6152   19.9736 H   0  0  0  0  0  0
  -10.2513   14.6899   18.5747 H   0  0  0  0  0  0
  -12.2330   13.5972   21.3594 H   0  0  0  0  0  0
  -10.9351   13.0022   22.4494 H   0  0  0  0  0  0
  -11.8976   15.8020   21.9645 H   0  0  0  0  0  0
  -11.0788   15.1010   23.4013 H   0  0  0  0  0  0
   -8.6813   14.4679   22.9782 H   0  0  0  0  0  0
   -6.5543   15.2595   22.1914 H   0  0  0  0  0  0
   -7.5361   16.7325   21.8870 H   0  0  0  0  0  0
  1  2  1  0  0  0
  2  3  2  0  0  0
  2  4  1  0  0  0
  4  5  1  0  0  0
  4 11  1  0  0  0
  4 19  1  0  0  0
  5  6  1  0  0  0
  5 20  1  0  0  0
  5 21  1  0  0  0
  6  7  1  0  0  0
  6  8  1  0  0  0
  6 22  1  0  0  0
  7 23  1  0  0  0
  7 24  1  0  0  0
  7 25  1  0  0  0
  8  9  2  0  0  0
  8 10  1  0  0  0
 11 12  1  0  0  0
 12 13  1  0  0  0
 12 18  1  0  0  0
 12 26  1  0  0  0
 13 14  1  0  0  0
 13 15  1  0  0  0
 13 27  1  0  0  0
 14 28  1  0  0  0
 15 16  1  0  0  0
 15 29  1  0  0  0
 15 30  1  0  0  0
 16 17  1  0  0  0
 16 31  1  0  0  0
 16 32  1  0  0  0
 17 18  1  0  0  0
 18 19  1  0  0  0
 18 33  1  0  0  0
 19 34  1  0  0  0
 19 35  1  0  0  0
M  CHG  3   1  -1   7   1  10  -1
M  END
> <s_m_source_file>
../3fvn_ligand.sdf

> <i_m_source_file_index>
1

> <s_epik_input>
Tz1DKFtPSF0pW0NAQEhdKFtOSDMrXSlbQ0gyXVtDQF0oTzEpKEMoPU8pW09IXSlbQ0gyXVtDQEhdKFtDQEhdMTIpT1tDSDJdW0NIMl1bQ0BIXTJbT0hd

> <s_epik_cmdline>
J2VwaWtfYXBwJywgJy1pbWFlJywgJ2xpZ2FuZF9wcm8ubWFlJywgJy1vbWFlJywgJ2xpZ2FuZF9wcmVwLm1hZScsICctbXMnLCAnMScsICctcGgnLCAnNycsICctcGh0JywgJzAuNScsICctbnQn

> <r_lp_tautomer_probability>
1

> <r_epik_Ionization_Penalty>
  0.0018

> <r_epik_Ionization_Penalty_Charging>
  0.0018

> <r_epik_Ionization_Penalty_Neutral>
  0.0000

> <r_epik_State_Penalty>
 -0.0000

> <r_epik_Charging_Adjusted_Penalty>
0.00183918323370393

> <i_epik_Tot_Q>
-1

> <i_epik_Tot_abs_Q>
3

$$$$
