3fw3_ligand
                    3D
 Schrodinger Suite 2020-3.
 36 37  0  0  1  0            999 V2000
    3.5390    7.3870   21.0440 S   0  0  0  0  0  0
    3.3660    7.0790   19.3060 C   0  0  0  0  0  0
    2.1230    7.5230   18.9740 C   0  0  0  0  0  0
    1.3540    8.0980   20.0050 C   0  0  0  0  0  0
   -0.0230    8.7530   19.8020 C   0  0  2  0  0  0
   -0.3310    9.7780   20.8950 C   0  0  0  0  0  0
   -0.2740    9.2020   22.3320 C   0  0  1  0  0  0
    1.4540    8.8690   22.7280 S   0  0  0  0  0  0
    1.9710    8.1570   21.2190 C   0  0  0  0  0  0
    4.7520    6.4260   18.5050 S   0  0  0  0  0  0
    5.4310    5.6620   19.5070 O   0  0  0  0  0  0
    5.3820    7.5460   17.8690 O   0  0  0  0  0  0
    4.1370    5.4950   17.2910 N   0  0  0  0  0  0
   -1.0620    7.7060   19.8070 N   0  3  0  0  0  0
   -0.7580   10.2000   23.3920 C   0  0  0  0  0  0
    2.1600   10.0790   22.7470 O   0  0  0  0  0  0
    1.6480    7.8690   23.7090 O   0  0  0  0  0  0
   -1.2840    7.1270   18.4880 C   0  0  0  0  0  0
   -2.5530    6.2770   18.5180 C   0  0  0  0  0  0
    1.7400    7.4376   17.9571 H   0  0  0  0  0  0
   -0.0455    9.2607   18.8264 H   0  0  0  0  0  0
    0.3999   10.5985   20.8446 H   0  0  0  0  0  0
   -1.3441   10.1798   20.7460 H   0  0  0  0  0  0
   -1.0343    8.4071   22.3198 H   0  0  0  0  0  0
    4.9623    5.0375   16.7258 H   0  0  0  0  0  0
    3.5345    6.1221   16.6173 H   0  0  0  0  0  0
   -0.7608    6.8938   20.4849 H   0  0  0  0  0  0
   -2.0144    8.1361   20.1506 H   0  0  0  0  0  0
   -1.8137   10.4477   23.2074 H   0  0  0  0  0  0
   -0.1514   11.1160   23.3372 H   0  0  0  0  0  0
   -0.6559    9.7518   24.3913 H   0  0  0  0  0  0
   -1.3976    7.9330   17.7482 H   0  0  0  0  0  0
   -0.4247    6.4970   18.2147 H   0  0  0  0  0  0
   -2.7239    5.8382   17.5239 H   0  0  0  0  0  0
   -3.4108    6.9085   18.7925 H   0  0  0  0  0  0
   -2.4379    5.4724   19.2592 H   0  0  0  0  0  0
  1  2  1  0  0  0
  1  9  1  0  0  0
  2  3  2  0  0  0
  2 10  1  0  0  0
  3  4  1  0  0  0
  3 20  1  0  0  0
  4  5  1  0  0  0
  4  9  2  0  0  0
  5  6  1  0  0  0
  5 14  1  0  0  0
  5 21  1  0  0  0
  6  7  1  0  0  0
  6 22  1  0  0  0
  6 23  1  0  0  0
  7  8  1  0  0  0
  7 15  1  0  0  0
  7 24  1  0  0  0
  8  9  1  0  0  0
  8 16  2  0  0  0
  8 17  2  0  0  0
 10 11  2  0  0  0
 10 12  2  0  0  0
 10 13  1  0  0  0
 13 25  1  0  0  0
 13 26  1  0  0  0
 14 18  1  0  0  0
 14 27  1  0  0  0
 14 28  1  0  0  0
 15 29  1  0  0  0
 15 30  1  0  0  0
 15 31  1  0  0  0
 18 19  1  0  0  0
 18 32  1  0  0  0
 18 33  1  0  0  0
 19 34  1  0  0  0
 19 35  1  0  0  0
 19 36  1  0  0  0
M  CHG  1  14   1
M  END
> <s_m_source_file>
../3fw3_ligand.sdf

> <i_m_source_file_index>
1

> <s_epik_input>
Tz1TKD1PKShbTkgyXSljKFtjSF0xKXNjKGMxMilTKD1PKSg9TylbQ0BASF0oW0NIM10pW0NIMl1bQ0BASF0yW05IMitdW0NIMl1bQ0gzXQ==

> <s_epik_cmdline>
J2VwaWtfYXBwJywgJy1pbWFlJywgJ2xpZ2FuZF9wcm8ubWFlJywgJy1vbWFlJywgJ2xpZ2FuZF9wcmVwLm1hZScsICctbXMnLCAnMScsICctcGgnLCAnNycsICctcGh0JywgJzAuNScsICctbnQn

> <r_epik_Ionization_Penalty>
  0.0955

> <r_epik_Ionization_Penalty_Charging>
  0.0059

> <r_epik_Ionization_Penalty_Neutral>
  0.0895

> <r_epik_State_Penalty>
  0.0799

> <r_epik_Charging_Adjusted_Penalty>
0.0858597936713428

> <i_epik_Tot_Q>
1

> <i_epik_Tot_abs_Q>
1

$$$$
