3fw4_ligand
                    3D
 Schrodinger Suite 2020-3.
 14 14  0  0  1  0            999 V2000
   25.3410   79.6410   61.4600 C   0  0  0  0  0  0
   26.2400   78.9920   62.2990 C   0  0  0  0  0  0
   27.4220   79.6240   62.6720 C   0  0  0  0  0  0
   28.2940   78.9800   63.4990 O   0  0  0  0  0  0
   27.7060   80.9030   62.2070 C   0  0  0  0  0  0
   28.8620   81.5270   62.5700 O   0  0  0  0  0  0
   26.8080   81.5520   61.3630 C   0  0  0  0  0  0
   25.6270   80.9180   60.9870 C   0  0  0  0  0  0
   24.4117   79.1492   61.1726 H   0  0  0  0  0  0
   26.0189   77.9891   62.6641 H   0  0  0  0  0  0
   28.0619   77.9681   63.8626 H   0  0  0  0  0  0
   29.5751   81.0196   63.2363 H   0  0  0  0  0  0
   27.0296   82.5547   60.9975 H   0  0  0  0  0  0
   24.9260   81.4222   60.3218 H   0  0  0  0  0  0
  1  2  2  0  0  0
  1  8  1  0  0  0
  1  9  1  0  0  0
  2  3  1  0  0  0
  2 10  1  0  0  0
  3  4  1  0  0  0
  3  5  2  0  0  0
  4 11  1  0  0  0
  5  6  1  0  0  0
  5  7  1  0  0  0
  6 12  1  0  0  0
  7  8  2  0  0  0
  7 13  1  0  0  0
  8 14  1  0  0  0
M  END
> <s_m_source_file>
../3fw4_ligand.sdf

> <i_m_source_file_index>
1

> <s_epik_input>
W09IXWMxW2NIXVtjSF1bY0hdW2NIXWMxW09IXQ==

> <s_epik_cmdline>
J2VwaWtfYXBwJywgJy1pbWFlJywgJ2xpZ2FuZF9wcm8ubWFlJywgJy1vbWFlJywgJ2xpZ2FuZF9wcmVwLm1hZScsICctbXMnLCAnMScsICctcGgnLCAnNycsICctcGh0JywgJzAuNScsICctbnQn

> <r_lp_tautomer_probability>
1

> <r_epik_Ionization_Penalty>
  0.0022

> <r_epik_Ionization_Penalty_Charging>
  0.0000

> <r_epik_Ionization_Penalty_Neutral>
  0.0022

> <r_epik_State_Penalty>
 -0.0000

> <r_epik_Charging_Adjusted_Penalty>
0

> <i_epik_Tot_Q>
0

> <i_epik_Tot_abs_Q>
0

$$$$
