3fwv_ligand
                    3D
 Schrodinger Suite 2020-3.
 90 90  0  0  1  0            999 V2000
  -18.9910    2.9300    0.2240 C   0  0  0  0  0  0
  -19.0760    1.9420    0.9450 O   0  0  0  0  0  0
  -17.8840    3.0750   -0.7760 C   0  0  0  0  0  0
  -20.0210    3.7590    0.1460 N   0  0  0  0  0  0
  -19.9710    5.0560   -0.5390 C   0  0  2  0  0  0
  -19.1620    6.0740    0.2420 C   0  0  0  0  0  0
  -18.9870    5.9810    1.4630 O   0  0  0  0  0  0
  -21.3860    5.6160   -0.7640 C   0  0  0  0  0  0
  -22.3430    4.6730   -1.5080 C   0  0  0  0  0  0
  -24.0190    5.3480   -1.6230 S   0  0  0  0  0  0
  -23.8410    6.5320   -2.9630 C   0  0  0  0  0  0
  -18.6680    7.0380   -0.5110 N   0  0  0  0  0  0
  -18.0170    8.2080    0.0460 C   0  0  2  0  0  0
  -18.9820    8.8930    1.0040 C   0  0  0  0  0  0
  -20.1740    9.0360    0.7190 O   0  0  0  0  0  0
  -17.6100    9.1760   -1.0740 C   0  0  0  0  0  0
  -16.5370    8.6280   -1.9930 C   0  0  0  0  0  0
  -15.2280    8.3840   -1.2760 C   0  0  0  0  0  0
  -14.5890    9.3600   -0.8490 O   0  0  0  0  0  0
  -14.8330    7.2090   -1.1460 O   0  5  0  0  0  0
  -18.4550    9.3290    2.1350 N   0  0  0  0  0  0
  -19.2710   10.0350    3.1290 C   0  0  2  0  0  0
  -19.6470   11.4170    2.6770 C   0  0  0  0  0  0
  -18.8270   12.1610    2.1350 O   0  0  0  0  0  0
  -18.5470   10.1790    4.4690 C   0  0  0  0  0  0
  -18.2110    8.8850    5.1330 C   0  0  0  0  0  0
  -17.6810    9.1100    6.5370 C   0  0  0  0  0  0
  -17.9860   10.1870    7.1140 O   0  5  0  0  0  0
  -16.9640    8.2150    7.0480 O   0  0  0  0  0  0
  -20.8900   11.7560    2.9670 N   0  0  0  0  0  0
  -21.3820   13.1190    2.8190 C   0  0  2  0  0  0
  -21.6230   13.7260    4.1990 C   0  0  0  0  0  0
  -21.9670   13.0360    5.1550 O   0  0  0  0  0  0
  -22.6610   13.1970    1.9680 C   0  0  0  0  0  0
  -22.3450   12.8300    0.5110 C   0  0  0  0  0  0
  -23.7710   12.3130    2.5580 C   0  0  0  0  0  0
  -21.4070   15.0310    4.2840 N   0  0  0  0  0  0
  -21.4550   15.7350    5.5590 C   0  0  2  0  0  0
  -22.5830   16.7600    5.5820 C   0  0  0  0  0  0
  -22.7720   17.4420    6.5950 O   0  0  0  0  0  0
  -20.0900   16.3880    5.8210 C   0  0  0  0  0  0
  -18.9340   15.4200    5.6890 C   0  0  0  0  0  0
  -18.6010   14.5640    6.7270 C   0  0  0  0  0  0
  -18.2040   15.3470    4.5160 C   0  0  0  0  0  0
  -17.5530   13.6670    6.5940 C   0  0  0  0  0  0
  -17.1570   14.4560    4.3840 C   0  0  0  0  0  0
  -16.8360   13.6170    5.4190 C   0  0  0  0  0  0
  -23.3250   16.9010    4.5950 O   0  5  0  0  0  0
  -17.1099    2.3189   -0.5782 H   0  0  0  0  0  0
  -17.4446    4.0800   -0.6934 H   0  0  0  0  0  0
  -18.2851    2.9324   -1.7903 H   0  0  0  0  0  0
  -20.9513    3.4288    0.6313 H   0  0  0  0  0  0
  -19.4669    4.8401   -1.4926 H   0  0  0  0  0  0
  -21.8517    5.8370    0.2078 H   0  0  0  0  0  0
  -21.3247    6.5388   -1.3595 H   0  0  0  0  0  0
  -21.9719    4.5055   -2.5299 H   0  0  0  0  0  0
  -22.3982    3.7119   -0.9758 H   0  0  0  0  0  0
  -24.8059    7.0279   -3.1447 H   0  0  0  0  0  0
  -23.5206    6.0077   -3.8754 H   0  0  0  0  0  0
  -23.0875    7.2852   -2.6891 H   0  0  0  0  0  0
  -18.7648    6.9292   -1.6013 H   0  0  0  0  0  0
  -17.1228    7.8508    0.5778 H   0  0  0  0  0  0
  -18.4874    9.4066   -1.6961 H   0  0  0  0  0  0
  -17.2196   10.1046   -0.6322 H   0  0  0  0  0  0
  -16.8728    7.6710   -2.4189 H   0  0  0  0  0  0
  -16.3489    9.3451   -2.8056 H   0  0  0  0  0  0
  -17.3856    9.1547    2.3249 H   0  0  0  0  0  0
  -20.1678    9.4032    3.2107 H   0  0  0  0  0  0
  -17.5993   10.7165    4.3178 H   0  0  0  0  0  0
  -19.1806   10.7429    5.1694 H   0  0  0  0  0  0
  -19.1136    8.2594    5.1948 H   0  0  0  0  0  0
  -17.4413    8.3612    4.5472 H   0  0  0  0  0  0
  -21.5620   10.9653    3.3321 H   0  0  0  0  0  0
  -20.5773   13.6497    2.2891 H   0  0  0  0  0  0
  -23.0381   14.2303    1.9804 H   0  0  0  0  0  0
  -21.5478   13.4865    0.1322 H   0  0  0  0  0  0
  -23.2483   12.9580   -0.1035 H   0  0  0  0  0  0
  -22.0125   11.7827    0.4606 H   0  0  0  0  0  0
  -23.9626   12.6112    3.5993 H   0  0  0  0  0  0
  -23.4545   11.2599    2.5305 H   0  0  0  0  0  0
  -24.6903   12.4352    1.9665 H   0  0  0  0  0  0
  -21.1869   15.5835    3.3586 H   0  0  0  0  0  0
  -21.6761   14.9793    6.3271 H   0  0  0  0  0  0
  -19.9279   17.2013    5.0983 H   0  0  0  0  0  0
  -20.0685   16.7955    6.8425 H   0  0  0  0  0  0
  -19.1688   14.5966    7.6568 H   0  0  0  0  0  0
  -18.4591   16.0026    3.6834 H   0  0  0  0  0  0
  -17.2964   13.0017    7.4184 H   0  0  0  0  0  0
  -16.5858   14.4201    3.4563 H   0  0  0  0  0  0
  -16.0132   12.9101    5.3123 H   0  0  0  0  0  0
  1  2  2  0  0  0
  1  3  1  0  0  0
  1  4  1  0  0  0
  3 49  1  0  0  0
  3 50  1  0  0  0
  3 51  1  0  0  0
  4  5  1  0  0  0
  4 52  1  0  0  0
  5  6  1  0  0  0
  5  8  1  0  0  0
  5 53  1  0  0  0
  6  7  2  0  0  0
  6 12  1  0  0  0
  8  9  1  0  0  0
  8 54  1  0  0  0
  8 55  1  0  0  0
  9 10  1  0  0  0
  9 56  1  0  0  0
  9 57  1  0  0  0
 10 11  1  0  0  0
 11 58  1  0  0  0
 11 59  1  0  0  0
 11 60  1  0  0  0
 12 13  1  0  0  0
 12 61  1  0  0  0
 13 14  1  0  0  0
 13 16  1  0  0  0
 13 62  1  0  0  0
 14 15  2  0  0  0
 14 21  1  0  0  0
 16 17  1  0  0  0
 16 63  1  0  0  0
 16 64  1  0  0  0
 17 18  1  0  0  0
 17 65  1  0  0  0
 17 66  1  0  0  0
 18 19  2  0  0  0
 18 20  1  0  0  0
 21 22  1  0  0  0
 21 67  1  0  0  0
 22 23  1  0  0  0
 22 25  1  0  0  0
 22 68  1  0  0  0
 23 24  2  0  0  0
 23 30  1  0  0  0
 25 26  1  0  0  0
 25 69  1  0  0  0
 25 70  1  0  0  0
 26 27  1  0  0  0
 26 71  1  0  0  0
 26 72  1  0  0  0
 27 28  1  0  0  0
 27 29  2  0  0  0
 30 31  1  0  0  0
 30 73  1  0  0  0
 31 32  1  0  0  0
 31 34  1  0  0  0
 31 74  1  0  0  0
 32 33  2  0  0  0
 32 37  1  0  0  0
 34 35  1  0  0  0
 34 36  1  0  0  0
 34 75  1  0  0  0
 35 76  1  0  0  0
 35 77  1  0  0  0
 35 78  1  0  0  0
 36 79  1  0  0  0
 36 80  1  0  0  0
 36 81  1  0  0  0
 37 38  1  0  0  0
 37 82  1  0  0  0
 38 39  1  0  0  0
 38 41  1  0  0  0
 38 83  1  0  0  0
 39 40  2  0  0  0
 39 48  1  0  0  0
 41 42  1  0  0  0
 41 84  1  0  0  0
 41 85  1  0  0  0
 42 43  2  0  0  0
 42 44  1  0  0  0
 43 45  1  0  0  0
 43 86  1  0  0  0
 44 46  2  0  0  0
 44 87  1  0  0  0
 45 47  2  0  0  0
 45 88  1  0  0  0
 46 47  1  0  0  0
 46 89  1  0  0  0
 47 90  1  0  0  0
M  CHG  3  20  -1  28  -1  48  -1
M  END
> <s_m_source_file>
../3fwv_ligand.sdf

> <i_m_source_file_index>
1

> <s_epik_input>
W0NIM11TW0NIMl1bQ0gyXVtDQEhdKFtOSF1DKD1PKVtDSDNdKUMoPU8pW05IXVtDQEBIXShbQ0gyXVtDSDJdQyg9TylbT0hdKUMoPU8pW05IXVtDQEBIXShbQ0gyXVtDSDJdQyg9TylbT0hdKUMoPU8pW05IXVtDQEBIXShbQ0hdKFtDSDNdKVtDSDNdKUMoPU8pW05IXVtDQEhdKEMoPU8pW09IXSlbQ0gyXWMxW2NIXVtjSF1bY0hdW2NIXVtjSF0x

> <s_epik_cmdline>
J2VwaWtfYXBwJywgJy1pbWFlJywgJ2xpZ2FuZF9wcm8ubWFlJywgJy1vbWFlJywgJ2xpZ2FuZF9wcmVwLm1hZScsICctbXMnLCAnMScsICctcGgnLCAnNycsICctcGh0JywgJzAuNScsICctbnQn

> <r_lp_tautomer_probability>
1

> <r_epik_Ionization_Penalty>
  0.0037

> <r_epik_Ionization_Penalty_Charging>
  0.0037

> <r_epik_Ionization_Penalty_Neutral>
  0.0000

> <r_epik_State_Penalty>
 -0.0000

> <r_epik_Charging_Adjusted_Penalty>
0.00368711567598597

> <i_epik_Tot_Q>
-3

> <i_epik_Tot_abs_Q>
3

$$$$
