3fxv_ligand
                    3D
 Schrodinger Suite 2020-3.
 62 66  0  0  1  0            999 V2000
  -13.8000   57.1460   -1.9320 C   0  0  0  0  0  0
  -12.0690   57.2600   -3.9210 C   0  0  0  0  0  0
  -12.7840   56.6970   -2.7670 C   0  0  0  0  0  0
  -12.2310   55.4300   -2.5690 C   0  0  0  0  0  0
  -10.4500   54.0450   -3.6530 C   0  0  0  0  0  0
  -14.2810   54.6930    1.6650 C   0  0  0  0  0  0
  -14.3890   52.8530    0.1390 C   0  0  0  0  0  0
  -18.1310   50.7520    3.6850 C   0  0  0  0  0  0
  -17.8000   49.9020    2.6430 C   0  0  0  0  0  0
  -19.0000   51.8000    3.4160 C   0  0  0  0  0  0
  -16.3670   51.2430    5.4760 C   0  0  0  0  0  0
  -14.2580   56.3550   -0.9200 C   0  0  0  0  0  0
  -13.7170   55.0870   -0.7190 C   0  0  0  0  0  0
  -12.7010   54.6360   -1.5400 C   0  0  0  0  0  0
  -11.2650   55.2440   -3.5190 N   0  0  0  0  0  0
  -11.1730   56.3210   -4.3100 C   0  0  0  0  0  0
  -12.2520   58.5680   -4.5470 C   0  0  0  0  0  0
  -13.0770   59.3370   -4.1340 O   0  0  0  0  0  0
  -11.4730   58.9180   -5.5730 O   0  5  0  0  0  0
  -14.6610   53.8640    2.6900 C   0  0  0  0  0  0
  -14.1550   54.1970    0.3770 C   0  0  0  0  0  0
  -14.7710   52.0280    1.1650 C   0  0  0  0  0  0
  -14.9040   52.5310    2.4390 C   0  0  0  0  0  0
  -15.2740   51.6930    3.4240 O   0  0  0  0  0  0
  -18.3490   50.1140    1.4020 C   0  0  0  0  0  0
  -19.1730   51.1120    1.1990 N   0  0  0  0  0  0
  -19.5080   51.9460    2.1510 C   0  0  0  0  0  0
  -17.5400   50.5840    5.0280 C   0  0  0  0  0  0
  -16.2030   50.7980    6.7290 C   0  0  0  0  0  0
  -17.2070   49.9600    6.9600 O   0  0  0  0  0  0
  -17.9390   49.8480    6.0170 N   0  0  0  0  0  0
  -16.7270   48.5950    2.9310 Cl  0  0  0  0  0  0
  -15.1060   51.1890    7.6790 C   0  0  0  0  0  0
  -15.6650   52.1500    8.7210 C   0  0  0  0  0  0
  -14.5620   49.9520    8.3870 C   0  0  0  0  0  0
  -15.5070   52.2150    4.7210 C   0  0  0  0  0  0
  -19.4440   52.8740    4.6820 Cl  0  0  0  0  0  0
  -14.2510   52.2940   -1.2460 C   0  0  0  0  0  0
  -14.2326   58.1345   -2.0866 H   0  0  0  0  0  0
  -10.7335   53.3202   -2.8756 H   0  0  0  0  0  0
   -9.3882   54.3087   -3.5388 H   0  0  0  0  0  0
  -10.6126   53.6002   -4.6458 H   0  0  0  0  0  0
  -14.0775   55.7451    1.8643 H   0  0  0  0  0  0
  -15.0510   56.7165   -0.2653 H   0  0  0  0  0  0
  -12.2682   53.6493   -1.3752 H   0  0  0  0  0  0
  -10.4793   56.4265   -5.1441 H   0  0  0  0  0  0
  -14.7704   54.2587    3.7001 H   0  0  0  0  0  0
  -14.9694   50.9738    0.9717 H   0  0  0  0  0  0
  -18.0968   49.4458    0.5786 H   0  0  0  0  0  0
  -20.1965   52.7632    1.9361 H   0  0  0  0  0  0
  -14.3032   51.6705    7.1014 H   0  0  0  0  0  0
  -16.0599   53.0457    8.2192 H   0  0  0  0  0  0
  -14.8648   52.4423    9.4169 H   0  0  0  0  0  0
  -16.4739   51.6557    9.2791 H   0  0  0  0  0  0
  -14.1560   49.2519    7.6420 H   0  0  0  0  0  0
  -15.3734   49.4628    8.9458 H   0  0  0  0  0  0
  -13.7644   50.2493    9.0837 H   0  0  0  0  0  0
  -16.0240   53.1833    4.6495 H   0  0  0  0  0  0
  -14.5519   52.3475    5.2503 H   0  0  0  0  0  0
  -13.9392   53.0932   -1.9346 H   0  0  0  0  0  0
  -15.2176   51.8839   -1.5739 H   0  0  0  0  0  0
  -13.4950   51.4950   -1.2452 H   0  0  0  0  0  0
  1  3  2  0  0  0
  1 12  1  0  0  0
  1 39  1  0  0  0
  2  3  1  0  0  0
  2 16  2  0  0  0
  2 17  1  0  0  0
  3  4  1  0  0  0
  4 14  2  0  0  0
  4 15  1  0  0  0
  5 15  1  0  0  0
  5 40  1  0  0  0
  5 41  1  0  0  0
  5 42  1  0  0  0
  6 20  2  0  0  0
  6 21  1  0  0  0
  6 43  1  0  0  0
  7 21  2  0  0  0
  7 22  1  0  0  0
  7 38  1  0  0  0
  8  9  2  0  0  0
  8 10  1  0  0  0
  8 28  1  0  0  0
  9 25  1  0  0  0
  9 32  1  0  0  0
 10 27  2  0  0  0
 10 37  1  0  0  0
 11 28  1  0  0  0
 11 29  2  0  0  0
 11 36  1  0  0  0
 12 13  2  0  0  0
 12 44  1  0  0  0
 13 14  1  0  0  0
 13 21  1  0  0  0
 14 45  1  0  0  0
 15 16  1  0  0  0
 16 46  1  0  0  0
 17 18  2  0  0  0
 17 19  1  0  0  0
 20 23  1  0  0  0
 20 47  1  0  0  0
 22 23  2  0  0  0
 22 48  1  0  0  0
 23 24  1  0  0  0
 24 36  1  0  0  0
 25 26  2  0  0  0
 25 49  1  0  0  0
 26 27  1  0  0  0
 27 50  1  0  0  0
 28 31  2  0  0  0
 29 30  1  0  0  0
 29 33  1  0  0  0
 30 31  1  0  0  0
 33 34  1  0  0  0
 33 35  1  0  0  0
 33 51  1  0  0  0
 34 52  1  0  0  0
 34 53  1  0  0  0
 34 54  1  0  0  0
 35 55  1  0  0  0
 35 56  1  0  0  0
 35 57  1  0  0  0
 36 58  1  0  0  0
 36 59  1  0  0  0
 38 60  1  0  0  0
 38 61  1  0  0  0
 38 62  1  0  0  0
M  CHG  1  19  -1
M  END
> <s_m_source_file>
../3fxv_ligand.sdf

> <i_m_source_file_index>
1

> <s_epik_input>
Tz1DKFtPSF0pYzFbY0hdbihbQ0gzXSljKGMxMilbY0hdYyhbY0hdW2NIXTIpLWMoYzNbQ0gzXSlbY0hdW2NIXWMoW2NIXTMpT1tDSDJdYzRjKG5vYzRbQ0hdKFtDSDNdKVtDSDNdKS1jNWMoQ2wpW2NIXW5bY0hdYzVDbA==

> <s_epik_cmdline>
J2VwaWtfYXBwJywgJy1pbWFlJywgJ2xpZ2FuZF9wcm8ubWFlJywgJy1vbWFlJywgJ2xpZ2FuZF9wcmVwLm1hZScsICctbXMnLCAnMScsICctcGgnLCAnNycsICctcGh0JywgJzAuNScsICctbnQn

> <r_lp_tautomer_probability>
1

> <r_epik_Ionization_Penalty>
  0.0025

> <r_epik_Ionization_Penalty_Charging>
  0.0025

> <r_epik_Ionization_Penalty_Neutral>
  0.0000

> <r_epik_State_Penalty>
 -0.0000

> <r_epik_Charging_Adjusted_Penalty>
0.00251173862249453

> <i_epik_Tot_Q>
-1

> <i_epik_Tot_abs_Q>
1

$$$$
