3fxw_ligand
                    3D
 Schrodinger Suite 2020-3.
 36 39  0  0  1  0            999 V2000
   16.3010    0.4090   18.3860 N   0  0  0  0  0  0
   18.0590    0.6660   19.7370 O   0  0  0  0  0  0
   21.4400    8.1570   13.2430 C   0  0  0  0  0  0
   19.9430    5.1490   14.9090 C   0  0  0  0  0  0
   21.2550    9.0160   12.1350 C   0  0  0  0  0  0
   19.2170    2.6230   17.7120 C   0  0  0  0  0  0
   15.4880    0.7190   17.2060 C   0  0  0  0  0  0
   15.9560    1.7330   16.1560 C   0  0  0  0  0  0
   18.0310    1.9480   17.7340 C   0  0  0  0  0  0
   17.4480    0.9730   18.7090 C   0  0  0  0  0  0
   21.4280    4.3220   16.6060 C   0  0  0  0  0  0
   22.4380    5.1620   16.1410 C   0  0  0  0  0  0
   17.2900    2.3020   16.5110 C   0  0  3  0  0  0
   20.1800    4.3050   15.9900 C   0  0  0  0  0  0
   19.1590    3.3810   16.5460 C   0  0  0  0  0  0
   20.9740    5.9910   14.4560 C   0  0  0  0  0  0
   20.7830    6.9220   13.2890 C   0  0  0  0  0  0
   19.9360    6.5650   12.1160 C   0  0  0  0  0  0
   19.7810    7.4470   11.0350 C   0  0  0  0  0  0
   20.4450    8.6710   11.0590 C   0  0  0  0  0  0
   19.2870    5.3920   12.0980 F   0  0  0  0  0  0
   18.0410    3.1770   15.8130 N   0  0  0  0  0  0
   22.1800    5.9780   15.0910 N   0  0  0  0  0  0
   15.9654   -0.3586   19.0989 H   0  0  0  0  0  0
   22.0945    8.4568   14.0615 H   0  0  0  0  0  0
   18.9693    5.1572   14.4192 H   0  0  0  0  0  0
   21.7639    9.9798   12.1242 H   0  0  0  0  0  0
   19.9466    2.4796   18.5227 H   0  0  0  0  0  0
   15.3312   -0.1972   16.6178 H   0  0  0  0  0  0
   14.5151    1.1201   17.5261 H   0  0  0  0  0  0
   16.0355    1.2372   15.1773 H   0  0  0  0  0  0
   15.2294    2.5564   16.0919 H   0  0  0  0  0  0
   21.6172    3.6720   17.4603 H   0  0  0  0  0  0
   23.4198    5.1624   16.6145 H   0  0  0  0  0  0
   19.1496    7.1776   10.1884 H   0  0  0  0  0  0
   20.3286    9.3649   10.2265 H   0  0  0  0  0  0
  1  7  1  0  0  0
  1 10  1  0  0  0
  1 24  1  0  0  0
  2 10  2  0  0  0
  3  5  2  0  0  0
  3 17  1  0  0  0
  3 25  1  0  0  0
  4 14  2  0  0  0
  4 16  1  0  0  0
  4 26  1  0  0  0
  5 20  1  0  0  0
  5 27  1  0  0  0
  6  9  2  0  0  0
  6 15  1  0  0  0
  6 28  1  0  0  0
  7  8  1  0  0  0
  7 29  1  0  0  0
  7 30  1  0  0  0
  8 13  1  0  0  0
  8 31  1  0  0  0
  8 32  1  0  0  0
  9 10  1  0  0  0
  9 13  1  0  0  0
 11 12  2  0  0  0
 11 14  1  0  0  0
 11 33  1  0  0  0
 12 23  1  0  0  0
 12 34  1  0  0  0
 13 22  1  0  0  0
 14 15  1  0  0  0
 15 22  2  0  0  0
 16 17  1  0  0  0
 16 23  2  0  0  0
 17 18  2  0  0  0
 18 19  1  0  0  0
 18 21  1  0  0  0
 19 20  2  0  0  0
 19 35  1  0  0  0
 20 36  1  0  0  0
M  END
> <s_m_source_file>
../3fxw_ligand.sdf

> <i_m_source_file_index>
1

> <s_epik_input>
Tz1DMVtOSF1bQ0gyXVtDSDJdW0NIXShDMTIpTj1DKFtDSF09MiljM1tjSF1jKG5bY0hdW2NIXTMpLWM0W2NIXVtjSF1bY0hdW2NIXWM0Rg==

> <s_epik_cmdline>
J2VwaWtfYXBwJywgJy1pbWFlJywgJ2xpZ2FuZF9wcm8ubWFlJywgJy1vbWFlJywgJ2xpZ2FuZF9wcmVwLm1hZScsICctbXMnLCAnMScsICctcGgnLCAnNycsICctcGh0JywgJzAuNScsICctbnQn

> <r_lp_tautomer_probability>
1

> <r_epik_Ionization_Penalty>
  0.0010

> <r_epik_Ionization_Penalty_Charging>
  0.0000

> <r_epik_Ionization_Penalty_Neutral>
  0.0010

> <r_epik_State_Penalty>
 -0.0000

> <r_epik_Charging_Adjusted_Penalty>
0

> <i_epik_Tot_Q>
0

> <i_epik_Tot_abs_Q>
0

> <s_epik_Chemistry_Notes>
This compound has an imine and may undergo hydrolysis.

$$$$
