3fxz_ligand
                    3D
 Schrodinger Suite 2020-3.
 61 69  0  0  1  0            999 V2000
  -17.0160   35.3940  -16.1810 F   0  0  0  0  0  0
  -15.6820   35.2860  -16.1360 C   0  0  0  0  0  0
  -15.0430   35.2100  -17.3820 C   0  0  0  0  0  0
  -13.7110   35.1140  -17.4080 N   0  3  0  0  0  0
  -10.9530   34.9100  -17.4980 N   0  0  0  0  0  0
  -12.6970   32.8090  -18.6480 N   0  0  0  0  0  0
  -12.0240   32.0330  -17.7620 C   0  0  0  0  0  0
  -12.3400   30.6760  -17.5760 C   0  0  0  0  0  0
  -13.3890   30.1500  -18.3100 C   0  0  0  0  0  0
  -14.1220   30.9240  -19.1990 C   0  0  0  0  0  0
  -13.7440   32.2600  -19.3320 C   0  0  0  0  0  0
  -14.4210   33.1830  -20.2260 C   0  0  0  0  0  0
  -12.2770   36.6640  -19.3780 C   0  0  0  0  0  0
  -12.2040   37.7900  -19.7060 O   0  0  0  0  0  0
  -13.9640   34.3980  -20.2620 N   0  0  0  0  0  0
  -14.5870   35.3320  -21.1920 C   0  0  0  0  0  0
  -15.8410   35.8340  -20.9340 C   0  0  0  0  0  0
  -16.4190   36.7400  -21.8100 C   0  0  0  0  0  0
  -15.7300   37.1340  -22.9500 C   0  0  0  0  0  0
  -14.4660   36.6450  -23.2260 C   0  0  0  0  0  0
  -13.8910   35.7310  -22.3300 C   0  0  0  0  0  0
  -10.8740   34.2590  -20.7720 Cl  0  0  0  0  0  0
  -15.0480   35.2380  -14.9310 C   0  0  0  0  0  0
  -13.6300   35.1280  -14.9410 C   0  0  0  0  0  0
  -13.0150   35.0590  -16.2180 C   0  0  0  0  0  0
  -12.7330   35.0550  -13.8300 C   0  0  0  0  0  0
  -13.0410   35.0760  -12.4040 C   0  0  0  0  0  0
  -11.8420   34.9720  -11.7310 N   0  0  0  0  0  0
  -14.1500   35.1460  -11.9100 O   0  5  0  0  0  0
  -11.3520   34.9420  -13.9640 C   0  0  0  0  0  0
  -10.7690   34.8810  -12.5920 C   0  0  0  0  0  0
   -9.5930   34.8070  -12.2740 O   0  0  0  0  0  0
  -10.7440   34.8830  -15.2180 C   0  0  3  0  0  0
  -11.6060   34.9370  -16.3320 C   0  0  3  0  0  0
   -9.4190   34.7670  -15.7820 C   0  0  0  0  0  0
   -9.6080   34.7710  -17.1930 C   0  0  0  0  0  0
   -8.1590   34.6540  -15.2130 C   0  0  0  0  0  0
   -7.0640   34.5480  -16.0640 C   0  0  0  0  0  0
   -5.7990   34.4440  -15.5800 O   0  0  0  0  0  0
   -7.2510   34.5640  -17.4530 C   0  0  0  0  0  0
   -8.4930   34.6520  -18.0290 C   0  0  0  0  0  0
  -12.4020   34.8750  -19.0280 Ru  0  0  0  0  0  0
  -15.6194   35.2288  -18.3069 H   0  0  0  0  0  0
  -11.2113   32.4931  -17.1808 H   0  0  0  0  0  0
  -11.7603   30.0687  -16.8653 H   0  0  0  0  0  0
  -13.6468   29.0982  -18.1864 H   0  0  0  0  0  0
  -14.9659   30.5303  -19.7845 H   0  0  0  0  0  0
  -14.3562   32.8079  -21.2580 H   0  0  0  0  0  0
  -15.4777   33.2690  -19.9328 H   0  0  0  0  0  0
  -12.2421   36.3986  -18.3111 H   0  0  0  0  0  0
  -16.3806   35.5196  -20.0407 H   0  0  0  0  0  0
  -17.4112   37.1419  -21.6047 H   0  0  0  0  0  0
  -16.1933   37.8405  -23.6387 H   0  0  0  0  0  0
  -13.9286   36.9625  -24.1196 H   0  0  0  0  0  0
  -12.8957   35.3318  -22.5256 H   0  0  0  0  0  0
  -15.6058   35.2822  -13.9956 H   0  0  0  0  0  0
   -8.0308   34.6484  -14.1306 H   0  0  0  0  0  0
   -5.6251   34.4292  -14.4939 H   0  0  0  0  0  0
   -6.3761   34.5042  -18.1004 H   0  0  0  0  0  0
   -8.6082   34.6297  -19.1127 H   0  0  0  0  0  0
  -12.5066   34.5886  -16.8588 H   0  0  0  0  0  0
  1  2  1  0  0  0
  2  3  2  0  0  0
  2 23  1  0  0  0
  3  4  1  0  0  0
  3 43  1  0  0  0
  4 25  2  0  0  0
  4 42  1  0  0  0
  5 34  1  0  0  0
  5 36  1  0  0  0
  5 42  1  0  0  0
  6  7  1  0  0  0
  6 11  1  0  0  0
  6 42  1  0  0  0
  7  8  2  0  0  0
  7 44  1  0  0  0
  8  9  1  0  0  0
  8 45  1  0  0  0
  9 10  1  0  0  0
  9 46  1  0  0  0
 10 11  2  0  0  0
 10 47  1  0  0  0
 11 12  1  0  0  0
 12 15  1  0  0  0
 12 48  1  0  0  0
 12 49  1  0  0  0
 13 14  2  0  0  0
 13 42  1  0  0  0
 13 50  1  0  0  0
 15 16  1  0  0  0
 15 42  1  0  0  0
 16 17  2  0  0  0
 16 21  1  0  0  0
 17 18  1  0  0  0
 17 51  1  0  0  0
 18 19  2  0  0  0
 18 52  1  0  0  0
 19 20  1  0  0  0
 19 53  1  0  0  0
 20 21  2  0  0  0
 20 54  1  0  0  0
 21 55  1  0  0  0
 22 42  1  0  0  0
 23 24  2  0  0  0
 23 56  1  0  0  0
 24 25  1  0  0  0
 24 26  1  0  0  0
 25 34  1  0  0  0
 26 27  1  0  0  0
 26 30  2  0  0  0
 27 28  2  0  0  0
 27 29  1  0  0  0
 28 31  1  0  0  0
 30 31  1  0  0  0
 30 33  1  0  0  0
 31 32  2  0  0  0
 33 34  1  0  0  0
 33 35  1  0  0  0
 34 61  1  0  0  0
 35 36  2  0  0  0
 35 37  1  0  0  0
 36 41  1  0  0  0
 37 38  2  0  0  0
 37 57  1  0  0  0
 38 39  1  0  0  0
 38 40  1  0  0  0
 39 58  1  0  0  0
 40 41  2  0  0  0
 40 59  1  0  0  0
 41 60  1  0  0  0
M  CHG  2   4   1  29  -1
M  END
> <s_m_source_file>
../3fxz_ligand.sdf

> <i_m_source_file_index>
1

> <s_epik_input>
RkMoPVtDSF0xKVtDSF09QzJDKEMoPU8pW05IXUMzPU8pPUMzW0NIXTRjKFtjSF1jKFtPSF0pW2NIXVtjSF01KWM1TjZDND1DMk4xW1J1XTY3KENsKShbQ0hdPU8pTjhDKD1bQ0hdW0NIMl1bQ0hdPVtDSF04KVtDSDJdTjdjOVtjSF1bY0hdW2NIXVtjSF1bY0hdOQ==

> <s_epik_cmdline>
J2VwaWtfYXBwJywgJy1pbWFlJywgJ2xpZ2FuZF9wcm8ubWFlJywgJy1vbWFlJywgJ2xpZ2FuZF9wcmVwLm1hZScsICctbXMnLCAnMScsICctcGgnLCAnNycsICctcGh0JywgJzAuNScsICctbnQn

> <r_epik_Ionization_Penalty>
  0.0369

> <r_epik_Ionization_Penalty_Charging>
  0.0359

> <r_epik_Ionization_Penalty_Neutral>
  0.0010

> <r_epik_State_Penalty>
  0.0300

> <r_epik_Charging_Adjusted_Penalty>
0.0659056102541581

> <i_epik_Tot_Q>
0

> <i_epik_Tot_abs_Q>
2

> <s_epik_Chemistry_Notes>
This compound has an imine and may undergo hydrolysis.

$$$$
