3fy0_ligand
                    3D
 Schrodinger Suite 2020-3.
 40 50  0  0  1  0            999 V2000
   12.5860   13.0960   42.0650 O   0  0  0  0  0  0
   12.6600   14.2400   42.0940 C   0  0  0  0  0  0
   12.1650   16.7620   40.1080 C   0  0  0  0  0  0
   13.3860   16.0790   39.9570 C   0  0  0  0  0  0
   14.3760   16.7960   40.6300 C   0  0  0  0  0  0
   13.7770   17.9280   41.1820 C   0  0  0  0  0  0
   12.4130   17.9110   40.8630 C   0  0  0  0  0  0
   14.2800   15.9960   43.6830 N   0  0  0  0  0  0
   15.6300   15.8590   43.6300 C   0  0  0  0  0  0
   16.3650   15.8230   44.8330 C   0  0  0  0  0  0
   15.7510   15.9270   46.1010 C   0  0  0  0  0  0
   11.6370   16.2580   43.8080 N   0  0  0  0  0  0
   10.3790   16.4060   44.0730 C   0  0  0  0  0  0
   10.1790   16.4780   45.4600 C   0  0  0  0  0  0
    8.9030   16.6340   46.0140 C   0  0  0  0  0  0
    7.7840   16.7200   45.1560 C   0  0  0  0  0  0
    7.9860   16.6490   43.7600 C   0  0  0  0  0  0
    9.2740   16.4930   43.2140 C   0  0  0  0  0  0
    6.5040   16.8590   45.6190 O   0  0  0  0  0  0
   11.5070   16.3620   46.0210 C   0  0  0  0  0  0
   12.3030   16.2460   44.9020 C   0  0  0  0  0  0
   13.6780   16.1040   44.9260 C   0  0  0  0  0  0
   14.3560   16.0730   46.1610 C   0  0  0  0  0  0
   12.1510   16.3420   47.2720 C   0  0  0  0  0  0
   13.5590   16.2030   47.3330 C   0  0  3  0  0  0
   11.6840   16.4370   48.5900 C   0  0  0  0  0  0
   10.5400   16.5620   48.9650 O   0  5  0  0  0  0
   12.7350   16.3640   49.4550 N   0  0  0  0  0  0
   13.8760   16.2200   48.6990 C   0  0  0  0  0  0
   14.9720   16.1240   49.1940 O   0  0  0  0  0  0
   12.8590   16.0870   42.0660 Ru  0  0  0  0  0  0
   12.0032   14.8169   42.7617 H   0  0  0  0  0  0
   11.9121   18.8589   40.6170 H   0  0  0  0  0  0
   16.1508   15.7765   42.6646 H   0  0  0  0  0  0
   17.4589   15.7103   44.8060 H   0  0  0  0  0  0
   16.3411   15.8957   47.0288 H   0  0  0  0  0  0
    8.7743   16.6885   47.0950 H   0  0  0  0  0  0
    7.1273   16.7164   43.0920 H   0  0  0  0  0  0
    9.4111   16.4403   42.1339 H   0  0  0  0  0  0
    6.3137   16.9172   46.7009 H   0  0  0  0  0  0
  1  2  2  0  0  0
  2 31  1  0  0  0
  2 32  1  0  0  0
  3  4  2  0  0  0
  3  7  1  0  0  0
  3 31  1  0  0  0
  4  5  1  0  0  0
  4 31  1  0  0  0
  5  6  2  0  0  0
  5 31  1  0  0  0
  6  7  1  0  0  0
  6 31  1  0  0  0
  7 31  1  0  0  0
  7 33  1  0  0  0
  8  9  1  0  0  0
  8 22  1  0  0  0
  8 31  1  0  0  0
  9 10  2  0  0  0
  9 34  1  0  0  0
 10 11  1  0  0  0
 10 35  1  0  0  0
 11 23  2  0  0  0
 11 36  1  0  0  0
 12 13  1  0  0  0
 12 21  1  0  0  0
 12 31  1  0  0  0
 13 14  2  0  0  0
 13 18  1  0  0  0
 14 15  1  0  0  0
 14 20  1  0  0  0
 15 16  2  0  0  0
 15 37  1  0  0  0
 16 17  1  0  0  0
 16 19  1  0  0  0
 17 18  2  0  0  0
 17 38  1  0  0  0
 18 39  1  0  0  0
 19 40  1  0  0  0
 20 21  1  0  0  0
 20 24  2  0  0  0
 21 22  2  0  0  0
 22 23  1  0  0  0
 23 25  1  0  0  0
 24 25  1  0  0  0
 24 26  1  0  0  0
 25 29  1  0  0  0
 26 27  1  0  0  0
 26 28  2  0  0  0
 28 29  1  0  0  0
 29 30  2  0  0  0
M  CHG  1  27  -1
M  END
> <s_m_source_file>
../3fy0_ligand.sdf

> <i_m_source_file_index>
1

> <s_epik_input>
W0NIXTEyQzM9QzRDNT1DMVtSdV0yMzQ1NihbQ0hdPU8pTjdDOD1jOW42YzFjKFtjSF1jKFtPSF0pW2NIXVtjSF0xKWM5PUMxW0NIXShDKD1PKVtOSF1DMT1PKUM4PVtDSF1bQ0hdPVtDSF03

> <s_epik_cmdline>
J2VwaWtfYXBwJywgJy1pbWFlJywgJ2xpZ2FuZF9wcm8ubWFlJywgJy1vbWFlJywgJ2xpZ2FuZF9wcmVwLm1hZScsICctbXMnLCAnMScsICctcGgnLCAnNycsICctcGh0JywgJzAuNScsICctbnQn

> <r_epik_Ionization_Penalty>
  0.0396

> <r_epik_Ionization_Penalty_Charging>
  0.0001

> <r_epik_Ionization_Penalty_Neutral>
  0.0394

> <r_epik_State_Penalty>
  0.0331

> <r_epik_Charging_Adjusted_Penalty>
0.0332559727213463

> <i_epik_Tot_Q>
-1

> <i_epik_Tot_abs_Q>
1

$$$$
