3fyj_ligand
                    3D
 Schrodinger Suite 2020-3.
 45 49  0  0  1  0            999 V2000
   81.6070  262.5390  109.5160 C   0  0  0  0  0  0
   78.4150  264.7470  106.7450 C   0  0  0  0  0  0
   83.3860  263.4780  106.5460 C   0  0  0  0  0  0
   84.6910  263.2190  106.8690 C   0  0  0  0  0  0
   80.3250  262.8230  109.1210 C   0  0  0  0  0  0
   77.0950  265.0480  106.4790 C   0  0  0  0  0  0
   77.6580  262.8840  107.9140 C   0  0  0  0  0  0
   82.6580  262.7530  108.6580 C   0  0  0  0  0  0
   83.9680  262.4570  109.0650 C   0  0  0  0  0  0
   78.7330  263.6370  107.4910 C   0  0  0  0  0  0
   82.3540  263.2570  107.4110 C   0  0  0  0  0  0
   84.5660  261.9380  110.2720 C   0  0  0  0  0  0
   84.9500  262.7150  108.1190 C   0  0  0  0  0  0
   80.1020  263.3210  107.8640 C   0  0  0  0  0  0
   85.9450  261.8130  110.2130 C   0  0  0  0  0  0
   76.1040  264.2250  106.9600 C   0  0  0  0  0  0
   86.9510  261.3790  111.1340 C   0  0  0  0  0  0
   84.2870  260.8810  112.5500 C   0  0  0  0  0  0
   85.3200  259.8170  112.2420 C   0  0  1  0  0  0
   74.6780  264.5520  106.6720 C   0  0  0  0  0  0
   84.8780  258.7880  111.2320 C   0  0  0  0  0  0
   76.3620  263.1260  107.6740 N   0  0  0  0  0  0
   81.1060  263.5450  107.0120 N   0  0  0  0  0  0
   83.8150  261.6080  111.3720 N   0  0  0  0  0  0
   86.6370  260.3100  111.9370 N   0  0  0  0  0  0
   88.0320  261.9510  111.2130 O   0  0  0  0  0  0
   86.5220  262.3270  108.6950 S   0  0  0  0  0  0
   81.7926  262.1421  110.5141 H   0  0  0  0  0  0
   79.2073  265.3907  106.3628 H   0  0  0  0  0  0
   83.1621  263.8773  105.5568 H   0  0  0  0  0  0
   85.4960  263.4065  106.1584 H   0  0  0  0  0  0
   79.4902  262.6540  109.8012 H   0  0  0  0  0  0
   76.8399  265.9307  105.8926 H   0  0  0  0  0  0
   77.8867  261.9980  108.5064 H   0  0  0  0  0  0
   83.4078  260.4139  113.0179 H   0  0  0  0  0  0
   84.7184  261.6224  113.2386 H   0  0  0  0  0  0
   85.4714  259.3111  113.2069 H   0  0  0  0  0  0
   74.6265  265.4776  106.0799 H   0  0  0  0  0  0
   74.1354  264.6915  107.6187 H   0  0  0  0  0  0
   74.2202  263.7280  106.1050 H   0  0  0  0  0  0
   83.8704  258.4301  111.4901 H   0  0  0  0  0  0
   85.5807  257.9418  111.2391 H   0  0  0  0  0  0
   84.8605  259.2416  110.2300 H   0  0  0  0  0  0
   82.7687  261.9428  111.3150 H   0  0  0  0  0  0
   87.5219  259.8164  112.3652 H   0  0  0  0  0  0
  1  5  2  0  0  0
  1  8  1  0  0  0
  1 28  1  0  0  0
  2  6  2  0  0  0
  2 10  1  0  0  0
  2 29  1  0  0  0
  3  4  1  0  0  0
  3 11  2  0  0  0
  3 30  1  0  0  0
  4 13  2  0  0  0
  4 31  1  0  0  0
  5 14  1  0  0  0
  5 32  1  0  0  0
  6 16  1  0  0  0
  6 33  1  0  0  0
  7 10  2  0  0  0
  7 22  1  0  0  0
  7 34  1  0  0  0
  8  9  2  0  0  0
  8 11  1  0  0  0
  9 12  1  0  0  0
  9 13  1  0  0  0
 10 14  1  0  0  0
 11 23  1  0  0  0
 12 15  2  0  0  0
 12 24  1  0  0  0
 13 27  1  0  0  0
 14 23  2  0  0  0
 15 17  1  0  0  0
 15 27  1  0  0  0
 16 20  1  0  0  0
 16 22  2  0  0  0
 17 25  1  0  0  0
 17 26  2  0  0  0
 18 19  1  0  0  0
 18 24  1  0  0  0
 18 35  1  0  0  0
 18 36  1  0  0  0
 19 21  1  0  0  0
 19 25  1  0  0  0
 19 37  1  0  0  0
 20 38  1  0  0  0
 20 39  1  0  0  0
 20 40  1  0  0  0
 21 41  1  0  0  0
 21 42  1  0  0  0
 21 43  1  0  0  0
 24 44  1  0  0  0
 25 45  1  0  0  0
M  END
> <s_m_source_file>
../3fyj_ligand.sdf

> <i_m_source_file_index>
1

> <s_epik_input>
W2NIXTFuYyhbQ0gzXSlbY0hdW2NIXWMxLWMoW2NIXVtjSF0yKW5jM1tjSF1bY0hdYzRzYyhjNWM0YzIzKUMoPU8pW05IXVtDQEhdKFtDSDNdKVtDSDJdW05IXTU=

> <s_epik_cmdline>
J2VwaWtfYXBwJywgJy1pbWFlJywgJ2xpZ2FuZF9wcm8ubWFlJywgJy1vbWFlJywgJ2xpZ2FuZF9wcmVwLm1hZScsICctbXMnLCAnMScsICctcGgnLCAnNycsICctcGh0JywgJzAuNScsICctbnQn

> <r_lp_tautomer_probability>
1

> <r_epik_Ionization_Penalty>
  0.0016

> <r_epik_Ionization_Penalty_Charging>
  0.0000

> <r_epik_Ionization_Penalty_Neutral>
  0.0016

> <r_epik_State_Penalty>
 -0.0000

> <r_epik_Charging_Adjusted_Penalty>
0

> <i_epik_Tot_Q>
0

> <i_epik_Tot_abs_Q>
0

$$$$
