3fyk_ligand
                    3D
 Schrodinger Suite 2020-3.
 35 37  0  0  1  0            999 V2000
   83.1280  262.8670  106.1580 C   0  0  0  0  0  0
   84.4490  262.6760  106.4570 C   0  0  0  0  0  0
   82.4390  261.8550  108.2380 C   0  0  0  0  0  0
   83.7670  261.6470  108.5690 C   0  0  0  0  0  0
   84.3470  261.0510  109.7300 C   0  0  0  0  0  0
   82.1570  262.4660  107.0330 C   0  0  0  0  0  0
   84.7200  262.0690  107.6600 C   0  0  0  0  0  0
   85.7250  261.0090  109.7110 C   0  0  0  0  0  0
   86.7430  260.5340  110.6120 C   0  0  0  0  0  0
   84.1620  260.1460  112.0070 C   0  0  0  0  0  0
   85.1630  259.0210  111.8450 C   0  0  1  0  0  0
   80.0220  262.1720  107.6450 C   0  0  0  0  0  0
   84.6790  257.8940  110.9640 C   0  0  0  0  0  0
   83.5760  260.5680  110.7380 N   0  0  0  0  0  0
   86.4620  259.4550  111.4170 N   0  0  0  0  0  0
   83.5130  257.3220  111.6660 N   0  3  0  0  0  0
   87.8430  261.0670  110.6560 O   0  0  0  0  0  0
   80.8580  262.7080  106.6340 O   0  0  0  0  0  0
   86.2810  261.7220  108.2630 S   0  0  0  0  0  0
   82.8480  263.3413  105.2174 H   0  0  0  0  0  0
   85.2431  262.9880  105.7786 H   0  0  0  0  0  0
   81.6387  261.5450  108.9100 H   0  0  0  0  0  0
   83.3426  259.8161  112.6626 H   0  0  0  0  0  0
   84.6604  261.0188  112.4540 H   0  0  0  0  0  0
   85.3280  258.6377  112.8628 H   0  0  0  0  0  0
   78.9685  262.3385  107.3760 H   0  0  0  0  0  0
   80.2391  262.6691  108.6020 H   0  0  0  0  0  0
   80.2096  261.0924  107.7417 H   0  0  0  0  0  0
   84.3995  258.2935  109.9780 H   0  0  0  0  0  0
   85.4816  257.1513  110.8446 H   0  0  0  0  0  0
   82.4891  260.4979  110.5838 H   0  0  0  0  0  0
   87.3589  258.9041  111.7366 H   0  0  0  0  0  0
   83.1037  256.4877  111.0774 H   0  0  0  0  0  0
   82.7422  258.0972  111.7885 H   0  0  0  0  0  0
   83.8243  256.9550  112.6551 H   0  0  0  0  0  0
  1  2  1  0  0  0
  1  6  2  0  0  0
  1 20  1  0  0  0
  2  7  2  0  0  0
  2 21  1  0  0  0
  3  4  2  0  0  0
  3  6  1  0  0  0
  3 22  1  0  0  0
  4  5  1  0  0  0
  4  7  1  0  0  0
  5  8  2  0  0  0
  5 14  1  0  0  0
  6 18  1  0  0  0
  7 19  1  0  0  0
  8  9  1  0  0  0
  8 19  1  0  0  0
  9 15  1  0  0  0
  9 17  2  0  0  0
 10 11  1  0  0  0
 10 14  1  0  0  0
 10 23  1  0  0  0
 10 24  1  0  0  0
 11 13  1  0  0  0
 11 15  1  0  0  0
 11 25  1  0  0  0
 12 18  1  0  0  0
 12 26  1  0  0  0
 12 27  1  0  0  0
 12 28  1  0  0  0
 13 16  1  0  0  0
 13 29  1  0  0  0
 13 30  1  0  0  0
 14 31  1  0  0  0
 15 32  1  0  0  0
 16 33  1  0  0  0
 16 34  1  0  0  0
 16 35  1  0  0  0
M  CHG  1  16   1
M  END
> <s_m_source_file>
../3fyk_ligand.sdf

> <i_m_source_file_index>
1

> <s_epik_input>
W0NIM11PYyhbY0hdMSlbY0hdW2NIXWMyc2MoYzNjMTIpQyg9TylbTkhdW0NAQEhdKFtDSDJdW05IXTMpW0NIMl1bTkgzK10=

> <s_epik_cmdline>
J2VwaWtfYXBwJywgJy1pbWFlJywgJ2xpZ2FuZF9wcm8ubWFlJywgJy1vbWFlJywgJ2xpZ2FuZF9wcmVwLm1hZScsICctbXMnLCAnMScsICctcGgnLCAnNycsICctcGh0JywgJzAuNScsICctbnQn

> <r_lp_tautomer_probability>
1

> <r_epik_Ionization_Penalty>
  0.0031

> <r_epik_Ionization_Penalty_Charging>
  0.0031

> <r_epik_Ionization_Penalty_Neutral>
  0.0000

> <r_epik_State_Penalty>
 -0.0000

> <r_epik_Charging_Adjusted_Penalty>
0.00309101988613009

> <i_epik_Tot_Q>
1

> <i_epik_Tot_abs_Q>
1

$$$$
