3fyz_ligand
                    3D
 Schrodinger Suite 2020-3.
 47 48  0  0  1  0            999 V2000
  107.2930   32.8400   26.9460 C   0  0  0  0  0  0
  106.6450   31.5660   26.9960 C   0  0  0  0  0  0
  105.4440   31.4660   27.7630 C   0  0  0  0  0  0
  104.5690   30.3430   28.0180 C   0  0  0  0  0  0
  103.5770   30.7850   28.8300 C   0  0  0  0  0  0
  103.7560   32.2630   29.1510 C   0  0  0  0  0  0
  105.5670   33.8490   28.3860 C   0  0  0  0  0  0
  106.7510   33.9810   27.6380 C   0  0  0  0  0  0
  108.5780   32.9870   26.1630 C   0  0  0  0  0  0
  102.4650   29.9140   29.3460 C   0  0  0  0  0  0
  103.0200   33.5170   31.3690 C   0  0  1  0  0  0
  103.8470   34.8040   31.4270 C   0  0  0  0  0  0
  101.5870   33.6010   32.0040 C   0  0  2  0  0  0
  100.9010   34.9460   31.6090 C   0  0  0  0  0  0
  101.7240   33.4650   33.5420 C   0  0  0  0  0  0
  102.3470   34.7240   35.4430 C   0  0  0  0  0  0
  104.9940   32.5950   28.4010 N   0  0  0  0  0  0
  109.0910   34.2550   26.2010 N   0  0  0  0  0  0
  102.9480   33.0540   29.9630 N   0  0  0  0  0  0
  101.5000   33.9540   36.2150 N   0  0  0  0  0  0
  101.2230   30.3670   28.8140 O   0  0  0  0  0  0
  109.1540   32.1030   25.5500 O   0  0  0  0  0  0
  104.3400   35.3530   30.4450 O   0  0  0  0  0  0
  104.0970   35.4870   32.7330 O   0  5  0  0  0  0
   99.1780   32.4170   32.0890 O   0  0  0  0  0  0
  101.1390   30.7860   31.8280 O   0  0  0  0  0  0
  102.1640   34.6710   34.1040 O   0  0  0  0  0  0
  103.2010   35.4170   35.9560 O   0  0  0  0  0  0
  100.4990   32.2690   31.4150 S   0  0  0  0  0  0
  107.0524   30.7035   26.4685 H   0  0  0  0  0  0
  104.6852   29.3310   27.6301 H   0  0  0  0  0  0
  105.1278   34.6898   28.9229 H   0  0  0  0  0  0
  107.2572   34.9447   27.5822 H   0  0  0  0  0  0
  102.6400   28.8734   29.0352 H   0  0  0  0  0  0
  102.4359   29.9687   30.4443 H   0  0  0  0  0  0
  103.5770   32.7710   31.9548 H   0  0  0  0  0  0
  101.5239   35.7879   31.9454 H   0  0  0  0  0  0
   99.9122   35.0075   32.0870 H   0  0  0  0  0  0
  100.7834   34.9905   30.5162 H   0  0  0  0  0  0
  100.7472   33.2041   33.9755 H   0  0  0  0  0  0
  102.4522   32.6747   33.7768 H   0  0  0  0  0  0
  108.5642   35.0450   26.7564 H   0  0  0  0  0  0
  110.0301   34.4843   25.6762 H   0  0  0  0  0  0
  102.0984   33.3490   29.3296 H   0  0  0  0  0  0
  100.7312   33.3314   35.7341 H   0  0  0  0  0  0
  101.5940   33.9632   37.3109 H   0  0  0  0  0  0
  100.2893   29.8502   29.0805 H   0  0  0  0  0  0
  1  2  2  0  0  0
  1  8  1  0  0  0
  1  9  1  0  0  0
  2  3  1  0  0  0
  2 30  1  0  0  0
  3  4  2  0  0  0
  3 17  1  0  0  0
  4  5  1  0  0  0
  4 31  1  0  0  0
  5  6  2  0  0  0
  5 10  1  0  0  0
  6 17  1  0  0  0
  6 19  1  0  0  0
  7  8  2  0  0  0
  7 17  1  0  0  0
  7 32  1  0  0  0
  8 33  1  0  0  0
  9 18  1  0  0  0
  9 22  2  0  0  0
 10 21  1  0  0  0
 10 34  1  0  0  0
 10 35  1  0  0  0
 11 12  1  0  0  0
 11 13  1  0  0  0
 11 19  1  0  0  0
 11 36  1  0  0  0
 12 23  2  0  0  0
 12 24  1  0  0  0
 13 14  1  0  0  0
 13 15  1  0  0  0
 13 29  1  0  0  0
 14 37  1  0  0  0
 14 38  1  0  0  0
 14 39  1  0  0  0
 15 27  1  0  0  0
 15 40  1  0  0  0
 15 41  1  0  0  0
 16 20  1  0  0  0
 16 27  1  0  0  0
 16 28  2  0  0  0
 18 42  1  0  0  0
 18 43  1  0  0  0
 19 44  1  0  0  0
 20 45  1  0  0  0
 20 46  1  0  0  0
 21 47  1  0  0  0
 25 29  1  0  0  0
 26 29  1  0  0  0
M  CHG  1  24  -1
M  END
> <s_m_source_file>
../3fyz_ligand.sdf

> <i_m_source_file_index>
1

> <s_epik_input>
W05IMl1DKD1PKWMoW2NIXTEpW2NIXVtjSF1uKGMxMiljKGMoW2NIXTIpW0NIMl1bT0hdKVtOSF1bQ0BASF0oQyg9TylbT0hdKVtDQEBdKFtDSDNdKShbU0hdKFtPSF0pW09IXSlbQ0gyXU9DKD1PKVtOSDJd

> <s_epik_cmdline>
J2VwaWtfYXBwJywgJy1pbWFlJywgJ2xpZ2FuZF9wcm8ubWFlJywgJy1vbWFlJywgJ2xpZ2FuZF9wcmVwLm1hZScsICctbXMnLCAnMScsICctcGgnLCAnNycsICctcGh0JywgJzAuNScsICctbnQn

> <r_lp_tautomer_probability>
1

> <r_epik_Ionization_Penalty>
  0.0005

> <r_epik_Ionization_Penalty_Charging>
  0.0004

> <r_epik_Ionization_Penalty_Neutral>
  0.0000

> <r_epik_State_Penalty>
 -0.0000

> <r_epik_Charging_Adjusted_Penalty>
0.000448586166189726

> <i_epik_Tot_Q>
-1

> <i_epik_Tot_abs_Q>
1

> <s_epik_Chemistry_Notes>
This compound has an ester and may undergo hydrolysis at high or low pH.

$$$$
