3fz1_ligand
                    3D
 Schrodinger Suite 2020-3.
 35 37  0  0  1  0            999 V2000
   -0.3170   32.1980    8.3620 C   0  0  0  0  0  0
   -1.4400   32.0240    9.1380 C   0  0  0  0  0  0
    0.2550   29.8710    8.5670 C   0  0  0  0  0  0
   -0.8770   29.6740    9.3540 C   0  0  0  0  0  0
   -1.3760   28.4800    9.9670 C   0  0  0  0  0  0
    0.5100   31.1400    8.0800 C   0  0  0  0  0  0
   -1.6970   30.7630    9.6130 C   0  0  0  0  0  0
   -2.5480   28.6460   10.6870 C   0  0  0  0  0  0
   -3.4180   27.7780   11.4520 C   0  0  0  0  0  0
   -1.3190   26.0480   10.1610 C   0  0  0  0  0  0
   -1.7010   25.9580   11.6220 C   0  0  1  0  0  0
    2.0140   30.1650    6.7170 C   0  0  0  0  0  0
   -0.6630   26.3890   12.6340 C   0  0  0  0  0  0
   -0.6970   27.3120    9.8150 N   0  0  0  0  0  0
   -2.9580   26.5700   11.9090 N   0  0  0  0  0  0
   -1.3130   26.3280   13.9740 N   0  3  0  0  0  0
   -4.5780   28.0840   11.6970 O   0  0  0  0  0  0
    1.6230   31.4060    7.2860 O   0  0  0  0  0  0
   -3.0310   30.2880   10.5950 S   0  0  0  0  0  0
   -0.0820   33.1865    7.9673 H   0  0  0  0  0  0
   -2.1022   32.8589    9.3672 H   0  0  0  0  0  0
    0.9258   29.0425    8.3397 H   0  0  0  0  0  0
   -0.6053   25.2469    9.9186 H   0  0  0  0  0  0
   -2.2195   25.9373    9.5390 H   0  0  0  0  0  0
   -1.8561   24.8800   11.7761 H   0  0  0  0  0  0
    2.8948   30.3169    6.0759 H   0  0  0  0  0  0
    1.1871   29.7612    6.1144 H   0  0  0  0  0  0
    2.2629   29.4557    7.5200 H   0  0  0  0  0  0
    0.1992   25.7075   12.5878 H   0  0  0  0  0  0
   -0.3331   27.4136   12.4073 H   0  0  0  0  0  0
    0.3319   27.3305    9.4263 H   0  0  0  0  0  0
   -3.6801   26.0618   12.5649 H   0  0  0  0  0  0
   -0.5916   26.6348   14.7457 H   0  0  0  0  0  0
   -1.6473   25.2991   14.1728 H   0  0  0  0  0  0
   -2.1797   27.0052   13.9923 H   0  0  0  0  0  0
  1  2  1  0  0  0
  1  6  2  0  0  0
  1 20  1  0  0  0
  2  7  2  0  0  0
  2 21  1  0  0  0
  3  4  2  0  0  0
  3  6  1  0  0  0
  3 22  1  0  0  0
  4  5  1  0  0  0
  4  7  1  0  0  0
  5  8  2  0  0  0
  5 14  1  0  0  0
  6 18  1  0  0  0
  7 19  1  0  0  0
  8  9  1  0  0  0
  8 19  1  0  0  0
  9 15  1  0  0  0
  9 17  2  0  0  0
 10 11  1  0  0  0
 10 14  1  0  0  0
 10 23  1  0  0  0
 10 24  1  0  0  0
 11 13  1  0  0  0
 11 15  1  0  0  0
 11 25  1  0  0  0
 12 18  1  0  0  0
 12 26  1  0  0  0
 12 27  1  0  0  0
 12 28  1  0  0  0
 13 16  1  0  0  0
 13 29  1  0  0  0
 13 30  1  0  0  0
 14 31  1  0  0  0
 15 32  1  0  0  0
 16 33  1  0  0  0
 16 34  1  0  0  0
 16 35  1  0  0  0
M  CHG  1  16   1
M  END
> <s_m_source_file>
../3fz1_ligand.sdf

> <i_m_source_file_index>
1

> <s_epik_input>
W0NIM11PYyhbY0hdMSlbY0hdW2NIXWMyc2MoYzNjMTIpQyg9TylbTkhdW0NAQEhdKFtDSDJdW05IXTMpW0NIMl1bTkgzK10=

> <s_epik_cmdline>
J2VwaWtfYXBwJywgJy1pbWFlJywgJ2xpZ2FuZF9wcm8ubWFlJywgJy1vbWFlJywgJ2xpZ2FuZF9wcmVwLm1hZScsICctbXMnLCAnMScsICctcGgnLCAnNycsICctcGh0JywgJzAuNScsICctbnQn

> <r_lp_tautomer_probability>
1

> <r_epik_Ionization_Penalty>
  0.0031

> <r_epik_Ionization_Penalty_Charging>
  0.0031

> <r_epik_Ionization_Penalty_Neutral>
  0.0000

> <r_epik_State_Penalty>
 -0.0000

> <r_epik_Charging_Adjusted_Penalty>
0.00309101988613009

> <i_epik_Tot_Q>
1

> <i_epik_Tot_abs_Q>
1

$$$$
