3fzc_ligand
                    3D
 Schrodinger Suite 2020-3.
 52 53  0  0  1  0            999 V2000
  107.2370   32.5410   26.7760 C   0  0  0  0  0  0
  106.5340   31.2670   26.8470 C   0  0  0  0  0  0
  105.3520   31.1930   27.7020 C   0  0  0  0  0  0
  104.4450   30.0970   27.9920 C   0  0  0  0  0  0
  103.5070   30.5560   28.8610 C   0  0  0  0  0  0
  103.7450   32.0230   29.2030 C   0  0  0  0  0  0
  105.6100   33.5950   28.3640 C   0  0  0  0  0  0
  106.7780   33.7050   27.5330 C   0  0  0  0  0  0
  102.3850   29.7090   29.4020 C   0  0  0  0  0  0
  102.9920   33.1480   31.4970 C   0  0  1  0  0  0
  103.8150   34.4390   31.6440 C   0  0  0  0  0  0
  101.5060   33.2420   32.0470 C   0  0  2  0  0  0
  100.8010   34.5240   31.4750 C   0  0  0  0  0  0
  101.5850   33.2210   33.6110 C   0  0  0  0  0  0
  101.3280   35.3270   34.7240 C   0  0  0  0  0  0
  104.9730   32.3410   28.3950 N   0  0  0  0  0  0
  102.9710   32.8080   30.0570 N   0  0  0  0  0  0
  102.5740   35.2180   35.3470 N   0  0  0  0  0  0
  101.2090   29.9540   28.6250 O   0  0  0  0  0  0
  104.3210   35.0370   30.7010 O   0  0  0  0  0  0
  104.0400   35.0600   32.9920 O   0  5  0  0  0  0
   99.1000   32.0590   32.1190 O   0  0  0  0  0  0
  101.0970   30.4080   32.1040 O   0  0  0  0  0  0
  100.7620   34.1820   34.2390 O   0  0  0  0  0  0
  100.7770   36.4080   34.5980 O   0  0  0  0  0  0
  100.4550   31.8470   31.5370 S   0  0  0  0  0  0
  102.6860   34.7510   36.6540 C   0  0  0  0  0  0
  103.3350   34.1220   37.8920 C   0  0  0  0  0  0
  102.9690   34.8300   39.1650 N   0  3  0  0  0  0
  108.1224   32.6283   26.1463 H   0  0  0  0  0  0
  106.8777   30.4002   26.2824 H   0  0  0  0  0  0
  104.5057   29.0874   27.5856 H   0  0  0  0  0  0
  105.2366   34.4409   28.9412 H   0  0  0  0  0  0
  107.3178   34.6497   27.4676 H   0  0  0  0  0  0
  102.6624   28.6467   29.3349 H   0  0  0  0  0  0
  102.1998   29.9738   30.4535 H   0  0  0  0  0  0
  103.5097   32.3570   32.0594 H   0  0  0  0  0  0
  101.3852   35.4156   31.7464 H   0  0  0  0  0  0
   99.7891   34.6057   31.8985 H   0  0  0  0  0  0
  100.7351   34.4483   30.3796 H   0  0  0  0  0  0
  101.2722   32.2333   33.9807 H   0  0  0  0  0  0
  102.6190   33.4208   33.9286 H   0  0  0  0  0  0
  102.1903   33.2260   29.4045 H   0  0  0  0  0  0
  103.4755   35.5083   34.7875 H   0  0  0  0  0  0
  100.2730   29.4273   28.8629 H   0  0  0  0  0  0
  102.5033   35.5781   37.3558 H   0  0  0  0  0  0
  101.9454   33.9556   36.8239 H   0  0  0  0  0  0
  103.0098   33.0753   37.9846 H   0  0  0  0  0  0
  104.4297   34.1582   37.7905 H   0  0  0  0  0  0
  103.4625   34.3353   40.0146 H   0  0  0  0  0  0
  101.8783   34.7951   39.3034 H   0  0  0  0  0  0
  103.2982   35.8781   39.1093 H   0  0  0  0  0  0
  1  2  2  0  0  0
  1  8  1  0  0  0
  1 30  1  0  0  0
  2  3  1  0  0  0
  2 31  1  0  0  0
  3  4  2  0  0  0
  3 16  1  0  0  0
  4  5  1  0  0  0
  4 32  1  0  0  0
  5  6  2  0  0  0
  5  9  1  0  0  0
  6 16  1  0  0  0
  6 17  1  0  0  0
  7  8  2  0  0  0
  7 16  1  0  0  0
  7 33  1  0  0  0
  8 34  1  0  0  0
  9 19  1  0  0  0
  9 35  1  0  0  0
  9 36  1  0  0  0
 10 11  1  0  0  0
 10 12  1  0  0  0
 10 17  1  0  0  0
 10 37  1  0  0  0
 11 20  2  0  0  0
 11 21  1  0  0  0
 12 13  1  0  0  0
 12 14  1  0  0  0
 12 26  1  0  0  0
 13 38  1  0  0  0
 13 39  1  0  0  0
 13 40  1  0  0  0
 14 24  1  0  0  0
 14 41  1  0  0  0
 14 42  1  0  0  0
 15 18  1  0  0  0
 15 24  1  0  0  0
 15 25  2  0  0  0
 17 43  1  0  0  0
 18 27  1  0  0  0
 18 44  1  0  0  0
 19 45  1  0  0  0
 22 26  1  0  0  0
 23 26  1  0  0  0
 27 28  1  0  0  0
 27 46  1  0  0  0
 27 47  1  0  0  0
 28 29  1  0  0  0
 28 48  1  0  0  0
 28 49  1  0  0  0
 29 50  1  0  0  0
 29 51  1  0  0  0
 29 52  1  0  0  0
M  CHG  2  21  -1  29   1
M  END
> <s_m_source_file>
../3fzc_ligand.sdf

> <i_m_source_file_index>
1

> <s_epik_input>
W2NIXTFbY0hdW2NIXVtjSF1uKGMxMiljKGMoW2NIXTIpW0NIMl1bT0hdKVtOSF1bQ0BASF0oQyg9TylbT0hdKVtDQEBdKFtDSDNdKShbU0hdKFtPSF0pW09IXSlbQ0gyXU9DKD1PKVtOSF1bQ0gyXVtDSDJdW05IMytd

> <s_epik_cmdline>
J2VwaWtfYXBwJywgJy1pbWFlJywgJ2xpZ2FuZF9wcm8ubWFlJywgJy1vbWFlJywgJ2xpZ2FuZF9wcmVwLm1hZScsICctbXMnLCAnMScsICctcGgnLCAnNycsICctcGh0JywgJzAuNScsICctbnQn

> <r_lp_tautomer_probability>
1

> <r_epik_Ionization_Penalty>
  0.0037

> <r_epik_Ionization_Penalty_Charging>
  0.0036

> <r_epik_Ionization_Penalty_Neutral>
  0.0000

> <r_epik_State_Penalty>
 -0.0000

> <r_epik_Charging_Adjusted_Penalty>
0.00363003856770508

> <i_epik_Tot_Q>
0

> <i_epik_Tot_abs_Q>
2

> <s_epik_Chemistry_Notes>
This compound has an ester and may undergo hydrolysis at high or low pH.

$$$$
