3fzs_ligand
                    3D
 Schrodinger Suite 2020-3.
 76 80  0  0  1  0            999 V2000
   -4.8590   -2.6550   12.3500 C   0  0  0  0  0  0
   -4.2560   -2.6400   11.2790 O   0  0  0  0  0  0
   -4.8370   -3.7260   13.1670 N   0  0  0  0  0  0
   -4.0090   -4.8320   12.9830 C   0  0  0  0  0  0
   -3.8010   -5.6970   11.8940 C   0  0  0  0  0  0
   -2.8000   -6.6840   12.0070 C   0  0  0  0  0  0
   -2.0000   -6.7920   13.1630 C   0  0  0  0  0  0
   -4.5680   -5.6220   10.7390 C   0  0  0  0  0  0
   -4.3500   -6.5160    9.6960 C   0  0  0  0  0  0
   -3.3700   -7.4900    9.8050 C   0  0  0  0  0  0
   -2.5920   -7.5770   10.9550 C   0  0  0  0  0  0
   -2.1920   -5.9060   14.2090 C   0  0  0  0  0  0
   -3.1810   -4.9360   14.1020 C   0  0  0  0  0  0
   -5.6170   -1.6450   12.7710 N   0  0  0  0  0  0
   -5.8550   -0.4280   12.1570 C   0  0  0  0  0  0
   -5.4330   -0.0130   10.8910 C   0  0  0  0  0  0
   -6.0080    1.2730   10.8210 C   0  0  0  0  0  0
   -6.7360    1.6470   11.8990 N   0  0  0  0  0  0
   -6.6280    0.5170   12.7020 N   0  0  0  0  0  0
   -7.2180    0.5540   13.9110 C   0  0  0  0  0  0
   -7.2520    2.3510    8.9890 C   0  0  0  0  0  0
   -5.5120    3.6330   10.2350 C   0  0  0  0  0  0
   -4.9000    1.7610    8.6500 C   0  0  0  0  0  0
   -5.9030    2.2540    9.6800 C   0  0  0  0  0  0
   -6.5440    0.1410   15.0700 C   0  0  0  0  0  0
   -7.1250    0.2210   16.3440 C   0  0  0  0  0  0
   -8.3940    0.7720   16.4790 C   0  0  0  0  0  0
   -9.0760    1.2310   15.3600 C   0  0  0  0  0  0
   -8.4820    1.1290   14.1030 C   0  0  0  0  0  0
   -9.0500    0.8810   17.8370 C   0  0  0  0  0  0
   -1.0220   -7.7530   13.2780 O   0  0  0  0  0  0
    0.0620   -7.6170   14.2130 C   0  0  0  0  0  0
    1.1200   -8.6890   13.9360 C   0  0  0  0  0  0
    2.0730   -8.2320   12.9140 N   0  0  0  0  0  0
    1.3980   -7.9790   11.6170 C   0  0  0  0  0  0
    2.4400   -7.6260   10.5580 C   0  0  0  0  0  0
    3.3460   -8.7250   10.4290 O   0  0  0  0  0  0
    4.0920   -8.9610   11.6300 C   0  0  0  0  0  0
    3.1380   -9.2630   12.7860 C   0  0  0  0  0  0
   -5.5008   -3.7630   14.0433 H   0  0  0  0  0  0
   -5.3429   -4.8606   10.6494 H   0  0  0  0  0  0
   -4.9520   -6.4504    8.7897 H   0  0  0  0  0  0
   -3.2081   -8.1909    8.9861 H   0  0  0  0  0  0
   -1.8201   -8.3425   11.0343 H   0  0  0  0  0  0
   -1.5750   -5.9685   15.1054 H   0  0  0  0  0  0
   -3.3152   -4.2304   14.9219 H   0  0  0  0  0  0
   -6.1546   -1.7223   13.7276 H   0  0  0  0  0  0
   -4.8243   -0.5404   10.1565 H   0  0  0  0  0  0
   -8.0066    2.7062    9.7062 H   0  0  0  0  0  0
   -7.5428    1.3595    8.6116 H   0  0  0  0  0  0
   -7.1836    3.0576    8.1487 H   0  0  0  0  0  0
   -6.2591    3.9556   10.9751 H   0  0  0  0  0  0
   -5.4727    4.3618    9.4120 H   0  0  0  0  0  0
   -4.5244    3.5684   10.7151 H   0  0  0  0  0  0
   -5.2125    0.7745    8.2768 H   0  0  0  0  0  0
   -3.9067    1.6792    9.1154 H   0  0  0  0  0  0
   -4.8549    2.4725    7.8123 H   0  0  0  0  0  0
   -5.5332   -0.2561   14.9771 H   0  0  0  0  0  0
   -6.5873   -0.1449   17.2187 H   0  0  0  0  0  0
  -10.0691    1.6681   15.4637 H   0  0  0  0  0  0
   -9.0211    1.5110   13.2361 H   0  0  0  0  0  0
   -8.3751    0.4733   18.6040 H   0  0  0  0  0  0
   -9.9911    0.3114   17.8364 H   0  0  0  0  0  0
   -9.2610    1.9376   18.0585 H   0  0  0  0  0  0
    0.5157   -6.6206   14.1060 H   0  0  0  0  0  0
   -0.3200   -7.7378   15.2374 H   0  0  0  0  0  0
    1.6718   -8.9075   14.8622 H   0  0  0  0  0  0
    0.6284   -9.6053   13.5772 H   0  0  0  0  0  0
    0.8516   -8.8816   11.3058 H   0  0  0  0  0  0
    0.6918   -7.1430   11.7281 H   0  0  0  0  0  0
    1.9377   -7.4388    9.5975 H   0  0  0  0  0  0
    2.9866   -6.7232   10.8680 H   0  0  0  0  0  0
    4.7642   -9.8189   11.4815 H   0  0  0  0  0  0
    4.6859   -8.0679   11.8743 H   0  0  0  0  0  0
    3.7256   -9.3005   13.7152 H   0  0  0  0  0  0
    2.6775  -10.2452   12.6035 H   0  0  0  0  0  0
  1  2  2  0  0  0
  1  3  1  0  0  0
  1 14  1  0  0  0
  3  4  1  0  0  0
  3 40  1  0  0  0
  4  5  2  0  0  0
  4 13  1  0  0  0
  5  6  1  0  0  0
  5  8  1  0  0  0
  6  7  2  0  0  0
  6 11  1  0  0  0
  7 12  1  0  0  0
  7 31  1  0  0  0
  8  9  2  0  0  0
  8 41  1  0  0  0
  9 10  1  0  0  0
  9 42  1  0  0  0
 10 11  2  0  0  0
 10 43  1  0  0  0
 11 44  1  0  0  0
 12 13  2  0  0  0
 12 45  1  0  0  0
 13 46  1  0  0  0
 14 15  1  0  0  0
 14 47  1  0  0  0
 15 16  2  0  0  0
 15 19  1  0  0  0
 16 17  1  0  0  0
 16 48  1  0  0  0
 17 18  2  0  0  0
 17 24  1  0  0  0
 18 19  1  0  0  0
 19 20  1  0  0  0
 20 25  2  0  0  0
 20 29  1  0  0  0
 21 24  1  0  0  0
 21 49  1  0  0  0
 21 50  1  0  0  0
 21 51  1  0  0  0
 22 24  1  0  0  0
 22 52  1  0  0  0
 22 53  1  0  0  0
 22 54  1  0  0  0
 23 24  1  0  0  0
 23 55  1  0  0  0
 23 56  1  0  0  0
 23 57  1  0  0  0
 25 26  1  0  0  0
 25 58  1  0  0  0
 26 27  2  0  0  0
 26 59  1  0  0  0
 27 28  1  0  0  0
 27 30  1  0  0  0
 28 29  2  0  0  0
 28 60  1  0  0  0
 29 61  1  0  0  0
 30 62  1  0  0  0
 30 63  1  0  0  0
 30 64  1  0  0  0
 31 32  1  0  0  0
 32 33  1  0  0  0
 32 65  1  0  0  0
 32 66  1  0  0  0
 33 34  1  0  0  0
 33 67  1  0  0  0
 33 68  1  0  0  0
 34 35  1  0  0  0
 34 39  1  0  0  0
 35 36  1  0  0  0
 35 69  1  0  0  0
 35 70  1  0  0  0
 36 37  1  0  0  0
 36 71  1  0  0  0
 36 72  1  0  0  0
 37 38  1  0  0  0
 38 39  1  0  0  0
 38 73  1  0  0  0
 38 74  1  0  0  0
 39 75  1  0  0  0
 39 76  1  0  0  0
M  END
> <s_m_source_file>
../3fzs_ligand.sdf

> <i_m_source_file_index>
1

> <s_epik_input>
W2NIXTFbY0hdYyhbQ0gzXSlbY0hdW2NIXWMxLW4ybmMoQyhbQ0gzXSkoW0NIM10pW0NIM10pW2NIXWMyW05IXUMoPU8pW05IXWMzW2NIXVtjSF1jKGMoYzM0KVtjSF1bY0hdW2NIXVtjSF00KU9bQ0gyXVtDSDJdW05IK101W0NIMl1bQ0gyXU9bQ0gyXVtDSDJdNQ==

> <s_epik_cmdline>
J2VwaWtfYXBwJywgJy1pbWFlJywgJ2xpZ2FuZF9wcm8ubWFlJywgJy1vbWFlJywgJ2xpZ2FuZF9wcmVwLm1hZScsICctbXMnLCAnMScsICctcGgnLCAnNycsICctcGh0JywgJzAuNScsICctbnQn

> <r_lp_tautomer_probability>
1

> <r_epik_Ionization_Penalty>
  0.0642

> <r_epik_Ionization_Penalty_Charging>
  0.0000

> <r_epik_Ionization_Penalty_Neutral>
  0.0642

> <r_epik_State_Penalty>
  0.0558

> <r_epik_Charging_Adjusted_Penalty>
0.0558297731723035

> <i_epik_Tot_Q>
0

> <i_epik_Tot_abs_Q>
0

$$$$
