3fzy_ligand
                    3D
 Schrodinger Suite 2020-3.
 48 48  0  0  1  0            999 V2000
    6.4020   20.0970   39.0610 C   0  0  2  0  0  0
    7.5470   19.5110   39.8930 C   0  0  1  0  0  0
    7.4860   17.9670   39.8730 C   0  0  1  0  0  0
    7.5260   17.4010   38.4550 C   0  0  2  0  0  0
    6.3130   17.9660   37.7100 C   0  0  1  0  0  0
    6.4440   19.5040   37.6510 C   0  0  1  0  0  0
    6.4790   21.5160   38.9940 O   0  0  0  0  0  0
    5.6350   22.5600   39.8720 P   0  0  0  0  0  0
    6.0950   23.8190   39.2270 O   0  0  0  0  0  0
    6.1250   22.3930   41.2950 O   0  5  0  0  0  0
    4.1770   22.1750   39.5750 O   0  0  0  0  0  0
    8.7880   19.9240   39.3280 O   0  0  0  0  0  0
    9.7740   21.0360   39.9000 P   0  0  0  0  0  0
   10.2510   21.7120   38.6320 O   0  5  0  0  0  0
    8.9690   21.9300   40.8170 O   0  0  0  0  0  0
   10.8080   20.2320   40.6340 O   0  0  0  0  0  0
    8.5360   17.3900   40.6520 O   0  0  0  0  0  0
    8.2850   16.3370   41.8520 P   0  0  0  0  0  0
    9.1040   15.1880   41.3160 O   0  5  0  0  0  0
    6.8400   16.0450   41.8720 O   0  0  0  0  0  0
    8.7840   16.9420   43.1200 O   0  0  0  0  0  0
    7.4750   15.9600   38.4740 O   0  0  0  0  0  0
    8.6910   15.0120   38.0250 P   0  0  0  0  0  0
    9.7960   15.1550   39.0500 O   0  5  0  0  0  0
    7.9910   13.6560   38.0380 O   0  0  0  0  0  0
    9.1260   15.3180   36.6300 O   0  0  0  0  0  0
    6.1710   17.3460   36.4340 O   0  0  0  0  0  0
    4.7540   16.7730   35.8610 P   0  0  0  0  0  0
    4.0000   16.5330   37.1300 O   0  0  0  0  0  0
    4.1480   17.8180   34.9530 O   0  5  0  0  0  0
    5.1300   15.5110   35.1290 O   0  0  0  0  0  0
    5.3790   20.0750   36.8800 O   0  0  0  0  0  0
    5.6350   20.8210   35.5080 P   0  0  0  0  0  0
    5.5140   19.7630   34.4520 O   0  0  0  0  0  0
    4.4770   21.7770   35.5240 O   0  5  0  0  0  0
    7.0330   21.4540   35.5060 O   0  0  0  0  0  0
    5.4359   19.9136   39.5540 H   0  0  0  0  0  0
    7.5216   19.9058   40.9194 H   0  0  0  0  0  0
    6.5598   17.6443   40.3711 H   0  0  0  0  0  0
    8.4769   17.6271   37.9504 H   0  0  0  0  0  0
    5.3582   17.6856   38.1787 H   0  0  0  0  0  0
    7.3706   19.7839   37.1285 H   0  0  0  0  0  0
    3.7773   22.2796   38.5555 H   0  0  0  0  0  0
    8.1775   22.5722   40.4034 H   0  0  0  0  0  0
    9.8474   17.2036   43.2234 H   0  0  0  0  0  0
    7.5949   13.2506   38.9807 H   0  0  0  0  0  0
    5.5817   14.6711   35.6771 H   0  0  0  0  0  0
    7.9269   20.8131   35.4946 H   0  0  0  0  0  0
  1  2  1  0  0  0
  1  6  1  0  0  0
  1  7  1  0  0  0
  1 37  1  0  0  0
  2  3  1  0  0  0
  2 12  1  0  0  0
  2 38  1  0  0  0
  3  4  1  0  0  0
  3 17  1  0  0  0
  3 39  1  0  0  0
  4  5  1  0  0  0
  4 22  1  0  0  0
  4 40  1  0  0  0
  5  6  1  0  0  0
  5 27  1  0  0  0
  5 41  1  0  0  0
  6 32  1  0  0  0
  6 42  1  0  0  0
  7  8  1  0  0  0
  8  9  2  0  0  0
  8 10  1  0  0  0
  8 11  1  0  0  0
 11 43  1  0  0  0
 12 13  1  0  0  0
 13 14  1  0  0  0
 13 15  1  0  0  0
 13 16  2  0  0  0
 15 44  1  0  0  0
 17 18  1  0  0  0
 18 19  1  0  0  0
 18 20  2  0  0  0
 18 21  1  0  0  0
 21 45  1  0  0  0
 22 23  1  0  0  0
 23 24  1  0  0  0
 23 25  1  0  0  0
 23 26  2  0  0  0
 25 46  1  0  0  0
 27 28  1  0  0  0
 28 29  2  0  0  0
 28 30  1  0  0  0
 28 31  1  0  0  0
 31 47  1  0  0  0
 32 33  1  0  0  0
 33 34  2  0  0  0
 33 35  1  0  0  0
 33 36  1  0  0  0
 36 48  1  0  0  0
M  CHG  6  10  -1  14  -1  19  -1  24  -1  30  -1  35  -1
M  END
> <s_m_source_file>
../3fzy_ligand.sdf

> <i_m_source_file_index>
1

> <s_epik_input>
Tz1QKFtPSF0pKFtPSF0pT1tDQEBIXTFbQ0BIXShPUCg9TykoW09IXSlbT0hdKVtDQEhdKE9QKD1PKShbT0hdKVtPSF0pW0NAQEhdKE9QKD1PKShbT0hdKVtPSF0pW0NASF0oT1AoPU8pKFtPSF0pW09IXSlbQ0BIXTFPUCg9TykoW09IXSlbT0hd

> <s_epik_cmdline>
J2VwaWtfYXBwJywgJy1pbWFlJywgJ2xpZ2FuZF9wcm8ubWFlJywgJy1vbWFlJywgJ2xpZ2FuZF9wcmVwLm1hZScsICctbXMnLCAnMScsICctcGgnLCAnNycsICctcGh0JywgJzAuNScsICctbnQn

> <r_lp_tautomer_probability>
1

> <r_epik_Ionization_Penalty>
  2.1143

> <r_epik_Ionization_Penalty_Charging>
  0.0007

> <r_epik_Ionization_Penalty_Neutral>
  2.1136

> <r_epik_State_Penalty>
 -0.0000

> <r_epik_Charging_Adjusted_Penalty>
0.000707617278583297

> <i_epik_Tot_Q>
-6

> <i_epik_Tot_abs_Q>
6

$$$$
