3g0c_ligand
                    3D
 Schrodinger Suite 2020-3.
 49 52  0  0  1  0            999 V2000
   46.4360   16.1120   13.7630 C   0  0  0  0  0  0
   45.1930   16.6010   13.1520 N   0  0  0  0  0  0
   44.6280   17.7960   13.6080 C   0  0  0  0  0  0
   44.9600   18.6910   14.5430 N   0  0  0  0  0  0
   44.0750   19.6780   14.6130 C   0  0  0  0  0  0
   44.1620   20.7570   15.5020 N   0  0  0  0  0  0
   45.3080   20.6920   16.4430 C   0  0  0  0  0  0
   44.9420   19.8670   17.6920 C   0  0  0  0  0  0
   43.6900   20.3430   18.3200 N   0  3  0  0  0  0
   42.5380   20.4080   17.4010 C   0  0  0  0  0  0
   42.9010   21.2140   16.1500 C   0  0  0  0  0  0
   43.1070   19.4380   13.6630 N   0  0  0  0  0  0
   41.8860   20.2000   13.3730 C   0  0  0  0  0  0
   40.7600   19.5350   14.1530 C   0  0  0  0  0  0
   40.9790   18.4150   14.9640 C   0  0  0  0  0  0
   39.9480   17.8220   15.6820 C   0  0  0  0  0  0
   38.6650   18.3430   15.5860 C   0  0  0  0  0  0
   38.4270   19.4560   14.7860 C   0  0  0  0  0  0
   39.4730   20.0400   14.0810 C   0  0  0  0  0  0
   39.1690   21.4110   13.0830 Cl  0  0  0  0  0  0
   43.4390   18.2420   13.0270 C   0  0  0  0  0  0
   42.8300   17.4750   12.0040 C   0  0  0  0  0  0
   41.7870   17.8660   11.4990 O   0  0  0  0  0  0
   43.4120   16.3110   11.6010 N   0  0  0  0  0  0
   42.7810   15.5020   10.5420 C   0  0  0  0  0  0
   44.5670   15.8900   12.1710 C   0  0  0  0  0  0
   45.0520   14.8480   11.7790 O   0  0  0  0  0  0
   46.7752   16.8273   14.5267 H   0  0  0  0  0  0
   47.2097   16.0088   12.9879 H   0  0  0  0  0  0
   46.2539   15.1338   14.2319 H   0  0  0  0  0  0
   46.1661   20.2186   15.9435 H   0  0  0  0  0  0
   45.5825   21.7097   16.7574 H   0  0  0  0  0  0
   44.8060   18.8130   17.4083 H   0  0  0  0  0  0
   45.7508   19.9457   18.4334 H   0  0  0  0  0  0
   43.4103   19.6651   19.1399 H   0  0  0  0  0  0
   43.8421   21.3570   18.7183 H   0  0  0  0  0  0
   42.2503   19.3895   17.1011 H   0  0  0  0  0  0
   41.6913   20.8938   17.9081 H   0  0  0  0  0  0
   43.0045   22.2667   16.4519 H   0  0  0  0  0  0
   42.0673   21.1168   15.4391 H   0  0  0  0  0  0
   42.0205   21.2438   13.6930 H   0  0  0  0  0  0
   41.6837   20.1710   12.2921 H   0  0  0  0  0  0
   41.9836   17.9978   15.0338 H   0  0  0  0  0  0
   40.1446   16.9563   16.3144 H   0  0  0  0  0  0
   37.8455   17.8809   16.1364 H   0  0  0  0  0  0
   37.4213   19.8697   14.7121 H   0  0  0  0  0  0
   41.8596   15.9974   10.2021 H   0  0  0  0  0  0
   42.5367   14.5054   10.9384 H   0  0  0  0  0  0
   43.4760   15.3997    9.6955 H   0  0  0  0  0  0
  1  2  1  0  0  0
  1 28  1  0  0  0
  1 29  1  0  0  0
  1 30  1  0  0  0
  2  3  1  0  0  0
  2 26  1  0  0  0
  3  4  1  0  0  0
  3 21  2  0  0  0
  4  5  2  0  0  0
  5  6  1  0  0  0
  5 12  1  0  0  0
  6  7  1  0  0  0
  6 11  1  0  0  0
  7  8  1  0  0  0
  7 31  1  0  0  0
  7 32  1  0  0  0
  8  9  1  0  0  0
  8 33  1  0  0  0
  8 34  1  0  0  0
  9 10  1  0  0  0
  9 35  1  0  0  0
  9 36  1  0  0  0
 10 11  1  0  0  0
 10 37  1  0  0  0
 10 38  1  0  0  0
 11 39  1  0  0  0
 11 40  1  0  0  0
 12 13  1  0  0  0
 12 21  1  0  0  0
 13 14  1  0  0  0
 13 41  1  0  0  0
 13 42  1  0  0  0
 14 15  2  0  0  0
 14 19  1  0  0  0
 15 16  1  0  0  0
 15 43  1  0  0  0
 16 17  2  0  0  0
 16 44  1  0  0  0
 17 18  1  0  0  0
 17 45  1  0  0  0
 18 19  2  0  0  0
 18 46  1  0  0  0
 19 20  1  0  0  0
 21 22  1  0  0  0
 22 23  2  0  0  0
 22 24  1  0  0  0
 24 25  1  0  0  0
 24 26  1  0  0  0
 25 47  1  0  0  0
 25 48  1  0  0  0
 25 49  1  0  0  0
 26 27  2  0  0  0
M  CHG  1   9   1
M  END
> <s_m_source_file>
../3g0c_ligand.sdf

> <i_m_source_file_index>
1

> <s_epik_input>
W0NIMl0xW0NIMl1bTkgyK11bQ0gyXVtDSDJdTjFjKG4yKW4oYyhjMjMpYyg9TyluKFtDSDNdKWMoPU8pbjNbQ0gzXSlbQ0gyXWM0W2NIXVtjSF1bY0hdW2NIXWM0Q2w=

> <s_epik_cmdline>
J2VwaWtfYXBwJywgJy1pbWFlJywgJ2xpZ2FuZF9wcm8ubWFlJywgJy1vbWFlJywgJ2xpZ2FuZF9wcmVwLm1hZScsICctbXMnLCAnMScsICctcGgnLCAnNycsICctcGh0JywgJzAuNScsICctbnQn

> <r_lp_tautomer_probability>
1

> <r_epik_Ionization_Penalty>
  0.0086

> <r_epik_Ionization_Penalty_Charging>
  0.0086

> <r_epik_Ionization_Penalty_Neutral>
  0.0000

> <r_epik_State_Penalty>
 -0.0000

> <r_epik_Charging_Adjusted_Penalty>
0.00857162305647416

> <i_epik_Tot_Q>
1

> <i_epik_Tot_abs_Q>
1

$$$$
