3g0d_ligand
                    3D
 Schrodinger Suite 2020-3.
 53 56  0  0  1  0            999 V2000
   43.1440    0.1760   13.0240 C   0  0  0  0  0  0
   44.1360   -0.8220   13.4410 C   0  0  0  0  0  0
   44.2020    0.8640   14.7340 C   0  0  0  0  0  0
   45.4420    2.8400   15.4660 C   0  0  0  0  0  0
   44.7140    2.0420   18.2610 C   0  0  1  0  0  0
   44.6520    1.0030   17.1360 C   0  0  0  0  0  0
   42.4830    2.4980   13.8840 C   0  0  0  0  0  0
   38.9510    3.5370   13.1090 C   0  0  0  0  0  0
   38.2010    2.7180   13.9480 C   0  0  0  0  0  0
   38.8260    1.7920   14.7840 C   0  0  0  0  0  0
   40.7500    0.8000   15.6100 C   0  0  0  0  0  0
   43.5150   -2.2950   11.6930 C   0  0  0  0  0  0
   41.7520   -1.8160   10.0220 C   0  0  0  0  0  0
   42.5230   -1.4020   11.2060 N   0  0  0  0  0  0
   42.2990   -0.1530   11.8420 C   0  0  0  0  0  0
   41.4390    0.6360   11.4140 O   0  0  0  0  0  0
   44.7670   -0.3490   14.5170 N   0  0  0  0  0  0
   44.7210    1.5970   15.7920 N   0  0  0  0  0  0
   45.5420    3.7830   16.6650 C   0  0  0  0  0  0
   45.8260    3.0480   17.9720 C   0  0  0  0  0  0
   43.4260    2.7020   18.3750 N   0  3  0  0  0  0
   43.2160    1.2240   13.8780 N   0  0  0  0  0  0
   40.9760    2.4950   13.9560 C   0  0  0  0  0  0
   40.3350    3.4190   13.1250 C   0  0  0  0  0  0
   40.2220    1.6710   14.8000 C   0  0  0  0  0  0
   41.2610    0.0890   16.3760 N   0  0  0  0  0  0
   44.3250   -1.9920   12.8120 N   0  0  0  0  0  0
   45.3330   -2.9560   13.2860 C   0  0  0  0  0  0
   43.6960   -3.3840   11.1160 O   0  0  0  0  0  0
   46.4632    2.5962   15.1378 H   0  0  0  0  0  0
   44.9141    3.3693   14.6590 H   0  0  0  0  0  0
   44.8930    1.5705   19.2386 H   0  0  0  0  0  0
   45.4970    0.3056   17.2340 H   0  0  0  0  0  0
   43.7064    0.4451   17.2038 H   0  0  0  0  0  0
   42.7918    3.0945   14.7551 H   0  0  0  0  0  0
   42.7061    3.0538   12.9613 H   0  0  0  0  0  0
   38.4621    4.2567   12.4524 H   0  0  0  0  0  0
   37.1142    2.8008   13.9520 H   0  0  0  0  0  0
   38.2221    1.1561   15.4314 H   0  0  0  0  0  0
   42.0874   -2.8115    9.6957 H   0  0  0  0  0  0
   41.9101   -1.0913    9.2097 H   0  0  0  0  0  0
   40.6824   -1.8545   10.2760 H   0  0  0  0  0  0
   46.3580    4.5018   16.4991 H   0  0  0  0  0  0
   44.5932    4.3266   16.7841 H   0  0  0  0  0  0
   45.8816    3.7788   18.7923 H   0  0  0  0  0  0
   46.7864    2.5186   17.8869 H   0  0  0  0  0  0
   42.6474    1.9532   18.5827 H   0  0  0  0  0  0
   43.1946    3.2198   17.4325 H   0  0  0  0  0  0
   43.4601    3.4331   19.1962 H   0  0  0  0  0  0
   40.9332    4.0594   12.4769 H   0  0  0  0  0  0
   45.8560   -2.5398   14.1596 H   0  0  0  0  0  0
   46.0589   -3.1520   12.4831 H   0  0  0  0  0  0
   44.8367   -3.8959   13.5692 H   0  0  0  0  0  0
  1  2  2  0  0  0
  1 15  1  0  0  0
  1 22  1  0  0  0
  2 17  1  0  0  0
  2 27  1  0  0  0
  3 17  2  0  0  0
  3 18  1  0  0  0
  3 22  1  0  0  0
  4 18  1  0  0  0
  4 19  1  0  0  0
  4 30  1  0  0  0
  4 31  1  0  0  0
  5  6  1  0  0  0
  5 20  1  0  0  0
  5 21  1  0  0  0
  5 32  1  0  0  0
  6 18  1  0  0  0
  6 33  1  0  0  0
  6 34  1  0  0  0
  7 22  1  0  0  0
  7 23  1  0  0  0
  7 35  1  0  0  0
  7 36  1  0  0  0
  8  9  2  0  0  0
  8 24  1  0  0  0
  8 37  1  0  0  0
  9 10  1  0  0  0
  9 38  1  0  0  0
 10 25  2  0  0  0
 10 39  1  0  0  0
 11 25  1  0  0  0
 11 26  3  0  0  0
 12 14  1  0  0  0
 12 27  1  0  0  0
 12 29  2  0  0  0
 13 14  1  0  0  0
 13 40  1  0  0  0
 13 41  1  0  0  0
 13 42  1  0  0  0
 14 15  1  0  0  0
 15 16  2  0  0  0
 19 20  1  0  0  0
 19 43  1  0  0  0
 19 44  1  0  0  0
 20 45  1  0  0  0
 20 46  1  0  0  0
 21 47  1  0  0  0
 21 48  1  0  0  0
 21 49  1  0  0  0
 23 24  2  0  0  0
 23 25  1  0  0  0
 24 50  1  0  0  0
 27 28  1  0  0  0
 28 51  1  0  0  0
 28 52  1  0  0  0
 28 53  1  0  0  0
M  CHG  1  21   1
M  END
> <s_m_source_file>
../3g0d_ligand.sdf

> <i_m_source_file_index>
1

> <s_epik_input>
Tz1jMW4oW0NIM10pYyg9TyluKFtDSDNdKWMoYzEyKW5jKE4oW0NIMl1bQ0gyXVtDSDJdMylbQ0gyXVtDQEBIXTNbTkgzK10pbjJbQ0gyXWM0W2NIXVtjSF1bY0hdW2NIXWM0QyNO

> <s_epik_cmdline>
J2VwaWtfYXBwJywgJy1pbWFlJywgJ2xpZ2FuZF9wcm8ubWFlJywgJy1vbWFlJywgJ2xpZ2FuZF9wcmVwLm1hZScsICctbXMnLCAnMScsICctcGgnLCAnNycsICctcGh0JywgJzAuNScsICctbnQn

> <r_lp_tautomer_probability>
1

> <r_epik_Ionization_Penalty>
  0.0009

> <r_epik_Ionization_Penalty_Charging>
  0.0008

> <r_epik_Ionization_Penalty_Neutral>
  0.0001

> <r_epik_State_Penalty>
 -0.0000

> <r_epik_Charging_Adjusted_Penalty>
0.000783287182794433

> <i_epik_Tot_Q>
1

> <i_epik_Tot_abs_Q>
1

$$$$
