3g0e_ligand
                    3D
 Schrodinger Suite 2020-3.
 36 38  0  0  1  0            999 V2000
   30.4310   -1.0870  -77.3110 C   0  0  0  0  0  0
   36.7490   -8.2550  -79.3610 C   0  0  0  0  0  0
   35.3630   -8.3330  -79.0510 C   0  0  0  0  0  0
   36.7290   -5.7850  -79.0920 C   0  0  0  0  0  0
   34.1100   -1.0460  -78.0240 C   0  0  0  0  0  0
   37.4160   -6.9940  -79.3790 C   0  0  0  0  0  0
   35.3420   -5.8670  -78.7840 C   0  0  0  0  0  0
   34.2960   -4.8670  -78.4420 C   0  0  0  0  0  0
   33.0150   -5.6470  -78.2330 C   0  0  0  0  0  0
   32.8040    1.1740  -77.5610 C   0  0  0  0  0  0
   35.4800   -0.4750  -78.2400 C   0  0  0  0  0  0
   34.5760   -3.5460  -78.3710 C   0  0  0  0  0  0
   31.8840   -1.2200  -77.6050 C   0  0  0  0  0  0
   34.6920   -7.1320  -78.7700 C   0  0  0  0  0  0
   33.7640   -2.3980  -78.0890 C   0  0  0  0  0  0
   32.9100   -0.2910  -77.7180 C   0  0  0  0  0  0
   32.4170   -2.4670  -77.8280 N   0  3  0  0  0  0
   33.3450   -6.9850  -78.4480 N   0  0  0  0  0  0
   33.7330    1.7470  -76.7100 N   0  0  0  0  0  0
   31.9230   -5.2050  -77.9410 O   0  0  0  0  0  0
   31.9360    1.8230  -78.1530 O   0  0  0  0  0  0
   38.7250   -6.9540  -79.6720 F   0  0  0  0  0  0
   30.1829   -0.0259  -77.1610 H   0  0  0  0  0  0
   30.1881   -1.6528  -76.3995 H   0  0  0  0  0  0
   29.8483   -1.4840  -78.1553 H   0  0  0  0  0  0
   37.3053   -9.1649  -79.5863 H   0  0  0  0  0  0
   34.8411   -9.2897  -79.0323 H   0  0  0  0  0  0
   37.2467   -4.8259  -79.1071 H   0  0  0  0  0  0
   36.1871   -1.2898  -78.4547 H   0  0  0  0  0  0
   35.8012    0.0601  -77.3342 H   0  0  0  0  0  0
   35.4564    0.2234  -79.0895 H   0  0  0  0  0  0
   35.6015   -3.1907  -78.5503 H   0  0  0  0  0  0
   32.5738   -7.7637  -78.3538 H   0  0  0  0  0  0
   34.4833    1.1167  -76.2102 H   0  0  0  0  0  0
   33.7211    2.8327  -76.5335 H   0  0  0  0  0  0
   31.7719   -3.3569  -77.7835 H   0  0  0  0  0  0
  1 13  1  0  0  0
  1 23  1  0  0  0
  1 24  1  0  0  0
  1 25  1  0  0  0
  2  3  2  0  0  0
  2  6  1  0  0  0
  2 26  1  0  0  0
  3 14  1  0  0  0
  3 27  1  0  0  0
  4  6  2  0  0  0
  4  7  1  0  0  0
  4 28  1  0  0  0
  5 11  1  0  0  0
  5 15  2  0  0  0
  5 16  1  0  0  0
  6 22  1  0  0  0
  7  8  1  0  0  0
  7 14  2  0  0  0
  8  9  1  0  0  0
  8 12  2  0  0  0
  9 18  1  0  0  0
  9 20  2  0  0  0
 10 16  1  0  0  0
 10 19  1  0  0  0
 10 21  2  0  0  0
 11 29  1  0  0  0
 11 30  1  0  0  0
 11 31  1  0  0  0
 12 15  1  0  0  0
 12 32  1  0  0  0
 13 16  2  0  0  0
 13 17  1  0  0  0
 14 18  1  0  0  0
 15 17  1  0  0  0
 17 36  1  0  0  0
 18 33  1  0  0  0
 19 34  1  0  0  0
 19 35  1  0  0  0
M  CHG  1  17   1
M  END
> <s_m_source_file>
../3g0e_ligand.sdf

> <i_m_source_file_index>
1

> <s_epik_input>
W05IMl1DKD1PKWMxYyhbQ0gzXSlbbkhdYyhjMVtDSDNdKVxbQ0hdPUNcMkMoPU8pW05IXWMoYzIzKVtjSF1bY0hdYyhGKVtjSF0z

> <s_epik_cmdline>
J2VwaWtfYXBwJywgJy1pbWFlJywgJ2xpZ2FuZF9wcm8ubWFlJywgJy1vbWFlJywgJ2xpZ2FuZF9wcmVwLm1hZScsICctbXMnLCAnMScsICctcGgnLCAnNycsICctcGh0JywgJzAuNScsICctbnQn

> <r_lp_tautomer_probability>
1

> <r_epik_Ionization_Penalty>
  0.0001

> <r_epik_Ionization_Penalty_Charging>
  0.0000

> <r_epik_Ionization_Penalty_Neutral>
  0.0001

> <r_epik_State_Penalty>
 -0.0000

> <r_epik_Charging_Adjusted_Penalty>
0

> <i_epik_Tot_Q>
1

> <i_epik_Tot_abs_Q>
1

$$$$
