3g0f_ligand
                    3D
 Schrodinger Suite 2020-3.
 36 38  0  0  1  0            999 V2000
  -12.5570   70.4800  -38.3840 C   0  0  0  0  0  0
  -17.2200   78.9120  -37.0410 C   0  0  0  0  0  0
  -15.9490   78.6880  -37.6290 C   0  0  0  0  0  0
  -17.4610   76.4830  -36.5450 C   0  0  0  0  0  0
  -15.7520   71.3360  -36.5950 C   0  0  0  0  0  0
  -17.9580   77.8080  -36.5030 C   0  0  0  0  0  0
  -16.2070   76.2720  -37.1310 C   0  0  0  0  0  0
  -15.3940   75.0750  -37.3600 C   0  0  0  0  0  0
  -14.1310   75.5470  -38.0500 C   0  0  0  0  0  0
  -14.9040   68.8820  -36.6820 C   0  0  0  0  0  0
  -17.0050   71.1090  -35.8030 C   0  0  0  0  0  0
  -15.8450   73.8610  -36.9720 C   0  0  0  0  0  0
  -13.8060   70.9660  -37.7090 C   0  0  0  0  0  0
  -15.4740   77.3620  -37.6560 C   0  0  0  0  0  0
  -15.2880   72.5530  -37.0820 C   0  0  0  0  0  0
  -14.8080   70.3190  -36.9890 C   0  0  0  0  0  0
  -14.1260   72.3020  -37.7440 N   0  3  0  0  0  0
  -14.2720   76.9180  -38.1800 N   0  0  0  0  0  0
  -15.2650   68.5790  -35.3700 N   0  0  0  0  0  0
  -13.1940   74.8890  -38.4210 O   0  0  0  0  0  0
  -14.6630   68.0270  -37.5350 O   0  0  0  0  0  0
  -19.1470   78.0170  -35.9440 F   0  0  0  0  0  0
  -12.4682   69.3917  -38.2511 H   0  0  0  0  0  0
  -11.6824   70.9764  -37.9382 H   0  0  0  0  0  0
  -12.6049   70.7157  -39.4574 H   0  0  0  0  0  0
  -17.6336   79.9196  -36.9986 H   0  0  0  0  0  0
  -15.3633   79.5086  -38.0433 H   0  0  0  0  0  0
  -18.0364   75.6534  -36.1341 H   0  0  0  0  0  0
  -17.5237   72.0676  -35.6547 H   0  0  0  0  0  0
  -16.7473   70.6764  -34.8250 H   0  0  0  0  0  0
  -17.6631   70.4165  -36.3484 H   0  0  0  0  0  0
  -16.8183   73.7714  -36.4674 H   0  0  0  0  0  0
  -13.4762   77.5101  -38.6555 H   0  0  0  0  0  0
  -15.4678   69.3893  -34.6542 H   0  0  0  0  0  0
  -15.3471   67.5296  -35.0505 H   0  0  0  0  0  0
  -13.4672   73.0119  -38.2655 H   0  0  0  0  0  0
  1 13  1  0  0  0
  1 23  1  0  0  0
  1 24  1  0  0  0
  1 25  1  0  0  0
  2  3  2  0  0  0
  2  6  1  0  0  0
  2 26  1  0  0  0
  3 14  1  0  0  0
  3 27  1  0  0  0
  4  6  2  0  0  0
  4  7  1  0  0  0
  4 28  1  0  0  0
  5 11  1  0  0  0
  5 15  2  0  0  0
  5 16  1  0  0  0
  6 22  1  0  0  0
  7  8  1  0  0  0
  7 14  2  0  0  0
  8  9  1  0  0  0
  8 12  2  0  0  0
  9 18  1  0  0  0
  9 20  2  0  0  0
 10 16  1  0  0  0
 10 19  1  0  0  0
 10 21  2  0  0  0
 11 29  1  0  0  0
 11 30  1  0  0  0
 11 31  1  0  0  0
 12 15  1  0  0  0
 12 32  1  0  0  0
 13 16  2  0  0  0
 13 17  1  0  0  0
 14 18  1  0  0  0
 15 17  1  0  0  0
 17 36  1  0  0  0
 18 33  1  0  0  0
 19 34  1  0  0  0
 19 35  1  0  0  0
M  CHG  1  17   1
M  END
> <s_m_source_file>
../3g0f_ligand.sdf

> <i_m_source_file_index>
1

> <s_epik_input>
W05IMl1DKD1PKWMxYyhbQ0gzXSlbbkhdYyhjMVtDSDNdKVxbQ0hdPUNcMkMoPU8pW05IXWMoYzIzKVtjSF1bY0hdYyhGKVtjSF0z

> <s_epik_cmdline>
J2VwaWtfYXBwJywgJy1pbWFlJywgJ2xpZ2FuZF9wcm8ubWFlJywgJy1vbWFlJywgJ2xpZ2FuZF9wcmVwLm1hZScsICctbXMnLCAnMScsICctcGgnLCAnNycsICctcGh0JywgJzAuNScsICctbnQn

> <r_lp_tautomer_probability>
1

> <r_epik_Ionization_Penalty>
  0.0001

> <r_epik_Ionization_Penalty_Charging>
  0.0000

> <r_epik_Ionization_Penalty_Neutral>
  0.0001

> <r_epik_State_Penalty>
 -0.0000

> <r_epik_Charging_Adjusted_Penalty>
0

> <i_epik_Tot_Q>
1

> <i_epik_Tot_abs_Q>
1

$$$$
