3g0g_ligand
                    3D
 Schrodinger Suite 2020-3.
 43 45  0  0  1  0            999 V2000
   40.8130    0.4950   16.4140 N   0  0  0  0  0  0
   40.4010    1.2910   15.6730 C   0  0  0  0  0  0
   39.9170    2.1800   14.8700 C   0  0  0  0  0  0
   38.5340    2.3950   14.8540 C   0  0  0  0  0  0
   37.9740    3.3670   14.0090 C   0  0  0  0  0  0
   38.7730    4.1230   13.1510 C   0  0  0  0  0  0
   40.1580    3.9300   13.1180 C   0  0  0  0  0  0
   40.7780    2.9860   13.9430 C   0  0  0  0  0  0
   42.2850    2.8530   13.8750 C   0  0  0  0  0  0
   42.7440    1.4640   13.7100 N   0  0  0  0  0  0
   43.6600    0.8340   14.6250 C   0  0  3  0  0  0
   44.0640   -0.4440   14.4070 N   0  0  0  0  0  0
   43.6390   -1.1970   13.3730 C   0  0  0  0  0  0
   42.7360   -0.6770   12.4460 C   0  0  0  0  0  0
   42.0940   -1.6440   10.9430 Br  0  0  0  0  0  0
   42.2650    0.7120   12.6090 C   0  0  0  0  0  0
   41.4640    1.1520   11.7540 O   0  5  0  0  0  0
   44.2560    1.5000   15.7160 N   0  0  3  0  0  0
   44.2280    0.9590   17.0860 C   0  0  0  0  0  0
   44.4610    2.0740   18.1230 C   0  0  2  0  0  0
   43.2740    2.8910   18.2360 N   0  3  0  0  0  0
   45.6340    2.9730   17.7330 C   0  0  0  0  0  0
   45.2490    3.6920   16.4490 C   0  0  0  0  0  0
   45.0000    2.7070   15.3120 C   0  0  0  0  0  0
   37.8870    1.8038   15.5020 H   0  0  0  0  0  0
   36.8969    3.5335   14.0238 H   0  0  0  0  0  0
   38.3149    4.8692   12.5019 H   0  0  0  0  0  0
   40.7652    4.5262   12.4369 H   0  0  0  0  0  0
   42.6657    3.4299   13.0193 H   0  0  0  0  0  0
   42.7295    3.2389   14.8043 H   0  0  0  0  0  0
   44.0045   -2.2280   13.2566 H   0  0  0  0  0  0
   43.2482    0.4972   17.2779 H   0  0  0  0  0  0
   45.0183    0.2020   17.1975 H   0  0  0  0  0  0
   44.6463    1.6230   19.1090 H   0  0  0  0  0  0
   42.4189    2.2585   18.5166 H   0  0  0  0  0  0
   43.0697    3.3765   17.2703 H   0  0  0  0  0  0
   43.4301    3.6598   19.0071 H   0  0  0  0  0  0
   45.8239    3.6979   18.5382 H   0  0  0  0  0  0
   46.5315    2.3569   17.5751 H   0  0  0  0  0  0
   44.3294    4.2723   16.6153 H   0  0  0  0  0  0
   46.0618    4.3705   16.1508 H   0  0  0  0  0  0
   45.9832    2.4156   14.9140 H   0  0  0  0  0  0
   44.4346    3.2436   14.5358 H   0  0  0  0  0  0
  1  2  3  0  0  0
  2  3  1  0  0  0
  3  4  2  0  0  0
  3  8  1  0  0  0
  4  5  1  0  0  0
  4 25  1  0  0  0
  5  6  2  0  0  0
  5 26  1  0  0  0
  6  7  1  0  0  0
  6 27  1  0  0  0
  7  8  2  0  0  0
  7 28  1  0  0  0
  8  9  1  0  0  0
  9 10  1  0  0  0
  9 29  1  0  0  0
  9 30  1  0  0  0
 10 11  1  0  0  0
 10 16  1  0  0  0
 11 12  1  0  0  0
 11 18  1  0  0  0
 12 13  2  0  0  0
 13 14  1  0  0  0
 13 31  1  0  0  0
 14 15  1  0  0  0
 14 16  2  0  0  0
 16 17  1  0  0  0
 18 19  1  0  0  0
 18 24  1  0  0  0
 19 20  1  0  0  0
 19 32  1  0  0  0
 19 33  1  0  0  0
 20 21  1  0  0  0
 20 22  1  0  0  0
 20 34  1  0  0  0
 21 35  1  0  0  0
 21 36  1  0  0  0
 21 37  1  0  0  0
 22 23  1  0  0  0
 22 38  1  0  0  0
 22 39  1  0  0  0
 23 24  1  0  0  0
 23 40  1  0  0  0
 23 41  1  0  0  0
 24 42  1  0  0  0
 24 43  1  0  0  0
M  CHG  2  17  -1  21   1
M  END
> <s_m_source_file>
../3g0g_ligand.sdf

> <i_m_source_file_index>
1

> <s_epik_input>
TiNDYzFbY0hdW2NIXVtjSF1bY0hdYzFbQ0gyXU4yW0NIXShbTkhdW0NIXT1DKEJyKUMyPU8pTjNbQ0gyXVtDQEhdKFtOSDMrXSlbQ0gyXVtDSDJdW0NIMl0z

> <s_epik_cmdline>
J2VwaWtfYXBwJywgJy1pbWFlJywgJ2xpZ2FuZF9wcm8ubWFlJywgJy1vbWFlJywgJ2xpZ2FuZF9wcmVwLm1hZScsICctbXMnLCAnMScsICctcGgnLCAnNycsICctcGh0JywgJzAuNScsICctbnQn

> <r_epik_Ionization_Penalty>
  0.3540

> <r_epik_Ionization_Penalty_Charging>
  0.0023

> <r_epik_Ionization_Penalty_Neutral>
  0.3517

> <r_epik_State_Penalty>
  0.0318

> <r_epik_Charging_Adjusted_Penalty>
0.0340955002518217

> <i_epik_Tot_Q>
0

> <i_epik_Tot_abs_Q>
2

> <s_epik_Chemistry_Notes>
This compound has an imine and may undergo hydrolysis.

$$$$
