3g15_ligand
                    3D
 Schrodinger Suite 2020-3.
 64 67  0  0  1  0            999 V2000
   -9.9530  -13.1760    5.1130 C   0  0  0  0  0  0
   -9.2730  -12.3060    4.1160 N   0  3  0  0  0  0
  -10.2140  -11.6050    3.2020 C   0  0  0  0  0  0
   -8.4700  -11.3780    4.9250 C   0  0  0  0  0  0
   -8.4010  -13.1220    3.2860 C   0  0  0  0  0  0
   -9.2050  -14.1950    2.5720 C   0  0  0  0  0  0
   -9.8710  -15.0860    3.5470 O   0  0  0  0  0  0
  -10.7190  -14.3550    4.4630 C   0  0  2  0  0  0
  -11.7500  -13.7380    3.6760 O   0  0  0  0  0  0
  -11.2190  -15.2250    5.5500 C   0  0  0  0  0  0
  -10.5250  -16.3780    5.9660 C   0  0  0  0  0  0
  -10.9950  -17.1920    7.0180 C   0  0  0  0  0  0
  -12.3950  -14.9120    6.2440 C   0  0  0  0  0  0
  -12.8780  -15.7210    7.2900 C   0  0  0  0  0  0
  -12.1940  -16.8770    7.6740 C   0  0  0  0  0  0
  -12.6840  -17.6440    8.7610 C   0  0  0  0  0  0
  -11.7930  -18.2380    9.6560 C   0  0  0  0  0  0
  -12.2180  -18.9580   10.7660 C   0  0  0  0  0  0
  -14.0370  -17.8040    9.0020 C   0  0  0  0  0  0
  -14.4850  -18.5380   10.1160 C   0  0  0  0  0  0
  -13.5810  -19.1420   11.0190 C   0  0  0  0  0  0
  -14.0320  -19.9140   12.1850 C   0  0  1  0  0  0
  -15.2900  -19.4250   12.6820 O   0  0  0  0  0  0
  -14.2420  -21.3800   11.8130 C   0  0  0  0  0  0
  -13.0500  -19.8210   13.2910 O   0  0  0  0  0  0
  -13.4630  -20.6870   14.4060 C   0  0  0  0  0  0
  -13.6330  -22.1210   13.9940 C   0  0  0  0  0  0
  -14.6550  -22.2310   12.9450 N   0  3  0  0  0  0
  -15.9740  -21.8390   13.5050 C   0  0  0  0  0  0
  -14.6730  -23.6260   12.4710 C   0  0  0  0  0  0
   -9.2056  -13.6005    5.7994 H   0  0  0  0  0  0
  -10.6793  -12.5799    5.6849 H   0  0  0  0  0  0
  -10.8952  -10.9734    3.7911 H   0  0  0  0  0  0
  -10.7979  -12.3469    2.6375 H   0  0  0  0  0  0
   -9.6448  -10.9763    2.5015 H   0  0  0  0  0  0
   -9.1365  -10.7649    5.5494 H   0  0  0  0  0  0
   -7.8855  -10.7242    4.2610 H   0  0  0  0  0  0
   -7.7871  -11.9504    5.5700 H   0  0  0  0  0  0
   -7.9069  -12.4857    2.5371 H   0  0  0  0  0  0
   -7.6398  -13.6041    3.9171 H   0  0  0  0  0  0
   -9.9723  -13.7204    1.9427 H   0  0  0  0  0  0
   -8.5343  -14.7969    1.9412 H   0  0  0  0  0  0
  -11.4816  -13.0721    2.8426 H   0  0  0  0  0  0
   -9.5981  -16.6491    5.4605 H   0  0  0  0  0  0
  -10.4240  -18.0692    7.3222 H   0  0  0  0  0  0
  -12.9517  -14.0170    5.9663 H   0  0  0  0  0  0
  -13.7965  -15.4421    7.8064 H   0  0  0  0  0  0
  -10.7228  -18.1332    9.4775 H   0  0  0  0  0  0
  -11.4810  -19.3839   11.4468 H   0  0  0  0  0  0
  -14.7628  -17.3573    8.3225 H   0  0  0  0  0  0
  -15.5564  -18.6434   10.2867 H   0  0  0  0  0  0
  -16.1705  -19.4027   12.0230 H   0  0  0  0  0  0
  -15.0272  -21.4549   11.0462 H   0  0  0  0  0  0
  -13.3034  -21.7963   11.4185 H   0  0  0  0  0  0
  -12.7012  -20.6524   15.1988 H   0  0  0  0  0  0
  -14.4252  -20.3353   14.8065 H   0  0  0  0  0  0
  -12.6782  -22.5071   13.6076 H   0  0  0  0  0  0
  -13.9448  -22.7179   14.8637 H   0  0  0  0  0  0
  -15.9304  -20.7954   13.8499 H   0  0  0  0  0  0
  -16.2222  -22.4951   14.3523 H   0  0  0  0  0  0
  -16.7460  -21.9363   12.7275 H   0  0  0  0  0  0
  -13.6855  -23.8873   12.0628 H   0  0  0  0  0  0
  -15.4353  -23.7366   11.6858 H   0  0  0  0  0  0
  -14.9116  -24.2955   13.3106 H   0  0  0  0  0  0
  1  2  1  0  0  0
  1  8  1  0  0  0
  1 31  1  0  0  0
  1 32  1  0  0  0
  2  3  1  0  0  0
  2  4  1  0  0  0
  2  5  1  0  0  0
  3 33  1  0  0  0
  3 34  1  0  0  0
  3 35  1  0  0  0
  4 36  1  0  0  0
  4 37  1  0  0  0
  4 38  1  0  0  0
  5  6  1  0  0  0
  5 39  1  0  0  0
  5 40  1  0  0  0
  6  7  1  0  0  0
  6 41  1  0  0  0
  6 42  1  0  0  0
  7  8  1  0  0  0
  8  9  1  0  0  0
  8 10  1  0  0  0
  9 43  1  0  0  0
 10 11  2  0  0  0
 10 13  1  0  0  0
 11 12  1  0  0  0
 11 44  1  0  0  0
 12 15  2  0  0  0
 12 45  1  0  0  0
 13 14  2  0  0  0
 13 46  1  0  0  0
 14 15  1  0  0  0
 14 47  1  0  0  0
 15 16  1  0  0  0
 16 17  2  0  0  0
 16 19  1  0  0  0
 17 18  1  0  0  0
 17 48  1  0  0  0
 18 21  2  0  0  0
 18 49  1  0  0  0
 19 20  2  0  0  0
 19 50  1  0  0  0
 20 21  1  0  0  0
 20 51  1  0  0  0
 21 22  1  0  0  0
 22 23  1  0  0  0
 22 24  1  0  0  0
 22 25  1  0  0  0
 23 52  1  0  0  0
 24 28  1  0  0  0
 24 53  1  0  0  0
 24 54  1  0  0  0
 25 26  1  0  0  0
 26 27  1  0  0  0
 26 55  1  0  0  0
 26 56  1  0  0  0
 27 28  1  0  0  0
 27 57  1  0  0  0
 27 58  1  0  0  0
 28 29  1  0  0  0
 28 30  1  0  0  0
 29 59  1  0  0  0
 29 60  1  0  0  0
 29 61  1  0  0  0
 30 62  1  0  0  0
 30 63  1  0  0  0
 30 64  1  0  0  0
M  CHG  2   2   1  28   1
M  END
> <s_m_source_file>
../3g15_ligand.sdf

> <i_m_source_file_index>
1

> <s_epik_input>
W0NIM11bTitdMShbQ0gzXSlbQ0gyXVtDQEBdKFtPSF0pKE9bQ0gyXVtDSDJdMSljMltjSF1bY0hdYyhbY0hdW2NIXTIpLWMzW2NIXVtjSF1jKFtjSF1bY0hdMylbQ0BAXTQoW09IXSlbQ0gyXVtOK10oW0NIM10pKFtDSDNdKVtDSDJdW0NIMl1PNA==

> <s_epik_cmdline>
J2VwaWtfYXBwJywgJy1pbWFlJywgJ2xpZ2FuZF9wcm8ubWFlJywgJy1vbWFlJywgJ2xpZ2FuZF9wcmVwLm1hZScsICctbXMnLCAnMScsICctcGgnLCAnNycsICctcGh0JywgJzAuNScsICctbnQn

> <r_lp_tautomer_probability>
1

> <r_epik_Ionization_Penalty>
  0.0058

> <r_epik_Ionization_Penalty_Charging>
  0.0000

> <r_epik_Ionization_Penalty_Neutral>
  0.0058

> <r_epik_State_Penalty>
 -0.0000

> <r_epik_Charging_Adjusted_Penalty>
0

> <i_epik_Tot_Q>
2

> <i_epik_Tot_abs_Q>
2

$$$$
