3g19_ligand
                    3D
 Schrodinger Suite 2020-3.
 60 59  0  0  1  0            999 V2000
   20.8980   -4.1080  -16.3120 N   0  3  0  0  0  0
   21.1370   -4.8800  -15.0990 C   0  0  2  0  0  0
   22.1910   -5.9580  -15.3300 C   0  0  0  0  0  0
   22.4510   -6.3480  -16.4670 O   0  0  0  0  0  0
   19.8340   -5.5130  -14.6040 C   0  0  0  0  0  0
   18.6950   -4.5460  -14.2750 C   0  0  0  0  0  0
   17.4170   -5.3090  -13.9610 C   0  0  0  0  0  0
   19.0770   -3.6320  -13.1190 C   0  0  0  0  0  0
   22.7920   -6.4340  -14.2450 N   0  0  0  0  0  0
   23.8200   -7.4660  -14.3220 C   0  0  2  0  0  0
   23.2060   -8.8460  -14.5490 C   0  0  0  0  0  0
   22.1100   -9.1320  -14.0650 O   0  0  0  0  0  0
   24.6670   -7.4660  -13.0480 C   0  0  0  0  0  0
   25.7620   -8.5280  -12.9250 C   0  0  0  0  0  0
   26.8070   -8.3570  -14.0170 C   0  0  0  0  0  0
   26.4070   -8.4680  -11.5500 C   0  0  0  0  0  0
   23.9280   -9.6890  -15.2830 N   0  0  0  0  0  0
   23.4770  -11.0340  -15.6460 C   0  0  2  0  0  0
   22.5720  -11.0130  -16.8750 C   0  0  0  0  0  0
   22.6430  -11.8970  -17.7310 O   0  5  0  0  0  0
   22.7900  -11.7410  -14.4710 C   0  0  0  0  0  0
   22.2250  -13.1410  -14.7370 C   0  0  0  0  0  0
   22.1430  -13.9470  -13.4500 C   0  0  0  0  0  0
   20.8630  -13.0750  -15.4210 C   0  0  0  0  0  0
   21.7570  -10.1080  -17.0440 O   0  0  0  0  0  0
   21.8429   -3.6605  -16.6540 H   0  0  0  0  0  0
   20.1697   -3.3109  -16.1017 H   0  0  0  0  0  0
   20.5010   -4.7700  -17.0957 H   0  0  0  0  0  0
   21.5146   -4.1533  -14.3646 H   0  0  0  0  0  0
   19.4412   -6.1933  -15.3740 H   0  0  0  0  0  0
   20.0285   -6.0778  -13.6803 H   0  0  0  0  0  0
   18.5072   -3.9155  -15.1566 H   0  0  0  0  0  0
   17.1617   -5.9613  -14.8091 H   0  0  0  0  0  0
   16.5976   -4.5960  -13.7871 H   0  0  0  0  0  0
   17.5676   -5.9214  -13.0597 H   0  0  0  0  0  0
   20.0022   -3.0920  -13.3688 H   0  0  0  0  0  0
   19.2374   -4.2345  -12.2128 H   0  0  0  0  0  0
   18.2674   -2.9091  -12.9402 H   0  0  0  0  0  0
   22.4936   -6.0268  -13.2677 H   0  0  0  0  0  0
   24.4358   -7.1964  -15.1927 H   0  0  0  0  0  0
   25.1870   -6.5013  -12.9534 H   0  0  0  0  0  0
   24.0158   -7.6187  -12.1747 H   0  0  0  0  0  0
   25.3050   -9.5210  -13.0479 H   0  0  0  0  0  0
   26.3192   -8.4036  -15.0018 H   0  0  0  0  0  0
   27.5536   -9.1611  -13.9392 H   0  0  0  0  0  0
   27.3039   -7.3827  -13.8996 H   0  0  0  0  0  0
   25.6346   -8.5936  -10.7769 H   0  0  0  0  0  0
   26.9017   -7.4943  -11.4193 H   0  0  0  0  0  0
   27.1514   -9.2727  -11.4588 H   0  0  0  0  0  0
   24.9110   -9.3288  -15.6205 H   0  0  0  0  0  0
   24.4044  -11.5696  -15.8971 H   0  0  0  0  0  0
   23.5076  -11.8631  -13.6463 H   0  0  0  0  0  0
   21.9366  -11.1375  -14.1282 H   0  0  0  0  0  0
   22.9150  -13.6591  -15.4192 H   0  0  0  0  0  0
   23.1345  -13.9811  -12.9749 H   0  0  0  0  0  0
   21.8106  -14.9703  -13.6788 H   0  0  0  0  0  0
   21.4245  -13.4725  -12.7654 H   0  0  0  0  0  0
   20.9462  -12.4884  -16.3478 H   0  0  0  0  0  0
   20.1373  -12.5956  -14.7475 H   0  0  0  0  0  0
   20.5235  -14.0934  -15.6609 H   0  0  0  0  0  0
  1  2  1  0  0  0
  1 26  1  0  0  0
  1 27  1  0  0  0
  1 28  1  0  0  0
  2  3  1  0  0  0
  2  5  1  0  0  0
  2 29  1  0  0  0
  3  4  2  0  0  0
  3  9  1  0  0  0
  5  6  1  0  0  0
  5 30  1  0  0  0
  5 31  1  0  0  0
  6  7  1  0  0  0
  6  8  1  0  0  0
  6 32  1  0  0  0
  7 33  1  0  0  0
  7 34  1  0  0  0
  7 35  1  0  0  0
  8 36  1  0  0  0
  8 37  1  0  0  0
  8 38  1  0  0  0
  9 10  1  0  0  0
  9 39  1  0  0  0
 10 11  1  0  0  0
 10 13  1  0  0  0
 10 40  1  0  0  0
 11 12  2  0  0  0
 11 17  1  0  0  0
 13 14  1  0  0  0
 13 41  1  0  0  0
 13 42  1  0  0  0
 14 15  1  0  0  0
 14 16  1  0  0  0
 14 43  1  0  0  0
 15 44  1  0  0  0
 15 45  1  0  0  0
 15 46  1  0  0  0
 16 47  1  0  0  0
 16 48  1  0  0  0
 16 49  1  0  0  0
 17 18  1  0  0  0
 17 50  1  0  0  0
 18 19  1  0  0  0
 18 21  1  0  0  0
 18 51  1  0  0  0
 19 20  1  0  0  0
 19 25  2  0  0  0
 21 22  1  0  0  0
 21 52  1  0  0  0
 21 53  1  0  0  0
 22 23  1  0  0  0
 22 24  1  0  0  0
 22 54  1  0  0  0
 23 55  1  0  0  0
 23 56  1  0  0  0
 23 57  1  0  0  0
 24 58  1  0  0  0
 24 59  1  0  0  0
 24 60  1  0  0  0
M  CHG  2   1   1  20  -1
M  END
> <s_m_source_file>
../3g19_ligand.sdf

> <i_m_source_file_index>
1

> <s_epik_input>
W0NIM11bQ0hdKFtDSDNdKVtDSDJdW0NASF0oW05IMytdKUMoPU8pW05IXVtDQEBIXShbQ0gyXVtDSF0oW0NIM10pW0NIM10pQyg9TylbTkhdW0NASF0oQyg9TylbT0hdKVtDSDJdW0NIXShbQ0gzXSlbQ0gzXQ==

> <s_epik_cmdline>
J2VwaWtfYXBwJywgJy1pbWFlJywgJ2xpZ2FuZF9wcm8ubWFlJywgJy1vbWFlJywgJ2xpZ2FuZF9wcmVwLm1hZScsICctbXMnLCAnMScsICctcGgnLCAnNycsICctcGh0JywgJzAuNScsICctbnQn

> <r_epik_Ionization_Penalty>
  0.0850

> <r_epik_Ionization_Penalty_Charging>
  0.0850

> <r_epik_Ionization_Penalty_Neutral>
  0.0000

> <r_epik_State_Penalty>
  0.0754

> <r_epik_Charging_Adjusted_Penalty>
0.160468100444681

> <i_epik_Tot_Q>
0

> <i_epik_Tot_abs_Q>
2

$$$$
