3g1d_ligand
                    3D
 Schrodinger Suite 2020-3.
 32 33  0  0  1  0            999 V2000
   25.8690   -1.2150    7.9160 O   0  5  0  0  0  0
   24.8370   -2.2650    8.5560 P   0  0  0  0  0  0
   24.1130   -3.0850    7.5190 O   0  5  0  0  0  0
   25.6110   -3.1380    9.5060 O   0  0  0  0  0  0
   23.8220   -1.4830    9.4760 O   0  0  0  0  0  0
   22.6990   -0.7620    8.9500 C   0  0  0  0  0  0
   22.0560   -0.0450   10.1200 C   0  0  1  0  0  0
   20.9880    0.8080    9.6530 O   0  0  0  0  0  0
   21.3870   -0.8830   11.2020 C   0  0  1  0  0  0
   21.4580   -0.2270   12.4690 O   0  0  0  0  0  0
   19.9720   -1.0020   10.7350 C   0  0  1  0  0  0
   19.0570   -1.3360   11.7760 O   0  0  0  0  0  0
   19.7290    0.3440   10.0990 C   0  0  2  0  0  0
   18.7970    0.4210    8.9570 N   0  0  0  0  0  0
   18.9500   -0.3900    7.7960 C   0  0  0  0  0  0
   19.9060   -1.1160    7.6390 O   0  0  0  0  0  0
   17.9290   -0.2710    6.8730 N   0  0  0  0  0  0
   16.8550    0.6420    6.8880 C   0  0  0  0  0  0
   16.1160    0.6690    5.9230 O   0  0  0  0  0  0
   16.7710    1.4590    8.0830 C   0  0  0  0  0  0
   17.7210    1.3500    9.0380 C   0  0  0  0  0  0
   23.0466   -0.0432    8.1934 H   0  0  0  0  0  0
   21.9935   -1.4683    8.4880 H   0  0  0  0  0  0
   22.9074    0.5013   10.5519 H   0  0  0  0  0  0
   21.8637   -1.8541   11.4012 H   0  0  0  0  0  0
   22.4339   -0.0623   12.9492 H   0  0  0  0  0  0
   19.7772   -1.8594   10.0740 H   0  0  0  0  0  0
   19.1503   -2.2971   12.3028 H   0  0  0  0  0  0
   19.2716    0.9899   10.8629 H   0  0  0  0  0  0
   17.8955   -0.9401    6.0005 H   0  0  0  0  0  0
   15.9448    2.1584    8.2106 H   0  0  0  0  0  0
   17.6608    2.0024    9.9091 H   0  0  0  0  0  0
  1  2  1  0  0  0
  2  3  1  0  0  0
  2  4  2  0  0  0
  2  5  1  0  0  0
  5  6  1  0  0  0
  6  7  1  0  0  0
  6 22  1  0  0  0
  6 23  1  0  0  0
  7  8  1  0  0  0
  7  9  1  0  0  0
  7 24  1  0  0  0
  8 13  1  0  0  0
  9 10  1  0  0  0
  9 11  1  0  0  0
  9 25  1  0  0  0
 10 26  1  0  0  0
 11 12  1  0  0  0
 11 13  1  0  0  0
 11 27  1  0  0  0
 12 28  1  0  0  0
 13 14  1  0  0  0
 13 29  1  0  0  0
 14 15  1  0  0  0
 14 21  1  0  0  0
 15 16  2  0  0  0
 15 17  1  0  0  0
 17 18  1  0  0  0
 17 30  1  0  0  0
 18 19  2  0  0  0
 18 20  1  0  0  0
 20 21  2  0  0  0
 20 31  1  0  0  0
 21 32  1  0  0  0
M  CHG  2   1  -1   3  -1
M  END
> <s_m_source_file>
../3g1d_ligand.sdf

> <i_m_source_file_index>
1

> <s_epik_input>
W09IXVAoPU8pKFtPSF0pT1tDSDJdW0NASF0xT1tDQEhdKFtDQEhdKFtPSF0pW0NAQEhdMVtPSF0pbjJjKD1PKVtuSF1jKD1PKVtjSF1bY0hdMg==

> <s_epik_cmdline>
J2VwaWtfYXBwJywgJy1pbWFlJywgJ2xpZ2FuZF9wcm8ubWFlJywgJy1vbWFlJywgJ2xpZ2FuZF9wcmVwLm1hZScsICctbXMnLCAnMScsICctcGgnLCAnNycsICctcGh0JywgJzAuNScsICctbnQn

> <r_lp_tautomer_probability>
0.999537046341301

> <r_epik_Ionization_Penalty>
  0.1099

> <r_epik_Ionization_Penalty_Charging>
  0.1099

> <r_epik_Ionization_Penalty_Neutral>
  0.0000

> <r_epik_State_Penalty>
  0.0955

> <r_epik_Charging_Adjusted_Penalty>
0.205421335808325

> <i_epik_Tot_Q>
-2

> <i_epik_Tot_abs_Q>
2

> <s_epik_Chemistry_Notes>
This compound contains an acetal/aminal-like group ( X-CH(R)-Y where X, Y are N, S, or O) that may be acid/base labile, releasing an aldehyde.

$$$$
