3g1m_ligand
                    3D
 Schrodinger Suite 2020-3.
 41 44  0  0  1  0            999 V2000
   30.8700   77.9550   10.8700 C   0  0  0  0  0  0
   30.5710   78.9320    9.9940 C   0  0  0  0  0  0
   30.3850   78.5360    8.7460 C   0  0  0  0  0  0
   30.5950   76.8810    8.6390 S   0  0  0  0  0  0
   30.9340   76.7430   10.3500 C   0  0  0  0  0  0
   31.1780   75.4190   11.0610 C   0  0  0  0  0  0
   32.0290   74.3710   10.3200 C   0  0  0  0  0  0
   32.2560   74.4870    9.1570 O   0  0  0  0  0  0
   32.3960   73.2970   11.0090 N   0  0  0  0  0  0
   32.1010   73.2050   12.4590 C   0  0  0  0  0  0
   32.0900   71.7750   13.0050 C   0  0  0  0  0  0
   33.2680   72.2770   10.3590 C   0  0  0  0  0  0
   33.1960   70.9120   10.9610 C   0  0  0  0  0  0
   33.2640   70.9640   12.4610 C   0  0  0  0  0  0
   33.2730   69.5310   13.0210 C   0  0  0  0  0  0
   33.1180   68.4270   12.3740 N   0  0  0  0  0  0
   33.3900   69.2760   14.2830 O   0  0  0  0  0  0
   33.3260   67.9360   14.4190 N   0  0  0  0  0  0
   33.1590   67.4290   13.2470 C   0  0  0  0  0  0
   33.0160   66.0790   12.9430 C   0  0  0  0  0  0
   32.6990   65.0090   13.7000 C   0  0  0  0  0  0
   32.6320   63.8870   13.0050 C   0  0  0  0  0  0
   32.8640   63.9750   11.6940 C   0  0  0  0  0  0
   33.1960   65.6000   11.3950 S   0  0  0  0  0  0
   31.0459   78.1494   11.9280 H   0  0  0  0  0  0
   30.4879   79.9771   10.2924 H   0  0  0  0  0  0
   30.1325   79.1908    7.9119 H   0  0  0  0  0  0
   31.7002   75.6039   12.0113 H   0  0  0  0  0  0
   30.2146   74.9276   11.2617 H   0  0  0  0  0  0
   32.8632   73.7614   13.0242 H   0  0  0  0  0  0
   31.1088   73.6356   12.6594 H   0  0  0  0  0  0
   32.1615   71.8010   14.1024 H   0  0  0  0  0  0
   31.1545   71.2771   12.7102 H   0  0  0  0  0  0
   32.9833   72.1713    9.3018 H   0  0  0  0  0  0
   34.3185   72.5965   10.4256 H   0  0  0  0  0  0
   32.2481   70.4338   10.6731 H   0  0  0  0  0  0
   34.0382   70.3055   10.5964 H   0  0  0  0  0  0
   34.1930   71.4718   12.7594 H   0  0  0  0  0  0
   32.5170   65.0638   14.7733 H   0  0  0  0  0  0
   32.3982   62.9344   13.4804 H   0  0  0  0  0  0
   32.8431   63.1635   10.9666 H   0  0  0  0  0  0
  1  2  1  0  0  0
  1  5  2  0  0  0
  1 25  1  0  0  0
  2  3  2  0  0  0
  2 26  1  0  0  0
  3  4  1  0  0  0
  3 27  1  0  0  0
  4  5  1  0  0  0
  5  6  1  0  0  0
  6  7  1  0  0  0
  6 28  1  0  0  0
  6 29  1  0  0  0
  7  8  2  0  0  0
  7  9  1  0  0  0
  9 10  1  0  0  0
  9 12  1  0  0  0
 10 11  1  0  0  0
 10 30  1  0  0  0
 10 31  1  0  0  0
 11 14  1  0  0  0
 11 32  1  0  0  0
 11 33  1  0  0  0
 12 13  1  0  0  0
 12 34  1  0  0  0
 12 35  1  0  0  0
 13 14  1  0  0  0
 13 36  1  0  0  0
 13 37  1  0  0  0
 14 15  1  0  0  0
 14 38  1  0  0  0
 15 16  2  0  0  0
 15 17  1  0  0  0
 16 19  1  0  0  0
 17 18  1  0  0  0
 18 19  2  0  0  0
 19 20  1  0  0  0
 20 21  2  0  0  0
 20 24  1  0  0  0
 21 22  1  0  0  0
 21 39  1  0  0  0
 22 23  2  0  0  0
 22 40  1  0  0  0
 23 24  1  0  0  0
 23 41  1  0  0  0
M  END
> <s_m_source_file>
../3g1m_ligand.sdf

> <i_m_source_file_index>
1

> <s_epik_input>
czFbY0hdW2NIXVtjSF1jMVtDSDJdQyg9TylOMltDSDJdW0NIMl1bQ0hdKFtDSDJdW0NIMl0yKWMzbmMobm8zKS1jNFtjSF1bY0hdW2NIXXM0

> <s_epik_cmdline>
J2VwaWtfYXBwJywgJy1pbWFlJywgJ2xpZ2FuZF9wcm8ubWFlJywgJy1vbWFlJywgJ2xpZ2FuZF9wcmVwLm1hZScsICctbXMnLCAnMScsICctcGgnLCAnNycsICctcGh0JywgJzAuNScsICctbnQn

> <r_lp_tautomer_probability>
1

> <r_epik_Ionization_Penalty>
  0.0000

> <r_epik_Ionization_Penalty_Charging>
  0.0000

> <r_epik_Ionization_Penalty_Neutral>
  0.0000

> <r_epik_State_Penalty>
 -0.0000

> <r_epik_Charging_Adjusted_Penalty>
0

> <i_epik_Tot_Q>
0

> <i_epik_Tot_abs_Q>
0

$$$$
