3g2k_ligand
                    3D
 Schrodinger Suite 2020-3.
 45 48  0  0  1  0            999 V2000
   36.3060   25.3510   32.4860 C   0  0  0  0  0  0
   37.4310   25.7570   33.2120 C   0  0  0  0  0  0
   37.2850   26.3610   34.4670 C   0  0  0  0  0  0
   38.4180   26.7640   35.1850 C   0  0  0  0  0  0
   39.6960   26.5690   34.6520 C   0  0  0  0  0  0
   39.8400   25.9660   33.3990 C   0  0  0  0  0  0
   38.7100   25.5580   32.6800 C   0  0  0  0  0  0
   38.8520   24.9570   31.4270 C   0  0  0  0  0  0
   37.7260   24.5510   30.7050 C   0  0  0  0  0  0
   36.4430   24.7460   31.2280 C   0  0  0  0  0  0
   35.3000   24.3490   30.5180 C   0  0  0  0  0  0
   35.2110   23.6790   29.3610 C   0  0  0  0  0  0
   34.0380   24.5740   30.8910 N   0  0  0  0  0  0
   33.2660   24.1010   30.0520 N   0  0  0  0  0  0
   33.8990   23.5740   29.1300 N   0  0  0  0  0  0
   33.1660   22.9230   28.0190 C   0  0  2  0  0  0
   33.2140   21.4890   28.2640 O   0  0  0  0  0  0
   32.1550   20.8410   27.5140 C   0  0  2  0  0  0
   32.1120   19.3730   27.9560 C   0  0  0  0  0  0
   33.2760   18.6840   27.4800 O   0  0  0  0  0  0
   32.3680   21.0090   25.9820 C   0  0  1  0  0  0
   31.2010   20.5580   25.2980 O   0  0  0  0  0  0
   32.6630   22.4740   25.5850 C   0  0  2  0  0  0
   33.1710   22.5200   24.2430 O   0  0  0  0  0  0
   33.6580   23.1290   26.5730 C   0  0  1  0  0  0
   33.8240   24.5240   26.3010 O   0  0  0  0  0  0
   35.3111   25.5067   32.9031 H   0  0  0  0  0  0
   36.2904   26.5174   34.8847 H   0  0  0  0  0  0
   38.3031   27.2314   36.1630 H   0  0  0  0  0  0
   40.5763   26.8859   35.2112 H   0  0  0  0  0  0
   40.8348   25.8130   32.9806 H   0  0  0  0  0  0
   39.8472   24.8037   31.0096 H   0  0  0  0  0  0
   37.8481   24.0801   29.7296 H   0  0  0  0  0  0
   36.0277   23.3030   28.7448 H   0  0  0  0  0  0
   32.1662   23.3762   28.0897 H   0  0  0  0  0  0
   31.2111   21.3418   27.7751 H   0  0  0  0  0  0
   32.0845   19.3215   29.0544 H   0  0  0  0  0  0
   31.2126   18.8921   27.5438 H   0  0  0  0  0  0
   33.4131   17.6159   27.7044 H   0  0  0  0  0  0
   33.1923   20.3663   25.6394 H   0  0  0  0  0  0
   30.8332   19.5332   25.4547 H   0  0  0  0  0  0
   31.7337   23.0617   25.5519 H   0  0  0  0  0  0
   32.5820   22.0946   23.4171 H   0  0  0  0  0  0
   34.6692   22.7202   26.4306 H   0  0  0  0  0  0
   34.5024   25.1283   26.9211 H   0  0  0  0  0  0
  1  2  2  0  0  0
  1 10  1  0  0  0
  1 27  1  0  0  0
  2  3  1  0  0  0
  2  7  1  0  0  0
  3  4  2  0  0  0
  3 28  1  0  0  0
  4  5  1  0  0  0
  4 29  1  0  0  0
  5  6  2  0  0  0
  5 30  1  0  0  0
  6  7  1  0  0  0
  6 31  1  0  0  0
  7  8  2  0  0  0
  8  9  1  0  0  0
  8 32  1  0  0  0
  9 10  2  0  0  0
  9 33  1  0  0  0
 10 11  1  0  0  0
 11 12  2  0  0  0
 11 13  1  0  0  0
 12 15  1  0  0  0
 12 34  1  0  0  0
 13 14  2  0  0  0
 14 15  1  0  0  0
 15 16  1  0  0  0
 16 17  1  0  0  0
 16 25  1  0  0  0
 16 35  1  0  0  0
 17 18  1  0  0  0
 18 19  1  0  0  0
 18 21  1  0  0  0
 18 36  1  0  0  0
 19 20  1  0  0  0
 19 37  1  0  0  0
 19 38  1  0  0  0
 20 39  1  0  0  0
 21 22  1  0  0  0
 21 23  1  0  0  0
 21 40  1  0  0  0
 22 41  1  0  0  0
 23 24  1  0  0  0
 23 25  1  0  0  0
 23 42  1  0  0  0
 24 43  1  0  0  0
 25 26  1  0  0  0
 25 44  1  0  0  0
 26 45  1  0  0  0
M  END
> <s_m_source_file>
../3g2k_ligand.sdf

> <i_m_source_file_index>
1

> <s_epik_input>
W2NIXTFbY0hdW2NIXVtjSF1jKGMxMilbY0hdW2NIXWMoW2NIXTIpLWMzW2NIXW4obm4zKVtDQEBIXTRPW0NASF0oW0NIMl1bT0hdKVtDQEBIXShbT0hdKVtDQEhdKFtPSF0pW0NASF00W09IXQ==

> <s_epik_cmdline>
J2VwaWtfYXBwJywgJy1pbWFlJywgJ2xpZ2FuZF9wcm8ubWFlJywgJy1vbWFlJywgJ2xpZ2FuZF9wcmVwLm1hZScsICctbXMnLCAnMScsICctcGgnLCAnNycsICctcGh0JywgJzAuNScsICctbnQn

> <r_lp_tautomer_probability>
1

> <r_epik_Ionization_Penalty>
  0.0000

> <r_epik_Ionization_Penalty_Charging>
  0.0000

> <r_epik_Ionization_Penalty_Neutral>
  0.0000

> <r_epik_State_Penalty>
 -0.0000

> <r_epik_Charging_Adjusted_Penalty>
0

> <i_epik_Tot_Q>
0

> <i_epik_Tot_abs_Q>
0

> <s_epik_Chemistry_Notes>
This compound contains an acetal/aminal-like group ( X-CH(R)-Y where X, Y are N, S, or O) that may be acid/base labile, releasing an aldehyde.

$$$$
