3g2s_ligand
                    3D
 Schrodinger Suite 2020-3.
160161  0  0  1  0            999 V2000
   11.1430    4.0870  -50.7710 N   0  3  0  0  0  0
   10.2210    4.9010  -49.9300 C   0  0  0  0  0  0
   10.6780    4.9860  -48.4890 C   0  0  0  0  0  0
   11.7570    5.5060  -48.1980 O   0  0  0  0  0  0
    9.8940    4.3910  -47.5930 N   0  0  0  0  0  0
    9.9980    4.6870  -46.1670 C   0  0  2  0  0  0
   10.2020    3.4210  -45.3430 C   0  0  0  0  0  0
    9.5880    2.3950  -45.6180 O   0  0  0  0  0  0
    8.7560    5.4370  -45.6830 C   0  0  0  0  0  0
    8.5800    6.7800  -46.3240 C   0  0  0  0  0  0
    9.3550    7.8560  -45.9190 C   0  0  0  0  0  0
    7.7350    6.9390  -47.4100 C   0  0  0  0  0  0
    9.2210    9.0980  -46.5210 C   0  0  0  0  0  0
    7.6090    8.1750  -48.0380 C   0  0  0  0  0  0
    8.3620    9.2550  -47.5940 C   0  0  0  0  0  0
   11.1490    3.4770  -44.4110 N   0  0  0  0  0  0
   11.2980    2.4680  -43.3630 C   0  0  2  0  0  0
   10.0260    2.3330  -42.5380 C   0  0  0  0  0  0
    9.3650    3.3360  -42.2510 O   0  0  0  0  0  0
   12.4360    2.8680  -42.4260 C   0  0  0  0  0  0
   12.8480    1.7370  -41.6800 O   0  0  0  0  0  0
    9.6960    1.1080  -42.1360 N   0  0  0  0  0  0
    8.7690    0.9230  -41.0210 C   0  0  2  0  0  0
    9.5110    0.7380  -39.6890 C   0  0  0  0  0  0
    8.9330    0.2810  -38.6990 O   0  0  0  0  0  0
    7.7870   -0.2210  -41.3110 C   0  0  0  0  0  0
    8.4820   -1.5600  -41.4740 C   0  0  0  0  0  0
    9.6780   -1.6630  -41.1230 O   0  0  0  0  0  0
    7.8150   -2.5220  -41.9120 O   0  0  0  0  0  0
   10.8020    1.0670  -39.6720 N   0  0  0  0  0  0
   11.6330    0.9140  -38.4700 C   0  0  2  0  0  0
   12.1080    2.2930  -38.0020 C   0  0  0  0  0  0
   11.7510    3.3210  -38.5900 O   0  0  0  0  0  0
   12.8450    0.0210  -38.7740 C   0  0  0  0  0  0
   13.4450   -0.6590  -37.5370 C   0  0  0  0  0  0
   12.9340   -0.5020  -36.4030 O   0  0  0  0  0  0
   14.4060   -1.4450  -37.7270 O   0  0  0  0  0  0
   12.9840    2.2800  -36.9970 N   0  0  0  0  0  0
   13.5390    3.4870  -36.3930 C   0  0  2  0  0  0
   15.0690    3.3390  -36.3810 C   0  0  0  0  0  0
   15.5980    2.2350  -36.5870 O   0  0  0  0  0  0
   12.9940    3.6670  -34.9510 C   0  0  0  0  0  0
   11.4580    3.7290  -34.9580 C   0  0  0  0  0  0
   13.4700    2.5230  -34.0410 C   0  0  0  0  0  0
   15.7980    4.4550  -36.2250 N   0  0  0  0  0  0
   17.2640    4.3890  -36.1380 C   0  0  2  0  0  0
   17.7670    3.5800  -34.9360 C   0  0  0  0  0  0
   17.0790    3.4900  -33.9230 O   0  0  0  0  0  0
   17.6790    5.8690  -35.9900 C   0  0  0  0  0  0
   16.5280    6.6590  -36.5610 C   0  0  0  0  0  0
   15.2950    5.8410  -36.2120 C   0  0  0  0  0  0
   18.9750    3.0250  -35.0520 N   0  0  0  0  0  0
   19.5580    2.2470  -33.9700 C   0  0  2  0  0  0
   19.9970    3.1770  -32.8450 C   0  0  0  0  0  0
   20.5830    4.2330  -33.1090 O   0  0  0  0  0  0
   20.7680    1.4480  -34.4630 C   0  0  0  0  0  0
   21.4130    0.6120  -33.3670 C   0  0  0  0  0  0
   22.7410   -0.4370  -33.9950 S   0  0  0  0  0  0
   23.9190    0.8430  -34.3440 C   0  0  0  0  0  0
   19.6810    2.8010  -31.6060 N   0  0  0  0  0  0
   20.1920    3.4990  -30.4250 C   0  0  2  0  0  0
   21.6220    3.0570  -30.1050 C   0  0  0  0  0  0
   21.9600    1.8780  -30.1370 O   0  0  0  0  0  0
   19.2700    3.2960  -29.1860 C   0  0  0  0  0  0
   19.9290    3.7970  -27.9020 C   0  0  0  0  0  0
   17.9370    4.0180  -29.3920 C   0  0  0  0  0  0
   22.4940    4.0340  -29.8880 N   0  0  0  0  0  0
   23.8970    3.7350  -29.6260 C   0  0  2  0  0  0
   24.1360    3.4920  -28.1300 C   0  0  0  0  0  0
   23.6830    4.2700  -27.2780 O   0  0  0  0  0  0
   24.8260    4.8700  -30.1450 C   0  0  2  0  0  0
   24.4730    5.2660  -31.5760 C   0  0  0  0  0  0
   26.2900    4.4320  -30.0850 C   0  0  0  0  0  0
   24.4540    4.1270  -32.5660 C   0  0  0  0  0  0
   24.7800    2.3670  -27.8150 N   0  0  0  0  0  0
   25.0720    1.9800  -26.4280 C   0  0  2  0  0  0
   26.2100    2.8130  -25.8210 C   0  0  0  0  0  0
   26.9330    3.5250  -26.5370 O   0  0  0  0  0  0
   25.4390    0.4890  -26.3620 C   0  0  0  0  0  0
   26.3820    2.7800  -24.5940 O   0  0  0  0  0  0
   10.7668    4.0573  -51.8042 H   0  0  0  0  0  0
   11.1971    3.0638  -50.3709 H   0  0  0  0  0  0
   12.1458    4.5390  -50.7587 H   0  0  0  0  0  0
   10.1669    5.9242  -50.3301 H   0  0  0  0  0  0
    9.2182    4.4490  -49.9422 H   0  0  0  0  0  0
    9.1537    3.6601  -47.9504 H   0  0  0  0  0  0
   10.8913    5.3222  -46.0747 H   0  0  0  0  0  0
    7.8578    4.8439  -45.9101 H   0  0  0  0  0  0
    8.8245    5.5974  -44.5969 H   0  0  0  0  0  0
   10.0800    7.7237  -45.1159 H   0  0  0  0  0  0
    7.1625    6.0871  -47.7769 H   0  0  0  0  0  0
    9.7915    9.9492  -46.1494 H   0  0  0  0  0  0
    6.9217    8.2952  -48.8755 H   0  0  0  0  0  0
    8.2762   10.2222  -48.0892 H   0  0  0  0  0  0
   11.8393    4.3324  -44.4530 H   0  0  0  0  0  0
   11.5073    1.5259  -43.8910 H   0  0  0  0  0  0
   13.2823    3.2468  -43.0179 H   0  0  0  0  0  0
   12.0872    3.6542  -41.7402 H   0  0  0  0  0  0
   13.6630    1.8288  -40.9469 H   0  0  0  0  0  0
   10.1239    0.2326  -42.6465 H   0  0  0  0  0  0
    8.2035    1.8646  -40.9609 H   0  0  0  0  0  0
    7.0726   -0.3106  -40.4794 H   0  0  0  0  0  0
    7.2411   -0.0085  -42.2421 H   0  0  0  0  0  0
   10.2023   -2.6238  -41.2318 H   0  0  0  0  0  0
   11.2425    1.4647  -40.5982 H   0  0  0  0  0  0
   11.0008    0.4421  -37.7034 H   0  0  0  0  0  0
   12.5472   -0.7767  -39.4704 H   0  0  0  0  0  0
   13.6419    0.6270  -39.2298 H   0  0  0  0  0  0
   14.8731   -1.9590  -36.8740 H   0  0  0  0  0  0
   13.2856    1.2899  -36.6245 H   0  0  0  0  0  0
   13.2263    4.3415  -37.0111 H   0  0  0  0  0  0
   13.3805    4.6141  -34.5465 H   0  0  0  0  0  0
   11.1272    4.5499  -35.6113 H   0  0  0  0  0  0
   11.0935    3.9047  -33.9351 H   0  0  0  0  0  0
   11.0543    2.7768  -35.3326 H   0  0  0  0  0  0
   14.5694    2.4866  -34.0424 H   0  0  0  0  0  0
   13.0710    1.5680  -34.4135 H   0  0  0  0  0  0
   13.1102    2.6959  -33.0160 H   0  0  0  0  0  0
   17.6500    3.8699  -37.0277 H   0  0  0  0  0  0
   17.8408    6.0999  -34.9267 H   0  0  0  0  0  0
   18.6093    6.0467  -36.5494 H   0  0  0  0  0  0
   16.5029    7.6567  -36.0985 H   0  0  0  0  0  0
   16.6577    6.7621  -37.6484 H   0  0  0  0  0  0
   14.4935    5.9472  -36.9578 H   0  0  0  0  0  0
   14.9002    6.0785  -35.2131 H   0  0  0  0  0  0
   19.5318    3.1658  -35.9902 H   0  0  0  0  0  0
   18.7611    1.5675  -33.6336 H   0  0  0  0  0  0
   20.4535    0.7637  -35.2647 H   0  0  0  0  0  0
   21.5312    2.1394  -34.8495 H   0  0  0  0  0  0
   21.8383    1.2770  -32.6009 H   0  0  0  0  0  0
   20.6543   -0.0385  -32.9075 H   0  0  0  0  0  0
   24.8371    0.3951  -34.7520 H   0  0  0  0  0  0
   24.1564    1.3855  -33.4170 H   0  0  0  0  0  0
   23.4939    1.5420  -35.0793 H   0  0  0  0  0  0
   19.0128    1.9353  -31.4870 H   0  0  0  0  0  0
   20.1944    4.5579  -30.7230 H   0  0  0  0  0  0
   19.0827    2.2189  -29.0644 H   0  0  0  0  0  0
   20.8873    3.2773  -27.7548 H   0  0  0  0  0  0
   19.2670    3.5947  -27.0471 H   0  0  0  0  0  0
   20.1072    4.8797  -27.9797 H   0  0  0  0  0  0
   17.4633    3.6566  -30.3167 H   0  0  0  0  0  0
   18.1147    5.1007  -29.4700 H   0  0  0  0  0  0
   17.2746    3.8157  -28.5374 H   0  0  0  0  0  0
   22.1485    5.0781  -29.9073 H   0  0  0  0  0  0
   24.0805    2.8051  -30.1842 H   0  0  0  0  0  0
   24.6893    5.7541  -29.5050 H   0  0  0  0  0  0
   23.4698    5.7169  -31.5948 H   0  0  0  0  0  0
   25.2092    5.9941  -31.9472 H   0  0  0  0  0  0
   26.5453    4.1464  -29.0539 H   0  0  0  0  0  0
   26.9349    5.2635  -30.4055 H   0  0  0  0  0  0
   26.4428    3.5711  -30.7525 H   0  0  0  0  0  0
   24.1909    4.5116  -33.5624 H   0  0  0  0  0  0
   23.7089    3.3810  -32.2524 H   0  0  0  0  0  0
   25.4484    3.6583  -32.6047 H   0  0  0  0  0  0
   25.0957    1.7180  -28.6452 H   0  0  0  0  0  0
   24.1411    2.1880  -25.8801 H   0  0  0  0  0  0
   27.7438    4.1153  -26.0852 H   0  0  0  0  0  0
   24.6243   -0.1087  -26.7967 H   0  0  0  0  0  0
   25.5903    0.1947  -25.3129 H   0  0  0  0  0  0
   26.3651    0.3139  -26.9292 H   0  0  0  0  0  0
  1  2  1  0  0  0
  1 81  1  0  0  0
  1 82  1  0  0  0
  1 83  1  0  0  0
  2  3  1  0  0  0
  2 84  1  0  0  0
  2 85  1  0  0  0
  3  4  2  0  0  0
  3  5  1  0  0  0
  5  6  1  0  0  0
  5 86  1  0  0  0
  6  7  1  0  0  0
  6  9  1  0  0  0
  6 87  1  0  0  0
  7  8  2  0  0  0
  7 16  1  0  0  0
  9 10  1  0  0  0
  9 88  1  0  0  0
  9 89  1  0  0  0
 10 11  2  0  0  0
 10 12  1  0  0  0
 11 13  1  0  0  0
 11 90  1  0  0  0
 12 14  2  0  0  0
 12 91  1  0  0  0
 13 15  2  0  0  0
 13 92  1  0  0  0
 14 15  1  0  0  0
 14 93  1  0  0  0
 15 94  1  0  0  0
 16 17  1  0  0  0
 16 95  1  0  0  0
 17 18  1  0  0  0
 17 20  1  0  0  0
 17 96  1  0  0  0
 18 19  2  0  0  0
 18 22  1  0  0  0
 20 21  1  0  0  0
 20 97  1  0  0  0
 20 98  1  0  0  0
 21 99  1  0  0  0
 22 23  1  0  0  0
 22100  1  0  0  0
 23 24  1  0  0  0
 23 26  1  0  0  0
 23101  1  0  0  0
 24 25  2  0  0  0
 24 30  1  0  0  0
 26 27  1  0  0  0
 26102  1  0  0  0
 26103  1  0  0  0
 27 28  1  0  0  0
 27 29  2  0  0  0
 28104  1  0  0  0
 30 31  1  0  0  0
 30105  1  0  0  0
 31 32  1  0  0  0
 31 34  1  0  0  0
 31106  1  0  0  0
 32 33  2  0  0  0
 32 38  1  0  0  0
 34 35  1  0  0  0
 34107  1  0  0  0
 34108  1  0  0  0
 35 36  2  0  0  0
 35 37  1  0  0  0
 37109  1  0  0  0
 38 39  1  0  0  0
 38110  1  0  0  0
 39 40  1  0  0  0
 39 42  1  0  0  0
 39111  1  0  0  0
 40 41  2  0  0  0
 40 45  1  0  0  0
 42 43  1  0  0  0
 42 44  1  0  0  0
 42112  1  0  0  0
 43113  1  0  0  0
 43114  1  0  0  0
 43115  1  0  0  0
 44116  1  0  0  0
 44117  1  0  0  0
 44118  1  0  0  0
 45 46  1  0  0  0
 45 51  1  0  0  0
 46 47  1  0  0  0
 46 49  1  0  0  0
 46119  1  0  0  0
 47 48  2  0  0  0
 47 52  1  0  0  0
 49 50  1  0  0  0
 49120  1  0  0  0
 49121  1  0  0  0
 50 51  1  0  0  0
 50122  1  0  0  0
 50123  1  0  0  0
 51124  1  0  0  0
 51125  1  0  0  0
 52 53  1  0  0  0
 52126  1  0  0  0
 53 54  1  0  0  0
 53 56  1  0  0  0
 53127  1  0  0  0
 54 55  2  0  0  0
 54 60  1  0  0  0
 56 57  1  0  0  0
 56128  1  0  0  0
 56129  1  0  0  0
 57 58  1  0  0  0
 57130  1  0  0  0
 57131  1  0  0  0
 58 59  1  0  0  0
 59132  1  0  0  0
 59133  1  0  0  0
 59134  1  0  0  0
 60 61  1  0  0  0
 60135  1  0  0  0
 61 62  1  0  0  0
 61 64  1  0  0  0
 61136  1  0  0  0
 62 63  2  0  0  0
 62 67  1  0  0  0
 64 65  1  0  0  0
 64 66  1  0  0  0
 64137  1  0  0  0
 65138  1  0  0  0
 65139  1  0  0  0
 65140  1  0  0  0
 66141  1  0  0  0
 66142  1  0  0  0
 66143  1  0  0  0
 67 68  1  0  0  0
 67144  1  0  0  0
 68 69  1  0  0  0
 68 71  1  0  0  0
 68145  1  0  0  0
 69 70  2  0  0  0
 69 75  1  0  0  0
 71 72  1  0  0  0
 71 73  1  0  0  0
 71146  1  0  0  0
 72 74  1  0  0  0
 72147  1  0  0  0
 72148  1  0  0  0
 73149  1  0  0  0
 73150  1  0  0  0
 73151  1  0  0  0
 74152  1  0  0  0
 74153  1  0  0  0
 74154  1  0  0  0
 75 76  1  0  0  0
 75155  1  0  0  0
 76 77  1  0  0  0
 76 79  1  0  0  0
 76156  1  0  0  0
 77 78  1  0  0  0
 77 80  2  0  0  0
 78157  1  0  0  0
 79158  1  0  0  0
 79159  1  0  0  0
 79160  1  0  0  0
M  CHG  1   1   1
M  END
> <s_m_source_file>
../3g2s_ligand.sdf

> <i_m_source_file_index>
1

> <s_epik_input>
W2NIXTFbY0hdW2NIXVtjSF1bY0hdYzFbQ0gyXVtDQEhdKFtOSF1DKD1PKVtDSDJdW05IMytdKUMoPU8pW05IXVtDQEBIXShbQ0gyXVtPSF0pQyg9TylbTkhdW0NAQEhdKFtDSDJdQyg9TylbT0hdKUMoPU8pW05IXVtDQEBIXShbQ0gyXUMoPU8pW09IXSlDKD1PKVtOSF1bQ0BASF0oW0NIXShbQ0gzXSlbQ0gzXSlDKD1PKU4yW0NAQEhdKFtDSDJdW0NIMl1bQ0gyXTIpQyg9TylbTkhdW0NAQEhdKFtDSDJdW0NIMl1TW0NIM10pQyg9TylbTkhdW0NAQEhdKFtDSF0oW0NIM10pW0NIM10pQyg9TylbTkhdW0NAQEhdKFtDQEBIXShbQ0gzXSlbQ0gyXVtDSDNdKUMoPU8pW05IXVtDQEBIXShbQ0gzXSlDKD1PKVtPSF0=

> <s_epik_cmdline>
J2VwaWtfYXBwJywgJy1pbWFlJywgJ2xpZ2FuZF9wcm8ubWFlJywgJy1vbWFlJywgJ2xpZ2FuZF9wcmVwLm1hZScsICctbXMnLCAnMScsICctcGgnLCAnNycsICctcGh0JywgJzAuNScsICctbnQn

> <s_epik_pKa_notes>
Molecule size exceeds maximum supported for generating protonation states

$$$$
