3g2t_ligand
                    3D
 Schrodinger Suite 2020-3.
133133  0  0  1  0            999 V2000
   33.1350    5.0780   15.3740 N   0  3  0  0  0  0
   31.6540    4.9900   15.2000 C   0  0  1  0  0  0
   31.1120    6.2330   14.4880 C   0  0  0  0  0  0
   30.8670    7.2910   15.4020 O   0  0  0  0  0  0
   31.2310    3.7190   14.4620 C   0  0  0  0  0  0
   30.0370    3.4730   14.2830 O   0  0  0  0  0  0
   32.2330    7.9240   15.9940 P   0  0  0  0  0  0
   33.3920    7.9050   14.8700 O   0  5  0  0  0  0
   31.9480    9.4450   16.4510 O   0  5  0  0  0  0
   32.7160    7.0760   17.2770 O   0  0  0  0  0  0
   32.2010    3.0070   13.8930 N   0  0  0  0  0  0
   33.2770    3.6450   13.1460 C   0  0  2  0  0  0
   32.6730    4.2160   11.8690 C   0  0  0  0  0  0
   32.0750    3.4860   11.0760 O   0  0  0  0  0  0
   34.3910    2.6420   12.8240 C   0  0  0  0  0  0
   33.8590    1.3240   12.2790 C   0  0  0  0  0  0
   34.5010    0.7590   11.3660 O   0  0  0  0  0  0
   32.8080    0.8490   12.7670 O   0  5  0  0  0  0
   32.7170    5.5380   11.7430 N   0  0  0  0  0  0
   31.9750    6.2350   10.7000 C   0  0  2  0  0  0
   32.9230    6.5900    9.5720 C   0  0  0  0  0  0
   34.1440    6.4340    9.7080 O   0  0  0  0  0  0
   31.3310    7.5040   11.2620 C   0  0  0  0  0  0
   30.0990    7.9350   10.4840 C   0  0  0  0  0  0
   29.7890    7.3180    9.4380 O   0  5  0  0  0  0
   29.4580    8.9210   10.9070 O   0  0  0  0  0  0
   32.3490    7.0330    8.4560 N   0  0  0  0  0  0
   33.1080    7.5810    7.3290 C   0  0  2  0  0  0
   33.0630    9.1180    7.3130 C   0  0  0  0  0  0
   32.1890    9.7280    7.9400 O   0  0  0  0  0  0
   32.5620    7.0310    5.9810 C   0  0  0  0  0  0
   32.7290    5.5160    5.9140 C   0  0  0  0  0  0
   31.0990    7.4190    5.7890 C   0  0  0  0  0  0
   33.9750    9.7520    6.5580 N   0  0  0  0  0  0
   33.9200   11.2100    6.3860 C   0  0  2  0  0  0
   32.6480   11.7070    5.6880 C   0  0  0  0  0  0
   32.0820   11.0060    4.8430 O   0  0  0  0  0  0
   35.1540   11.5110    5.5270 C   0  0  0  0  0  0
   36.0680   10.3150    5.7320 C   0  0  0  0  0  0
   35.1390    9.1570    5.8740 C   0  0  0  0  0  0
   32.2080   12.9120    6.0460 N   0  0  0  0  0  0
   31.0600   13.5320    5.3980 C   0  0  2  0  0  0
   31.3990   13.8850    3.9490 C   0  0  0  0  0  0
   32.4090   14.5280    3.6800 O   0  0  0  0  0  0
   30.6310   14.7950    6.1460 C   0  0  0  0  0  0
   29.5030   15.5600    5.4400 C   0  0  0  0  0  0
   28.7760   16.9050    6.3820 S   0  0  0  0  0  0
   30.1020   18.1000    6.4540 C   0  0  0  0  0  0
   30.5260   13.4910    3.0270 N   0  0  0  0  0  0
   30.6060   13.9290    1.6380 C   0  0  2  0  0  0
   30.0620   15.3550    1.5100 C   0  0  0  0  0  0
   29.0190   15.6870    2.0870 O   0  0  0  0  0  0
   29.7800   12.9880    0.7280 C   0  0  0  0  0  0
   29.6670   13.5460   -0.6810 C   0  0  0  0  0  0
   30.4060   11.6130    0.7030 C   0  0  0  0  0  0
   30.7620   16.1890    0.7460 N   0  0  0  0  0  0
   30.3120   17.5760    0.5030 C   0  0  2  0  0  0
   29.4510   17.6320   -0.7670 C   0  0  0  0  0  0
   29.8520   17.0960   -1.8010 O   0  0  0  0  0  0
   31.5120   18.5290    0.3070 C   0  0  2  0  0  0
   32.5170   18.3510    1.4490 C   0  0  0  0  0  0
   31.0220   19.9800    0.1810 C   0  0  0  0  0  0
   31.8380   18.3500    2.8440 C   0  0  0  0  0  0
   28.2690   18.2290   -0.6480 N   0  0  0  0  0  0
   27.2810   18.2540   -1.7150 C   0  0  2  0  0  0
   27.6840   19.1970   -2.8350 C   0  0  0  0  0  0
   28.4570   20.1320   -2.6210 O   0  0  0  0  0  0
   25.9270   18.6610   -1.1620 C   0  0  0  0  0  0
   27.1530   19.0970   -3.9490 O   0  5  0  0  0  0
   33.3869    6.0061   15.9081 H   0  0  0  0  0  0
   33.6207    5.0795   14.3870 H   0  0  0  0  0  0
   33.4879    4.2132   15.9550 H   0  0  0  0  0  0
   31.2420    4.9421   16.2188 H   0  0  0  0  0  0
   31.8451    6.5784   13.7442 H   0  0  0  0  0  0
   30.1671    5.9836   13.9830 H   0  0  0  0  0  0
   32.1776    1.9122   13.9969 H   0  0  0  0  0  0
   33.6976    4.4401   13.7791 H   0  0  0  0  0  0
   35.0635    3.0715   12.0669 H   0  0  0  0  0  0
   34.9615    2.4216   13.7383 H   0  0  0  0  0  0
   33.3347    6.1077   12.4528 H   0  0  0  0  0  0
   31.1959    5.5445   10.3447 H   0  0  0  0  0  0
   31.0255    7.3294   12.3042 H   0  0  0  0  0  0
   32.0564    8.3302   11.2261 H   0  0  0  0  0  0
   31.2519    6.9735    8.4032 H   0  0  0  0  0  0
   34.1398    7.2455    7.5101 H   0  0  0  0  0  0
   33.1338    7.4709    5.1507 H   0  0  0  0  0  0
   33.7889    5.2574    6.0545 H   0  0  0  0  0  0
   32.3899    5.1528    4.9326 H   0  0  0  0  0  0
   32.1286    5.0455    6.7066 H   0  0  0  0  0  0
   31.0001    8.5133    5.8406 H   0  0  0  0  0  0
   30.4905    6.9581    6.5810 H   0  0  0  0  0  0
   30.7517    7.0653    4.8070 H   0  0  0  0  0  0
   33.9078   11.6832    7.3790 H   0  0  0  0  0  0
   34.8511   11.6180    4.4749 H   0  0  0  0  0  0
   35.6211   12.4456    5.8709 H   0  0  0  0  0  0
   36.7301   10.2059    4.8604 H   0  0  0  0  0  0
   36.6749   10.4681    6.6366 H   0  0  0  0  0  0
   35.5573    8.3516    6.4956 H   0  0  0  0  0  0
   34.8233    8.7452    4.9040 H   0  0  0  0  0  0
   32.7355   13.4406    6.8537 H   0  0  0  0  0  0
   30.2596   12.7785    5.4381 H   0  0  0  0  0  0
   30.2713   14.5226    7.1492 H   0  0  0  0  0  0
   31.4894   15.4768    6.2369 H   0  0  0  0  0  0
   29.8874   16.0042    4.5100 H   0  0  0  0  0  0
   28.6821   14.8670    5.2034 H   0  0  0  0  0  0
   29.7686   18.9841    7.0172 H   0  0  0  0  0  0
   30.3815   18.3995    5.4331 H   0  0  0  0  0  0
   30.9723   17.6522    6.9560 H   0  0  0  0  0  0
   29.7221   12.8102    3.3436 H   0  0  0  0  0  0
   31.6746   13.8944    1.3793 H   0  0  0  0  0  0
   28.7594   12.8935    1.1274 H   0  0  0  0  0  0
   29.2099   14.5458   -0.6438 H   0  0  0  0  0  0
   29.0400   12.8786   -1.2905 H   0  0  0  0  0  0
   30.6693   13.6174   -1.1285 H   0  0  0  0  0  0
   30.4799   11.2251    1.7297 H   0  0  0  0  0  0
   31.4116   11.6759    0.2615 H   0  0  0  0  0  0
   29.7823   10.9371    0.0996 H   0  0  0  0  0  0
   31.6951   15.8258    0.2906 H   0  0  0  0  0  0
   29.7348   17.8525    1.3977 H   0  0  0  0  0  0
   32.0395   18.2826   -0.6263 H   0  0  0  0  0  0
   33.0434   17.3927    1.3282 H   0  0  0  0  0  0
   33.2457   19.1748    1.4279 H   0  0  0  0  0  0
   30.3053   20.0541   -0.6501 H   0  0  0  0  0  0
   31.8794   20.6409   -0.0142 H   0  0  0  0  0  0
   30.5306   20.2836    1.1171 H   0  0  0  0  0  0
   32.6027   18.2195    3.6239 H   0  0  0  0  0  0
   31.1138   17.5238    2.8987 H   0  0  0  0  0  0
   31.3161   19.3059    2.9984 H   0  0  0  0  0  0
   28.0535   18.7194    0.3127 H   0  0  0  0  0  0
   27.2523   17.2252   -2.1032 H   0  0  0  0  0  0
   25.6406   17.9746   -0.3515 H   0  0  0  0  0  0
   25.1750   18.6160   -1.9635 H   0  0  0  0  0  0
   25.9844   19.6873   -0.7703 H   0  0  0  0  0  0
  1  2  1  0  0  0
  1 70  1  0  0  0
  1 71  1  0  0  0
  1 72  1  0  0  0
  2  3  1  0  0  0
  2  5  1  0  0  0
  2 73  1  0  0  0
  3  4  1  0  0  0
  3 74  1  0  0  0
  3 75  1  0  0  0
  4  7  1  0  0  0
  5  6  2  0  0  0
  5 11  1  0  0  0
  7  8  1  0  0  0
  7  9  1  0  0  0
  7 10  2  0  0  0
 11 12  1  0  0  0
 11 76  1  0  0  0
 12 13  1  0  0  0
 12 15  1  0  0  0
 12 77  1  0  0  0
 13 14  2  0  0  0
 13 19  1  0  0  0
 15 16  1  0  0  0
 15 78  1  0  0  0
 15 79  1  0  0  0
 16 17  2  0  0  0
 16 18  1  0  0  0
 19 20  1  0  0  0
 19 80  1  0  0  0
 20 21  1  0  0  0
 20 23  1  0  0  0
 20 81  1  0  0  0
 21 22  2  0  0  0
 21 27  1  0  0  0
 23 24  1  0  0  0
 23 82  1  0  0  0
 23 83  1  0  0  0
 24 25  1  0  0  0
 24 26  2  0  0  0
 27 28  1  0  0  0
 27 84  1  0  0  0
 28 29  1  0  0  0
 28 31  1  0  0  0
 28 85  1  0  0  0
 29 30  2  0  0  0
 29 34  1  0  0  0
 31 32  1  0  0  0
 31 33  1  0  0  0
 31 86  1  0  0  0
 32 87  1  0  0  0
 32 88  1  0  0  0
 32 89  1  0  0  0
 33 90  1  0  0  0
 33 91  1  0  0  0
 33 92  1  0  0  0
 34 35  1  0  0  0
 34 40  1  0  0  0
 35 36  1  0  0  0
 35 38  1  0  0  0
 35 93  1  0  0  0
 36 37  2  0  0  0
 36 41  1  0  0  0
 38 39  1  0  0  0
 38 94  1  0  0  0
 38 95  1  0  0  0
 39 40  1  0  0  0
 39 96  1  0  0  0
 39 97  1  0  0  0
 40 98  1  0  0  0
 40 99  1  0  0  0
 41 42  1  0  0  0
 41100  1  0  0  0
 42 43  1  0  0  0
 42 45  1  0  0  0
 42101  1  0  0  0
 43 44  2  0  0  0
 43 49  1  0  0  0
 45 46  1  0  0  0
 45102  1  0  0  0
 45103  1  0  0  0
 46 47  1  0  0  0
 46104  1  0  0  0
 46105  1  0  0  0
 47 48  1  0  0  0
 48106  1  0  0  0
 48107  1  0  0  0
 48108  1  0  0  0
 49 50  1  0  0  0
 49109  1  0  0  0
 50 51  1  0  0  0
 50 53  1  0  0  0
 50110  1  0  0  0
 51 52  2  0  0  0
 51 56  1  0  0  0
 53 54  1  0  0  0
 53 55  1  0  0  0
 53111  1  0  0  0
 54112  1  0  0  0
 54113  1  0  0  0
 54114  1  0  0  0
 55115  1  0  0  0
 55116  1  0  0  0
 55117  1  0  0  0
 56 57  1  0  0  0
 56118  1  0  0  0
 57 58  1  0  0  0
 57 60  1  0  0  0
 57119  1  0  0  0
 58 59  2  0  0  0
 58 64  1  0  0  0
 60 61  1  0  0  0
 60 62  1  0  0  0
 60120  1  0  0  0
 61 63  1  0  0  0
 61121  1  0  0  0
 61122  1  0  0  0
 62123  1  0  0  0
 62124  1  0  0  0
 62125  1  0  0  0
 63126  1  0  0  0
 63127  1  0  0  0
 63128  1  0  0  0
 64 65  1  0  0  0
 64129  1  0  0  0
 65 66  1  0  0  0
 65 68  1  0  0  0
 65130  1  0  0  0
 66 67  2  0  0  0
 66 69  1  0  0  0
 68131  1  0  0  0
 68132  1  0  0  0
 68133  1  0  0  0
M  CHG  6   1   1   8  -1   9  -1  18  -1  25  -1  69  -1
M  END
> <s_m_source_file>
../3g2t_ligand.sdf

> <i_m_source_file_index>
1

> <s_epik_input>
W09IXVAoPU8pKFtPSF0pT1tDSDJdW0NASF0oW05IMytdKUMoPU8pW05IXVtDQEBIXShbQ0gyXUMoPU8pW09IXSlDKD1PKVtOSF1bQ0BASF0oW0NIMl1DKD1PKVtPSF0pQyg9TylbTkhdW0NAQEhdKFtDSF0oW0NIM10pW0NIM10pQyg9TylOMVtDQEBIXShbQ0gyXVtDSDJdW0NIMl0xKUMoPU8pW05IXVtDQEBIXShbQ0gyXVtDSDJdU1tDSDNdKUMoPU8pW05IXVtDQEBIXShbQ0hdKFtDSDNdKVtDSDNdKUMoPU8pW05IXVtDQEBIXShbQ0BASF0oW0NIM10pW0NIMl1bQ0gzXSlDKD1PKVtOSF1bQ0BASF0oW0NIM10pQyg9TylbT0hd

> <s_epik_cmdline>
J2VwaWtfYXBwJywgJy1pbWFlJywgJ2xpZ2FuZF9wcm8ubWFlJywgJy1vbWFlJywgJ2xpZ2FuZF9wcmVwLm1hZScsICctbXMnLCAnMScsICctcGgnLCAnNycsICctcGh0JywgJzAuNScsICctbnQn

> <r_epik_Ionization_Penalty>
  0.3548

> <r_epik_Ionization_Penalty_Charging>
  0.3548

> <r_epik_Ionization_Penalty_Neutral>
  0.0000

> <r_epik_State_Penalty>
  0.3186

> <r_epik_Charging_Adjusted_Penalty>
0.673353005347261

> <i_epik_Tot_Q>
-4

> <i_epik_Tot_abs_Q>
6

$$$$
