3g2u_ligand
                    3D
 Schrodinger Suite 2020-3.
106105  0  0  1  0            999 V2000
  -12.1160   -6.5590   -7.1490 N   0  3  0  0  0  0
  -11.4160   -6.4270   -5.8400 C   0  0  2  0  0  0
  -10.3950   -7.5500   -5.6630 C   0  0  0  0  0  0
   -9.6830   -7.5960   -4.6540 O   0  0  0  0  0  0
  -12.4290   -6.4320   -4.6860 C   0  0  0  0  0  0
  -11.7880   -6.5220   -3.4210 O   0  0  0  0  0  0
  -10.3560   -8.4720   -6.6250 N   0  0  0  0  0  0
   -9.1740   -9.3140   -6.8490 C   0  0  2  0  0  0
   -9.2710  -10.1750   -8.1110 C   0  0  0  0  0  0
  -10.3510  -10.6410   -8.4830 O   0  0  0  0  0  0
   -8.8990  -10.2070   -5.6340 C   0  0  0  0  0  0
   -7.4770  -10.7350   -5.6090 C   0  0  0  0  0  0
   -6.6390  -10.2640   -6.4160 O   0  5  0  0  0  0
   -7.1830  -11.5810   -4.7420 O   0  0  0  0  0  0
   -8.1160  -10.4530   -8.7080 N   0  0  0  0  0  0
   -8.0040  -11.4520   -9.7650 C   0  0  2  0  0  0
   -8.3490  -12.8450   -9.2550 C   0  0  0  0  0  0
   -8.2990  -13.1080   -8.0570 O   0  0  0  0  0  0
   -6.5960  -11.4420  -10.3680 C   0  0  0  0  0  0
   -6.4490  -10.5160  -11.5660 C   0  0  0  0  0  0
   -4.9980  -10.2210  -11.9110 C   0  0  0  0  0  0
   -4.2360  -11.1730  -12.2280 O   0  5  0  0  0  0
   -4.6260   -9.0250  -11.8760 O   0  0  0  0  0  0
   -8.6560  -13.7470  -10.1790 N   0  0  0  0  0  0
   -8.6380  -15.1710   -9.8850 C   0  0  2  0  0  0
   -7.2100  -15.7100   -9.8270 C   0  0  0  0  0  0
   -6.3110  -15.2110  -10.5070 O   0  0  0  0  0  0
   -9.4610  -15.9570  -10.9170 C   0  0  0  0  0  0
  -10.9040  -15.4660  -11.0170 C   0  0  0  0  0  0
  -11.4000  -15.3040  -12.1530 O   0  0  0  0  0  0
  -11.5370  -15.2250   -9.9630 O   0  5  0  0  0  0
   -7.0200  -16.7410   -9.0130 N   0  0  0  0  0  0
   -5.7700  -17.4620   -8.9810 C   0  0  2  0  0  0
   -5.4070  -17.9690  -10.3790 C   0  0  0  0  0  0
   -6.1860  -18.6730  -11.0170 O   0  0  0  0  0  0
   -5.8470  -18.6240   -7.9920 C   0  0  0  0  0  0
   -4.6120  -19.5230   -7.9640 C   0  0  0  0  0  0
   -3.3380  -18.7140   -7.6780 C   0  0  0  0  0  0
   -4.7920  -20.6560   -6.9610 C   0  0  0  0  0  0
   -4.2160  -17.6010  -10.8390 N   0  0  0  0  0  0
   -3.6920  -18.0700  -12.1090 C   0  0  2  0  0  0
   -3.2250  -19.5120  -11.9820 C   0  0  0  0  0  0
   -2.2640  -19.8010  -11.2750 O   0  0  0  0  0  0
   -2.5340  -17.1690  -12.5570 C   0  0  0  0  0  0
   -1.7870  -17.4930  -13.8510 C   0  0  0  0  0  0
   -2.7350  -17.4130  -15.0490 C   0  0  0  0  0  0
   -0.6140  -16.5420  -14.0330 C   0  0  0  0  0  0
   -3.9100  -20.4200  -12.6660 N   0  0  0  0  0  0
   -3.4570  -21.8090  -12.7640 C   0  0  2  0  0  0
   -2.1890  -21.9740  -13.6240 C   0  0  0  0  0  0
   -1.0850  -22.1500  -13.0970 O   0  0  0  0  0  0
   -4.5860  -22.7020  -13.2740 C   0  0  0  0  0  0
   -5.8220  -22.6820  -12.3720 C   0  0  0  0  0  0
   -5.5620  -23.2710  -10.9870 C   0  0  0  0  0  0
   -4.8430  -24.2900  -10.8970 O   0  0  0  0  0  0
   -6.1700  -22.7890  -10.0050 O   0  5  0  0  0  0
   -2.2120  -21.8630  -14.8560 O   0  5  0  0  0  0
  -11.3759   -6.5536   -7.9628 H   0  0  0  0  0  0
  -12.8110   -5.7164   -7.2798 H   0  0  0  0  0  0
  -12.6778   -7.5045   -7.1706 H   0  0  0  0  0  0
  -10.8865   -5.4630   -5.8568 H   0  0  0  0  0  0
  -13.0165   -5.5024   -4.7099 H   0  0  0  0  0  0
  -13.1031   -7.2946   -4.7935 H   0  0  0  0  0  0
  -12.3889   -6.5360   -2.4997 H   0  0  0  0  0  0
  -11.2454   -8.5921   -7.2610 H   0  0  0  0  0  0
   -8.3666   -8.5806   -6.9913 H   0  0  0  0  0  0
   -9.0619   -9.6309   -4.7112 H   0  0  0  0  0  0
   -9.5800  -11.0707   -5.6521 H   0  0  0  0  0  0
   -7.2249   -9.8987   -8.3784 H   0  0  0  0  0  0
   -8.7472  -11.1519  -10.5184 H   0  0  0  0  0  0
   -5.8738  -11.1100   -9.6076 H   0  0  0  0  0  0
   -6.3340  -12.4560  -10.7045 H   0  0  0  0  0  0
   -6.9153  -10.9801  -12.4476 H   0  0  0  0  0  0
   -6.9439   -9.5574  -11.3514 H   0  0  0  0  0  0
   -8.9283  -13.3966  -11.1855 H   0  0  0  0  0  0
   -9.0990  -15.2487   -8.8893 H   0  0  0  0  0  0
   -8.9998  -15.8525  -11.9102 H   0  0  0  0  0  0
   -9.4854  -17.0197  -10.6340 H   0  0  0  0  0  0
   -7.8457  -17.0421   -8.3515 H   0  0  0  0  0  0
   -5.0244  -16.7287   -8.6399 H   0  0  0  0  0  0
   -5.9762  -18.2303   -6.9730 H   0  0  0  0  0  0
   -6.7020  -19.2671   -8.2477 H   0  0  0  0  0  0
   -4.5007  -19.9770   -8.9597 H   0  0  0  0  0  0
   -3.2416  -17.9075   -8.4198 H   0  0  0  0  0  0
   -2.4617  -19.3760   -7.7401 H   0  0  0  0  0  0
   -3.3984  -18.2793   -6.6694 H   0  0  0  0  0  0
   -5.7117  -21.2116   -7.1966 H   0  0  0  0  0  0
   -4.8655  -20.2388   -5.9459 H   0  0  0  0  0  0
   -3.9287  -21.3355   -7.0166 H   0  0  0  0  0  0
   -3.6212  -16.9147  -10.2183 H   0  0  0  0  0  0
   -4.5242  -18.0156  -12.8263 H   0  0  0  0  0  0
   -2.9037  -16.1438  -12.7065 H   0  0  0  0  0  0
   -1.7508  -17.1673  -11.7847 H   0  0  0  0  0  0
   -1.3923  -18.5177  -13.7860 H   0  0  0  0  0  0
   -3.5752  -18.1068  -14.8986 H   0  0  0  0  0  0
   -2.1920  -17.6879  -15.9653 H   0  0  0  0  0  0
   -3.1194  -16.3868  -15.1445 H   0  0  0  0  0  0
    0.0549  -16.6142  -13.1628 H   0  0  0  0  0  0
   -0.9881  -15.5115  -14.1235 H   0  0  0  0  0  0
   -0.0606  -16.8126  -14.9443 H   0  0  0  0  0  0
   -4.8385  -20.1077  -13.1663 H   0  0  0  0  0  0
   -3.2014  -22.0784  -11.7286 H   0  0  0  0  0  0
   -4.8976  -22.3642  -14.2734 H   0  0  0  0  0  0
   -4.2330  -23.7422  -13.3321 H   0  0  0  0  0  0
   -6.1591  -21.6439  -12.2349 H   0  0  0  0  0  0
   -6.6261  -23.2699  -12.8387 H   0  0  0  0  0  0
  1  2  1  0  0  0
  1 58  1  0  0  0
  1 59  1  0  0  0
  1 60  1  0  0  0
  2  3  1  0  0  0
  2  5  1  0  0  0
  2 61  1  0  0  0
  3  4  2  0  0  0
  3  7  1  0  0  0
  5  6  1  0  0  0
  5 62  1  0  0  0
  5 63  1  0  0  0
  6 64  1  0  0  0
  7  8  1  0  0  0
  7 65  1  0  0  0
  8  9  1  0  0  0
  8 11  1  0  0  0
  8 66  1  0  0  0
  9 10  2  0  0  0
  9 15  1  0  0  0
 11 12  1  0  0  0
 11 67  1  0  0  0
 11 68  1  0  0  0
 12 13  1  0  0  0
 12 14  2  0  0  0
 15 16  1  0  0  0
 15 69  1  0  0  0
 16 17  1  0  0  0
 16 19  1  0  0  0
 16 70  1  0  0  0
 17 18  2  0  0  0
 17 24  1  0  0  0
 19 20  1  0  0  0
 19 71  1  0  0  0
 19 72  1  0  0  0
 20 21  1  0  0  0
 20 73  1  0  0  0
 20 74  1  0  0  0
 21 22  1  0  0  0
 21 23  2  0  0  0
 24 25  1  0  0  0
 24 75  1  0  0  0
 25 26  1  0  0  0
 25 28  1  0  0  0
 25 76  1  0  0  0
 26 27  2  0  0  0
 26 32  1  0  0  0
 28 29  1  0  0  0
 28 77  1  0  0  0
 28 78  1  0  0  0
 29 30  2  0  0  0
 29 31  1  0  0  0
 32 33  1  0  0  0
 32 79  1  0  0  0
 33 34  1  0  0  0
 33 36  1  0  0  0
 33 80  1  0  0  0
 34 35  2  0  0  0
 34 40  1  0  0  0
 36 37  1  0  0  0
 36 81  1  0  0  0
 36 82  1  0  0  0
 37 38  1  0  0  0
 37 39  1  0  0  0
 37 83  1  0  0  0
 38 84  1  0  0  0
 38 85  1  0  0  0
 38 86  1  0  0  0
 39 87  1  0  0  0
 39 88  1  0  0  0
 39 89  1  0  0  0
 40 41  1  0  0  0
 40 90  1  0  0  0
 41 42  1  0  0  0
 41 44  1  0  0  0
 41 91  1  0  0  0
 42 43  2  0  0  0
 42 48  1  0  0  0
 44 45  1  0  0  0
 44 92  1  0  0  0
 44 93  1  0  0  0
 45 46  1  0  0  0
 45 47  1  0  0  0
 45 94  1  0  0  0
 46 95  1  0  0  0
 46 96  1  0  0  0
 46 97  1  0  0  0
 47 98  1  0  0  0
 47 99  1  0  0  0
 47100  1  0  0  0
 48 49  1  0  0  0
 48101  1  0  0  0
 49 50  1  0  0  0
 49 52  1  0  0  0
 49102  1  0  0  0
 50 51  2  0  0  0
 50 57  1  0  0  0
 52 53  1  0  0  0
 52103  1  0  0  0
 52104  1  0  0  0
 53 54  1  0  0  0
 53105  1  0  0  0
 53106  1  0  0  0
 54 55  2  0  0  0
 54 56  1  0  0  0
M  CHG  6   1   1  13  -1  22  -1  31  -1  56  -1  57  -1
M  END
> <s_m_source_file>
../3g2u_ligand.sdf

> <i_m_source_file_index>
1

> <s_epik_input>
W09IXVtDSDJdW0NASF0oW05IMytdKUMoPU8pW05IXVtDQEBIXShbQ0gyXUMoPU8pW09IXSlDKD1PKVtOSF1bQ0BASF0oW0NIMl1bQ0gyXUMoPU8pW09IXSlDKD1PKVtOSF1bQ0BASF0oW0NIMl1DKD1PKVtPSF0pQyg9TylbTkhdW0NAQEhdKFtDSDJdW0NIXShbQ0gzXSlbQ0gzXSlDKD1PKVtOSF1bQ0BASF0oW0NIMl1bQ0hdKFtDSDNdKVtDSDNdKUMoPU8pW05IXVtDQEhdKEMoPU8pW09IXSlbQ0gyXVtDSDJdQyg9TylbT0hd

> <s_epik_cmdline>
J2VwaWtfYXBwJywgJy1pbWFlJywgJ2xpZ2FuZF9wcm8ubWFlJywgJy1vbWFlJywgJ2xpZ2FuZF9wcmVwLm1hZScsICctbXMnLCAnMScsICctcGgnLCAnNycsICctcGh0JywgJzAuNScsICctbnQn

> <r_epik_Ionization_Penalty>
  0.1590

> <r_epik_Ionization_Penalty_Charging>
  0.1590

> <r_epik_Ionization_Penalty_Neutral>
  0.0000

> <r_epik_State_Penalty>
  0.1380

> <r_epik_Charging_Adjusted_Penalty>
0.297025406316426

> <i_epik_Tot_Q>
-4

> <i_epik_Tot_abs_Q>
6

$$$$
