3g2v_ligand
                    3D
 Schrodinger Suite 2020-3.
136135  0  0  1  0            999 V2000
   -9.8880   -4.6760    1.6610 N   0  3  0  0  0  0
  -10.7770   -5.2080    0.5910 C   0  0  2  0  0  0
  -10.4940   -6.6800    0.2850 C   0  0  0  0  0  0
   -9.3520   -7.1410    0.3420 O   0  0  0  0  0  0
  -10.6670   -4.3470   -0.6630 C   0  0  0  0  0  0
  -11.5070   -4.8600   -1.8060 C   0  0  0  0  0  0
  -12.6660   -4.4030   -1.9480 O   0  5  0  0  0  0
  -10.9640   -5.6300   -2.6280 O   0  0  0  0  0  0
  -11.5570   -7.4060   -0.0370 N   0  0  0  0  0  0
  -11.5990   -8.8630    0.0480 C   0  0  2  0  0  0
  -11.4340   -9.4760   -1.3430 C   0  0  0  0  0  0
  -11.2400  -10.6850   -1.4910 O   0  0  0  0  0  0
  -12.9630   -9.2820    0.6220 C   0  0  0  0  0  0
  -14.1420   -8.6570   -0.1420 C   0  0  0  0  0  0
  -14.1030   -7.4350   -0.4320 O   0  5  0  0  0  0
  -15.0910   -9.3970   -0.4910 O   0  0  0  0  0  0
  -11.6000   -8.6450   -2.3640 N   0  0  0  0  0  0
  -11.5870   -9.1230   -3.7360 C   0  0  1  0  0  0
  -12.3110   -8.1380   -4.6630 C   0  0  0  0  0  0
  -13.5780   -7.7980   -4.1150 O   0  0  0  0  0  0
  -10.1710   -9.3810   -4.2270 C   0  0  0  0  0  0
   -9.2000   -8.7910   -3.7370 O   0  0  0  0  0  0
  -14.7390   -7.7420   -5.2310 P   0  0  0  0  0  0
  -16.1340   -7.5310   -4.4540 O   0  5  0  0  0  0
  -14.8250   -9.1060   -6.0790 O   0  0  0  0  0  0
  -14.4340   -6.5310   -6.2490 O   0  0  0  0  0  0
  -10.0720  -10.2070   -5.2530 N   0  0  0  0  0  0
   -8.7930  -10.7690   -5.6450 C   0  0  2  0  0  0
   -8.9730  -11.4460   -7.0000 C   0  0  0  0  0  0
  -10.1060  -11.7080   -7.4280 O   0  0  0  0  0  0
   -8.3460  -11.7820   -4.5840 C   0  0  0  0  0  0
   -6.8460  -12.0180   -4.5830 C   0  0  0  0  0  0
   -6.1350  -11.4160   -5.4230 O   0  5  0  0  0  0
   -6.3910  -12.8380   -3.7560 O   0  0  0  0  0  0
   -7.8600  -11.7430   -7.6610 N   0  0  0  0  0  0
   -7.8750  -12.5970   -8.8460 C   0  0  2  0  0  0
   -8.0960  -14.0480   -8.4510 C   0  0  0  0  0  0
   -7.9820  -14.4050   -7.2780 O   0  0  0  0  0  0
   -6.5520  -12.4610   -9.6100 C   0  0  0  0  0  0
   -6.3070  -11.0870  -10.1770 C   0  0  0  0  0  0
   -4.9610  -10.9630  -10.8800 C   0  0  0  0  0  0
   -4.2800  -12.0020  -11.0990 O   0  5  0  0  0  0
   -4.5980   -9.8140  -11.2410 O   0  0  0  0  0  0
   -8.4020  -14.8890   -9.4320 N   0  0  0  0  0  0
   -8.2860  -16.3310   -9.2620 C   0  0  2  0  0  0
   -6.8030  -16.7090   -9.1480 C   0  0  0  0  0  0
   -5.9690  -16.1740   -9.8730 O   0  0  0  0  0  0
   -8.8750  -17.0600  -10.4670 C   0  0  0  0  0  0
  -10.3580  -16.7600  -10.6820 C   0  0  0  0  0  0
  -10.8020  -16.8630  -11.8460 O   0  0  0  0  0  0
  -11.0750  -16.4490   -9.7020 O   0  0  0  0  0  0
   -6.5060  -17.7110   -8.3250 N   0  0  0  0  0  0
   -5.2010  -18.3680   -8.3580 C   0  0  2  0  0  0
   -4.8750  -18.8430   -9.7760 C   0  0  0  0  0  0
   -5.6620  -19.5690  -10.3890 O   0  0  0  0  0  0
   -5.1870  -19.5540   -7.4000 C   0  0  0  0  0  0
   -3.9660  -20.4710   -7.4420 C   0  0  0  0  0  0
   -2.6960  -19.6930   -7.1300 C   0  0  0  0  0  0
   -4.1390  -21.6150   -6.4680 C   0  0  0  0  0  0
   -3.7390  -18.3880  -10.3020 N   0  0  0  0  0  0
   -3.2470  -18.8140  -11.6100 C   0  0  2  0  0  0
   -2.7610  -20.2550  -11.5690 C   0  0  0  0  0  0
   -1.6840  -20.5440  -11.0570 O   0  0  0  0  0  0
   -2.1150  -17.8980  -12.0730 C   0  0  0  0  0  0
   -1.5630  -18.1320  -13.4760 C   0  0  0  0  0  0
   -2.6870  -17.9710  -14.5090 C   0  0  0  0  0  0
   -0.4260  -17.1590  -13.7520 C   0  0  0  0  0  0
   -3.5870  -21.1670  -12.0630 N   0  0  0  0  0  0
   -3.1920  -22.5600  -12.1640 C   0  0  2  0  0  0
   -2.9280  -22.9420  -13.6220 C   0  0  0  0  0  0
   -2.0430  -22.3770  -14.2930 O   0  5  0  0  0  0
   -4.2560  -23.4560  -11.5310 C   0  0  0  0  0  0
   -4.3400  -23.3090  -10.0200 C   0  0  0  0  0  0
   -5.6020  -23.8990   -9.4270 C   0  0  0  0  0  0
   -5.5020  -24.9310   -8.7230 O   0  0  0  0  0  0
   -6.6880  -23.3110   -9.6300 O   0  0  0  0  0  0
   -3.6110  -23.8110  -14.1680 O   0  0  0  0  0  0
   -9.9772   -5.3057    2.5585 H   0  0  0  0  0  0
  -10.1846   -3.6453    1.9053 H   0  0  0  0  0  0
   -8.8457   -4.6841    1.3094 H   0  0  0  0  0  0
  -11.8028   -5.1448    0.9831 H   0  0  0  0  0  0
  -11.0013   -3.3239   -0.4358 H   0  0  0  0  0  0
   -9.6206   -4.3242   -1.0015 H   0  0  0  0  0  0
  -12.4402   -6.8496   -0.3839 H   0  0  0  0  0  0
  -10.7657   -9.1691    0.6976 H   0  0  0  0  0  0
  -13.0646  -10.3758    0.5645 H   0  0  0  0  0  0
  -13.0329   -8.9620    1.6721 H   0  0  0  0  0  0
  -11.7496   -7.5753   -2.1556 H   0  0  0  0  0  0
  -12.1267  -10.0808   -3.6994 H   0  0  0  0  0  0
  -11.7067   -7.2254   -4.7720 H   0  0  0  0  0  0
  -12.4558   -8.6020   -5.6498 H   0  0  0  0  0  0
  -14.3360   -5.5037   -5.8681 H   0  0  0  0  0  0
  -10.9820  -10.4669   -5.8136 H   0  0  0  0  0  0
   -8.0600   -9.9519   -5.7160 H   0  0  0  0  0  0
   -8.6270  -11.4154   -3.5857 H   0  0  0  0  0  0
   -8.8360  -12.7490   -4.7708 H   0  0  0  0  0  0
   -6.9097  -11.3276   -7.2944 H   0  0  0  0  0  0
   -8.7177  -12.2492   -9.4616 H   0  0  0  0  0  0
   -5.7137  -12.6863   -8.9344 H   0  0  0  0  0  0
   -6.5421  -13.1659  -10.4544 H   0  0  0  0  0  0
   -7.0902  -10.8485  -10.9116 H   0  0  0  0  0  0
   -6.3285  -10.3458   -9.3645 H   0  0  0  0  0  0
   -8.7497  -14.4743  -10.3897 H   0  0  0  0  0  0
   -8.8494  -16.5736   -8.3489 H   0  0  0  0  0  0
   -8.3379  -16.7564  -11.3777 H   0  0  0  0  0  0
   -8.7716  -18.1459  -10.3251 H   0  0  0  0  0  0
  -12.1433  -16.2317   -9.8490 H   0  0  0  0  0  0
   -7.2708  -18.0427   -7.6073 H   0  0  0  0  0  0
   -4.4722  -17.6098   -8.0355 H   0  0  0  0  0  0
   -5.2447  -19.1891   -6.3639 H   0  0  0  0  0  0
   -6.0497  -20.2039   -7.6084 H   0  0  0  0  0  0
   -3.8715  -20.8910   -8.4543 H   0  0  0  0  0  0
   -2.5869  -18.8663   -7.8474 H   0  0  0  0  0  0
   -1.8271  -20.3631   -7.2078 H   0  0  0  0  0  0
   -2.7560  -19.2873   -6.1093 H   0  0  0  0  0  0
   -5.0607  -22.1652   -6.7086 H   0  0  0  0  0  0
   -4.2055  -21.2181   -5.4443 H   0  0  0  0  0  0
   -3.2766  -22.2938   -6.5428 H   0  0  0  0  0  0
   -3.1645  -17.6619   -9.7081 H   0  0  0  0  0  0
   -4.1094  -18.7382  -12.2886 H   0  0  0  0  0  0
   -2.4607  -16.8538  -12.0622 H   0  0  0  0  0  0
   -1.2551  -18.0066  -11.3956 H   0  0  0  0  0  0
   -1.1606  -19.1533  -13.5462 H   0  0  0  0  0  0
   -3.4942  -18.6844  -14.2867 H   0  0  0  0  0  0
   -2.2905  -18.1680  -15.5160 H   0  0  0  0  0  0
   -3.0817  -16.9452  -14.4645 H   0  0  0  0  0  0
    0.3641  -17.2953  -12.9989 H   0  0  0  0  0  0
   -0.8057  -16.1278  -13.7026 H   0  0  0  0  0  0
   -0.0146  -17.3506  -14.7540 H   0  0  0  0  0  0
   -4.5861  -20.8529  -12.3992 H   0  0  0  0  0  0
   -2.2544  -22.6502  -11.5959 H   0  0  0  0  0  0
   -5.2429  -23.2020  -11.9452 H   0  0  0  0  0  0
   -4.0263  -24.5092  -11.7504 H   0  0  0  0  0  0
   -3.4855  -23.8212   -9.5537 H   0  0  0  0  0  0
   -4.3177  -22.2420   -9.7536 H   0  0  0  0  0  0
   -6.4011  -25.3829   -8.2786 H   0  0  0  0  0  0
  1  2  1  0  0  0
  1 78  1  0  0  0
  1 79  1  0  0  0
  1 80  1  0  0  0
  2  3  1  0  0  0
  2  5  1  0  0  0
  2 81  1  0  0  0
  3  4  2  0  0  0
  3  9  1  0  0  0
  5  6  1  0  0  0
  5 82  1  0  0  0
  5 83  1  0  0  0
  6  7  1  0  0  0
  6  8  2  0  0  0
  9 10  1  0  0  0
  9 84  1  0  0  0
 10 11  1  0  0  0
 10 13  1  0  0  0
 10 85  1  0  0  0
 11 12  2  0  0  0
 11 17  1  0  0  0
 13 14  1  0  0  0
 13 86  1  0  0  0
 13 87  1  0  0  0
 14 15  1  0  0  0
 14 16  2  0  0  0
 17 18  1  0  0  0
 17 88  1  0  0  0
 18 19  1  0  0  0
 18 21  1  0  0  0
 18 89  1  0  0  0
 19 20  1  0  0  0
 19 90  1  0  0  0
 19 91  1  0  0  0
 20 23  1  0  0  0
 21 22  2  0  0  0
 21 27  1  0  0  0
 23 24  1  0  0  0
 23 25  2  0  0  0
 23 26  1  0  0  0
 26 92  1  0  0  0
 27 28  1  0  0  0
 27 93  1  0  0  0
 28 29  1  0  0  0
 28 31  1  0  0  0
 28 94  1  0  0  0
 29 30  2  0  0  0
 29 35  1  0  0  0
 31 32  1  0  0  0
 31 95  1  0  0  0
 31 96  1  0  0  0
 32 33  1  0  0  0
 32 34  2  0  0  0
 35 36  1  0  0  0
 35 97  1  0  0  0
 36 37  1  0  0  0
 36 39  1  0  0  0
 36 98  1  0  0  0
 37 38  2  0  0  0
 37 44  1  0  0  0
 39 40  1  0  0  0
 39 99  1  0  0  0
 39100  1  0  0  0
 40 41  1  0  0  0
 40101  1  0  0  0
 40102  1  0  0  0
 41 42  1  0  0  0
 41 43  2  0  0  0
 44 45  1  0  0  0
 44103  1  0  0  0
 45 46  1  0  0  0
 45 48  1  0  0  0
 45104  1  0  0  0
 46 47  2  0  0  0
 46 52  1  0  0  0
 48 49  1  0  0  0
 48105  1  0  0  0
 48106  1  0  0  0
 49 50  2  0  0  0
 49 51  1  0  0  0
 51107  1  0  0  0
 52 53  1  0  0  0
 52108  1  0  0  0
 53 54  1  0  0  0
 53 56  1  0  0  0
 53109  1  0  0  0
 54 55  2  0  0  0
 54 60  1  0  0  0
 56 57  1  0  0  0
 56110  1  0  0  0
 56111  1  0  0  0
 57 58  1  0  0  0
 57 59  1  0  0  0
 57112  1  0  0  0
 58113  1  0  0  0
 58114  1  0  0  0
 58115  1  0  0  0
 59116  1  0  0  0
 59117  1  0  0  0
 59118  1  0  0  0
 60 61  1  0  0  0
 60119  1  0  0  0
 61 62  1  0  0  0
 61 64  1  0  0  0
 61120  1  0  0  0
 62 63  2  0  0  0
 62 68  1  0  0  0
 64 65  1  0  0  0
 64121  1  0  0  0
 64122  1  0  0  0
 65 66  1  0  0  0
 65 67  1  0  0  0
 65123  1  0  0  0
 66124  1  0  0  0
 66125  1  0  0  0
 66126  1  0  0  0
 67127  1  0  0  0
 67128  1  0  0  0
 67129  1  0  0  0
 68 69  1  0  0  0
 68130  1  0  0  0
 69 70  1  0  0  0
 69 72  1  0  0  0
 69131  1  0  0  0
 70 71  1  0  0  0
 70 77  2  0  0  0
 72 73  1  0  0  0
 72132  1  0  0  0
 72133  1  0  0  0
 73 74  1  0  0  0
 73134  1  0  0  0
 73135  1  0  0  0
 74 75  1  0  0  0
 74 76  2  0  0  0
 75136  1  0  0  0
M  CHG  7   1   1   7  -1  15  -1  24  -1  33  -1  42  -1  71  -1
M  END
> <s_m_source_file>
../3g2v_ligand.sdf

> <i_m_source_file_index>
1

> <s_epik_input>
W09IXUMoPU8pW0NIMl1bQ0BIXShbTkgzK10pQyg9TylbTkhdW0NAQEhdKFtDSDJdQyg9TylbT0hdKUMoPU8pW05IXVtDQEBIXShbQ0gyXU9QKD1PKShbT0hdKVtPSF0pQyg9TylbTkhdW0NAQEhdKFtDSDJdQyg9TylbT0hdKUMoPU8pW05IXVtDQEBIXShbQ0gyXVtDSDJdQyg9TylbT0hdKUMoPU8pW05IXVtDQEBIXShbQ0gyXUMoPU8pW09IXSlDKD1PKVtOSF1bQ0BASF0oW0NIMl1bQ0hdKFtDSDNdKVtDSDNdKUMoPU8pW05IXVtDQEBIXShbQ0gyXVtDSF0oW0NIM10pW0NIM10pQyg9TylbTkhdW0NASF0oQyg9TylbT0hdKVtDSDJdW0NIMl1DKD1PKVtPSF0=

> <s_epik_cmdline>
J2VwaWtfYXBwJywgJy1pbWFlJywgJ2xpZ2FuZF9wcm8ubWFlJywgJy1vbWFlJywgJ2xpZ2FuZF9wcmVwLm1hZScsICctbXMnLCAnMScsICctcGgnLCAnNycsICctcGh0JywgJzAuNScsICctbnQn

> <r_epik_Ionization_Penalty>
  7.2506

> <r_epik_Ionization_Penalty_Charging>
  0.0243

> <r_epik_Ionization_Penalty_Neutral>
  7.2263

> <r_epik_State_Penalty>
  0.3840

> <r_epik_Charging_Adjusted_Penalty>
0.408347010789211

> <i_epik_Tot_Q>
-5

> <i_epik_Tot_abs_Q>
7

$$$$
