3g2w_ligand
                    3D
 Schrodinger Suite 2020-3.
146145  0  0  1  0            999 V2000
   -8.4790   -4.6330   -3.9980 N   0  3  0  0  0  0
   -9.8730   -4.2690   -4.0340 C   0  0  2  0  0  0
  -10.7610   -5.4700   -4.1630 C   0  0  0  0  0  0
  -11.8860   -5.4090   -3.7160 O   0  0  0  0  0  0
  -10.1800   -3.3270   -5.1870 C   0  0  0  0  0  0
  -11.6250   -3.5430   -5.6380 C   0  0  0  0  0  0
  -12.4910   -2.3030   -5.4870 C   0  0  0  0  0  0
  -11.7600   -4.1530   -7.0330 C   0  0  0  0  0  0
  -10.3260   -6.5710   -4.7730 N   0  0  0  0  0  0
  -11.3640   -7.5820   -4.9360 C   0  0  2  0  0  0
  -11.2940   -8.7820   -3.9980 C   0  0  0  0  0  0
  -11.9860   -8.7800   -2.9830 O   0  0  0  0  0  0
  -11.5830   -7.9670   -6.4030 C   0  0  0  0  0  0
  -12.9720   -7.6120   -6.9470 C   0  0  0  0  0  0
  -13.1510   -8.0380   -8.4020 C   0  0  0  0  0  0
  -14.0650   -8.1990   -6.0490 C   0  0  0  0  0  0
  -10.5020   -9.8070   -4.3090 N   0  0  0  0  0  0
   -9.3700   -9.7210   -5.2260 C   0  0  2  0  0  0
   -9.4550  -10.7560   -6.3580 C   0  0  0  0  0  0
  -10.5390  -11.2200   -6.7120 O   0  0  0  0  0  0
   -8.0530   -9.7570   -4.4280 C   0  0  0  0  0  0
   -7.2110  -10.9970   -4.6800 C   0  0  0  0  0  0
   -6.3710  -10.9200   -5.5880 O   0  0  0  0  0  0
   -7.1760  -11.9240   -3.8420 O   0  5  0  0  0  0
   -8.3260  -11.0420   -6.9920 N   0  0  0  0  0  0
   -8.2840  -11.9420   -8.1330 C   0  0  2  0  0  0
   -8.5490  -13.3880   -7.7220 C   0  0  0  0  0  0
   -8.6410  -13.7250   -6.5470 O   0  0  0  0  0  0
   -6.8930  -11.8840   -8.7630 C   0  0  0  0  0  0
   -6.8280  -11.0170  -10.0110 C   0  0  0  0  0  0
   -7.4090   -9.9080  -10.0350 O   0  5  0  0  0  0
   -6.0360  -11.3880  -10.9050 O   0  0  0  0  0  0
   -8.5910  -14.2670   -8.7090 N   0  0  0  0  0  0
   -8.5840  -15.6890   -8.4390 C   0  0  2  0  0  0
   -7.1770  -16.2030   -8.7340 C   0  0  0  0  0  0
   -6.4600  -15.6420   -9.5620 O   0  0  0  0  0  0
   -9.6250  -16.3710   -9.3350 C   0  0  0  0  0  0
  -10.2660  -17.6360   -8.7610 C   0  0  0  0  0  0
  -11.3020  -17.3550   -7.6720 C   0  0  0  0  0  0
  -11.5150  -18.2480   -6.8220 O   0  0  0  0  0  0
  -11.9050  -16.2570   -7.6520 O   0  5  0  0  0  0
   -6.7620  -17.2350   -8.0070 N   0  0  0  0  0  0
   -5.5280  -17.9430   -8.3090 C   0  0  2  0  0  0
   -5.5360  -18.4180   -9.7620 C   0  0  0  0  0  0
   -6.5110  -19.0260  -10.2280 O   0  0  0  0  0  0
   -5.4300  -19.1640   -7.3990 C   0  0  0  0  0  0
   -4.1390  -19.5750   -6.6920 C   0  0  0  0  0  0
   -4.1790  -21.0660   -6.3950 C   0  0  0  0  0  0
   -2.8600  -19.1640   -7.3870 C   0  0  0  0  0  0
   -4.4070  -18.2140  -10.4350 N   0  0  0  0  0  0
   -3.9950  -19.0300  -11.5730 C   0  0  2  0  0  0
   -4.1560  -20.5410  -11.4100 C   0  0  0  0  0  0
   -4.0610  -21.0940  -10.3150 O   0  0  0  0  0  0
   -2.5400  -18.7300  -11.9210 C   0  0  0  0  0  0
   -2.3230  -17.3730  -12.5730 C   0  0  0  0  0  0
   -0.7210  -17.3090  -13.4080 S   0  0  0  0  0  0
   -1.0870  -16.1240  -14.7040 C   0  0  0  0  0  0
   -4.3240  -21.2310  -12.5320 N   0  0  0  0  0  0
   -3.8090  -22.5900  -12.6350 C   0  0  2  0  0  0
   -2.6020  -22.5070  -13.5510 C   0  0  0  0  0  0
   -2.7040  -21.9980  -14.6670 O   0  0  0  0  0  0
   -4.8560  -23.5440  -13.2140 C   0  0  0  0  0  0
   -6.1640  -23.0040  -13.1170 O   0  0  0  0  0  0
   -1.4940  -22.9880  -13.0510 N   0  0  0  0  0  0
   -0.3040  -23.1880  -13.8400 C   0  0  2  0  0  0
    0.8130  -22.2940  -13.3970 C   0  0  0  0  0  0
    1.7010  -22.7730  -12.7210 O   0  0  0  0  0  0
   -0.5870  -23.0720  -15.3400 C   0  0  0  0  0  0
   -0.0150  -24.1940  -16.2380 C   0  0  0  0  0  0
    0.3960  -25.4720  -15.4920 C   0  0  0  0  0  0
   -0.9220  -24.5110  -17.4180 C   0  0  0  0  0  0
    1.0120  -20.9350  -13.1930 O   0  5  0  0  0  0
   -8.2993   -5.3130   -3.1522 H   0  0  0  0  0  0
   -7.8666   -3.7273   -3.8768 H   0  0  0  0  0  0
   -8.2072   -5.1365   -4.9375 H   0  0  0  0  0  0
  -10.0286   -3.7820   -3.0600 H   0  0  0  0  0  0
  -10.0473   -2.2865   -4.8557 H   0  0  0  0  0  0
   -9.4962   -3.5356   -6.0230 H   0  0  0  0  0  0
  -12.0183   -4.2925   -4.9355 H   0  0  0  0  0  0
  -12.3691   -1.8918   -4.4740 H   0  0  0  0  0  0
  -13.5455   -2.5702   -5.6499 H   0  0  0  0  0  0
  -12.1850   -1.5496   -6.2278 H   0  0  0  0  0  0
  -11.1215   -5.0457   -7.1062 H   0  0  0  0  0  0
  -11.4476   -3.4158   -7.7873 H   0  0  0  0  0  0
  -12.8081   -4.4364   -7.2094 H   0  0  0  0  0  0
   -9.3074   -6.7643   -5.1404 H   0  0  0  0  0  0
  -12.2373   -7.0181   -4.5764 H   0  0  0  0  0  0
  -10.8474   -7.4452   -7.0328 H   0  0  0  0  0  0
  -11.4597   -9.0539   -6.5192 H   0  0  0  0  0  0
  -13.0657   -6.5160   -6.9366 H   0  0  0  0  0  0
  -12.3498   -7.5982   -9.0140 H   0  0  0  0  0  0
  -14.1270   -7.6879   -8.7691 H   0  0  0  0  0  0
  -13.1052   -9.1349   -8.4712 H   0  0  0  0  0  0
  -13.9028   -7.8708   -5.0117 H   0  0  0  0  0  0
  -14.0277   -9.2974   -6.0962 H   0  0  0  0  0  0
  -15.0495   -7.8504   -6.3941 H   0  0  0  0  0  0
  -10.7464  -10.7642   -3.8251 H   0  0  0  0  0  0
   -9.4547   -8.7416   -5.7195 H   0  0  0  0  0  0
   -7.4371   -8.8863   -4.6974 H   0  0  0  0  0  0
   -8.2759   -9.7294   -3.3512 H   0  0  0  0  0  0
   -7.4004  -10.5726   -6.6274 H   0  0  0  0  0  0
   -9.0766  -11.5852   -8.8071 H   0  0  0  0  0  0
   -6.1785  -11.4696   -8.0366 H   0  0  0  0  0  0
   -6.5778  -12.8981   -9.0498 H   0  0  0  0  0  0
   -8.6317  -13.9044   -9.7467 H   0  0  0  0  0  0
   -8.8436  -15.8524   -7.3826 H   0  0  0  0  0  0
  -10.4496  -15.6715   -9.5370 H   0  0  0  0  0  0
   -9.1544  -16.6668  -10.2842 H   0  0  0  0  0  0
  -10.7754  -18.1864   -9.5657 H   0  0  0  0  0  0
   -9.4867  -18.2731   -8.3174 H   0  0  0  0  0  0
   -7.3824  -17.5499   -7.1550 H   0  0  0  0  0  0
   -4.7059  -17.2330   -8.1358 H   0  0  0  0  0  0
   -6.1322  -19.0530   -6.5596 H   0  0  0  0  0  0
   -5.6826  -20.0689   -7.9711 H   0  0  0  0  0  0
   -4.0948  -19.0058   -5.7518 H   0  0  0  0  0  0
   -5.1249  -21.3143   -5.8914 H   0  0  0  0  0  0
   -3.3349  -21.3325   -5.7420 H   0  0  0  0  0  0
   -4.1061  -21.6295   -7.3369 H   0  0  0  0  0  0
   -2.8790  -18.0811   -7.5795 H   0  0  0  0  0  0
   -2.7711  -19.7045   -8.3409 H   0  0  0  0  0  0
   -1.9999  -19.4075   -6.7460 H   0  0  0  0  0  0
   -3.7716  -17.3827  -10.0956 H   0  0  0  0  0  0
   -4.7098  -18.7099  -12.3454 H   0  0  0  0  0  0
   -1.9324  -18.7489  -11.0043 H   0  0  0  0  0  0
   -2.1670  -19.4895  -12.6238 H   0  0  0  0  0  0
   -3.1158  -17.1911  -13.3136 H   0  0  0  0  0  0
   -2.3528  -16.5875  -11.8035 H   0  0  0  0  0  0
   -0.1902  -15.9672  -15.3214 H   0  0  0  0  0  0
   -1.3925  -15.1689  -14.2519 H   0  0  0  0  0  0
   -1.9027  -16.5093  -15.3334 H   0  0  0  0  0  0
   -4.8518  -20.7768  -13.3836 H   0  0  0  0  0  0
   -3.5516  -22.9438  -11.6258 H   0  0  0  0  0  0
   -4.6350  -23.7305  -14.2753 H   0  0  0  0  0  0
   -4.8309  -24.4949  -12.6616 H   0  0  0  0  0  0
   -7.0247  -23.5767  -13.4928 H   0  0  0  0  0  0
   -1.4939  -23.2435  -11.9811 H   0  0  0  0  0  0
   -0.0003  -24.2202  -13.6114 H   0  0  0  0  0  0
   -1.6739  -23.0757  -15.5094 H   0  0  0  0  0  0
   -0.1595  -22.1333  -15.7223 H   0  0  0  0  0  0
    0.9197  -23.7800  -16.6441 H   0  0  0  0  0  0
    1.0494  -25.2092  -14.6470 H   0  0  0  0  0  0
    0.9359  -26.1401  -16.1791 H   0  0  0  0  0  0
   -0.5030  -25.9820  -15.1156 H   0  0  0  0  0  0
   -1.1977  -23.5771  -17.9298 H   0  0  0  0  0  0
   -1.8314  -25.0135  -17.0568 H   0  0  0  0  0  0
   -0.3925  -25.1715  -18.1204 H   0  0  0  0  0  0
  1  2  1  0  0  0
  1 73  1  0  0  0
  1 74  1  0  0  0
  1 75  1  0  0  0
  2  3  1  0  0  0
  2  5  1  0  0  0
  2 76  1  0  0  0
  3  4  2  0  0  0
  3  9  1  0  0  0
  5  6  1  0  0  0
  5 77  1  0  0  0
  5 78  1  0  0  0
  6  7  1  0  0  0
  6  8  1  0  0  0
  6 79  1  0  0  0
  7 80  1  0  0  0
  7 81  1  0  0  0
  7 82  1  0  0  0
  8 83  1  0  0  0
  8 84  1  0  0  0
  8 85  1  0  0  0
  9 10  1  0  0  0
  9 86  1  0  0  0
 10 11  1  0  0  0
 10 13  1  0  0  0
 10 87  1  0  0  0
 11 12  2  0  0  0
 11 17  1  0  0  0
 13 14  1  0  0  0
 13 88  1  0  0  0
 13 89  1  0  0  0
 14 15  1  0  0  0
 14 16  1  0  0  0
 14 90  1  0  0  0
 15 91  1  0  0  0
 15 92  1  0  0  0
 15 93  1  0  0  0
 16 94  1  0  0  0
 16 95  1  0  0  0
 16 96  1  0  0  0
 17 18  1  0  0  0
 17 97  1  0  0  0
 18 19  1  0  0  0
 18 21  1  0  0  0
 18 98  1  0  0  0
 19 20  2  0  0  0
 19 25  1  0  0  0
 21 22  1  0  0  0
 21 99  1  0  0  0
 21100  1  0  0  0
 22 23  2  0  0  0
 22 24  1  0  0  0
 25 26  1  0  0  0
 25101  1  0  0  0
 26 27  1  0  0  0
 26 29  1  0  0  0
 26102  1  0  0  0
 27 28  2  0  0  0
 27 33  1  0  0  0
 29 30  1  0  0  0
 29103  1  0  0  0
 29104  1  0  0  0
 30 31  1  0  0  0
 30 32  2  0  0  0
 33 34  1  0  0  0
 33105  1  0  0  0
 34 35  1  0  0  0
 34 37  1  0  0  0
 34106  1  0  0  0
 35 36  2  0  0  0
 35 42  1  0  0  0
 37 38  1  0  0  0
 37107  1  0  0  0
 37108  1  0  0  0
 38 39  1  0  0  0
 38109  1  0  0  0
 38110  1  0  0  0
 39 40  2  0  0  0
 39 41  1  0  0  0
 42 43  1  0  0  0
 42111  1  0  0  0
 43 44  1  0  0  0
 43 46  1  0  0  0
 43112  1  0  0  0
 44 45  2  0  0  0
 44 50  1  0  0  0
 46 47  1  0  0  0
 46113  1  0  0  0
 46114  1  0  0  0
 47 48  1  0  0  0
 47 49  1  0  0  0
 47115  1  0  0  0
 48116  1  0  0  0
 48117  1  0  0  0
 48118  1  0  0  0
 49119  1  0  0  0
 49120  1  0  0  0
 49121  1  0  0  0
 50 51  1  0  0  0
 50122  1  0  0  0
 51 52  1  0  0  0
 51 54  1  0  0  0
 51123  1  0  0  0
 52 53  2  0  0  0
 52 58  1  0  0  0
 54 55  1  0  0  0
 54124  1  0  0  0
 54125  1  0  0  0
 55 56  1  0  0  0
 55126  1  0  0  0
 55127  1  0  0  0
 56 57  1  0  0  0
 57128  1  0  0  0
 57129  1  0  0  0
 57130  1  0  0  0
 58 59  1  0  0  0
 58131  1  0  0  0
 59 60  1  0  0  0
 59 62  1  0  0  0
 59132  1  0  0  0
 60 61  2  0  0  0
 60 64  1  0  0  0
 62 63  1  0  0  0
 62133  1  0  0  0
 62134  1  0  0  0
 63135  1  0  0  0
 64 65  1  0  0  0
 64136  1  0  0  0
 65 66  1  0  0  0
 65 68  1  0  0  0
 65137  1  0  0  0
 66 67  2  0  0  0
 66 72  1  0  0  0
 68 69  1  0  0  0
 68138  1  0  0  0
 68139  1  0  0  0
 69 70  1  0  0  0
 69 71  1  0  0  0
 69140  1  0  0  0
 70141  1  0  0  0
 70142  1  0  0  0
 70143  1  0  0  0
 71144  1  0  0  0
 71145  1  0  0  0
 71146  1  0  0  0
M  CHG  5   1   1  24  -1  31  -1  41  -1  72  -1
M  END
> <s_m_source_file>
../3g2w_ligand.sdf

> <i_m_source_file_index>
1

> <s_epik_input>
W0NIM11bQ0hdKFtDSDNdKVtDSDJdW0NASF0oW05IMytdKUMoPU8pW05IXVtDQEBIXShbQ0gyXVtDSF0oW0NIM10pW0NIM10pQyg9TylbTkhdW0NAQEhdKFtDSDJdQyg9TylbT0hdKUMoPU8pW05IXVtDQEBIXShbQ0gyXUMoPU8pW09IXSlDKD1PKVtOSF1bQ0BASF0oW0NIMl1bQ0gyXUMoPU8pW09IXSlDKD1PKVtOSF1bQ0BASF0oW0NIMl1bQ0hdKFtDSDNdKVtDSDNdKUMoPU8pW05IXVtDQEBIXShbQ0gyXVtDSDJdU1tDSDNdKUMoPU8pW05IXVtDQEBIXShbQ0gyXVtPSF0pQyg9TylbTkhdW0NASF0oQyg9TylbT0hdKVtDSDJdW0NIXShbQ0gzXSlbQ0gzXQ==

> <s_epik_cmdline>
J2VwaWtfYXBwJywgJy1pbWFlJywgJ2xpZ2FuZF9wcm8ubWFlJywgJy1vbWFlJywgJ2xpZ2FuZF9wcmVwLm1hZScsICctbXMnLCAnMScsICctcGgnLCAnNycsICctcGh0JywgJzAuNScsICctbnQn

> <r_epik_Ionization_Penalty>
  0.0907

> <r_epik_Ionization_Penalty_Charging>
  0.0907

> <r_epik_Ionization_Penalty_Neutral>
  0.0000

> <r_epik_State_Penalty>
  0.0768

> <r_epik_Charging_Adjusted_Penalty>
0.167519166933868

> <i_epik_Tot_Q>
-3

> <i_epik_Tot_abs_Q>
5

$$$$
