3g30_ligand
                    3D
 Schrodinger Suite 2020-3.
 25 26  0  0  1  0            999 V2000
   29.0860   41.1310   96.9280 F   0  0  0  0  0  0
   28.2640   41.1230   95.8540 C   0  0  0  0  0  0
   28.8170   41.0060   94.5780 C   0  0  0  0  0  0
   28.0130   41.0020   93.4450 C   0  0  0  0  0  0
   26.6260   41.1070   93.5820 C   0  0  0  0  0  0
   25.8390   41.0910   92.4970 F   0  0  0  0  0  0
   26.8730   41.2340   96.0350 C   0  0  0  0  0  0
   26.0120   41.2360   94.9280 C   0  0  0  0  0  0
   24.6590   41.3230   94.9960 N   0  0  0  0  0  0
   23.9540   42.0920   95.8330 C   0  0  0  0  0  0
   24.3470   42.3120   96.9770 O   0  0  0  0  0  0
   22.6670   42.7550   95.3370 C   0  0  1  0  0  0
   21.5450   42.0450   94.5160 C   0  0  2  0  0  0
   21.4750   42.1010   96.0400 C   0  0  0  0  0  0
   21.6680   40.6060   94.0400 C   0  0  0  0  0  0
   20.6420   39.8730   93.9640 O   0  5  0  0  0  0
   22.7930   40.1930   93.6830 O   0  0  0  0  0  0
   29.8978   40.9163   94.4685 H   0  0  0  0  0  0
   28.4612   40.9175   92.4550 H   0  0  0  0  0  0
   26.4624   41.3189   97.0411 H   0  0  0  0  0  0
   24.0345   40.7227   94.3180 H   0  0  0  0  0  0
   23.1574   43.7229   95.1565 H   0  0  0  0  0  0
   20.9850   42.3658   93.6252 H   0  0  0  0  0  0
   21.8360   41.3131   96.7174 H   0  0  0  0  0  0
   20.9289   42.8604   96.6189 H   0  0  0  0  0  0
  1  2  1  0  0  0
  2  3  2  0  0  0
  2  7  1  0  0  0
  3  4  1  0  0  0
  3 18  1  0  0  0
  4  5  2  0  0  0
  4 19  1  0  0  0
  5  6  1  0  0  0
  5  8  1  0  0  0
  7  8  2  0  0  0
  7 20  1  0  0  0
  8  9  1  0  0  0
  9 10  1  0  0  0
  9 21  1  0  0  0
 10 11  2  0  0  0
 10 12  1  0  0  0
 12 13  1  0  0  0
 12 14  1  0  0  0
 12 22  1  0  0  0
 13 14  1  0  0  0
 13 15  1  0  0  0
 13 23  1  0  0  0
 14 24  1  0  0  0
 14 25  1  0  0  0
 15 16  1  0  0  0
 15 17  2  0  0  0
M  CHG  1  16  -1
M  END
> <s_m_source_file>
../3g30_ligand.sdf

> <i_m_source_file_index>
1

> <s_epik_input>
RmMxW2NIXVtjSF1jKEYpYyhbY0hdMSlbTkhdQyg9TylbQ0BIXTJbQ0BIXShbQ0gyXTIpQyg9TylbT0hd

> <s_epik_cmdline>
J2VwaWtfYXBwJywgJy1pbWFlJywgJ2xpZ2FuZF9wcm8ubWFlJywgJy1vbWFlJywgJ2xpZ2FuZF9wcmVwLm1hZScsICctbXMnLCAnMScsICctcGgnLCAnNycsICctcGh0JywgJzAuNScsICctbnQn

> <r_lp_tautomer_probability>
1

> <r_epik_Ionization_Penalty>
  0.0044

> <r_epik_Ionization_Penalty_Charging>
  0.0043

> <r_epik_Ionization_Penalty_Neutral>
  0.0000

> <r_epik_State_Penalty>
 -0.0000

> <r_epik_Charging_Adjusted_Penalty>
0.00433598534199872

> <i_epik_Tot_Q>
-1

> <i_epik_Tot_abs_Q>
1

$$$$
