3g32_ligand
                    3D
 Schrodinger Suite 2020-3.
 28 30  0  0  1  0            999 V2000
   -7.7350   53.9950   13.2500 O   0  0  0  0  0  0
   -7.3260   53.0940   12.4250 C   0  0  0  0  0  0
   -7.9970   52.8120   11.2360 C   0  0  0  0  0  0
   -9.1490   53.3180   10.6420 C   0  0  0  0  0  0
   -9.5370   52.7800    9.4090 C   0  0  0  0  0  0
   -8.7920   51.7610    8.7970 C   0  0  0  0  0  0
   -7.6360   51.2570    9.4020 C   0  0  0  0  0  0
   -7.2690   51.8090   10.6250 C   0  0  0  0  0  0
   -6.2170   52.3620   12.6480 N   0  0  0  0  0  0
   -6.1580   51.5730   11.5730 C   0  0  0  0  0  0
   -5.2330   50.7050   11.3780 O   0  0  0  0  0  0
   -5.2910   52.4130   13.7780 C   0  0  0  0  0  0
   -4.5370   53.7330   13.7410 C   0  0  0  0  0  0
   -3.2710   53.5700   12.9400 C   0  0  0  0  0  0
   -2.0790   53.2470   13.4660 N   0  0  0  0  0  0
   -1.1370   53.1710   12.4390 N   0  3  0  0  0  0
   -1.7930   53.4770   11.2490 N   0  0  0  0  0  0
   -3.1300   53.7070   11.6000 N   0  3  0  0  0  0
   -9.7298   54.1066   11.1204 H   0  0  0  0  0  0
  -10.4325   53.1591    8.9166 H   0  0  0  0  0  0
   -9.1179   51.3571    7.8385 H   0  0  0  0  0  0
   -7.0484   50.4663    8.9356 H   0  0  0  0  0  0
   -5.8558   52.3347   14.7187 H   0  0  0  0  0  0
   -4.5794   51.5772   13.7069 H   0  0  0  0  0  0
   -5.1685   54.5030   13.2737 H   0  0  0  0  0  0
   -4.2836   54.0394   14.7666 H   0  0  0  0  0  0
   -0.1891   52.9296   12.6468 H   0  0  0  0  0  0
   -3.8680   53.9541   10.8227 H   0  0  0  0  0  0
  1  2  2  0  0  0
  2  3  1  0  0  0
  2  9  1  0  0  0
  3  4  2  0  0  0
  3  8  1  0  0  0
  4  5  1  0  0  0
  4 19  1  0  0  0
  5  6  2  0  0  0
  5 20  1  0  0  0
  6  7  1  0  0  0
  6 21  1  0  0  0
  7  8  2  0  0  0
  7 22  1  0  0  0
  8 10  1  0  0  0
  9 10  1  0  0  0
  9 12  1  0  0  0
 10 11  2  0  0  0
 12 13  1  0  0  0
 12 23  1  0  0  0
 12 24  1  0  0  0
 13 14  1  0  0  0
 13 25  1  0  0  0
 13 26  1  0  0  0
 14 15  2  0  0  0
 14 18  1  0  0  0
 15 16  1  0  0  0
 16 17  1  0  0  0
 16 27  1  0  0  0
 17 18  2  0  0  0
 18 28  1  0  0  0
M  CHG  2  16   1  18   1
M  END
> <s_m_source_file>
../3g32_ligand.sdf

> <i_m_source_file_index>
1

> <s_epik_input>
W2NIXTFbY0hdW2NIXVtjSF1jKGMxMilDKD1PKU4oQzI9TylbQ0gyXVtDSDJdYzNuW25IXW5uMw==

> <s_epik_cmdline>
J2VwaWtfYXBwJywgJy1pbWFlJywgJ2xpZ2FuZF9wcm8ubWFlJywgJy1vbWFlJywgJ2xpZ2FuZF9wcmVwLm1hZScsICctbXMnLCAnMScsICctcGgnLCAnNycsICctcGh0JywgJzAuNScsICctbnQn

> <r_epik_Ionization_Penalty>
 12.8181

> <r_epik_Ionization_Penalty_Charging>
 12.8179

> <r_epik_Ionization_Penalty_Neutral>
  0.0002

> <r_epik_State_Penalty>
  0.0112

> <r_epik_Charging_Adjusted_Penalty>
12.8291684750293

> <i_epik_Tot_Q>
2

> <i_epik_Tot_abs_Q>
2

> <s_epik_Chemistry_Notes>
This compound has an imine and may undergo hydrolysis.

$$$$
