3g34_ligand
                    3D
 Schrodinger Suite 2020-3.
 33 36  0  0  1  0            999 V2000
   -3.9850   50.8840   10.0800 O   0  0  0  0  0  0
   -4.8740   51.6630   10.4960 C   0  0  0  0  0  0
   -5.0820   51.8750   11.8110 N   0  0  0  0  0  0
   -4.2430   51.1950   12.7960 C   0  0  0  0  0  0
   -2.9730   52.0030   12.8860 C   0  0  0  0  0  0
   -2.9080   53.3450   13.0680 N   0  0  0  0  0  0
   -1.7230   51.5030   12.7840 N   0  3  0  0  0  0
   -0.8130   52.5620   12.9110 N   0  0  0  0  0  0
   -1.5610   53.7270   13.0920 N   0  3  0  0  0  0
   -5.7390   52.3790    9.5300 C   0  0  0  0  0  0
   -5.8250   52.4150    8.0300 C   0  0  0  0  0  0
   -4.9810   51.6560    7.0340 C   0  0  0  0  0  0
   -5.1190   52.3500    5.6720 C   0  0  0  0  0  0
   -6.5720   52.6290    5.2530 C   0  0  0  0  0  0
   -7.3040   53.6360    6.1480 C   0  0  0  0  0  0
   -6.9020   53.3340    7.5660 C   0  0  0  0  0  0
   -7.7650   54.1290    8.9190 S   0  0  0  0  0  0
   -6.7580   53.2840   10.1190 C   0  0  0  0  0  0
   -6.8640   53.4140   11.4610 N   0  0  0  0  0  0
   -6.0350   52.7190   12.2620 C   0  0  0  0  0  0
   -4.7650   51.1647   13.7638 H   0  0  0  0  0  0
   -4.0386   50.1686   12.4574 H   0  0  0  0  0  0
   -3.9308   51.6651    7.3611 H   0  0  0  0  0  0
   -5.3358   50.6168    6.9693 H   0  0  0  0  0  0
   -4.5988   53.3188    5.6998 H   0  0  0  0  0  0
   -4.6732   51.7167    4.8909 H   0  0  0  0  0  0
   -6.5872   53.0360    4.2312 H   0  0  0  0  0  0
   -7.1486   51.6927    5.2834 H   0  0  0  0  0  0
   -7.0080   54.6579    5.8684 H   0  0  0  0  0  0
   -8.3901   53.5203    6.0180 H   0  0  0  0  0  0
   -6.1391   52.8450   13.3397 H   0  0  0  0  0  0
   -1.3160   54.6877   13.2221 H   0  0  0  0  0  0
   -1.3557   50.4777   12.6298 H   0  0  0  0  0  0
  1  2  2  0  0  0
  2  3  1  0  0  0
  2 10  1  0  0  0
  3  4  1  0  0  0
  3 20  1  0  0  0
  4  5  1  0  0  0
  4 21  1  0  0  0
  4 22  1  0  0  0
  5  6  2  0  0  0
  5  7  1  0  0  0
  6  9  1  0  0  0
  7  8  2  0  0  0
  7 33  1  0  0  0
  8  9  1  0  0  0
  9 32  1  0  0  0
 10 11  1  0  0  0
 10 18  2  0  0  0
 11 12  1  0  0  0
 11 16  2  0  0  0
 12 13  1  0  0  0
 12 23  1  0  0  0
 12 24  1  0  0  0
 13 14  1  0  0  0
 13 25  1  0  0  0
 13 26  1  0  0  0
 14 15  1  0  0  0
 14 27  1  0  0  0
 14 28  1  0  0  0
 15 16  1  0  0  0
 15 29  1  0  0  0
 15 30  1  0  0  0
 16 17  1  0  0  0
 17 18  1  0  0  0
 18 19  1  0  0  0
 19 20  2  0  0  0
 20 31  1  0  0  0
M  CHG  2   7   1   9   1
M  END
> <s_m_source_file>
../3g34_ligand.sdf

> <i_m_source_file_index>
1

> <s_epik_input>
bjFuW25IXW5jMVtDSDJdbihjMj1PKVtjSF1uYzNzYyhjNGMyMylbQ0gyXVtDSDJdW0NIMl1bQ0gyXTQ=

> <s_epik_cmdline>
J2VwaWtfYXBwJywgJy1pbWFlJywgJ2xpZ2FuZF9wcm8ubWFlJywgJy1vbWFlJywgJ2xpZ2FuZF9wcmVwLm1hZScsICctbXMnLCAnMScsICctcGgnLCAnNycsICctcGh0JywgJzAuNScsICctbnQn

> <r_epik_Ionization_Penalty>
 12.8487

> <r_epik_Ionization_Penalty_Charging>
 12.8485

> <r_epik_Ionization_Penalty_Neutral>
  0.0002

> <r_epik_State_Penalty>
  0.0112

> <r_epik_Charging_Adjusted_Penalty>
12.8597456956554

> <i_epik_Tot_Q>
2

> <i_epik_Tot_abs_Q>
2

> <s_epik_Chemistry_Notes>
This compound has an imine and may undergo hydrolysis.

$$$$
