3g35_ligand
                    3D
 Schrodinger Suite 2020-3.
 32 34  0  0  1  0            999 V2000
  -11.6260   59.7310   11.6930 F   0  0  0  0  0  0
  -10.8240   58.7840   11.1570 C   0  0  0  0  0  0
  -10.1490   57.9090   12.0020 C   0  0  0  0  0  0
  -10.6740   58.6690    9.7830 C   0  0  0  0  0  0
   -9.8450   57.6920    9.2360 C   0  0  0  0  0  0
   -9.1530   56.8250   10.0810 C   0  0  0  0  0  0
   -9.3120   56.9310   11.4670 C   0  0  0  0  0  0
   -8.5630   56.0080   12.3910 C   0  0  0  0  0  0
   -8.9420   55.9010   13.5470 O   0  0  0  0  0  0
   -7.4940   55.3630   11.9080 N   0  0  0  0  0  0
   -6.6540   54.5780   12.6430 C   0  0  0  0  0  0
   -7.0880   53.8180   13.7370 C   0  0  0  0  0  0
   -6.1890   53.0380   14.4650 C   0  0  0  0  0  0
   -4.8450   52.9800   14.1120 C   0  0  0  0  0  0
   -4.4150   53.7270   13.0210 C   0  0  0  0  0  0
   -5.3040   54.5250   12.2970 C   0  0  0  0  0  0
   -2.9890   53.6790   12.6260 C   0  0  0  0  0  0
   -2.5270   53.9570   11.3930 N   0  0  0  0  0  0
   -1.1490   53.7940   11.3940 N   0  3  0  0  0  0
   -0.7910   53.3980   12.6820 N   0  0  0  0  0  0
   -1.9640   53.3260   13.4290 N   0  3  0  0  0  0
  -10.2745   57.9881   13.0819 H   0  0  0  0  0  0
  -11.2109   59.3509    9.1235 H   0  0  0  0  0  0
   -9.7380   57.6059    8.1547 H   0  0  0  0  0  0
   -8.4904   56.0672    9.6631 H   0  0  0  0  0  0
   -7.2374   55.4454   10.8415 H   0  0  0  0  0  0
   -8.1398   53.8363   14.0226 H   0  0  0  0  0  0
   -6.5448   52.4663   15.3221 H   0  0  0  0  0  0
   -4.1456   52.3638   14.6770 H   0  0  0  0  0  0
   -4.9392   55.1117   11.4539 H   0  0  0  0  0  0
   -0.6251   53.9615   10.5589 H   0  0  0  0  0  0
   -1.9258   53.0197   14.4848 H   0  0  0  0  0  0
  1  2  1  0  0  0
  2  3  2  0  0  0
  2  4  1  0  0  0
  3  7  1  0  0  0
  3 22  1  0  0  0
  4  5  2  0  0  0
  4 23  1  0  0  0
  5  6  1  0  0  0
  5 24  1  0  0  0
  6  7  2  0  0  0
  6 25  1  0  0  0
  7  8  1  0  0  0
  8  9  2  0  0  0
  8 10  1  0  0  0
 10 11  1  0  0  0
 10 26  1  0  0  0
 11 12  2  0  0  0
 11 16  1  0  0  0
 12 13  1  0  0  0
 12 27  1  0  0  0
 13 14  2  0  0  0
 13 28  1  0  0  0
 14 15  1  0  0  0
 14 29  1  0  0  0
 15 16  2  0  0  0
 15 17  1  0  0  0
 16 30  1  0  0  0
 17 18  2  0  0  0
 17 21  1  0  0  0
 18 19  1  0  0  0
 19 20  1  0  0  0
 19 31  1  0  0  0
 20 21  2  0  0  0
 21 32  1  0  0  0
M  CHG  2  19   1  21   1
M  END
> <s_m_source_file>
../3g35_ligand.sdf

> <i_m_source_file_index>
1

> <s_epik_input>
RmMxW2NIXWMoW2NIXVtjSF1bY0hdMSlDKD1PKVtOSF1jMltjSF1bY0hdW2NIXWMoW2NIXTIpLWMzbltuSF1ubjM=

> <s_epik_cmdline>
J2VwaWtfYXBwJywgJy1pbWFlJywgJ2xpZ2FuZF9wcm8ubWFlJywgJy1vbWFlJywgJ2xpZ2FuZF9wcmVwLm1hZScsICctbXMnLCAnMScsICctcGgnLCAnNycsICctcGh0JywgJzAuNScsICctbnQn

> <r_epik_Ionization_Penalty>
 10.5112

> <r_epik_Ionization_Penalty_Charging>
 10.5111

> <r_epik_Ionization_Penalty_Neutral>
  0.0000

> <r_epik_State_Penalty>
  0.0112

> <r_epik_Charging_Adjusted_Penalty>
10.5223709335897

> <i_epik_Tot_Q>
2

> <i_epik_Tot_abs_Q>
2

> <s_epik_Chemistry_Notes>
This compound has an imine and may undergo hydrolysis.

$$$$
