3g3d_ligand
                    3D
 Schrodinger Suite 2020-3.
 32 33  0  0  1  0            999 V2000
   19.0340   10.6960   13.8010 F   0  0  0  0  0  0
   19.7410    9.5690   13.7700 C   0  0  0  0  0  0
   19.6290    8.6660   12.6010 C   0  0  0  0  0  0
   18.8580    8.9710   11.6430 O   0  0  0  0  0  0
   20.3360    7.5120   12.6310 N   0  0  0  0  0  0
   21.1520    7.2590   13.6860 C   0  0  0  0  0  0
   21.7570    6.1720   13.6990 O   0  0  0  0  0  0
   20.5610    9.2380   14.8540 C   0  0  0  0  0  0
   21.2500    8.0720   14.7610 N   0  0  0  0  0  0
   22.2520    7.7280   15.7880 C   0  0  2  0  0  0
   23.4890    7.6440   15.0200 O   0  0  0  0  0  0
   22.2540    6.5220   16.6990 C   0  0  2  0  0  0
   21.7600    7.0460   17.9300 O   0  0  0  0  0  0
   23.7400    6.1680   16.7940 C   0  0  2  0  0  0
   24.4110    6.9280   17.8020 O   0  0  0  0  0  0
   24.3660    6.6180   15.4840 C   0  0  1  0  0  0
   24.5140    5.4750   14.4630 C   0  0  0  0  0  0
   25.2900    4.4390   15.0640 O   0  0  0  0  0  0
   25.6540    2.9870   14.4430 P   0  0  0  0  0  0
   26.2410    2.3620   15.6920 O   0  5  0  0  0  0
   24.3670    2.3830   13.9960 O   0  0  0  0  0  0
   26.7570    3.2500   13.4730 O   0  5  0  0  0  0
   20.2461    6.7903   11.8058 H   0  0  0  0  0  0
   20.6425    9.8834   15.7286 H   0  0  0  0  0  0
   22.0539    8.5186   16.5268 H   0  0  0  0  0  0
   21.6300    5.6547   16.4374 H   0  0  0  0  0  0
   20.7054    7.3466   18.0160 H   0  0  0  0  0  0
   23.8680    5.1091   17.0628 H   0  0  0  0  0  0
   24.1443    6.7939   18.8607 H   0  0  0  0  0  0
   25.3736    7.0396   15.6141 H   0  0  0  0  0  0
   23.5183    5.0936   14.1928 H   0  0  0  0  0  0
   25.0194    5.8517   13.5615 H   0  0  0  0  0  0
  1  2  1  0  0  0
  2  3  1  0  0  0
  2  8  2  0  0  0
  3  4  2  0  0  0
  3  5  1  0  0  0
  5  6  1  0  0  0
  5 23  1  0  0  0
  6  7  2  0  0  0
  6  9  1  0  0  0
  8  9  1  0  0  0
  8 24  1  0  0  0
  9 10  1  0  0  0
 10 11  1  0  0  0
 10 12  1  0  0  0
 10 25  1  0  0  0
 11 16  1  0  0  0
 12 13  1  0  0  0
 12 14  1  0  0  0
 12 26  1  0  0  0
 13 27  1  0  0  0
 14 15  1  0  0  0
 14 16  1  0  0  0
 14 28  1  0  0  0
 15 29  1  0  0  0
 16 17  1  0  0  0
 16 30  1  0  0  0
 17 18  1  0  0  0
 17 31  1  0  0  0
 17 32  1  0  0  0
 18 19  1  0  0  0
 19 20  1  0  0  0
 19 21  2  0  0  0
 19 22  1  0  0  0
M  CHG  2  20  -1  22  -1
M  END
> <s_m_source_file>
../3g3d_ligand.sdf

> <i_m_source_file_index>
1

> <s_epik_input>
RmMxYyg9TylbbkhdYyg9TyluKFtjSF0xKVtDQEBIXTJPW0NAQEhdKFtDQEBIXShbT0hdKVtDQEhdMltPSF0pW0NIMl1PUCg9TykoW09IXSlbT0hd

> <s_epik_cmdline>
J2VwaWtfYXBwJywgJy1pbWFlJywgJ2xpZ2FuZF9wcm8ubWFlJywgJy1vbWFlJywgJ2xpZ2FuZF9wcmVwLm1hZScsICctbXMnLCAnMScsICctcGgnLCAnNycsICctcGh0JywgJzAuNScsICctbnQn

> <r_lp_tautomer_probability>
1

> <r_epik_Ionization_Penalty>
  0.1510

> <r_epik_Ionization_Penalty_Charging>
  0.1510

> <r_epik_Ionization_Penalty_Neutral>
  0.0000

> <r_epik_State_Penalty>
 -0.0000

> <r_epik_Charging_Adjusted_Penalty>
0.150984285339555

> <i_epik_Tot_Q>
-2

> <i_epik_Tot_abs_Q>
2

> <s_epik_Chemistry_Notes>
This compound contains an acetal/aminal-like group ( X-CH(R)-Y where X, Y are N, S, or O) that may be acid/base labile, releasing an aldehyde.

$$$$
