3g3n_ligand
                    3D
 Schrodinger Suite 2020-3.
 31 33  0  0  1  0            999 V2000
  -43.5720  -26.3710   10.6320 C   0  0  0  0  0  0
  -44.7600  -25.2300    9.9550 S   0  0  0  0  0  0
  -45.9510  -26.2090    9.1310 C   0  0  0  0  0  0
  -45.8890  -27.5450    9.2300 N   0  0  0  0  0  0
  -46.7790  -28.3350    8.6130 C   0  0  0  0  0  0
  -46.6700  -29.7160    8.7320 C   0  0  0  0  0  0
  -47.5800  -30.5440    8.0850 C   0  0  0  0  0  0
  -48.6020  -29.9930    7.3190 C   0  0  0  0  0  0
  -48.7130  -28.6120    7.2010 C   0  0  0  0  0  0
  -47.8010  -27.7850    7.8480 C   0  0  0  0  0  0
  -47.8970  -26.4030    7.7260 C   0  0  0  0  0  0
  -48.8080  -25.8980    7.0710 O   0  0  0  0  0  0
  -46.9570  -25.5960    8.3750 N   0  0  0  0  0  0
  -47.0160  -24.1990    8.2800 C   0  0  0  0  0  0
  -47.7030  -23.4660    9.2430 C   0  0  0  0  0  0
  -48.3140  -24.0950   10.2670 F   0  0  0  0  0  0
  -47.7620  -22.0800    9.1580 C   0  0  0  0  0  0
  -47.1360  -21.4170    8.1090 C   0  0  0  0  0  0
  -46.4480  -22.1460    7.1450 C   0  0  0  0  0  0
  -46.3870  -23.5320    7.2330 C   0  0  0  0  0  0
  -45.6910  -24.2180    6.3050 F   0  0  0  0  0  0
  -42.7903  -25.8119   11.1671 H   0  0  0  0  0  0
  -43.1150  -26.9511    9.8168 H   0  0  0  0  0  0
  -44.0770  -27.0547   11.3303 H   0  0  0  0  0  0
  -45.8706  -30.1496    9.3329 H   0  0  0  0  0  0
  -47.4926  -31.6265    8.1780 H   0  0  0  0  0  0
  -49.3150  -30.6430    6.8119 H   0  0  0  0  0  0
  -49.5138  -28.1781    6.6022 H   0  0  0  0  0  0
  -48.3007  -21.5114    9.9161 H   0  0  0  0  0  0
  -47.1841  -20.3301    8.0422 H   0  0  0  0  0  0
  -45.9564  -21.6304    6.3201 H   0  0  0  0  0  0
  1  2  1  0  0  0
  1 22  1  0  0  0
  1 23  1  0  0  0
  1 24  1  0  0  0
  2  3  1  0  0  0
  3  4  2  0  0  0
  3 13  1  0  0  0
  4  5  1  0  0  0
  5  6  2  0  0  0
  5 10  1  0  0  0
  6  7  1  0  0  0
  6 25  1  0  0  0
  7  8  2  0  0  0
  7 26  1  0  0  0
  8  9  1  0  0  0
  8 27  1  0  0  0
  9 10  2  0  0  0
  9 28  1  0  0  0
 10 11  1  0  0  0
 11 12  2  0  0  0
 11 13  1  0  0  0
 13 14  1  0  0  0
 14 15  2  0  0  0
 14 20  1  0  0  0
 15 16  1  0  0  0
 15 17  1  0  0  0
 17 18  2  0  0  0
 17 29  1  0  0  0
 18 19  1  0  0  0
 18 30  1  0  0  0
 19 20  2  0  0  0
 19 31  1  0  0  0
 20 21  1  0  0  0
M  END
> <s_m_source_file>
../3g3n_ligand.sdf

> <i_m_source_file_index>
1

> <s_epik_input>
W2NIXTFbY0hdW2NIXVtjSF1jKGMxMiljKD1PKW4oYyhuMilTW0NIM10pLWMzYyhGKVtjSF1bY0hdW2NIXWMzRg==

> <s_epik_cmdline>
J2VwaWtfYXBwJywgJy1pbWFlJywgJ2xpZ2FuZF9wcm8ubWFlJywgJy1vbWFlJywgJ2xpZ2FuZF9wcmVwLm1hZScsICctbXMnLCAnMScsICctcGgnLCAnNycsICctcGh0JywgJzAuNScsICctbnQn

> <r_lp_tautomer_probability>
1

> <r_epik_Ionization_Penalty>
  0.0000

> <r_epik_Ionization_Penalty_Charging>
  0.0000

> <r_epik_Ionization_Penalty_Neutral>
  0.0000

> <r_epik_State_Penalty>
 -0.0000

> <r_epik_Charging_Adjusted_Penalty>
3.49517954820492e-10

> <i_epik_Tot_Q>
0

> <i_epik_Tot_abs_Q>
0

$$$$
