3g4f_ligand
                    3D
 Schrodinger Suite 2020-3.
 49 48  0  0  1  0            999 V2000
   14.9950  -48.3920   12.4930 C   0  0  0  0  0  0
   15.4410  -49.5580   13.1240 O   0  0  0  0  0  0
   15.8310  -47.2510   13.0920 C   0  0  0  0  0  0
   17.1750  -47.3450   13.0750 F   0  0  0  0  0  0
   15.2320  -46.2070   13.6550 C   0  0  0  0  0  0
   13.7030  -46.1420   13.6560 C   0  0  0  0  0  0
   16.0820  -45.0780   14.3070 C   0  0  0  0  0  0
   16.2620  -43.7310   13.5270 C   0  0  0  0  0  0
   15.0900  -42.8020   13.9300 C   0  0  0  0  0  0
   15.0570  -41.4840   13.6560 C   0  0  0  0  0  0
   16.2270  -40.7530   12.9590 C   0  0  0  0  0  0
   13.8070  -40.7070   14.1080 C   0  0  0  0  0  0
   12.6010  -40.7000   13.1420 C   0  0  0  0  0  0
   11.2600  -41.1710   13.7580 C   0  0  0  0  0  0
   10.8170  -42.4300   13.6280 C   0  0  0  0  0  0
    9.4890  -42.8680   14.2580 C   0  0  0  0  0  0
   11.6320  -43.4630   12.8480 C   0  0  0  0  0  0
   14.4080  -50.6780   13.3590 P   0  0  1  0  0  0
   14.6850  -51.2580   14.6940 O   0  5  0  0  0  0
   13.1210  -49.9630   13.2970 O   0  0  0  0  0  0
   14.6060  -51.6650   12.2560 O   0  0  0  0  0  0
   16.0540  -52.5150   12.2150 P   0  0  0  0  0  0
   15.7960  -54.1590   12.2780 O   0  5  0  0  0  0
   16.8360  -52.2090   10.7900 O   0  0  0  0  0  0
   17.0340  -52.0650   13.4740 O   0  5  0  0  0  0
   15.1544  -48.4783   11.4080 H   0  0  0  0  0  0
   13.9230  -48.2522   12.6961 H   0  0  0  0  0  0
   13.2979  -47.0303   13.1491 H   0  0  0  0  0  0
   13.3742  -45.2357   13.1263 H   0  0  0  0  0  0
   13.3379  -46.1133   14.6933 H   0  0  0  0  0  0
   15.6311  -44.7877   15.2674 H   0  0  0  0  0  0
   17.1059  -45.4420   14.4778 H   0  0  0  0  0  0
   17.2256  -43.2756   13.7993 H   0  0  0  0  0  0
   16.2425  -43.9284   12.4450 H   0  0  0  0  0  0
   14.2540  -43.2730   14.4679 H   0  0  0  0  0  0
   17.0189  -41.4768   12.7161 H   0  0  0  0  0  0
   16.6295  -39.9809   13.6313 H   0  0  0  0  0  0
   15.8652  -40.2811   12.0336 H   0  0  0  0  0  0
   13.4305  -41.1338   15.0493 H   0  0  0  0  0  0
   14.0686  -39.6499   14.2634 H   0  0  0  0  0  0
   12.4337  -39.6778   12.7718 H   0  0  0  0  0  0
   12.8074  -41.3682   12.2929 H   0  0  0  0  0  0
   10.6653  -40.4337   14.3172 H   0  0  0  0  0  0
    9.0311  -42.0142   14.7789 H   0  0  0  0  0  0
    9.6743  -43.6796   14.9770 H   0  0  0  0  0  0
    8.8092  -43.2243   13.4700 H   0  0  0  0  0  0
   12.5490  -42.9923   12.4638 H   0  0  0  0  0  0
   11.0340  -43.8421   12.0062 H   0  0  0  0  0  0
   11.8991  -44.2974   13.5131 H   0  0  0  0  0  0
  1  2  1  0  0  0
  1  3  1  0  0  0
  1 26  1  0  0  0
  1 27  1  0  0  0
  2 18  1  0  0  0
  3  4  1  0  0  0
  3  5  2  0  0  0
  5  6  1  0  0  0
  5  7  1  0  0  0
  6 28  1  0  0  0
  6 29  1  0  0  0
  6 30  1  0  0  0
  7  8  1  0  0  0
  7 31  1  0  0  0
  7 32  1  0  0  0
  8  9  1  0  0  0
  8 33  1  0  0  0
  8 34  1  0  0  0
  9 10  2  0  0  0
  9 35  1  0  0  0
 10 11  1  0  0  0
 10 12  1  0  0  0
 11 36  1  0  0  0
 11 37  1  0  0  0
 11 38  1  0  0  0
 12 13  1  0  0  0
 12 39  1  0  0  0
 12 40  1  0  0  0
 13 14  1  0  0  0
 13 41  1  0  0  0
 13 42  1  0  0  0
 14 15  2  0  0  0
 14 43  1  0  0  0
 15 16  1  0  0  0
 15 17  1  0  0  0
 16 44  1  0  0  0
 16 45  1  0  0  0
 16 46  1  0  0  0
 17 47  1  0  0  0
 17 48  1  0  0  0
 17 49  1  0  0  0
 18 19  1  0  0  0
 18 20  2  0  0  0
 18 21  1  0  0  0
 21 22  1  0  0  0
 22 23  1  0  0  0
 22 24  2  0  0  0
 22 25  1  0  0  0
M  CHG  3  19  -1  23  -1  25  -1
M  END
> <s_m_source_file>
../3g4f_ligand.sdf

> <i_m_source_file_index>
1

> <s_epik_input>
W09IXVAoPU8pKFtPSF0pT1tQQEBdKD1PKShbT0hdKU9bQ0gyXS9DKEYpPUMoXFtDSDNdKVtDSDJdW0NIMl0vW0NIXT1DKFxbQ0gzXSlbQ0gyXVtDSDJdW0NIXT1DKFtDSDNdKVtDSDNd

> <s_epik_cmdline>
J2VwaWtfYXBwJywgJy1pbWFlJywgJ2xpZ2FuZF9wcm8ubWFlJywgJy1vbWFlJywgJ2xpZ2FuZF9wcmVwLm1hZScsICctbXMnLCAnMScsICctcGgnLCAnNycsICctcGh0JywgJzAuNScsICctbnQn

> <r_epik_Ionization_Penalty>
  0.0838

> <r_epik_Ionization_Penalty_Charging>
  0.0838

> <r_epik_Ionization_Penalty_Neutral>
  0.0000

> <r_epik_State_Penalty>
  0.0736

> <r_epik_Charging_Adjusted_Penalty>
0.157344061550482

> <i_epik_Tot_Q>
-3

> <i_epik_Tot_abs_Q>
3

$$$$
