3g4i_ligand
                    3D
 Schrodinger Suite 2020-3.
 41 44  0  0  1  0            999 V2000
   22.5110   -1.3240   34.6220 C   0  0  0  0  0  0
   22.4680   -2.3810   33.7660 C   0  0  0  0  0  0
   22.5330   -3.7720   34.3510 C   0  0  0  0  0  0
   22.6670   -2.8330   36.5500 C   0  0  0  0  0  0
   22.6100   -1.5580   36.0770 C   0  0  0  0  0  0
   22.3910   -4.6890   31.9970 C   0  0  0  0  0  0
   25.7760   -8.7430   32.6360 O   0  5  0  0  0  0
   24.9730   -9.1890   33.4010 N   0  3  0  0  0  0
   25.1210  -10.4680   33.7810 O   0  0  0  0  0  0
   23.8740   -8.4150   33.8750 C   0  0  0  0  0  0
   23.7120   -7.1110   33.4770 C   0  0  0  0  0  0
   22.8410   -8.9990   34.7970 C   0  0  0  0  0  0
   21.7830   -8.2720   35.2220 C   0  0  0  0  0  0
   21.6200   -6.8500   34.7830 C   0  0  0  0  0  0
   22.5530   -6.3010   33.9440 C   0  0  0  0  0  0
   22.4900   -4.9170   33.4590 N   0  0  0  0  0  0
   22.6260   -3.9390   35.6500 N   0  0  0  0  0  0
   22.3550   -5.6570   31.2290 O   0  0  0  0  0  0
   22.3490   -3.3360   31.4350 N   0  0  0  0  0  0
   22.3750   -2.1890   32.2930 C   0  0  0  0  0  0
   22.3380   -1.0260   31.7870 O   0  0  0  0  0  0
   22.2500   -3.1620   29.9550 C   0  0  0  0  0  0
   20.8820   -3.5660   29.4500 C   0  0  0  0  0  0
   20.6260   -4.6480   28.6710 C   0  0  0  0  0  0
   19.2210   -4.9050   28.2730 C   0  0  0  0  0  0
   18.2720   -4.1070   28.6930 N   0  0  0  0  0  0
   18.5380   -2.9720   29.5220 C   0  0  0  0  0  0
   19.7840   -2.6880   29.9130 C   0  0  0  0  0  0
   22.4724   -0.3060   34.2344 H   0  0  0  0  0  0
   22.7444   -3.0100   37.6227 H   0  0  0  0  0  0
   22.6372   -0.7151   36.7675 H   0  0  0  0  0  0
   24.4447   -6.6607   32.8073 H   0  0  0  0  0  0
   22.9469  -10.0313   35.1305 H   0  0  0  0  0  0
   21.0461   -8.7230   35.8867 H   0  0  0  0  0  0
   20.7704   -6.2597   35.1264 H   0  0  0  0  0  0
   22.4228   -2.1066   29.6975 H   0  0  0  0  0  0
   23.0069   -3.7886   29.4607 H   0  0  0  0  0  0
   21.4302   -5.3088   28.3474 H   0  0  0  0  0  0
   18.9795   -5.7542   27.6338 H   0  0  0  0  0  0
   17.7149   -2.3313   29.8385 H   0  0  0  0  0  0
   19.9865   -1.8317   30.5564 H   0  0  0  0  0  0
  1  2  1  0  0  0
  1  5  2  0  0  0
  1 29  1  0  0  0
  2  3  2  0  0  0
  2 20  1  0  0  0
  3 16  1  0  0  0
  3 17  1  0  0  0
  4  5  1  0  0  0
  4 17  2  0  0  0
  4 30  1  0  0  0
  5 31  1  0  0  0
  6 16  1  0  0  0
  6 18  2  0  0  0
  6 19  1  0  0  0
  7  8  1  0  0  0
  8  9  2  0  0  0
  8 10  1  0  0  0
 10 11  2  0  0  0
 10 12  1  0  0  0
 11 15  1  0  0  0
 11 32  1  0  0  0
 12 13  2  0  0  0
 12 33  1  0  0  0
 13 14  1  0  0  0
 13 34  1  0  0  0
 14 15  2  0  0  0
 14 35  1  0  0  0
 15 16  1  0  0  0
 19 20  1  0  0  0
 19 22  1  0  0  0
 20 21  2  0  0  0
 22 23  1  0  0  0
 22 36  1  0  0  0
 22 37  1  0  0  0
 23 24  2  0  0  0
 23 28  1  0  0  0
 24 25  1  0  0  0
 24 38  1  0  0  0
 25 26  2  0  0  0
 25 39  1  0  0  0
 26 27  1  0  0  0
 27 28  2  0  0  0
 27 40  1  0  0  0
 28 41  1  0  0  0
M  CHG  2   7  -1   8   1
M  END
> <s_m_source_file>
../3g4i_ligand.sdf

> <i_m_source_file_index>
1

> <s_epik_input>
W2NIXTFbY0hdW2NIXW5jKGMxMiluKC1jKFtjSF1jM1tOK10oW08tXSk9TylbY0hdW2NIXVtjSF0zKWMoPU8pbihjMj1PKVtDSDJdYzRbY0hdW2NIXW5bY0hdW2NIXTQ=

> <s_epik_cmdline>
J2VwaWtfYXBwJywgJy1pbWFlJywgJ2xpZ2FuZF9wcm8ubWFlJywgJy1vbWFlJywgJ2xpZ2FuZF9wcmVwLm1hZScsICctbXMnLCAnMScsICctcGgnLCAnNycsICctcGh0JywgJzAuNScsICctbnQn

> <r_epik_Ionization_Penalty>
  0.0337

> <r_epik_Ionization_Penalty_Charging>
  0.0000

> <r_epik_Ionization_Penalty_Neutral>
  0.0337

> <r_epik_State_Penalty>
  0.0280

> <r_epik_Charging_Adjusted_Penalty>
0.0279871241748421

> <i_epik_Tot_Q>
0

> <i_epik_Tot_abs_Q>
2

$$$$
