3g4k_ligand
                    3D
 Schrodinger Suite 2020-3.
 41 43  0  0  1  0            999 V2000
   21.1670   -2.8930   31.0380 C   0  0  0  0  0  0
   21.5800   -4.0560   31.6800 C   0  0  0  0  0  0
   22.0070   -4.0330   33.0190 C   0  0  0  0  0  0
   22.0030   -2.7630   33.7650 C   0  0  0  0  0  0
   21.5810   -1.6220   33.0910 C   0  0  0  0  0  0
   21.1710   -1.6880   31.7490 C   0  0  0  0  0  0
   20.7290   -3.0200   29.6160 C   0  0  1  0  0  0
   19.2980   -2.5240   29.3680 C   0  0  0  0  0  0
   19.3640   -1.8970   27.9890 C   0  0  0  0  0  0
   18.3800   -1.5490   27.3350 O   0  0  0  0  0  0
   20.6410   -1.7940   27.6220 N   0  0  0  0  0  0
   21.6000   -2.2700   28.6110 C   0  0  0  0  0  0
   22.4110   -5.1560   33.6860 O   0  0  0  0  0  0
   22.5040   -6.4230   33.0320 C   0  0  0  0  0  0
   21.1120   -7.0060   32.9320 C   0  0  0  0  0  0
   20.9030   -7.8180   34.1940 C   0  0  0  0  0  0
   22.2750   -8.0640   34.7910 C   0  0  0  0  0  0
   23.2920   -7.4120   33.8780 C   0  0  0  0  0  0
   22.4190   -2.7790   35.0820 O   0  0  0  0  0  0
   22.3180   -1.6500   35.9490 C   0  0  0  0  0  0
   21.5724   -5.0004   31.1358 H   0  0  0  0  0  0
   21.5682   -0.6640   33.6108 H   0  0  0  0  0  0
   20.8472   -0.7757   31.2480 H   0  0  0  0  0  0
   20.8256   -4.1075   29.4821 H   0  0  0  0  0  0
   18.6032   -3.3760   29.4041 H   0  0  0  0  0  0
   19.0234   -1.7939   30.1436 H   0  0  0  0  0  0
   20.9954   -1.3900   26.6622 H   0  0  0  0  0  0
   22.1211   -1.4460   29.1205 H   0  0  0  0  0  0
   22.3397   -2.9605   28.1796 H   0  0  0  0  0  0
   22.9852   -6.2124   32.0655 H   0  0  0  0  0  0
   20.3773   -6.1905   32.8596 H   0  0  0  0  0  0
   21.0440   -7.6413   32.0366 H   0  0  0  0  0  0
   20.2693   -7.2526   34.8931 H   0  0  0  0  0  0
   20.4117   -8.7691   33.9409 H   0  0  0  0  0  0
   22.3219   -7.6214   35.7969 H   0  0  0  0  0  0
   22.4570   -9.1468   34.8580 H   0  0  0  0  0  0
   23.7757   -8.1513   33.2226 H   0  0  0  0  0  0
   24.0600   -6.8730   34.4522 H   0  0  0  0  0  0
   22.7139   -1.9130   36.9410 H   0  0  0  0  0  0
   21.2631   -1.3525   36.0422 H   0  0  0  0  0  0
   22.8992   -0.8143   35.5320 H   0  0  0  0  0  0
  1  2  2  0  0  0
  1  6  1  0  0  0
  1  7  1  0  0  0
  2  3  1  0  0  0
  2 21  1  0  0  0
  3  4  2  0  0  0
  3 13  1  0  0  0
  4  5  1  0  0  0
  4 19  1  0  0  0
  5  6  2  0  0  0
  5 22  1  0  0  0
  6 23  1  0  0  0
  7  8  1  0  0  0
  7 12  1  0  0  0
  7 24  1  0  0  0
  8  9  1  0  0  0
  8 25  1  0  0  0
  8 26  1  0  0  0
  9 10  2  0  0  0
  9 11  1  0  0  0
 11 12  1  0  0  0
 11 27  1  0  0  0
 12 28  1  0  0  0
 12 29  1  0  0  0
 13 14  1  0  0  0
 14 15  1  0  0  0
 14 18  1  0  0  0
 14 30  1  0  0  0
 15 16  1  0  0  0
 15 31  1  0  0  0
 15 32  1  0  0  0
 16 17  1  0  0  0
 16 33  1  0  0  0
 16 34  1  0  0  0
 17 18  1  0  0  0
 17 35  1  0  0  0
 17 36  1  0  0  0
 18 37  1  0  0  0
 18 38  1  0  0  0
 19 20  1  0  0  0
 20 39  1  0  0  0
 20 40  1  0  0  0
 20 41  1  0  0  0
M  END
> <s_m_source_file>
../3g4k_ligand.sdf

> <i_m_source_file_index>
1

> <s_epik_input>
W0NIMl0xW05IXUMoPU8pW0NIMl1bQ0BASF0xYzJbY0hdYyhjKFtjSF1bY0hdMilPW0NIM10pT1tDSF0zW0NIMl1bQ0gyXVtDSDJdW0NIMl0z

> <s_epik_cmdline>
J2VwaWtfYXBwJywgJy1pbWFlJywgJ2xpZ2FuZF9wcm8ubWFlJywgJy1vbWFlJywgJ2xpZ2FuZF9wcmVwLm1hZScsICctbXMnLCAnMScsICctcGgnLCAnNycsICctcGh0JywgJzAuNScsICctbnQn

> <r_lp_tautomer_probability>
1

> <r_epik_Ionization_Penalty>
  0.0000

> <r_epik_Ionization_Penalty_Charging>
  0.0000

> <r_epik_Ionization_Penalty_Neutral>
  0.0000

> <r_epik_State_Penalty>
 -0.0000

> <r_epik_Charging_Adjusted_Penalty>
0

> <i_epik_Tot_Q>
0

> <i_epik_Tot_abs_Q>
0

$$$$
