3g4l_ligand
                    3D
 Schrodinger Suite 2020-3.
 40 42  0  0  1  0            999 V2000
   20.7990   -4.7950   28.8480 O   0  0  0  0  0  0
   23.5250   -8.9900   34.2760 C   0  0  0  0  0  0
   22.6750   -9.6160   33.1710 C   0  0  0  0  0  0
   22.4660   -8.1640   33.5680 C   0  0  0  0  0  0
   21.1530   -3.6730   29.1700 C   0  0  0  0  0  0
   21.5620   -3.5750   30.6070 C   0  0  0  0  0  0
   21.4300   -2.4010   31.3460 C   0  0  0  0  0  0
   21.7650   -2.3880   32.7040 C   0  0  0  0  0  0
   22.2140   -3.5590   33.3370 C   0  0  0  0  0  0
   22.5580   -3.6370   34.6670 O   0  0  0  0  0  0
   22.7660   -2.5200   35.5070 C   0  0  0  0  0  0
   23.5790   -1.6130   34.8790 F   0  0  0  0  0  0
   21.5450   -1.9960   35.7840 F   0  0  0  0  0  0
   22.3140   -4.7370   32.6110 C   0  0  0  0  0  0
   22.7580   -5.8640   33.2730 O   0  0  0  0  0  0
   23.0240   -7.1110   32.6350 C   0  0  0  0  0  0
   21.9670   -4.7420   31.2530 C   0  0  0  0  0  0
   21.0250   -2.6100   28.3610 N   0  0  0  0  0  0
   20.4070   -2.7050   27.1270 C   0  0  0  0  0  0
   20.9470   -1.9530   26.1130 C   0  0  0  0  0  0
   22.2250   -0.7930   26.5400 Cl  0  0  0  0  0  0
   20.5110   -2.0710   24.7980 C   0  0  0  0  0  0
   19.5640   -2.9490   24.4520 N   0  0  0  0  0  0
   19.0120   -3.7260   25.3920 C   0  0  0  0  0  0
   19.4110   -3.6240   26.7320 C   0  0  0  0  0  0
   18.5560   -4.7120   27.8740 Cl  0  0  0  0  0  0
   23.3727   -9.5439   35.2141 H   0  0  0  0  0  0
   24.5867   -9.0350   33.9919 H   0  0  0  0  0  0
   23.3289   -9.9614   32.3566 H   0  0  0  0  0  0
   22.1148  -10.4703   33.5788 H   0  0  0  0  0  0
   21.5870   -7.5743   33.8674 H   0  0  0  0  0  0
   21.0657   -1.4928   30.8658 H   0  0  0  0  0  0
   21.6771   -1.4635   33.2747 H   0  0  0  0  0  0
   23.2580   -2.7708   36.4583 H   0  0  0  0  0  0
   24.1037   -7.2739   32.5021 H   0  0  0  0  0  0
   22.5199   -7.1809   31.6598 H   0  0  0  0  0  0
   22.0147   -5.6753   30.6919 H   0  0  0  0  0  0
   21.4167   -1.6307   28.6734 H   0  0  0  0  0  0
   20.9514   -1.4331   24.0317 H   0  0  0  0  0  0
   18.2433   -4.4464   25.1122 H   0  0  0  0  0  0
  1  5  2  0  0  0
  2  3  1  0  0  0
  2  4  1  0  0  0
  2 27  1  0  0  0
  2 28  1  0  0  0
  3  4  1  0  0  0
  3 29  1  0  0  0
  3 30  1  0  0  0
  4 16  1  0  0  0
  4 31  1  0  0  0
  5  6  1  0  0  0
  5 18  1  0  0  0
  6  7  2  0  0  0
  6 17  1  0  0  0
  7  8  1  0  0  0
  7 32  1  0  0  0
  8  9  2  0  0  0
  8 33  1  0  0  0
  9 10  1  0  0  0
  9 14  1  0  0  0
 10 11  1  0  0  0
 11 12  1  0  0  0
 11 13  1  0  0  0
 11 34  1  0  0  0
 14 15  1  0  0  0
 14 17  2  0  0  0
 15 16  1  0  0  0
 16 35  1  0  0  0
 16 36  1  0  0  0
 17 37  1  0  0  0
 18 19  1  0  0  0
 18 38  1  0  0  0
 19 20  2  0  0  0
 19 25  1  0  0  0
 20 21  1  0  0  0
 20 22  1  0  0  0
 22 23  2  0  0  0
 22 39  1  0  0  0
 23 24  1  0  0  0
 24 25  2  0  0  0
 24 40  1  0  0  0
 25 26  1  0  0  0
M  END
> <s_m_source_file>
../3g4l_ligand.sdf

> <i_m_source_file_index>
1

> <s_epik_input>
Q2xjMVtjSF1uW2NIXWMoQ2wpYzFbTkhdQyg9TyljMltjSF1bY0hdYyhPW0NIXShGKUYpYyhbY0hdMilPW0NIMl1bQ0hdM1tDSDJdW0NIMl0z

> <s_epik_cmdline>
J2VwaWtfYXBwJywgJy1pbWFlJywgJ2xpZ2FuZF9wcm8ubWFlJywgJy1vbWFlJywgJ2xpZ2FuZF9wcmVwLm1hZScsICctbXMnLCAnMScsICctcGgnLCAnNycsICctcGh0JywgJzAuNScsICctbnQn

> <r_lp_tautomer_probability>
1

> <r_epik_Ionization_Penalty>
  0.0014

> <r_epik_Ionization_Penalty_Charging>
  0.0000

> <r_epik_Ionization_Penalty_Neutral>
  0.0014

> <r_epik_State_Penalty>
 -0.0000

> <r_epik_Charging_Adjusted_Penalty>
0

> <i_epik_Tot_Q>
0

> <i_epik_Tot_abs_Q>
0

$$$$
