3g5k_ligand
                    3D
 Schrodinger Suite 2020-3.
 62 62  0  0  1  0            999 V2000
   33.3760   12.8130   12.0480 C   0  0  0  0  0  0
   31.9010   12.9620   12.0570 C   0  0  0  0  0  0
   31.0180   12.2060   12.5790 O   0  0  0  0  0  0
   31.2830   13.8200   11.3500 N   0  0  0  0  0  0
   29.8530   13.7860   11.4270 O   0  0  0  0  0  0
   33.7960   11.8750   10.8610 C   0  0  2  0  0  0
   35.1290   11.4290   11.0940 C   0  0  0  0  0  0
   36.0550   12.1480   10.8560 O   0  0  0  0  0  0
   33.7260   12.4420    9.4330 C   0  0  0  0  0  0
   34.1960   11.4750    8.2700 C   0  0  0  0  0  0
   33.3820   10.1690    8.2320 C   0  0  0  0  0  0
   33.7410    9.3870    6.9400 C   0  0  0  0  0  0
   35.2730    8.9950    6.8200 C   0  0  0  0  0  0
   35.4310   10.0850   11.3730 N   0  0  0  0  0  0
   36.8270    9.5770   11.4930 C   0  0  1  0  0  0
   37.0490    9.1710   12.9770 C   0  0  0  0  0  0
   36.1330    8.0580   13.3450 C   0  0  0  0  0  0
   37.1240   10.4620   13.7410 C   0  0  0  0  0  0
   36.9100    8.3580   10.5090 C   0  0  0  0  0  0
   35.8670    7.7390   10.1260 O   0  0  0  0  0  0
   38.1140    7.8940   10.1780 N   0  0  0  0  0  0
   38.3630    6.7580    9.2960 C   0  0  1  0  0  0
   39.3660    8.6750   10.5210 C   0  0  0  0  0  0
   40.5010    8.0330    9.7660 C   0  0  0  0  0  0
   39.8470    7.0250    8.8090 C   0  0  0  0  0  0
   38.3570    5.4860   10.1450 C   0  0  0  0  0  0
   38.3070    4.4310    9.1070 O   0  0  0  0  0  0
   33.8435   13.8005   11.9200 H   0  0  0  0  0  0
   33.7058   12.3719   13.0002 H   0  0  0  0  0  0
   31.7817   14.5593   10.7060 H   0  0  0  0  0  0
   29.2536   14.4992   10.8422 H   0  0  0  0  0  0
   33.1109   11.0144   10.8675 H   0  0  0  0  0  0
   32.6868   12.7153    9.1976 H   0  0  0  0  0  0
   34.3651   13.3344    9.3611 H   0  0  0  0  0  0
   34.0741   11.9808    7.3008 H   0  0  0  0  0  0
   35.2542   11.2129    8.4163 H   0  0  0  0  0  0
   33.6258    9.5592    9.1144 H   0  0  0  0  0  0
   32.3079   10.4062    8.2356 H   0  0  0  0  0  0
   33.1653    8.4503    6.9065 H   0  0  0  0  0  0
   33.4955   10.0000    6.0602 H   0  0  0  0  0  0
   35.4387    8.4468    5.8808 H   0  0  0  0  0  0
   35.5563    8.3583    7.6711 H   0  0  0  0  0  0
   35.8865    9.9080    6.8249 H   0  0  0  0  0  0
   34.5824    9.3976   11.5043 H   0  0  0  0  0  0
   37.5738   10.3416   11.2329 H   0  0  0  0  0  0
   37.9749    8.6623   13.2836 H   0  0  0  0  0  0
   36.2636    7.2263   12.6370 H   0  0  0  0  0  0
   35.0922    8.4119   13.3069 H   0  0  0  0  0  0
   36.3659    7.7129   14.3631 H   0  0  0  0  0  0
   37.8717   11.1208   13.2753 H   0  0  0  0  0  0
   37.4145   10.2558   14.7817 H   0  0  0  0  0  0
   36.1407   10.9549   13.7255 H   0  0  0  0  0  0
   37.5921    6.6758    8.5157 H   0  0  0  0  0  0
   39.2386    9.7242   10.2162 H   0  0  0  0  0  0
   39.5424    8.6271   11.6057 H   0  0  0  0  0  0
   41.0574    8.8050    9.2143 H   0  0  0  0  0  0
   41.1757    7.5312   10.4752 H   0  0  0  0  0  0
   40.4108    6.0805    8.8164 H   0  0  0  0  0  0
   39.8299    7.4338    7.7879 H   0  0  0  0  0  0
   39.2707    5.4490   10.7564 H   0  0  0  0  0  0
   37.4754    5.4884   10.8029 H   0  0  0  0  0  0
   38.2913    3.3710    9.4005 H   0  0  0  0  0  0
  1  2  1  0  0  0
  1  6  1  0  0  0
  1 28  1  0  0  0
  1 29  1  0  0  0
  2  3  2  0  0  0
  2  4  1  0  0  0
  4  5  1  0  0  0
  4 30  1  0  0  0
  5 31  1  0  0  0
  6  7  1  0  0  0
  6  9  1  0  0  0
  6 32  1  0  0  0
  7  8  2  0  0  0
  7 14  1  0  0  0
  9 10  1  0  0  0
  9 33  1  0  0  0
  9 34  1  0  0  0
 10 11  1  0  0  0
 10 35  1  0  0  0
 10 36  1  0  0  0
 11 12  1  0  0  0
 11 37  1  0  0  0
 11 38  1  0  0  0
 12 13  1  0  0  0
 12 39  1  0  0  0
 12 40  1  0  0  0
 13 41  1  0  0  0
 13 42  1  0  0  0
 13 43  1  0  0  0
 14 15  1  0  0  0
 14 44  1  0  0  0
 15 16  1  0  0  0
 15 19  1  0  0  0
 15 45  1  0  0  0
 16 17  1  0  0  0
 16 18  1  0  0  0
 16 46  1  0  0  0
 17 47  1  0  0  0
 17 48  1  0  0  0
 17 49  1  0  0  0
 18 50  1  0  0  0
 18 51  1  0  0  0
 18 52  1  0  0  0
 19 20  2  0  0  0
 19 21  1  0  0  0
 21 22  1  0  0  0
 21 23  1  0  0  0
 22 25  1  0  0  0
 22 26  1  0  0  0
 22 53  1  0  0  0
 23 24  1  0  0  0
 23 54  1  0  0  0
 23 55  1  0  0  0
 24 25  1  0  0  0
 24 56  1  0  0  0
 24 57  1  0  0  0
 25 58  1  0  0  0
 25 59  1  0  0  0
 26 27  1  0  0  0
 26 60  1  0  0  0
 26 61  1  0  0  0
 27 62  1  0  0  0
M  END
> <s_m_source_file>
../3g5k_ligand.sdf

> <i_m_source_file_index>
1

> <s_epik_input>
W0NIM11bQ0gyXVtDSDJdW0NIMl1bQ0gyXVtDQEhdKFtDSDJdQyg9TylbTkhdW09IXSlDKD1PKVtOSF1bQ0BASF0oW0NIXShbQ0gzXSlbQ0gzXSlDKD1PKU4xW0NASF0oW0NIMl1bT0hdKVtDSDJdW0NIMl1bQ0gyXTE=

> <s_epik_cmdline>
J2VwaWtfYXBwJywgJy1pbWFlJywgJ2xpZ2FuZF9wcm8ubWFlJywgJy1vbWFlJywgJ2xpZ2FuZF9wcmVwLm1hZScsICctbXMnLCAnMScsICctcGgnLCAnNycsICctcGh0JywgJzAuNScsICctbnQn

> <r_lp_tautomer_probability>
1

> <r_epik_Ionization_Penalty>
  0.0055

> <r_epik_Ionization_Penalty_Charging>
  0.0000

> <r_epik_Ionization_Penalty_Neutral>
  0.0055

> <r_epik_State_Penalty>
 -0.0000

> <r_epik_Charging_Adjusted_Penalty>
0

> <i_epik_Tot_Q>
0

> <i_epik_Tot_abs_Q>
0

> <s_epik_Chemistry_Notes>
This compound has a N-S or N-O group and may undergo hydrolysis at high or low pH.

$$$$
