3g5v_ligand
                    3D
 Schrodinger Suite 2020-3.
232233  0  0  1  0            999 V2000
   25.3480   17.9730  -10.4960 N   0  3  0  0  0  0
   25.4180   18.2020   -9.0220 C   0  0  2  0  0  0
   26.8240   17.9730   -8.4560 C   0  0  0  0  0  0
   27.6930   17.4190   -9.1310 O   0  0  0  0  0  0
   24.4050   17.3110   -8.2980 C   0  0  0  0  0  0
   24.5650   15.5470   -8.6520 S   0  0  0  0  0  0
   27.0280   18.3940   -7.2080 N   0  0  0  0  0  0
   28.3260   18.2770   -6.5510 C   0  0  0  0  0  0
   29.2660   19.3780   -6.9980 C   0  0  0  0  0  0
   28.8780   20.5470   -7.0460 O   0  0  0  0  0  0
   30.4970   19.0010   -7.3350 N   0  0  0  0  0  0
   31.5080   19.9510   -7.8060 C   0  0  2  0  0  0
   31.1410   20.5780   -9.1550 C   0  0  0  0  0  0
   31.4770   21.7330   -9.4220 O   0  0  0  0  0  0
   32.8720   19.2760   -7.8840 C   0  0  0  0  0  0
   30.4390   19.8120   -9.9870 N   0  0  0  0  0  0
   30.0850   20.2390  -11.3390 C   0  0  2  0  0  0
   28.5640   20.3480  -11.5130 C   0  0  0  0  0  0
   27.8150   20.3380  -10.5300 O   0  0  0  0  0  0
   30.6620   19.2400  -12.3520 C   0  0  0  0  0  0
   31.2850   19.9170  -13.5570 C   0  0  0  0  0  0
   31.7860   19.1930  -14.4440 O   0  0  0  0  0  0
   31.2910   21.1680  -13.6210 O   0  0  0  0  0  0
   28.1180   20.4600  -12.7650 N   0  0  0  0  0  0
   26.6910   20.4340  -13.0950 C   0  0  2  0  0  0
   26.2290   19.0580  -13.6070 C   0  0  0  0  0  0
   25.0410   18.8550  -13.8650 O   0  0  0  0  0  0
   26.3550   21.5230  -14.1150 C   0  0  0  0  0  0
   26.6400   22.8130  -13.6020 O   0  0  0  0  0  0
   27.1700   18.1210  -13.7370 N   0  0  0  0  0  0
   26.8800   16.7670  -14.2200 C   0  0  2  0  0  0
   26.2090   15.8820  -13.1710 C   0  0  0  0  0  0
   26.6860   15.7730  -12.0380 O   0  0  0  0  0  0
   28.1620   16.0720  -14.6880 C   0  0  0  0  0  0
   28.6970   16.5220  -16.0340 C   0  0  0  0  0  0
   28.0410   16.1830  -17.2220 C   0  0  0  0  0  0
   29.8770   17.2560  -16.1230 C   0  0  0  0  0  0
   28.5390   16.5860  -18.4590 C   0  0  0  0  0  0
   30.3840   17.6610  -17.3560 C   0  0  0  0  0  0
   29.7100   17.3220  -18.5170 C   0  0  0  0  0  0
   30.2090   17.7200  -19.7350 O   0  0  0  0  0  0
   25.1020   15.2570  -13.5630 N   0  0  0  0  0  0
   24.5090   14.1460  -12.8120 C   0  0  2  0  0  0
   24.5500   12.9270  -13.7370 C   0  0  0  0  0  0
   24.4960   13.0740  -14.9610 O   0  0  0  0  0  0
   23.0660   14.4540  -12.3820 C   0  0  0  0  0  0
   22.4650   13.4430  -11.3730 C   0  0  0  0  0  0
   20.9300   13.4820  -11.2820 C   0  0  0  0  0  0
   20.2680   13.8740  -12.2710 O   0  0  0  0  0  0
   20.3800   13.1080  -10.2190 O   0  0  0  0  0  0
   24.6640   11.7370  -13.1530 N   0  0  0  0  0  0
   24.7200   10.4880  -13.9190 C   0  0  2  0  0  0
   23.9080    9.3810  -13.2310 C   0  0  0  0  0  0
   23.5570    9.5180  -12.0540 O   0  0  0  0  0  0
   26.1940   10.1070  -14.1870 C   0  0  0  0  0  0
   26.6470    8.7010  -13.7940 C   0  0  0  0  0  0
   27.0850    8.5670  -12.0440 S   0  0  0  0  0  0
   28.5720    9.5730  -11.9960 C   0  0  0  0  0  0
   23.5630    8.3180  -13.9640 N   0  0  0  0  0  0
   22.9860    7.1270  -13.3150 C   0  0  2  0  0  0
   23.7680    5.8420  -13.5560 C   0  0  0  0  0  0
   24.3390    5.6250  -14.6220 O   0  0  0  0  0  0
   21.4690    6.9450  -13.5710 C   0  0  0  0  0  0
   21.0200    6.6230  -14.9880 C   0  0  0  0  0  0
   21.2100    5.1560  -15.4210 C   0  0  0  0  0  0
   21.2620    4.2290  -14.5790 O   0  0  0  0  0  0
   21.2960    4.9370  -16.6400 O   0  0  0  0  0  0
   23.7740    5.0050  -12.5280 N   0  0  0  0  0  0
   24.4350    3.7160  -12.5380 C   0  0  2  0  0  0
   23.4630    2.7150  -11.9250 C   0  0  0  0  0  0
   23.0170    2.9100  -10.7930 O   0  0  0  0  0  0
   25.7080    3.8070  -11.7040 C   0  0  0  0  0  0
   26.3840    2.4840  -11.4010 C   0  0  0  0  0  0
   27.7390    2.6730  -10.7450 C   0  0  0  0  0  0
   27.9680    3.7530  -10.1460 O   0  0  0  0  0  0
   28.5750    1.7430  -10.8380 O   0  0  0  0  0  0
   23.1310    1.6610  -12.6750 N   0  0  0  0  0  0
   22.1630    0.6470  -12.2260 C   0  0  2  0  0  0
   20.8640    1.2760  -11.7040 C   0  0  0  0  0  0
   20.2810    0.7910  -10.7260 O   0  0  0  0  0  0
   22.7740   -0.2330  -11.1250 C   0  0  0  0  0  0
   23.8170   -1.2060  -11.6440 C   0  0  0  0  0  0
   23.7020   -1.6930  -12.7960 O   0  0  0  0  0  0
   24.7560   -1.5010  -10.8710 O   0  0  0  0  0  0
   20.4290    2.3650  -12.3390 N   0  0  0  0  0  0
   19.2180    3.0800  -11.9300 C   0  0  0  0  0  0
   19.3530    3.9960  -10.7230 C   0  0  0  0  0  0
   18.3630    4.5700  -10.2590 O   0  0  0  0  0  0
   20.5720    4.1470  -10.2070 N   0  0  0  0  0  0
   20.7930    5.0650   -9.0950 C   0  0  2  0  0  0
   21.4960    6.3280   -9.5860 C   0  0  0  0  0  0
   22.5450    6.2560  -10.2220 O   0  0  0  0  0  0
   21.5700    4.4210   -7.9260 C   0  0  0  0  0  0
   21.6460    5.3780   -6.7450 C   0  0  0  0  0  0
   20.8940    3.1310   -7.4850 C   0  0  0  0  0  0
   20.8800    7.4670   -9.2870 N   0  0  0  0  0  0
   21.3770    8.7790   -9.6680 C   0  0  2  0  0  0
   22.5010    9.1590   -8.7270 C   0  0  0  0  0  0
   22.3900    8.9860   -7.5120 O   0  0  0  0  0  0
   20.2550    9.8230   -9.6150 C   0  0  0  0  0  0
   19.3840    9.8950  -10.8770 C   0  0  0  0  0  0
   18.6600    8.5870  -11.1340 C   0  0  0  0  0  0
   17.7290    8.6560  -12.2590 N   0  0  0  0  0  0
   17.0070    7.6290  -12.6960 C   0  0  0  0  0  0
   16.1850    7.7880  -13.7280 N   0  0  0  0  0  0
   17.1080    6.4420  -12.1110 N   0  0  0  0  0  0
   23.5880    9.6520   -9.3030 N   0  0  0  0  0  0
   24.7790   10.0190   -8.5520 C   0  0  2  0  0  0
   25.4140   11.2820   -9.1320 C   0  0  0  0  0  0
   25.1950   11.6280  -10.2960 O   0  0  0  0  0  0
   25.7910    8.8640   -8.5400 C   0  0  0  0  0  0
   25.2210    7.5290   -8.0360 C   0  0  0  0  0  0
   26.2620    6.4190   -8.0330 C   0  0  0  0  0  0
   25.5850    5.0670   -7.8540 C   0  0  0  0  0  0
   26.5690    3.9360   -7.8440 N   0  3  0  0  0  0
   26.1910   11.9700   -8.3040 N   0  0  0  0  0  0
   26.9280   13.1500   -8.7350 C   0  0  2  0  0  0
   28.3110   12.7400   -9.2180 C   0  0  0  0  0  0
   28.9990   11.9340   -8.5890 O   0  0  0  0  0  0
   27.0420   14.1660   -7.5970 C   0  0  0  0  0  0
   25.4620   14.7920   -6.9850 S   0  0  0  0  0  0
   28.7630   13.2070  -10.2570 O   0  0  0  0  0  0
   26.0802   18.6189  -11.0026 H   0  0  0  0  0  0
   24.3367   18.2122  -10.8566 H   0  0  0  0  0  0
   25.5755   16.9192  -10.7145 H   0  0  0  0  0  0
   25.1641   19.2625   -8.8774 H   0  0  0  0  0  0
   24.5235   17.4296   -7.2109 H   0  0  0  0  0  0
   23.3854   17.6031   -8.5897 H   0  0  0  0  0  0
   26.1784   18.8416   -6.6715 H   0  0  0  0  0  0
   28.1933   18.3491   -5.4614 H   0  0  0  0  0  0
   28.7777   17.3059   -6.8018 H   0  0  0  0  0  0
   30.7439   17.9325   -7.2495 H   0  0  0  0  0  0
   31.5191   20.7453   -7.0451 H   0  0  0  0  0  0
   33.1179   18.8324   -6.9079 H   0  0  0  0  0  0
   33.6354   20.0217   -8.1507 H   0  0  0  0  0  0
   32.8472   18.4867   -8.6497 H   0  0  0  0  0  0
   30.1235   18.8234   -9.6221 H   0  0  0  0  0  0
   30.5318   21.2364  -11.4640 H   0  0  0  0  0  0
   31.4419   18.6349  -11.8667 H   0  0  0  0  0  0
   29.8595   18.5811  -12.7150 H   0  0  0  0  0  0
   31.7397   21.6721  -14.4896 H   0  0  0  0  0  0
   28.8653   20.5752  -13.5639 H   0  0  0  0  0  0
   26.1902   20.6418  -12.1379 H   0  0  0  0  0  0
   26.9516   21.3686  -15.0261 H   0  0  0  0  0  0
   25.2849   21.4739  -14.3648 H   0  0  0  0  0  0
   26.4515   23.7041  -14.2187 H   0  0  0  0  0  0
   28.1988   18.3991  -13.4644 H   0  0  0  0  0  0
   26.1783   16.9430  -15.0486 H   0  0  0  0  0  0
   28.9652   16.2548  -13.9590 H   0  0  0  0  0  0
   27.9827   14.9900  -14.7724 H   0  0  0  0  0  0
   27.1250   15.5938  -17.1791 H   0  0  0  0  0  0
   30.4138   17.5185  -15.2114 H   0  0  0  0  0  0
   28.0101   16.3235  -19.3752 H   0  0  0  0  0  0
   31.3055   18.2411  -17.4063 H   0  0  0  0  0  0
   29.6778   17.4536  -20.6606 H   0  0  0  0  0  0
   24.6297   15.6064  -14.4930 H   0  0  0  0  0  0
   25.1027   13.9992  -11.8977 H   0  0  0  0  0  0
   23.0295   15.4434  -11.9027 H   0  0  0  0  0  0
   22.4113   14.4504  -13.2659 H   0  0  0  0  0  0
   22.7455   12.4208  -11.6670 H   0  0  0  0  0  0
   22.8540   13.6547  -10.3661 H   0  0  0  0  0  0
   19.2837   13.1271  -10.1307 H   0  0  0  0  0  0
   24.7166   11.7114  -12.0546 H   0  0  0  0  0  0
   24.2274   10.6823  -14.8831 H   0  0  0  0  0  0
   26.4035   10.1874  -15.2639 H   0  0  0  0  0  0
   26.8556   10.7890  -13.6328 H   0  0  0  0  0  0
   25.8354    7.9855  -13.9923 H   0  0  0  0  0  0
   27.5330    8.4230  -14.3836 H   0  0  0  0  0  0
   28.9696    9.5909  -10.9705 H   0  0  0  0  0  0
   28.3315   10.5982  -12.3140 H   0  0  0  0  0  0
   29.3256    9.1460  -12.6740 H   0  0  0  0  0  0
   23.7105    8.3333  -15.0540 H   0  0  0  0  0  0
   23.1321    7.3823  -12.2551 H   0  0  0  0  0  0
   21.0900    6.1163  -12.9549 H   0  0  0  0  0  0
   20.9386    7.8715  -13.3057 H   0  0  0  0  0  0
   19.9472    6.8429  -15.0916 H   0  0  0  0  0  0
   21.5904    7.2358  -15.7016 H   0  0  0  0  0  0
   21.3982    3.1898  -14.9128 H   0  0  0  0  0  0
   23.2356    5.3400  -11.6292 H   0  0  0  0  0  0
   24.6908    3.4467  -13.5734 H   0  0  0  0  0  0
   26.4506    4.4212  -12.2343 H   0  0  0  0  0  0
   25.4775    4.2680  -10.7322 H   0  0  0  0  0  0
   25.7517    1.8970  -10.7186 H   0  0  0  0  0  0
   26.5312    1.9247  -12.3367 H   0  0  0  0  0  0
   28.9417    3.9174   -9.6613 H   0  0  0  0  0  0
   23.6098    1.5659  -13.6608 H   0  0  0  0  0  0
   21.9473    0.0592  -13.1304 H   0  0  0  0  0  0
   23.2615    0.4055  -10.3736 H   0  0  0  0  0  0
   21.9799   -0.8236  -10.6447 H   0  0  0  0  0  0
   24.4574   -2.3982  -13.1729 H   0  0  0  0  0  0
   21.0152    2.7227  -13.1983 H   0  0  0  0  0  0
   18.8717    3.7174  -12.7569 H   0  0  0  0  0  0
   18.4326    2.3539  -11.6730 H   0  0  0  0  0  0
   21.4142    3.5751  -10.6238 H   0  0  0  0  0  0
   19.7783    5.3060   -8.7452 H   0  0  0  0  0  0
   22.5917    4.1903   -8.2621 H   0  0  0  0  0  0
   22.1343    6.3118   -7.0606 H   0  0  0  0  0  0
   22.2287    4.9151   -5.9349 H   0  0  0  0  0  0
   20.6299    5.5987   -6.3860 H   0  0  0  0  0  0
   20.8375    2.4370   -8.3366 H   0  0  0  0  0  0
   19.8786    3.3536   -7.1254 H   0  0  0  0  0  0
   21.4773    2.6700   -6.6743 H   0  0  0  0  0  0
   19.9428    7.3778   -8.7180 H   0  0  0  0  0  0
   21.7485    8.6949  -10.6999 H   0  0  0  0  0  0
   19.5807    9.5943   -8.7766 H   0  0  0  0  0  0
   20.6909   10.8229   -9.4727 H   0  0  0  0  0  0
   18.6324   10.6894  -10.7589 H   0  0  0  0  0  0
   20.0181   10.1168  -11.7480 H   0  0  0  0  0  0
   19.3944    7.7993  -11.3582 H   0  0  0  0  0  0
   18.0821    8.3062  -10.2411 H   0  0  0  0  0  0
   17.5919    9.6027  -12.8021 H   0  0  0  0  0  0
   16.0982    8.7701  -14.2158 H   0  0  0  0  0  0
   15.5914    6.9375  -14.0944 H   0  0  0  0  0  0
   17.7872    6.3060  -11.2565 H   0  0  0  0  0  0
   23.5653    9.7801  -10.3953 H   0  0  0  0  0  0
   24.4256   10.2197   -7.5298 H   0  0  0  0  0  0
   26.1616    8.6906   -9.5611 H   0  0  0  0  0  0
   26.6344    9.1223   -7.8828 H   0  0  0  0  0  0
   24.8529    7.6527   -7.0068 H   0  0  0  0  0  0
   24.3915    7.2154   -8.6868 H   0  0  0  0  0  0
   26.8079    6.4257   -8.9880 H   0  0  0  0  0  0
   26.9686    6.5812   -7.2057 H   0  0  0  0  0  0
   25.0402    5.0534   -6.8985 H   0  0  0  0  0  0
   24.8795    4.8979   -8.6808 H   0  0  0  0  0  0
   26.0327    2.9846   -7.7126 H   0  0  0  0  0  0
   27.2784    4.0746   -7.0148 H   0  0  0  0  0  0
   27.1178    3.9190   -8.7972 H   0  0  0  0  0  0
   26.2684   11.6230   -7.2630 H   0  0  0  0  0  0
   26.3492   13.5871   -9.5620 H   0  0  0  0  0  0
   29.9960   11.6544   -8.9602 H   0  0  0  0  0  0
   27.5537   13.7019   -6.7410 H   0  0  0  0  0  0
   27.6185   15.0377   -7.9401 H   0  0  0  0  0  0
  1  2  1  0  0  0
  1123  1  0  0  0
  1124  1  0  0  0
  1125  1  0  0  0
  2  3  1  0  0  0
  2  5  1  0  0  0
  2126  1  0  0  0
  3  4  2  0  0  0
  3  7  1  0  0  0
  5  6  1  0  0  0
  5127  1  0  0  0
  5128  1  0  0  0
  6121  1  0  0  0
  7  8  1  0  0  0
  7129  1  0  0  0
  8  9  1  0  0  0
  8130  1  0  0  0
  8131  1  0  0  0
  9 10  2  0  0  0
  9 11  1  0  0  0
 11 12  1  0  0  0
 11132  1  0  0  0
 12 13  1  0  0  0
 12 15  1  0  0  0
 12133  1  0  0  0
 13 14  2  0  0  0
 13 16  1  0  0  0
 15134  1  0  0  0
 15135  1  0  0  0
 15136  1  0  0  0
 16 17  1  0  0  0
 16137  1  0  0  0
 17 18  1  0  0  0
 17 20  1  0  0  0
 17138  1  0  0  0
 18 19  2  0  0  0
 18 24  1  0  0  0
 20 21  1  0  0  0
 20139  1  0  0  0
 20140  1  0  0  0
 21 22  2  0  0  0
 21 23  1  0  0  0
 23141  1  0  0  0
 24 25  1  0  0  0
 24142  1  0  0  0
 25 26  1  0  0  0
 25 28  1  0  0  0
 25143  1  0  0  0
 26 27  2  0  0  0
 26 30  1  0  0  0
 28 29  1  0  0  0
 28144  1  0  0  0
 28145  1  0  0  0
 29146  1  0  0  0
 30 31  1  0  0  0
 30147  1  0  0  0
 31 32  1  0  0  0
 31 34  1  0  0  0
 31148  1  0  0  0
 32 33  2  0  0  0
 32 42  1  0  0  0
 34 35  1  0  0  0
 34149  1  0  0  0
 34150  1  0  0  0
 35 36  2  0  0  0
 35 37  1  0  0  0
 36 38  1  0  0  0
 36151  1  0  0  0
 37 39  2  0  0  0
 37152  1  0  0  0
 38 40  2  0  0  0
 38153  1  0  0  0
 39 40  1  0  0  0
 39154  1  0  0  0
 40 41  1  0  0  0
 41155  1  0  0  0
 42 43  1  0  0  0
 42156  1  0  0  0
 43 44  1  0  0  0
 43 46  1  0  0  0
 43157  1  0  0  0
 44 45  2  0  0  0
 44 51  1  0  0  0
 46 47  1  0  0  0
 46158  1  0  0  0
 46159  1  0  0  0
 47 48  1  0  0  0
 47160  1  0  0  0
 47161  1  0  0  0
 48 49  2  0  0  0
 48 50  1  0  0  0
 50162  1  0  0  0
 51 52  1  0  0  0
 51163  1  0  0  0
 52 53  1  0  0  0
 52 55  1  0  0  0
 52164  1  0  0  0
 53 54  2  0  0  0
 53 59  1  0  0  0
 55 56  1  0  0  0
 55165  1  0  0  0
 55166  1  0  0  0
 56 57  1  0  0  0
 56167  1  0  0  0
 56168  1  0  0  0
 57 58  1  0  0  0
 58169  1  0  0  0
 58170  1  0  0  0
 58171  1  0  0  0
 59 60  1  0  0  0
 59172  1  0  0  0
 60 61  1  0  0  0
 60 63  1  0  0  0
 60173  1  0  0  0
 61 62  2  0  0  0
 61 68  1  0  0  0
 63 64  1  0  0  0
 63174  1  0  0  0
 63175  1  0  0  0
 64 65  1  0  0  0
 64176  1  0  0  0
 64177  1  0  0  0
 65 66  1  0  0  0
 65 67  2  0  0  0
 66178  1  0  0  0
 68 69  1  0  0  0
 68179  1  0  0  0
 69 70  1  0  0  0
 69 72  1  0  0  0
 69180  1  0  0  0
 70 71  2  0  0  0
 70 77  1  0  0  0
 72 73  1  0  0  0
 72181  1  0  0  0
 72182  1  0  0  0
 73 74  1  0  0  0
 73183  1  0  0  0
 73184  1  0  0  0
 74 75  1  0  0  0
 74 76  2  0  0  0
 75185  1  0  0  0
 77 78  1  0  0  0
 77186  1  0  0  0
 78 79  1  0  0  0
 78 81  1  0  0  0
 78187  1  0  0  0
 79 80  2  0  0  0
 79 85  1  0  0  0
 81 82  1  0  0  0
 81188  1  0  0  0
 81189  1  0  0  0
 82 83  1  0  0  0
 82 84  2  0  0  0
 83190  1  0  0  0
 85 86  1  0  0  0
 85191  1  0  0  0
 86 87  1  0  0  0
 86192  1  0  0  0
 86193  1  0  0  0
 87 88  2  0  0  0
 87 89  1  0  0  0
 89 90  1  0  0  0
 89194  1  0  0  0
 90 91  1  0  0  0
 90 93  1  0  0  0
 90195  1  0  0  0
 91 92  2  0  0  0
 91 96  1  0  0  0
 93 94  1  0  0  0
 93 95  1  0  0  0
 93196  1  0  0  0
 94197  1  0  0  0
 94198  1  0  0  0
 94199  1  0  0  0
 95200  1  0  0  0
 95201  1  0  0  0
 95202  1  0  0  0
 96 97  1  0  0  0
 96203  1  0  0  0
 97 98  1  0  0  0
 97100  1  0  0  0
 97204  1  0  0  0
 98 99  2  0  0  0
 98107  1  0  0  0
100101  1  0  0  0
100205  1  0  0  0
100206  1  0  0  0
101102  1  0  0  0
101207  1  0  0  0
101208  1  0  0  0
102103  1  0  0  0
102209  1  0  0  0
102210  1  0  0  0
103104  1  0  0  0
103211  1  0  0  0
104105  1  0  0  0
104106  2  0  0  0
105212  1  0  0  0
105213  1  0  0  0
106214  1  0  0  0
107108  1  0  0  0
107215  1  0  0  0
108109  1  0  0  0
108111  1  0  0  0
108216  1  0  0  0
109110  2  0  0  0
109116  1  0  0  0
111112  1  0  0  0
111217  1  0  0  0
111218  1  0  0  0
112113  1  0  0  0
112219  1  0  0  0
112220  1  0  0  0
113114  1  0  0  0
113221  1  0  0  0
113222  1  0  0  0
114115  1  0  0  0
114223  1  0  0  0
114224  1  0  0  0
115225  1  0  0  0
115226  1  0  0  0
115227  1  0  0  0
116117  1  0  0  0
116228  1  0  0  0
117118  1  0  0  0
117120  1  0  0  0
117229  1  0  0  0
118119  1  0  0  0
118122  2  0  0  0
119230  1  0  0  0
120121  1  0  0  0
120231  1  0  0  0
120232  1  0  0  0
M  CHG  2   1   1 115   1
M  END
> <s_m_source_file>
../3g5v_ligand.sdf

> <i_m_source_file_index>
1

> <s_epik_input>
W05IMytdW0NAQEhdMUMoPU8pW05IXVtDSDJdQyg9TylbTkhdW0NAQEhdKFtDSDNdKUMoPU8pW05IXVtDQEBIXShbQ0gyXUMoPU8pW09IXSlDKD1PKVtOSF1bQ0BASF0oW0NIMl1bT0hdKUMoPU8pW05IXVtDQEBIXShbQ0gyXWMyW2NIXVtjSF1jKFtPSF0pW2NIXVtjSF0yKUMoPU8pW05IXVtDQEBIXShbQ0gyXVtDSDJdQyg9TylbT0hdKUMoPU8pW05IXVtDQEBIXShbQ0gyXVtDSDJdU1tDSDNdKUMoPU8pW05IXVtDQEBIXShbQ0gyXVtDSDJdQyg9TylbT0hdKUMoPU8pW05IXVtDQEBIXShbQ0gyXVtDSDJdQyg9TylbT0hdKUMoPU8pW05IXVtDQEBIXShbQ0gyXUMoPU8pW09IXSlDKD1PKVtOSF1bQ0gyXUMoPU8pW05IXVtDQEBIXShbQ0hdKFtDSDNdKVtDSDNdKUMoPU8pW05IXVtDQEBIXShbQ0gyXVtDSDJdW0NIMl1bTkhdL0MoW05IMl0pPU5cW0hdKUMoPU8pW05IXVtDQEBIXShbQ0gyXVtDSDJdW0NIMl1bQ0gyXVtOSDMrXSlDKD1PKVtOSF1bQ0BIXShDKD1PKVtPSF0pW0NIMl1TU1tDSDJdMQ==

> <s_epik_cmdline>
J2VwaWtfYXBwJywgJy1pbWFlJywgJ2xpZ2FuZF9wcm8ubWFlJywgJy1vbWFlJywgJ2xpZ2FuZF9wcmVwLm1hZScsICctbXMnLCAnMScsICctcGgnLCAnNycsICctcGh0JywgJzAuNScsICctbnQn

> <s_epik_pKa_notes>
Molecule size exceeds maximum supported for generating protonation states

> <s_epik_Chemistry_Notes>
This compound has an imine and may undergo hydrolysis.

$$$$
