3g5y_ligand
                    3D
 Schrodinger Suite 2020-3.
232233  0  0  1  0            999 V2000
    1.6430   20.7810    8.3570 N   0  3  0  0  0  0
    1.4170   22.2500    8.5010 C   0  0  2  0  0  0
    2.7520   22.9840    8.6810 C   0  0  0  0  0  0
    3.6380   22.4810    9.3700 O   0  0  0  0  0  0
    0.4650   22.5180    9.6710 C   0  0  0  0  0  0
   -1.1720   21.6600    9.5080 S   0  0  0  0  0  0
    2.8900   24.1560    8.0560 N   0  0  0  0  0  0
    4.1350   24.9440    8.1080 C   0  0  0  0  0  0
    4.5890   25.3000    9.5170 C   0  0  0  0  0  0
    3.8160   25.1870   10.4810 O   0  0  0  0  0  0
    5.8460   25.7320    9.6430 N   0  0  0  0  0  0
    6.4720   25.9520   10.9580 C   0  0  2  0  0  0
    5.7910   27.0700   11.7530 C   0  0  0  0  0  0
    6.0770   27.2790   12.9340 O   0  0  0  0  0  0
    7.9730   26.2130   10.8080 C   0  0  0  0  0  0
    4.8820   27.7770   11.0930 N   0  0  0  0  0  0
    4.1210   28.8620   11.7070 C   0  0  2  0  0  0
    2.7350   28.3860   12.1740 C   0  0  0  0  0  0
    1.9320   29.1810   12.6590 O   0  0  0  0  0  0
    3.9430   29.9810   10.6780 C   0  0  0  0  0  0
    3.0450   29.5540    9.5210 C   0  0  0  0  0  0
    3.2520   28.4310    8.9760 O   0  0  0  0  0  0
    2.1160   30.3250    9.1810 O   0  0  0  0  0  0
    2.4710   27.0920   12.0310 N   0  0  0  0  0  0
    1.1290   26.5280   12.1670 C   0  0  2  0  0  0
    1.0770   25.2400   12.9770 C   0  0  0  0  0  0
    2.1040   24.6170   13.2370 O   0  0  0  0  0  0
    0.5760   26.2160   10.7810 C   0  0  0  0  0  0
   -0.3780   27.1770   10.4170 O   0  0  0  0  0  0
   -0.1310   24.8450   13.3770 N   0  0  0  0  0  0
   -0.3750   23.4820   13.8530 C   0  0  2  0  0  0
   -1.6910   22.9550   13.2780 C   0  0  0  0  0  0
   -2.5590   23.7460   12.9250 O   0  0  0  0  0  0
   -0.2990   23.3620   15.4020 C   0  0  0  0  0  0
   -1.2700   24.1840   16.2360 C   0  0  0  0  0  0
   -2.4000   23.5940   16.7970 C   0  0  0  0  0  0
   -1.0190   25.5300   16.5280 C   0  0  0  0  0  0
   -3.2890   24.3310   17.5770 C   0  0  0  0  0  0
   -1.9010   26.2760   17.3060 C   0  0  0  0  0  0
   -3.0300   25.6690   17.8290 C   0  0  0  0  0  0
   -3.9020   26.3990   18.6040 O   0  0  0  0  0  0
   -1.8260   21.6380   13.1510 N   0  0  0  0  0  0
   -3.1060   21.0600   12.7150 C   0  0  2  0  0  0
   -4.1990   21.2240   13.7720 C   0  0  0  0  0  0
   -4.0370   20.8200   14.9350 O   0  0  0  0  0  0
   -2.9570   19.5860   12.3300 C   0  0  0  0  0  0
   -4.2300   19.0180   11.6560 C   0  0  0  0  0  0
   -4.1350   17.5270   11.4030 C   0  0  0  0  0  0
   -3.8540   16.7950   12.3760 O   0  0  0  0  0  0
   -4.3540   17.0690   10.2510 O   0  0  0  0  0  0
   -5.3120   21.8240   13.3750 N   0  0  0  0  0  0
   -6.4490   21.9480   14.2830 C   0  0  2  0  0  0
   -7.6640   21.2160   13.7020 C   0  0  0  0  0  0
   -7.5960   20.7140   12.5840 O   0  0  0  0  0  0
   -6.7560   23.4220   14.5980 C   0  0  0  0  0  0
   -7.0190   24.3440   13.4050 C   0  0  0  0  0  0
   -8.7520   24.5060   12.9340 S   0  0  0  0  0  0
   -9.4860   25.3540   14.3390 C   0  0  0  0  0  0
   -8.7240   21.0790   14.4900 N   0  0  0  0  0  0
   -9.9060   20.4390   13.9850 C   0  0  2  0  0  0
  -11.0780   21.3930   14.1800 C   0  0  0  0  0  0
  -11.2950   21.9070   15.2790 O   0  0  0  0  0  0
  -10.1170   19.0910   14.6910 C   0  0  0  0  0  0
  -11.4750   18.4540   14.4630 C   0  0  0  0  0  0
  -12.5460   18.9100   15.4390 C   0  0  0  0  0  0
  -13.5990   19.3710   14.9750 O   0  0  0  0  0  0
  -12.3620   18.7840   16.6770 O   0  0  0  0  0  0
  -11.8340   21.6150   13.1110 N   0  0  0  0  0  0
  -13.0370   22.4480   13.1520 C   0  0  2  0  0  0
  -14.1700   21.6450   12.4990 C   0  0  0  0  0  0
  -14.0700   21.3250   11.3300 O   0  0  0  0  0  0
  -12.7910   23.7480   12.3670 C   0  0  0  0  0  0
  -13.9540   24.7270   12.3980 C   0  0  0  0  0  0
  -13.7770   25.9370   11.4540 C   0  0  0  0  0  0
  -12.6540   26.1480   10.8920 O   0  0  0  0  0  0
  -14.7840   26.6820   11.2950 O   0  0  0  0  0  0
  -15.2180   21.2900   13.2520 N   0  0  0  0  0  0
  -16.3900   20.5830   12.6760 C   0  0  2  0  0  0
  -16.0360   19.2100   12.1370 C   0  0  0  0  0  0
  -16.7000   18.6940   11.2200 O   0  0  0  0  0  0
  -17.0660   21.3960   11.5560 C   0  0  0  0  0  0
  -17.9780   22.4800   12.0880 C   0  0  0  0  0  0
  -18.3490   22.4070   13.2730 O   0  0  0  0  0  0
  -18.3170   23.3990   11.3130 O   0  0  0  0  0  0
  -14.9850   18.6240   12.6900 N   0  0  0  0  0  0
  -14.5380   17.3060   12.2260 C   0  0  0  0  0  0
  -13.5030   17.4180   11.1040 C   0  0  0  0  0  0
  -12.9820   16.4080   10.6550 O   0  0  0  0  0  0
  -13.1960   18.6370   10.6420 N   0  0  0  0  0  0
  -12.2350   18.8300    9.5370 C   0  0  2  0  0  0
  -10.9020   19.2900   10.0950 C   0  0  0  0  0  0
  -10.8320   20.2780   10.8280 O   0  0  0  0  0  0
  -12.7570   19.8730    8.4900 C   0  0  0  0  0  0
  -11.8060   19.9720    7.2720 C   0  0  0  0  0  0
  -14.1930   19.5300    8.0480 C   0  0  0  0  0  0
   -9.8370   18.5750    9.7620 N   0  0  0  0  0  0
   -8.4830   18.9800   10.1790 C   0  0  2  0  0  0
   -7.9750   20.0240    9.2100 C   0  0  0  0  0  0
   -8.2240   19.9150    7.9830 O   0  0  0  0  0  0
   -7.5310   17.7830   10.1780 C   0  0  0  0  0  0
   -7.7020   16.8350   11.3840 C   0  0  0  0  0  0
   -9.1140   16.3720   11.5070 C   0  0  0  0  0  0
   -9.1700   15.2560   12.4490 N   0  0  0  0  0  0
  -10.2610   14.5660   12.7640 C   0  0  0  0  0  0
  -11.4410   14.8660   12.2220 N   0  0  0  0  0  0
  -10.1520   13.5590   13.6290 N   0  0  0  0  0  0
   -7.2820   21.0330    9.7470 N   0  0  0  0  0  0
   -6.8640   22.2000    8.9560 C   0  0  2  0  0  0
   -5.6060   22.6850    9.6020 C   0  0  0  0  0  0
   -5.4450   22.5230   10.8030 O   0  0  0  0  0  0
   -7.8840   23.3560    8.9870 C   0  0  0  0  0  0
   -9.2720   22.9790    8.4790 C   0  0  0  0  0  0
  -10.2790   24.0680    8.7950 C   0  0  0  0  0  0
  -11.6450   23.6690    8.2960 C   0  0  0  0  0  0
  -12.6160   24.7340    8.5820 N   0  3  0  0  0  0
   -4.7310   23.2800    8.8040 N   0  0  0  0  0  0
   -3.4950   23.8960    9.3000 C   0  0  2  0  0  0
   -3.7900   25.2950    9.7960 C   0  0  0  0  0  0
   -4.3490   26.0850    9.0370 O   0  0  0  0  0  0
   -2.4710   23.9630    8.1740 C   0  0  0  0  0  0
   -1.9420   22.3180    7.7310 S   0  0  0  0  0  0
   -3.4520   25.6670   10.9430 O   0  0  0  0  0  0
    2.3270   20.5960    7.5156 H   0  0  0  0  0  0
    0.6829   20.2793    8.1661 H   0  0  0  0  0  0
    2.0856   20.3856    9.2832 H   0  0  0  0  0  0
    0.9484   22.6094    7.5730 H   0  0  0  0  0  0
    0.9267   22.1695   10.6066 H   0  0  0  0  0  0
    0.2646   23.5973    9.7408 H   0  0  0  0  0  0
    2.0266   24.5287    7.4854 H   0  0  0  0  0  0
    4.9504   24.3725    7.6406 H   0  0  0  0  0  0
    3.9929   25.8904    7.5657 H   0  0  0  0  0  0
    6.4172   25.9245    8.7228 H   0  0  0  0  0  0
    6.3142   25.0095   11.5028 H   0  0  0  0  0  0
    8.4319   25.3945   10.2340 H   0  0  0  0  0  0
    8.4370   26.2676   11.8039 H   0  0  0  0  0  0
    8.1286   27.1645   10.2784 H   0  0  0  0  0  0
    4.7127   27.5148   10.0382 H   0  0  0  0  0  0
    4.7134   29.1881   12.5746 H   0  0  0  0  0  0
    3.4860   30.8560   11.1633 H   0  0  0  0  0  0
    4.9242   30.2605   10.2668 H   0  0  0  0  0  0
    2.6183   28.1002    8.1399 H   0  0  0  0  0  0
    3.3226   26.4355   11.7991 H   0  0  0  0  0  0
    0.5727   27.3101   12.7045 H   0  0  0  0  0  0
    1.3964   26.2253   10.0483 H   0  0  0  0  0  0
    0.1035   25.2227   10.7898 H   0  0  0  0  0  0
   -0.8837   27.1084    9.4425 H   0  0  0  0  0  0
   -0.9560   25.5718   13.3433 H   0  0  0  0  0  0
    0.4526   22.8871   13.4392 H   0  0  0  0  0  0
   -0.4835   22.3189   15.6984 H   0  0  0  0  0  0
    0.6999   23.6695   15.7450 H   0  0  0  0  0  0
   -2.5927   22.5354   16.6226 H   0  0  0  0  0  0
   -0.1170   26.0027   16.1394 H   0  0  0  0  0  0
   -4.1820   23.8584   17.9861 H   0  0  0  0  0  0
   -1.7038   27.3300   17.5017 H   0  0  0  0  0  0
   -4.8001   25.9201   19.0213 H   0  0  0  0  0  0
   -0.9731   20.9802   13.3742 H   0  0  0  0  0  0
   -3.3758   21.6478   11.8252 H   0  0  0  0  0  0
   -2.1211   19.4742   11.6237 H   0  0  0  0  0  0
   -2.7567   18.9897   13.2324 H   0  0  0  0  0  0
   -5.0996   19.1970   12.3054 H   0  0  0  0  0  0
   -4.3862   19.5169   10.6882 H   0  0  0  0  0  0
   -4.2851   15.9867   10.0672 H   0  0  0  0  0  0
   -5.3762   22.2299   12.3546 H   0  0  0  0  0  0
   -6.1424   21.4559   15.2178 H   0  0  0  0  0  0
   -7.6580   23.4828   15.2247 H   0  0  0  0  0  0
   -5.9055   23.8670   15.1353 H   0  0  0  0  0  0
   -6.6602   25.3572   13.6386 H   0  0  0  0  0  0
   -6.4871   23.9613   12.5215 H   0  0  0  0  0  0
  -10.5597   25.5067   14.1550 H   0  0  0  0  0  0
   -8.9952   26.3288   14.4762 H   0  0  0  0  0  0
   -9.3522   24.7453   15.2454 H   0  0  0  0  0  0
   -8.7001   21.4526   15.5243 H   0  0  0  0  0  0
   -9.7526   20.2513   12.9120 H   0  0  0  0  0  0
   -9.3667   18.3695   14.3354 H   0  0  0  0  0  0
  -10.0103   19.2255   15.7775 H   0  0  0  0  0  0
  -11.8314   18.7022   13.4524 H   0  0  0  0  0  0
  -11.3893   17.3620   14.5636 H   0  0  0  0  0  0
  -13.1369   19.1139   17.3846 H   0  0  0  0  0  0
  -11.5237   21.1431   12.1671 H   0  0  0  0  0  0
  -13.2614   22.6866   14.2021 H   0  0  0  0  0  0
  -11.9191   24.2707   12.7872 H   0  0  0  0  0  0
  -12.6005   23.5080   11.3106 H   0  0  0  0  0  0
  -14.8767   24.2099   12.0959 H   0  0  0  0  0  0
  -14.0727   25.1232   13.4173 H   0  0  0  0  0  0
  -12.5286   27.0097   10.2199 H   0  0  0  0  0  0
  -15.1960   21.5353   14.3241 H   0  0  0  0  0  0
  -17.0653   20.4662   13.5364 H   0  0  0  0  0  0
  -16.2954   21.8787   10.9371 H   0  0  0  0  0  0
  -17.6716   20.7244   10.9298 H   0  0  0  0  0  0
  -18.9791   24.2022   11.6686 H   0  0  0  0  0  0
  -14.4462   19.1328   13.5029 H   0  0  0  0  0  0
  -14.0810   16.7581   13.0633 H   0  0  0  0  0  0
  -15.4004   16.7397   11.8444 H   0  0  0  0  0  0
  -13.6805   19.5077   11.1079 H   0  0  0  0  0  0
  -12.1216   17.8399    9.0714 H   0  0  0  0  0  0
  -12.7855   20.8658    8.9629 H   0  0  0  0  0  0
  -10.7911   20.2173    7.6182 H   0  0  0  0  0  0
  -12.1619   20.7600    6.5920 H   0  0  0  0  0  0
  -11.7894   19.0090    6.7406 H   0  0  0  0  0  0
  -14.8437   19.4666    8.9327 H   0  0  0  0  0  0
  -14.1939   18.5638    7.5222 H   0  0  0  0  0  0
  -14.5664   20.3148    7.3737 H   0  0  0  0  0  0
   -9.9783   17.6635    9.1626 H   0  0  0  0  0  0
   -8.5608   19.3895   11.1970 H   0  0  0  0  0  0
   -7.6971   17.1832    9.2710 H   0  0  0  0  0  0
   -6.4912   18.1415   10.1952 H   0  0  0  0  0  0
   -7.0536   15.9559   11.2542 H   0  0  0  0  0  0
   -7.4232   17.3630   12.3079 H   0  0  0  0  0  0
   -9.7402   17.1985   11.8742 H   0  0  0  0  0  0
   -9.4796   16.0445   10.5226 H   0  0  0  0  0  0
   -8.2563   14.9247   12.9641 H   0  0  0  0  0  0
  -11.5226   15.6992   11.5084 H   0  0  0  0  0  0
  -12.3333   14.2804   12.4882 H   0  0  0  0  0  0
   -9.1744   13.3178   14.0719 H   0  0  0  0  0  0
   -7.0252   20.9718   10.8148 H   0  0  0  0  0  0
   -6.7365   21.8643    7.9163 H   0  0  0  0  0  0
   -8.0043   23.7112   10.0211 H   0  0  0  0  0  0
   -7.5224   24.1811    8.3557 H   0  0  0  0  0  0
   -9.2370   22.8357    7.3889 H   0  0  0  0  0  0
   -9.5980   22.0456    8.9613 H   0  0  0  0  0  0
  -10.3225   24.2226    9.8832 H   0  0  0  0  0  0
   -9.9736   25.0036    8.3037 H   0  0  0  0  0  0
  -11.6035   23.4995    7.2099 H   0  0  0  0  0  0
  -11.9636   22.7443    8.7995 H   0  0  0  0  0  0
  -13.6084   24.4337    8.2145 H   0  0  0  0  0  0
  -12.3032   25.6604    8.0780 H   0  0  0  0  0  0
  -12.6633   24.9052    9.6676 H   0  0  0  0  0  0
   -4.9627   23.3004    7.7289 H   0  0  0  0  0  0
   -3.1230   23.2723   10.1262 H   0  0  0  0  0  0
   -2.9232   24.4464    7.2955 H   0  0  0  0  0  0
   -1.5993   24.5463    8.5054 H   0  0  0  0  0  0
   -3.6787   26.6897   11.2786 H   0  0  0  0  0  0
  1  2  1  0  0  0
  1123  1  0  0  0
  1124  1  0  0  0
  1125  1  0  0  0
  2  3  1  0  0  0
  2  5  1  0  0  0
  2126  1  0  0  0
  3  4  2  0  0  0
  3  7  1  0  0  0
  5  6  1  0  0  0
  5127  1  0  0  0
  5128  1  0  0  0
  6121  1  0  0  0
  7  8  1  0  0  0
  7129  1  0  0  0
  8  9  1  0  0  0
  8130  1  0  0  0
  8131  1  0  0  0
  9 10  2  0  0  0
  9 11  1  0  0  0
 11 12  1  0  0  0
 11132  1  0  0  0
 12 13  1  0  0  0
 12 15  1  0  0  0
 12133  1  0  0  0
 13 14  2  0  0  0
 13 16  1  0  0  0
 15134  1  0  0  0
 15135  1  0  0  0
 15136  1  0  0  0
 16 17  1  0  0  0
 16137  1  0  0  0
 17 18  1  0  0  0
 17 20  1  0  0  0
 17138  1  0  0  0
 18 19  2  0  0  0
 18 24  1  0  0  0
 20 21  1  0  0  0
 20139  1  0  0  0
 20140  1  0  0  0
 21 22  1  0  0  0
 21 23  2  0  0  0
 22141  1  0  0  0
 24 25  1  0  0  0
 24142  1  0  0  0
 25 26  1  0  0  0
 25 28  1  0  0  0
 25143  1  0  0  0
 26 27  2  0  0  0
 26 30  1  0  0  0
 28 29  1  0  0  0
 28144  1  0  0  0
 28145  1  0  0  0
 29146  1  0  0  0
 30 31  1  0  0  0
 30147  1  0  0  0
 31 32  1  0  0  0
 31 34  1  0  0  0
 31148  1  0  0  0
 32 33  2  0  0  0
 32 42  1  0  0  0
 34 35  1  0  0  0
 34149  1  0  0  0
 34150  1  0  0  0
 35 36  2  0  0  0
 35 37  1  0  0  0
 36 38  1  0  0  0
 36151  1  0  0  0
 37 39  2  0  0  0
 37152  1  0  0  0
 38 40  2  0  0  0
 38153  1  0  0  0
 39 40  1  0  0  0
 39154  1  0  0  0
 40 41  1  0  0  0
 41155  1  0  0  0
 42 43  1  0  0  0
 42156  1  0  0  0
 43 44  1  0  0  0
 43 46  1  0  0  0
 43157  1  0  0  0
 44 45  2  0  0  0
 44 51  1  0  0  0
 46 47  1  0  0  0
 46158  1  0  0  0
 46159  1  0  0  0
 47 48  1  0  0  0
 47160  1  0  0  0
 47161  1  0  0  0
 48 49  2  0  0  0
 48 50  1  0  0  0
 50162  1  0  0  0
 51 52  1  0  0  0
 51163  1  0  0  0
 52 53  1  0  0  0
 52 55  1  0  0  0
 52164  1  0  0  0
 53 54  2  0  0  0
 53 59  1  0  0  0
 55 56  1  0  0  0
 55165  1  0  0  0
 55166  1  0  0  0
 56 57  1  0  0  0
 56167  1  0  0  0
 56168  1  0  0  0
 57 58  1  0  0  0
 58169  1  0  0  0
 58170  1  0  0  0
 58171  1  0  0  0
 59 60  1  0  0  0
 59172  1  0  0  0
 60 61  1  0  0  0
 60 63  1  0  0  0
 60173  1  0  0  0
 61 62  2  0  0  0
 61 68  1  0  0  0
 63 64  1  0  0  0
 63174  1  0  0  0
 63175  1  0  0  0
 64 65  1  0  0  0
 64176  1  0  0  0
 64177  1  0  0  0
 65 66  2  0  0  0
 65 67  1  0  0  0
 67178  1  0  0  0
 68 69  1  0  0  0
 68179  1  0  0  0
 69 70  1  0  0  0
 69 72  1  0  0  0
 69180  1  0  0  0
 70 71  2  0  0  0
 70 77  1  0  0  0
 72 73  1  0  0  0
 72181  1  0  0  0
 72182  1  0  0  0
 73 74  1  0  0  0
 73183  1  0  0  0
 73184  1  0  0  0
 74 75  1  0  0  0
 74 76  2  0  0  0
 75185  1  0  0  0
 77 78  1  0  0  0
 77186  1  0  0  0
 78 79  1  0  0  0
 78 81  1  0  0  0
 78187  1  0  0  0
 79 80  2  0  0  0
 79 85  1  0  0  0
 81 82  1  0  0  0
 81188  1  0  0  0
 81189  1  0  0  0
 82 83  2  0  0  0
 82 84  1  0  0  0
 84190  1  0  0  0
 85 86  1  0  0  0
 85191  1  0  0  0
 86 87  1  0  0  0
 86192  1  0  0  0
 86193  1  0  0  0
 87 88  2  0  0  0
 87 89  1  0  0  0
 89 90  1  0  0  0
 89194  1  0  0  0
 90 91  1  0  0  0
 90 93  1  0  0  0
 90195  1  0  0  0
 91 92  2  0  0  0
 91 96  1  0  0  0
 93 94  1  0  0  0
 93 95  1  0  0  0
 93196  1  0  0  0
 94197  1  0  0  0
 94198  1  0  0  0
 94199  1  0  0  0
 95200  1  0  0  0
 95201  1  0  0  0
 95202  1  0  0  0
 96 97  1  0  0  0
 96203  1  0  0  0
 97 98  1  0  0  0
 97100  1  0  0  0
 97204  1  0  0  0
 98 99  2  0  0  0
 98107  1  0  0  0
100101  1  0  0  0
100205  1  0  0  0
100206  1  0  0  0
101102  1  0  0  0
101207  1  0  0  0
101208  1  0  0  0
102103  1  0  0  0
102209  1  0  0  0
102210  1  0  0  0
103104  1  0  0  0
103211  1  0  0  0
104105  1  0  0  0
104106  2  0  0  0
105212  1  0  0  0
105213  1  0  0  0
106214  1  0  0  0
107108  1  0  0  0
107215  1  0  0  0
108109  1  0  0  0
108111  1  0  0  0
108216  1  0  0  0
109110  2  0  0  0
109116  1  0  0  0
111112  1  0  0  0
111217  1  0  0  0
111218  1  0  0  0
112113  1  0  0  0
112219  1  0  0  0
112220  1  0  0  0
113114  1  0  0  0
113221  1  0  0  0
113222  1  0  0  0
114115  1  0  0  0
114223  1  0  0  0
114224  1  0  0  0
115225  1  0  0  0
115226  1  0  0  0
115227  1  0  0  0
116117  1  0  0  0
116228  1  0  0  0
117118  1  0  0  0
117120  1  0  0  0
117229  1  0  0  0
118119  2  0  0  0
118122  1  0  0  0
120121  1  0  0  0
120230  1  0  0  0
120231  1  0  0  0
122232  1  0  0  0
M  CHG  2   1   1 115   1
M  END
> <s_m_source_file>
../3g5y_ligand.sdf

> <i_m_source_file_index>
1

> <s_epik_input>
W05IMytdW0NAQEhdMUMoPU8pW05IXVtDSDJdQyg9TylbTkhdW0NAQEhdKFtDSDNdKUMoPU8pW05IXVtDQEBIXShbQ0gyXUMoPU8pW09IXSlDKD1PKVtOSF1bQ0BASF0oW0NIMl1bT0hdKUMoPU8pW05IXVtDQEBIXShbQ0gyXWMyW2NIXVtjSF1jKFtPSF0pW2NIXVtjSF0yKUMoPU8pW05IXVtDQEBIXShbQ0gyXVtDSDJdQyg9TylbT0hdKUMoPU8pW05IXVtDQEBIXShbQ0gyXVtDSDJdU1tDSDNdKUMoPU8pW05IXVtDQEBIXShbQ0gyXVtDSDJdQyg9TylbT0hdKUMoPU8pW05IXVtDQEBIXShbQ0gyXVtDSDJdQyg9TylbT0hdKUMoPU8pW05IXVtDQEBIXShbQ0gyXUMoPU8pW09IXSlDKD1PKVtOSF1bQ0gyXUMoPU8pW05IXVtDQEBIXShbQ0hdKFtDSDNdKVtDSDNdKUMoPU8pW05IXVtDQEBIXShbQ0gyXVtDSDJdW0NIMl1bTkhdL0MoW05IMl0pPU5cW0hdKUMoPU8pW05IXVtDQEBIXShbQ0gyXVtDSDJdW0NIMl1bQ0gyXVtOSDMrXSlDKD1PKVtOSF1bQ0BIXShDKD1PKVtPSF0pW0NIMl1TU1tDSDJdMQ==

> <s_epik_cmdline>
J2VwaWtfYXBwJywgJy1pbWFlJywgJ2xpZ2FuZF9wcm8ubWFlJywgJy1vbWFlJywgJ2xpZ2FuZF9wcmVwLm1hZScsICctbXMnLCAnMScsICctcGgnLCAnNycsICctcGh0JywgJzAuNScsICctbnQn

> <s_epik_pKa_notes>
Molecule size exceeds maximum supported for generating protonation states

> <s_epik_Chemistry_Notes>
This compound has an imine and may undergo hydrolysis.

$$$$
