3g6g_ligand
                    3D
 Schrodinger Suite 2020-3.
 84 89  0  0  1  0            999 V2000
   15.3240   38.0830    5.6990 C   0  0  0  0  0  0
   15.4190   39.2840    4.9690 C   0  0  0  0  0  0
   14.2580   39.9660    4.5920 C   0  0  0  0  0  0
   13.0210   39.4200    4.9660 C   0  0  0  0  0  0
   12.9430   38.2270    5.7040 C   0  0  0  0  0  0
   14.0870   37.5440    6.0870 C   0  0  0  0  0  0
   15.6520   41.4590    3.3330 C   0  0  0  0  0  0
   13.0540   35.8060    7.4560 C   0  0  0  0  0  0
   10.8710   35.9070    8.3140 C   0  0  0  0  0  0
   12.1980   34.0130    8.6400 C   0  0  0  0  0  0
   -1.1130   29.0840    6.8250 C   0  0  0  0  0  0
   -2.4800   29.7700    7.0010 C   0  0  0  0  0  0
   -3.4970   28.7220    6.8850 N   0  0  2  0  0  0
   -4.8520   29.3030    6.7730 C   0  0  0  0  0  0
   -3.4110   27.6770    7.9390 C   0  0  0  0  0  0
   -2.0120   27.0400    7.9010 C   0  0  0  0  0  0
   -0.9600   28.0990    7.9270 N   0  3  1  0  0  0
    0.4010   27.5160    8.0760 C   0  0  0  0  0  0
    1.4650   28.5640    8.3850 C   0  0  0  0  0  0
    2.6140   28.5870    7.6000 C   0  0  0  0  0  0
    3.5980   29.5380    7.8430 C   0  0  0  0  0  0
    1.3150   29.4900    9.4080 C   0  0  0  0  0  0
    2.3130   30.4440    9.6550 C   0  0  0  0  0  0
    3.4580   30.4650    8.8700 C   0  0  0  0  0  0
    4.6010   31.4760    9.0740 C   0  0  0  0  0  0
    5.4760   31.5530    8.2070 O   0  0  0  0  0  0
    4.5620   32.1840   10.2270 N   0  0  0  0  0  0
    5.4640   33.0670   10.6830 C   0  0  0  0  0  0
    6.5630   33.5540    9.9370 C   0  0  0  0  0  0
    5.3140   33.5010   11.9960 C   0  0  0  0  0  0
    6.2260   34.4080   12.5440 C   0  0  0  0  0  0
    7.3000   34.9070   11.8070 C   0  0  0  0  0  0
    8.2710   35.9050   12.4890 C   0  0  0  0  0  0
    7.4760   34.4900   10.4740 C   0  0  0  0  0  0
    8.5240   34.9560    9.7370 N   0  0  0  0  0  0
    8.5540   36.1790    9.1750 C   0  0  0  0  0  0
    7.4540   36.9420    9.2660 N   0  0  0  0  0  0
    7.3760   38.1630    8.7300 C   0  0  0  0  0  0
    8.4610   38.6890    8.0210 C   0  0  0  0  0  0
    9.6290   37.9170    7.8670 C   0  0  0  0  0  0
    9.6890   36.6500    8.4670 C   0  0  0  0  0  0
   11.8930   36.4630    7.6490 N   0  0  0  0  0  0
   11.0400   34.6610    8.8170 N   0  0  0  0  0  0
   13.2000   34.5610    7.9740 N   0  0  0  0  0  0
   14.0740   36.3800    6.7820 N   0  0  0  0  0  0
   14.3030   41.1520    3.8660 O   0  0  0  0  0  0
   16.2386   37.5561    5.9709 H   0  0  0  0  0  0
   16.3971   39.6815    4.6981 H   0  0  0  0  0  0
   12.1024   39.9314    4.6784 H   0  0  0  0  0  0
   11.9656   37.8314    5.9803 H   0  0  0  0  0  0
   15.6181   42.4047    2.7721 H   0  0  0  0  0  0
   15.9755   40.6475    2.6645 H   0  0  0  0  0  0
   16.3632   41.5526    4.1670 H   0  0  0  0  0  0
   12.3173   33.0118    9.0540 H   0  0  0  0  0  0
   -1.0803   28.5765    5.8496 H   0  0  0  0  0  0
   -0.3148   29.8395    6.8722 H   0  0  0  0  0  0
   -2.5247   30.2501    7.9897 H   0  0  0  0  0  0
   -2.6120   30.5309    6.2177 H   0  0  0  0  0  0
   -4.8590   30.0673    5.9819 H   0  0  0  0  0  0
   -5.1334   29.7644    7.7311 H   0  0  0  0  0  0
   -5.5716   28.5096    6.5227 H   0  0  0  0  0  0
   -3.5830   28.1349    8.9242 H   0  0  0  0  0  0
   -4.1741   26.9065    7.7546 H   0  0  0  0  0  0
   -1.8837   26.3847    8.7751 H   0  0  0  0  0  0
   -1.9034   26.4483    6.9801 H   0  0  0  0  0  0
   -1.1043   28.7067    8.8325 H   0  0  0  0  0  0
    0.3995   26.7871    8.8999 H   0  0  0  0  0  0
    0.6885   27.0122    7.1413 H   0  0  0  0  0  0
    2.7418   27.8612    6.7969 H   0  0  0  0  0  0
    4.4920   29.5575    7.2198 H   0  0  0  0  0  0
    0.4156   29.4757   10.0235 H   0  0  0  0  0  0
    2.1900   31.1671   10.4613 H   0  0  0  0  0  0
    3.7135   32.0653   10.9169 H   0  0  0  0  0  0
    6.7101   33.1968    8.9178 H   0  0  0  0  0  0
    4.4837   33.1332   12.5989 H   0  0  0  0  0  0
    6.0941   34.7342   13.5757 H   0  0  0  0  0  0
    7.9431   36.0870   13.5231 H   0  0  0  0  0  0
    8.2722   36.8538   11.9324 H   0  0  0  0  0  0
    9.2865   35.4822   12.4953 H   0  0  0  0  0  0
    9.4077   34.3214    9.5750 H   0  0  0  0  0  0
    6.4652   38.7506    8.8453 H   0  0  0  0  0  0
    8.4030   39.6889    7.5909 H   0  0  0  0  0  0
   10.4725   38.2976    7.2911 H   0  0  0  0  0  0
   14.9858   35.7681    6.8471 H   0  0  0  0  0  0
  1  2  2  0  0  0
  1  6  1  0  0  0
  1 47  1  0  0  0
  2  3  1  0  0  0
  2 48  1  0  0  0
  3  4  2  0  0  0
  3 46  1  0  0  0
  4  5  1  0  0  0
  4 49  1  0  0  0
  5  6  2  0  0  0
  5 50  1  0  0  0
  6 45  1  0  0  0
  7 46  1  0  0  0
  7 51  1  0  0  0
  7 52  1  0  0  0
  7 53  1  0  0  0
  8 42  2  0  0  0
  8 44  1  0  0  0
  8 45  1  0  0  0
  9 41  1  0  0  0
  9 42  1  0  0  0
  9 43  2  0  0  0
 10 43  1  0  0  0
 10 44  2  0  0  0
 10 54  1  0  0  0
 11 12  1  0  0  0
 11 17  1  0  0  0
 11 55  1  0  0  0
 11 56  1  0  0  0
 12 13  1  0  0  0
 12 57  1  0  0  0
 12 58  1  0  0  0
 13 14  1  0  0  0
 13 15  1  0  0  0
 14 59  1  0  0  0
 14 60  1  0  0  0
 14 61  1  0  0  0
 15 16  1  0  0  0
 15 62  1  0  0  0
 15 63  1  0  0  0
 16 17  1  0  0  0
 16 64  1  0  0  0
 16 65  1  0  0  0
 17 18  1  0  0  0
 17 66  1  0  0  0
 18 19  1  0  0  0
 18 67  1  0  0  0
 18 68  1  0  0  0
 19 20  2  0  0  0
 19 22  1  0  0  0
 20 21  1  0  0  0
 20 69  1  0  0  0
 21 24  2  0  0  0
 21 70  1  0  0  0
 22 23  2  0  0  0
 22 71  1  0  0  0
 23 24  1  0  0  0
 23 72  1  0  0  0
 24 25  1  0  0  0
 25 26  2  0  0  0
 25 27  1  0  0  0
 27 28  1  0  0  0
 27 73  1  0  0  0
 28 29  2  0  0  0
 28 30  1  0  0  0
 29 34  1  0  0  0
 29 74  1  0  0  0
 30 31  2  0  0  0
 30 75  1  0  0  0
 31 32  1  0  0  0
 31 76  1  0  0  0
 32 33  1  0  0  0
 32 34  2  0  0  0
 33 77  1  0  0  0
 33 78  1  0  0  0
 33 79  1  0  0  0
 34 35  1  0  0  0
 35 36  1  0  0  0
 35 80  1  0  0  0
 36 37  2  0  0  0
 36 41  1  0  0  0
 37 38  1  0  0  0
 38 39  2  0  0  0
 38 81  1  0  0  0
 39 40  1  0  0  0
 39 82  1  0  0  0
 40 41  2  0  0  0
 40 83  1  0  0  0
 45 84  1  0  0  0
M  CHG  1  17   1
M  END
> <s_m_source_file>
../3g6g_ligand.sdf

> <i_m_source_file_index>
1

> <s_epik_input>
W0NIM11PYzFbY0hdW2NIXWMoW2NIXVtjSF0xKVtOSF1jMm5jKG5bY0hdbjIpLWMzW2NIXVtjSF1bY0hdbmMzW05IXWMoYyhbQ0gzXSlbY0hdW2NIXTQpW2NIXWM0W05IXUMoPU8pYyhbY0hdW2NIXTUpW2NIXVtjSF1jNVtDSDJdW05ASCtdKFtDSDJdW0NIMl02KVtDSDJdW0NIMl1bTkBASCtdNltDSDNd

> <s_epik_cmdline>
J2VwaWtfYXBwJywgJy1pbWFlJywgJ2xpZ2FuZF9wcm8ubWFlJywgJy1vbWFlJywgJ2xpZ2FuZF9wcmVwLm1hZScsICctbXMnLCAnMScsICctcGgnLCAnNycsICctcGh0JywgJzAuNScsICctbnQn

> <r_lp_tautomer_probability>
1

> <r_epik_Ionization_Penalty>
  0.0292

> <r_epik_Ionization_Penalty_Charging>
  0.0155

> <r_epik_Ionization_Penalty_Neutral>
  0.0137

> <r_epik_State_Penalty>
 -0.0000

> <r_epik_Charging_Adjusted_Penalty>
0.0154526225118262

> <i_epik_Tot_Q>
1

> <i_epik_Tot_abs_Q>
1

$$$$
