3g6m_ligand
                    3D
 Schrodinger Suite 2020-3.
 24 25  0  0  1  0            999 V2000
   15.2600    5.9240    2.8320 N   0  0  0  0  0  0
   14.1060    6.2370    2.1590 C   0  0  0  0  0  0
   16.5670    6.1750    2.1950 C   0  0  0  0  0  0
   15.2370    5.3900    4.0810 C   0  0  0  0  0  0
   12.8500    6.0490    2.6570 N   0  0  0  0  0  0
   14.1940    6.7360    1.0040 O   0  0  0  0  0  0
   11.6640    6.4170    1.8610 C   0  0  0  0  0  0
   12.7160    5.5360    3.8810 C   0  0  0  0  0  0
   13.8880    5.1700    4.6660 C   0  0  0  0  0  0
   11.6280    5.2440    4.6210 N   0  0  0  0  0  0
   16.2790    5.0880    4.7050 O   0  0  0  0  0  0
   13.4500    4.6840    5.8340 N   0  0  0  0  0  0
   12.0960    4.7370    5.7970 C   0  0  0  0  0  0
   14.2420    4.1800    6.9650 C   0  0  0  0  0  0
   16.4108    6.6055    1.1949 H   0  0  0  0  0  0
   17.1187    5.2277    2.1044 H   0  0  0  0  0  0
   17.1459    6.8790    2.8109 H   0  0  0  0  0  0
   11.9853    6.8187    0.8887 H   0  0  0  0  0  0
   11.0835    7.1806    2.3995 H   0  0  0  0  0  0
   11.0388    5.5261    1.7012 H   0  0  0  0  0  0
   11.4538    4.4110    6.6152 H   0  0  0  0  0  0
   15.3128    4.2532    6.7242 H   0  0  0  0  0  0
   13.9802    3.1289    7.1564 H   0  0  0  0  0  0
   14.0256    4.7807    7.8607 H   0  0  0  0  0  0
  1  2  1  0  0  0
  1  3  1  0  0  0
  1  4  1  0  0  0
  2  5  1  0  0  0
  2  6  2  0  0  0
  3 15  1  0  0  0
  3 16  1  0  0  0
  3 17  1  0  0  0
  4  9  1  0  0  0
  4 11  2  0  0  0
  5  7  1  0  0  0
  5  8  1  0  0  0
  7 18  1  0  0  0
  7 19  1  0  0  0
  7 20  1  0  0  0
  8  9  2  0  0  0
  8 10  1  0  0  0
  9 12  1  0  0  0
 10 13  2  0  0  0
 12 13  1  0  0  0
 12 14  1  0  0  0
 13 21  1  0  0  0
 14 22  1  0  0  0
 14 23  1  0  0  0
 14 24  1  0  0  0
M  END
> <s_m_source_file>
../3g6m_ligand.sdf

> <i_m_source_file_index>
1

> <s_epik_input>
W0NIM11uMWMoPU8pbihbQ0gzXSljKD1PKWMoYzEyKW4oW2NIXW4yKVtDSDNd

> <s_epik_cmdline>
J2VwaWtfYXBwJywgJy1pbWFlJywgJ2xpZ2FuZF9wcm8ubWFlJywgJy1vbWFlJywgJ2xpZ2FuZF9wcmVwLm1hZScsICctbXMnLCAnMScsICctcGgnLCAnNycsICctcGh0JywgJzAuNScsICctbnQn

> <r_lp_tautomer_probability>
1

> <r_epik_Ionization_Penalty>
  0.0000

> <r_epik_Ionization_Penalty_Charging>
  0.0000

> <r_epik_Ionization_Penalty_Neutral>
  0.0000

> <r_epik_State_Penalty>
 -0.0000

> <r_epik_Charging_Adjusted_Penalty>
3.77584595045307e-09

> <i_epik_Tot_Q>
0

> <i_epik_Tot_abs_Q>
0

$$$$
