3g6z_ligand
                    3D
 Schrodinger Suite 2020-3.
 83 88  0  0  1  0            999 V2000
   -4.6560  -16.7670   -9.8910 O   0  0  0  0  0  0
   -5.5920  -16.5480  -10.6630 C   0  0  0  0  0  0
   -6.2480  -15.3740  -10.5730 N   0  0  0  0  0  0
   -5.9410  -14.4040   -9.5210 C   0  0  0  0  0  0
   -4.7480  -13.4890   -9.6020 C   0  0  0  0  0  0
   -3.8650  -13.4990  -10.6790 C   0  0  0  0  0  0
   -2.7960  -12.5950  -10.6750 C   0  0  0  0  0  0
   -2.6240  -11.7060   -9.6130 C   0  0  0  0  0  0
   -3.5250  -11.6840   -8.5470 C   0  0  0  0  0  0
   -3.3500  -10.7130   -7.3940 C   0  0  0  0  0  0
   -4.5810  -12.5780   -8.5480 C   0  0  0  0  0  0
   -5.5460  -12.5660   -7.3910 C   0  0  0  0  0  0
   -7.4260  -14.9300  -11.3520 C   0  0  0  0  0  0
   -7.1820  -15.0560  -12.8490 C   0  0  0  0  0  0
   -6.9970  -13.7070  -12.1650 C   0  0  0  0  0  0
   -5.9460  -17.5960  -11.6450 C   0  0  0  0  0  0
   -4.9410  -18.0100  -12.6900 C   0  0  2  0  0  0
   -5.6170  -18.6720  -13.8000 N   0  0  1  0  0  0
   -3.9340  -18.9970  -12.1030 C   0  0  0  0  0  0
   -4.5860  -20.2900  -11.8880 N   0  3  0  0  0  0
   -5.5460  -20.8770  -12.8170 C   0  0  0  0  0  0
   -6.4260  -19.8200  -13.4710 C   0  0  1  0  0  0
   -7.5300  -19.3980  -12.5040 C   0  0  0  0  0  0
   -7.1420  -18.2440  -11.5760 C   0  0  0  0  0  0
   -8.1940  -17.8670  -10.5630 C   0  0  0  0  0  0
   -9.4900  -17.6670  -11.0130 C   0  0  0  0  0  0
  -10.4970  -17.3120  -10.1300 C   0  0  0  0  0  0
   -7.8940  -17.6970   -9.1990 C   0  0  0  0  0  0
   -8.9080  -17.3370   -8.3070 C   0  0  0  0  0  0
  -10.2060  -17.1460   -8.7780 C   0  0  0  0  0  0
  -11.1970  -16.7980   -7.9080 O   0  0  0  0  0  0
  -12.4270  -16.2250   -8.3530 C   0  0  0  0  0  0
  -12.6610  -14.9330   -7.5880 C   0  0  0  0  0  0
  -12.4710  -13.8180   -8.4510 O   0  0  0  0  0  0
  -12.0100  -12.6340   -7.9500 C   0  0  0  0  0  0
  -10.5680  -12.2990   -7.9700 C   0  0  0  0  0  0
   -9.3570  -13.4410   -8.6520 Cl  0  0  0  0  0  0
  -10.1670  -11.0750   -7.4380 C   0  0  0  0  0  0
  -11.0840  -10.1680   -6.9030 C   0  0  0  0  0  0
  -10.6180   -8.8480   -6.3400 C   0  0  0  0  0  0
  -12.4380  -10.4440   -6.8730 C   0  0  0  0  0  0
  -12.9410  -11.6330   -7.3690 C   0  0  0  0  0  0
  -14.7140  -11.9170   -7.3080 Cl  0  0  0  0  0  0
   -6.7812  -13.7024   -9.4127 H   0  0  0  0  0  0
   -5.7801  -14.9330   -8.5701 H   0  0  0  0  0  0
   -4.0031  -14.1950  -11.5064 H   0  0  0  0  0  0
   -2.0927  -12.5854  -11.5077 H   0  0  0  0  0  0
   -1.7762  -11.0209   -9.6160 H   0  0  0  0  0  0
   -2.4619  -10.0888   -7.5719 H   0  0  0  0  0  0
   -3.2213  -11.2753   -6.4574 H   0  0  0  0  0  0
   -4.2400  -10.0711   -7.3169 H   0  0  0  0  0  0
   -6.3183  -13.3330   -7.5498 H   0  0  0  0  0  0
   -6.0211  -11.5764   -7.3200 H   0  0  0  0  0  0
   -5.0031  -12.7798   -6.4585 H   0  0  0  0  0  0
   -8.2439  -15.2186  -10.6755 H   0  0  0  0  0  0
   -6.3812  -15.7882  -13.0296 H   0  0  0  0  0  0
   -8.1049  -15.3925  -13.3439 H   0  0  0  0  0  0
   -7.7679  -12.9262  -12.0872 H   0  0  0  0  0  0
   -6.0441  -13.3219  -11.7729 H   0  0  0  0  0  0
   -4.4470  -17.1047  -13.0726 H   0  0  0  0  0  0
   -6.2943  -17.9598  -14.2940 H   0  0  0  0  0  0
   -3.0933  -19.1220  -12.8013 H   0  0  0  0  0  0
   -3.5593  -18.6114  -11.1434 H   0  0  0  0  0  0
   -3.8224  -21.0789  -11.8204 H   0  0  0  0  0  0
   -5.1641  -20.2582  -10.9527 H   0  0  0  0  0  0
   -5.0065  -21.4142  -13.6110 H   0  0  0  0  0  0
   -6.1971  -21.5795  -12.2762 H   0  0  0  0  0  0
   -6.8527  -20.1942  -14.4133 H   0  0  0  0  0  0
   -8.4120  -19.0715  -13.0745 H   0  0  0  0  0  0
   -7.8022  -20.2501  -11.8638 H   0  0  0  0  0  0
   -9.7189  -17.7902  -12.0715 H   0  0  0  0  0  0
  -11.5142  -17.1630  -10.4924 H   0  0  0  0  0  0
   -6.8757  -17.8453   -8.8396 H   0  0  0  0  0  0
   -8.6849  -17.2062   -7.2481 H   0  0  0  0  0  0
  -12.3657  -16.0171   -9.4314 H   0  0  0  0  0  0
  -13.2501  -16.9292   -8.1616 H   0  0  0  0  0  0
  -13.6895  -14.9189   -7.1981 H   0  0  0  0  0  0
  -11.9506  -14.8688   -6.7506 H   0  0  0  0  0  0
   -9.1076  -10.8184   -7.4396 H   0  0  0  0  0  0
   -9.5245   -8.7747   -6.4343 H   0  0  0  0  0  0
  -10.8998   -8.7821   -5.2788 H   0  0  0  0  0  0
  -11.0900   -8.0249   -6.8966 H   0  0  0  0  0  0
  -13.1233   -9.7096   -6.4498 H   0  0  0  0  0  0
  1  2  2  0  0  0
  2  3  1  0  0  0
  2 16  1  0  0  0
  3  4  1  0  0  0
  3 13  1  0  0  0
  4  5  1  0  0  0
  4 44  1  0  0  0
  4 45  1  0  0  0
  5  6  2  0  0  0
  5 11  1  0  0  0
  6  7  1  0  0  0
  6 46  1  0  0  0
  7  8  2  0  0  0
  7 47  1  0  0  0
  8  9  1  0  0  0
  8 48  1  0  0  0
  9 10  1  0  0  0
  9 11  2  0  0  0
 10 49  1  0  0  0
 10 50  1  0  0  0
 10 51  1  0  0  0
 11 12  1  0  0  0
 12 52  1  0  0  0
 12 53  1  0  0  0
 12 54  1  0  0  0
 13 14  1  0  0  0
 13 15  1  0  0  0
 13 55  1  0  0  0
 14 15  1  0  0  0
 14 56  1  0  0  0
 14 57  1  0  0  0
 15 58  1  0  0  0
 15 59  1  0  0  0
 16 17  1  0  0  0
 16 24  2  0  0  0
 17 18  1  0  0  0
 17 19  1  0  0  0
 17 60  1  0  0  0
 18 22  1  0  0  0
 18 61  1  0  0  0
 19 20  1  0  0  0
 19 62  1  0  0  0
 19 63  1  0  0  0
 20 21  1  0  0  0
 20 64  1  0  0  0
 20 65  1  0  0  0
 21 22  1  0  0  0
 21 66  1  0  0  0
 21 67  1  0  0  0
 22 23  1  0  0  0
 22 68  1  0  0  0
 23 24  1  0  0  0
 23 69  1  0  0  0
 23 70  1  0  0  0
 24 25  1  0  0  0
 25 26  2  0  0  0
 25 28  1  0  0  0
 26 27  1  0  0  0
 26 71  1  0  0  0
 27 30  2  0  0  0
 27 72  1  0  0  0
 28 29  2  0  0  0
 28 73  1  0  0  0
 29 30  1  0  0  0
 29 74  1  0  0  0
 30 31  1  0  0  0
 31 32  1  0  0  0
 32 33  1  0  0  0
 32 75  1  0  0  0
 32 76  1  0  0  0
 33 34  1  0  0  0
 33 77  1  0  0  0
 33 78  1  0  0  0
 34 35  1  0  0  0
 35 36  2  0  0  0
 35 42  1  0  0  0
 36 37  1  0  0  0
 36 38  1  0  0  0
 38 39  2  0  0  0
 38 79  1  0  0  0
 39 40  1  0  0  0
 39 41  1  0  0  0
 40 80  1  0  0  0
 40 81  1  0  0  0
 40 82  1  0  0  0
 41 42  2  0  0  0
 41 83  1  0  0  0
 42 43  1  0  0  0
M  CHG  1  20   1
M  END
> <s_m_source_file>
../3g6z_ligand.sdf

> <i_m_source_file_index>
1

> <s_epik_input>
W0NIM11jMWMoW0NIM10pW2NIXVtjSF1bY0hdYzFbQ0gyXU4oW0NIXTJbQ0gyXVtDSDJdMilDKD1PKUMoW0NASF0zNCk9QyhbQ0gyXVtDQEBIXShbTkgyK10zKVtDSDJdW05IMitdW0NIMl00KWM1W2NIXVtjSF1jKFtjSF1bY0hdNSlPW0NIMl1bQ0gyXU9jNmMoQ2wpW2NIXWMoW0NIM10pW2NIXWM2Q2w=

> <s_epik_cmdline>
J2VwaWtfYXBwJywgJy1pbWFlJywgJ2xpZ2FuZF9wcm8ubWFlJywgJy1vbWFlJywgJ2xpZ2FuZF9wcmVwLm1hZScsICctbXMnLCAnMScsICctcGgnLCAnNycsICctcGh0JywgJzAuNScsICctbnQn

> <r_lp_tautomer_probability>
1

> <r_epik_Ionization_Penalty>
  0.1330

> <r_epik_Ionization_Penalty_Charging>
  0.1330

> <r_epik_Ionization_Penalty_Neutral>
  0.0000

> <r_epik_State_Penalty>
  0.1223

> <r_epik_Charging_Adjusted_Penalty>
0.255311109756038

> <i_epik_Tot_Q>
1

> <i_epik_Tot_abs_Q>
1

$$$$
