3g70_ligand
                    3D
 Schrodinger Suite 2020-3.
 74 79  0  0  1  0            999 V2000
   -2.3890    5.6060    3.9480 Cl  0  0  0  0  0  0
   -0.6840    5.6200    4.4970 C   0  0  0  0  0  0
    0.3190    5.4440    3.5600 C   0  0  0  0  0  0
   -0.1150    5.1910    1.8440 Cl  0  0  0  0  0  0
   -0.3540    5.8280    5.8400 C   0  0  0  0  0  0
    0.9810    5.8310    6.2450 C   0  0  0  0  0  0
    1.9830    5.6330    5.2910 C   0  0  0  0  0  0
    1.6550    5.4450    3.9530 C   0  0  0  0  0  0
    2.6910    5.2330    2.8780 C   0  0  0  0  0  0
    4.0510    5.6960    3.1270 N   0  0  0  0  0  0
    4.2690    7.0630    2.5970 C   0  0  0  0  0  0
    3.4040    8.0690    3.3630 C   0  0  0  0  0  0
    4.8810    7.9540    3.6740 C   0  0  0  0  0  0
    4.9680    4.8770    3.6990 C   0  0  0  0  0  0
    4.6410    3.7320    4.0830 O   0  0  0  0  0  0
    6.3890    5.2640    3.9070 C   0  0  0  0  0  0
    6.8960    5.2820    5.3310 C   0  0  2  0  0  0
    8.0530    6.1670    5.4800 N   0  0  1  0  0  0
    9.1410    5.7470    4.6250 C   0  0  2  0  0  0
    8.7220    5.8900    3.1520 C   0  0  0  0  0  0
    7.2750    3.8680    5.7810 C   0  0  0  0  0  0
    8.3870    3.3880    4.9600 N   0  3  0  0  0  0
    9.5380    4.3010    4.9800 C   0  0  0  0  0  0
    7.2500    5.5370    2.8780 C   0  0  0  0  0  0
    6.8720    5.5410    1.4050 C   0  0  0  0  0  0
    6.0470    4.5670    0.8310 C   0  0  0  0  0  0
    5.7350    4.6150   -0.5280 C   0  0  0  0  0  0
    7.3920    6.5440    0.5780 C   0  0  0  0  0  0
    7.1070    6.5900   -0.7810 C   0  0  0  0  0  0
    6.2780    5.6180   -1.3380 C   0  0  0  0  0  0
    5.9510    5.6690   -2.7840 C   0  0  0  0  0  0
    4.7380    6.0670   -3.1990 C   0  0  0  0  0  0
    3.8590    6.9630   -2.3650 C   0  0  0  0  0  0
    3.2180    8.0010   -3.1320 O   0  0  0  0  0  0
    1.8610    8.0410   -2.8180 C   0  0  0  0  0  0
    1.3300    7.8870   -1.5340 C   0  0  0  0  0  0
    2.1240    7.6740   -0.4840 F   0  0  0  0  0  0
    0.9770    8.2530   -3.8470 C   0  0  0  0  0  0
    1.7120    8.4620   -5.4750 Cl  0  0  0  0  0  0
   -0.3990    8.3000   -3.6140 C   0  0  0  0  0  0
   -1.2690    8.5130   -4.6110 F   0  0  0  0  0  0
   -0.9170    8.1460   -2.3410 C   0  0  0  0  0  0
   -0.0420    7.9250   -1.2960 C   0  0  0  0  0  0
   -1.1437    5.9886    6.5739 H   0  0  0  0  0  0
    1.2394    5.9859    7.2925 H   0  0  0  0  0  0
    3.0288    5.6259    5.5980 H   0  0  0  0  0  0
    2.7919    4.1570    2.6732 H   0  0  0  0  0  0
    2.3790    5.7532    1.9604 H   0  0  0  0  0  0
    4.4782    6.8276    1.5430 H   0  0  0  0  0  0
    2.9608    8.7851    2.6553 H   0  0  0  0  0  0
    2.6026    7.5342    3.8937 H   0  0  0  0  0  0
    5.3126    7.3263    4.4675 H   0  0  0  0  0  0
    5.6708    8.5772    3.2292 H   0  0  0  0  0  0
    6.1033    5.7034    5.9666 H   0  0  0  0  0  0
    7.7668    7.1936    5.2077 H   0  0  0  0  0  0
    9.9874    6.4203    4.8255 H   0  0  0  0  0  0
    8.8699    6.9308    2.8281 H   0  0  0  0  0  0
    9.3353    5.2217    2.5298 H   0  0  0  0  0  0
    7.5769    3.8884    6.8386 H   0  0  0  0  0  0
    6.4094    3.2002    5.6596 H   0  0  0  0  0  0
    8.7243    2.4105    5.3350 H   0  0  0  0  0  0
    8.0548    3.2856    3.9164 H   0  0  0  0  0  0
   10.2771    3.9346    4.2524 H   0  0  0  0  0  0
    9.9746    4.2779    5.9894 H   0  0  0  0  0  0
    5.6453    3.7650    1.4503 H   0  0  0  0  0  0
    5.0669    3.8696   -0.9594 H   0  0  0  0  0  0
    8.0370    7.3083    1.0115 H   0  0  0  0  0  0
    7.5275    7.3784   -1.4053 H   0  0  0  0  0  0
    6.7151    5.3762   -3.5191 H   0  0  0  0  0  0
    4.3562    5.7386   -4.1769 H   0  0  0  0  0  0
    3.0682    6.3629   -1.8913 H   0  0  0  0  0  0
    4.4651    7.4503   -1.5871 H   0  0  0  0  0  0
   -1.9917    8.1979   -2.1666 H   0  0  0  0  0  0
   -0.4245    7.7804   -0.2856 H   0  0  0  0  0  0
  1  2  1  0  0  0
  2  3  2  0  0  0
  2  5  1  0  0  0
  3  4  1  0  0  0
  3  8  1  0  0  0
  5  6  2  0  0  0
  5 44  1  0  0  0
  6  7  1  0  0  0
  6 45  1  0  0  0
  7  8  2  0  0  0
  7 46  1  0  0  0
  8  9  1  0  0  0
  9 10  1  0  0  0
  9 47  1  0  0  0
  9 48  1  0  0  0
 10 11  1  0  0  0
 10 14  1  0  0  0
 11 12  1  0  0  0
 11 13  1  0  0  0
 11 49  1  0  0  0
 12 13  1  0  0  0
 12 50  1  0  0  0
 12 51  1  0  0  0
 13 52  1  0  0  0
 13 53  1  0  0  0
 14 15  2  0  0  0
 14 16  1  0  0  0
 16 17  1  0  0  0
 16 24  2  0  0  0
 17 18  1  0  0  0
 17 21  1  0  0  0
 17 54  1  0  0  0
 18 19  1  0  0  0
 18 55  1  0  0  0
 19 20  1  0  0  0
 19 23  1  0  0  0
 19 56  1  0  0  0
 20 24  1  0  0  0
 20 57  1  0  0  0
 20 58  1  0  0  0
 21 22  1  0  0  0
 21 59  1  0  0  0
 21 60  1  0  0  0
 22 23  1  0  0  0
 22 61  1  0  0  0
 22 62  1  0  0  0
 23 63  1  0  0  0
 23 64  1  0  0  0
 24 25  1  0  0  0
 25 26  2  0  0  0
 25 28  1  0  0  0
 26 27  1  0  0  0
 26 65  1  0  0  0
 27 30  2  0  0  0
 27 66  1  0  0  0
 28 29  2  0  0  0
 28 67  1  0  0  0
 29 30  1  0  0  0
 29 68  1  0  0  0
 30 31  1  0  0  0
 31 32  2  0  0  0
 31 69  1  0  0  0
 32 33  1  0  0  0
 32 70  1  0  0  0
 33 34  1  0  0  0
 33 71  1  0  0  0
 33 72  1  0  0  0
 34 35  1  0  0  0
 35 36  2  0  0  0
 35 38  1  0  0  0
 36 37  1  0  0  0
 36 43  1  0  0  0
 38 39  1  0  0  0
 38 40  2  0  0  0
 40 41  1  0  0  0
 40 42  1  0  0  0
 42 43  2  0  0  0
 42 73  1  0  0  0
 43 74  1  0  0  0
M  CHG  1  22   1
M  END
> <s_m_source_file>
../3g70_ligand.sdf

> <i_m_source_file_index>
1

> <s_epik_input>
Q2xjMWMoQ2wpYyhbY0hdW2NIXVtjSF0xKVtDSDJdTihbQ0hdMltDSDJdW0NIMl0yKUMoPU8pQyhbQ0BIXTM0KT1DKFtDSDJdW0NAQEhdKFtOSDIrXTMpW0NIMl1bTkgyK11bQ0gyXTQpYzVbY0hdW2NIXWMoW2NIXVtjSF01KS9bQ0hdPVtDSF1cW0NIMl1PYzZjKEYpW2NIXVtjSF1jKEYpYzZDbA==

> <s_epik_cmdline>
J2VwaWtfYXBwJywgJy1pbWFlJywgJ2xpZ2FuZF9wcm8ubWFlJywgJy1vbWFlJywgJ2xpZ2FuZF9wcmVwLm1hZScsICctbXMnLCAnMScsICctcGgnLCAnNycsICctcGh0JywgJzAuNScsICctbnQn

> <r_lp_tautomer_probability>
1

> <r_epik_Ionization_Penalty>
  0.1572

> <r_epik_Ionization_Penalty_Charging>
  0.1572

> <r_epik_Ionization_Penalty_Neutral>
  0.0000

> <r_epik_State_Penalty>
  0.1465

> <r_epik_Charging_Adjusted_Penalty>
0.303616785959021

> <i_epik_Tot_Q>
1

> <i_epik_Tot_abs_Q>
1

$$$$
