3g72_ligand
                    3D
 Schrodinger Suite 2020-3.
 76 81  0  0  1  0            999 V2000
    7.1870    5.3190    6.1650 C   0  0  0  0  0  0
   -2.2450    5.1660    3.8450 Cl  0  0  0  0  0  0
   -0.5760    5.3190    4.4240 C   0  0  0  0  0  0
    0.4240    5.2500    3.5040 C   0  0  0  0  0  0
    0.0580    4.9520    1.7810 Cl  0  0  0  0  0  0
   -0.3130    5.5370    5.7700 C   0  0  0  0  0  0
    1.0020    5.6510    6.1710 C   0  0  0  0  0  0
    2.0240    5.5680    5.2260 C   0  0  0  0  0  0
    1.7380    5.3490    3.8920 C   0  0  0  0  0  0
    2.7880    5.2340    2.7950 C   0  0  0  0  0  0
    4.1940    5.4940    3.0970 N   0  0  0  0  0  0
    4.6970    6.8420    2.6580 C   0  0  0  0  0  0
    3.8720    7.9590    3.2880 C   0  0  0  0  0  0
    5.2810    7.7450    3.7780 C   0  0  0  0  0  0
    4.9270    4.4760    3.6020 C   0  0  0  0  0  0
    4.4040    3.3870    3.8660 O   0  0  0  0  0  0
    6.3590    4.5190    3.8640 C   0  0  0  0  0  0
    6.8610    4.1420    5.2340 C   0  0  1  0  0  0
    8.0500    3.3150    4.9840 N   0  0  1  0  0  0
    9.1450    4.0800    4.3840 C   0  0  1  0  0  0
    8.7390    4.7210    3.0550 C   0  0  0  0  0  0
    8.4300    6.0140    5.7820 N   0  3  0  0  0  0
    9.5370    5.1810    5.3580 C   0  0  0  0  0  0
    7.2200    4.7560    2.8530 C   0  0  0  0  0  0
    6.8530    5.0520    1.4300 C   0  0  0  0  0  0
    6.0080    4.1720    0.7560 C   0  0  0  0  0  0
    5.6890    4.3660   -0.5790 C   0  0  0  0  0  0
    7.4330    6.1390    0.7380 C   0  0  0  0  0  0
    7.1170    6.3420   -0.6110 C   0  0  0  0  0  0
    6.2600    5.4380   -1.2760 C   0  0  0  0  0  0
    5.9110    5.6080   -2.7100 C   0  0  0  0  0  0
    5.2370    6.6920   -3.0800 C   0  0  0  0  0  0
    3.7780    6.6370   -2.7460 C   0  0  0  0  0  0
    3.1840    7.8770   -3.1070 O   0  0  0  0  0  0
    1.8410    7.8440   -2.8070 C   0  0  0  0  0  0
    1.3630    7.6550   -1.5140 C   0  0  0  0  0  0
    2.2120    7.4620   -0.4910 F   0  0  0  0  0  0
    0.9550    8.0440   -3.8350 C   0  0  0  0  0  0
    1.6670    8.3270   -5.4690 Cl  0  0  0  0  0  0
   -0.4080    8.0150   -3.5690 C   0  0  0  0  0  0
   -1.3030    8.2060   -4.5420 F   0  0  0  0  0  0
   -0.8930    7.8210   -2.2900 C   0  0  0  0  0  0
    0.0020    7.6480   -1.2600 C   0  0  0  0  0  0
    6.3661    6.0505    6.1325 H   0  0  0  0  0  0
    7.3086    4.9498    7.1940 H   0  0  0  0  0  0
   -1.1257    5.6161    6.4920 H   0  0  0  0  0  0
    1.2414    5.8055    7.2231 H   0  0  0  0  0  0
    3.0610    5.6772    5.5434 H   0  0  0  0  0  0
    2.7881    4.2099    2.3935 H   0  0  0  0  0  0
    2.5545    5.9441    1.9880 H   0  0  0  0  0  0
    5.0369    6.5350    1.6579 H   0  0  0  0  0  0
    3.5772    8.6799    2.5112 H   0  0  0  0  0  0
    2.9711    7.5320    3.7528 H   0  0  0  0  0  0
    5.5633    7.1232    4.6404 H   0  0  0  0  0  0
    6.1695    8.2712    3.3988 H   0  0  0  0  0  0
    6.0788    3.5806    5.7660 H   0  0  0  0  0  0
    8.4102    2.8940    5.9343 H   0  0  0  0  0  0
    9.9593    3.3626    4.2041 H   0  0  0  0  0  0
    9.1068    5.7571    3.0202 H   0  0  0  0  0  0
    9.1758    4.1487    2.2233 H   0  0  0  0  0  0
    8.2265    6.6918    4.9398 H   0  0  0  0  0  0
    8.8040    6.5948    6.6380 H   0  0  0  0  0  0
    9.9709    4.7320    6.2636 H   0  0  0  0  0  0
   10.2783    5.8420    4.8852 H   0  0  0  0  0  0
    5.5909    3.3167    1.2877 H   0  0  0  0  0  0
    4.9988    3.6891   -1.0825 H   0  0  0  0  0  0
    8.1200    6.8132    1.2495 H   0  0  0  0  0  0
    7.5317    7.1960   -1.1466 H   0  0  0  0  0  0
    6.8320    5.6346   -3.3108 H   0  0  0  0  0  0
    5.2840    4.7655   -3.0372 H   0  0  0  0  0  0
    5.6557    7.5745   -2.5741 H   0  0  0  0  0  0
    5.3189    6.8206   -4.1694 H   0  0  0  0  0  0
    3.3043    5.8173   -3.3061 H   0  0  0  0  0  0
    3.6552    6.4626   -1.6669 H   0  0  0  0  0  0
   -1.9663    7.8053   -2.1004 H   0  0  0  0  0  0
   -0.3608    7.5052   -0.2421 H   0  0  0  0  0  0
  1 18  1  0  0  0
  1 22  1  0  0  0
  1 44  1  0  0  0
  1 45  1  0  0  0
  2  3  1  0  0  0
  3  4  2  0  0  0
  3  6  1  0  0  0
  4  5  1  0  0  0
  4  9  1  0  0  0
  6  7  2  0  0  0
  6 46  1  0  0  0
  7  8  1  0  0  0
  7 47  1  0  0  0
  8  9  2  0  0  0
  8 48  1  0  0  0
  9 10  1  0  0  0
 10 11  1  0  0  0
 10 49  1  0  0  0
 10 50  1  0  0  0
 11 12  1  0  0  0
 11 15  1  0  0  0
 12 13  1  0  0  0
 12 14  1  0  0  0
 12 51  1  0  0  0
 13 14  1  0  0  0
 13 52  1  0  0  0
 13 53  1  0  0  0
 14 54  1  0  0  0
 14 55  1  0  0  0
 15 16  2  0  0  0
 15 17  1  0  0  0
 17 18  1  0  0  0
 17 24  2  0  0  0
 18 19  1  0  0  0
 18 56  1  0  0  0
 19 20  1  0  0  0
 19 57  1  0  0  0
 20 21  1  0  0  0
 20 23  1  0  0  0
 20 58  1  0  0  0
 21 24  1  0  0  0
 21 59  1  0  0  0
 21 60  1  0  0  0
 22 23  1  0  0  0
 22 61  1  0  0  0
 22 62  1  0  0  0
 23 63  1  0  0  0
 23 64  1  0  0  0
 24 25  1  0  0  0
 25 26  2  0  0  0
 25 28  1  0  0  0
 26 27  1  0  0  0
 26 65  1  0  0  0
 27 30  2  0  0  0
 27 66  1  0  0  0
 28 29  2  0  0  0
 28 67  1  0  0  0
 29 30  1  0  0  0
 29 68  1  0  0  0
 30 31  1  0  0  0
 31 32  1  0  0  0
 31 69  1  0  0  0
 31 70  1  0  0  0
 32 33  1  0  0  0
 32 71  1  0  0  0
 32 72  1  0  0  0
 33 34  1  0  0  0
 33 73  1  0  0  0
 33 74  1  0  0  0
 34 35  1  0  0  0
 35 36  2  0  0  0
 35 38  1  0  0  0
 36 37  1  0  0  0
 36 43  1  0  0  0
 38 39  1  0  0  0
 38 40  2  0  0  0
 40 41  1  0  0  0
 40 42  1  0  0  0
 42 43  2  0  0  0
 42 75  1  0  0  0
 43 76  1  0  0  0
M  CHG  1  22   1
M  END
> <s_m_source_file>
../3g72_ligand.sdf

> <i_m_source_file_index>
1

> <s_epik_input>
Q2xjMWMoQ2wpYyhbY0hdW2NIXVtjSF0xKVtDSDJdTihbQ0hdMltDSDJdW0NIMl0yKUMoPU8pQzM9QyhbQ0gyXVtDQEhdKFtOSDIrXTQpW0NIMl1bTkgyK11bQ0gyXVtDQEBIXTM0KWM1W2NIXVtjSF1jKFtjSF1bY0hdNSlbQ0gyXVtDSDJdW0NIMl1PYzZjKEYpW2NIXVtjSF1jKEYpYzZDbA==

> <s_epik_cmdline>
J2VwaWtfYXBwJywgJy1pbWFlJywgJ2xpZ2FuZF9wcm8ubWFlJywgJy1vbWFlJywgJ2xpZ2FuZF9wcmVwLm1hZScsICctbXMnLCAnMScsICctcGgnLCAnNycsICctcGh0JywgJzAuNScsICctbnQn

> <r_lp_tautomer_probability>
1

> <r_epik_Ionization_Penalty>
  0.1488

> <r_epik_Ionization_Penalty_Charging>
  0.1488

> <r_epik_Ionization_Penalty_Neutral>
  0.0000

> <r_epik_State_Penalty>
  0.1381

> <r_epik_Charging_Adjusted_Penalty>
0.286953307133197

> <i_epik_Tot_Q>
1

> <i_epik_Tot_abs_Q>
1

$$$$
