3g76_ligand
                    3D
 Schrodinger Suite 2020-3.
 64 66  0  0  1  0            999 V2000
   18.7870   29.4510    5.3180 C   0  0  0  0  0  0
   18.2510   30.1210    4.1650 C   0  0  0  0  0  0
   19.0030   31.1320    3.5540 C   0  0  0  0  0  0
   20.2610   31.4900    4.0490 C   0  0  0  0  0  0
   20.7770   30.8380    5.1690 C   0  0  0  0  0  0
   20.0490   29.8200    5.7940 C   0  0  0  0  0  0
   20.7210   29.0230    7.1980 S   0  0  0  0  0  0
   20.2570   30.2100    8.3630 C   0  0  0  0  0  0
   19.6760   31.3860    8.1560 N   0  0  0  0  0  0
   19.5310   31.8810    9.2800 N   0  0  0  0  0  0
   19.9670   31.1220   10.1630 N   0  0  0  0  0  0
   20.4160   30.0920    9.6500 N   0  0  0  0  0  0
   21.0170   28.9200   10.3120 C   0  0  0  0  0  0
   20.1370   28.4120   11.4710 C   0  0  2  0  0  0
   20.2930   29.3630   12.6660 C   0  0  0  0  0  0
   20.2680   28.4410   13.8740 C   0  0  0  0  0  0
   21.0340   27.2170   13.3870 C   0  0  0  0  0  0
   20.6750   27.1380   11.9620 N   0  0  0  0  0  0
   20.8230   26.0420   11.2210 C   0  0  0  0  0  0
   20.4930   26.0310   10.0350 O   0  0  0  0  0  0
   21.4190   24.7900   11.8290 C   0  0  1  0  0  0
   20.6980   23.6610   11.2070 N   0  0  0  0  0  0
   19.9620   22.8270   11.9440 C   0  0  0  0  0  0
   19.8480   22.9070   13.1690 O   0  0  0  0  0  0
   19.2540   21.7110   11.1780 C   0  0  2  0  0  0
   17.9010   22.2300   10.7120 C   0  0  0  0  0  0
   19.0460   20.5570   12.0630 N   0  3  0  0  0  0
   20.3220   20.0490   12.6090 C   0  0  0  0  0  0
   22.9500   24.8230   11.5500 C   0  0  1  0  0  0
   23.6230   23.4840   11.8960 C   0  0  0  0  0  0
   23.2350   25.2410   10.1620 O   0  0  0  0  0  0
   24.4660   26.0260    9.9920 C   0  0  0  0  0  0
   18.2173   28.6657    5.8148 H   0  0  0  0  0  0
   17.2724   29.8459    3.7715 H   0  0  0  0  0  0
   18.6024   31.6469    2.6808 H   0  0  0  0  0  0
   20.8367   32.2764    3.5609 H   0  0  0  0  0  0
   21.7537   31.1235    5.5597 H   0  0  0  0  0  0
   21.1338   28.1060    9.5814 H   0  0  0  0  0  0
   22.0025   29.1931   10.7173 H   0  0  0  0  0  0
   19.1003   28.2902   11.1239 H   0  0  0  0  0  0
   21.2448   29.9075   12.5794 H   0  0  0  0  0  0
   19.4595   30.0807   12.6747 H   0  0  0  0  0  0
   20.7597   28.9369   14.7239 H   0  0  0  0  0  0
   19.2253   28.2100   14.1374 H   0  0  0  0  0  0
   22.1118   27.3738   13.5409 H   0  0  0  0  0  0
   20.7080   26.3315   13.9523 H   0  0  0  0  0  0
   21.2654   24.6780   12.9124 H   0  0  0  0  0  0
   20.7633   23.4981   10.1211 H   0  0  0  0  0  0
   19.8644   21.3668   10.3301 H   0  0  0  0  0  0
   18.0488   23.0948   10.0484 H   0  0  0  0  0  0
   17.3050   22.5351   11.5847 H   0  0  0  0  0  0
   17.3716   21.4352   10.1661 H   0  0  0  0  0  0
   18.4025   20.8519   12.9050 H   0  0  0  0  0  0
   18.5632   19.7450   11.4994 H   0  0  0  0  0  0
   20.1235   19.1881   13.2643 H   0  0  0  0  0  0
   20.8157   20.8439   13.1873 H   0  0  0  0  0  0
   20.9764   19.7370   11.7817 H   0  0  0  0  0  0
   23.4171   25.6007   12.1720 H   0  0  0  0  0  0
   23.3852   23.2118   12.9349 H   0  0  0  0  0  0
   24.7128   23.5813   11.7827 H   0  0  0  0  0  0
   23.2523   22.7013   11.2178 H   0  0  0  0  0  0
   24.5901   26.2880    8.9309 H   0  0  0  0  0  0
   25.3290   25.4315   10.3263 H   0  0  0  0  0  0
   24.4000   26.9459   10.5916 H   0  0  0  0  0  0
  1  2  2  0  0  0
  1  6  1  0  0  0
  1 33  1  0  0  0
  2  3  1  0  0  0
  2 34  1  0  0  0
  3  4  2  0  0  0
  3 35  1  0  0  0
  4  5  1  0  0  0
  4 36  1  0  0  0
  5  6  2  0  0  0
  5 37  1  0  0  0
  6  7  1  0  0  0
  7  8  1  0  0  0
  8  9  2  0  0  0
  8 12  1  0  0  0
  9 10  1  0  0  0
 10 11  2  0  0  0
 11 12  1  0  0  0
 12 13  1  0  0  0
 13 14  1  0  0  0
 13 38  1  0  0  0
 13 39  1  0  0  0
 14 15  1  0  0  0
 14 18  1  0  0  0
 14 40  1  0  0  0
 15 16  1  0  0  0
 15 41  1  0  0  0
 15 42  1  0  0  0
 16 17  1  0  0  0
 16 43  1  0  0  0
 16 44  1  0  0  0
 17 18  1  0  0  0
 17 45  1  0  0  0
 17 46  1  0  0  0
 18 19  1  0  0  0
 19 20  2  0  0  0
 19 21  1  0  0  0
 21 22  1  0  0  0
 21 29  1  0  0  0
 21 47  1  0  0  0
 22 23  1  0  0  0
 22 48  1  0  0  0
 23 24  2  0  0  0
 23 25  1  0  0  0
 25 26  1  0  0  0
 25 27  1  0  0  0
 25 49  1  0  0  0
 26 50  1  0  0  0
 26 51  1  0  0  0
 26 52  1  0  0  0
 27 28  1  0  0  0
 27 53  1  0  0  0
 27 54  1  0  0  0
 28 55  1  0  0  0
 28 56  1  0  0  0
 28 57  1  0  0  0
 29 30  1  0  0  0
 29 31  1  0  0  0
 29 58  1  0  0  0
 30 59  1  0  0  0
 30 60  1  0  0  0
 30 61  1  0  0  0
 31 32  1  0  0  0
 32 62  1  0  0  0
 32 63  1  0  0  0
 32 64  1  0  0  0
M  CHG  1  27   1
M  END
> <s_m_source_file>
../3g76_ligand.sdf

> <i_m_source_file_index>
1

> <s_epik_input>
W2NIXTFbY0hdW2NIXVtjSF1bY0hdYzFTYzJubm5uMltDSDJdW0NAQEhdM1tDSDJdW0NIMl1bQ0gyXU4zQyg9TylbQ0BIXShbQ0BASF0oW0NIM10pT1tDSDNdKVtOSF1DKD1PKVtDQEhdKFtDSDNdKVtOSDIrXVtDSDNd

> <s_epik_cmdline>
J2VwaWtfYXBwJywgJy1pbWFlJywgJ2xpZ2FuZF9wcm8ubWFlJywgJy1vbWFlJywgJ2xpZ2FuZF9wcmVwLm1hZScsICctbXMnLCAnMScsICctcGgnLCAnNycsICctcGh0JywgJzAuNScsICctbnQn

> <r_lp_tautomer_probability>
1

> <r_epik_Ionization_Penalty>
  0.0935

> <r_epik_Ionization_Penalty_Charging>
  0.0935

> <r_epik_Ionization_Penalty_Neutral>
  0.0000

> <r_epik_State_Penalty>
  0.0838

> <r_epik_Charging_Adjusted_Penalty>
0.177275003116414

> <i_epik_Tot_Q>
1

> <i_epik_Tot_abs_Q>
1

$$$$
