3g7l_ligand
                    3D
 Schrodinger Suite 2020-3.
132131  0  0  1  0            999 V2000
    3.3880   -5.8910  -16.6450 N   0  3  0  0  0  0
    2.0520   -6.3510  -16.2470 C   0  0  2  0  0  0
    1.9040   -7.8550  -16.4580 C   0  0  0  0  0  0
    1.8720   -8.3420  -17.5930 O   0  0  0  0  0  0
    0.9710   -5.6100  -17.0310 C   0  0  0  0  0  0
   -0.4120   -5.6450  -16.3900 C   0  0  0  0  0  0
   -1.3020   -6.7040  -17.0080 C   0  0  0  0  0  0
   -2.7690   -6.4000  -16.7460 C   0  0  0  0  0  0
   -3.1220   -6.6140  -15.3240 N   0  3  0  0  0  0
    1.8110   -8.5800  -15.3490 N   0  0  0  0  0  0
    1.8510  -10.0370  -15.3590 C   0  0  2  0  0  0
    0.4690  -10.5920  -15.1130 C   0  0  0  0  0  0
   -0.2050  -10.1710  -14.1810 O   0  0  0  0  0  0
    2.8060  -10.5190  -14.2750 C   0  0  0  0  0  0
    4.1960   -9.9150  -14.3960 C   0  0  0  0  0  0
    4.9070  -10.3680  -15.6640 C   0  0  0  0  0  0
    5.1970  -11.5510  -15.8330 O   0  0  0  0  0  0
    5.1990   -9.4280  -16.5550 N   0  0  0  0  0  0
    0.0440  -11.5280  -15.9550 N   0  0  0  0  0  0
   -1.3010  -12.0950  -15.8700 C   0  0  2  0  0  0
   -1.2410  -13.6190  -15.8130 C   0  0  0  0  0  0
   -0.3030  -14.2370  -16.3050 O   0  0  0  0  0  0
   -2.1910  -11.6710  -17.0790 C   0  0  2  0  0  0
   -1.6720  -12.2400  -18.2900 O   0  0  0  0  0  0
   -2.2560  -10.1660  -17.2000 C   0  0  0  0  0  0
   -2.2570  -14.2140  -15.2100 N   0  0  0  0  0  0
   -2.3460  -15.6600  -15.0820 C   0  0  2  0  0  0
   -3.8250  -16.0430  -14.9200 C   0  0  0  0  0  0
   -4.6330  -15.2190  -14.5140 O   0  0  0  0  0  0
   -1.5460  -16.1240  -13.8860 C   0  0  0  0  0  0
   -4.1760  -17.2810  -15.2470 N   0  0  0  0  0  0
   -5.5280  -17.7710  -15.0010 C   0  0  2  0  0  0
   -5.6460  -18.2610  -13.5570 C   0  0  0  0  0  0
   -4.8000  -19.0300  -13.0700 O   0  0  0  0  0  0
   -5.8620  -18.9040  -15.9840 C   0  0  0  0  0  0
   -7.1910  -19.6350  -15.7350 C   0  0  0  0  0  0
   -7.3580  -20.7650  -16.7690 C   0  0  0  0  0  0
   -8.5780  -21.5560  -16.6140 N   0  0  0  0  0  0
   -9.8110  -21.0890  -16.8260 C   0  0  0  0  0  0
  -10.8600  -21.8870  -16.6700 N   0  3  0  0  0  0
  -10.0060  -19.8220  -17.1770 N   0  0  0  0  0  0
   -6.6850  -17.8030  -12.8650 N   0  0  0  0  0  0
   -6.9390  -18.2200  -11.4400 C   0  0  1  0  0  0
   -7.3600  -17.0200  -10.5840 C   0  0  0  0  0  0
   -7.9290  -17.4330   -9.2180 C   0  0  0  0  0  0
   -8.0340  -16.2650   -8.2270 C   0  0  0  0  0  0
   -8.9560  -15.1680   -8.7660 C   0  0  0  0  0  0
   -9.2530  -14.0970   -7.7930 N   0  3  0  0  0  0
   -8.0450  -19.2220  -11.4190 C   0  0  0  0  0  0
   -9.1680  -18.8630  -11.7290 O   0  0  0  0  0  0
  -10.6380  -13.6720   -8.0020 C   0  0  0  0  0  0
   -8.4130  -12.9150   -8.0260 C   0  0  0  0  0  0
   -9.0730  -14.5670   -6.4060 C   0  0  0  0  0  0
   -7.7410  -20.4680  -11.0760 N   0  0  0  0  0  0
   -8.7510  -21.5050  -10.8600 C   0  0  2  0  0  0
   -9.9600  -21.0090  -10.0470 C   0  0  0  0  0  0
  -10.7748  -21.8167   -9.5262 O   0  0  0  0  0  0
   -8.1040  -22.6870  -10.1360 C   0  0  0  0  0  0
   -6.9530  -23.1370  -10.8340 O   0  0  0  0  0  0
  -10.1385  -19.7705   -9.8992 O   0  5  0  0  0  0
    4.1502   -6.4365  -16.0693 H   0  0  0  0  0  0
    3.4793   -4.8132  -16.4451 H   0  0  0  0  0  0
    3.5356   -6.0786  -17.7188 H   0  0  0  0  0  0
    1.9697   -6.1179  -15.1751 H   0  0  0  0  0  0
    1.2507   -4.5508  -17.1298 H   0  0  0  0  0  0
    0.8712   -6.0576  -18.0308 H   0  0  0  0  0  0
   -0.3132   -5.8652  -15.3168 H   0  0  0  0  0  0
   -0.9014   -4.6685  -16.5204 H   0  0  0  0  0  0
   -1.1357   -6.7340  -18.0949 H   0  0  0  0  0  0
   -1.0609   -7.6851  -16.5729 H   0  0  0  0  0  0
   -2.9775   -5.3508  -17.0023 H   0  0  0  0  0  0
   -3.3962   -7.0598  -17.3635 H   0  0  0  0  0  0
   -4.1872   -6.3851  -15.1722 H   0  0  0  0  0  0
   -2.5112   -5.9534  -14.6912 H   0  0  0  0  0  0
   -2.9299   -7.6625  -15.0523 H   0  0  0  0  0  0
    1.7001   -8.0394  -14.3975 H   0  0  0  0  0  0
    2.1981  -10.3492  -16.3550 H   0  0  0  0  0  0
    2.4076  -10.2449  -13.2870 H   0  0  0  0  0  0
    2.9103  -11.6122  -14.3378 H   0  0  0  0  0  0
    4.1183   -8.8180  -14.4193 H   0  0  0  0  0  0
    4.8053  -10.2212  -13.5328 H   0  0  0  0  0  0
    4.9203   -8.3816  -16.3619 H   0  0  0  0  0  0
    5.7197   -9.6956  -17.4863 H   0  0  0  0  0  0
    0.7390  -11.8751  -16.7338 H   0  0  0  0  0  0
   -1.6938  -11.6884  -14.9264 H   0  0  0  0  0  0
   -3.2152  -12.0612  -16.9853 H   0  0  0  0  0  0
   -1.5552  -13.3301  -18.3795 H   0  0  0  0  0  0
   -2.6547   -9.7401  -16.2675 H   0  0  0  0  0  0
   -2.9141   -9.8937  -18.0383 H   0  0  0  0  0  0
   -1.2465   -9.7689  -17.3823 H   0  0  0  0  0  0
   -3.0521  -13.5754  -14.7977 H   0  0  0  0  0  0
   -1.9104  -16.1022  -15.9901 H   0  0  0  0  0  0
   -0.4911  -15.8419  -14.0187 H   0  0  0  0  0  0
   -1.6244  -17.2174  -13.7943 H   0  0  0  0  0  0
   -1.9405  -15.6504  -12.9749 H   0  0  0  0  0  0
   -3.4278  -17.9407  -15.7107 H   0  0  0  0  0  0
   -6.2048  -16.9190  -15.1627 H   0  0  0  0  0  0
   -5.9208  -18.4983  -17.0048 H   0  0  0  0  0  0
   -5.0757  -19.6719  -15.9393 H   0  0  0  0  0  0
   -7.1899  -20.0628  -14.7216 H   0  0  0  0  0  0
   -8.0245  -18.9237  -15.8317 H   0  0  0  0  0  0
   -7.3830  -20.3350  -17.7812 H   0  0  0  0  0  0
   -6.5123  -21.4638  -16.6883 H   0  0  0  0  0  0
   -8.5148  -22.6094  -16.3035 H   0  0  0  0  0  0
  -10.7133  -22.9378  -16.3797 H   0  0  0  0  0  0
   -9.1458  -19.1494  -17.3098 H   0  0  0  0  0  0
  -11.0276  -19.4460  -17.3347 H   0  0  0  0  0  0
   -7.3692  -17.0999  -13.3626 H   0  0  0  0  0  0
   -6.0155  -18.6662  -11.0424 H   0  0  0  0  0  0
   -6.4878  -16.3746  -10.4032 H   0  0  0  0  0  0
   -8.1367  -16.4474  -11.1121 H   0  0  0  0  0  0
   -8.9395  -17.8465   -9.3516 H   0  0  0  0  0  0
   -7.2779  -18.1950   -8.7648 H   0  0  0  0  0  0
   -8.4409  -16.6296   -7.2723 H   0  0  0  0  0  0
   -7.0354  -15.8352   -8.0597 H   0  0  0  0  0  0
   -8.4867  -14.6908   -9.6390 H   0  0  0  0  0  0
   -9.9181  -15.6108   -9.0632 H   0  0  0  0  0  0
  -10.7623  -13.3236   -9.0379 H   0  0  0  0  0  0
  -10.8788  -12.8530   -7.3083 H   0  0  0  0  0  0
  -11.3137  -14.5200   -7.8168 H   0  0  0  0  0  0
   -8.5490  -12.5667   -9.0605 H   0  0  0  0  0  0
   -7.3573  -13.1776   -7.8633 H   0  0  0  0  0  0
   -8.7036  -12.1154   -7.3287 H   0  0  0  0  0  0
   -9.7031  -15.4521   -6.2341 H   0  0  0  0  0  0
   -9.3640  -13.7685   -5.7076 H   0  0  0  0  0  0
   -8.0177  -14.8307   -6.2423 H   0  0  0  0  0  0
   -6.6739  -20.7059  -10.9550 H   0  0  0  0  0  0
   -9.0936  -21.7734  -11.8702 H   0  0  0  0  0  0
   -7.8061  -22.3781   -9.1232 H   0  0  0  0  0  0
   -8.8247  -23.5154  -10.0696 H   0  0  0  0  0  0
   -6.3695  -23.9841  -10.4441 H   0  0  0  0  0  0
  -11.8761  -21.4976  -16.8310 H   0  0  0  0  0  0
  1  2  1  0  0  0
  1 61  1  0  0  0
  1 62  1  0  0  0
  1 63  1  0  0  0
  2  3  1  0  0  0
  2  5  1  0  0  0
  2 64  1  0  0  0
  3  4  2  0  0  0
  3 10  1  0  0  0
  5  6  1  0  0  0
  5 65  1  0  0  0
  5 66  1  0  0  0
  6  7  1  0  0  0
  6 67  1  0  0  0
  6 68  1  0  0  0
  7  8  1  0  0  0
  7 69  1  0  0  0
  7 70  1  0  0  0
  8  9  1  0  0  0
  8 71  1  0  0  0
  8 72  1  0  0  0
  9 73  1  0  0  0
  9 74  1  0  0  0
  9 75  1  0  0  0
 10 11  1  0  0  0
 10 76  1  0  0  0
 11 12  1  0  0  0
 11 14  1  0  0  0
 11 77  1  0  0  0
 12 13  2  0  0  0
 12 19  1  0  0  0
 14 15  1  0  0  0
 14 78  1  0  0  0
 14 79  1  0  0  0
 15 16  1  0  0  0
 15 80  1  0  0  0
 15 81  1  0  0  0
 16 17  2  0  0  0
 16 18  1  0  0  0
 18 82  1  0  0  0
 18 83  1  0  0  0
 19 20  1  0  0  0
 19 84  1  0  0  0
 20 21  1  0  0  0
 20 23  1  0  0  0
 20 85  1  0  0  0
 21 22  2  0  0  0
 21 26  1  0  0  0
 23 24  1  0  0  0
 23 25  1  0  0  0
 23 86  1  0  0  0
 24 87  1  0  0  0
 25 88  1  0  0  0
 25 89  1  0  0  0
 25 90  1  0  0  0
 26 27  1  0  0  0
 26 91  1  0  0  0
 27 28  1  0  0  0
 27 30  1  0  0  0
 27 92  1  0  0  0
 28 29  2  0  0  0
 28 31  1  0  0  0
 30 93  1  0  0  0
 30 94  1  0  0  0
 30 95  1  0  0  0
 31 32  1  0  0  0
 31 96  1  0  0  0
 32 33  1  0  0  0
 32 35  1  0  0  0
 32 97  1  0  0  0
 33 34  2  0  0  0
 33 42  1  0  0  0
 35 36  1  0  0  0
 35 98  1  0  0  0
 35 99  1  0  0  0
 36 37  1  0  0  0
 36100  1  0  0  0
 36101  1  0  0  0
 37 38  1  0  0  0
 37102  1  0  0  0
 37103  1  0  0  0
 38 39  1  0  0  0
 38104  1  0  0  0
 39 40  2  0  0  0
 39 41  1  0  0  0
 40105  1  0  0  0
 40132  1  0  0  0
 41106  1  0  0  0
 41107  1  0  0  0
 42 43  1  0  0  0
 42108  1  0  0  0
 43 44  1  0  0  0
 43 49  1  0  0  0
 43109  1  0  0  0
 44 45  1  0  0  0
 44110  1  0  0  0
 44111  1  0  0  0
 45 46  1  0  0  0
 45112  1  0  0  0
 45113  1  0  0  0
 46 47  1  0  0  0
 46114  1  0  0  0
 46115  1  0  0  0
 47 48  1  0  0  0
 47116  1  0  0  0
 47117  1  0  0  0
 48 51  1  0  0  0
 48 52  1  0  0  0
 48 53  1  0  0  0
 49 50  2  0  0  0
 49 54  1  0  0  0
 51118  1  0  0  0
 51119  1  0  0  0
 51120  1  0  0  0
 52121  1  0  0  0
 52122  1  0  0  0
 52123  1  0  0  0
 53124  1  0  0  0
 53125  1  0  0  0
 53126  1  0  0  0
 54 55  1  0  0  0
 54127  1  0  0  0
 55 56  1  0  0  0
 55 58  1  0  0  0
 55128  1  0  0  0
 56 57  2  0  0  0
 56 60  1  0  0  0
 58 59  1  0  0  0
 58129  1  0  0  0
 58130  1  0  0  0
 59131  1  0  0  0
M  CHG  5   1   1   9   1  40   1  48   1  60  -1
M  END
> <s_m_source_file>
../3g7l_ligand.sdf

> <i_m_source_file_index>
1

> <s_epik_input>
W05IMytdW0NIMl1bQ0gyXVtDSDJdW0NIMl1bQ0BIXShbTkgzK10pQyg9TylbTkhdW0NAQEhdKFtDSDJdW0NIMl1DKD1PKVtOSDJdKUMoPU8pW05IXVtDQEBIXShbQ0BIXShbT0hdKVtDSDNdKUMoPU8pW05IXVtDQEBIXShbQ0gzXSlDKD1PKVtOSF1bQ0BASF0oW0NIMl1bQ0gyXVtDSDJdW05IXS9DKD1OXFtIXSlbTkgyXSlDKD1PKVtOSF1bQ0BIXShDKD1PKVtOSF1bQ0BIXShDKD1PKVtPSF0pW0NIMl1bT0hdKVtDSDJdW0NIMl1bQ0gyXVtDSDJdW04rXShbQ0gzXSkoW0NIM10pW0NIM10=

> <s_epik_cmdline>
J2VwaWtfYXBwJywgJy1pbWFlJywgJ2xpZ2FuZF9wcm8ubWFlJywgJy1vbWFlJywgJ2xpZ2FuZF9wcmVwLm1hZScsICctbXMnLCAnMScsICctcGgnLCAnNycsICctcGh0JywgJzAuNScsICctbnQn

> <r_epik_Ionization_Penalty>
  0.1255

> <r_epik_Ionization_Penalty_Charging>
  0.1255

> <r_epik_Ionization_Penalty_Neutral>
  0.0000

> <r_epik_State_Penalty>
  0.1144

> <r_epik_Charging_Adjusted_Penalty>
0.23988634880828

> <i_epik_Tot_Q>
3

> <i_epik_Tot_abs_Q>
5

> <s_epik_Chemistry_Notes>
This compound has an imine and may undergo hydrolysis.

$$$$
