3g86_ligand
                    3D
 Schrodinger Suite 2020-3.
 55 59  0  0  1  0            999 V2000
   -9.0130    9.9200  -16.2850 C   0  0  0  0  0  0
   -9.7650    9.0210  -17.0540 C   0  0  0  0  0  0
   -8.8250    9.7360  -14.9250 C   0  0  0  0  0  0
  -10.3490    7.9360  -16.4060 C   0  0  0  0  0  0
   -9.3920    8.6270  -14.2840 C   0  0  0  0  0  0
  -10.1480    7.7330  -15.0510 C   0  0  0  0  0  0
  -10.8310    6.2830  -14.3010 S   0  0  0  0  0  0
  -10.7810    6.6650  -12.5730 C   0  0  0  0  0  0
   -9.9380    7.6060  -12.0930 C   0  0  0  0  0  0
   -9.1820    8.4290  -12.9150 N   0  0  0  0  0  0
   -9.9580    9.2510  -18.4400 N   0  5  0  0  0  0
  -10.3320    8.1130  -19.5940 S   0  0  0  0  0  0
  -12.1510    8.0910  -19.5850 C   0  0  0  0  0  0
   -9.8450    8.6690  -20.8110 O   0  0  0  0  0  0
   -9.7540    6.8770  -19.1720 O   0  0  0  0  0  0
  -12.1800    6.1680  -14.7510 O   0  0  0  0  0  0
   -9.9050    5.2190  -14.6000 O   0  0  0  0  0  0
  -12.0850    7.2630   -6.3170 C   0  0  0  0  0  0
  -11.5330    8.4550   -5.8400 C   0  0  0  0  0  0
  -10.7030    9.1990   -6.6570 C   0  0  0  0  0  0
  -11.8080    6.8000   -7.5770 C   0  0  0  0  0  0
  -10.9040    7.5040   -8.3840 C   0  0  0  0  0  0
  -10.3720    8.7320   -7.9390 C   0  0  0  0  0  0
   -9.5820    9.4850   -8.7900 N   0  0  0  0  0  0
   -9.4890    9.1620  -10.1190 C   0  0  0  0  0  0
  -10.0500    7.9340  -10.6460 C   0  0  0  0  0  0
  -10.7040    7.0600   -9.7580 C   0  0  0  0  0  0
  -12.8920    6.5400   -5.5510 F   0  0  0  0  0  0
  -11.2180    5.8580  -10.1090 O   0  0  0  0  0  0
   -8.9690   10.7110   -8.2510 C   0  0  0  0  0  0
   -8.8330    9.9070  -10.8560 O   0  5  0  0  0  0
   -7.6580   10.2440   -7.6600 C   0  0  0  0  0  0
   -6.6770    9.7180   -8.5010 C   0  0  0  0  0  0
   -5.2310    9.3290   -6.6300 C   0  0  0  0  0  0
   -6.1920    9.8560   -5.7620 C   0  0  0  0  0  0
   -5.4660    9.2720   -8.0000 C   0  0  0  0  0  0
   -7.4070   10.3190   -6.2850 C   0  0  0  0  0  0
   -4.0450    8.8740   -6.1550 F   0  0  0  0  0  0
   -8.5643   10.7868  -16.7701 H   0  0  0  0  0  0
   -8.2362   10.4538  -14.3539 H   0  0  0  0  0  0
  -10.9699    7.2401  -16.9702 H   0  0  0  0  0  0
  -11.4492    6.1238  -11.8870 H   0  0  0  0  0  0
   -8.3588    8.9496  -12.4039 H   0  0  0  0  0  0
  -12.5311    9.0678  -19.9186 H   0  0  0  0  0  0
  -12.5102    7.8864  -18.5656 H   0  0  0  0  0  0
  -12.5115    7.3054  -20.2654 H   0  0  0  0  0  0
  -11.7559    8.7961   -4.8290 H   0  0  0  0  0  0
  -10.3044   10.1506   -6.3053 H   0  0  0  0  0  0
  -12.2861    5.8933   -7.9477 H   0  0  0  0  0  0
   -8.8191   11.4347   -9.0657 H   0  0  0  0  0  0
   -9.6317   11.1481   -7.4896 H   0  0  0  0  0  0
   -6.8676    9.6571   -9.5725 H   0  0  0  0  0  0
   -5.9984    9.9062   -4.6905 H   0  0  0  0  0  0
   -4.7035    8.8797   -8.6729 H   0  0  0  0  0  0
   -8.1598   10.7393   -5.6181 H   0  0  0  0  0  0
  1  2  2  0  0  0
  1  3  1  0  0  0
  1 39  1  0  0  0
  2  4  1  0  0  0
  2 11  1  0  0  0
  3  5  2  0  0  0
  3 40  1  0  0  0
  4  6  2  0  0  0
  4 41  1  0  0  0
  5  6  1  0  0  0
  5 10  1  0  0  0
  6  7  1  0  0  0
  7  8  1  0  0  0
  7 16  2  0  0  0
  7 17  2  0  0  0
  8  9  2  0  0  0
  8 42  1  0  0  0
  9 10  1  0  0  0
  9 26  1  0  0  0
 10 43  1  0  0  0
 11 12  1  0  0  0
 12 13  1  0  0  0
 12 14  2  0  0  0
 12 15  2  0  0  0
 13 44  1  0  0  0
 13 45  1  0  0  0
 13 46  1  0  0  0
 18 19  2  0  0  0
 18 21  1  0  0  0
 18 28  1  0  0  0
 19 20  1  0  0  0
 19 47  1  0  0  0
 20 23  2  0  0  0
 20 48  1  0  0  0
 21 22  2  0  0  0
 21 49  1  0  0  0
 22 23  1  0  0  0
 22 27  1  0  0  0
 23 24  1  0  0  0
 24 25  1  0  0  0
 24 30  1  0  0  0
 25 26  2  0  0  0
 25 31  1  0  0  0
 26 27  1  0  0  0
 27 29  2  0  0  0
 30 32  1  0  0  0
 30 50  1  0  0  0
 30 51  1  0  0  0
 32 33  2  0  0  0
 32 37  1  0  0  0
 33 36  1  0  0  0
 33 52  1  0  0  0
 34 35  1  0  0  0
 34 36  2  0  0  0
 34 38  1  0  0  0
 35 37  2  0  0  0
 35 53  1  0  0  0
 36 54  1  0  0  0
 37 55  1  0  0  0
M  CHG  2  11  -1  31  -1
M  END
> <s_m_source_file>
../3g86_ligand.sdf

> <i_m_source_file_index>
1

> <s_epik_input>
W0NIM11TKD1PKSg9TylbTkhdYyhbY0hdW2NIXTEpW2NIXWMoYzEyKVMoPU8pKD1PKVtDSF09QyhbTkhdMiljKGMzW09IXSljKD1PKW4oYyhjMzQpW2NIXVtjSF1jKEYpW2NIXTQpW0NIMl1jNVtjSF1bY0hdYyhGKVtjSF1bY0hdNQ==

> <s_epik_cmdline>
J2VwaWtfYXBwJywgJy1pbWFlJywgJ2xpZ2FuZF9wcm8ubWFlJywgJy1vbWFlJywgJ2xpZ2FuZF9wcmVwLm1hZScsICctbXMnLCAnMScsICctcGgnLCAnNycsICctcGh0JywgJzAuNScsICctbnQn

> <r_lp_tautomer_probability>
1

> <r_epik_Ionization_Penalty>
  0.2012

> <r_epik_Ionization_Penalty_Charging>
  0.1819

> <r_epik_Ionization_Penalty_Neutral>
  0.0193

> <r_epik_State_Penalty>
 -0.0000

> <r_epik_Charging_Adjusted_Penalty>
0.181896021928557

> <i_epik_Tot_Q>
-2

> <i_epik_Tot_abs_Q>
2

$$$$
