3g8e_ligand
                    3D
 Schrodinger Suite 2020-3.
 77 80  0  0  1  0            999 V2000
   44.6400   -3.5970  -10.7760 C   0  0  0  0  0  0
   44.4400   -3.4380   -9.4100 C   0  0  0  0  0  0
   45.1820   -2.5030   -8.6970 C   0  0  0  0  0  0
   46.1250   -1.7310   -9.3630 C   0  0  0  0  0  0
   46.3260   -1.8940  -10.7280 C   0  0  0  0  0  0
   45.5840   -2.8250  -11.4410 C   0  0  0  0  0  0
   45.7900   -2.9590  -12.9520 C   0  0  0  0  0  0
   46.9000   -3.2330  -13.3990 O   0  0  0  0  0  0
   44.7810   -2.7740  -13.7920 N   0  0  0  0  0  0
   45.0280   -2.8730  -15.2500 C   0  0  0  0  0  0
   43.8380   -3.4910  -15.9930 C   0  0  0  0  0  0
   43.4610   -2.4200  -13.2200 C   0  0  0  0  0  0
   42.3230   -3.0650  -14.0070 C   0  0  0  0  0  0
   42.8080   -4.0970  -15.0380 C   0  0  0  0  0  0
   41.5910   -4.6250  -15.7990 C   0  0  0  0  0  0
   41.0340   -5.7060  -14.8710 C   0  0  0  0  0  0
   39.6080   -6.1050  -15.2360 C   0  0  0  0  0  0
   39.5820   -7.3920  -16.0590 C   0  0  0  0  0  0
   38.1660   -7.7270  -16.2270 N   0  0  0  0  0  0
   37.4670   -8.2690  -15.2300 C   0  0  0  0  0  0
   37.9360   -8.5840  -14.1450 O   0  0  0  0  0  0
   36.1280   -8.5150  -15.5180 C   0  0  0  0  0  0
   35.3510   -9.1820  -14.5880 C   0  0  0  0  0  0
   34.0150   -9.4190  -14.8960 C   0  0  0  0  0  0
   33.2120   -9.9920  -13.9310 C   0  0  0  0  0  0
   33.4480   -9.0140  -16.1010 C   0  0  0  0  0  0
   32.0950   -9.1830  -16.3740 C   0  0  0  0  0  0
   31.2810   -9.7460  -15.4000 C   0  0  0  0  0  0
   31.8480  -10.1240  -14.1860 N   0  0  0  0  0  0
   31.0100  -10.3370  -12.9910 C   0  0  2  0  0  0
   29.6040  -10.0600  -13.0730 O   0  0  0  0  0  0
   29.1930   -9.8840  -11.8200 C   0  0  2  0  0  0
   28.1080   -8.7500  -11.7390 C   0  0  0  0  0  0
   27.4220   -8.8430  -10.4830 O   0  0  0  0  0  0
   30.4280  -10.1450  -10.9090 C   0  0  1  0  0  0
   30.5370  -11.1930   -9.9940 O   0  0  0  0  0  0
   31.3710   -9.4110  -11.8460 C   0  0  1  0  0  0
   32.7460   -9.4970  -11.4470 O   0  0  0  0  0  0
   44.0532   -4.3311  -11.3282 H   0  0  0  0  0  0
   43.6983   -4.0489   -8.8954 H   0  0  0  0  0  0
   45.0251   -2.3771   -7.6257 H   0  0  0  0  0  0
   46.7099   -0.9941   -8.8125 H   0  0  0  0  0  0
   47.0711   -1.2869  -11.2421 H   0  0  0  0  0  0
   45.2053   -1.8681  -15.6609 H   0  0  0  0  0  0
   45.9109   -3.5039  -15.4303 H   0  0  0  0  0  0
   43.3348   -2.7152  -16.5888 H   0  0  0  0  0  0
   44.1963   -4.2899  -16.6589 H   0  0  0  0  0  0
   43.4072   -2.7692  -12.1783 H   0  0  0  0  0  0
   43.3302   -1.3282  -13.2479 H   0  0  0  0  0  0
   41.6446   -3.5827  -13.3129 H   0  0  0  0  0  0
   41.7671   -2.2876  -14.5516 H   0  0  0  0  0  0
   43.3118   -4.9292  -14.5245 H   0  0  0  0  0  0
   40.8770   -3.8045  -15.9632 H   0  0  0  0  0  0
   41.9130   -5.0305  -16.7695 H   0  0  0  0  0  0
   41.6655   -6.6045  -14.9342 H   0  0  0  0  0  0
   41.0288   -5.3336  -13.8360 H   0  0  0  0  0  0
   39.0259   -6.2669  -14.3168 H   0  0  0  0  0  0
   39.1429   -5.3029  -15.8280 H   0  0  0  0  0  0
   40.0692   -7.2165  -17.0295 H   0  0  0  0  0  0
   40.1189   -8.1846  -15.5172 H   0  0  0  0  0  0
   37.6647   -7.5317  -17.1865 H   0  0  0  0  0  0
   35.6857   -8.1867  -16.4702 H   0  0  0  0  0  0
   35.7930   -9.5094  -13.6354 H   0  0  0  0  0  0
   33.6511  -10.3344  -12.9824 H   0  0  0  0  0  0
   34.1059   -8.5475  -16.8490 H   0  0  0  0  0  0
   31.6874   -8.8727  -17.3474 H   0  0  0  0  0  0
   30.4899   -9.0325  -15.1260 H   0  0  0  0  0  0
   30.8245  -10.6672  -15.7912 H   0  0  0  0  0  0
   31.1684  -11.4208  -12.8900 H   0  0  0  0  0  0
   28.5309  -10.7066  -11.5120 H   0  0  0  0  0  0
   28.5971   -7.7681  -11.8208 H   0  0  0  0  0  0
   27.3888   -8.8711  -12.5624 H   0  0  0  0  0  0
   26.6211   -8.1294  -10.2396 H   0  0  0  0  0  0
   30.6394  -10.0838   -9.8312 H   0  0  0  0  0  0
   29.6517  -11.5284   -9.4338 H   0  0  0  0  0  0
   31.3266   -8.3184  -11.9655 H   0  0  0  0  0  0
   33.5248   -9.0043  -12.0476 H   0  0  0  0  0  0
  1  2  2  0  0  0
  1  6  1  0  0  0
  1 39  1  0  0  0
  2  3  1  0  0  0
  2 40  1  0  0  0
  3  4  2  0  0  0
  3 41  1  0  0  0
  4  5  1  0  0  0
  4 42  1  0  0  0
  5  6  2  0  0  0
  5 43  1  0  0  0
  6  7  1  0  0  0
  7  8  2  0  0  0
  7  9  1  0  0  0
  9 10  1  0  0  0
  9 12  1  0  0  0
 10 11  1  0  0  0
 10 44  1  0  0  0
 10 45  1  0  0  0
 11 14  1  0  0  0
 11 46  1  0  0  0
 11 47  1  0  0  0
 12 13  1  0  0  0
 12 48  1  0  0  0
 12 49  1  0  0  0
 13 14  1  0  0  0
 13 50  1  0  0  0
 13 51  1  0  0  0
 14 15  1  0  0  0
 14 52  1  0  0  0
 15 16  1  0  0  0
 15 53  1  0  0  0
 15 54  1  0  0  0
 16 17  1  0  0  0
 16 55  1  0  0  0
 16 56  1  0  0  0
 17 18  1  0  0  0
 17 57  1  0  0  0
 17 58  1  0  0  0
 18 19  1  0  0  0
 18 59  1  0  0  0
 18 60  1  0  0  0
 19 20  1  0  0  0
 19 61  1  0  0  0
 20 21  2  0  0  0
 20 22  1  0  0  0
 22 23  2  0  0  0
 22 62  1  0  0  0
 23 24  1  0  0  0
 23 63  1  0  0  0
 24 25  2  0  0  0
 24 26  1  0  0  0
 25 29  1  0  0  0
 25 64  1  0  0  0
 26 27  2  0  0  0
 26 65  1  0  0  0
 27 28  1  0  0  0
 27 66  1  0  0  0
 28 29  1  0  0  0
 28 67  1  0  0  0
 28 68  1  0  0  0
 29 30  1  0  0  0
 30 31  1  0  0  0
 30 37  1  0  0  0
 30 69  1  0  0  0
 31 32  1  0  0  0
 32 33  1  0  0  0
 32 35  1  0  0  0
 32 70  1  0  0  0
 33 34  1  0  0  0
 33 71  1  0  0  0
 33 72  1  0  0  0
 34 73  1  0  0  0
 35 36  1  0  0  0
 35 37  1  0  0  0
 35 74  1  0  0  0
 36 75  1  0  0  0
 37 38  1  0  0  0
 37 76  1  0  0  0
 38 77  1  0  0  0
M  END
> <s_m_source_file>
../3g8e_ligand.sdf

> <i_m_source_file_index>
1

> <s_epik_input>
W2NIXTFbY0hdW2NIXVtjSF1bY0hdYzFDKD1PKU4yW0NIMl1bQ0gyXVtDSF0oW0NIMl1bQ0gyXTIpW0NIMl1bQ0gyXVtDSDJdW0NIMl1bTkhdQyg9TykvW0NIXT1bQ0hdL0MzPVtDSF1OKFtDSDJdW0NIXT1bQ0hdMylbQ0BASF00T1tDQEhdKFtDSDJdW09IXSlbQ0BASF0oW09IXSlbQ0BIXTRbT0hd

> <s_epik_cmdline>
J2VwaWtfYXBwJywgJy1pbWFlJywgJ2xpZ2FuZF9wcm8ubWFlJywgJy1vbWFlJywgJ2xpZ2FuZF9wcmVwLm1hZScsICctbXMnLCAnMScsICctcGgnLCAnNycsICctcGh0JywgJzAuNScsICctbnQn

> <r_lp_tautomer_probability>
1

> <r_epik_Ionization_Penalty>
  0.0000

> <r_epik_Ionization_Penalty_Charging>
  0.0000

> <r_epik_Ionization_Penalty_Neutral>
  0.0000

> <r_epik_State_Penalty>
 -0.0000

> <r_epik_Charging_Adjusted_Penalty>
0

> <i_epik_Tot_Q>
0

> <i_epik_Tot_abs_Q>
0

> <s_epik_Chemistry_Notes>
This compound contains an acetal/aminal-like group ( X-CH(R)-Y where X, Y are N, S, or O) that may be acid/base labile, releasing an aldehyde.

$$$$
