3g8o_ligand
                    3D
 Schrodinger Suite 2020-3.
 40 40  0  0  1  0            999 V2000
   -3.9950   -7.4150   26.4570 C   0  0  0  0  0  0
   -3.7480   -9.8240   29.3570 C   0  0  0  0  0  0
   -2.1880   -9.4800   27.3460 C   0  0  0  0  0  0
   -1.9400   -8.7520   26.1500 C   0  0  0  0  0  0
   -1.1540  -10.5800   27.7410 C   0  0  0  0  0  0
   -3.7970   -5.2590   20.6200 C   0  0  0  0  0  0
   -4.8770   -6.6730   22.4470 C   0  0  0  0  0  0
   -2.0080   -4.6930   25.2740 C   0  0  0  0  0  0
   -2.9840   -5.5600   24.4390 C   0  0  2  0  0  0
   -2.5310   -6.9980   24.4150 N   0  0  0  0  0  0
   -1.0750   -7.1030   24.0600 C   0  0  0  0  0  0
   -0.8690   -8.0270   22.8410 C   0  0  0  0  0  0
   -1.6980   -7.6830   21.8710 F   0  0  0  0  0  0
    0.3860   -7.9070   22.4100 F   0  0  0  0  0  0
   -1.1090   -9.2930   23.1740 F   0  0  0  0  0  0
   -2.8250   -7.7150   25.6830 C   0  0  0  0  0  0
   -4.2650   -8.1240   27.6570 C   0  0  0  0  0  0
   -3.3900   -9.1510   28.1190 C   0  0  0  0  0  0
   -4.0370  -10.3590   30.3370 N   0  0  0  0  0  0
   -0.7140  -11.1890   26.6510 F   0  0  0  0  0  0
   -1.6750  -11.5230   28.5170 F   0  0  0  0  0  0
   -0.1210  -10.0170   28.3500 F   0  0  0  0  0  0
   -3.0460   -5.0620   22.9740 C   0  0  0  0  0  0
   -2.3330   -4.1130   22.6290 O   0  0  0  0  0  0
   -3.8770   -5.6470   22.0510 N   0  0  0  0  0  0
   -4.6813   -6.6375   26.1215 H   0  0  0  0  0  0
   -1.0498   -8.9864   25.5663 H   0  0  0  0  0  0
   -4.5367   -5.8330   20.0426 H   0  0  0  0  0  0
   -2.7878   -5.4726   20.2381 H   0  0  0  0  0  0
   -4.0073   -4.1840   20.5193 H   0  0  0  0  0  0
   -5.4325   -7.0059   21.5579 H   0  0  0  0  0  0
   -5.5775   -6.2400   23.1762 H   0  0  0  0  0  0
   -4.3609   -7.5323   22.9000 H   0  0  0  0  0  0
   -1.9807   -5.0650   26.3088 H   0  0  0  0  0  0
   -2.3502   -3.6476   25.2690 H   0  0  0  0  0  0
   -1.0003   -4.7510   24.8368 H   0  0  0  0  0  0
   -3.9751   -5.5071   24.9132 H   0  0  0  0  0  0
   -0.6842   -6.1042   23.8159 H   0  0  0  0  0  0
   -0.5182   -7.5159   24.9141 H   0  0  0  0  0  0
   -5.1561   -7.8793   28.2350 H   0  0  0  0  0  0
  1 16  2  0  0  0
  1 17  1  0  0  0
  1 26  1  0  0  0
  2 18  1  0  0  0
  2 19  3  0  0  0
  3  4  2  0  0  0
  3  5  1  0  0  0
  3 18  1  0  0  0
  4 16  1  0  0  0
  4 27  1  0  0  0
  5 20  1  0  0  0
  5 21  1  0  0  0
  5 22  1  0  0  0
  6 25  1  0  0  0
  6 28  1  0  0  0
  6 29  1  0  0  0
  6 30  1  0  0  0
  7 25  1  0  0  0
  7 31  1  0  0  0
  7 32  1  0  0  0
  7 33  1  0  0  0
  8  9  1  0  0  0
  8 34  1  0  0  0
  8 35  1  0  0  0
  8 36  1  0  0  0
  9 10  1  0  0  0
  9 23  1  0  0  0
  9 37  1  0  0  0
 10 11  1  0  0  0
 10 16  1  0  0  0
 11 12  1  0  0  0
 11 38  1  0  0  0
 11 39  1  0  0  0
 12 13  1  0  0  0
 12 14  1  0  0  0
 12 15  1  0  0  0
 17 18  2  0  0  0
 17 40  1  0  0  0
 23 24  2  0  0  0
 23 25  1  0  0  0
M  END
> <s_m_source_file>
../3g8o_ligand.sdf

> <i_m_source_file_index>
1

> <s_epik_input>
TiNDYzFbY0hdW2NIXWMoW2NIXWMxQyhGKShGKUYpTihbQ0gyXUMoRikoRilGKVtDQEBIXShbQ0gzXSlDKD1PKU4oW0NIM10pW0NIM10=

> <s_epik_cmdline>
J2VwaWtfYXBwJywgJy1pbWFlJywgJ2xpZ2FuZF9wcm8ubWFlJywgJy1vbWFlJywgJ2xpZ2FuZF9wcmVwLm1hZScsICctbXMnLCAnMScsICctcGgnLCAnNycsICctcGh0JywgJzAuNScsICctbnQn

> <r_lp_tautomer_probability>
1

> <r_epik_Ionization_Penalty>
  0.0000

> <r_epik_Ionization_Penalty_Charging>
  0.0000

> <r_epik_Ionization_Penalty_Neutral>
  0.0000

> <r_epik_State_Penalty>
 -0.0000

> <r_epik_Charging_Adjusted_Penalty>
0

> <i_epik_Tot_Q>
0

> <i_epik_Tot_abs_Q>
0

$$$$
