3g9e_ligand
                    3D
 Schrodinger Suite 2020-3.
 53 56  0  0  1  0            999 V2000
    8.6760   27.4020   16.8050 C   0  0  0  0  0  0
    8.0010   26.0540   16.6370 C   0  0  0  0  0  0
    7.7850   25.6650   15.3460 O   0  0  0  0  0  0
    7.2280   24.4250   15.4530 C   0  0  0  0  0  0
    6.8410   23.5540   14.2800 C   0  0  0  0  0  0
    6.1470   22.3510   14.5440 C   0  0  0  0  0  0
    5.7850   21.5090   13.4830 C   0  0  0  0  0  0
    6.1150   21.8640   12.1420 C   0  0  0  0  0  0
    6.8080   23.0710   11.8810 C   0  0  0  0  0  0
    7.1610   23.9060   12.9700 C   0  0  0  0  0  0
    7.0920   24.0920   16.7170 N   0  0  0  0  0  0
    7.5200   25.0790   17.4540 C   0  0  0  0  0  0
    7.3280   24.8050   18.9150 C   0  0  0  0  0  0
    7.3100   25.9360   19.7640 C   0  0  0  0  0  0
    6.4130   26.9610   19.3420 O   0  0  0  0  0  0
    5.1160   27.2920   19.7290 C   0  0  0  0  0  0
    4.0430   26.4380   20.0400 C   0  0  0  0  0  0
    2.7830   26.9990   20.3740 C   0  0  0  0  0  0
    4.9770   28.6840   19.7630 C   0  0  0  0  0  0
    6.0040   29.6560   19.5620 C   0  0  0  0  0  0
    5.5570   30.9400   19.6120 C   0  0  0  0  0  0
    3.7380   29.2420   20.0230 C   0  0  0  0  0  0
    3.8430   30.9980   19.8180 S   0  0  0  0  0  0
    2.6360   28.3910   20.4070 C   0  0  0  0  0  0
    1.3790   29.0180   20.8410 C   0  0  0  0  0  0
    0.4490   29.2260   19.6160 C   0  0  2  0  0  0
    0.9730   30.2260   18.7800 O   0  0  0  0  0  0
    0.5930   30.0560   17.4000 C   0  0  0  0  0  0
   -0.9340   29.5870   20.0830 C   0  0  0  0  0  0
   -1.3170   30.7370   19.9340 O   0  0  0  0  0  0
   -1.6310   28.7040   20.6010 O   0  5  0  0  0  0
    8.8842   27.8337   15.8149 H   0  0  0  0  0  0
    9.6200   27.2733   17.3548 H   0  0  0  0  0  0
    8.0133   28.0764   17.3671 H   0  0  0  0  0  0
    5.8942   22.0790   15.5688 H   0  0  0  0  0  0
    5.2500   20.5808   13.6837 H   0  0  0  0  0  0
    5.8342   21.2071   11.3188 H   0  0  0  0  0  0
    7.0654   23.3529   10.8600 H   0  0  0  0  0  0
    7.6916   24.8390   12.7800 H   0  0  0  0  0  0
    6.3661   24.2940   19.0689 H   0  0  0  0  0  0
    8.1454   24.1650   19.2786 H   0  0  0  0  0  0
    7.0028   25.6306   20.7751 H   0  0  0  0  0  0
    8.3156   26.3800   19.8048 H   0  0  0  0  0  0
    4.1776   25.3565   20.0247 H   0  0  0  0  0  0
    1.9366   26.3515   20.6030 H   0  0  0  0  0  0
    7.0472   29.3939   19.3853 H   0  0  0  0  0  0
    6.1975   31.8183   19.5324 H   0  0  0  0  0  0
    0.8783   28.3672   21.5730 H   0  0  0  0  0  0
    1.5958   29.9919   21.3041 H   0  0  0  0  0  0
    0.3947   28.3439   18.9611 H   0  0  0  0  0  0
    1.0309   30.8650   16.7968 H   0  0  0  0  0  0
   -0.5033   30.0874   17.3150 H   0  0  0  0  0  0
    0.9614   29.0859   17.0351 H   0  0  0  0  0  0
  1  2  1  0  0  0
  1 32  1  0  0  0
  1 33  1  0  0  0
  1 34  1  0  0  0
  2  3  1  0  0  0
  2 12  2  0  0  0
  3  4  1  0  0  0
  4  5  1  0  0  0
  4 11  2  0  0  0
  5  6  2  0  0  0
  5 10  1  0  0  0
  6  7  1  0  0  0
  6 35  1  0  0  0
  7  8  2  0  0  0
  7 36  1  0  0  0
  8  9  1  0  0  0
  8 37  1  0  0  0
  9 10  2  0  0  0
  9 38  1  0  0  0
 10 39  1  0  0  0
 11 12  1  0  0  0
 12 13  1  0  0  0
 13 14  1  0  0  0
 13 40  1  0  0  0
 13 41  1  0  0  0
 14 15  1  0  0  0
 14 42  1  0  0  0
 14 43  1  0  0  0
 15 16  1  0  0  0
 16 17  1  0  0  0
 16 19  2  0  0  0
 17 18  2  0  0  0
 17 44  1  0  0  0
 18 24  1  0  0  0
 18 45  1  0  0  0
 19 20  1  0  0  0
 19 22  1  0  0  0
 20 21  2  0  0  0
 20 46  1  0  0  0
 21 23  1  0  0  0
 21 47  1  0  0  0
 22 23  1  0  0  0
 22 24  2  0  0  0
 24 25  1  0  0  0
 25 26  1  0  0  0
 25 48  1  0  0  0
 25 49  1  0  0  0
 26 27  1  0  0  0
 26 29  1  0  0  0
 26 50  1  0  0  0
 27 28  1  0  0  0
 28 51  1  0  0  0
 28 52  1  0  0  0
 28 53  1  0  0  0
 29 30  2  0  0  0
 29 31  1  0  0  0
M  CHG  1  31  -1
M  END
> <s_m_source_file>
../3g9e_ligand.sdf

> <i_m_source_file_index>
1

> <s_epik_input>
W2NIXTFbY0hdW2NIXVtjSF1bY0hdYzEtYyhvYzJbQ0gzXSluYzJbQ0gyXVtDSDJdT2MzW2NIXVtjSF1jKGMoYzM0KXNbY0hdW2NIXTQpW0NIMl1bQ0BIXShPW0NIM10pQyg9TylbT0hd

> <s_epik_cmdline>
J2VwaWtfYXBwJywgJy1pbWFlJywgJ2xpZ2FuZF9wcm8ubWFlJywgJy1vbWFlJywgJ2xpZ2FuZF9wcmVwLm1hZScsICctbXMnLCAnMScsICctcGgnLCAnNycsICctcGh0JywgJzAuNScsICctbnQn

> <r_lp_tautomer_probability>
1

> <r_epik_Ionization_Penalty>
  0.0005

> <r_epik_Ionization_Penalty_Charging>
  0.0005

> <r_epik_Ionization_Penalty_Neutral>
  0.0000

> <r_epik_State_Penalty>
 -0.0000

> <r_epik_Charging_Adjusted_Penalty>
0.000510450574060504

> <i_epik_Tot_Q>
-1

> <i_epik_Tot_abs_Q>
1

$$$$
