3g9l_ligand
                    3D
 Schrodinger Suite 2020-3.
 51 55  0  0  1  0            999 V2000
   17.9830    6.2560   33.0480 O   0  0  0  0  0  0
   18.7530    7.4310   32.9490 N   0  0  0  0  0  0
   19.7720    7.3550   32.1670 C   0  0  0  0  0  0
   20.2170    6.1770   31.3870 C   0  0  0  0  0  0
   19.6450    5.1050   31.3070 O   0  0  0  0  0  0
   21.3730    6.4990   30.7980 N   0  0  0  0  0  0
   22.0690    5.5860   29.8960 C   0  0  0  0  0  0
   23.0050    4.6740   30.6320 C   0  0  0  0  0  0
   22.5260    3.7480   31.5350 C   0  0  0  0  0  0
   23.4250    2.9250   32.1940 C   0  0  0  0  0  0
   22.9570    2.0100   33.0750 F   0  0  0  0  0  0
   24.7930    3.0290   31.9410 C   0  0  0  0  0  0
   25.2620    3.9650   31.0260 C   0  0  0  0  0  0
   26.7330    4.1040   30.7210 C   0  0  0  0  0  0
   26.8710    4.6480   29.3900 O   0  0  0  0  0  0
   26.1800    5.8900   29.1980 C   0  0  0  0  0  0
   24.7740    5.7130   29.4570 O   0  0  0  0  0  0
   24.3620    4.7820   30.3650 C   0  0  0  0  0  0
   21.7240    7.8280   31.0670 C   0  0  0  0  0  0
   22.7800    8.6270   30.6390 C   0  0  0  0  0  0
   22.8600    9.9510   31.0300 C   0  0  0  0  0  0
   21.8970   10.5100   31.8590 C   0  0  0  0  0  0
   20.8110    9.7330   32.2940 C   0  0  0  0  0  0
   19.7460   10.2870   33.1510 C   0  0  0  0  0  0
   19.6210   11.6220   33.2210 C   0  0  0  0  0  0
   18.5870   12.2930   34.0320 C   0  0  0  0  0  0
   18.1490   11.7400   35.2520 C   0  0  0  0  0  0
   17.1780   12.3910   35.9940 C   0  0  0  0  0  0
   16.6360   13.5860   35.5310 C   0  0  0  0  0  0
   17.0570   14.1440   34.3230 C   0  0  0  0  0  0
   18.0310   13.5050   33.5700 C   0  0  0  0  0  0
   20.7400    8.4020   31.8820 C   0  0  0  0  0  0
   17.0938    6.2340   33.6952 H   0  0  0  0  0  0
   21.3335    4.9657   29.3629 H   0  0  0  0  0  0
   22.6558    6.1658   29.1683 H   0  0  0  0  0  0
   21.4563    3.6649   31.7273 H   0  0  0  0  0  0
   25.4944    2.3763   32.4608 H   0  0  0  0  0  0
   27.1973    4.7795   31.4545 H   0  0  0  0  0  0
   27.2139    3.1163   30.7764 H   0  0  0  0  0  0
   26.5842    6.6450   29.8884 H   0  0  0  0  0  0
   26.3182    6.2300   28.1610 H   0  0  0  0  0  0
   23.5492    8.2064   29.9913 H   0  0  0  0  0  0
   23.6911   10.5645   30.6823 H   0  0  0  0  0  0
   21.9836   11.5505   32.1719 H   0  0  0  0  0  0
   19.0648    9.6401   33.7233 H   0  0  0  0  0  0
   20.3089   12.2691   32.6570 H   0  0  0  0  0  0
   18.5735   10.8023   35.6106 H   0  0  0  0  0  0
   16.8387   11.9680   36.9395 H   0  0  0  0  0  0
   15.8720   14.0934   36.1200 H   0  0  0  0  0  0
   16.6215   15.0796   33.9722 H   0  0  0  0  0  0
   18.3651   13.9367   32.6265 H   0  0  0  0  0  0
  1  2  1  0  0  0
  1 33  1  0  0  0
  2  3  2  0  0  0
  3  4  1  0  0  0
  3 32  1  0  0  0
  4  5  2  0  0  0
  4  6  1  0  0  0
  6  7  1  0  0  0
  6 19  1  0  0  0
  7  8  1  0  0  0
  7 34  1  0  0  0
  7 35  1  0  0  0
  8  9  2  0  0  0
  8 18  1  0  0  0
  9 10  1  0  0  0
  9 36  1  0  0  0
 10 11  1  0  0  0
 10 12  2  0  0  0
 12 13  1  0  0  0
 12 37  1  0  0  0
 13 14  1  0  0  0
 13 18  2  0  0  0
 14 15  1  0  0  0
 14 38  1  0  0  0
 14 39  1  0  0  0
 15 16  1  0  0  0
 16 17  1  0  0  0
 16 40  1  0  0  0
 16 41  1  0  0  0
 17 18  1  0  0  0
 19 20  2  0  0  0
 19 32  1  0  0  0
 20 21  1  0  0  0
 20 42  1  0  0  0
 21 22  2  0  0  0
 21 43  1  0  0  0
 22 23  1  0  0  0
 22 44  1  0  0  0
 23 24  1  0  0  0
 23 32  2  0  0  0
 24 25  2  0  0  0
 24 45  1  0  0  0
 25 26  1  0  0  0
 25 46  1  0  0  0
 26 27  2  0  0  0
 26 31  1  0  0  0
 27 28  1  0  0  0
 27 47  1  0  0  0
 28 29  2  0  0  0
 28 48  1  0  0  0
 29 30  1  0  0  0
 29 49  1  0  0  0
 30 31  2  0  0  0
 30 50  1  0  0  0
 31 51  1  0  0  0
M  END
> <s_m_source_file>
../3g9l_ligand.sdf

> <i_m_source_file_index>
1

> <s_epik_input>
W0NIMl0xT1tDSDJdT2MoYzEyKWMoW2NIXWMoRilbY0hdMilbQ0gyXU4zQyg9TykvQyg9TlxbT0hdKWMoYzM0KWMoW2NIXVtjSF1bY0hdNCkvW0NIXT1bQ0hdL2M1W2NIXVtjSF1bY0hdW2NIXVtjSF01

> <s_epik_cmdline>
J2VwaWtfYXBwJywgJy1pbWFlJywgJ2xpZ2FuZF9wcm8ubWFlJywgJy1vbWFlJywgJ2xpZ2FuZF9wcmVwLm1hZScsICctbXMnLCAnMScsICctcGgnLCAnNycsICctcGh0JywgJzAuNScsICctbnQn

> <r_lp_tautomer_probability>
1

> <r_epik_Ionization_Penalty>
  0.0018

> <r_epik_Ionization_Penalty_Charging>
  0.0000

> <r_epik_Ionization_Penalty_Neutral>
  0.0018

> <r_epik_State_Penalty>
 -0.0000

> <r_epik_Charging_Adjusted_Penalty>
0

> <i_epik_Tot_Q>
0

> <i_epik_Tot_abs_Q>
0

> <s_epik_Chemistry_Notes>
This compound has an imine and may undergo hydrolysis. This compound contains an acetal/aminal-like group ( X-CH(R)-Y where X, Y are N, S, or O) that may be acid/base labile, releasing an aldehyde.

$$$$
