3ga5_ligand
                    3D
 Schrodinger Suite 2020-3.
 35 35  0  0  1  0            999 V2000
   -1.0070   -5.2180   -2.9310 O   0  0  0  0  0  0
   -0.1820   -4.1040   -2.5580 C   0  0  0  0  0  0
    0.6030   -4.4910   -1.3140 C   0  0  1  0  0  0
    1.7300   -3.6070   -1.2030 O   0  0  0  0  0  0
   -0.3480   -4.3050   -0.1340 C   0  0  0  0  0  0
    0.3390   -4.5460    1.0790 O   0  0  0  0  0  0
   -0.4170   -4.3050    2.2670 C   0  0  1  0  0  0
    0.3820   -4.8360    3.4550 C   0  0  2  0  0  0
    0.3440   -6.2730    3.4080 O   0  0  0  0  0  0
   -0.1860   -4.3900    4.7930 C   0  0  1  0  0  0
    0.7310   -4.7370    5.8490 O   0  0  0  0  0  0
   -0.4470   -2.8860    4.7920 C   0  0  1  0  0  0
    0.7970   -2.1780    4.7100 O   0  0  0  0  0  0
   -1.3330   -2.5080    3.6090 C   0  0  2  0  0  0
   -0.6890   -2.8980    2.3870 O   0  0  0  0  0  0
   -1.5660   -0.9960    3.5910 C   0  0  0  0  0  0
   -2.0770   -0.5720    2.3160 O   0  0  0  0  0  0
   -1.6609   -5.1472   -3.8127 H   0  0  0  0  0  0
    0.5072   -3.8662   -3.3817 H   0  0  0  0  0  0
   -0.8176   -3.2311   -2.3481 H   0  0  0  0  0  0
    1.0270   -5.5055   -1.3467 H   0  0  0  0  0  0
    2.5131   -3.6145   -1.9755 H   0  0  0  0  0  0
   -0.7352   -3.2754   -0.1339 H   0  0  0  0  0  0
   -1.1861   -5.0118   -0.2235 H   0  0  0  0  0  0
   -1.3994   -4.7912    2.1751 H   0  0  0  0  0  0
    1.4249   -4.4946    3.3785 H   0  0  0  0  0  0
    0.7123   -6.8041    2.5179 H   0  0  0  0  0  0
   -1.1187   -4.9318    5.0087 H   0  0  0  0  0  0
    1.0307   -5.7853    5.9948 H   0  0  0  0  0  0
   -0.9108   -2.5728    5.7390 H   0  0  0  0  0  0
    1.5658   -2.3256    5.4827 H   0  0  0  0  0  0
   -2.2865   -3.0549    3.6509 H   0  0  0  0  0  0
   -2.2938   -0.7279    4.3710 H   0  0  0  0  0  0
   -0.6156   -0.4762    3.7821 H   0  0  0  0  0  0
   -2.2987    0.4906    2.1381 H   0  0  0  0  0  0
  1  2  1  0  0  0
  1 18  1  0  0  0
  2  3  1  0  0  0
  2 19  1  0  0  0
  2 20  1  0  0  0
  3  4  1  0  0  0
  3  5  1  0  0  0
  3 21  1  0  0  0
  4 22  1  0  0  0
  5  6  1  0  0  0
  5 23  1  0  0  0
  5 24  1  0  0  0
  6  7  1  0  0  0
  7  8  1  0  0  0
  7 15  1  0  0  0
  7 25  1  0  0  0
  8  9  1  0  0  0
  8 10  1  0  0  0
  8 26  1  0  0  0
  9 27  1  0  0  0
 10 11  1  0  0  0
 10 12  1  0  0  0
 10 28  1  0  0  0
 11 29  1  0  0  0
 12 13  1  0  0  0
 12 14  1  0  0  0
 12 30  1  0  0  0
 13 31  1  0  0  0
 14 15  1  0  0  0
 14 16  1  0  0  0
 14 32  1  0  0  0
 16 17  1  0  0  0
 16 33  1  0  0  0
 16 34  1  0  0  0
 17 35  1  0  0  0
M  END
> <s_m_source_file>
../3ga5_ligand.sdf

> <i_m_source_file_index>
1

> <s_epik_input>
W09IXVtDSDJdW0NAQEhdKFtPSF0pW0NIMl1PW0NASF0xW0NASF0oW09IXSlbQ0BASF0oW09IXSlbQ0BASF0oW09IXSlbQ0BIXShPMSlbQ0gyXVtPSF0=

> <s_epik_cmdline>
J2VwaWtfYXBwJywgJy1pbWFlJywgJ2xpZ2FuZF9wcm8ubWFlJywgJy1vbWFlJywgJ2xpZ2FuZF9wcmVwLm1hZScsICctbXMnLCAnMScsICctcGgnLCAnNycsICctcGh0JywgJzAuNScsICctbnQn

> <r_lp_tautomer_probability>
1

> <r_epik_Ionization_Penalty>
  0.0000

> <r_epik_Ionization_Penalty_Charging>
  0.0000

> <r_epik_Ionization_Penalty_Neutral>
  0.0000

> <r_epik_State_Penalty>
 -0.0000

> <r_epik_Charging_Adjusted_Penalty>
0

> <i_epik_Tot_Q>
0

> <i_epik_Tot_abs_Q>
0

> <s_epik_Chemistry_Notes>
This compound contains an acetal/aminal-like group ( X-CH(R)-Y where X, Y are N, S, or O) that may be acid/base labile, releasing an aldehyde.

$$$$
