3gb2_ligand
                    3D
 Schrodinger Suite 2020-3.
 39 42  0  0  1  0            999 V2000
   25.2600   15.3140    4.4490 O   0  0  0  0  0  0
   26.5780   14.6940    4.7990 S   0  0  1  0  0  0
   26.7030   13.0690    4.0250 C   0  0  0  0  0  0
   27.8280   15.8350    4.1750 C   0  0  0  0  0  0
   27.4840   16.7070    3.1400 C   0  0  0  0  0  0
   29.1080   15.8460    4.7080 C   0  0  0  0  0  0
   30.0420   16.7360    4.2050 C   0  0  0  0  0  0
   29.6960   17.5970    3.1690 C   0  0  0  0  0  0
   28.4170   17.5990    2.6300 C   0  0  0  0  0  0
   30.7110   18.5390    2.6470 C   0  0  0  0  0  0
   32.0350   18.1740    2.0450 C   0  0  0  0  0  0
   32.6450   19.4440    1.7090 C   0  0  0  0  0  0
   31.7880   20.4900    2.0660 O   0  0  0  0  0  0
   30.5670   19.9290    2.6610 C   0  0  0  0  0  0
   33.8830   19.5230    1.1300 C   0  0  0  0  0  0
   32.6880   16.9870    1.7830 C   0  0  0  0  0  0
   33.9400   17.0860    1.2030 C   0  0  0  0  0  0
   34.5070   18.3150    0.8760 C   0  0  0  0  0  0
   34.6890   15.8600    0.8600 C   0  0  0  0  0  0
   34.4080   14.5910    1.2630 O   0  0  0  0  0  0
   35.3360   13.7940    0.6560 C   0  0  0  0  0  0
   35.2290   12.3230    0.9530 C   0  0  0  0  0  0
   36.1750   14.5050   -0.1110 N   0  0  0  0  0  0
   35.7450   15.8300    0.0230 N   0  0  0  0  0  0
   24.3234   14.8071    4.7241 H   0  0  0  0  0  0
   25.9248   12.4075    4.4335 H   0  0  0  0  0  0
   27.6945   12.6398    4.2315 H   0  0  0  0  0  0
   26.5659   13.1690    2.9382 H   0  0  0  0  0  0
   26.4745   16.6870    2.7293 H   0  0  0  0  0  0
   29.3758   15.1622    5.5134 H   0  0  0  0  0  0
   31.0491   16.7618    4.6213 H   0  0  0  0  0  0
   28.1516   18.2847    1.8254 H   0  0  0  0  0  0
   29.7127   20.4896    3.0405 H   0  0  0  0  0  0
   34.3478   20.4779    0.8846 H   0  0  0  0  0  0
   32.2407   16.0218    2.0206 H   0  0  0  0  0  0
   35.4867   18.3256    0.3983 H   0  0  0  0  0  0
   34.3900   12.1483    1.6426 H   0  0  0  0  0  0
   36.1634   11.9736    1.4164 H   0  0  0  0  0  0
   35.0553   11.7717    0.0171 H   0  0  0  0  0  0
  1  2  1  0  0  0
  1 25  1  0  0  0
  2  3  1  0  0  0
  2  4  1  0  0  0
  3 26  1  0  0  0
  3 27  1  0  0  0
  3 28  1  0  0  0
  4  5  2  0  0  0
  4  6  1  0  0  0
  5  9  1  0  0  0
  5 29  1  0  0  0
  6  7  2  0  0  0
  6 30  1  0  0  0
  7  8  1  0  0  0
  7 31  1  0  0  0
  8  9  2  0  0  0
  8 10  1  0  0  0
  9 32  1  0  0  0
 10 11  1  0  0  0
 10 14  2  0  0  0
 11 12  2  0  0  0
 11 16  1  0  0  0
 12 13  1  0  0  0
 12 15  1  0  0  0
 13 14  1  0  0  0
 14 33  1  0  0  0
 15 18  2  0  0  0
 15 34  1  0  0  0
 16 17  2  0  0  0
 16 35  1  0  0  0
 17 18  1  0  0  0
 17 19  1  0  0  0
 18 36  1  0  0  0
 19 20  1  0  0  0
 19 24  2  0  0  0
 20 21  1  0  0  0
 21 22  1  0  0  0
 21 23  2  0  0  0
 22 37  1  0  0  0
 22 38  1  0  0  0
 22 39  1  0  0  0
 23 24  1  0  0  0
M  END
> <s_m_source_file>
../3gb2_ligand.sdf

> <i_m_source_file_index>
1

> <s_epik_input>
W09IXVtTQEBIXShbQ0gzXSljMVtjSF1bY0hdYyhbY0hdW2NIXTEpLWMyW2NIXW9jKGMyMylbY0hdW2NIXWMoW2NIXTMpLWM0b2MoW0NIM10pbm40

> <s_epik_cmdline>
J2VwaWtfYXBwJywgJy1pbWFlJywgJ2xpZ2FuZF9wcm8ubWFlJywgJy1vbWFlJywgJ2xpZ2FuZF9wcmVwLm1hZScsICctbXMnLCAnMScsICctcGgnLCAnNycsICctcGh0JywgJzAuNScsICctbnQn

> <r_lp_tautomer_probability>
1

> <r_epik_Ionization_Penalty>
  0.0000

> <r_epik_Ionization_Penalty_Charging>
  0.0000

> <r_epik_Ionization_Penalty_Neutral>
  0.0000

> <r_epik_State_Penalty>
 -0.0000

> <r_epik_Charging_Adjusted_Penalty>
0

> <i_epik_Tot_Q>
0

> <i_epik_Tot_abs_Q>
0

$$$$
