3gba_ligand
                    3D
 Schrodinger Suite 2020-3.
 41 42  0  0  1  0            999 V2000
  -12.9450   56.4700   50.2300 C   0  0  0  0  0  0
  -13.8240   55.3500   49.8840 N   0  3  0  0  0  0
  -14.9600   55.2470   50.8370 C   0  0  2  0  0  0
  -15.7400   53.9760   50.5360 C   0  0  2  0  0  0
  -16.0210   53.8550   49.1380 O   0  0  0  0  0  0
  -17.0530   53.9740   51.2990 C   0  0  0  0  0  0
  -17.8540   55.0610   50.8870 O   0  0  0  0  0  0
  -17.2750   56.3240   51.2770 C   0  0  2  0  0  0
  -18.0060   57.4090   50.5200 C   0  0  0  0  0  0
  -15.8580   56.4880   50.7490 C   0  0  2  0  0  0
  -16.0140   56.8060   49.3470 O   0  0  0  0  0  0
  -17.2830   57.4320   49.1600 C   0  0  1  0  0  0
  -18.1120   56.6590   48.1350 C   0  0  0  0  0  0
  -17.7430   55.5050   47.8190 O   0  5  0  0  0  0
  -19.1060   57.2420   47.6900 O   0  0  0  0  0  0
  -17.0880   58.8910   48.7430 C   0  0  0  0  0  0
  -16.4560   59.0990   47.3520 C   0  0  1  0  0  0
  -16.7420   60.5240   46.9100 C   0  0  0  0  0  0
  -17.9360   60.8930   46.9840 O   0  0  0  0  0  0
  -15.7810   61.2340   46.5310 O   0  5  0  0  0  0
  -15.0090   58.8300   47.3170 N   0  3  0  0  0  0
  -12.1156   56.5213   49.5093 H   0  0  0  0  0  0
  -12.5422   56.3207   51.2426 H   0  0  0  0  0  0
  -13.5174   57.4088   50.1978 H   0  0  0  0  0  0
  -14.2268   55.4993   48.8714 H   0  0  0  0  0  0
  -13.2517   54.4112   49.9162 H   0  0  0  0  0  0
  -14.5486   55.1916   51.8557 H   0  0  0  0  0  0
  -15.1209   53.1029   50.7900 H   0  0  0  0  0  0
  -15.1959   53.8371   48.4107 H   0  0  0  0  0  0
  -17.5900   53.0344   51.1022 H   0  0  0  0  0  0
  -16.8510   54.0620   52.3767 H   0  0  0  0  0  0
  -17.3451   56.3332   52.3747 H   0  0  0  0  0  0
  -19.0687   57.1402   50.4288 H   0  0  0  0  0  0
  -17.9139   58.3610   51.0634 H   0  0  0  0  0  0
  -15.3635   57.2843   51.3248 H   0  0  0  0  0  0
  -18.0630   59.3999   48.7225 H   0  0  0  0  0  0
  -16.4272   59.3935   49.4647 H   0  0  0  0  0  0
  -16.8660   58.3642   46.6435 H   0  0  0  0  0  0
  -14.8205   57.7954   47.6395 H   0  0  0  0  0  0
  -14.4904   59.5252   47.9935 H   0  0  0  0  0  0
  -14.6350   58.9684   46.2918 H   0  0  0  0  0  0
  1  2  1  0  0  0
  1 22  1  0  0  0
  1 23  1  0  0  0
  1 24  1  0  0  0
  2  3  1  0  0  0
  2 25  1  0  0  0
  2 26  1  0  0  0
  3  4  1  0  0  0
  3 10  1  0  0  0
  3 27  1  0  0  0
  4  5  1  0  0  0
  4  6  1  0  0  0
  4 28  1  0  0  0
  5 29  1  0  0  0
  6  7  1  0  0  0
  6 30  1  0  0  0
  6 31  1  0  0  0
  7  8  1  0  0  0
  8  9  1  0  0  0
  8 10  1  0  0  0
  8 32  1  0  0  0
  9 12  1  0  0  0
  9 33  1  0  0  0
  9 34  1  0  0  0
 10 11  1  0  0  0
 10 35  1  0  0  0
 11 12  1  0  0  0
 12 13  1  0  0  0
 12 16  1  0  0  0
 13 14  1  0  0  0
 13 15  2  0  0  0
 16 17  1  0  0  0
 16 36  1  0  0  0
 16 37  1  0  0  0
 17 18  1  0  0  0
 17 21  1  0  0  0
 17 38  1  0  0  0
 18 19  2  0  0  0
 18 20  1  0  0  0
 21 39  1  0  0  0
 21 40  1  0  0  0
 21 41  1  0  0  0
M  CHG  4   2   1  14  -1  20  -1  21   1
M  END
> <s_m_source_file>
../3gba_ligand.sdf

> <i_m_source_file_index>
1

> <s_epik_input>
TzFbQ0gyXVtDQEBIXShbT0hdKVtDQEBIXShbTkgyK11bQ0gzXSlbQ0BIXShbQ0BIXTEyKU9bQ0BdKFtDSDJdMikoQyg9TylbT0hdKVtDSDJdW0NASF0oW05IMytdKUMoPU8pW09IXQ==

> <s_epik_cmdline>
J2VwaWtfYXBwJywgJy1pbWFlJywgJ2xpZ2FuZF9wcm8ubWFlJywgJy1vbWFlJywgJ2xpZ2FuZF9wcmVwLm1hZScsICctbXMnLCAnMScsICctcGgnLCAnNycsICctcGh0JywgJzAuNScsICctbnQn

> <r_epik_Ionization_Penalty>
  0.0417

> <r_epik_Ionization_Penalty_Charging>
  0.0417

> <r_epik_Ionization_Penalty_Neutral>
  0.0000

> <r_epik_State_Penalty>
  0.0334

> <r_epik_Charging_Adjusted_Penalty>
0.0751102856091588

> <i_epik_Tot_Q>
0

> <i_epik_Tot_abs_Q>
4

$$$$
