3gbq_ligand
                    3D
 Schrodinger Suite 2020-3.
180184  0  0  1  0            999 V2000
   -7.6340  -14.3060   -9.7660 C   0  0  0  0  0  0
   -8.2170  -13.3920  -10.3250 O   0  0  0  0  0  0
   -6.1800  -14.6350  -10.0970 C   0  0  0  0  0  0
   -8.1320  -15.0440   -8.7580 N   0  0  0  0  0  0
   -9.2130  -14.5910   -7.8880 C   0  0  2  0  0  0
   -8.5520  -14.0210   -6.6190 C   0  0  0  0  0  0
   -8.0320  -14.7740   -5.8010 O   0  0  0  0  0  0
  -10.1340  -15.7890   -7.5640 C   0  0  0  0  0  0
  -10.9910  -15.6600   -6.2790 C   0  0  0  0  0  0
  -11.0270  -16.1290   -8.7550 C   0  0  0  0  0  0
   -8.5050  -12.6590   -6.5190 N   0  0  0  0  0  0
   -7.9590  -12.0510   -5.3310 C   0  0  2  0  0  0
   -8.8330  -12.2400   -4.0790 C   0  0  0  0  0  0
  -10.0250  -12.5140   -4.1570 O   0  0  0  0  0  0
   -7.7930  -10.5680   -5.6380 C   0  0  0  0  0  0
   -8.2410  -10.3430   -7.0780 C   0  0  0  0  0  0
   -8.7580  -11.6850   -7.5930 C   0  0  0  0  0  0
   -8.1480  -12.0610   -2.9160 N   0  0  0  0  0  0
   -8.7880  -12.1580   -1.6030 C   0  0  2  0  0  0
  -10.0350  -11.2770   -1.3640 C   0  0  0  0  0  0
  -10.2360  -10.2570   -2.0080 O   0  0  0  0  0  0
   -7.7140  -11.5640   -0.6610 C   0  0  0  0  0  0
   -6.3650  -11.7430   -1.3590 C   0  0  0  0  0  0
   -6.6890  -11.8350   -2.8470 C   0  0  0  0  0  0
  -10.8440  -11.6840   -0.3380 N   0  0  0  0  0  0
  -11.9950  -10.8830    0.0920 C   0  0  2  0  0  0
  -11.3920   -9.6890    0.8470 C   0  0  0  0  0  0
  -10.6280   -9.8470    1.7920 O   0  0  0  0  0  0
  -12.7810  -11.8030    1.0360 C   0  0  0  0  0  0
  -11.7870  -12.8770    1.4950 C   0  0  0  0  0  0
  -10.6860  -12.9230    0.4300 C   0  0  0  0  0  0
  -11.7640   -8.5020    0.3520 N   0  0  0  0  0  0
  -11.2470   -7.2560    0.8960 C   0  0  2  0  0  0
  -11.8080   -7.0960    2.3120 C   0  0  0  0  0  0
  -12.9240   -7.5270    2.5800 O   0  0  0  0  0  0
  -11.6540   -6.1110   -0.0230 C   0  0  0  0  0  0
  -10.8570   -4.8200    0.1890 C   0  0  0  0  0  0
  -11.5470   -6.4080   -1.5120 C   0  0  0  0  0  0
  -10.9940   -6.5430    3.2450 N   0  0  0  0  0  0
  -11.5040   -6.3530    4.5790 C   0  0  2  0  0  0
  -12.6620   -5.3820    4.6450 C   0  0  0  0  0  0
  -12.7970   -4.4890    3.8170 O   0  0  0  0  0  0
  -10.3560   -5.6850    5.3280 C   0  0  0  0  0  0
   -9.0820   -5.9670    4.5510 C   0  0  0  0  0  0
   -9.5600   -6.2580    3.1370 C   0  0  0  0  0  0
  -13.4660   -5.5370    5.7240 N   0  0  0  0  0  0
  -14.5320   -4.5770    5.9140 C   0  0  2  0  0  0
  -13.8200   -3.2780    6.3210 C   0  0  0  0  0  0
  -13.2570   -3.2080    7.4070 O   0  0  0  0  0  0
  -15.3080   -5.1100    7.1300 C   0  0  0  0  0  0
  -14.3900   -6.1360    7.8220 C   0  0  0  0  0  0
  -13.3560   -6.5540    6.7720 C   0  0  0  0  0  0
  -13.8370   -2.2780    5.4010 N   0  0  0  0  0  0
  -13.2250   -1.0130    5.8110 C   0  0  2  0  0  0
  -14.3040   -0.4290    6.6720 C   0  0  0  0  0  0
  -15.4830   -0.6890    6.4650 O   0  0  0  0  0  0
  -12.7760    0.0440    4.7760 C   0  0  0  0  0  0
  -13.3070   -0.0060    3.3450 C   0  0  0  0  0  0
  -14.8160   -0.0400    3.1610 C   0  0  0  0  0  0
  -15.4130    1.2830    3.0410 N   0  0  0  0  0  0
  -16.7240    1.3460    2.7640 C   0  0  0  0  0  0
  -17.4420    0.2160    2.7310 N   0  0  0  0  0  0
  -17.3380    2.4880    2.5250 N   0  0  0  0  0  0
  -13.7850    0.3420    7.6290 N   0  0  0  0  0  0
  -14.5090    1.0090    8.6470 C   0  0  2  0  0  0
  -14.3110    0.1310    9.8450 C   0  0  0  0  0  0
  -14.8520   -0.9650    9.9180 O   0  0  0  0  0  0
  -16.0300    0.9170    8.6130 C   0  0  0  0  0  0
  -16.8110    1.6090    7.5560 C   0  0  0  0  0  0
  -18.2660    1.2950    7.8840 C   0  0  0  0  0  0
  -18.8180    2.4780    8.4740 N   0  0  0  0  0  0
  -20.0840    2.4690    8.9310 C   0  0  0  0  0  0
  -20.5910    1.4230    9.5920 N   0  0  0  0  0  0
  -20.7860    3.5580    8.6940 N   0  0  0  0  0  0
  -13.5140    0.6250   10.7740 N   0  0  0  0  0  0
  -13.5760   -0.2000   11.9890 C   0  0  2  0  0  0
  -14.9240    0.0880   12.6850 C   0  0  0  0  0  0
  -15.7360   -0.7620   13.0720 O   0  0  0  0  0  0
  -12.4360    0.1200   12.9080 C   0  0  0  0  0  0
  -11.4460   -1.0310   12.8630 C   0  0  0  0  0  0
  -10.1860   -0.6720   12.0670 C   0  0  0  0  0  0
   -9.0910   -1.0140   12.9510 N   0  0  0  0  0  0
   -8.9840   -0.3490   14.1170 C   0  0  0  0  0  0
   -9.3520    0.9210   14.2340 N   0  0  0  0  0  0
   -8.5120   -1.0130   15.1580 N   0  0  0  0  0  0
  -15.0550    1.4360   12.5650 N   0  0  0  0  0  0
   -5.8394  -13.9974  -10.9261 H   0  0  0  0  0  0
   -6.1010  -15.6920  -10.3910 H   0  0  0  0  0  0
   -5.5523  -14.4525   -9.2123 H   0  0  0  0  0  0
   -7.6819  -16.0360   -8.6050 H   0  0  0  0  0  0
   -9.8002  -13.8178   -8.4051 H   0  0  0  0  0  0
   -9.4375  -16.6182   -7.3708 H   0  0  0  0  0  0
  -10.3397  -15.4152   -5.4270 H   0  0  0  0  0  0
  -11.5063  -16.6122   -6.0849 H   0  0  0  0  0  0
  -11.7351  -14.8611   -6.4132 H   0  0  0  0  0  0
  -10.4106  -16.2185   -9.6617 H   0  0  0  0  0  0
  -11.7712  -15.3311   -8.8948 H   0  0  0  0  0  0
  -11.5424  -17.0823   -8.5664 H   0  0  0  0  0  0
   -7.0076  -12.5715   -5.1466 H   0  0  0  0  0  0
   -8.4134   -9.9788   -4.9467 H   0  0  0  0  0  0
   -6.7373  -10.2842   -5.5159 H   0  0  0  0  0  0
   -9.0362   -9.5832   -7.1001 H   0  0  0  0  0  0
   -7.3865   -9.9970   -7.6781 H   0  0  0  0  0  0
   -8.2216  -11.9942   -8.5022 H   0  0  0  0  0  0
   -9.8372  -11.6408   -7.8012 H   0  0  0  0  0  0
   -9.1002  -13.2091   -1.5147 H   0  0  0  0  0  0
   -7.9260  -10.4984   -0.4890 H   0  0  0  0  0  0
   -7.7309  -12.1008    0.2990 H   0  0  0  0  0  0
   -5.7211  -10.8786   -1.1395 H   0  0  0  0  0  0
   -5.8824  -12.6617   -0.9942 H   0  0  0  0  0  0
   -6.1647  -12.6770   -3.3225 H   0  0  0  0  0  0
   -6.4371  -10.9022   -3.3729 H   0  0  0  0  0  0
  -12.6285  -10.5381   -0.7385 H   0  0  0  0  0  0
  -13.1585  -11.2182    1.8877 H   0  0  0  0  0  0
  -13.6277  -12.2484    0.4931 H   0  0  0  0  0  0
  -11.3763  -12.6006    2.4773 H   0  0  0  0  0  0
  -12.3033  -13.8452    1.5727 H   0  0  0  0  0  0
  -10.8065  -13.7873   -0.2396 H   0  0  0  0  0  0
   -9.6844  -12.9478    0.8841 H   0  0  0  0  0  0
  -12.4774   -8.4826   -0.4851 H   0  0  0  0  0  0
  -10.1484   -7.2996    0.9308 H   0  0  0  0  0  0
  -12.7087   -5.9895    0.2650 H   0  0  0  0  0  0
  -10.8890   -4.5397    1.2522 H   0  0  0  0  0  0
  -11.2972   -4.0138   -0.4162 H   0  0  0  0  0  0
   -9.8125   -4.9795   -0.1168 H   0  0  0  0  0  0
  -12.1004   -7.3303   -1.7426 H   0  0  0  0  0  0
  -10.4893   -6.5371   -1.7850 H   0  0  0  0  0  0
  -11.9740   -5.5713   -2.0844 H   0  0  0  0  0  0
  -11.8439   -7.3379    4.9318 H   0  0  0  0  0  0
  -10.5386   -4.6020    5.3884 H   0  0  0  0  0  0
  -10.2884   -6.1026    6.3434 H   0  0  0  0  0  0
   -8.4257   -5.0851    4.5904 H   0  0  0  0  0  0
   -8.5643   -6.8294    4.9962 H   0  0  0  0  0  0
   -9.0431   -7.1326    2.7152 H   0  0  0  0  0  0
   -9.4073   -5.3894    2.4795 H   0  0  0  0  0  0
  -15.1585   -4.4557    5.0180 H   0  0  0  0  0  0
  -15.5457   -4.2765    7.8073 H   0  0  0  0  0  0
  -16.2408   -5.5841    6.7907 H   0  0  0  0  0  0
  -13.9060   -5.6672    8.6914 H   0  0  0  0  0  0
  -14.9880   -6.9970    8.1553 H   0  0  0  0  0  0
  -13.5796   -7.5438    6.3473 H   0  0  0  0  0  0
  -12.3341   -6.5520    7.1791 H   0  0  0  0  0  0
  -14.2759   -2.3768    4.3972 H   0  0  0  0  0  0
  -12.2649   -1.3036    6.2624 H   0  0  0  0  0  0
  -13.0619    1.0462    5.1279 H   0  0  0  0  0  0
  -11.6839   -0.0038    4.6532 H   0  0  0  0  0  0
  -12.9656    0.8839    2.7959 H   0  0  0  0  0  0
  -12.9312   -0.9113    2.8459 H   0  0  0  0  0  0
  -15.0612   -0.5978    2.2452 H   0  0  0  0  0  0
  -15.2799   -0.5348    4.0270 H   0  0  0  0  0  0
  -14.7922    2.1809    3.1766 H   0  0  0  0  0  0
  -16.9552   -0.7508    2.9266 H   0  0  0  0  0  0
  -18.5185    0.2547    2.5083 H   0  0  0  0  0  0
  -16.7725    3.4313    2.5457 H   0  0  0  0  0  0
  -12.6902    0.4372    7.5801 H   0  0  0  0  0  0
  -14.1323    2.0384    8.5552 H   0  0  0  0  0  0
  -16.3314   -0.1357    8.5082 H   0  0  0  0  0  0
  -16.4430    1.3253    9.5472 H   0  0  0  0  0  0
  -16.6064    2.6890    7.5967 H   0  0  0  0  0  0
  -16.5204    1.2177    6.5699 H   0  0  0  0  0  0
  -18.8015    1.0314    6.9600 H   0  0  0  0  0  0
  -18.3093    0.4498    8.5867 H   0  0  0  0  0  0
  -18.2076    3.3898    8.5524 H   0  0  0  0  0  0
  -19.9713    0.5317    9.7694 H   0  0  0  0  0  0
  -21.6278    1.4539    9.9583 H   0  0  0  0  0  0
  -20.3317    4.3969    8.1464 H   0  0  0  0  0  0
  -12.8628    1.5110   10.7435 H   0  0  0  0  0  0
  -13.4686   -1.2544   11.6947 H   0  0  0  0  0  0
  -11.9483    1.0489   12.5775 H   0  0  0  0  0  0
  -12.8159    0.2497   13.9321 H   0  0  0  0  0  0
  -11.1426   -1.2939   13.8871 H   0  0  0  0  0  0
  -11.9180   -1.9022   12.3854 H   0  0  0  0  0  0
  -10.1610   -1.2578   11.1363 H   0  0  0  0  0  0
  -10.1986    0.4009   11.8247 H   0  0  0  0  0  0
   -8.3754   -1.7980   12.6624 H   0  0  0  0  0  0
   -9.7433    1.4630   13.3604 H   0  0  0  0  0  0
   -9.2656    1.4315   15.2045 H   0  0  0  0  0  0
   -8.2103   -2.0651   15.0485 H   0  0  0  0  0  0
  -14.2123    2.0399   12.1975 H   0  0  0  0  0  0
  -16.0037    1.9226   12.8354 H   0  0  0  0  0  0
  1  2  2  0  0  0
  1  3  1  0  0  0
  1  4  1  0  0  0
  3 87  1  0  0  0
  3 88  1  0  0  0
  3 89  1  0  0  0
  4  5  1  0  0  0
  4 90  1  0  0  0
  5  6  1  0  0  0
  5  8  1  0  0  0
  5 91  1  0  0  0
  6  7  2  0  0  0
  6 11  1  0  0  0
  8  9  1  0  0  0
  8 10  1  0  0  0
  8 92  1  0  0  0
  9 93  1  0  0  0
  9 94  1  0  0  0
  9 95  1  0  0  0
 10 96  1  0  0  0
 10 97  1  0  0  0
 10 98  1  0  0  0
 11 12  1  0  0  0
 11 17  1  0  0  0
 12 13  1  0  0  0
 12 15  1  0  0  0
 12 99  1  0  0  0
 13 14  2  0  0  0
 13 18  1  0  0  0
 15 16  1  0  0  0
 15100  1  0  0  0
 15101  1  0  0  0
 16 17  1  0  0  0
 16102  1  0  0  0
 16103  1  0  0  0
 17104  1  0  0  0
 17105  1  0  0  0
 18 19  1  0  0  0
 18 24  1  0  0  0
 19 20  1  0  0  0
 19 22  1  0  0  0
 19106  1  0  0  0
 20 21  2  0  0  0
 20 25  1  0  0  0
 22 23  1  0  0  0
 22107  1  0  0  0
 22108  1  0  0  0
 23 24  1  0  0  0
 23109  1  0  0  0
 23110  1  0  0  0
 24111  1  0  0  0
 24112  1  0  0  0
 25 26  1  0  0  0
 25 31  1  0  0  0
 26 27  1  0  0  0
 26 29  1  0  0  0
 26113  1  0  0  0
 27 28  2  0  0  0
 27 32  1  0  0  0
 29 30  1  0  0  0
 29114  1  0  0  0
 29115  1  0  0  0
 30 31  1  0  0  0
 30116  1  0  0  0
 30117  1  0  0  0
 31118  1  0  0  0
 31119  1  0  0  0
 32 33  1  0  0  0
 32120  1  0  0  0
 33 34  1  0  0  0
 33 36  1  0  0  0
 33121  1  0  0  0
 34 35  2  0  0  0
 34 39  1  0  0  0
 36 37  1  0  0  0
 36 38  1  0  0  0
 36122  1  0  0  0
 37123  1  0  0  0
 37124  1  0  0  0
 37125  1  0  0  0
 38126  1  0  0  0
 38127  1  0  0  0
 38128  1  0  0  0
 39 40  1  0  0  0
 39 45  1  0  0  0
 40 41  1  0  0  0
 40 43  1  0  0  0
 40129  1  0  0  0
 41 42  2  0  0  0
 41 46  1  0  0  0
 43 44  1  0  0  0
 43130  1  0  0  0
 43131  1  0  0  0
 44 45  1  0  0  0
 44132  1  0  0  0
 44133  1  0  0  0
 45134  1  0  0  0
 45135  1  0  0  0
 46 47  1  0  0  0
 46 52  1  0  0  0
 47 48  1  0  0  0
 47 50  1  0  0  0
 47136  1  0  0  0
 48 49  2  0  0  0
 48 53  1  0  0  0
 50 51  1  0  0  0
 50137  1  0  0  0
 50138  1  0  0  0
 51 52  1  0  0  0
 51139  1  0  0  0
 51140  1  0  0  0
 52141  1  0  0  0
 52142  1  0  0  0
 53 54  1  0  0  0
 53143  1  0  0  0
 54 55  1  0  0  0
 54 57  1  0  0  0
 54144  1  0  0  0
 55 56  2  0  0  0
 55 64  1  0  0  0
 57 58  1  0  0  0
 57145  1  0  0  0
 57146  1  0  0  0
 58 59  1  0  0  0
 58147  1  0  0  0
 58148  1  0  0  0
 59 60  1  0  0  0
 59149  1  0  0  0
 59150  1  0  0  0
 60 61  1  0  0  0
 60151  1  0  0  0
 61 62  1  0  0  0
 61 63  2  0  0  0
 62152  1  0  0  0
 62153  1  0  0  0
 63154  1  0  0  0
 64 65  1  0  0  0
 64155  1  0  0  0
 65 66  1  0  0  0
 65 68  1  0  0  0
 65156  1  0  0  0
 66 67  2  0  0  0
 66 75  1  0  0  0
 68 69  1  0  0  0
 68157  1  0  0  0
 68158  1  0  0  0
 69 70  1  0  0  0
 69159  1  0  0  0
 69160  1  0  0  0
 70 71  1  0  0  0
 70161  1  0  0  0
 70162  1  0  0  0
 71 72  1  0  0  0
 71163  1  0  0  0
 72 73  1  0  0  0
 72 74  2  0  0  0
 73164  1  0  0  0
 73165  1  0  0  0
 74166  1  0  0  0
 75 76  1  0  0  0
 75167  1  0  0  0
 76 77  1  0  0  0
 76 79  1  0  0  0
 76168  1  0  0  0
 77 78  2  0  0  0
 77 86  1  0  0  0
 79 80  1  0  0  0
 79169  1  0  0  0
 79170  1  0  0  0
 80 81  1  0  0  0
 80171  1  0  0  0
 80172  1  0  0  0
 81 82  1  0  0  0
 81173  1  0  0  0
 81174  1  0  0  0
 82 83  1  0  0  0
 82175  1  0  0  0
 83 84  1  0  0  0
 83 85  2  0  0  0
 84176  1  0  0  0
 84177  1  0  0  0
 85178  1  0  0  0
 86179  1  0  0  0
 86180  1  0  0  0
M  END
> <s_m_source_file>
../3gbq_ligand.sdf

> <i_m_source_file_index>
1

> <s_epik_input>
Tz1DKFtDSDNdKVtOSF1bQ0BASF0oW0NIXShbQ0gzXSlbQ0gzXSlDKD1PKU4xW0NAQEhdKFtDSDJdW0NIMl1bQ0gyXTEpQyg9TylOMltDQEBIXShbQ0gyXVtDSDJdW0NIMl0yKUMoPU8pTjNbQ0BASF0oW0NIMl1bQ0gyXVtDSDJdMylDKD1PKVtOSF1bQ0BASF0oW0NIXShbQ0gzXSlbQ0gzXSlDKD1PKU40W0NAQEhdKFtDSDJdW0NIMl1bQ0gyXTQpQyg9TylONVtDQEBIXShbQ0gyXVtDSDJdW0NIMl01KUMoPU8pW05IXVtDQEBIXShbQ0gyXVtDSDJdW0NIMl1bTkhdL0MoW05IMl0pPU5cW0hdKUMoPU8pW05IXVtDQEBIXShbQ0gyXVtDSDJdW0NIMl1bTkhdL0MoW05IMl0pPU5cW0hdKUMoPU8pW05IXVtDQEhdKEMoPU8pW05IMl0pW0NIMl1bQ0gyXVtDSDJdW05IXS9DKFtOSDJdKT1OXFtIXQ==

> <s_epik_cmdline>
J2VwaWtfYXBwJywgJy1pbWFlJywgJ2xpZ2FuZF9wcm8ubWFlJywgJy1vbWFlJywgJ2xpZ2FuZF9wcmVwLm1hZScsICctbXMnLCAnMScsICctcGgnLCAnNycsICctcGh0JywgJzAuNScsICctbnQn

> <s_epik_pKa_notes>
Molecule size exceeds maximum supported for generating protonation states

> <s_epik_Chemistry_Notes>
This compound has an imine and may undergo hydrolysis.

$$$$
