3gc7_ligand
                    3D
 Schrodinger Suite 2020-3.
 64 68  0  0  1  0            999 V2000
   26.7000   10.6920   33.0660 C   0  0  0  0  0  0
   17.9970   13.7020   30.2660 C   0  0  0  0  0  0
   16.6440   13.6790   30.0000 C   0  0  0  0  0  0
   25.6380   10.2580   33.8250 C   0  0  0  0  0  0
   26.4910   11.1720   31.7910 C   0  0  0  0  0  0
   20.5570   14.2810   32.1190 C   0  0  0  0  0  0
   22.6580   13.1610   32.1710 C   0  0  0  0  0  0
   16.2430   12.4860   32.0330 C   0  0  0  0  0  0
   18.4980   13.1210   31.4160 C   0  0  0  0  0  0
   19.9340   13.1320   31.6670 C   0  0  0  0  0  0
   21.9150   14.3100   32.3720 C   0  0  0  0  0  0
   20.7020   11.9930   31.4640 C   0  0  0  0  0  0
   22.0620   12.0010   31.7230 C   0  0  0  0  0  0
   24.1370   10.7870   32.0420 C   0  0  0  0  0  0
   15.7740   13.0700   30.8790 C   0  0  0  0  0  0
   24.3600   10.3100   33.3120 C   0  0  0  0  0  0
   25.2080   11.2100   31.2890 C   0  0  0  0  0  0
   17.5960   12.5240   32.2800 C   0  0  0  0  0  0
   22.2840    9.6250   31.0730 C   0  0  0  0  0  0
   20.0510   10.7410   30.9680 C   0  0  0  0  0  0
   23.2340   16.1420   31.5880 C   0  0  0  0  0  0
   21.7900   16.6160   33.5240 C   0  0  0  0  0  0
   24.1040   17.3380   31.8980 C   0  0  0  0  0  0
   22.6200   17.8770   33.7850 C   0  0  0  0  0  0
   22.6360   15.5490   32.8430 C   0  0  1  0  0  0
   23.2630   20.6440   33.5090 C   0  0  0  0  0  0
   23.9290   20.3170   31.2060 C   0  0  0  0  0  0
   23.9550   19.6850   32.5770 C   0  0  0  0  0  0
   20.9360    9.6190   30.7580 N   0  0  0  0  0  0
   22.8270   10.8250   31.5100 N   0  0  0  0  0  0
   23.2240   18.3720   32.5070 N   0  3  1  0  0  0
   22.9440    8.5980   30.9530 O   0  0  0  0  0  0
   14.4540   13.0350   30.6270 F   0  0  0  0  0  0
   23.0230    9.7770   34.2620 Cl  0  0  0  0  0  0
   24.9330   11.8040   29.7070 Cl  0  0  0  0  0  0
   18.1030   11.7680   33.7350 Cl  0  0  0  0  0  0
   27.7100   10.6562   33.4742 H   0  0  0  0  0  0
   18.6775   14.1826   29.5631 H   0  0  0  0  0  0
   16.2612   14.1440   29.0915 H   0  0  0  0  0  0
   25.8071    9.8735   34.8308 H   0  0  0  0  0  0
   27.3301   11.5173   31.1871 H   0  0  0  0  0  0
   19.9647   15.1820   32.2789 H   0  0  0  0  0  0
   23.7297   13.1725   32.3695 H   0  0  0  0  0  0
   15.5602   12.0055   32.7337 H   0  0  0  0  0  0
   19.2958   10.4076   31.6950 H   0  0  0  0  0  0
   19.5664   10.9382   30.0004 H   0  0  0  0  0  0
   22.4128   16.4484   30.9233 H   0  0  0  0  0  0
   23.8379   15.3680   31.0919 H   0  0  0  0  0  0
   21.4166   16.2186   34.4793 H   0  0  0  0  0  0
   20.9391   16.8653   32.8729 H   0  0  0  0  0  0
   24.8979   17.0419   32.5995 H   0  0  0  0  0  0
   24.5572   17.7126   30.9683 H   0  0  0  0  0  0
   21.9731   18.6613   34.2051 H   0  0  0  0  0  0
   23.4251   17.6450   34.4977 H   0  0  0  0  0  0
   23.3533   15.2374   33.6165 H   0  0  0  0  0  0
   23.8197   21.5923   33.5389 H   0  0  0  0  0  0
   23.2237   20.2098   34.5189 H   0  0  0  0  0  0
   22.2401   20.8304   33.1500 H   0  0  0  0  0  0
   24.4595   21.2801   31.2361 H   0  0  0  0  0  0
   22.8860   20.4824   30.8982 H   0  0  0  0  0  0
   24.4226   19.6489   30.4849 H   0  0  0  0  0  0
   24.9762   19.4891   32.9357 H   0  0  0  0  0  0
   20.5479    8.6863   30.3227 H   0  0  0  0  0  0
   22.3501   18.5594   31.8657 H   0  0  0  0  0  0
  1  4  2  0  0  0
  1  5  1  0  0  0
  1 37  1  0  0  0
  2  3  2  0  0  0
  2  9  1  0  0  0
  2 38  1  0  0  0
  3 15  1  0  0  0
  3 39  1  0  0  0
  4 16  1  0  0  0
  4 40  1  0  0  0
  5 17  2  0  0  0
  5 41  1  0  0  0
  6 10  2  0  0  0
  6 11  1  0  0  0
  6 42  1  0  0  0
  7 11  2  0  0  0
  7 13  1  0  0  0
  7 43  1  0  0  0
  8 15  2  0  0  0
  8 18  1  0  0  0
  8 44  1  0  0  0
  9 10  1  0  0  0
  9 18  2  0  0  0
 10 12  1  0  0  0
 11 25  1  0  0  0
 12 13  2  0  0  0
 12 20  1  0  0  0
 13 30  1  0  0  0
 14 16  2  0  0  0
 14 17  1  0  0  0
 14 30  1  0  0  0
 15 33  1  0  0  0
 16 34  1  0  0  0
 17 35  1  0  0  0
 18 36  1  0  0  0
 19 29  1  0  0  0
 19 30  1  0  0  0
 19 32  2  0  0  0
 20 29  1  0  0  0
 20 45  1  0  0  0
 20 46  1  0  0  0
 21 23  1  0  0  0
 21 25  1  0  0  0
 21 47  1  0  0  0
 21 48  1  0  0  0
 22 24  1  0  0  0
 22 25  1  0  0  0
 22 49  1  0  0  0
 22 50  1  0  0  0
 23 31  1  0  0  0
 23 51  1  0  0  0
 23 52  1  0  0  0
 24 31  1  0  0  0
 24 53  1  0  0  0
 24 54  1  0  0  0
 25 55  1  0  0  0
 26 28  1  0  0  0
 26 56  1  0  0  0
 26 57  1  0  0  0
 26 58  1  0  0  0
 27 28  1  0  0  0
 27 59  1  0  0  0
 27 60  1  0  0  0
 27 61  1  0  0  0
 28 31  1  0  0  0
 28 62  1  0  0  0
 29 63  1  0  0  0
 31 64  1  0  0  0
M  CHG  1  31   1
M  END
> <s_m_source_file>
../3gc7_ligand.sdf

> <i_m_source_file_index>
1

> <s_epik_input>
Q2xjMVtjSF1bY0hdW2NIXWMoQ2wpYzFOKEMoPU8pW05IXVtDSDJdMiljKGMyMylbY0hdYyhbQ0BIXTRbQ0gyXVtDSDJdW05AQEgrXShbQ0gyXVtDSDJdNClbQ0hdKFtDSDNdKVtDSDNdKVtjSF1jMy1jNVtjSF1bY0hdYyhGKVtjSF1jNUNs

> <s_epik_cmdline>
J2VwaWtfYXBwJywgJy1pbWFlJywgJ2xpZ2FuZF9wcm8ubWFlJywgJy1vbWFlJywgJ2xpZ2FuZF9wcmVwLm1hZScsICctbXMnLCAnMScsICctcGgnLCAnNycsICctcGh0JywgJzAuNScsICctbnQn

> <r_lp_tautomer_probability>
1

> <r_epik_Ionization_Penalty>
  0.0020

> <r_epik_Ionization_Penalty_Charging>
  0.0020

> <r_epik_Ionization_Penalty_Neutral>
  0.0000

> <r_epik_State_Penalty>
 -0.0000

> <r_epik_Charging_Adjusted_Penalty>
0.00198586579206749

> <i_epik_Tot_Q>
1

> <i_epik_Tot_abs_Q>
1

$$$$
