3gcp_ligand
                    3D
 Schrodinger Suite 2020-3.
 45 48  0  0  1  0            999 V2000
   19.3390    4.0460  -13.4130 O   0  0  0  0  0  0
   20.2060    1.9050  -12.0000 C   0  0  0  0  0  0
   20.5580    3.2320  -13.1370 S   0  0  1  0  0  0
   21.4260    2.7990  -17.0840 C   0  0  0  0  0  0
   21.0220    3.3170  -15.8530 C   0  0  0  0  0  0
   21.0720    2.5350  -14.7110 C   0  0  0  0  0  0
   21.5290    1.2260  -14.8150 C   0  0  0  0  0  0
   21.9370    0.7070  -16.0390 C   0  0  0  0  0  0
   21.9050    1.4960  -17.1810 C   0  0  0  0  0  0
   22.4740    1.5140  -24.6930 N   0  3  0  0  0  0
   22.4030    0.2610  -24.2660 C   0  0  0  0  0  0
   22.4440   -0.0750  -22.9160 C   0  0  0  0  0  0
   22.5770    0.9370  -21.9590 C   0  0  0  0  0  0
   22.6180    2.2640  -22.4340 C   0  0  0  0  0  0
   22.5780    2.5160  -23.8210 C   0  0  0  0  0  0
   22.1540    1.5120  -19.6180 N   0  3  0  0  0  0
   22.2950    0.9530  -18.4150 C   0  0  0  0  0  0
   22.8190   -0.2610  -18.5790 N   0  0  0  0  0  0
   23.0190   -0.4900  -19.8700 C   0  0  0  0  0  0
   22.5990    0.6720  -20.5620 C   0  0  0  0  0  0
   23.0390   -2.9120  -19.8660 C   0  0  0  0  0  0
   23.6090   -4.1200  -20.2720 C   0  0  0  0  0  0
   24.7380   -4.1050  -21.1080 C   0  0  0  0  0  0
   25.2770   -2.8960  -21.5390 C   0  0  0  0  0  0
   24.7130   -1.6920  -21.1400 C   0  0  0  0  0  0
   23.5770   -1.6900  -20.3240 C   0  0  0  0  0  0
   25.3210   -5.2670  -21.5230 F   0  0  0  0  0  0
   18.8354    4.5779  -12.5923 H   0  0  0  0  0  0
   19.8904    2.3245  -11.0333 H   0  0  0  0  0  0
   21.1101    1.2949  -11.8574 H   0  0  0  0  0  0
   19.4003    1.2769  -12.4077 H   0  0  0  0  0  0
   21.3659    3.4204  -17.9775 H   0  0  0  0  0  0
   20.6644    4.3447  -15.7897 H   0  0  0  0  0  0
   21.5680    0.5980  -13.9250 H   0  0  0  0  0  0
   22.2837   -0.3245  -16.1021 H   0  0  0  0  0  0
   22.3088   -0.5379  -25.0015 H   0  0  0  0  0  0
   22.3731   -1.1178  -22.6068 H   0  0  0  0  0  0
   22.6805    3.0939  -21.7301 H   0  0  0  0  0  0
   22.6328    3.5424  -24.1838 H   0  0  0  0  0  0
   22.1793   -2.9125  -19.1959 H   0  0  0  0  0  0
   23.1815   -5.0672  -19.9430 H   0  0  0  0  0  0
   26.1480   -2.8948  -22.1944 H   0  0  0  0  0  0
   25.1549   -0.7492  -21.4623 H   0  0  0  0  0  0
   22.4471    1.7300  -25.7713 H   0  0  0  0  0  0
   21.7236    2.5202  -19.7090 H   0  0  0  0  0  0
  1  3  1  0  0  0
  1 28  1  0  0  0
  2  3  1  0  0  0
  2 29  1  0  0  0
  2 30  1  0  0  0
  2 31  1  0  0  0
  3  6  1  0  0  0
  4  5  2  0  0  0
  4  9  1  0  0  0
  4 32  1  0  0  0
  5  6  1  0  0  0
  5 33  1  0  0  0
  6  7  2  0  0  0
  7  8  1  0  0  0
  7 34  1  0  0  0
  8  9  2  0  0  0
  8 35  1  0  0  0
  9 17  1  0  0  0
 10 11  2  0  0  0
 10 15  1  0  0  0
 10 44  1  0  0  0
 11 12  1  0  0  0
 11 36  1  0  0  0
 12 13  2  0  0  0
 12 37  1  0  0  0
 13 14  1  0  0  0
 13 20  1  0  0  0
 14 15  2  0  0  0
 14 38  1  0  0  0
 15 39  1  0  0  0
 16 17  2  0  0  0
 16 20  1  0  0  0
 16 45  1  0  0  0
 17 18  1  0  0  0
 18 19  1  0  0  0
 19 20  2  0  0  0
 19 26  1  0  0  0
 21 22  2  0  0  0
 21 26  1  0  0  0
 21 40  1  0  0  0
 22 23  1  0  0  0
 22 41  1  0  0  0
 23 24  2  0  0  0
 23 27  1  0  0  0
 24 25  1  0  0  0
 24 42  1  0  0  0
 25 26  2  0  0  0
 25 43  1  0  0  0
M  CHG  2  10   1  16   1
M  END
> <s_m_source_file>
../3gcp_ligand.sdf

> <i_m_source_file_index>
1

> <s_epik_input>
W09IXVtTQEBIXShbQ0gzXSljMVtjSF1bY0hdYyhbY0hdW2NIXTEpLWMybmMoYyhbbkhdMiktYyhbY0hdW2NIXTMpW2NIXVtjSF1jM0YpLWM0W2NIXVtjSF1uW2NIXVtjSF00

> <s_epik_cmdline>
J2VwaWtfYXBwJywgJy1pbWFlJywgJ2xpZ2FuZF9wcm8ubWFlJywgJy1vbWFlJywgJ2xpZ2FuZF9wcmVwLm1hZScsICctbXMnLCAnMScsICctcGgnLCAnNycsICctcGh0JywgJzAuNScsICctbnQn

> <r_epik_Ionization_Penalty>
  2.5523

> <r_epik_Ionization_Penalty_Charging>
  2.5497

> <r_epik_Ionization_Penalty_Neutral>
  0.0026

> <r_epik_State_Penalty>
  0.4075

> <r_epik_Charging_Adjusted_Penalty>
2.95716560605042

> <i_epik_Tot_Q>
2

> <i_epik_Tot_abs_Q>
2

$$$$
