3gcq_ligand
                    3D
 Schrodinger Suite 2020-3.
 68 72  0  0  1  0            999 V2000
   -4.3180    0.6490  -23.6540 C   0  0  0  0  0  0
   -4.3510   -0.6200  -23.0690 C   0  0  0  0  0  0
   -4.2130   -0.7050  -21.6570 C   0  0  0  0  0  0
   -4.0790    0.4360  -20.9570 N   0  0  0  0  0  0
   -4.1680    1.7500  -22.8780 N   0  0  0  0  0  0
   -1.3250   -9.1450  -15.2800 C   0  0  0  0  0  0
   -0.7520   -8.4740  -14.0430 C   0  0  0  0  0  0
   -0.1860   -7.1980  -14.1680 C   0  0  0  0  0  0
   -0.7960   -9.1210  -12.8080 C   0  0  0  0  0  0
   -0.2610   -8.4870  -11.6840 C   0  0  0  0  0  0
    0.2850   -7.1980  -11.8060 C   0  0  0  0  0  0
    0.3380   -6.5580  -13.0440 C   0  0  0  0  0  0
    0.8780   -5.3450  -13.1050 N   0  0  0  0  0  0
    1.9490   -5.0460  -12.5350 N   0  0  0  0  0  0
    2.2370   -3.7650  -12.7480 C   0  0  0  0  0  0
    3.4900   -3.0330  -12.1500 C   0  0  0  0  0  0
    4.1820   -2.1630  -13.2290 C   0  0  0  0  0  0
    4.5120   -3.9770  -11.4990 C   0  0  0  0  0  0
    2.9340   -2.1760  -11.0100 C   0  0  0  0  0  0
    1.2560   -3.2410  -13.5170 C   0  0  0  0  0  0
    0.3850   -4.2690  -13.7420 C   0  0  0  0  0  0
   -0.7620   -4.2580  -14.4600 N   0  0  0  0  0  0
   -0.9930   -3.5400  -15.6000 C   0  0  0  0  0  0
   -0.1680   -2.7520  -16.0890 O   0  0  0  0  0  0
   -2.2160   -3.6550  -16.1250 N   0  0  0  0  0  0
   -2.7220   -3.1480  -17.2640 C   0  0  0  0  0  0
   -1.8950   -2.9900  -18.3740 C   0  0  0  0  0  0
   -2.3930   -2.5600  -19.6120 C   0  0  0  0  0  0
   -4.0940   -2.9160  -17.4410 C   0  0  0  0  0  0
   -4.5910   -2.4750  -18.6960 C   0  0  0  0  0  0
   -3.7550   -2.2800  -19.7950 C   0  0  0  0  0  0
   -4.2440   -1.9020  -21.0370 N   0  0  0  0  0  0
   -4.5070   -1.7670  -23.8810 C   0  0  0  0  0  0
   -4.6370   -1.6200  -25.2780 C   0  0  0  0  0  0
   -4.7840   -2.6930  -26.0800 N   0  0  0  0  0  0
   -4.6040   -0.3460  -25.8450 C   0  0  0  0  0  0
   -4.4480    0.7900  -25.0450 C   0  0  0  0  0  0
   -4.0390    1.6240  -21.5650 C   0  0  0  0  0  0
   -1.1971   -8.4827  -16.1489 H   0  0  0  0  0  0
   -2.3956   -9.3451  -15.1259 H   0  0  0  0  0  0
   -0.7971  -10.0930  -15.4607 H   0  0  0  0  0  0
   -0.1552   -6.7068  -15.1405 H   0  0  0  0  0  0
   -1.2433  -10.1112  -12.7208 H   0  0  0  0  0  0
   -0.2671   -8.9898  -10.7169 H   0  0  0  0  0  0
    0.6721   -6.6918  -10.9217 H   0  0  0  0  0  0
    4.5681   -2.8106  -14.0299 H   0  0  0  0  0  0
    5.0147   -1.6073  -12.7733 H   0  0  0  0  0  0
    3.4544   -1.4534  -13.6499 H   0  0  0  0  0  0
    4.9536   -4.6266  -12.2691 H   0  0  0  0  0  0
    4.0088   -4.5960  -10.7416 H   0  0  0  0  0  0
    5.3054   -3.3844  -11.0201 H   0  0  0  0  0  0
    2.1898   -1.4716  -11.4101 H   0  0  0  0  0  0
    3.7546   -1.6145  -10.5396 H   0  0  0  0  0  0
    2.4580   -2.8261  -10.2611 H   0  0  0  0  0  0
    1.1770   -2.2163  -13.8801 H   0  0  0  0  0  0
   -1.6188   -4.8676  -14.1372 H   0  0  0  0  0  0
   -2.9862   -4.2410  -15.6020 H   0  0  0  0  0  0
   -0.8312   -3.2067  -18.2772 H   0  0  0  0  0  0
   -1.7068   -2.4407  -20.4504 H   0  0  0  0  0  0
   -4.7823   -3.0751  -16.6109 H   0  0  0  0  0  0
   -5.6586   -2.2830  -18.8036 H   0  0  0  0  0  0
   -4.7148   -2.7650  -21.5305 H   0  0  0  0  0  0
   -4.5267   -2.7592  -23.4301 H   0  0  0  0  0  0
   -4.8117   -3.7037  -25.6468 H   0  0  0  0  0  0
   -4.8763   -2.5581  -27.1678 H   0  0  0  0  0  0
   -4.7010   -0.2347  -26.9250 H   0  0  0  0  0  0
   -4.4274    1.7807  -25.4991 H   0  0  0  0  0  0
   -3.8955    2.5202  -20.9614 H   0  0  0  0  0  0
  1  2  1  0  0  0
  1  5  2  0  0  0
  1 37  1  0  0  0
  2  3  2  0  0  0
  2 33  1  0  0  0
  3  4  1  0  0  0
  3 32  1  0  0  0
  4 38  2  0  0  0
  5 38  1  0  0  0
  6  7  1  0  0  0
  6 39  1  0  0  0
  6 40  1  0  0  0
  6 41  1  0  0  0
  7  8  2  0  0  0
  7  9  1  0  0  0
  8 12  1  0  0  0
  8 42  1  0  0  0
  9 10  2  0  0  0
  9 43  1  0  0  0
 10 11  1  0  0  0
 10 44  1  0  0  0
 11 12  2  0  0  0
 11 45  1  0  0  0
 12 13  1  0  0  0
 13 14  1  0  0  0
 13 21  1  0  0  0
 14 15  2  0  0  0
 15 16  1  0  0  0
 15 20  1  0  0  0
 16 17  1  0  0  0
 16 18  1  0  0  0
 16 19  1  0  0  0
 17 46  1  0  0  0
 17 47  1  0  0  0
 17 48  1  0  0  0
 18 49  1  0  0  0
 18 50  1  0  0  0
 18 51  1  0  0  0
 19 52  1  0  0  0
 19 53  1  0  0  0
 19 54  1  0  0  0
 20 21  2  0  0  0
 20 55  1  0  0  0
 21 22  1  0  0  0
 22 23  1  0  0  0
 22 56  1  0  0  0
 23 24  2  0  0  0
 23 25  1  0  0  0
 25 26  1  0  0  0
 25 57  1  0  0  0
 26 27  2  0  0  0
 26 29  1  0  0  0
 27 28  1  0  0  0
 27 58  1  0  0  0
 28 31  2  0  0  0
 28 59  1  0  0  0
 29 30  2  0  0  0
 29 60  1  0  0  0
 30 31  1  0  0  0
 30 61  1  0  0  0
 31 32  1  0  0  0
 32 62  1  0  0  0
 33 34  2  0  0  0
 33 63  1  0  0  0
 34 35  1  0  0  0
 34 36  1  0  0  0
 35 64  1  0  0  0
 35 65  1  0  0  0
 36 37  2  0  0  0
 36 66  1  0  0  0
 37 67  1  0  0  0
 38 68  1  0  0  0
M  END
> <s_m_source_file>
../3gcq_ligand.sdf

> <i_m_source_file_index>
1

> <s_epik_input>
W2NIXTFbY0hdYyhbTkgyXSlbY0hdYyhjMTIpYyhuW2NIXW4yKVtOSF1jKFtjSF1bY0hdMylbY0hdW2NIXWMzW05IXUMoPU8pW05IXWM0W2NIXWMoQyhbQ0gzXSkoW0NIM10pW0NIM10pbm40LWMoW2NIXWM1W0NIM10pW2NIXVtjSF1bY0hdNQ==

> <s_epik_cmdline>
J2VwaWtfYXBwJywgJy1pbWFlJywgJ2xpZ2FuZF9wcm8ubWFlJywgJy1vbWFlJywgJ2xpZ2FuZF9wcmVwLm1hZScsICctbXMnLCAnMScsICctcGgnLCAnNycsICctcGh0JywgJzAuNScsICctbnQn

> <r_lp_tautomer_probability>
1

> <r_epik_Ionization_Penalty>
  0.0012

> <r_epik_Ionization_Penalty_Charging>
  0.0000

> <r_epik_Ionization_Penalty_Neutral>
  0.0012

> <r_epik_State_Penalty>
 -0.0000

> <r_epik_Charging_Adjusted_Penalty>
0

> <i_epik_Tot_Q>
0

> <i_epik_Tot_abs_Q>
0

$$$$
