3gcv_ligand
                    3D
 Schrodinger Suite 2020-3.
 68 72  0  0  1  0            999 V2000
   -3.1550    3.6610  -19.6340 C   0  0  0  0  0  0
   -3.0540    2.3410  -19.1490 C   0  0  0  0  0  0
   -2.8640    2.1630  -17.7690 C   0  0  0  0  0  0
   -2.7870    3.2450  -16.9540 N   0  0  0  0  0  0
   -3.0570    4.6740  -18.7730 N   0  0  0  0  0  0
    1.9870   -7.0980   -8.6200 C   0  0  0  0  0  0
    1.7350   -6.3130   -9.9370 C   0  0  0  0  0  0
    2.2360   -5.0280  -10.0650 C   0  0  0  0  0  0
    1.0100   -6.8800  -10.9800 C   0  0  0  0  0  0
    0.8090   -6.1700  -12.1560 C   0  0  0  0  0  0
    1.3110   -4.8720  -12.2810 C   0  0  0  0  0  0
    2.0210   -4.3030  -11.2160 C   0  0  0  0  0  0
    2.5300   -3.0600  -11.2790 N   0  0  0  0  0  0
    3.6680   -2.7760  -10.8570 N   0  0  0  0  0  0
    3.8800   -1.4860  -11.0640 C   0  0  0  0  0  0
    5.1950   -0.7890  -10.6360 C   0  0  0  0  0  0
    4.8790    0.1840   -9.4930 C   0  0  0  0  0  0
    6.2070   -1.8500  -10.1340 C   0  0  0  0  0  0
    5.7930   -0.0170  -11.7880 C   0  0  0  0  0  0
    2.7850   -0.9440  -11.6420 C   0  0  0  0  0  0
    1.9370   -1.9880  -11.8240 C   0  0  0  0  0  0
    0.6620   -1.9220  -12.2870 N   0  0  0  0  0  0
    0.0860   -0.9810  -13.0820 C   0  0  0  0  0  0
    0.7290   -0.1760  -13.7590 O   0  0  0  0  0  0
   -1.2490   -1.0650  -13.1590 N   0  0  0  0  0  0
   -2.1460   -0.3550  -13.9060 C   0  0  0  0  0  0
   -1.9640   -0.0590  -15.2630 C   0  0  0  0  0  0
   -3.3230    0.0750  -13.2660 C   0  0  0  0  0  0
   -4.3030    0.8010  -13.9430 C   0  0  0  0  0  0
   -4.1090    1.0830  -15.2990 C   0  0  0  0  0  0
   -2.9400    0.6620  -15.9540 C   0  0  0  0  0  0
   -2.7600    0.9290  -17.2530 N   0  0  0  0  0  0
   -3.1490    1.2520  -20.0490 C   0  0  0  0  0  0
   -3.3280    1.4750  -21.4290 C   0  0  0  0  0  0
   -3.4310    0.4360  -22.3090 N   0  0  0  0  0  0
   -3.4100    2.8090  -21.8960 C   0  0  0  0  0  0
   -3.3200    3.9060  -21.0020 C   0  0  0  0  0  0
   -2.8830    4.4730  -17.4590 C   0  0  0  0  0  0
    2.5758   -6.4763   -7.9295 H   0  0  0  0  0  0
    2.5402   -8.0220   -8.8440 H   0  0  0  0  0  0
    1.0233   -7.3514   -8.1541 H   0  0  0  0  0  0
    2.8056   -4.5866   -9.2472 H   0  0  0  0  0  0
    0.5988   -7.8839  -10.8738 H   0  0  0  0  0  0
    0.2602   -6.6246  -12.9808 H   0  0  0  0  0  0
    1.1515   -4.3070  -13.1994 H   0  0  0  0  0  0
    4.4427   -0.3708   -8.6493 H   0  0  0  0  0  0
    4.1624    0.9413   -9.8437 H   0  0  0  0  0  0
    5.8053    0.6792   -9.1664 H   0  0  0  0  0  0
    5.7664   -2.4090   -9.2953 H   0  0  0  0  0  0
    7.1268   -1.3491   -9.7978 H   0  0  0  0  0  0
    6.4460   -2.5449  -10.9526 H   0  0  0  0  0  0
    5.0708    0.7343  -12.1401 H   0  0  0  0  0  0
    6.0315   -0.7094  -12.6088 H   0  0  0  0  0  0
    6.7123    0.4864  -11.4541 H   0  0  0  0  0  0
    2.6195    0.1010  -11.9041 H   0  0  0  0  0  0
   -0.0611   -2.7070  -12.0208 H   0  0  0  0  0  0
   -1.7896   -1.8046  -12.5501 H   0  0  0  0  0  0
   -1.0626   -0.3907  -15.7784 H   0  0  0  0  0  0
   -3.4729   -0.1655  -12.2135 H   0  0  0  0  0  0
   -5.2005    1.1411  -13.4264 H   0  0  0  0  0  0
   -4.8705    1.6335  -15.8515 H   0  0  0  0  0  0
   -2.5162    0.0784  -17.9064 H   0  0  0  0  0  0
   -3.0831    0.2318  -19.6710 H   0  0  0  0  0  0
   -3.3673   -0.6005  -21.9461 H   0  0  0  0  0  0
   -3.5777    0.6355  -23.3808 H   0  0  0  0  0  0
   -3.5447    2.9961  -22.9613 H   0  0  0  0  0  0
   -3.3786    4.9282  -21.3759 H   0  0  0  0  0  0
   -2.8189    5.3319  -16.7910 H   0  0  0  0  0  0
  1  2  1  0  0  0
  1  5  2  0  0  0
  1 37  1  0  0  0
  2  3  2  0  0  0
  2 33  1  0  0  0
  3  4  1  0  0  0
  3 32  1  0  0  0
  4 38  2  0  0  0
  5 38  1  0  0  0
  6  7  1  0  0  0
  6 39  1  0  0  0
  6 40  1  0  0  0
  6 41  1  0  0  0
  7  8  2  0  0  0
  7  9  1  0  0  0
  8 12  1  0  0  0
  8 42  1  0  0  0
  9 10  2  0  0  0
  9 43  1  0  0  0
 10 11  1  0  0  0
 10 44  1  0  0  0
 11 12  2  0  0  0
 11 45  1  0  0  0
 12 13  1  0  0  0
 13 14  1  0  0  0
 13 21  1  0  0  0
 14 15  2  0  0  0
 15 16  1  0  0  0
 15 20  1  0  0  0
 16 17  1  0  0  0
 16 18  1  0  0  0
 16 19  1  0  0  0
 17 46  1  0  0  0
 17 47  1  0  0  0
 17 48  1  0  0  0
 18 49  1  0  0  0
 18 50  1  0  0  0
 18 51  1  0  0  0
 19 52  1  0  0  0
 19 53  1  0  0  0
 19 54  1  0  0  0
 20 21  2  0  0  0
 20 55  1  0  0  0
 21 22  1  0  0  0
 22 23  1  0  0  0
 22 56  1  0  0  0
 23 24  2  0  0  0
 23 25  1  0  0  0
 25 26  1  0  0  0
 25 57  1  0  0  0
 26 27  2  0  0  0
 26 28  1  0  0  0
 27 31  1  0  0  0
 27 58  1  0  0  0
 28 29  2  0  0  0
 28 59  1  0  0  0
 29 30  1  0  0  0
 29 60  1  0  0  0
 30 31  2  0  0  0
 30 61  1  0  0  0
 31 32  1  0  0  0
 32 62  1  0  0  0
 33 34  2  0  0  0
 33 63  1  0  0  0
 34 35  1  0  0  0
 34 36  1  0  0  0
 35 64  1  0  0  0
 35 65  1  0  0  0
 36 37  2  0  0  0
 36 66  1  0  0  0
 37 67  1  0  0  0
 38 68  1  0  0  0
M  END
> <s_m_source_file>
../3gcv_ligand.sdf

> <i_m_source_file_index>
1

> <s_epik_input>
W2NIXTFbY0hdYyhbTkgyXSlbY0hdYyhjMTIpYyhuW2NIXW4yKVtOSF1jKFtjSF1bY0hdW2NIXTMpW2NIXWMzW05IXUMoPU8pW05IXWM0W2NIXWMoQyhbQ0gzXSkoW0NIM10pW0NIM10pbm40LWMoW2NIXWM1W0NIM10pW2NIXVtjSF1bY0hdNQ==

> <s_epik_cmdline>
J2VwaWtfYXBwJywgJy1pbWFlJywgJ2xpZ2FuZF9wcm8ubWFlJywgJy1vbWFlJywgJ2xpZ2FuZF9wcmVwLm1hZScsICctbXMnLCAnMScsICctcGgnLCAnNycsICctcGh0JywgJzAuNScsICctbnQn

> <r_lp_tautomer_probability>
1

> <r_epik_Ionization_Penalty>
  0.0012

> <r_epik_Ionization_Penalty_Charging>
  0.0000

> <r_epik_Ionization_Penalty_Neutral>
  0.0012

> <r_epik_State_Penalty>
 -0.0000

> <r_epik_Charging_Adjusted_Penalty>
0

> <i_epik_Tot_Q>
0

> <i_epik_Tot_abs_Q>
0

$$$$
