3gen_ligand
                    3D
 Schrodinger Suite 2020-3.
 50 54  0  0  1  0            999 V2000
  -19.3930    4.7490  -16.8150 N   0  0  0  0  0  0
  -18.3580    5.0350  -17.6220 C   0  0  0  0  0  0
  -18.4720    4.6780  -18.9310 N   0  0  0  0  0  0
  -17.5020    4.9300  -19.8220 C   0  0  0  0  0  0
  -16.3840    5.5440  -19.4320 N   0  0  0  0  0  0
  -16.2230    5.9140  -18.1310 C   0  0  0  0  0  0
  -17.2010    5.6710  -17.1740 C   0  0  0  0  0  0
  -15.2090    6.5290  -17.5510 N   0  0  0  0  0  0
  -14.0520    6.9970  -18.3400 C   0  0  0  0  0  0
  -14.0670    8.5010  -18.5480 C   0  0  0  0  0  0
  -12.6050    8.9100  -18.6180 C   0  0  0  0  0  0
  -11.7680    7.6640  -18.3770 C   0  0  0  0  0  0
  -12.7040    6.6720  -17.7220 C   0  0  0  0  0  0
  -15.4730    6.7000  -16.2500 C   0  0  0  0  0  0
  -16.7230    6.1820  -15.9620 C   0  0  0  0  0  0
  -17.2900    6.1110  -14.6740 C   0  0  0  0  0  0
  -17.6700    4.8840  -14.1250 C   0  0  0  0  0  0
  -18.1110    4.7870  -12.8040 C   0  0  0  0  0  0
  -18.2030    5.9130  -11.9900 C   0  0  0  0  0  0
  -17.8060    7.1410  -12.5140 C   0  0  0  0  0  0
  -17.3660    7.2350  -13.8380 C   0  0  0  0  0  0
  -18.8410    5.7800  -10.7740 O   0  0  0  0  0  0
  -19.8030    6.6210  -10.2870 C   0  0  0  0  0  0
  -20.8560    7.0490  -11.0900 C   0  0  0  0  0  0
  -21.8240    7.8810  -10.5460 C   0  0  0  0  0  0
  -21.7460    8.2850   -9.2220 C   0  0  0  0  0  0
  -20.6910    7.8570   -8.4300 C   0  0  0  0  0  0
  -19.7290    7.0060   -8.9480 C   0  0  0  0  0  0
  -20.2833    4.2455  -17.2198 H   0  0  0  0  0  0
  -19.3503    5.0183  -15.7493 H   0  0  0  0  0  0
  -17.6270    4.6335  -20.8634 H   0  0  0  0  0  0
  -14.1898    6.4404  -19.2787 H   0  0  0  0  0  0
  -14.5973    8.7366  -19.4825 H   0  0  0  0  0  0
  -14.5810    8.9829  -17.7033 H   0  0  0  0  0  0
  -12.3892    9.3311  -19.6110 H   0  0  0  0  0  0
  -12.3984    9.6662  -17.8463 H   0  0  0  0  0  0
  -11.3885    7.2857  -19.3377 H   0  0  0  0  0  0
  -10.9211    7.9125  -17.7205 H   0  0  0  0  0  0
  -12.7590    6.8049  -16.6314 H   0  0  0  0  0  0
  -12.4372    5.6298  -17.9513 H   0  0  0  0  0  0
  -14.8065    7.1738  -15.5293 H   0  0  0  0  0  0
  -17.6213    3.9852  -14.7397 H   0  0  0  0  0  0
  -18.3883    3.8123  -12.4026 H   0  0  0  0  0  0
  -17.8385    8.0333  -11.8888 H   0  0  0  0  0  0
  -17.0740    8.2087  -14.2314 H   0  0  0  0  0  0
  -20.9194    6.7350  -12.1319 H   0  0  0  0  0  0
  -22.6540    8.2204  -11.1657 H   0  0  0  0  0  0
  -22.5125    8.9378   -8.8043 H   0  0  0  0  0  0
  -20.6187    8.1919   -7.3952 H   0  0  0  0  0  0
  -18.9207    6.6400   -8.3149 H   0  0  0  0  0  0
  1  2  1  0  0  0
  1 29  1  0  0  0
  1 30  1  0  0  0
  2  3  1  0  0  0
  2  7  2  0  0  0
  3  4  2  0  0  0
  4  5  1  0  0  0
  4 31  1  0  0  0
  5  6  2  0  0  0
  6  7  1  0  0  0
  6  8  1  0  0  0
  7 15  1  0  0  0
  8  9  1  0  0  0
  8 14  1  0  0  0
  9 10  1  0  0  0
  9 13  1  0  0  0
  9 32  1  0  0  0
 10 11  1  0  0  0
 10 33  1  0  0  0
 10 34  1  0  0  0
 11 12  1  0  0  0
 11 35  1  0  0  0
 11 36  1  0  0  0
 12 13  1  0  0  0
 12 37  1  0  0  0
 12 38  1  0  0  0
 13 39  1  0  0  0
 13 40  1  0  0  0
 14 15  2  0  0  0
 14 41  1  0  0  0
 15 16  1  0  0  0
 16 17  2  0  0  0
 16 21  1  0  0  0
 17 18  1  0  0  0
 17 42  1  0  0  0
 18 19  2  0  0  0
 18 43  1  0  0  0
 19 20  1  0  0  0
 19 22  1  0  0  0
 20 21  2  0  0  0
 20 44  1  0  0  0
 21 45  1  0  0  0
 22 23  1  0  0  0
 23 24  2  0  0  0
 23 28  1  0  0  0
 24 25  1  0  0  0
 24 46  1  0  0  0
 25 26  2  0  0  0
 25 47  1  0  0  0
 26 27  1  0  0  0
 26 48  1  0  0  0
 27 28  2  0  0  0
 27 49  1  0  0  0
 28 50  1  0  0  0
M  END
> <s_m_source_file>
../3gen_ligand.sdf

> <i_m_source_file_index>
1

> <s_epik_input>
W0NIMl0xW0NIMl1bQ0gyXVtDSDJdW0NIXTFuMltjSF1jKGMoYzIzKWMoW05IMl0pbltjSF1uMyktYzRbY0hdW2NIXWMoW2NIXVtjSF00KU9jNVtjSF1bY0hdW2NIXVtjSF1bY0hdNQ==

> <s_epik_cmdline>
J2VwaWtfYXBwJywgJy1pbWFlJywgJ2xpZ2FuZF9wcm8ubWFlJywgJy1vbWFlJywgJ2xpZ2FuZF9wcmVwLm1hZScsICctbXMnLCAnMScsICctcGgnLCAnNycsICctcGh0JywgJzAuNScsICctbnQn

> <r_lp_tautomer_probability>
1

> <r_epik_Ionization_Penalty>
  0.0037

> <r_epik_Ionization_Penalty_Charging>
  0.0000

> <r_epik_Ionization_Penalty_Neutral>
  0.0037

> <r_epik_State_Penalty>
 -0.0000

> <r_epik_Charging_Adjusted_Penalty>
0

> <i_epik_Tot_Q>
0

> <i_epik_Tot_abs_Q>
0

$$$$
