3gep_ligand
                    3D
 Schrodinger Suite 2020-3.
 33 34  0  0  1  0            999 V2000
   19.2420   55.9400    7.8790 C   0  0  0  0  0  0
   20.2420   54.9740    7.9570 C   0  0  0  0  0  0
   20.0140   53.7050    7.4340 C   0  0  0  0  0  0
   20.9630   56.8160    8.8710 C   0  0  0  0  0  0
   20.9000   52.8240    7.4970 O   0  0  0  0  0  0
   21.2930   55.5380    8.5820 N   0  0  0  0  0  0
   18.8180   53.4320    6.8590 N   0  0  0  0  0  0
   17.8450   54.3760    6.7950 C   0  0  0  0  0  0
   16.6630   54.0790    6.2020 N   0  0  0  0  0  0
   18.0520   55.6160    7.3020 N   0  0  0  0  0  0
   19.7120   57.0590    8.4660 N   0  0  0  0  0  0
   19.0140   58.3380    8.5910 C   0  0  0  0  0  0
   18.6030   58.7820   10.0020 C   0  0  1  0  0  0
   17.2510   58.1590   10.2980 C   0  0  0  0  0  0
   16.3320   59.2590   10.3440 O   0  0  0  0  0  0
   19.5490   58.6020   11.0820 O   0  0  0  0  0  0
   19.3100   59.6060   12.0820 C   0  0  0  0  0  0
   20.7510   60.1120   13.0790 P   0  0  0  0  0  0
   20.8400   59.0940   14.1900 O   0  5  0  0  0  0
   21.9220   60.1400   12.1290 O   0  0  0  0  0  0
   20.4270   61.4920   13.5960 O   0  0  0  0  0  0
   21.6167   57.5385    9.3596 H   0  0  0  0  0  0
   16.4918   53.0737    5.7896 H   0  0  0  0  0  0
   19.6550   59.1447    8.2059 H   0  0  0  0  0  0
   18.0796   58.3040    8.0116 H   0  0  0  0  0  0
   18.5986   59.8816   10.0329 H   0  0  0  0  0  0
   16.9917   57.4488    9.4990 H   0  0  0  0  0  0
   17.2947   57.6282   11.2605 H   0  0  0  0  0  0
   15.2661   59.0771   10.5459 H   0  0  0  0  0  0
   18.9387   60.5224   11.6000 H   0  0  0  0  0  0
   18.5603   59.2389   12.7984 H   0  0  0  0  0  0
   19.5946   61.6338   14.3009 H   0  0  0  0  0  0
   15.8748   54.8432    6.1331 H   0  0  0  0  0  0
  1  2  2  0  0  0
  1 10  1  0  0  0
  1 11  1  0  0  0
  2  3  1  0  0  0
  2  6  1  0  0  0
  3  5  2  0  0  0
  3  7  1  0  0  0
  4  6  2  0  0  0
  4 11  1  0  0  0
  4 22  1  0  0  0
  7  8  1  0  0  0
  8  9  1  0  0  0
  8 10  2  0  0  0
  9 23  1  0  0  0
  9 33  1  0  0  0
 11 12  1  0  0  0
 12 13  1  0  0  0
 12 24  1  0  0  0
 12 25  1  0  0  0
 13 14  1  0  0  0
 13 16  1  0  0  0
 13 26  1  0  0  0
 14 15  1  0  0  0
 14 27  1  0  0  0
 14 28  1  0  0  0
 15 29  1  0  0  0
 16 17  1  0  0  0
 17 18  1  0  0  0
 17 30  1  0  0  0
 17 31  1  0  0  0
 18 19  1  0  0  0
 18 20  2  0  0  0
 18 21  1  0  0  0
 21 32  1  0  0  0
M  CHG  1  19  -1
M  END
> <s_m_source_file>
../3gep_ligand.sdf

> <i_m_source_file_index>
1

> <s_epik_input>
W0hdL049YyhbbkhdMSlcW25IXWMoPU8pYyhjMTIpbltjSF1uMltDSDJdW0NAQEhdKFtDSDJdW09IXSlPW0NIMl1QKD1PKShbT0hdKVtPSF0=

> <s_epik_cmdline>
J2VwaWtfYXBwJywgJy1pbWFlJywgJ2xpZ2FuZF9wcm8ubWFlJywgJy1vbWFlJywgJ2xpZ2FuZF9wcmVwLm1hZScsICctbXMnLCAnMScsICctcGgnLCAnNycsICctcGh0JywgJzAuNScsICctbnQn

> <r_epik_Ionization_Penalty>
  3.8525

> <r_epik_Ionization_Penalty_Charging>
  0.0000

> <r_epik_Ionization_Penalty_Neutral>
  3.8525

> <r_epik_State_Penalty>
  0.2944

> <r_epik_Charging_Adjusted_Penalty>
0.29443627611242

> <i_epik_Tot_Q>
-1

> <i_epik_Tot_abs_Q>
1

> <s_epik_Chemistry_Notes>
This compound has an imine and may undergo hydrolysis.

$$$$
