3gf2_ligand
                    3D
 Schrodinger Suite 2020-3.
 15 15  0  0  1  0            999 V2000
    2.9440   -3.3030  -25.4070 C   0  0  0  0  0  0
    2.6870   -4.1750  -26.2120 O   0  0  0  0  0  0
    3.9230   -2.4180  -25.6840 O   0  5  0  0  0  0
    2.1890   -3.2040  -24.1180 C   0  0  0  0  0  0
    1.1350   -4.1300  -23.7850 C   0  0  0  0  0  0
    0.4520   -3.9930  -22.5490 C   0  0  0  0  0  0
    0.7980   -2.9660  -21.6500 C   0  0  0  0  0  0
    1.8270   -2.0560  -21.9670 C   0  0  0  0  0  0
    2.5210   -2.1670  -23.1850 C   0  0  0  0  0  0
    0.7880   -5.1280  -24.6450 O   0  0  0  0  0  0
   -0.3473   -4.6886  -22.2932 H   0  0  0  0  0  0
    0.2667   -2.8740  -20.7027 H   0  0  0  0  0  0
    2.0857   -1.2632  -21.2652 H   0  0  0  0  0  0
    3.3164   -1.4602  -23.4214 H   0  0  0  0  0  0
    1.3161   -5.2362  -25.6038 H   0  0  0  0  0  0
  1  2  2  0  0  0
  1  3  1  0  0  0
  1  4  1  0  0  0
  4  5  2  0  0  0
  4  9  1  0  0  0
  5  6  1  0  0  0
  5 10  1  0  0  0
  6  7  2  0  0  0
  6 11  1  0  0  0
  7  8  1  0  0  0
  7 12  1  0  0  0
  8  9  2  0  0  0
  8 13  1  0  0  0
  9 14  1  0  0  0
 10 15  1  0  0  0
M  CHG  1   3  -1
M  END
> <s_m_source_file>
../3gf2_ligand.sdf

> <i_m_source_file_index>
1

> <s_epik_input>
Tz1DKFtPSF0pYzFjKFtPSF0pW2NIXVtjSF1bY0hdW2NIXTE=

> <s_epik_cmdline>
J2VwaWtfYXBwJywgJy1pbWFlJywgJ2xpZ2FuZF9wcm8ubWFlJywgJy1vbWFlJywgJ2xpZ2FuZF9wcmVwLm1hZScsICctbXMnLCAnMScsICctcGgnLCAnNycsICctcGh0JywgJzAuNScsICctbnQn

> <r_lp_tautomer_probability>
1

> <r_epik_Ionization_Penalty>
  0.0001

> <r_epik_Ionization_Penalty_Charging>
  0.0001

> <r_epik_Ionization_Penalty_Neutral>
  0.0000

> <r_epik_State_Penalty>
 -0.0000

> <r_epik_Charging_Adjusted_Penalty>
5.40328802801808e-05

> <i_epik_Tot_Q>
-1

> <i_epik_Tot_abs_Q>
1

$$$$
