3gfe_ligand
                    3D
 Schrodinger Suite 2020-3.
 54 58  0  0  1  0            999 V2000
    6.4920   28.1260   27.7220 N   0  0  0  0  0  0
    0.5130   35.5450   30.4480 N   0  0  0  0  0  0
    6.9060   27.6620   25.2640 C   0  0  0  0  0  0
    5.6570   30.0530   28.9690 C   0  0  0  0  0  0
   -2.4610   34.5920   30.4380 C   0  0  0  0  0  0
   -3.8100   34.8050   30.6760 C   0  0  0  0  0  0
   -4.2020   35.4450   31.8440 C   0  0  0  0  0  0
   -1.8860   35.6530   32.5400 C   0  0  0  0  0  0
    1.6630   33.7420   30.7530 C   0  0  0  0  0  0
    0.9630   31.3180   31.9650 C   0  0  0  0  0  0
    2.5960   32.7020   30.8220 C   0  0  0  0  0  0
    4.6880   31.0440   29.1200 C   0  0  0  0  0  0
    6.7110   29.9790   29.8880 C   0  0  0  0  0  0
    6.7840   30.8860   30.9500 C   0  0  0  0  0  0
    5.8910   32.8600   32.2680 C   0  0  0  0  0  0
    7.9510   26.8820   26.0600 C   0  0  0  0  0  0
    6.5590   27.1170   26.6520 C   0  0  0  0  0  0
    5.5550   29.0750   27.7750 C   0  0  0  0  0  0
    4.6630   29.2070   26.9340 O   0  0  0  0  0  0
    5.8010   31.8700   31.1010 C   0  0  0  0  0  0
    4.7510   31.9510   30.1820 C   0  0  0  0  0  0
    3.8140   32.8980   30.3040 N   0  0  0  0  0  0
    2.2430   31.4920   31.4330 C   0  0  0  0  0  0
    0.6590   30.2500   32.4970 O   0  0  0  0  0  0
    0.0180   32.3640   31.8920 N   0  0  0  0  0  0
   -1.3370   32.1420   32.4700 C   0  0  0  0  0  0
    0.3850   33.5870   31.2750 C   0  0  0  0  0  0
    1.7030   34.9740   30.2450 C   0  0  0  0  0  0
   -0.2240   34.7550   31.0490 N   0  0  0  0  0  0
   -1.4960   35.0110   31.3600 C   0  0  0  0  0  0
   -3.2470   35.8670   32.7750 C   0  0  0  0  0  0
   -5.5190   35.6400   32.0530 F   0  0  0  0  0  0
   -2.0930   33.9660   29.3010 F   0  0  0  0  0  0
    7.2382   28.1210   28.5302 H   0  0  0  0  0  0
    7.2826   28.6749   25.0584 H   0  0  0  0  0  0
    6.7076   27.1447   24.3137 H   0  0  0  0  0  0
   -4.5555   34.4733   29.9533 H   0  0  0  0  0  0
   -1.1406   35.9810   33.2645 H   0  0  0  0  0  0
    3.8714   31.1124   28.4013 H   0  0  0  0  0  0
    7.4771   29.2119   29.7752 H   0  0  0  0  0  0
    7.6079   30.8262   31.6611 H   0  0  0  0  0  0
    6.7807   32.6329   32.8737 H   0  0  0  0  0  0
    4.9900   32.7730   32.8929 H   0  0  0  0  0  0
    5.9669   33.8845   31.8747 H   0  0  0  0  0  0
    8.2542   25.9902   25.4918 H   0  0  0  0  0  0
    8.8292   27.5204   26.2364 H   0  0  0  0  0  0
    5.7648   26.4905   27.0842 H   0  0  0  0  0  0
    2.9909   31.3725   32.2307 H   0  0  0  0  0  0
    2.4196   30.7406   30.6492 H   0  0  0  0  0  0
   -1.3939   31.1278   32.8921 H   0  0  0  0  0  0
   -2.0951   32.2537   31.6808 H   0  0  0  0  0  0
   -1.5225   32.8805   33.2638 H   0  0  0  0  0  0
    2.5580   35.4348   29.7502 H   0  0  0  0  0  0
   -3.5665   36.3661   33.6899 H   0  0  0  0  0  0
  1 17  1  0  0  0
  1 18  1  0  0  0
  1 34  1  0  0  0
  2 28  2  0  0  0
  2 29  1  0  0  0
  3 16  1  0  0  0
  3 17  1  0  0  0
  3 35  1  0  0  0
  3 36  1  0  0  0
  4 12  2  0  0  0
  4 13  1  0  0  0
  4 18  1  0  0  0
  5  6  2  0  0  0
  5 30  1  0  0  0
  5 33  1  0  0  0
  6  7  1  0  0  0
  6 37  1  0  0  0
  7 31  2  0  0  0
  7 32  1  0  0  0
  8 30  2  0  0  0
  8 31  1  0  0  0
  8 38  1  0  0  0
  9 11  1  0  0  0
  9 27  2  0  0  0
  9 28  1  0  0  0
 10 23  1  0  0  0
 10 24  2  0  0  0
 10 25  1  0  0  0
 11 22  2  0  0  0
 11 23  1  0  0  0
 12 21  1  0  0  0
 12 39  1  0  0  0
 13 14  2  0  0  0
 13 40  1  0  0  0
 14 20  1  0  0  0
 14 41  1  0  0  0
 15 20  1  0  0  0
 15 42  1  0  0  0
 15 43  1  0  0  0
 15 44  1  0  0  0
 16 17  1  0  0  0
 16 45  1  0  0  0
 16 46  1  0  0  0
 17 47  1  0  0  0
 18 19  2  0  0  0
 20 21  2  0  0  0
 21 22  1  0  0  0
 23 48  1  0  0  0
 23 49  1  0  0  0
 25 26  1  0  0  0
 25 27  1  0  0  0
 26 50  1  0  0  0
 26 51  1  0  0  0
 26 52  1  0  0  0
 27 29  1  0  0  0
 28 53  1  0  0  0
 29 30  1  0  0  0
 31 54  1  0  0  0
M  END
> <s_m_source_file>
../3gfe_ligand.sdf

> <i_m_source_file_index>
1

> <s_epik_input>
W0NIMl0xW0NIMl1bQ0hdMVtOSF1DKD1PKWMyW2NIXWMoYyhbQ0gzXSlbY0hdW2NIXTIpXE49Q1wzW0NIMl1DKD1PKU4oW0NIM10pYyhjMzQpbihuW2NIXTQpLWM1W2NIXVtjSF1jKEYpW2NIXWM1Rg==

> <s_epik_cmdline>
J2VwaWtfYXBwJywgJy1pbWFlJywgJ2xpZ2FuZF9wcm8ubWFlJywgJy1vbWFlJywgJ2xpZ2FuZF9wcmVwLm1hZScsICctbXMnLCAnMScsICctcGgnLCAnNycsICctcGh0JywgJzAuNScsICctbnQn

> <r_lp_tautomer_probability>
1

> <r_epik_Ionization_Penalty>
  0.0019

> <r_epik_Ionization_Penalty_Charging>
  0.0000

> <r_epik_Ionization_Penalty_Neutral>
  0.0019

> <r_epik_State_Penalty>
 -0.0000

> <r_epik_Charging_Adjusted_Penalty>
0

> <i_epik_Tot_Q>
0

> <i_epik_Tot_abs_Q>
0

> <s_epik_Chemistry_Notes>
This compound has an imine and may undergo hydrolysis.

$$$$
