3gfw_ligand
                    3D
 Schrodinger Suite 2020-3.
 70 74  0  0  1  0            999 V2000
   -2.2920   12.3510   48.5210 C   0  0  0  0  0  0
   -1.7470   10.9210   48.7510 C   0  0  0  0  0  0
   -2.2850    9.8800   47.7480 C   0  0  0  0  0  0
   -3.3550    9.1490   48.3800 O   0  0  0  0  0  0
   -2.8100   10.5380   46.4520 C   0  0  0  0  0  0
   -2.0170   11.7920   46.0290 C   0  0  0  0  0  0
   -1.9310   12.7640   47.1450 N   0  0  0  0  0  0
   -1.5270   14.0580   46.8590 C   0  0  0  0  0  0
   -1.2660   14.9650   47.8760 C   0  0  0  0  0  0
   -0.8830   16.2600   47.5310 C   0  0  0  0  0  0
   -0.6070   17.1720   48.5150 O   0  0  0  0  0  0
   -0.8830   16.6860   49.8340 C   0  0  0  0  0  0
   -1.4290   14.4230   45.5220 C   0  0  0  0  0  0
   -1.0380   15.7020   45.1860 C   0  0  0  0  0  0
   -0.7550   16.6380   46.1770 C   0  0  0  0  0  0
   -0.3750   17.9060   45.8540 N   0  0  0  0  0  0
    0.3840   18.2870   44.7890 C   0  0  0  0  0  0
    1.0180   17.3950   43.9300 C   0  0  0  0  0  0
    0.5310   19.6160   44.5660 N   0  0  0  0  0  0
    1.2550   20.1030   43.5440 C   0  0  0  0  0  0
    1.5050   21.3390   43.1390 N   0  0  0  0  0  0
    2.2970   21.2540   42.0620 C   0  0  0  0  0  0
    2.5320   19.9740   41.7580 C   0  0  0  0  0  0
    1.9060   19.2380   42.6680 C   0  0  0  0  0  0
    1.7950   17.8710   42.8650 C   0  0  0  0  0  0
    2.4120   17.0480   41.9940 N   0  0  0  0  0  0
    2.6550   15.7530   42.2470 C   0  0  0  0  0  0
    3.0110   15.3760   43.5330 C   0  0  0  0  0  0
    3.2650   14.0330   43.8010 C   0  0  0  0  0  0
    3.1950   13.0580   42.8040 C   0  0  0  0  0  0
    2.8580   13.4320   41.5160 C   0  0  0  0  0  0
    2.5900   14.7760   41.2410 C   0  0  0  0  0  0
    2.1300   15.1350   39.5930 S   0  0  0  0  0  0
    2.7300   14.0920   38.7050 O   0  0  0  0  0  0
    2.5300   16.5440   39.2420 O   0  0  0  0  0  0
    0.3420   14.9390   39.4500 C   0  0  0  0  0  0
   -0.0420   13.4670   39.6300 C   0  0  0  0  0  0
   -0.2900   15.7990   40.5060 C   0  0  0  0  0  0
   -3.3853   12.3507   48.6425 H   0  0  0  0  0  0
   -1.8419   13.0372   49.2535 H   0  0  0  0  0  0
   -0.6509   10.9271   48.6583 H   0  0  0  0  0  0
   -2.0279   10.5791   49.7581 H   0  0  0  0  0  0
   -1.4956    9.1570   47.4948 H   0  0  0  0  0  0
   -3.1719    8.6099   49.3212 H   0  0  0  0  0  0
   -2.7488    9.8167   45.6238 H   0  0  0  0  0  0
   -3.8567   10.8447   46.5945 H   0  0  0  0  0  0
   -0.9981   11.4996   45.7351 H   0  0  0  0  0  0
   -2.5200   12.2741   45.1778 H   0  0  0  0  0  0
   -1.3584   14.6713   48.9216 H   0  0  0  0  0  0
   -0.6396   17.4659   50.5705 H   0  0  0  0  0  0
   -0.2723   15.7925   50.0308 H   0  0  0  0  0  0
   -1.9490   16.4264   49.9135 H   0  0  0  0  0  0
   -1.6607   13.6997   44.7401 H   0  0  0  0  0  0
   -0.9498   15.9823   44.1364 H   0  0  0  0  0  0
   -0.6860   18.7511   46.4857 H   0  0  0  0  0  0
    0.9100   16.3216   44.0858 H   0  0  0  0  0  0
    2.6523   22.1698   41.5670 H   0  0  0  0  0  0
    3.1252   19.6046   40.9215 H   0  0  0  0  0  0
    2.7446   17.4300   41.0176 H   0  0  0  0  0  0
    3.0911   16.1213   44.3243 H   0  0  0  0  0  0
    3.5255   13.7351   44.8166 H   0  0  0  0  0  0
    3.4036   12.0141   43.0382 H   0  0  0  0  0  0
    2.8019   12.6861   40.7231 H   0  0  0  0  0  0
   -0.1776   15.2190   38.5218 H   0  0  0  0  0  0
    0.4355   12.8647   38.8431 H   0  0  0  0  0  0
   -1.1347   13.3619   39.5599 H   0  0  0  0  0  0
    0.2975   13.1175   40.6162 H   0  0  0  0  0  0
    0.0042   16.8473   40.3496 H   0  0  0  0  0  0
    0.0475   15.4676   41.4991 H   0  0  0  0  0  0
   -1.3847   15.7121   40.4429 H   0  0  0  0  0  0
  1  2  1  0  0  0
  1  7  1  0  0  0
  1 39  1  0  0  0
  1 40  1  0  0  0
  2  3  1  0  0  0
  2 41  1  0  0  0
  2 42  1  0  0  0
  3  4  1  0  0  0
  3  5  1  0  0  0
  3 43  1  0  0  0
  4 44  1  0  0  0
  5  6  1  0  0  0
  5 45  1  0  0  0
  5 46  1  0  0  0
  6  7  1  0  0  0
  6 47  1  0  0  0
  6 48  1  0  0  0
  7  8  1  0  0  0
  8  9  2  0  0  0
  8 13  1  0  0  0
  9 10  1  0  0  0
  9 49  1  0  0  0
 10 11  1  0  0  0
 10 15  2  0  0  0
 11 12  1  0  0  0
 12 50  1  0  0  0
 12 51  1  0  0  0
 12 52  1  0  0  0
 13 14  2  0  0  0
 13 53  1  0  0  0
 14 15  1  0  0  0
 14 54  1  0  0  0
 15 16  1  0  0  0
 16 17  1  0  0  0
 16 55  1  0  0  0
 17 18  2  0  0  0
 17 19  1  0  0  0
 18 25  1  0  0  0
 18 56  1  0  0  0
 19 20  2  0  0  0
 20 21  1  0  0  0
 20 24  1  0  0  0
 21 22  2  0  0  0
 22 23  1  0  0  0
 22 57  1  0  0  0
 23 24  1  0  0  0
 23 58  1  0  0  0
 24 25  2  0  0  0
 25 26  1  0  0  0
 26 27  1  0  0  0
 26 59  1  0  0  0
 27 28  2  0  0  0
 27 32  1  0  0  0
 28 29  1  0  0  0
 28 60  1  0  0  0
 29 30  2  0  0  0
 29 61  1  0  0  0
 30 31  1  0  0  0
 30 62  1  0  0  0
 31 32  2  0  0  0
 31 63  1  0  0  0
 32 33  1  0  0  0
 33 34  2  0  0  0
 33 35  2  0  0  0
 33 36  1  0  0  0
 36 37  1  0  0  0
 36 38  1  0  0  0
 36 64  1  0  0  0
 37 65  1  0  0  0
 37 66  1  0  0  0
 37 67  1  0  0  0
 38 68  1  0  0  0
 38 69  1  0  0  0
 38 70  1  0  0  0
M  END
> <s_m_source_file>
../3gfw_ligand.sdf

> <i_m_source_file_index>
1

> <s_epik_input>
W09IXVtDSF0xW0NIMl1bQ0gyXU4oW0NIMl1bQ0gyXTEpYzJbY0hdYyhPW0NIM10pYyhbY0hdW2NIXTIpW05IXWMobjMpW2NIXWMoYyhjMzQpW0NIMl1bQ0hdPU40KVtOSF1jNVtjSF1bY0hdW2NIXVtjSF1jNVMoPU8pKD1PKVtDSF0oW0NIM10pW0NIM10=

> <s_epik_cmdline>
J2VwaWtfYXBwJywgJy1pbWFlJywgJ2xpZ2FuZF9wcm8ubWFlJywgJy1vbWFlJywgJ2xpZ2FuZF9wcmVwLm1hZScsICctbXMnLCAnMScsICctcGgnLCAnNycsICctcGh0JywgJzAuNScsICctbnQn

> <r_lp_tautomer_probability>
1

> <r_epik_Ionization_Penalty>
  0.1896

> <r_epik_Ionization_Penalty_Charging>
  0.0000

> <r_epik_Ionization_Penalty_Neutral>
  0.1896

> <r_epik_State_Penalty>
 -0.0000

> <r_epik_Charging_Adjusted_Penalty>
0

> <i_epik_Tot_Q>
0

> <i_epik_Tot_abs_Q>
0

> <s_epik_Chemistry_Notes>
This compound has an imine and may undergo hydrolysis.

$$$$
