3ggc_ligand
                    3D
 Schrodinger Suite 2020-3.
 31 32  0  0  1  0            999 V2000
   19.0370   10.7990   14.7110 O   0  0  0  0  0  0
   17.9180   11.0060   13.7180 P   0  0  0  0  0  0
   16.9520    9.8490   13.5900 O   0  5  0  0  0  0
   18.4090   11.5320   12.3880 O   0  0  0  0  0  0
   16.9100   12.3520   14.3970 C   0  0  0  0  0  0
   16.5860   12.1190   15.8720 C   0  0  0  0  0  0
   15.6780   13.1350   16.3140 O   0  0  0  0  0  0
   15.2460   12.9720   17.6650 C   0  0  0  0  0  0
   16.4340   12.8020   18.6090 C   0  0  0  0  0  0
   17.2580   14.0140   18.6990 N   0  0  0  0  0  0
   18.4640   14.1770   18.1330 C   0  0  0  0  0  0
   18.9360   15.4090   18.4300 N   0  0  0  0  0  0
   16.9560   15.1360   19.3670 C   0  0  0  0  0  0
   18.0080   16.0210   19.1950 C   0  0  0  0  0  0
   15.8880   15.5130   20.1110 N   0  0  0  0  0  0
   15.8460   16.7290   20.6750 C   0  0  0  0  0  0
   16.8540   17.6010   20.5250 N   0  0  0  0  0  0
   17.9440   17.2740   19.7910 C   0  0  0  0  0  0
   18.9690   18.1620   19.6380 O   0  0  0  0  0  0
   19.0543   10.9066   11.7536 H   0  0  0  0  0  0
   17.4576   13.3017   14.3065 H   0  0  0  0  0  0
   15.9644   12.4193   13.8391 H   0  0  0  0  0  0
   16.1234   11.1285   15.9937 H   0  0  0  0  0  0
   17.5127   12.1660   16.4628 H   0  0  0  0  0  0
   14.6747   13.8588   17.9768 H   0  0  0  0  0  0
   14.6077   12.0794   17.7407 H   0  0  0  0  0  0
   16.0687   12.5649   19.6191 H   0  0  0  0  0  0
   17.0741   11.9831   18.2490 H   0  0  0  0  0  0
   18.9821   13.4326   17.5284 H   0  0  0  0  0  0
   14.9761   17.0141   21.2666 H   0  0  0  0  0  0
   16.7997   18.5915   21.0003 H   0  0  0  0  0  0
  1  2  2  0  0  0
  2  3  1  0  0  0
  2  4  1  0  0  0
  2  5  1  0  0  0
  4 20  1  0  0  0
  5  6  1  0  0  0
  5 21  1  0  0  0
  5 22  1  0  0  0
  6  7  1  0  0  0
  6 23  1  0  0  0
  6 24  1  0  0  0
  7  8  1  0  0  0
  8  9  1  0  0  0
  8 25  1  0  0  0
  8 26  1  0  0  0
  9 10  1  0  0  0
  9 27  1  0  0  0
  9 28  1  0  0  0
 10 11  1  0  0  0
 10 13  1  0  0  0
 11 12  2  0  0  0
 11 29  1  0  0  0
 12 14  1  0  0  0
 13 14  2  0  0  0
 13 15  1  0  0  0
 14 18  1  0  0  0
 15 16  2  0  0  0
 16 17  1  0  0  0
 16 30  1  0  0  0
 17 18  1  0  0  0
 17 31  1  0  0  0
 18 19  2  0  0  0
M  CHG  1   3  -1
M  END
> <s_m_source_file>
../3ggc_ligand.sdf

> <i_m_source_file_index>
1

> <s_epik_input>
Tz1QKFtPSF0pKFtPSF0pW0NIMl1bQ0gyXU9bQ0gyXVtDSDJdbjFbY0hdbmMoYzEyKWMoPU8pW25IXVtjSF1uMg==

> <s_epik_cmdline>
J2VwaWtfYXBwJywgJy1pbWFlJywgJ2xpZ2FuZF9wcm8ubWFlJywgJy1vbWFlJywgJ2xpZ2FuZF9wcmVwLm1hZScsICctbXMnLCAnMScsICctcGgnLCAnNycsICctcGh0JywgJzAuNScsICctbnQn

> <r_lp_tautomer_probability>
0.855710295894835

> <r_epik_Ionization_Penalty>
  0.1562

> <r_epik_Ionization_Penalty_Charging>
  0.0068

> <r_epik_Ionization_Penalty_Neutral>
  0.1494

> <r_epik_State_Penalty>
  0.1386

> <r_epik_Charging_Adjusted_Penalty>
0.14542351473539

> <i_epik_Tot_Q>
-1

> <i_epik_Tot_abs_Q>
1

$$$$
