3ggj_ligand
                    3D
 Schrodinger Suite 2020-3.
 32 33  0  0  1  0            999 V2000
   18.7860   53.5100    6.7100 N   0  0  0  0  0  0
   20.6450   57.1360    8.6610 C   0  0  0  0  0  0
   19.9500   53.9050    7.3010 C   0  0  0  0  0  0
   21.0780   55.8700    8.4050 N   0  0  0  0  0  0
   20.0710   55.2070    7.7790 C   0  0  0  0  0  0
   17.7550   54.3900    6.5930 C   0  0  0  0  0  0
   21.7210   60.0450   12.3500 O   0  0  0  0  0  0
   20.6430   60.1770   13.4040 P   0  0  0  0  0  0
   20.2860   61.6220   13.7150 O   0  5  0  0  0  0
   20.8850   59.3070   14.6200 O   0  0  0  0  0  0
   19.1100   59.5380   12.6830 C   0  0  0  0  0  0
   19.3030   59.3850   11.1850 C   0  0  0  0  0  0
   18.5850   58.2240   10.7680 O   0  0  0  0  0  0
   17.7700   58.4770    9.6090 C   0  0  0  0  0  0
   18.5850   58.4850    8.3050 C   0  0  0  0  0  0
   19.3860   57.2700    8.1990 N   0  0  0  0  0  0
   19.0000   56.0900    7.6490 C   0  0  0  0  0  0
   17.8480   55.6580    7.0580 N   0  0  0  0  0  0
   16.6060   53.9970    6.0060 N   0  0  0  0  0  0
   20.9690   53.0820    7.4240 O   0  0  0  0  0  0
   21.2231   57.9145    9.1588 H   0  0  0  0  0  0
   21.7667   59.4812   15.2542 H   0  0  0  0  0  0
   18.8734   58.5615   13.1308 H   0  0  0  0  0  0
   18.2890   60.2420   12.8838 H   0  0  0  0  0  0
   18.9153   60.2777   10.6723 H   0  0  0  0  0  0
   20.3743   59.2710   10.9631 H   0  0  0  0  0  0
   17.0019   57.6943    9.5230 H   0  0  0  0  0  0
   17.2837   59.4585    9.7099 H   0  0  0  0  0  0
   17.9008   58.5394    7.4454 H   0  0  0  0  0  0
   19.2546   59.3576    8.2965 H   0  0  0  0  0  0
   16.5080   52.9713    5.6208 H   0  0  0  0  0  0
   15.7670   54.7022    5.9124 H   0  0  0  0  0  0
  1  3  1  0  0  0
  1  6  1  0  0  0
  2  4  2  0  0  0
  2 16  1  0  0  0
  2 21  1  0  0  0
  3  5  1  0  0  0
  3 20  2  0  0  0
  4  5  1  0  0  0
  5 17  2  0  0  0
  6 18  2  0  0  0
  6 19  1  0  0  0
  7  8  2  0  0  0
  8  9  1  0  0  0
  8 10  1  0  0  0
  8 11  1  0  0  0
 10 22  1  0  0  0
 11 12  1  0  0  0
 11 23  1  0  0  0
 11 24  1  0  0  0
 12 13  1  0  0  0
 12 25  1  0  0  0
 12 26  1  0  0  0
 13 14  1  0  0  0
 14 15  1  0  0  0
 14 27  1  0  0  0
 14 28  1  0  0  0
 15 16  1  0  0  0
 15 29  1  0  0  0
 15 30  1  0  0  0
 16 17  1  0  0  0
 17 18  1  0  0  0
 19 31  1  0  0  0
 19 32  1  0  0  0
M  CHG  1   9  -1
M  END
> <s_m_source_file>
../3ggj_ligand.sdf

> <i_m_source_file_index>
1

> <s_epik_input>
Tz1jMVtuSF0vYyg9TlxbSF0pW25IXWMoYzEyKW4oW2NIXW4yKVtDSDJdW0NIMl1PW0NIMl1bQ0gyXVAoPU8pKFtPSF0pW09IXQ==

> <s_epik_cmdline>
J2VwaWtfYXBwJywgJy1pbWFlJywgJ2xpZ2FuZF9wcm8ubWFlJywgJy1vbWFlJywgJ2xpZ2FuZF9wcmVwLm1hZScsICctbXMnLCAnMScsICctcGgnLCAnNycsICctcGh0JywgJzAuNScsICctbnQn

> <r_epik_Ionization_Penalty>
  3.6910

> <r_epik_Ionization_Penalty_Charging>
  0.0000

> <r_epik_Ionization_Penalty_Neutral>
  3.6909

> <r_epik_State_Penalty>
  0.1386

> <r_epik_Charging_Adjusted_Penalty>
0.138601990238062

> <i_epik_Tot_Q>
-1

> <i_epik_Tot_abs_Q>
1

> <s_epik_Chemistry_Notes>
This compound has an imine and may undergo hydrolysis.

$$$$
