3ggu_ligand
                    3D
 Schrodinger Suite 2020-3.
 75 78  0  0  1  0            999 V2000
   -9.3630   16.8160   18.7360 N   0  0  0  0  0  0
   -9.1960   16.5170   20.0320 C   0  0  0  0  0  0
  -10.3240   16.4200   20.8380 C   0  0  0  0  0  0
  -10.1840   16.1130   22.1820 C   0  0  0  0  0  0
   -8.9080   15.8960   22.7100 C   0  0  0  0  0  0
   -7.7810   15.9870   21.8870 C   0  0  0  0  0  0
   -7.9200   16.3050   20.5390 C   0  0  0  0  0  0
   -8.7740   15.5360   24.2600 S   0  0  0  0  0  0
   -9.9220   14.7830   24.6610 O   0  0  0  0  0  0
   -7.5990   14.7620   24.4660 O   0  0  0  0  0  0
   -8.6080   16.8270   25.2560 N   0  0  1  0  0  0
   -7.4760   17.7030   24.8680 C   0  0  0  0  0  0
   -6.9370   18.4360   26.1080 C   0  0  0  0  0  0
   -6.3150   17.4760   27.1190 C   0  0  0  0  0  0
   -5.9480   19.5240   25.7120 C   0  0  0  0  0  0
   -9.8680   17.5970   25.3870 C   0  0  0  0  0  0
  -10.3380   17.6320   26.8480 C   0  0  1  0  0  0
  -11.3910   18.5840   27.0110 O   0  0  0  0  0  0
  -10.8000   16.2660   27.3620 C   0  0  1  0  0  0
  -10.8560   16.4080   28.8070 N   0  0  0  0  0  0
   -9.9920   15.8310   29.6430 C   0  0  0  0  0  0
   -9.0390   15.1110   29.3290 O   0  0  0  0  0  0
  -10.2390   16.1190   31.0320 O   0  0  0  0  0  0
   -9.5500   15.3460   32.0010 C   0  0  1  0  0  0
   -9.2420   16.3700   33.0730 C   0  0  0  0  0  0
  -10.4870   16.5310   33.7560 O   0  0  0  0  0  0
  -11.1740   15.2720   33.7600 C   0  0  1  0  0  0
  -12.5360   15.4970   33.4170 O   0  0  0  0  0  0
  -12.9000   14.7710   32.2320 C   0  0  0  0  0  0
  -11.6850   13.9630   31.7920 C   0  0  0  0  0  0
  -10.5390   14.4150   32.6790 C   0  0  1  0  0  0
  -12.2200   15.8860   26.9260 C   0  0  0  0  0  0
  -13.5770   14.3570   28.3480 C   0  0  0  0  0  0
  -13.8270   13.0950   28.8470 C   0  0  0  0  0  0
  -13.0520   12.0110   28.4690 C   0  0  0  0  0  0
  -11.9960   12.1870   27.5850 C   0  0  0  0  0  0
  -11.7260   13.4490   27.0740 C   0  0  0  0  0  0
  -12.5230   14.5300   27.4540 C   0  0  0  0  0  0
  -10.3739   16.9836   18.3360 H   0  0  0  0  0  0
   -8.4891   16.8938   18.0725 H   0  0  0  0  0  0
  -11.3148   16.5847   20.4147 H   0  0  0  0  0  0
  -11.0627   16.0412   22.8230 H   0  0  0  0  0  0
   -6.7895   15.8081   22.3029 H   0  0  0  0  0  0
   -7.0451   16.3861   19.8940 H   0  0  0  0  0  0
   -6.6735   17.0922   24.4287 H   0  0  0  0  0  0
   -7.8205   18.4418   24.1295 H   0  0  0  0  0  0
   -7.7912   18.9181   26.6060 H   0  0  0  0  0  0
   -7.0481   16.7014   27.3881 H   0  0  0  0  0  0
   -6.0221   18.0329   28.0212 H   0  0  0  0  0  0
   -5.4266   17.0021   26.6761 H   0  0  0  0  0  0
   -6.4196   20.2010   24.9845 H   0  0  0  0  0  0
   -5.0573   19.0630   25.2602 H   0  0  0  0  0  0
   -5.6527   20.0939   26.6053 H   0  0  0  0  0  0
   -9.7045   18.6289   25.0430 H   0  0  0  0  0  0
  -10.6509   17.1260   24.7745 H   0  0  0  0  0  0
   -9.5059   17.9895   27.4723 H   0  0  0  0  0  0
  -11.2427   19.6274   26.6959 H   0  0  0  0  0  0
  -10.1009   15.4883   27.0207 H   0  0  0  0  0  0
  -11.6444   17.0200   29.2694 H   0  0  0  0  0  0
   -8.7124   14.8165   31.5235 H   0  0  0  0  0  0
   -8.4515   15.9834   33.7331 H   0  0  0  0  0  0
   -8.9017   17.3036   32.6013 H   0  0  0  0  0  0
  -11.1458   14.8299   34.7669 H   0  0  0  0  0  0
  -13.7435   14.1017   32.4567 H   0  0  0  0  0  0
  -13.1941   15.4796   31.4437 H   0  0  0  0  0  0
  -11.8906   12.8905   31.9238 H   0  0  0  0  0  0
  -11.4724   14.1681   30.7324 H   0  0  0  0  0  0
  -10.0035   13.5116   33.0063 H   0  0  0  0  0  0
  -12.9357   16.6169   27.3304 H   0  0  0  0  0  0
  -12.2784   15.8849   25.8275 H   0  0  0  0  0  0
  -14.1938   15.2040   28.6483 H   0  0  0  0  0  0
  -14.6473   12.9489   29.5497 H   0  0  0  0  0  0
  -13.2712   11.0197   28.8656 H   0  0  0  0  0  0
  -11.3804   11.3362   27.2930 H   0  0  0  0  0  0
  -10.8975   13.5948   26.3809 H   0  0  0  0  0  0
  1  2  1  0  0  0
  1 39  1  0  0  0
  1 40  1  0  0  0
  2  3  2  0  0  0
  2  7  1  0  0  0
  3  4  1  0  0  0
  3 41  1  0  0  0
  4  5  2  0  0  0
  4 42  1  0  0  0
  5  6  1  0  0  0
  5  8  1  0  0  0
  6  7  2  0  0  0
  6 43  1  0  0  0
  7 44  1  0  0  0
  8  9  2  0  0  0
  8 10  2  0  0  0
  8 11  1  0  0  0
 11 12  1  0  0  0
 11 16  1  0  0  0
 12 13  1  0  0  0
 12 45  1  0  0  0
 12 46  1  0  0  0
 13 14  1  0  0  0
 13 15  1  0  0  0
 13 47  1  0  0  0
 14 48  1  0  0  0
 14 49  1  0  0  0
 14 50  1  0  0  0
 15 51  1  0  0  0
 15 52  1  0  0  0
 15 53  1  0  0  0
 16 17  1  0  0  0
 16 54  1  0  0  0
 16 55  1  0  0  0
 17 18  1  0  0  0
 17 19  1  0  0  0
 17 56  1  0  0  0
 18 57  1  0  0  0
 19 20  1  0  0  0
 19 32  1  0  0  0
 19 58  1  0  0  0
 20 21  1  0  0  0
 20 59  1  0  0  0
 21 22  2  0  0  0
 21 23  1  0  0  0
 23 24  1  0  0  0
 24 25  1  0  0  0
 24 31  1  0  0  0
 24 60  1  0  0  0
 25 26  1  0  0  0
 25 61  1  0  0  0
 25 62  1  0  0  0
 26 27  1  0  0  0
 27 28  1  0  0  0
 27 31  1  0  0  0
 27 63  1  0  0  0
 28 29  1  0  0  0
 29 30  1  0  0  0
 29 64  1  0  0  0
 29 65  1  0  0  0
 30 31  1  0  0  0
 30 66  1  0  0  0
 30 67  1  0  0  0
 31 68  1  0  0  0
 32 38  1  0  0  0
 32 69  1  0  0  0
 32 70  1  0  0  0
 33 34  2  0  0  0
 33 38  1  0  0  0
 33 71  1  0  0  0
 34 35  1  0  0  0
 34 72  1  0  0  0
 35 36  2  0  0  0
 35 73  1  0  0  0
 36 37  1  0  0  0
 36 74  1  0  0  0
 37 38  2  0  0  0
 37 75  1  0  0  0
M  END
> <s_m_source_file>
../3ggu_ligand.sdf

> <i_m_source_file_index>
1

> <s_epik_input>
W05IMl1jMVtjSF1bY0hdYyhbY0hdW2NIXTEpUyg9TykoPU8pTihbQ0gyXVtDSF0oW0NIM10pW0NIM10pW0NIMl1bQ0BASF0oW09IXSlbQ0BASF0oW05IXUMoPU8pT1tDQEBIXShbQ0gyXU8yKVtDQEBIXShbQ0BASF0yMylbQ0gyXVtDSDJdTzMpW0NIMl1jNFtjSF1bY0hdW2NIXVtjSF1bY0hdNA==

> <s_epik_cmdline>
J2VwaWtfYXBwJywgJy1pbWFlJywgJ2xpZ2FuZF9wcm8ubWFlJywgJy1vbWFlJywgJ2xpZ2FuZF9wcmVwLm1hZScsICctbXMnLCAnMScsICctcGgnLCAnNycsICctcGh0JywgJzAuNScsICctbnQn

> <r_lp_tautomer_probability>
1

> <r_epik_Ionization_Penalty>
  0.0000

> <r_epik_Ionization_Penalty_Charging>
  0.0000

> <r_epik_Ionization_Penalty_Neutral>
  0.0000

> <r_epik_State_Penalty>
 -0.0000

> <r_epik_Charging_Adjusted_Penalty>
0

> <i_epik_Tot_Q>
0

> <i_epik_Tot_abs_Q>
0

> <s_epik_Chemistry_Notes>
This compound has an ester and may undergo hydrolysis at high or low pH. This compound contains an acetal/aminal-like group ( X-CH(R)-Y where X, Y are N, S, or O) that may be acid/base labile, releasing an aldehyde.

$$$$
