3ggv_ligand
                    3D
 Schrodinger Suite 2020-3.
126130  0  0  1  0            999 V2000
   11.5840    2.9970    3.8200 C   0  0  0  0  0  0
   12.0460   -0.2580    5.0850 N   0  0  0  0  0  0
   11.8920    1.6060    3.8300 O   0  0  0  0  0  0
   11.9290    1.1090    5.1000 C   0  0  0  0  0  0
   11.8890    1.7880    6.1230 O   0  0  0  0  0  0
   12.6350   -0.8680    6.2580 C   0  0  2  0  0  0
   13.8870   -1.5470    5.7570 C   0  0  0  0  0  0
   13.8590   -2.5160    5.0140 O   0  0  0  0  0  0
   15.0230   -0.9100    6.2450 N   0  0  0  0  0  0
   16.3710   -1.1300    5.7740 C   0  0  1  0  0  0
   16.9310   -2.4730    6.2100 C   0  0  0  0  0  0
   16.5860   -2.9440    7.6180 C   0  0  2  0  0  0
   17.3590   -2.2010    8.5650 O   0  0  0  0  0  0
   16.8120   -4.4650    7.7490 C   0  0  2  0  0  0
   16.1400   -5.0100    8.9840 C   0  0  0  0  0  0
   16.3780   -6.4660    9.2230 C   0  0  0  0  0  0
   15.6780   -7.4290    8.5320 C   0  0  0  0  0  0
   15.9140   -8.7660    8.7800 C   0  0  0  0  0  0
   16.8420   -9.1680    9.7160 C   0  0  0  0  0  0
   17.5330   -8.2050   10.4110 C   0  0  0  0  0  0
   17.3010   -6.8670   10.1660 C   0  0  0  0  0  0
   18.1940   -4.9060    7.7250 N   0  0  0  0  0  0
   18.6420   -5.7400    6.7170 C   0  0  0  0  0  0
   17.9440   -6.2230    5.8330 O   0  0  0  0  0  0
   20.1250   -6.0030    6.8110 C   0  0  1  0  0  0
   20.2080   -7.3540    7.3600 N   0  0  0  0  0  0
   19.5460   -8.4630    6.8920 C   0  0  0  0  0  0
   19.8510   -9.4980    7.6760 C   0  0  0  0  0  0
   20.6950   -9.0350    8.6360 N   0  0  0  0  0  0
   21.2480   -9.8700    9.6790 C   0  0  0  0  0  0
   20.2530  -10.4530   10.6470 C   0  0  0  0  0  0
   19.9820   -9.8290   11.8510 C   0  0  0  0  0  0
   19.0680  -10.3880   12.7240 C   0  0  0  0  0  0
   18.4530  -11.5620   12.3610 C   0  0  0  0  0  0
   18.7740  -12.1280   11.1430 C   0  0  0  0  0  0
   19.6580  -11.5970   10.2890 N   0  0  0  0  0  0
   18.1420  -13.4050   10.6860 C   0  0  0  0  0  0
   17.5300  -13.1750    9.3230 C   0  0  0  0  0  0
   17.1230  -13.9520   11.6670 C   0  0  0  0  0  0
   19.1460  -14.3970   10.5490 O   0  0  0  0  0  0
   20.9450   -7.6860    8.4730 C   0  0  0  0  0  0
   21.6470   -6.9470    9.1480 O   0  0  0  0  0  0
   20.8100   -5.7000    5.4750 C   0  0  0  0  0  0
   20.2940   -4.3750    4.9470 C   0  0  0  0  0  0
   22.3000   -5.6120    5.6830 C   0  0  0  0  0  0
   20.6160   -6.7550    4.4120 C   0  0  0  0  0  0
   16.5240   -1.0740    4.2580 C   0  0  0  0  0  0
   15.8370    0.0340    3.5180 C   0  0  0  0  0  0
   15.2600   -0.2240    2.2910 C   0  0  0  0  0  0
   14.6280    0.7650    1.5680 C   0  0  0  0  0  0
   14.5470    2.0550    2.0570 C   0  0  0  0  0  0
   15.1240    2.2950    3.2890 C   0  0  0  0  0  0
   15.7640    1.3130    4.0140 C   0  0  0  0  0  0
   13.9180    3.1500    1.3050 C   0  0  0  0  0  0
   13.9940    4.4520    1.7720 C   0  0  0  0  0  0
   13.4180    5.4560    1.0250 C   0  0  0  0  0  0
   12.7790    5.1410   -0.1580 C   0  0  0  0  0  0
   12.7410    3.8250   -0.5560 C   0  0  0  0  0  0
   13.3000    2.8320    0.1450 N   0  0  0  0  0  0
   11.6560   -1.7450    7.0350 C   0  0  0  0  0  0
   10.8450   -2.6570    6.1590 C   0  0  0  0  0  0
   12.3830   -2.6100    8.0360 C   0  0  0  0  0  0
   10.6820   -0.8520    7.7620 C   0  0  0  0  0  0
   11.5632    3.3605    2.7820 H   0  0  0  0  0  0
   12.3509    3.5464    4.3856 H   0  0  0  0  0  0
   10.6000    3.1580    4.2846 H   0  0  0  0  0  0
   11.7199   -0.8865    4.2432 H   0  0  0  0  0  0
   12.8941   -0.0922    6.9936 H   0  0  0  0  0  0
   14.8338   -0.1889    7.0538 H   0  0  0  0  0  0
   16.8761   -0.2813    6.2584 H   0  0  0  0  0  0
   16.5614   -3.2604    5.5367 H   0  0  0  0  0  0
   18.0299   -2.4425    6.1701 H   0  0  0  0  0  0
   15.5431   -2.7058    7.8741 H   0  0  0  0  0  0
   17.2964   -1.1030    8.5855 H   0  0  0  0  0  0
   16.4021   -4.9181    6.8343 H   0  0  0  0  0  0
   16.5110   -4.4740    9.8701 H   0  0  0  0  0  0
   15.0519   -4.8716    8.9007 H   0  0  0  0  0  0
   14.9369   -7.1354    7.7886 H   0  0  0  0  0  0
   15.3551   -9.5190    8.2244 H   0  0  0  0  0  0
   17.0239  -10.2267    9.9010 H   0  0  0  0  0  0
   18.2683   -8.4995   11.1598 H   0  0  0  0  0  0
   17.8561   -6.1150   10.7267 H   0  0  0  0  0  0
   18.8900   -4.5770    8.5107 H   0  0  0  0  0  0
   20.6950   -5.3771    7.5134 H   0  0  0  0  0  0
   18.8838   -8.4922    6.0267 H   0  0  0  0  0  0
   19.4916  -10.5213    7.5676 H   0  0  0  0  0  0
   21.7727  -10.7238    9.2255 H   0  0  0  0  0  0
   21.9562   -9.2828   10.2820 H   0  0  0  0  0  0
   20.4878   -8.8990   12.1107 H   0  0  0  0  0  0
   18.8406   -9.9096   13.6767 H   0  0  0  0  0  0
   17.7268  -12.0367   13.0208 H   0  0  0  0  0  0
   16.7452  -12.4079    9.3982 H   0  0  0  0  0  0
   17.0908  -14.1140    8.9551 H   0  0  0  0  0  0
   18.3086  -12.8357    8.6240 H   0  0  0  0  0  0
   16.3183  -13.2155   11.8086 H   0  0  0  0  0  0
   17.6126  -14.1502   12.6319 H   0  0  0  0  0  0
   16.6990  -14.8870   11.2721 H   0  0  0  0  0  0
   20.0021  -14.2244    9.8803 H   0  0  0  0  0  0
   20.4298   -3.5972    5.7129 H   0  0  0  0  0  0
   19.2251   -4.4682    4.7045 H   0  0  0  0  0  0
   20.8529   -4.0988    4.0407 H   0  0  0  0  0  0
   22.5189   -4.8559    6.4513 H   0  0  0  0  0  0
   22.7858   -5.3262    4.7384 H   0  0  0  0  0  0
   22.6828   -6.5897    6.0111 H   0  0  0  0  0  0
   19.5421   -6.8749    4.2061 H   0  0  0  0  0  0
   21.0308   -7.7110    4.7642 H   0  0  0  0  0  0
   21.1338   -6.4476    3.4915 H   0  0  0  0  0  0
   17.5884   -0.9704    4.0005 H   0  0  0  0  0  0
   16.1280   -1.9997    3.8150 H   0  0  0  0  0  0
   15.3051   -1.2341    1.8839 H   0  0  0  0  0  0
   14.1873    0.5269    0.5999 H   0  0  0  0  0  0
   15.0710    3.3014    3.7044 H   0  0  0  0  0  0
   16.2114    1.5507    4.9791 H   0  0  0  0  0  0
   14.4992    4.6774    2.7112 H   0  0  0  0  0  0
   13.4662    6.4905    1.3649 H   0  0  0  0  0  0
   12.3144    5.9191   -0.7637 H   0  0  0  0  0  0
   12.2309    3.5792   -1.4874 H   0  0  0  0  0  0
   11.5182   -3.3295    5.6071 H   0  0  0  0  0  0
   10.2609   -2.0567    5.4459 H   0  0  0  0  0  0
   10.1621   -3.2526    6.7826 H   0  0  0  0  0  0
   13.0943   -3.2625    7.5085 H   0  0  0  0  0  0
   11.6557   -3.2273    8.5837 H   0  0  0  0  0  0
   12.9288   -1.9704    8.7453 H   0  0  0  0  0  0
   10.1506   -0.2204    7.0349 H   0  0  0  0  0  0
   11.2290   -0.2137    8.4715 H   0  0  0  0  0  0
    9.9560   -1.4707    8.3099 H   0  0  0  0  0  0
  1  3  1  0  0  0
  1 64  1  0  0  0
  1 65  1  0  0  0
  1 66  1  0  0  0
  2  4  1  0  0  0
  2  6  1  0  0  0
  2 67  1  0  0  0
  3  4  1  0  0  0
  4  5  2  0  0  0
  6  7  1  0  0  0
  6 60  1  0  0  0
  6 68  1  0  0  0
  7  8  2  0  0  0
  7  9  1  0  0  0
  9 10  1  0  0  0
  9 69  1  0  0  0
 10 11  1  0  0  0
 10 47  1  0  0  0
 10 70  1  0  0  0
 11 12  1  0  0  0
 11 71  1  0  0  0
 11 72  1  0  0  0
 12 13  1  0  0  0
 12 14  1  0  0  0
 12 73  1  0  0  0
 13 74  1  0  0  0
 14 15  1  0  0  0
 14 22  1  0  0  0
 14 75  1  0  0  0
 15 16  1  0  0  0
 15 76  1  0  0  0
 15 77  1  0  0  0
 16 17  2  0  0  0
 16 21  1  0  0  0
 17 18  1  0  0  0
 17 78  1  0  0  0
 18 19  2  0  0  0
 18 79  1  0  0  0
 19 20  1  0  0  0
 19 80  1  0  0  0
 20 21  2  0  0  0
 20 81  1  0  0  0
 21 82  1  0  0  0
 22 23  1  0  0  0
 22 83  1  0  0  0
 23 24  2  0  0  0
 23 25  1  0  0  0
 25 26  1  0  0  0
 25 43  1  0  0  0
 25 84  1  0  0  0
 26 27  1  0  0  0
 26 41  1  0  0  0
 27 28  2  0  0  0
 27 85  1  0  0  0
 28 29  1  0  0  0
 28 86  1  0  0  0
 29 30  1  0  0  0
 29 41  1  0  0  0
 30 31  1  0  0  0
 30 87  1  0  0  0
 30 88  1  0  0  0
 31 32  2  0  0  0
 31 36  1  0  0  0
 32 33  1  0  0  0
 32 89  1  0  0  0
 33 34  2  0  0  0
 33 90  1  0  0  0
 34 35  1  0  0  0
 34 91  1  0  0  0
 35 36  2  0  0  0
 35 37  1  0  0  0
 37 38  1  0  0  0
 37 39  1  0  0  0
 37 40  1  0  0  0
 38 92  1  0  0  0
 38 93  1  0  0  0
 38 94  1  0  0  0
 39 95  1  0  0  0
 39 96  1  0  0  0
 39 97  1  0  0  0
 40 98  1  0  0  0
 41 42  2  0  0  0
 43 44  1  0  0  0
 43 45  1  0  0  0
 43 46  1  0  0  0
 44 99  1  0  0  0
 44100  1  0  0  0
 44101  1  0  0  0
 45102  1  0  0  0
 45103  1  0  0  0
 45104  1  0  0  0
 46105  1  0  0  0
 46106  1  0  0  0
 46107  1  0  0  0
 47 48  1  0  0  0
 47108  1  0  0  0
 47109  1  0  0  0
 48 49  2  0  0  0
 48 53  1  0  0  0
 49 50  1  0  0  0
 49110  1  0  0  0
 50 51  2  0  0  0
 50111  1  0  0  0
 51 52  1  0  0  0
 51 54  1  0  0  0
 52 53  2  0  0  0
 52112  1  0  0  0
 53113  1  0  0  0
 54 55  2  0  0  0
 54 59  1  0  0  0
 55 56  1  0  0  0
 55114  1  0  0  0
 56 57  2  0  0  0
 56115  1  0  0  0
 57 58  1  0  0  0
 57116  1  0  0  0
 58 59  2  0  0  0
 58117  1  0  0  0
 60 61  1  0  0  0
 60 62  1  0  0  0
 60 63  1  0  0  0
 61118  1  0  0  0
 61119  1  0  0  0
 61120  1  0  0  0
 62121  1  0  0  0
 62122  1  0  0  0
 62123  1  0  0  0
 63124  1  0  0  0
 63125  1  0  0  0
 63126  1  0  0  0
M  END
> <s_m_source_file>
../3ggv_ligand.sdf

> <i_m_source_file_index>
1

> <s_epik_input>
bjFbY0hdW2NIXVtjSF1bY0hdYzEtYyhbY0hdW2NIXTIpW2NIXVtjSF1jMltDSDJdW0NAQEhdKFtOSF1DKD1PKVtDQEhdKEMoW0NIM10pKFtDSDNdKVtDSDNdKVtOSF1DKD1PKU9bQ0gzXSlbQ0gyXVtDQEhdKFtPSF0pW0NASF0oW0NIMl1jM1tjSF1bY0hdW2NIXVtjSF1bY0hdMylbTkhdQyg9TylbQ0BIXShDKFtDSDNdKShbQ0gzXSlbQ0gzXSluNFtjSF1bY0hdbihjND1PKVtDSDJdYzVbY0hdW2NIXVtjSF1jKG41KUMoW0NIM10pKFtDSDNdKVtPSF0=

> <s_epik_cmdline>
J2VwaWtfYXBwJywgJy1pbWFlJywgJ2xpZ2FuZF9wcm8ubWFlJywgJy1vbWFlJywgJ2xpZ2FuZF9wcmVwLm1hZScsICctbXMnLCAnMScsICctcGgnLCAnNycsICctcGh0JywgJzAuNScsICctbnQn

> <r_lp_tautomer_probability>
1

> <r_epik_Ionization_Penalty>
  0.0103

> <r_epik_Ionization_Penalty_Charging>
  0.0000

> <r_epik_Ionization_Penalty_Neutral>
  0.0103

> <r_epik_State_Penalty>
  0.0077

> <r_epik_Charging_Adjusted_Penalty>
0.00770561126569748

> <i_epik_Tot_Q>
0

> <i_epik_Tot_abs_Q>
0

> <s_epik_Chemistry_Notes>
This compound has an ester and may undergo hydrolysis at high or low pH.

$$$$
