3ggw_ligand
                    3D
 Schrodinger Suite 2020-3.
202205  0  0  1  0            999 V2000
   33.1580  -15.2710   72.4120 N   0  3  0  0  0  0
   32.3760  -14.4160   71.4820 C   0  0  2  0  0  0
   31.9100  -13.1110   72.1210 C   0  0  0  0  0  0
   32.2600  -12.0360   71.6460 O   0  0  0  0  0  0
   31.1560  -15.1440   70.8950 C   0  0  0  0  0  0
   30.4280  -14.1780   70.0080 C   0  0  0  0  0  0
   30.9360  -13.8480   68.7570 C   0  0  0  0  0  0
   29.3470  -13.4770   70.4750 C   0  0  0  0  0  0
   30.3310  -12.8600   67.9750 C   0  0  0  0  0  0
   28.7260  -12.5170   69.7110 C   0  0  0  0  0  0
   29.2200  -12.2010   68.4700 C   0  0  0  0  0  0
   28.5690  -11.2280   67.7490 O   0  0  0  0  0  0
   31.1270  -13.2170   73.1930 N   0  0  0  0  0  0
   30.5200  -12.0380   73.8070 C   0  0  2  0  0  0
   31.5300  -11.0340   74.2940 C   0  0  0  0  0  0
   31.3580   -9.8260   74.1200 O   0  0  0  0  0  0
   29.5210  -12.4110   74.9100 C   0  0  0  0  0  0
   28.1110  -12.6550   74.3500 C   0  0  0  0  0  0
   27.1740  -13.3020   75.3600 C   0  0  0  0  0  0
   27.4780  -11.4040   73.7720 C   0  0  0  0  0  0
   32.6050  -11.5250   74.8750 N   0  0  0  0  0  0
   33.6650  -10.6510   75.3380 C   0  0  2  0  0  0
   34.1800   -9.8320   74.1590 C   0  0  0  0  0  0
   34.3450   -8.6150   74.2760 O   0  0  0  0  0  0
   34.8060  -11.4560   75.9700 C   0  0  0  0  0  0
   34.4110  -12.1410   77.2600 C   0  0  0  0  0  0
   33.6880  -13.4770   77.0870 C   0  0  0  0  0  0
   33.5550  -14.0330   75.9560 O   0  0  0  0  0  0
   33.2570  -13.9890   78.1340 O   0  0  0  0  0  0
   34.4180  -10.5010   73.0260 N   0  0  0  0  0  0
   34.9020   -9.8290   71.8000 C   0  0  2  0  0  0
   33.8810   -8.8260   71.2740 C   0  0  0  0  0  0
   34.2440   -7.7040   70.9130 O   0  0  0  0  0  0
   35.1970  -10.8490   70.6920 C   0  0  0  0  0  0
   36.4380  -11.7000   70.9610 C   0  0  0  0  0  0
   37.2330  -11.3910   71.8780 O   0  0  0  0  0  0
   36.6320  -12.6710   70.2060 O   0  0  0  0  0  0
   32.6100   -9.2430   71.2180 N   0  0  0  0  0  0
   31.5090   -8.3790   70.7650 C   0  0  2  0  0  0
   31.3900   -7.1530   71.6520 C   0  0  0  0  0  0
   31.2710   -6.0060   71.1700 O   0  0  0  0  0  0
   30.1620   -9.1230   70.7520 C   0  0  0  0  0  0
   29.0070   -8.2020   70.5210 C   0  0  0  0  0  0
   28.1930   -7.6570   71.4630 C   0  0  0  0  0  0
   28.5790   -7.6550   69.2570 C   0  0  0  0  0  0
   27.2980   -6.8030   70.8730 N   0  0  0  0  0  0
   27.5080   -6.7860   69.5230 C   0  0  0  0  0  0
   28.9890   -7.8370   67.9270 C   0  0  0  0  0  0
   26.8180   -6.0930   68.5100 C   0  0  0  0  0  0
   28.3060   -7.1340   66.9100 C   0  0  0  0  0  0
   27.2400   -6.2720   67.2220 C   0  0  0  0  0  0
   31.3930   -7.3880   72.9590 N   0  0  0  0  0  0
   31.1710   -6.2940   73.9030 C   0  0  2  0  0  0
   32.2880   -5.2680   73.8040 C   0  0  0  0  0  0
   32.0200   -4.0520   73.7430 O   0  0  0  0  0  0
   31.0060   -6.8380   75.3270 C   0  0  2  0  0  0
   29.6220   -7.4830   75.4460 C   0  0  0  0  0  0
   31.2230   -5.7070   76.3370 C   0  0  0  0  0  0
   29.4530   -8.3640   76.6300 C   0  0  0  0  0  0
   33.5240   -5.7480   73.7640 N   0  0  0  0  0  0
   34.6950   -4.8870   73.5700 C   0  0  2  0  0  0
   34.5280   -4.1030   72.2800 C   0  0  0  0  0  0
   34.5570   -2.8670   72.2680 O   0  0  0  0  0  0
   35.9770   -5.7250   73.5480 C   0  0  0  0  0  0
   37.3010   -4.9240   73.6650 C   0  0  0  0  0  0
   38.5180   -5.8720   73.7170 C   0  0  0  0  0  0
   39.8110   -5.2530   73.1370 C   0  0  0  0  0  0
   41.0070   -6.1120   73.4580 N   0  3  0  0  0  0
   34.3040   -4.8170   71.1870 N   0  0  0  0  0  0
   34.0870   -4.1740   69.8890 C   0  0  2  0  0  0
   32.9790   -3.1130   69.9250 C   0  0  0  0  0  0
   33.1800   -1.9760   69.4880 O   0  0  0  0  0  0
   33.7720   -5.2560   68.8500 C   0  0  0  0  0  0
   33.0490   -4.7740   67.6000 C   0  0  0  0  0  0
   33.6820   -3.9520   66.6770 C   0  0  0  0  0  0
   31.7440   -5.1620   67.3410 C   0  0  0  0  0  0
   33.0280   -3.5320   65.5440 C   0  0  0  0  0  0
   31.0780   -4.7460   66.1900 C   0  0  0  0  0  0
   31.7250   -3.9260   65.3060 C   0  0  0  0  0  0
   31.0610   -3.5280   64.1810 O   0  0  0  0  0  0
   31.8190   -3.4820   70.4550 N   0  0  0  0  0  0
   30.6110   -2.6560   70.4170 C   0  0  2  0  0  0
   30.7060   -1.4000   71.3050 C   0  0  0  0  0  0
   30.0430   -0.3820   71.0340 O   0  0  0  0  0  0
   29.4040   -3.5080   70.8310 C   0  0  0  0  0  0
   28.0900   -2.7690   70.7300 C   0  0  0  0  0  0
   27.6550   -2.3870   69.6500 O   0  0  0  0  0  0
   27.4360   -2.5750   71.8780 N   0  0  0  0  0  0
   31.5100   -1.4820   72.3610 N   0  0  0  0  0  0
   31.7260   -0.3300   73.2440 C   0  0  2  0  0  0
   32.6010    0.6980   72.5520 C   0  0  0  0  0  0
   32.3630    1.9100   72.6910 O   0  0  0  0  0  0
   32.3370   -0.7680   74.5820 C   0  0  0  0  0  0
   31.3000   -1.3770   75.5240 C   0  0  0  0  0  0
   30.0990   -1.3560   75.2350 O   0  0  0  0  0  0
   31.7590   -1.9070   76.6610 N   0  0  0  0  0  0
   33.5990    0.2140   71.8060 N   0  0  0  0  0  0
   34.4810    1.0720   71.0040 C   0  0  2  0  0  0
   33.6730    1.6930   69.8660 C   0  0  0  0  0  0
   34.1970    2.4770   69.0850 O   0  0  0  0  0  0
   35.6550    0.2630   70.4250 C   0  0  0  0  0  0
   36.5790   -0.3520   71.4860 C   0  0  0  0  0  0
   37.4480   -1.4970   70.9690 C   0  0  0  0  0  0
   37.2060   -2.0310   69.8910 O   0  0  0  0  0  0
   38.4590   -1.8890   71.7530 N   0  0  0  0  0  0
   34.0153  -14.7016   72.8003 H   0  0  0  0  0  0
   33.5210  -16.1599   71.8753 H   0  0  0  0  0  0
   32.5166  -15.5844   73.2489 H   0  0  0  0  0  0
   33.1054  -14.1917   70.6897 H   0  0  0  0  0  0
   31.4933  -16.0153   70.3144 H   0  0  0  0  0  0
   30.5008  -15.4795   71.7125 H   0  0  0  0  0  0
   31.8179  -14.3666   68.3808 H   0  0  0  0  0  0
   28.9703  -13.6855   71.4764 H   0  0  0  0  0  0
   30.7284  -12.6127   66.9906 H   0  0  0  0  0  0
   27.8410  -12.0067   70.0911 H   0  0  0  0  0  0
   28.9342  -10.9465   66.7503 H   0  0  0  0  0  0
   30.9403  -14.2151   73.6160 H   0  0  0  0  0  0
   29.9883  -11.5665   72.9673 H   0  0  0  0  0  0
   29.8555  -13.3309   75.4118 H   0  0  0  0  0  0
   29.4627  -11.5935   75.6437 H   0  0  0  0  0  0
   28.2449  -13.3644   73.5201 H   0  0  0  0  0  0
   27.6457  -14.2070   75.7704 H   0  0  0  0  0  0
   26.2306  -13.5731   74.8636 H   0  0  0  0  0  0
   26.9686  -12.5934   76.1759 H   0  0  0  0  0  0
   28.1656  -10.9477   73.0446 H   0  0  0  0  0  0
   27.2737  -10.6886   74.5822 H   0  0  0  0  0  0
   26.5356  -11.6683   73.2699 H   0  0  0  0  0  0
   32.6925  -12.6135   75.0072 H   0  0  0  0  0  0
   33.2142  -10.0005   76.1020 H   0  0  0  0  0  0
   35.1370  -12.2358   75.2683 H   0  0  0  0  0  0
   35.6475  -10.7844   76.1954 H   0  0  0  0  0  0
   35.3118  -12.3453   77.8574 H   0  0  0  0  0  0
   33.7337  -11.4877   77.8296 H   0  0  0  0  0  0
   33.0276  -14.9949   75.8746 H   0  0  0  0  0  0
   34.2421  -11.5868   73.0251 H   0  0  0  0  0  0
   35.8193   -9.3067   72.1093 H   0  0  0  0  0  0
   34.3435  -11.5351   70.5886 H   0  0  0  0  0  0
   35.3600  -10.3206   69.7411 H   0  0  0  0  0  0
   38.1237  -12.0087   72.0651 H   0  0  0  0  0  0
   32.4048  -10.2781   71.5285 H   0  0  0  0  0  0
   31.7901   -8.0848   69.7430 H   0  0  0  0  0  0
   30.1653   -9.8734   69.9477 H   0  0  0  0  0  0
   30.0102   -9.6235   71.7197 H   0  0  0  0  0  0
   28.2444   -7.8681   72.5311 H   0  0  0  0  0  0
   29.8153   -8.5053   67.6846 H   0  0  0  0  0  0
   25.9786   -5.4382   68.7440 H   0  0  0  0  0  0
   28.6090   -7.2613   65.8707 H   0  0  0  0  0  0
   26.7381   -5.7337   66.4180 H   0  0  0  0  0  0
   31.5631   -8.4092   73.3307 H   0  0  0  0  0  0
   30.2336   -5.8053   73.5988 H   0  0  0  0  0  0
   31.7574   -7.6104   75.5482 H   0  0  0  0  0  0
   28.8563   -6.6968   75.5203 H   0  0  0  0  0  0
   29.4278   -8.1011   74.5570 H   0  0  0  0  0  0
   32.2299   -5.2846   76.2037 H   0  0  0  0  0  0
   31.1240   -6.1034   77.3583 H   0  0  0  0  0  0
   30.4710   -4.9208   76.1743 H   0  0  0  0  0  0
   28.4352   -8.7812   76.6343 H   0  0  0  0  0  0
   29.6135   -7.7794   77.5479 H   0  0  0  0  0  0
   30.1851   -9.1837   76.5846 H   0  0  0  0  0  0
   33.6534   -6.8339   73.8827 H   0  0  0  0  0  0
   34.7376   -4.1908   74.4206 H   0  0  0  0  0  0
   35.9671   -6.4325   74.3902 H   0  0  0  0  0  0
   36.0344   -6.2825   72.6015 H   0  0  0  0  0  0
   37.4069   -4.2614   72.7934 H   0  0  0  0  0  0
   37.2844   -4.3204   74.5845 H   0  0  0  0  0  0
   38.7253   -6.1455   74.7621 H   0  0  0  0  0  0
   38.3001   -6.7806   73.1365 H   0  0  0  0  0  0
   39.7187   -5.1682   72.0442 H   0  0  0  0  0  0
   39.9657   -4.2539   73.5705 H   0  0  0  0  0  0
   41.9127   -5.6520   73.0359 H   0  0  0  0  0  0
   40.8671   -7.1126   73.0230 H   0  0  0  0  0  0
   41.1141   -6.1983   74.5494 H   0  0  0  0  0  0
   34.2828   -5.9138   71.2678 H   0  0  0  0  0  0
   35.0292   -3.6552   69.6585 H   0  0  0  0  0  0
   34.7091   -5.7190   68.5071 H   0  0  0  0  0  0
   33.1283   -6.0239   69.3039 H   0  0  0  0  0  0
   34.7102   -3.6361   66.8535 H   0  0  0  0  0  0
   31.2277   -5.8062   68.0527 H   0  0  0  0  0  0
   33.5388   -2.8857   64.8303 H   0  0  0  0  0  0
   30.0553   -5.0694   65.9963 H   0  0  0  0  0  0
   31.5574   -2.8689   63.4536 H   0  0  0  0  0  0
   31.7961   -4.4678   70.9424 H   0  0  0  0  0  0
   30.5360   -2.3263   69.3702 H   0  0  0  0  0  0
   29.3385   -4.3920   70.1796 H   0  0  0  0  0  0
   29.5239   -3.8305   71.8758 H   0  0  0  0  0  0
   27.8662   -2.9360   72.8238 H   0  0  0  0  0  0
   26.4671   -2.0542   71.8778 H   0  0  0  0  0  0
   32.0176   -2.4358   72.5672 H   0  0  0  0  0  0
   30.7344    0.1088   73.4290 H   0  0  0  0  0  0
   33.1155   -1.5235   74.3997 H   0  0  0  0  0  0
   32.7822    0.1034   75.0846 H   0  0  0  0  0  0
   32.8382   -1.9020   76.8738 H   0  0  0  0  0  0
   31.0578   -2.3484   77.3845 H   0  0  0  0  0  0
   33.7463   -0.8761   71.8090 H   0  0  0  0  0  0
   34.8639    1.8482   71.6830 H   0  0  0  0  0  0
   32.6110    1.4300   69.7517 H   0  0  0  0  0  0
   35.2643   -0.5665   69.8173 H   0  0  0  0  0  0
   36.2764    0.9174   69.7960 H   0  0  0  0  0  0
   37.2592    0.4213   71.8724 H   0  0  0  0  0  0
   35.9731   -0.7532   72.3118 H   0  0  0  0  0  0
   38.6399   -1.3817   72.7121 H   0  0  0  0  0  0
   39.1093   -2.7186   71.4384 H   0  0  0  0  0  0
  1  2  1  0  0  0
  1106  1  0  0  0
  1107  1  0  0  0
  1108  1  0  0  0
  2  3  1  0  0  0
  2  5  1  0  0  0
  2109  1  0  0  0
  3  4  2  0  0  0
  3 13  1  0  0  0
  5  6  1  0  0  0
  5110  1  0  0  0
  5111  1  0  0  0
  6  7  2  0  0  0
  6  8  1  0  0  0
  7  9  1  0  0  0
  7112  1  0  0  0
  8 10  2  0  0  0
  8113  1  0  0  0
  9 11  2  0  0  0
  9114  1  0  0  0
 10 11  1  0  0  0
 10115  1  0  0  0
 11 12  1  0  0  0
 12116  1  0  0  0
 13 14  1  0  0  0
 13117  1  0  0  0
 14 15  1  0  0  0
 14 17  1  0  0  0
 14118  1  0  0  0
 15 16  2  0  0  0
 15 21  1  0  0  0
 17 18  1  0  0  0
 17119  1  0  0  0
 17120  1  0  0  0
 18 19  1  0  0  0
 18 20  1  0  0  0
 18121  1  0  0  0
 19122  1  0  0  0
 19123  1  0  0  0
 19124  1  0  0  0
 20125  1  0  0  0
 20126  1  0  0  0
 20127  1  0  0  0
 21 22  1  0  0  0
 21128  1  0  0  0
 22 23  1  0  0  0
 22 25  1  0  0  0
 22129  1  0  0  0
 23 24  2  0  0  0
 23 30  1  0  0  0
 25 26  1  0  0  0
 25130  1  0  0  0
 25131  1  0  0  0
 26 27  1  0  0  0
 26132  1  0  0  0
 26133  1  0  0  0
 27 28  1  0  0  0
 27 29  2  0  0  0
 28134  1  0  0  0
 30 31  1  0  0  0
 30135  1  0  0  0
 31 32  1  0  0  0
 31 34  1  0  0  0
 31136  1  0  0  0
 32 33  2  0  0  0
 32 38  1  0  0  0
 34 35  1  0  0  0
 34137  1  0  0  0
 34138  1  0  0  0
 35 36  1  0  0  0
 35 37  2  0  0  0
 36139  1  0  0  0
 38 39  1  0  0  0
 38140  1  0  0  0
 39 40  1  0  0  0
 39 42  1  0  0  0
 39141  1  0  0  0
 40 41  2  0  0  0
 40 52  1  0  0  0
 42 43  1  0  0  0
 42142  1  0  0  0
 42143  1  0  0  0
 43 44  2  0  0  0
 43 45  1  0  0  0
 44 46  1  0  0  0
 44144  1  0  0  0
 45 47  2  0  0  0
 45 48  1  0  0  0
 46 47  1  0  0  0
 47 49  1  0  0  0
 48 50  2  0  0  0
 48145  1  0  0  0
 49 51  2  0  0  0
 49146  1  0  0  0
 50 51  1  0  0  0
 50147  1  0  0  0
 51148  1  0  0  0
 52 53  1  0  0  0
 52149  1  0  0  0
 53 54  1  0  0  0
 53 56  1  0  0  0
 53150  1  0  0  0
 54 55  2  0  0  0
 54 60  1  0  0  0
 56 57  1  0  0  0
 56 58  1  0  0  0
 56151  1  0  0  0
 57 59  1  0  0  0
 57152  1  0  0  0
 57153  1  0  0  0
 58154  1  0  0  0
 58155  1  0  0  0
 58156  1  0  0  0
 59157  1  0  0  0
 59158  1  0  0  0
 59159  1  0  0  0
 60 61  1  0  0  0
 60160  1  0  0  0
 61 62  1  0  0  0
 61 64  1  0  0  0
 61161  1  0  0  0
 62 63  2  0  0  0
 62 69  1  0  0  0
 64 65  1  0  0  0
 64162  1  0  0  0
 64163  1  0  0  0
 65 66  1  0  0  0
 65164  1  0  0  0
 65165  1  0  0  0
 66 67  1  0  0  0
 66166  1  0  0  0
 66167  1  0  0  0
 67 68  1  0  0  0
 67168  1  0  0  0
 67169  1  0  0  0
 68170  1  0  0  0
 68171  1  0  0  0
 68172  1  0  0  0
 69 70  1  0  0  0
 69173  1  0  0  0
 70 71  1  0  0  0
 70 73  1  0  0  0
 70174  1  0  0  0
 71 72  2  0  0  0
 71 81  1  0  0  0
 73 74  1  0  0  0
 73175  1  0  0  0
 73176  1  0  0  0
 74 75  2  0  0  0
 74 76  1  0  0  0
 75 77  1  0  0  0
 75177  1  0  0  0
 76 78  2  0  0  0
 76178  1  0  0  0
 77 79  2  0  0  0
 77179  1  0  0  0
 78 79  1  0  0  0
 78180  1  0  0  0
 79 80  1  0  0  0
 80181  1  0  0  0
 81 82  1  0  0  0
 81182  1  0  0  0
 82 83  1  0  0  0
 82 85  1  0  0  0
 82183  1  0  0  0
 83 84  2  0  0  0
 83 89  1  0  0  0
 85 86  1  0  0  0
 85184  1  0  0  0
 85185  1  0  0  0
 86 87  2  0  0  0
 86 88  1  0  0  0
 88186  1  0  0  0
 88187  1  0  0  0
 89 90  1  0  0  0
 89188  1  0  0  0
 90 91  1  0  0  0
 90 93  1  0  0  0
 90189  1  0  0  0
 91 92  2  0  0  0
 91 97  1  0  0  0
 93 94  1  0  0  0
 93190  1  0  0  0
 93191  1  0  0  0
 94 95  2  0  0  0
 94 96  1  0  0  0
 96192  1  0  0  0
 96193  1  0  0  0
 97 98  1  0  0  0
 97194  1  0  0  0
 98 99  1  0  0  0
 98101  1  0  0  0
 98195  1  0  0  0
 99100  2  0  0  0
 99196  1  0  0  0
101102  1  0  0  0
101197  1  0  0  0
101198  1  0  0  0
102103  1  0  0  0
102199  1  0  0  0
102200  1  0  0  0
103104  2  0  0  0
103105  1  0  0  0
105201  1  0  0  0
105202  1  0  0  0
M  CHG  2   1   1  68   1
M  END
> <s_m_source_file>
../3ggw_ligand.sdf

> <i_m_source_file_index>
1

> <s_epik_input>
W2NIXTFbY0hdYyhbT0hdKVtjSF1bY0hdYzFbQ0gyXVtDQEhdKFtOSDMrXSlDKD1PKVtOSF1bQ0BASF0oW0NIMl1bQ0hdKFtDSDNdKVtDSDNdKUMoPU8pW05IXVtDQEBIXShbQ0gyXVtDSDJdQyg9TylbT0hdKUMoPU8pW05IXVtDQEBIXShbQ0gyXUMoPU8pW09IXSlDKD1PKVtOSF1bQ0BASF0oW0NIMl1jMltjSF1bbkhdYyhjMjMpW2NIXVtjSF1bY0hdW2NIXTMpQyg9TylbTkhdW0NAQEhdKFtDQEBIXShbQ0gzXSlbQ0gyXVtDSDNdKUMoPU8pW05IXVtDQEBIXShbQ0gyXVtDSDJdW0NIMl1bQ0gyXVtOSDMrXSlDKD1PKVtOSF1bQ0BASF0oW0NIMl1jNFtjSF1bY0hdYyhbT0hdKVtjSF1bY0hdNClDKD1PKVtOSF1bQ0BASF0oW0NIMl1DKD1PKVtOSDJdKUMoPU8pW05IXVtDQEBIXShbQ0gyXUMoPU8pW05IMl0pQyg9TylbTkhdW0NASF0oW0NIXT1PKVtDSDJdW0NIMl1DKD1PKVtOSDJd

> <s_epik_cmdline>
J2VwaWtfYXBwJywgJy1pbWFlJywgJ2xpZ2FuZF9wcm8ubWFlJywgJy1vbWFlJywgJ2xpZ2FuZF9wcmVwLm1hZScsICctbXMnLCAnMScsICctcGgnLCAnNycsICctcGh0JywgJzAuNScsICctbnQn

> <s_epik_pKa_notes>
Molecule size exceeds maximum supported for generating protonation states

$$$$
