3ghe_ligand
                    3D
 Schrodinger Suite 2020-3.
251254  0  0  1  0            999 V2000
   55.5410   -9.0920   42.1260 N   0  3  0  0  0  0
   54.0540   -8.9660   42.0800 C   0  0  2  0  0  0
   53.5920   -8.2820   40.7950 C   0  0  0  0  0  0
   53.6560   -7.0570   40.6740 O   0  0  0  0  0  0
   53.5480   -8.1710   43.2890 C   0  0  0  0  0  0
   52.0300   -8.0320   43.3520 C   0  0  0  0  0  0
   51.6030   -7.1870   44.5440 C   0  0  0  0  0  0
   50.1530   -7.1800   44.7450 N   0  0  0  0  0  0
   49.4250   -8.2620   45.0130 C   0  0  0  0  0  0
   50.0020   -9.4510   45.1120 N   0  0  0  0  0  0
   48.1150   -8.1580   45.1930 N   0  0  0  0  0  0
   53.1200   -9.0820   39.8440 N   0  0  0  0  0  0
   52.6390   -8.5730   38.5630 C   0  0  2  0  0  0
   51.1650   -8.1850   38.6800 C   0  0  0  0  0  0
   50.3330   -8.9800   39.1130 O   0  0  0  0  0  0
   52.8290   -9.6420   37.4860 C   0  0  0  0  0  0
   52.4520   -9.2070   36.0880 C   0  0  0  0  0  0
   52.8060  -10.2880   35.0770 C   0  0  0  0  0  0
   52.4470   -9.8580   33.6630 C   0  0  0  0  0  0
   52.8570  -10.8710   32.6480 N   0  3  0  0  0  0
   50.8490   -6.9560   38.2930 N   0  0  0  0  0  0
   49.4830   -6.4430   38.3710 C   0  0  2  0  0  0
   48.8640   -6.3580   36.9770 C   0  0  0  0  0  0
   49.3960   -5.6790   36.1070 O   0  0  0  0  0  0
   49.5110   -5.0570   39.0190 C   0  0  0  0  0  0
   50.2680   -5.0290   40.3470 C   0  0  0  0  0  0
   50.8050   -3.6410   40.6840 C   0  0  0  0  0  0
   51.4020   -3.5990   42.0190 N   0  0  0  0  0  0
   50.7040   -3.5170   43.1500 C   0  0  0  0  0  0
   49.3770   -3.4590   43.1160 N   0  0  0  0  0  0
   51.3310   -3.5050   44.3190 N   0  0  0  0  0  0
   47.7420   -7.0380   36.7640 N   0  0  0  0  0  0
   47.0910   -7.0250   35.4540 C   0  0  2  0  0  0
   45.7350   -6.3210   35.4670 C   0  0  0  0  0  0
   44.7890   -6.7860   36.1020 O   0  0  0  0  0  0
   46.9170   -8.4570   34.9310 C   0  0  2  0  0  0
   48.2880   -9.1180   34.8060 C   0  0  0  0  0  0
   46.2210   -8.4450   33.5890 C   0  0  0  0  0  0
   48.2280  -10.6140   34.6500 C   0  0  0  0  0  0
   45.6580   -5.2000   34.7540 N   0  0  0  0  0  0
   44.4400   -4.3920   34.6690 C   0  0  2  0  0  0
   43.8190   -4.4500   33.2800 C   0  0  0  0  0  0
   44.3590   -3.8910   32.3270 O   0  0  0  0  0  0
   44.7530   -2.9320   34.9920 C   0  0  0  0  0  0
   43.5460   -2.0490   35.0460 C   0  0  0  0  0  0
   42.9740   -1.6430   36.2320 N   0  0  0  0  0  0
   42.8030   -1.4930   34.0610 C   0  0  0  0  0  0
   41.9310   -0.8730   35.9760 C   0  0  0  0  0  0
   41.8050   -0.7660   34.6660 N   0  0  0  0  0  0
   42.6750   -5.1150   33.1740 N   0  0  0  0  0  0
   41.9820   -5.2370   31.8990 C   0  0  2  0  0  0
   40.5490   -4.7560   32.0180 C   0  0  0  0  0  0
   39.7920   -5.2250   32.8690 O   0  0  0  0  0  0
   41.9560   -6.7020   31.4000 C   0  0  2  0  0  0
   43.3770   -7.1680   31.0810 C   0  0  0  0  0  0
   41.0540   -6.8210   30.1680 C   0  0  0  0  0  0
   43.4580   -8.6270   30.6900 C   0  0  0  0  0  0
   40.1860   -3.8200   31.1510 N   0  0  0  0  0  0
   38.8400   -3.2840   31.1410 C   0  0  0  0  0  0
   38.5910   -2.6410   29.7940 C   0  0  0  0  0  0
   39.5200   -2.5060   28.9990 O   0  0  0  0  0  0
   37.3500   -2.2380   29.4910 N   0  0  0  0  0  0
   37.1020   -1.6120   28.1880 C   0  0  2  0  0  0
   38.0220   -0.4080   27.9390 C   0  0  0  0  0  0
   38.1470    0.4770   28.7940 O   0  0  0  0  0  0
   35.6320   -1.2000   28.2800 C   0  0  0  0  0  0
   35.0470   -2.2250   29.1980 C   0  0  0  0  0  0
   36.1010   -2.3600   30.2660 C   0  0  0  0  0  0
   38.6710   -0.3840   26.7780 N   0  0  0  0  0  0
   39.5300    0.7360   26.4410 C   0  0  0  0  0  0
   40.9200    0.8230   27.0460 C   0  0  0  0  0  0
   41.6990    1.7010   26.6580 O   0  0  0  0  0  0
   41.2480   -0.0490   27.9960 N   0  0  0  0  0  0
   42.5850   -0.0110   28.5810 C   0  0  2  0  0  0
   43.0460   -1.3530   29.1160 C   0  0  0  0  0  0
   42.2620   -2.1310   29.6570 O   0  0  0  0  0  0
   42.6740    1.0350   29.6960 C   0  0  0  0  0  0
   42.1200    0.5960   31.0400 C   0  0  0  0  0  0
   40.6140    0.5390   31.0500 C   0  0  0  0  0  0
   40.1170    0.2960   32.3990 N   0  0  0  0  0  0
   38.8320    0.1700   32.7180 C   0  0  0  0  0  0
   37.8930    0.2660   31.7830 N   0  0  0  0  0  0
   38.4860   -0.0590   33.9760 N   0  0  0  0  0  0
   44.3340   -1.6160   28.9550 N   0  0  0  0  0  0
   44.9280   -2.8560   29.4150 C   0  0  2  0  0  0
   46.3890   -2.5820   29.6940 C   0  0  0  0  0  0
   47.0740   -1.9850   28.8700 O   0  0  0  0  0  0
   44.7880   -3.9300   28.3510 C   0  0  0  0  0  0
   46.8670   -3.0120   30.8560 N   0  0  0  0  0  0
   48.2620   -2.7900   31.2190 C   0  0  2  0  0  0
   48.6500   -3.5770   32.4630 C   0  0  0  0  0  0
   47.7880   -4.1010   33.1670 O   0  0  0  0  0  0
   48.5010   -1.2970   31.4650 C   0  0  0  0  0  0
   47.6940   -0.7270   32.6010 C   0  0  0  0  0  0
   47.9480   -1.1090   33.9160 C   0  0  0  0  0  0
   46.6840    0.1960   32.3550 C   0  0  0  0  0  0
   47.2080   -0.5800   34.9730 C   0  0  0  0  0  0
   45.9340    0.7340   33.4040 C   0  0  0  0  0  0
   46.1980    0.3460   34.7170 C   0  0  0  0  0  0
   49.9470   -3.6580   32.7380 N   0  0  0  0  0  0
   50.3980   -4.3680   33.9240 C   0  0  2  0  0  0
   51.3810   -3.5400   34.7520 C   0  0  0  0  0  0
   52.5330   -3.3450   34.3670 O   0  0  0  0  0  0
   51.0050   -5.7270   33.5460 C   0  0  0  0  0  0
   52.3690   -5.6780   32.9030 C   0  0  0  0  0  0
   52.5910   -4.9480   31.7390 C   0  0  0  0  0  0
   53.4380   -6.3880   33.4530 C   0  0  0  0  0  0
   53.8480   -4.9270   31.1330 C   0  0  0  0  0  0
   54.6950   -6.3760   32.8580 C   0  0  0  0  0  0
   54.8930   -5.6440   31.6980 C   0  0  0  0  0  0
   56.1340   -5.6360   31.1040 O   0  0  0  0  0  0
   50.8990   -3.0470   35.8920 N   0  0  0  0  0  0
   51.6960   -2.2260   36.8010 C   0  0  2  0  0  0
   52.7310   -3.0500   37.5710 C   0  0  0  0  0  0
   52.4310   -4.1310   38.0790 O   0  0  0  0  0  0
   50.7740   -1.4930   37.7790 C   0  0  0  0  0  0
   53.9500   -2.5210   37.6520 N   0  0  0  0  0  0
   55.0550   -3.1830   38.3480 C   0  0  2  0  0  0
   54.7280   -3.4550   39.8170 C   0  0  0  0  0  0
   55.1460   -4.5270   40.3050 O   0  0  0  0  0  0
   56.3490   -2.3260   38.2710 C   0  0  2  0  0  0
   57.4070   -2.9830   38.9800 O   0  0  0  0  0  0
   56.1170   -0.9440   38.8780 C   0  0  0  0  0  0
   55.8877   -9.6642   41.2528 H   0  0  0  0  0  0
   55.8363   -9.6147   43.0477 H   0  0  0  0  0  0
   55.9945   -8.0899   42.1113 H   0  0  0  0  0  0
   53.6601   -9.9928   42.1028 H   0  0  0  0  0  0
   53.8660   -8.6710   44.2157 H   0  0  0  0  0  0
   53.9652   -7.1536   43.2596 H   0  0  0  0  0  0
   51.6675   -7.5495   42.4323 H   0  0  0  0  0  0
   51.5742   -9.0286   43.4474 H   0  0  0  0  0  0
   52.0668   -7.5833   45.4593 H   0  0  0  0  0  0
   51.9256   -6.1467   44.3903 H   0  0  0  0  0  0
   49.5930   -6.2356   44.6777 H   0  0  0  0  0  0
   51.0876   -9.5495   44.9647 H   0  0  0  0  0  0
   47.6251   -7.1763   45.1133 H   0  0  0  0  0  0
   47.5185   -9.0534   45.4220 H   0  0  0  0  0  0
   53.0996  -10.1625   40.0492 H   0  0  0  0  0  0
   53.2395   -7.6832   38.3230 H   0  0  0  0  0  0
   53.8865   -9.9426   37.4503 H   0  0  0  0  0  0
   52.2069  -10.5173   37.7244 H   0  0  0  0  0  0
   51.3694   -9.0172   36.0425 H   0  0  0  0  0  0
   52.9967   -8.2866   35.8310 H   0  0  0  0  0  0
   53.8866  -10.4893   35.1187 H   0  0  0  0  0  0
   52.2522  -11.2082   35.3150 H   0  0  0  0  0  0
   51.3585   -9.7182   33.5875 H   0  0  0  0  0  0
   52.9554   -8.9114   33.4273 H   0  0  0  0  0  0
   52.5780  -10.5180   31.6442 H   0  0  0  0  0  0
   52.3492  -11.8244   32.8557 H   0  0  0  0  0  0
   53.9461  -11.0177   32.6956 H   0  0  0  0  0  0
   51.6551   -6.3169   37.9034 H   0  0  0  0  0  0
   48.9079   -7.1539   38.9825 H   0  0  0  0  0  0
   50.0035   -4.3449   38.3405 H   0  0  0  0  0  0
   48.4815   -4.7235   39.2161 H   0  0  0  0  0  0
   49.5942   -5.3380   41.1597 H   0  0  0  0  0  0
   51.1226   -5.7198   40.2966 H   0  0  0  0  0  0
   51.5758   -3.3584   39.9519 H   0  0  0  0  0  0
   49.9824   -2.9115   40.6504 H   0  0  0  0  0  0
   52.4954   -3.6356   42.1339 H   0  0  0  0  0  0
   48.8506   -3.4685   42.1502 H   0  0  0  0  0  0
   48.8048   -3.4014   44.0537 H   0  0  0  0  0  0
   52.4294   -3.5528   44.3545 H   0  0  0  0  0  0
   47.3033   -7.6164   37.5905 H   0  0  0  0  0  0
   47.7813   -6.4430   34.8257 H   0  0  0  0  0  0
   46.2909   -9.0344   35.6271 H   0  0  0  0  0  0
   48.8088   -8.7179   33.9236 H   0  0  0  0  0  0
   48.8805   -8.9069   35.7084 H   0  0  0  0  0  0
   45.2356   -7.9670   33.6913 H   0  0  0  0  0  0
   46.0924   -9.4780   33.2334 H   0  0  0  0  0  0
   46.8287   -7.8813   32.8659 H   0  0  0  0  0  0
   49.2488  -11.0152   34.5666 H   0  0  0  0  0  0
   47.6599  -10.8655   33.7423 H   0  0  0  0  0  0
   47.7315  -11.0545   35.5272 H   0  0  0  0  0  0
   46.5638   -4.8880   34.2135 H   0  0  0  0  0  0
   43.7563   -4.8383   35.4061 H   0  0  0  0  0  0
   45.2443   -2.8710   35.9743 H   0  0  0  0  0  0
   45.4218   -2.5212   34.2213 H   0  0  0  0  0  0
   42.8686   -1.5299   32.9636 H   0  0  0  0  0  0
   41.2850   -0.4059   36.7194 H   0  0  0  0  0  0
   42.2517   -5.5796   34.0767 H   0  0  0  0  0  0
   42.5592   -4.5874   31.2246 H   0  0  0  0  0  0
   41.5498   -7.3579   32.1841 H   0  0  0  0  0  0
   43.7764   -6.5789   30.2423 H   0  0  0  0  0  0
   44.0162   -7.0273   31.9651 H   0  0  0  0  0  0
   40.0393   -6.4806   30.4222 H   0  0  0  0  0  0
   41.0174   -7.8704   29.8404 H   0  0  0  0  0  0
   41.4574   -6.1974   29.3566 H   0  0  0  0  0  0
   44.5040   -8.8916   30.4756 H   0  0  0  0  0  0
   42.8446   -8.8010   29.7936 H   0  0  0  0  0  0
   43.0843   -9.2494   31.5165 H   0  0  0  0  0  0
   40.9303   -3.4511   30.4300 H   0  0  0  0  0  0
   38.1198   -4.0985   31.3077 H   0  0  0  0  0  0
   38.7377   -2.5348   31.9399 H   0  0  0  0  0  0
   37.3171   -2.3172   27.3717 H   0  0  0  0  0  0
   35.5617   -0.1807   28.6874 H   0  0  0  0  0  0
   35.1805   -1.2260   27.2773 H   0  0  0  0  0  0
   34.0879   -1.8587   29.5930 H   0  0  0  0  0  0
   34.8820   -3.1613   28.6447 H   0  0  0  0  0  0
   36.0769   -3.3368   30.7712 H   0  0  0  0  0  0
   36.0556   -1.5576   31.0171 H   0  0  0  0  0  0
   38.5538   -1.2192   26.0718 H   0  0  0  0  0  0
   39.7067    0.7488   25.3554 H   0  0  0  0  0  0
   39.0442    1.6751   26.7445 H   0  0  0  0  0  0
   40.5178   -0.7958   28.3409 H   0  0  0  0  0  0
   43.2189    0.2580   27.7232 H   0  0  0  0  0  0
   43.7275    1.3030   29.8640 H   0  0  0  0  0  0
   42.1096    1.9325   29.4027 H   0  0  0  0  0  0
   42.4994   -0.4075   31.2828 H   0  0  0  0  0  0
   42.4381    1.3063   31.8174 H   0  0  0  0  0  0
   40.2085    1.4955   30.6884 H   0  0  0  0  0  0
   40.2735   -0.2752   30.3934 H   0  0  0  0  0  0
   40.8234    0.2046   33.2372 H   0  0  0  0  0  0
   38.1757    0.4561   30.7371 H   0  0  0  0  0  0
   36.8329    0.1554   32.0548 H   0  0  0  0  0  0
   39.2601   -0.1392   34.7534 H   0  0  0  0  0  0
   44.9572   -0.8598   28.4552 H   0  0  0  0  0  0
   44.3975   -3.1771   30.3235 H   0  0  0  0  0  0
   43.7215   -4.1187   28.1586 H   0  0  0  0  0  0
   45.2671   -4.8566   28.7001 H   0  0  0  0  0  0
   45.2739   -3.5928   27.4235 H   0  0  0  0  0  0
   46.1961   -3.5416   31.5484 H   0  0  0  0  0  0
   48.8458   -3.1579   30.3623 H   0  0  0  0  0  0
   49.5616   -1.1300   31.7043 H   0  0  0  0  0  0
   48.2353   -0.7293   30.5611 H   0  0  0  0  0  0
   48.7370   -1.8323   34.1221 H   0  0  0  0  0  0
   46.4745    0.5040   31.3306 H   0  0  0  0  0  0
   47.4188   -0.8898   35.9966 H   0  0  0  0  0  0
   45.1440    1.4557   33.1963 H   0  0  0  0  0  0
   45.6175    0.7647   35.5391 H   0  0  0  0  0  0
   50.6803   -3.1869   32.0669 H   0  0  0  0  0  0
   49.4820   -4.5119   34.5159 H   0  0  0  0  0  0
   51.1122   -6.3448   34.4498 H   0  0  0  0  0  0
   50.3445   -6.2371   32.8294 H   0  0  0  0  0  0
   51.7710   -4.3843   31.2941 H   0  0  0  0  0  0
   53.2844   -6.9628   34.3663 H   0  0  0  0  0  0
   54.0078   -4.3510   30.2216 H   0  0  0  0  0  0
   55.5177   -6.9377   33.3004 H   0  0  0  0  0  0
   56.2993   -5.0575   30.1831 H   0  0  0  0  0  0
   49.8528   -3.2822   36.1375 H   0  0  0  0  0  0
   52.2276   -1.5173   36.1490 H   0  0  0  0  0  0
   50.0350   -0.9047   37.2153 H   0  0  0  0  0  0
   51.3715   -0.8210   38.4126 H   0  0  0  0  0  0
   50.2531   -2.2267   38.4117 H   0  0  0  0  0  0
   54.1099   -1.5459   37.1687 H   0  0  0  0  0  0
   55.1608   -4.1391   37.8144 H   0  0  0  0  0  0
   54.1519   -2.7549   40.4398 H   0  0  0  0  0  0
   56.6979   -2.2276   37.2325 H   0  0  0  0  0  0
   57.7202   -3.9956   38.6860 H   0  0  0  0  0  0
   55.3052   -0.4370   38.3358 H   0  0  0  0  0  0
   57.0388   -0.3491   38.7982 H   0  0  0  0  0  0
   55.8399   -1.0506   39.9372 H   0  0  0  0  0  0
  1  2  1  0  0  0
  1124  1  0  0  0
  1125  1  0  0  0
  1126  1  0  0  0
  2  3  1  0  0  0
  2  5  1  0  0  0
  2127  1  0  0  0
  3  4  2  0  0  0
  3 12  1  0  0  0
  5  6  1  0  0  0
  5128  1  0  0  0
  5129  1  0  0  0
  6  7  1  0  0  0
  6130  1  0  0  0
  6131  1  0  0  0
  7  8  1  0  0  0
  7132  1  0  0  0
  7133  1  0  0  0
  8  9  1  0  0  0
  8134  1  0  0  0
  9 10  2  0  0  0
  9 11  1  0  0  0
 10135  1  0  0  0
 11136  1  0  0  0
 11137  1  0  0  0
 12 13  1  0  0  0
 12138  1  0  0  0
 13 14  1  0  0  0
 13 16  1  0  0  0
 13139  1  0  0  0
 14 15  2  0  0  0
 14 21  1  0  0  0
 16 17  1  0  0  0
 16140  1  0  0  0
 16141  1  0  0  0
 17 18  1  0  0  0
 17142  1  0  0  0
 17143  1  0  0  0
 18 19  1  0  0  0
 18144  1  0  0  0
 18145  1  0  0  0
 19 20  1  0  0  0
 19146  1  0  0  0
 19147  1  0  0  0
 20148  1  0  0  0
 20149  1  0  0  0
 20150  1  0  0  0
 21 22  1  0  0  0
 21151  1  0  0  0
 22 23  1  0  0  0
 22 25  1  0  0  0
 22152  1  0  0  0
 23 24  2  0  0  0
 23 32  1  0  0  0
 25 26  1  0  0  0
 25153  1  0  0  0
 25154  1  0  0  0
 26 27  1  0  0  0
 26155  1  0  0  0
 26156  1  0  0  0
 27 28  1  0  0  0
 27157  1  0  0  0
 27158  1  0  0  0
 28 29  1  0  0  0
 28159  1  0  0  0
 29 30  1  0  0  0
 29 31  2  0  0  0
 30160  1  0  0  0
 30161  1  0  0  0
 31162  1  0  0  0
 32 33  1  0  0  0
 32163  1  0  0  0
 33 34  1  0  0  0
 33 36  1  0  0  0
 33164  1  0  0  0
 34 35  2  0  0  0
 34 40  1  0  0  0
 36 37  1  0  0  0
 36 38  1  0  0  0
 36165  1  0  0  0
 37 39  1  0  0  0
 37166  1  0  0  0
 37167  1  0  0  0
 38168  1  0  0  0
 38169  1  0  0  0
 38170  1  0  0  0
 39171  1  0  0  0
 39172  1  0  0  0
 39173  1  0  0  0
 40 41  1  0  0  0
 40174  1  0  0  0
 41 42  1  0  0  0
 41 44  1  0  0  0
 41175  1  0  0  0
 42 43  2  0  0  0
 42 50  1  0  0  0
 44 45  1  0  0  0
 44176  1  0  0  0
 44177  1  0  0  0
 45 46  2  0  0  0
 45 47  1  0  0  0
 46 48  1  0  0  0
 47 49  2  0  0  0
 47178  1  0  0  0
 48 49  1  0  0  0
 48179  1  0  0  0
 50 51  1  0  0  0
 50180  1  0  0  0
 51 52  1  0  0  0
 51 54  1  0  0  0
 51181  1  0  0  0
 52 53  2  0  0  0
 52 58  1  0  0  0
 54 55  1  0  0  0
 54 56  1  0  0  0
 54182  1  0  0  0
 55 57  1  0  0  0
 55183  1  0  0  0
 55184  1  0  0  0
 56185  1  0  0  0
 56186  1  0  0  0
 56187  1  0  0  0
 57188  1  0  0  0
 57189  1  0  0  0
 57190  1  0  0  0
 58 59  1  0  0  0
 58191  1  0  0  0
 59 60  1  0  0  0
 59192  1  0  0  0
 59193  1  0  0  0
 60 61  2  0  0  0
 60 62  1  0  0  0
 62 63  1  0  0  0
 62 68  1  0  0  0
 63 64  1  0  0  0
 63 66  1  0  0  0
 63194  1  0  0  0
 64 65  2  0  0  0
 64 69  1  0  0  0
 66 67  1  0  0  0
 66195  1  0  0  0
 66196  1  0  0  0
 67 68  1  0  0  0
 67197  1  0  0  0
 67198  1  0  0  0
 68199  1  0  0  0
 68200  1  0  0  0
 69 70  1  0  0  0
 69201  1  0  0  0
 70 71  1  0  0  0
 70202  1  0  0  0
 70203  1  0  0  0
 71 72  2  0  0  0
 71 73  1  0  0  0
 73 74  1  0  0  0
 73204  1  0  0  0
 74 75  1  0  0  0
 74 77  1  0  0  0
 74205  1  0  0  0
 75 76  2  0  0  0
 75 84  1  0  0  0
 77 78  1  0  0  0
 77206  1  0  0  0
 77207  1  0  0  0
 78 79  1  0  0  0
 78208  1  0  0  0
 78209  1  0  0  0
 79 80  1  0  0  0
 79210  1  0  0  0
 79211  1  0  0  0
 80 81  1  0  0  0
 80212  1  0  0  0
 81 82  1  0  0  0
 81 83  2  0  0  0
 82213  1  0  0  0
 82214  1  0  0  0
 83215  1  0  0  0
 84 85  1  0  0  0
 84216  1  0  0  0
 85 86  1  0  0  0
 85 88  1  0  0  0
 85217  1  0  0  0
 86 87  2  0  0  0
 86 89  1  0  0  0
 88218  1  0  0  0
 88219  1  0  0  0
 88220  1  0  0  0
 89 90  1  0  0  0
 89221  1  0  0  0
 90 91  1  0  0  0
 90 93  1  0  0  0
 90222  1  0  0  0
 91 92  2  0  0  0
 91100  1  0  0  0
 93 94  1  0  0  0
 93223  1  0  0  0
 93224  1  0  0  0
 94 95  2  0  0  0
 94 96  1  0  0  0
 95 97  1  0  0  0
 95225  1  0  0  0
 96 98  2  0  0  0
 96226  1  0  0  0
 97 99  2  0  0  0
 97227  1  0  0  0
 98 99  1  0  0  0
 98228  1  0  0  0
 99229  1  0  0  0
100101  1  0  0  0
100230  1  0  0  0
101102  1  0  0  0
101104  1  0  0  0
101231  1  0  0  0
102103  2  0  0  0
102112  1  0  0  0
104105  1  0  0  0
104232  1  0  0  0
104233  1  0  0  0
105106  2  0  0  0
105107  1  0  0  0
106108  1  0  0  0
106234  1  0  0  0
107109  2  0  0  0
107235  1  0  0  0
108110  2  0  0  0
108236  1  0  0  0
109110  1  0  0  0
109237  1  0  0  0
110111  1  0  0  0
111238  1  0  0  0
112113  1  0  0  0
112239  1  0  0  0
113114  1  0  0  0
113116  1  0  0  0
113240  1  0  0  0
114115  2  0  0  0
114117  1  0  0  0
116241  1  0  0  0
116242  1  0  0  0
116243  1  0  0  0
117118  1  0  0  0
117244  1  0  0  0
118119  1  0  0  0
118121  1  0  0  0
118245  1  0  0  0
119120  2  0  0  0
119246  1  0  0  0
121122  1  0  0  0
121123  1  0  0  0
121247  1  0  0  0
122248  1  0  0  0
123249  1  0  0  0
123250  1  0  0  0
123251  1  0  0  0
M  CHG  2   1   1  20   1
M  END
> <s_m_source_file>
../3ghe_ligand.sdf

> <i_m_source_file_index>
1

> <s_epik_input>
W0hdL049QyhbTkgyXSlcW05IXVtDSDJdW0NIMl1bQ0gyXVtDQEhdKFtOSDMrXSlDKD1PKVtOSF1bQ0BASF0oW0NIMl1bQ0gyXVtDSDJdW0NIMl1bTkgzK10pQyg9TylbTkhdW0NAQEhdKFtDSDJdW0NIMl1bQ0gyXVtOSF0vQyhbTkgyXSk9TlxbSF0pQyg9TylbTkhdW0NAQEhdKFtDQEBIXShbQ0gzXSlbQ0gyXVtDSDNdKUMoPU8pW05IXVtDQEBIXShbQ0gyXUMxPU5bQ0gyXU49W0NIXTEpQyg9TylbTkhdW0NAQEhdKFtDQEBIXShbQ0gzXSlbQ0gyXVtDSDNdKUMoPU8pW05IXVtDSDJdQyg9TylOMltDQEBIXShbQ0gyXVtDSDJdW0NIMl0yKUMoPU8pW05IXVtDSDJdQyg9TylbTkhdW0NAQEhdKFtDSDJdW0NIMl1bQ0gyXVtOSF0vQyhbTkgyXSk9TlxbSF0pQyg9TylbTkhdW0NAQEhdKFtDSDNdKUMoPU8pW05IXVtDQEBIXShbQ0gyXWMzW2NIXVtjSF1bY0hdW2NIXVtjSF0zKUMoPU8pW05IXVtDQEBIXShbQ0gyXWM0W2NIXVtjSF1jKFtPSF0pW2NIXVtjSF00KUMoPU8pW05IXVtDQEBIXShbQ0gzXSlDKD1PKVtOSF1bQ0BIXShbQ0hdPU8pW0NASF0oW09IXSlbQ0gzXQ==

> <s_epik_cmdline>
J2VwaWtfYXBwJywgJy1pbWFlJywgJ2xpZ2FuZF9wcm8ubWFlJywgJy1vbWFlJywgJ2xpZ2FuZF9wcmVwLm1hZScsICctbXMnLCAnMScsICctcGgnLCAnNycsICctcGh0JywgJzAuNScsICctbnQn

> <s_epik_pKa_notes>
Molecule size exceeds maximum supported for generating protonation states

> <s_epik_Chemistry_Notes>
This compound has an imine and may undergo hydrolysis.

$$$$
