3gjq_ligand
                    3D
 Schrodinger Suite 2020-3.
 76 78  0  0  1  0            999 V2000
   43.7440   37.4850   58.6630 C   0  0  0  0  0  0
   44.8320   36.9860   58.3780 O   0  0  0  0  0  0
   43.3580   38.8360   58.1270 C   0  0  0  0  0  0
   42.8440   36.8850   59.4390 N   0  0  0  0  0  0
   43.0800   35.5770   60.0480 C   0  0  2  0  0  0
   42.4860   34.4100   59.2730 C   0  0  0  0  0  0
   43.1840   33.4510   58.9460 O   0  0  0  0  0  0
   42.5040   35.5360   61.4690 C   0  0  0  0  0  0
   43.2010   36.4280   62.4410 C   0  0  0  0  0  0
   42.8270   37.6870   62.8230 C   0  0  0  0  0  0
   44.4080   36.1400   63.1420 C   0  0  0  0  0  0
   43.7310   38.1980   63.7240 N   0  3  0  0  0  0
   44.7230   37.2580   63.9420 C   0  0  0  0  0  0
   45.2720   35.0280   63.1830 C   0  0  0  0  0  0
   45.8490   37.3200   64.7610 C   0  0  0  0  0  0
   46.3970   35.0800   63.9980 C   0  0  0  0  0  0
   46.6720   36.2180   64.7780 C   0  0  0  0  0  0
   41.1900   34.4940   58.9940 N   0  0  0  0  0  0
   40.4870   33.4300   58.2880 C   0  0  2  0  0  0
   40.1860   33.7150   56.8210 C   0  0  0  0  0  0
   40.3700   34.8320   56.3410 O   0  0  0  0  0  0
   39.1870   33.1200   59.0270 C   0  0  0  0  0  0
   39.4020   32.6480   60.4610 C   0  0  0  0  0  0
   38.2170   32.9530   61.3650 C   0  0  0  0  0  0
   37.0860   32.5150   61.0460 O   0  5  0  0  0  0
   38.4200   33.6300   62.3990 O   0  0  0  0  0  0
   39.7200   32.6860   56.1150 N   0  0  0  0  0  0
   39.3760   32.8040   54.6960 C   0  0  2  0  0  0
   37.9860   32.2600   54.3990 C   0  0  0  0  0  0
   37.3700   31.6060   55.2390 O   0  0  0  0  0  0
   40.3950   32.0630   53.8340 C   0  0  0  0  0  0
   40.6770   30.6760   54.3030 C   0  0  0  0  0  0
   41.6150   30.3970   55.2780 N   0  0  0  0  0  0
   40.1290   29.4840   53.9640 C   0  0  0  0  0  0
   41.6320   29.0990   55.5130 C   0  0  0  0  0  0
   40.7400   28.5210   54.7290 N   0  0  0  0  0  0
   37.5140   32.5140   53.1800 N   0  0  0  0  0  0
   36.1880   32.0800   52.7640 C   0  0  2  0  0  0
   36.2280   31.1400   51.5690 C   0  0  0  0  0  0
   34.9330   30.6340   51.1960 O   0  0  0  0  0  0
   35.3250   33.2940   52.4080 C   0  0  0  0  0  0
   34.6250   33.8810   53.6170 C   0  0  0  0  0  0
   34.2100   33.0950   54.4900 O   0  0  0  0  0  0
   34.4970   35.1180   53.6980 O   0  5  0  0  0  0
   44.1744   39.2303   57.5041 H   0  0  0  0  0  0
   43.1715   39.5234   58.9653 H   0  0  0  0  0  0
   42.4457   38.7425   57.5196 H   0  0  0  0  0  0
   41.8939   37.4106   59.6156 H   0  0  0  0  0  0
   44.1769   35.4990   60.0191 H   0  0  0  0  0  0
   41.4493   35.8474   61.4462 H   0  0  0  0  0  0
   42.5755   34.5119   61.8642 H   0  0  0  0  0  0
   41.9133   38.1386   62.4093 H   0  0  0  0  0  0
   45.0618   34.1411   62.5853 H   0  0  0  0  0  0
   46.0678   38.2029   65.3616 H   0  0  0  0  0  0
   47.0752   34.2274   64.0332 H   0  0  0  0  0  0
   47.5590   36.2267   65.4114 H   0  0  0  0  0  0
   40.6466   35.3965   59.3106 H   0  0  0  0  0  0
   41.2062   32.5979   58.3056 H   0  0  0  0  0  0
   38.5635   34.0253   59.0677 H   0  0  0  0  0  0
   38.6440   32.3244   58.4958 H   0  0  0  0  0  0
   39.5596   31.5594   60.4689 H   0  0  0  0  0  0
   40.2852   33.1494   60.8836 H   0  0  0  0  0  0
   39.5962   31.7234   56.6327 H   0  0  0  0  0  0
   39.3968   33.8854   54.4956 H   0  0  0  0  0  0
   40.9062   32.4570   52.9432 H   0  0  0  0  0  0
   39.3486   29.2001   53.2426 H   0  0  0  0  0  0
   42.2735   28.5898   56.2323 H   0  0  0  0  0  0
   38.1562   33.0682   52.4797 H   0  0  0  0  0  0
   35.8008   31.5351   53.6376 H   0  0  0  0  0  0
   36.6383   31.6717   50.6978 H   0  0  0  0  0  0
   36.8654   30.2749   51.8041 H   0  0  0  0  0  0
   34.8364   29.9441   50.3447 H   0  0  0  0  0  0
   35.9590   34.0785   51.9690 H   0  0  0  0  0  0
   34.5547   32.9959   51.6815 H   0  0  0  0  0  0
   43.5845   39.2064   64.1384 H   0  0  0  0  0  0
   42.2040   31.2120   55.7238 H   0  0  0  0  0  0
  1  2  2  0  0  0
  1  3  1  0  0  0
  1  4  1  0  0  0
  3 45  1  0  0  0
  3 46  1  0  0  0
  3 47  1  0  0  0
  4  5  1  0  0  0
  4 48  1  0  0  0
  5  6  1  0  0  0
  5  8  1  0  0  0
  5 49  1  0  0  0
  6  7  2  0  0  0
  6 18  1  0  0  0
  8  9  1  0  0  0
  8 50  1  0  0  0
  8 51  1  0  0  0
  9 10  2  0  0  0
  9 11  1  0  0  0
 10 12  1  0  0  0
 10 52  1  0  0  0
 11 13  2  0  0  0
 11 14  1  0  0  0
 12 13  1  0  0  0
 12 75  1  0  0  0
 13 15  1  0  0  0
 14 16  2  0  0  0
 14 53  1  0  0  0
 15 17  2  0  0  0
 15 54  1  0  0  0
 16 17  1  0  0  0
 16 55  1  0  0  0
 17 56  1  0  0  0
 18 19  1  0  0  0
 18 57  1  0  0  0
 19 20  1  0  0  0
 19 22  1  0  0  0
 19 58  1  0  0  0
 20 21  2  0  0  0
 20 27  1  0  0  0
 22 23  1  0  0  0
 22 59  1  0  0  0
 22 60  1  0  0  0
 23 24  1  0  0  0
 23 61  1  0  0  0
 23 62  1  0  0  0
 24 25  1  0  0  0
 24 26  2  0  0  0
 27 28  1  0  0  0
 27 63  1  0  0  0
 28 29  1  0  0  0
 28 31  1  0  0  0
 28 64  1  0  0  0
 29 30  2  0  0  0
 29 37  1  0  0  0
 31 32  2  0  0  0
 31 65  1  0  0  0
 32 33  1  0  0  0
 32 34  1  0  0  0
 33 35  1  0  0  0
 33 76  1  0  0  0
 34 36  2  0  0  0
 34 66  1  0  0  0
 35 36  1  0  0  0
 35 67  1  0  0  0
 37 38  1  0  0  0
 37 68  1  0  0  0
 38 39  1  0  0  0
 38 41  1  0  0  0
 38 69  1  0  0  0
 39 40  1  0  0  0
 39 70  1  0  0  0
 39 71  1  0  0  0
 40 72  1  0  0  0
 41 42  1  0  0  0
 41 73  1  0  0  0
 41 74  1  0  0  0
 42 43  2  0  0  0
 42 44  1  0  0  0
M  CHG  3  12   1  25  -1  44  -1
M  END
> <s_m_source_file>
../3gjq_ligand.sdf

> <i_m_source_file_index>
1

> <s_epik_input>
W2NIXTFbY0hdW2NIXVtjSF1jKGMxMilbbkhdW2NIXWMyW0NIMl1bQ0BIXShbTkhdQyg9TylbQ0gzXSlDKD1PKVtOSF1bQ0BASF0oW0NIMl1bQ0gyXUMoPU8pW09IXSlDKD1PKVtOSF1bQ0BIXShDKD1PKVtOSF1bQ0BIXShbQ0gyXVtPSF0pW0NIMl1DKD1PKVtPSF0pW0NIMl1DMz1OW0NIMl1OPVtDSF0z

> <s_epik_cmdline>
J2VwaWtfYXBwJywgJy1pbWFlJywgJ2xpZ2FuZF9wcm8ubWFlJywgJy1vbWFlJywgJ2xpZ2FuZF9wcmVwLm1hZScsICctbXMnLCAnMScsICctcGgnLCAnNycsICctcGh0JywgJzAuNScsICctbnQn

> <r_lp_tautomer_probability>
1

> <r_epik_Ionization_Penalty>
  0.0030

> <r_epik_Ionization_Penalty_Charging>
  0.0030

> <r_epik_Ionization_Penalty_Neutral>
  0.0000

> <r_epik_State_Penalty>
 -0.0000

> <r_epik_Charging_Adjusted_Penalty>
0.00297648262576894

> <i_epik_Tot_Q>
-1

> <i_epik_Tot_abs_Q>
3

> <s_epik_Chemistry_Notes>
This compound has an imine and may undergo hydrolysis.

$$$$
