3gjs_ligand
                    3D
 Schrodinger Suite 2020-3.
 68 68  0  0  1  0            999 V2000
   22.7360    8.1220   45.7220 C   0  0  0  0  0  0
   22.1420    7.0470   45.5990 O   0  0  0  0  0  0
   23.2370    8.5730   47.0760 C   0  0  0  0  0  0
   22.9660    8.9460   44.7010 N   0  0  0  0  0  0
   22.5430    8.6230   43.3370 C   0  0  2  0  0  0
   23.7220    8.0990   42.5240 C   0  0  0  0  0  0
   24.7960    8.6990   42.5090 O   0  0  0  0  0  0
   21.9470    9.8530   42.6420 C   0  0  0  0  0  0
   20.6320   10.3280   43.2280 C   0  0  0  0  0  0
   20.6010   11.2140   44.3070 C   0  0  0  0  0  0
   19.4190    9.8850   42.7080 C   0  0  0  0  0  0
   19.3940   11.6480   44.8470 C   0  0  0  0  0  0
   18.2050   10.3130   43.2410 C   0  0  0  0  0  0
   18.1980   11.1950   44.3080 C   0  0  0  0  0  0
   16.9950   11.6340   44.8210 O   0  0  0  0  0  0
   23.5150    6.9780   41.8440 N   0  0  0  0  0  0
   24.5650    6.3750   41.0380 C   0  0  2  0  0  0
   24.0210    6.0250   39.6620 C   0  0  0  0  0  0
   22.8620    5.6340   39.5280 O   0  0  0  0  0  0
   25.1030    5.0880   41.7060 C   0  0  0  0  0  0
   26.3170    4.5720   40.9480 C   0  0  0  0  0  0
   25.4520    5.3630   43.1650 C   0  0  0  0  0  0
   24.8600    6.1710   38.6400 N   0  0  0  0  0  0
   24.4640    5.8520   37.2720 C   0  0  2  0  0  0
   24.8850    4.4170   36.9590 C   0  0  0  0  0  0
   25.9490    3.9690   37.3870 O   0  0  0  0  0  0
   25.1150    6.8210   36.3000 C   0  0  0  0  0  0
   24.0510    3.7030   36.2080 N   0  0  0  0  0  0
   24.3220    2.3120   35.8570 C   0  0  2  0  0  0
   24.8900    2.1280   34.4500 C   0  0  0  0  0  0
   25.0130    0.7400   34.1270 O   0  0  0  0  0  0
   23.0380    1.4850   35.9800 C   0  0  0  0  0  0
   22.9530    0.7320   37.2940 C   0  0  0  0  0  0
   24.0090    0.4990   37.9220 O   0  5  0  0  0  0
   21.8290    0.3680   37.6970 O   0  0  0  0  0  0
   22.9881    7.8127   47.8309 H   0  0  0  0  0  0
   22.7592    9.5267   47.3447 H   0  0  0  0  0  0
   24.3280    8.7076   47.0370 H   0  0  0  0  0  0
   23.4895    9.8917   44.9051 H   0  0  0  0  0  0
   21.7778    7.8403   43.4465 H   0  0  0  0  0  0
   22.6529   10.6935   42.7152 H   0  0  0  0  0  0
   21.7611    9.6215   41.5828 H   0  0  0  0  0  0
   21.5381   11.5717   44.7335 H   0  0  0  0  0  0
   19.4190    9.1903   41.8681 H   0  0  0  0  0  0
   19.3880   12.3402   45.6890 H   0  0  0  0  0  0
   17.2654    9.9552   42.8200 H   0  0  0  0  0  0
   16.9815   12.3348   45.6687 H   0  0  0  0  0  0
   22.5237    6.5045   41.8994 H   0  0  0  0  0  0
   25.3492    7.1429   40.9652 H   0  0  0  0  0  0
   24.3333    4.3025   41.6812 H   0  0  0  0  0  0
   26.0413    4.3813   39.9003 H   0  0  0  0  0  0
   26.6683    3.6379   41.4106 H   0  0  0  0  0  0
   27.1191    5.3238   40.9850 H   0  0  0  0  0  0
   24.5604    5.7343   43.6915 H   0  0  0  0  0  0
   26.2490    6.1195   43.2150 H   0  0  0  0  0  0
   25.7982    4.4335   43.6406 H   0  0  0  0  0  0
   25.8746    6.5425   38.8464 H   0  0  0  0  0  0
   23.3712    5.9614   37.2102 H   0  0  0  0  0  0
   24.8010    7.8475   36.5401 H   0  0  0  0  0  0
   24.8062    6.5737   35.2736 H   0  0  0  0  0  0
   26.2092    6.7434   36.3825 H   0  0  0  0  0  0
   23.1334    4.1921   35.8490 H   0  0  0  0  0  0
   25.0918    2.0156   36.5847 H   0  0  0  0  0  0
   24.2195    2.6032   33.7189 H   0  0  0  0  0  0
   25.8847    2.5941   34.3923 H   0  0  0  0  0  0
   25.4080    0.4364   33.1463 H   0  0  0  0  0  0
   22.1651    2.1513   35.9155 H   0  0  0  0  0  0
   22.9973    0.7475   35.1649 H   0  0  0  0  0  0
  1  2  2  0  0  0
  1  3  1  0  0  0
  1  4  1  0  0  0
  3 36  1  0  0  0
  3 37  1  0  0  0
  3 38  1  0  0  0
  4  5  1  0  0  0
  4 39  1  0  0  0
  5  6  1  0  0  0
  5  8  1  0  0  0
  5 40  1  0  0  0
  6  7  2  0  0  0
  6 16  1  0  0  0
  8  9  1  0  0  0
  8 41  1  0  0  0
  8 42  1  0  0  0
  9 10  2  0  0  0
  9 11  1  0  0  0
 10 12  1  0  0  0
 10 43  1  0  0  0
 11 13  2  0  0  0
 11 44  1  0  0  0
 12 14  2  0  0  0
 12 45  1  0  0  0
 13 14  1  0  0  0
 13 46  1  0  0  0
 14 15  1  0  0  0
 15 47  1  0  0  0
 16 17  1  0  0  0
 16 48  1  0  0  0
 17 18  1  0  0  0
 17 20  1  0  0  0
 17 49  1  0  0  0
 18 19  2  0  0  0
 18 23  1  0  0  0
 20 21  1  0  0  0
 20 22  1  0  0  0
 20 50  1  0  0  0
 21 51  1  0  0  0
 21 52  1  0  0  0
 21 53  1  0  0  0
 22 54  1  0  0  0
 22 55  1  0  0  0
 22 56  1  0  0  0
 23 24  1  0  0  0
 23 57  1  0  0  0
 24 25  1  0  0  0
 24 27  1  0  0  0
 24 58  1  0  0  0
 25 26  2  0  0  0
 25 28  1  0  0  0
 27 59  1  0  0  0
 27 60  1  0  0  0
 27 61  1  0  0  0
 28 29  1  0  0  0
 28 62  1  0  0  0
 29 30  1  0  0  0
 29 32  1  0  0  0
 29 63  1  0  0  0
 30 31  1  0  0  0
 30 64  1  0  0  0
 30 65  1  0  0  0
 31 66  1  0  0  0
 32 33  1  0  0  0
 32 67  1  0  0  0
 32 68  1  0  0  0
 33 34  1  0  0  0
 33 35  2  0  0  0
M  CHG  1  34  -1
M  END
> <s_m_source_file>
../3gjs_ligand.sdf

> <i_m_source_file_index>
1

> <s_epik_input>
W2NIXTFbY0hdYyhbT0hdKVtjSF1bY0hdYzFbQ0gyXVtDQEhdKFtOSF1DKD1PKVtDSDNdKUMoPU8pW05IXVtDQEBIXShbQ0hdKFtDSDNdKVtDSDNdKUMoPU8pW05IXVtDQEBIXShbQ0gzXSlDKD1PKVtOSF1bQ0BIXShbQ0gyXVtPSF0pW0NIMl1DKD1PKVtPSF0=

> <s_epik_cmdline>
J2VwaWtfYXBwJywgJy1pbWFlJywgJ2xpZ2FuZF9wcm8ubWFlJywgJy1vbWFlJywgJ2xpZ2FuZF9wcmVwLm1hZScsICctbXMnLCAnMScsICctcGgnLCAnNycsICctcGh0JywgJzAuNScsICctbnQn

> <r_lp_tautomer_probability>
1

> <r_epik_Ionization_Penalty>
  0.0023

> <r_epik_Ionization_Penalty_Charging>
  0.0014

> <r_epik_Ionization_Penalty_Neutral>
  0.0009

> <r_epik_State_Penalty>
 -0.0000

> <r_epik_Charging_Adjusted_Penalty>
0.00138333863358647

> <i_epik_Tot_Q>
-1

> <i_epik_Tot_abs_Q>
1

$$$$
