3gjt_ligand
                    3D
 Schrodinger Suite 2020-3.
 69 69  0  0  1  0            999 V2000
    8.8970   35.4710   61.3680 C   0  0  0  0  0  0
    7.7010   35.3950   61.6760 O   0  0  0  0  0  0
    9.9820   35.2720   62.4040 C   0  0  0  0  0  0
    9.3090   35.7290   60.1290 N   0  0  0  0  0  0
    8.3560   35.9390   59.0490 C   0  0  2  0  0  0
    7.7530   34.6020   58.6250 C   0  0  0  0  0  0
    8.4480   33.5930   58.5440 O   0  0  0  0  0  0
    9.0270   36.6500   57.8340 C   0  0  2  0  0  0
    9.2790   38.1260   58.1640 C   0  0  0  0  0  0
    8.1320   36.5760   56.6100 C   0  0  0  0  0  0
   10.3570   38.3680   59.2010 C   0  0  0  0  0  0
    6.4480   34.6030   58.3590 N   0  0  0  0  0  0
    5.7360   33.3980   57.9560 C   0  0  2  0  0  0
    5.2580   33.4860   56.5050 C   0  0  0  0  0  0
    4.7840   34.5340   56.0570 O   0  0  0  0  0  0
    4.5380   33.1730   58.8880 C   0  0  0  0  0  0
    4.9120   32.8810   60.3430 C   0  0  0  0  0  0
    3.7040   32.8500   61.2810 C   0  0  0  0  0  0
    2.7340   32.1150   60.9860 O   0  0  0  0  0  0
    3.7300   33.5550   62.3180 O   0  5  0  0  0  0
    5.3930   32.3850   55.7520 N   0  0  0  0  0  0
    4.9790   32.3100   54.3470 C   0  0  2  0  0  0
    3.4950   32.0050   54.1690 C   0  0  0  0  0  0
    2.8600   31.3900   55.0270 O   0  0  0  0  0  0
    5.8570   31.1960   53.7960 C   0  0  0  0  0  0
    5.9500   30.2680   54.9560 C   0  0  0  0  0  0
    6.2200   31.2170   56.1070 C   0  0  0  0  0  0
    2.9590   32.4380   53.0350 N   0  0  0  0  0  0
    1.5460   32.2380   52.7050 C   0  0  2  0  0  0
    1.4020   31.3080   51.4990 C   0  0  0  0  0  0
    0.0490   31.1890   51.0550 O   0  0  0  0  0  0
    0.8640   33.5790   52.3900 C   0  0  0  0  0  0
    0.1480   34.1750   53.5980 C   0  0  0  0  0  0
   -0.1360   33.4300   54.5620 O   0  5  0  0  0  0
   -0.1370   35.3910   53.5820 O   0  0  0  0  0  0
    9.5220   35.0668   63.3819 H   0  0  0  0  0  0
   10.5960   36.1822   62.4714 H   0  0  0  0  0  0
   10.6166   34.4224   62.1117 H   0  0  0  0  0  0
   10.3891   35.7824   59.9276 H   0  0  0  0  0  0
    7.5723   36.5807   59.4781 H   0  0  0  0  0  0
    9.9786   36.1496   57.6015 H   0  0  0  0  0  0
    9.5897   38.6576   57.2525 H   0  0  0  0  0  0
    8.3551   38.5773   58.5547 H   0  0  0  0  0  0
    7.9407   35.5223   56.3588 H   0  0  0  0  0  0
    8.6286   37.0707   55.7623 H   0  0  0  0  0  0
    7.1783   37.0814   56.8221 H   0  0  0  0  0  0
   10.4660   39.4493   59.3711 H   0  0  0  0  0  0
   11.3111   37.9554   58.8412 H   0  0  0  0  0  0
   10.0764   37.8750   60.1435 H   0  0  0  0  0  0
    5.9070   35.5562   58.4525 H   0  0  0  0  0  0
    6.4707   32.5841   58.0444 H   0  0  0  0  0  0
    3.9048   34.0724   58.8948 H   0  0  0  0  0  0
    3.9512   32.3142   58.5301 H   0  0  0  0  0  0
    5.4059   31.9001   60.4048 H   0  0  0  0  0  0
    5.5969   33.6601   60.7090 H   0  0  0  0  0  0
    5.1183   33.2848   53.8567 H   0  0  0  0  0  0
    5.3682   30.7427   52.9210 H   0  0  0  0  0  0
    6.8313   31.6105   53.4979 H   0  0  0  0  0  0
    5.0019   29.7209   55.0648 H   0  0  0  0  0  0
    6.7689   29.5529   54.7888 H   0  0  0  0  0  0
    7.2750   31.5212   56.1730 H   0  0  0  0  0  0
    5.8923   30.8171   57.0779 H   0  0  0  0  0  0
    3.6192   32.9647   52.3302 H   0  0  0  0  0  0
    1.1042   31.7782   53.6013 H   0  0  0  0  0  0
    1.9990   31.6984   50.6616 H   0  0  0  0  0  0
    1.7592   30.3026   51.7666 H   0  0  0  0  0  0
   -0.1930   30.5488   50.1938 H   0  0  0  0  0  0
    1.6196   34.3048   52.0550 H   0  0  0  0  0  0
    0.1179   33.4331   51.5950 H   0  0  0  0  0  0
  1  2  2  0  0  0
  1  3  1  0  0  0
  1  4  1  0  0  0
  3 36  1  0  0  0
  3 37  1  0  0  0
  3 38  1  0  0  0
  4  5  1  0  0  0
  4 39  1  0  0  0
  5  6  1  0  0  0
  5  8  1  0  0  0
  5 40  1  0  0  0
  6  7  2  0  0  0
  6 12  1  0  0  0
  8  9  1  0  0  0
  8 10  1  0  0  0
  8 41  1  0  0  0
  9 11  1  0  0  0
  9 42  1  0  0  0
  9 43  1  0  0  0
 10 44  1  0  0  0
 10 45  1  0  0  0
 10 46  1  0  0  0
 11 47  1  0  0  0
 11 48  1  0  0  0
 11 49  1  0  0  0
 12 13  1  0  0  0
 12 50  1  0  0  0
 13 14  1  0  0  0
 13 16  1  0  0  0
 13 51  1  0  0  0
 14 15  2  0  0  0
 14 21  1  0  0  0
 16 17  1  0  0  0
 16 52  1  0  0  0
 16 53  1  0  0  0
 17 18  1  0  0  0
 17 54  1  0  0  0
 17 55  1  0  0  0
 18 19  2  0  0  0
 18 20  1  0  0  0
 21 22  1  0  0  0
 21 27  1  0  0  0
 22 23  1  0  0  0
 22 25  1  0  0  0
 22 56  1  0  0  0
 23 24  2  0  0  0
 23 28  1  0  0  0
 25 26  1  0  0  0
 25 57  1  0  0  0
 25 58  1  0  0  0
 26 27  1  0  0  0
 26 59  1  0  0  0
 26 60  1  0  0  0
 27 61  1  0  0  0
 27 62  1  0  0  0
 28 29  1  0  0  0
 28 63  1  0  0  0
 29 30  1  0  0  0
 29 32  1  0  0  0
 29 64  1  0  0  0
 30 31  1  0  0  0
 30 65  1  0  0  0
 30 66  1  0  0  0
 31 67  1  0  0  0
 32 33  1  0  0  0
 32 68  1  0  0  0
 32 69  1  0  0  0
 33 34  1  0  0  0
 33 35  2  0  0  0
M  CHG  2  20  -1  34  -1
M  END
> <s_m_source_file>
../3gjt_ligand.sdf

> <i_m_source_file_index>
1

> <s_epik_input>
Tz1DKFtDSDNdKVtOSF1bQ0BASF0oW0NAQEhdKFtDSDNdKVtDSDJdW0NIM10pQyg9TylbTkhdW0NAQEhdKFtDSDJdW0NIMl1DKD1PKVtPSF0pQyg9TylOMVtDQEBIXShbQ0gyXVtDSDJdW0NIMl0xKUMoPU8pW05IXVtDQEhdKFtDSDJdW09IXSlbQ0gyXUMoPU8pW09IXQ==

> <s_epik_cmdline>
J2VwaWtfYXBwJywgJy1pbWFlJywgJ2xpZ2FuZF9wcm8ubWFlJywgJy1vbWFlJywgJ2xpZ2FuZF9wcmVwLm1hZScsICctbXMnLCAnMScsICctcGgnLCAnNycsICctcGh0JywgJzAuNScsICctbnQn

> <r_lp_tautomer_probability>
1

> <r_epik_Ionization_Penalty>
  0.0028

> <r_epik_Ionization_Penalty_Charging>
  0.0028

> <r_epik_Ionization_Penalty_Neutral>
  0.0000

> <r_epik_State_Penalty>
 -0.0000

> <r_epik_Charging_Adjusted_Penalty>
0.00282287543723157

> <i_epik_Tot_Q>
-2

> <i_epik_Tot_abs_Q>
2

$$$$
