3gjw_ligand
                    3D
 Schrodinger Suite 2020-3.
 38 41  0  0  1  0            999 V2000
   50.9960   55.4160    9.0390 C   0  0  0  0  0  0
   49.5310   55.8580   10.6850 C   0  0  0  0  0  0
   48.8900   54.1470    9.1360 C   0  0  0  0  0  0
   48.2260   52.4890    7.5970 C   0  0  0  0  0  0
   47.0480   52.3320    8.2950 C   0  0  0  0  0  0
   45.8970   50.1520    8.6260 N   0  3  0  0  0  0
   44.6160   49.4720    8.3430 C   0  0  0  0  0  0
   47.0240   49.2100    8.4530 C   0  0  0  0  0  0
   51.5480   56.4050    9.8230 C   0  0  0  0  0  0
   49.7880   55.0940    9.5890 N   0  0  0  0  0  0
   50.6220   56.6830   10.8600 C   0  0  0  0  0  0
   47.7300   53.9910    9.8530 C   0  0  0  0  0  0
   47.4730   54.7590   10.9950 N   0  0  0  0  0  0
   48.3310   55.7430   11.4450 C   0  0  0  0  0  0
   49.1640   53.4030    8.0140 C   0  0  0  0  0  0
   46.7960   53.0780    9.4240 C   0  0  0  0  0  0
   48.0910   56.4390   12.4190 O   0  0  0  0  0  0
   46.0300   51.3670    7.8070 C   0  0  0  0  0  0
   44.8890   48.0220    8.6420 C   0  0  0  0  0  0
   46.3920   47.8550    8.6730 C   0  0  0  0  0  0
   51.4399   54.9735    8.1472 H   0  0  0  0  0  0
   48.4148   51.8851    6.7095 H   0  0  0  0  0  0
   45.9143   50.4865    9.6738 H   0  0  0  0  0  0
   43.8303   49.8852    8.9925 H   0  0  0  0  0  0
   44.3417   49.6303    7.2896 H   0  0  0  0  0  0
   47.4396   49.3176    7.4402 H   0  0  0  0  0  0
   47.8048   49.4322    9.1952 H   0  0  0  0  0  0
   52.5156   56.8842    9.6740 H   0  0  0  0  0  0
   50.7498   57.4183   11.6545 H   0  0  0  0  0  0
   46.5544   54.5902   11.5761 H   0  0  0  0  0  0
   50.0992   53.5339    7.4697 H   0  0  0  0  0  0
   45.8638   52.9460    9.9732 H   0  0  0  0  0  0
   45.0427   51.8517    7.7923 H   0  0  0  0  0  0
   46.2929   51.0395    6.7903 H   0  0  0  0  0  0
   44.4476   47.7588    9.6146 H   0  0  0  0  0  0
   44.4435   47.3952    7.8555 H   0  0  0  0  0  0
   46.7119   47.1675    7.8761 H   0  0  0  0  0  0
   46.7075   47.4573    9.6489 H   0  0  0  0  0  0
  1  9  2  0  0  0
  1 10  1  0  0  0
  1 21  1  0  0  0
  2 10  1  0  0  0
  2 11  2  0  0  0
  2 14  1  0  0  0
  3 10  1  0  0  0
  3 12  2  0  0  0
  3 15  1  0  0  0
  4  5  1  0  0  0
  4 15  2  0  0  0
  4 22  1  0  0  0
  5 16  2  0  0  0
  5 18  1  0  0  0
  6  7  1  0  0  0
  6  8  1  0  0  0
  6 18  1  0  0  0
  6 23  1  0  0  0
  7 19  1  0  0  0
  7 24  1  0  0  0
  7 25  1  0  0  0
  8 20  1  0  0  0
  8 26  1  0  0  0
  8 27  1  0  0  0
  9 11  1  0  0  0
  9 28  1  0  0  0
 11 29  1  0  0  0
 12 13  1  0  0  0
 12 16  1  0  0  0
 13 14  1  0  0  0
 13 30  1  0  0  0
 14 17  2  0  0  0
 15 31  1  0  0  0
 16 32  1  0  0  0
 18 33  1  0  0  0
 18 34  1  0  0  0
 19 20  1  0  0  0
 19 35  1  0  0  0
 19 36  1  0  0  0
 20 37  1  0  0  0
 20 38  1  0  0  0
M  CHG  1   6   1
M  END
> <s_m_source_file>
../3gjw_ligand.sdf

> <i_m_source_file_index>
1

> <s_epik_input>
W2NIXTFbY0hdW2NIXW4oYzEyKWMzYyhbbkhdYzI9TylbY0hdYyhbY0hdW2NIXTMpW0NIMl1bTkgrXTRbQ0gyXVtDSDJdW0NIMl1bQ0gyXTQ=

> <s_epik_cmdline>
J2VwaWtfYXBwJywgJy1pbWFlJywgJ2xpZ2FuZF9wcm8ubWFlJywgJy1vbWFlJywgJ2xpZ2FuZF9wcmVwLm1hZScsICctbXMnLCAnMScsICctcGgnLCAnNycsICctcGh0JywgJzAuNScsICctbnQn

> <r_epik_Ionization_Penalty>
  0.0136

> <r_epik_Ionization_Penalty_Charging>
  0.0136

> <r_epik_Ionization_Penalty_Neutral>
  0.0000

> <r_epik_State_Penalty>
  0.0106

> <r_epik_Charging_Adjusted_Penalty>
0.0241518794952679

> <i_epik_Tot_Q>
1

> <i_epik_Tot_abs_Q>
1

$$$$
