3gk1_ligand
                    3D
 Schrodinger Suite 2020-3.
 36 36  0  0  1  0            999 V2000
    5.8760    6.7570   13.3360 C   0  0  0  0  0  0
    6.4690    7.2010   12.0470 C   0  0  0  0  0  0
    9.4810    8.7800   11.0270 C   0  0  0  0  0  0
    4.2320    6.1990   14.5350 C   0  0  0  0  0  0
    6.4080    6.4580   14.5960 C   0  0  0  0  0  0
    2.9720    5.9810   14.8500 C   0  0  0  0  0  0
    1.8310    5.8980   15.2430 C   0  0  0  0  0  0
    7.4870    8.0560   12.0580 N   0  0  0  0  0  0
    8.3010    8.1810   10.9130 N   0  0  0  0  0  0
   10.1870    9.1260    9.9280 N   0  0  0  0  0  0
    0.4230    6.0070   15.5790 C   0  0  0  0  0  0
    5.3260    6.0960   15.3810 C   0  0  0  0  0  0
    6.0000    6.7630   11.0040 O   0  0  0  0  0  0
   10.8160    8.2150    8.9790 C   0  0  0  0  0  0
    9.9770    9.0960   12.4940 S   0  0  0  0  0  0
    4.5190    6.6150   13.2660 O   0  0  0  0  0  0
   -0.2920    6.9710   14.6570 C   0  0  0  0  0  0
   -1.1910    6.2010   13.7000 C   0  0  0  0  0  0
   -2.5540    6.8500   13.5450 C   0  0  0  0  0  0
    7.4549    6.5011   14.8964 H   0  0  0  0  0  0
    7.6967    8.6633   12.9509 H   0  0  0  0  0  0
    7.9552    7.7857    9.9465 H   0  0  0  0  0  0
   10.2649   10.2133    9.7809 H   0  0  0  0  0  0
   -0.0531    5.0195   15.4885 H   0  0  0  0  0  0
    0.3196    6.3705   16.6120 H   0  0  0  0  0  0
    5.3328    5.7970   16.4292 H   0  0  0  0  0  0
   11.3172    8.7956    8.1905 H   0  0  0  0  0  0
   10.0488    7.5690    8.5272 H   0  0  0  0  0  0
   11.5565    7.5932    9.5034 H   0  0  0  0  0  0
   -0.9048    7.6627   15.2536 H   0  0  0  0  0  0
    0.4486    7.5429   14.0787 H   0  0  0  0  0  0
   -0.7186    6.1581   12.7075 H   0  0  0  0  0  0
   -1.3406    5.1794   14.0793 H   0  0  0  0  0  0
   -3.1643    6.2588   12.8464 H   0  0  0  0  0  0
   -2.4318    7.8702   13.1522 H   0  0  0  0  0  0
   -3.0538    6.8914   14.5240 H   0  0  0  0  0  0
  1  2  1  0  0  0
  1  5  2  0  0  0
  1 16  1  0  0  0
  2  8  1  0  0  0
  2 13  2  0  0  0
  3  9  1  0  0  0
  3 10  1  0  0  0
  3 15  2  0  0  0
  4  6  1  0  0  0
  4 12  2  0  0  0
  4 16  1  0  0  0
  5 12  1  0  0  0
  5 20  1  0  0  0
  6  7  3  0  0  0
  7 11  1  0  0  0
  8  9  1  0  0  0
  8 21  1  0  0  0
  9 22  1  0  0  0
 10 14  1  0  0  0
 10 23  1  0  0  0
 11 17  1  0  0  0
 11 24  1  0  0  0
 11 25  1  0  0  0
 12 26  1  0  0  0
 14 27  1  0  0  0
 14 28  1  0  0  0
 14 29  1  0  0  0
 17 18  1  0  0  0
 17 30  1  0  0  0
 17 31  1  0  0  0
 18 19  1  0  0  0
 18 32  1  0  0  0
 18 33  1  0  0  0
 19 34  1  0  0  0
 19 35  1  0  0  0
 19 36  1  0  0  0
M  END
> <s_m_source_file>
../3gk1_ligand.sdf

> <i_m_source_file_index>
1

> <s_epik_input>
W0NIM11bTkhdQyg9UylbTkhdW05IXUMoPU8pYzFbY0hdW2NIXWMobzEpQyNDW0NIMl1bQ0gyXVtDSDJdW0NIM10=

> <s_epik_cmdline>
J2VwaWtfYXBwJywgJy1pbWFlJywgJ2xpZ2FuZF9wcm8ubWFlJywgJy1vbWFlJywgJ2xpZ2FuZF9wcmVwLm1hZScsICctbXMnLCAnMScsICctcGgnLCAnNycsICctcGh0JywgJzAuNScsICctbnQn

> <r_lp_tautomer_probability>
1

> <r_epik_Ionization_Penalty>
  0.0004

> <r_epik_Ionization_Penalty_Charging>
  0.0000

> <r_epik_Ionization_Penalty_Neutral>
  0.0004

> <r_epik_State_Penalty>
 -0.0000

> <r_epik_Charging_Adjusted_Penalty>
0

> <i_epik_Tot_Q>
0

> <i_epik_Tot_abs_Q>
0

$$$$
