3gk2_ligand
                    3D
 Schrodinger Suite 2020-3.
 39 40  0  0  1  0            999 V2000
   -0.7550    6.8060   14.2460 C   0  0  0  0  0  0
   -0.0400    7.9990   14.3320 C   0  0  0  0  0  0
    1.3280    8.0470   14.6440 C   0  0  0  0  0  0
    2.0280    6.7230   14.8590 C   0  0  0  0  0  0
    1.2420    5.5650   14.7960 C   0  0  0  0  0  0
   -0.1210    5.5920   14.4850 C   0  0  0  0  0  0
    1.2880   10.4110   13.9170 C   0  0  0  0  0  0
    1.1880   11.6550   14.7890 C   0  0  0  0  0  0
    3.6420   11.0120   14.9620 C   0  0  0  0  0  0
    3.1100    9.6610   15.4610 C   0  0  0  0  0  0
    2.9000   13.3790   15.4210 C   0  0  0  0  0  0
    3.4500    6.4840   15.2670 C   0  0  0  0  0  0
    5.1540    7.2260   12.6370 C   0  0  0  0  0  0
    3.9260    7.4690   12.2110 N   0  0  0  0  0  0
    6.4840    7.4650   11.6180 S   0  0  0  0  0  0
    5.3870    6.7880   13.8670 N   0  0  0  0  0  0
    4.6650    6.5040   14.8550 N   0  0  0  0  0  0
    1.9170    9.3390   14.6830 N   0  0  0  0  0  0
    2.5740   12.0090   15.0580 N   0  3  0  0  0  0
   -1.8145    6.8247   13.9906 H   0  0  0  0  0  0
   -0.5659    8.9360   14.1490 H   0  0  0  0  0  0
    1.7126    4.6028   14.9979 H   0  0  0  0  0  0
   -0.6862    4.6616   14.4300 H   0  0  0  0  0  0
    0.2801   10.1001   13.6048 H   0  0  0  0  0  0
    1.8947   10.6347   13.0272 H   0  0  0  0  0  0
    0.6574   12.4464   14.2393 H   0  0  0  0  0  0
    0.6357   11.4143   15.7093 H   0  0  0  0  0  0
    4.4958   11.3217   15.5826 H   0  0  0  0  0  0
    3.9658   10.9146   13.9153 H   0  0  0  0  0  0
    3.8799    8.8884   15.3182 H   0  0  0  0  0  0
    2.8608    9.7371   16.5297 H   0  0  0  0  0  0
    1.9798   13.9812   15.4435 H   0  0  0  0  0  0
    3.5952   13.7993   14.6793 H   0  0  0  0  0  0
    3.3716   13.3927   16.4147 H   0  0  0  0  0  0
    3.2258    6.1968   16.3049 H   0  0  0  0  0  0
    3.7612    7.8318   11.1857 H   0  0  0  0  0  0
    3.0692    7.3084   12.8819 H   0  0  0  0  0  0
    6.4798    6.6829   13.9360 H   0  0  0  0  0  0
    2.4328   11.7556   16.1191 H   0  0  0  0  0  0
  1  2  2  0  0  0
  1  6  1  0  0  0
  1 20  1  0  0  0
  2  3  1  0  0  0
  2 21  1  0  0  0
  3  4  2  0  0  0
  3 18  1  0  0  0
  4  5  1  0  0  0
  4 12  1  0  0  0
  5  6  2  0  0  0
  5 22  1  0  0  0
  6 23  1  0  0  0
  7  8  1  0  0  0
  7 18  1  0  0  0
  7 24  1  0  0  0
  7 25  1  0  0  0
  8 19  1  0  0  0
  8 26  1  0  0  0
  8 27  1  0  0  0
  9 10  1  0  0  0
  9 19  1  0  0  0
  9 28  1  0  0  0
  9 29  1  0  0  0
 10 18  1  0  0  0
 10 30  1  0  0  0
 10 31  1  0  0  0
 11 19  1  0  0  0
 11 32  1  0  0  0
 11 33  1  0  0  0
 11 34  1  0  0  0
 12 17  2  0  0  0
 12 35  1  0  0  0
 13 14  1  0  0  0
 13 15  2  0  0  0
 13 16  1  0  0  0
 14 36  1  0  0  0
 14 37  1  0  0  0
 16 17  1  0  0  0
 16 38  1  0  0  0
 19 39  1  0  0  0
M  CHG  1  19   1
M  END
> <s_m_source_file>
../3gk2_ligand.sdf

> <i_m_source_file_index>
1

> <s_epik_input>
W05IMl1DKD1TKVtOSF0vTj1bQ0hdXGMxW2NIXVtjSF1bY0hdW2NIXWMxTjJbQ0gyXVtDSDJdW05IK10oW0NIM10pW0NIMl1bQ0gyXTI=

> <s_epik_cmdline>
J2VwaWtfYXBwJywgJy1pbWFlJywgJ2xpZ2FuZF9wcm8ubWFlJywgJy1vbWFlJywgJ2xpZ2FuZF9wcmVwLm1hZScsICctbXMnLCAnMScsICctcGgnLCAnNycsICctcGh0JywgJzAuNScsICctbnQn

> <r_epik_Ionization_Penalty>
  0.0648

> <r_epik_Ionization_Penalty_Charging>
  0.0647

> <r_epik_Ionization_Penalty_Neutral>
  0.0000

> <r_epik_State_Penalty>
  0.0564

> <r_epik_Charging_Adjusted_Penalty>
0.12117058248246

> <i_epik_Tot_Q>
1

> <i_epik_Tot_abs_Q>
1

> <s_epik_Chemistry_Notes>
This compound has an imine and may undergo hydrolysis.

$$$$
