3gk4_ligand
                    3D
 Schrodinger Suite 2020-3.
 46 48  0  0  1  0            999 V2000
    3.0290  -13.5260   14.8820 N   0  0  0  0  0  0
    3.9420  -14.5770   15.0390 N   0  0  0  0  0  0
    0.8250  -11.7730   14.6540 C   0  0  0  0  0  0
    2.2100  -11.2370   14.4580 C   0  0  0  0  0  0
    3.3450  -12.1950   14.5890 C   0  0  0  0  0  0
   -1.6310  -13.9600   13.2470 O   0  0  0  0  0  0
    3.1450  -15.7200   15.3080 N   0  0  0  0  0  0
   -4.2370  -11.6530   13.8440 O   0  0  0  0  0  0
   -3.2130  -11.0010   14.0030 C   0  0  0  0  0  0
   -3.2900   -9.5690   14.4620 C   0  0  0  0  0  0
   -1.8810  -11.6490   13.7080 C   0  0  2  0  0  0
   -1.8930  -13.1060   14.0830 C   0  0  0  0  0  0
   -2.1940  -13.5050   15.4560 O   0  0  0  0  0  0
   -3.4280  -14.1340   15.8160 C   0  0  0  0  0  0
   -3.9070  -13.6100   17.1520 C   0  0  0  0  0  0
   -0.5640  -10.7980   14.5400 S   0  0  0  0  0  0
    0.6780  -13.0870   14.9360 N   0  0  0  0  0  0
    2.4820   -9.9000   14.1710 C   0  0  0  0  0  0
    3.8090   -9.4830   14.0080 C   0  0  0  0  0  0
    4.8720  -10.3830   14.1300 C   0  0  0  0  0  0
    4.6530  -11.7350   14.4170 C   0  0  0  0  0  0
    1.8430  -15.3430   15.3130 C   0  0  0  0  0  0
    1.7650  -13.8930   15.0320 C   0  0  0  0  0  0
    0.5610  -16.0610   15.5390 C   0  0  0  0  0  0
   -0.3320  -15.5160   16.1530 O   0  0  0  0  0  0
    0.3710  -17.4240   15.0450 O   0  0  0  0  0  0
   -0.8910  -18.1060   15.1430 C   0  0  0  0  0  0
   -2.0480  -17.2560   14.6510 C   0  0  0  0  0  0
   -4.3424   -9.2910   14.6209 H   0  0  0  0  0  0
   -2.8494   -8.9142   13.6958 H   0  0  0  0  0  0
   -2.7344   -9.4557   15.4046 H   0  0  0  0  0  0
   -1.8612  -11.6797   12.6086 H   0  0  0  0  0  0
   -4.1870  -13.9177   15.0498 H   0  0  0  0  0  0
   -3.2782  -15.2214   15.8870 H   0  0  0  0  0  0
   -4.8552  -14.0994   17.4192 H   0  0  0  0  0  0
   -4.0614  -12.5229   17.0855 H   0  0  0  0  0  0
   -3.1526  -13.8267   17.9227 H   0  0  0  0  0  0
    1.6665   -9.1834   14.0740 H   0  0  0  0  0  0
    4.0170   -8.4372   13.7818 H   0  0  0  0  0  0
    5.8928  -10.0240   13.9988 H   0  0  0  0  0  0
    5.4944  -12.4223   14.5055 H   0  0  0  0  0  0
   -0.8606  -19.0225   14.5355 H   0  0  0  0  0  0
   -1.0853  -18.3687   16.1934 H   0  0  0  0  0  0
   -2.9860  -17.8224   14.7473 H   0  0  0  0  0  0
   -1.8860  -16.9917   13.5956 H   0  0  0  0  0  0
   -2.1106  -16.3378   15.2535 H   0  0  0  0  0  0
  1  2  1  0  0  0
  1  5  1  0  0  0
  1 23  1  0  0  0
  2  7  2  0  0  0
  3  4  1  0  0  0
  3 16  1  0  0  0
  3 17  2  0  0  0
  4  5  2  0  0  0
  4 18  1  0  0  0
  5 21  1  0  0  0
  6 12  2  0  0  0
  7 22  1  0  0  0
  8  9  2  0  0  0
  9 10  1  0  0  0
  9 11  1  0  0  0
 10 29  1  0  0  0
 10 30  1  0  0  0
 10 31  1  0  0  0
 11 12  1  0  0  0
 11 16  1  0  0  0
 11 32  1  0  0  0
 12 13  1  0  0  0
 13 14  1  0  0  0
 14 15  1  0  0  0
 14 33  1  0  0  0
 14 34  1  0  0  0
 15 35  1  0  0  0
 15 36  1  0  0  0
 15 37  1  0  0  0
 17 23  1  0  0  0
 18 19  2  0  0  0
 18 38  1  0  0  0
 19 20  1  0  0  0
 19 39  1  0  0  0
 20 21  2  0  0  0
 20 40  1  0  0  0
 21 41  1  0  0  0
 22 23  2  0  0  0
 22 24  1  0  0  0
 24 25  2  0  0  0
 24 26  1  0  0  0
 26 27  1  0  0  0
 27 28  1  0  0  0
 27 42  1  0  0  0
 27 43  1  0  0  0
 28 44  1  0  0  0
 28 45  1  0  0  0
 28 46  1  0  0  0
M  END
> <s_m_source_file>
../3gk4_ligand.sdf

> <i_m_source_file_index>
1

> <s_epik_input>
W0NIM11bQ0gyXU9DKD1PKVtDQEBIXShDKD1PKVtDSDNdKVNjKGMoYzFuMjMpW2NIXVtjSF1bY0hdW2NIXTEpbmMzYyhubjIpQyg9TylPW0NIMl1bQ0gzXQ==

> <s_epik_cmdline>
J2VwaWtfYXBwJywgJy1pbWFlJywgJ2xpZ2FuZF9wcm8ubWFlJywgJy1vbWFlJywgJ2xpZ2FuZF9wcmVwLm1hZScsICctbXMnLCAnMScsICctcGgnLCAnNycsICctcGh0JywgJzAuNScsICctbnQn

> <r_lp_tautomer_probability>
0.99999997

> <r_epik_Ionization_Penalty>
  0.2306

> <r_epik_Ionization_Penalty_Charging>
  0.0000

> <r_epik_Ionization_Penalty_Neutral>
  0.2306

> <r_epik_State_Penalty>
  0.2213

> <r_epik_Charging_Adjusted_Penalty>
0.22127219320379

> <i_epik_Tot_Q>
0

> <i_epik_Tot_abs_Q>
0

> <s_epik_Chemistry_Notes>
This compound has an ester and may undergo hydrolysis at high or low pH.

$$$$
