3gkz_ligand
                    3D
 Schrodinger Suite 2020-3.
 27 27  0  0  1  0            999 V2000
   -2.4400   -2.0580   15.3790 N   0  3  0  0  0  0
   -2.9850   -3.4260   15.5530 C   0  0  1  0  0  0
   -1.8660   -4.4250   15.2400 C   0  0  0  0  0  0
   -3.4840   -3.6220   17.0080 C   0  0  0  0  0  0
   -4.2340   -4.9300   17.1960 C   0  0  0  0  0  0
   -3.6000   -6.0350   17.8080 C   0  0  0  0  0  0
   -5.5720   -5.0410   16.7720 C   0  0  0  0  0  0
   -4.3030   -7.2380   17.9860 C   0  0  0  0  0  0
   -6.2780   -6.2490   16.9510 C   0  0  0  0  0  0
   -5.6430   -7.3480   17.5590 C   0  0  0  0  0  0
   -3.5180   -1.0470   15.3790 C   0  0  0  0  0  0
   -1.7477   -1.8316   16.2033 H   0  0  0  0  0  0
   -1.9024   -1.9965   14.4213 H   0  0  0  0  0  0
   -3.8256   -3.5508   14.8546 H   0  0  0  0  0  0
   -1.5205   -4.2765   14.2063 H   0  0  0  0  0  0
   -2.2470   -5.4504   15.3555 H   0  0  0  0  0  0
   -1.0273   -4.2652   15.9335 H   0  0  0  0  0  0
   -2.6237   -3.6239   17.6935 H   0  0  0  0  0  0
   -4.1646   -2.8004   17.2761 H   0  0  0  0  0  0
   -2.5656   -5.9537   18.1418 H   0  0  0  0  0  0
   -6.0647   -4.1893   16.3031 H   0  0  0  0  0  0
   -3.8112   -8.0898   18.4559 H   0  0  0  0  0  0
   -7.3130   -6.3311   16.6192 H   0  0  0  0  0  0
   -6.1857   -8.2827   17.6997 H   0  0  0  0  0  0
   -3.0816   -0.0457   15.2484 H   0  0  0  0  0  0
   -4.0600   -1.0889   16.3353 H   0  0  0  0  0  0
   -4.2147   -1.2539   14.5533 H   0  0  0  0  0  0
  1  2  1  0  0  0
  1 11  1  0  0  0
  1 12  1  0  0  0
  1 13  1  0  0  0
  2  3  1  0  0  0
  2  4  1  0  0  0
  2 14  1  0  0  0
  3 15  1  0  0  0
  3 16  1  0  0  0
  3 17  1  0  0  0
  4  5  1  0  0  0
  4 18  1  0  0  0
  4 19  1  0  0  0
  5  6  2  0  0  0
  5  7  1  0  0  0
  6  8  1  0  0  0
  6 20  1  0  0  0
  7  9  2  0  0  0
  7 21  1  0  0  0
  8 10  2  0  0  0
  8 22  1  0  0  0
  9 10  1  0  0  0
  9 23  1  0  0  0
 10 24  1  0  0  0
 11 25  1  0  0  0
 11 26  1  0  0  0
 11 27  1  0  0  0
M  CHG  1   1   1
M  END
> <s_m_source_file>
../3gkz_ligand.sdf

> <i_m_source_file_index>
1

> <s_epik_input>
W0NIM11bTkgyK11bQ0BASF0oW0NIM10pW0NIMl1jMVtjSF1bY0hdW2NIXVtjSF1bY0hdMQ==

> <s_epik_cmdline>
J2VwaWtfYXBwJywgJy1pbWFlJywgJ2xpZ2FuZF9wcm8ubWFlJywgJy1vbWFlJywgJ2xpZ2FuZF9wcmVwLm1hZScsICctbXMnLCAnMScsICctcGgnLCAnNycsICctcGh0JywgJzAuNScsICctbnQn

> <r_lp_tautomer_probability>
1

> <r_epik_Ionization_Penalty>
  0.0005

> <r_epik_Ionization_Penalty_Charging>
  0.0005

> <r_epik_Ionization_Penalty_Neutral>
  0.0000

> <r_epik_State_Penalty>
 -0.0000

> <r_epik_Charging_Adjusted_Penalty>
0.000543098820967012

> <i_epik_Tot_Q>
1

> <i_epik_Tot_abs_Q>
1

$$$$
