3gl6_ligand
                    3D
 Schrodinger Suite 2020-3.
147146  0  0  1  0            999 V2000
   -7.1190  -23.7610   -8.9400 N   0  3  0  0  0  0
   -7.2290  -22.3730   -8.4080 C   0  0  2  0  0  0
   -7.0980  -22.3810   -6.8880 C   0  0  0  0  0  0
   -7.1630  -23.4350   -6.2590 O   0  0  0  0  0  0
   -8.5770  -21.7730   -8.8150 C   0  0  0  0  0  0
   -6.9080  -21.2030   -6.3020 N   0  0  0  0  0  0
   -6.7940  -21.0920   -4.8550 C   0  0  2  0  0  0
   -8.1720  -21.3340   -4.2480 C   0  0  0  0  0  0
   -9.1610  -20.7420   -4.6780 O   0  0  0  0  0  0
   -6.2710  -19.7040   -4.4740 C   0  0  0  0  0  0
   -4.8380  -19.4500   -4.9460 C   0  0  0  0  0  0
   -4.4710  -17.9730   -4.8910 C   0  0  0  0  0  0
   -5.2920  -17.1730   -5.7980 N   0  0  0  0  0  0
   -5.1510  -15.8630   -5.9770 C   0  0  0  0  0  0
   -4.2150  -15.1960   -5.3130 N   0  0  0  0  0  0
   -5.9470  -15.2170   -6.8180 N   0  3  0  0  0  0
   -8.2330  -22.2200   -3.2600 N   0  0  0  0  0  0
   -9.4930  -22.5460   -2.6090 C   0  0  2  0  0  0
   -9.3520  -22.5340   -1.0940 C   0  0  0  0  0  0
   -8.2470  -22.4680   -0.5590 O   0  0  0  0  0  0
   -9.9880  -23.9470   -3.0150 C   0  0  2  0  0  0
   -9.0590  -24.9340   -2.5490 O   0  0  0  0  0  0
  -10.1140  -24.0540   -4.5310 C   0  0  0  0  0  0
  -10.4860  -22.5930   -0.4100 N   0  0  0  0  0  0
  -10.5020  -22.6210    1.0430 C   0  0  1  0  0  0
  -10.2330  -21.2290    1.6280 C   0  0  0  0  0  0
  -11.3410  -20.2080    1.3840 C   0  0  0  0  0  0
  -11.1110  -18.9260    2.1850 C   0  0  0  0  0  0
  -12.1560  -17.8630    1.8490 C   0  0  0  0  0  0
  -12.0030  -16.6020    2.6160 N   0  3  0  0  0  0
  -11.8700  -23.1010    1.4910 C   0  0  0  0  0  0
  -12.8310  -23.0910    0.7170 O   0  0  0  0  0  0
  -13.0120  -15.6410    2.1440 C   0  0  0  0  0  0
  -10.6780  -15.9880    2.4260 C   0  0  0  0  0  0
  -12.2260  -16.7620    4.0570 C   0  0  0  0  0  0
  -11.9430  -23.5320    2.7430 N   0  0  0  0  0  0
  -13.1890  -23.9960    3.3290 C   0  0  2  0  0  0
  -13.3990  -23.2690    4.6450 C   0  0  0  0  0  0
  -12.4460  -23.0480    5.3920 O   0  0  0  0  0  0
  -13.1380  -25.4980    3.6150 C   0  0  0  0  0  0
  -13.4230  -26.3910    2.4330 C   0  0  0  0  0  0
  -13.6540  -27.8330    2.8550 C   0  0  0  0  0  0
  -14.1850  -28.6370    2.0900 O   0  0  0  0  0  0
  -13.2500  -28.1660    4.0770 N   0  0  0  0  0  0
  -14.6400  -22.8820    4.9140 N   0  0  0  0  0  0
  -14.9750  -22.2230    6.1670 C   0  0  2  0  0  0
  -16.1260  -23.0110    6.7880 C   0  0  0  0  0  0
  -16.6320  -23.9560    6.1840 O   0  0  0  0  0  0
  -15.3730  -20.7470    5.9620 C   0  0  2  0  0  0
  -16.4540  -20.6600    5.0300 O   0  0  0  0  0  0
  -14.1790  -19.9440    5.4440 C   0  0  0  0  0  0
  -16.5480  -22.6130    7.9810 N   0  0  0  0  0  0
  -17.5970  -23.3270    8.7060 C   0  0  2  0  0  0
  -19.0750  -23.1720    8.3190 C   0  0  0  0  0  0
  -19.5840  -22.0630    8.1460 O   0  0  0  0  0  0
  -17.4400  -23.0470   10.1870 C   0  0  0  0  0  0
  -19.7350  -24.3270    8.2100 N   0  0  0  0  0  0
  -21.1630  -24.4870    7.9140 C   0  0  2  0  0  0
  -21.7740  -23.9500    6.6250 C   0  0  0  0  0  0
  -22.9370  -23.4880    6.6670 O   0  0  0  0  0  0
  -21.9640  -23.9790    9.1090 C   0  0  0  0  0  0
  -21.9150  -24.9340   10.2890 C   0  0  0  0  0  0
  -21.8640  -24.1930   11.6070 C   0  0  0  0  0  0
  -20.5470  -23.6120   11.8640 N   0  0  0  0  0  0
  -19.5960  -24.1990   12.5850 C   0  0  0  0  0  0
  -19.8100  -25.3900   13.1280 N   0  0  0  0  0  0
  -18.4330  -23.5910   12.7760 N   0  3  0  0  0  0
   -6.1497  -24.1904   -8.6465 H   0  0  0  0  0  0
   -7.1936  -23.7401  -10.0373 H   0  0  0  0  0  0
   -7.9325  -24.3768   -8.5288 H   0  0  0  0  0  0
   -6.4074  -21.7822   -8.8392 H   0  0  0  0  0  0
   -8.6616  -21.7717   -9.9117 H   0  0  0  0  0  0
   -8.6470  -20.7410   -8.4406 H   0  0  0  0  0  0
   -9.3911  -22.3750   -8.3851 H   0  0  0  0  0  0
   -6.8371  -20.3027   -6.9300 H   0  0  0  0  0  0
   -6.0788  -21.8560   -4.5162 H   0  0  0  0  0  0
   -6.9118  -18.9335   -4.9275 H   0  0  0  0  0  0
   -6.2848  -19.5947   -3.3795 H   0  0  0  0  0  0
   -4.1368  -20.0017   -4.3026 H   0  0  0  0  0  0
   -4.7283  -19.7921   -5.9857 H   0  0  0  0  0  0
   -4.6202  -17.5960   -3.8685 H   0  0  0  0  0  0
   -3.4168  -17.8462   -5.1784 H   0  0  0  0  0  0
   -6.0878  -17.6524   -6.3869 H   0  0  0  0  0  0
   -3.5522  -15.7273   -4.6142 H   0  0  0  0  0  0
   -4.1022  -14.1119   -5.4615 H   0  0  0  0  0  0
   -6.7242  -15.7652   -7.3706 H   0  0  0  0  0  0
   -7.3035  -22.7110   -2.9362 H   0  0  0  0  0  0
  -10.1710  -21.7505   -2.9517 H   0  0  0  0  0  0
  -10.9520  -24.1750   -2.5367 H   0  0  0  0  0  0
   -8.8339  -25.0139   -1.4752 H   0  0  0  0  0  0
  -10.8262  -23.2983   -4.8940 H   0  0  0  0  0  0
  -10.4760  -25.0576   -4.7989 H   0  0  0  0  0  0
   -9.1307  -23.8833   -4.9936 H   0  0  0  0  0  0
  -11.4317  -22.6209   -0.9711 H   0  0  0  0  0  0
   -9.7048  -23.3130    1.3522 H   0  0  0  0  0  0
  -10.1081  -21.3073    2.7181 H   0  0  0  0  0  0
   -9.3163  -20.8150    1.1827 H   0  0  0  0  0  0
  -11.3720  -19.9490    0.3154 H   0  0  0  0  0  0
  -12.3079  -20.6371    1.6855 H   0  0  0  0  0  0
  -11.1738  -19.1493    3.2603 H   0  0  0  0  0  0
  -10.1148  -18.5218    1.9520 H   0  0  0  0  0  0
  -12.0860  -17.6043    0.7821 H   0  0  0  0  0  0
  -13.1606  -18.2549    2.0661 H   0  0  0  0  0  0
  -12.8899  -15.4828    1.0623 H   0  0  0  0  0  0
  -12.8823  -14.6844    2.6714 H   0  0  0  0  0  0
  -14.0182  -16.0372    2.3454 H   0  0  0  0  0  0
  -10.4855  -15.8567    1.3510 H   0  0  0  0  0  0
   -9.9059  -16.6405    2.8597 H   0  0  0  0  0  0
  -10.6529  -15.0082    2.9254 H   0  0  0  0  0  0
  -13.2116  -17.2199    4.2269 H   0  0  0  0  0  0
  -12.1903  -15.7769    4.5451 H   0  0  0  0  0  0
  -11.4433  -17.4092    4.4795 H   0  0  0  0  0  0
  -11.0203  -23.5309    3.3419 H   0  0  0  0  0  0
  -13.9756  -23.7709    2.5938 H   0  0  0  0  0  0
  -12.1345  -25.7688    3.9752 H   0  0  0  0  0  0
  -13.8838  -25.7505    4.3831 H   0  0  0  0  0  0
  -14.3251  -26.0352    1.9138 H   0  0  0  0  0  0
  -12.5683  -26.3672    1.7410 H   0  0  0  0  0  0
  -12.7800  -27.4119    4.7254 H   0  0  0  0  0  0
  -13.3857  -29.1956    4.4397 H   0  0  0  0  0  0
  -15.4232  -23.0696    4.1647 H   0  0  0  0  0  0
  -14.0696  -22.2446    6.7913 H   0  0  0  0  0  0
  -15.7559  -20.3078    6.8950 H   0  0  0  0  0  0
  -17.4017  -21.1787    5.2369 H   0  0  0  0  0  0
  -13.3502  -20.0138    6.1639 H   0  0  0  0  0  0
  -14.4709  -18.8905    5.3219 H   0  0  0  0  0  0
  -13.8572  -20.3502    4.4737 H   0  0  0  0  0  0
  -16.0850  -21.7185    8.4231 H   0  0  0  0  0  0
  -17.3551  -24.3487    8.3779 H   0  0  0  0  0  0
  -16.3829  -23.1564   10.4708 H   0  0  0  0  0  0
  -18.0496  -23.7599   10.7616 H   0  0  0  0  0  0
  -17.7736  -22.0214   10.4036 H   0  0  0  0  0  0
  -19.1029  -25.2137    8.3657 H   0  0  0  0  0  0
  -21.1774  -25.5718    7.7322 H   0  0  0  0  0  0
  -21.2205  -23.9610    5.6744 H   0  0  0  0  0  0
  -21.5571  -23.0116    9.4386 H   0  0  0  0  0  0
  -23.0173  -23.8536    8.8178 H   0  0  0  0  0  0
  -22.8128  -25.5696   10.2838 H   0  0  0  0  0  0
  -21.0179  -25.5659   10.2123 H   0  0  0  0  0  0
  -22.6013  -23.3767   11.5975 H   0  0  0  0  0  0
  -22.0967  -24.8877   12.4275 H   0  0  0  0  0  0
  -20.2905  -22.6258   11.4496 H   0  0  0  0  0  0
  -20.7723  -25.9000   12.9736 H   0  0  0  0  0  0
  -19.0251  -25.8678   13.7327 H   0  0  0  0  0  0
  -18.2488  -22.6031   12.3286 H   0  0  0  0  0  0
   -5.8301  -14.1329   -6.9630 H   0  0  0  0  0  0
  -17.6525  -24.0746   13.3818 H   0  0  0  0  0  0
  1  2  1  0  0  0
  1 68  1  0  0  0
  1 69  1  0  0  0
  1 70  1  0  0  0
  2  3  1  0  0  0
  2  5  1  0  0  0
  2 71  1  0  0  0
  3  4  2  0  0  0
  3  6  1  0  0  0
  5 72  1  0  0  0
  5 73  1  0  0  0
  5 74  1  0  0  0
  6  7  1  0  0  0
  6 75  1  0  0  0
  7  8  1  0  0  0
  7 10  1  0  0  0
  7 76  1  0  0  0
  8  9  2  0  0  0
  8 17  1  0  0  0
 10 11  1  0  0  0
 10 77  1  0  0  0
 10 78  1  0  0  0
 11 12  1  0  0  0
 11 79  1  0  0  0
 11 80  1  0  0  0
 12 13  1  0  0  0
 12 81  1  0  0  0
 12 82  1  0  0  0
 13 14  1  0  0  0
 13 83  1  0  0  0
 14 15  1  0  0  0
 14 16  2  0  0  0
 15 84  1  0  0  0
 15 85  1  0  0  0
 16 86  1  0  0  0
 16146  1  0  0  0
 17 18  1  0  0  0
 17 87  1  0  0  0
 18 19  1  0  0  0
 18 21  1  0  0  0
 18 88  1  0  0  0
 19 20  2  0  0  0
 19 24  1  0  0  0
 21 22  1  0  0  0
 21 23  1  0  0  0
 21 89  1  0  0  0
 22 90  1  0  0  0
 23 91  1  0  0  0
 23 92  1  0  0  0
 23 93  1  0  0  0
 24 25  1  0  0  0
 24 94  1  0  0  0
 25 26  1  0  0  0
 25 31  1  0  0  0
 25 95  1  0  0  0
 26 27  1  0  0  0
 26 96  1  0  0  0
 26 97  1  0  0  0
 27 28  1  0  0  0
 27 98  1  0  0  0
 27 99  1  0  0  0
 28 29  1  0  0  0
 28100  1  0  0  0
 28101  1  0  0  0
 29 30  1  0  0  0
 29102  1  0  0  0
 29103  1  0  0  0
 30 33  1  0  0  0
 30 34  1  0  0  0
 30 35  1  0  0  0
 31 32  2  0  0  0
 31 36  1  0  0  0
 33104  1  0  0  0
 33105  1  0  0  0
 33106  1  0  0  0
 34107  1  0  0  0
 34108  1  0  0  0
 34109  1  0  0  0
 35110  1  0  0  0
 35111  1  0  0  0
 35112  1  0  0  0
 36 37  1  0  0  0
 36113  1  0  0  0
 37 38  1  0  0  0
 37 40  1  0  0  0
 37114  1  0  0  0
 38 39  2  0  0  0
 38 45  1  0  0  0
 40 41  1  0  0  0
 40115  1  0  0  0
 40116  1  0  0  0
 41 42  1  0  0  0
 41117  1  0  0  0
 41118  1  0  0  0
 42 43  2  0  0  0
 42 44  1  0  0  0
 44119  1  0  0  0
 44120  1  0  0  0
 45 46  1  0  0  0
 45121  1  0  0  0
 46 47  1  0  0  0
 46 49  1  0  0  0
 46122  1  0  0  0
 47 48  2  0  0  0
 47 52  1  0  0  0
 49 50  1  0  0  0
 49 51  1  0  0  0
 49123  1  0  0  0
 50124  1  0  0  0
 51125  1  0  0  0
 51126  1  0  0  0
 51127  1  0  0  0
 52 53  1  0  0  0
 52128  1  0  0  0
 53 54  1  0  0  0
 53 56  1  0  0  0
 53129  1  0  0  0
 54 55  2  0  0  0
 54 57  1  0  0  0
 56130  1  0  0  0
 56131  1  0  0  0
 56132  1  0  0  0
 57 58  1  0  0  0
 57133  1  0  0  0
 58 59  1  0  0  0
 58 61  1  0  0  0
 58134  1  0  0  0
 59 60  2  0  0  0
 59135  1  0  0  0
 61 62  1  0  0  0
 61136  1  0  0  0
 61137  1  0  0  0
 62 63  1  0  0  0
 62138  1  0  0  0
 62139  1  0  0  0
 63 64  1  0  0  0
 63140  1  0  0  0
 63141  1  0  0  0
 64 65  1  0  0  0
 64142  1  0  0  0
 65 66  1  0  0  0
 65 67  2  0  0  0
 66143  1  0  0  0
 66144  1  0  0  0
 67145  1  0  0  0
 67147  1  0  0  0
M  CHG  4   1   1  16   1  30   1  67   1
M  END
> <s_m_source_file>
../3gl6_ligand.sdf

> <i_m_source_file_index>
1

> <s_epik_input>
W0hdL049QyhbTkgyXSlcW05IXVtDSDJdW0NIMl1bQ0gyXVtDQEhdKFtOSF1DKD1PKVtDQEBIXShbTkgzK10pW0NIM10pQyg9TylbTkhdW0NAQEhdKFtDQEhdKFtPSF0pW0NIM10pQyg9TylbTkhdW0NAQEhdKFtDSDJdW0NIMl1bQ0gyXVtDSDJdW04rXShbQ0gzXSkoW0NIM10pW0NIM10pQyg9TylbTkhdW0NAQEhdKFtDSDJdW0NIMl1DKD1PKVtOSDJdKUMoPU8pW05IXVtDQEBIXShbQ0BIXShbT0hdKVtDSDNdKUMoPU8pW05IXVtDQEBIXShbQ0gzXSlDKD1PKVtOSF1bQ0BIXShbQ0hdPU8pW0NIMl1bQ0gyXVtDSDJdW05IXS9DKFtOSDJdKT1OXFtIXQ==

> <s_epik_cmdline>
J2VwaWtfYXBwJywgJy1pbWFlJywgJ2xpZ2FuZF9wcm8ubWFlJywgJy1vbWFlJywgJ2xpZ2FuZF9wcmVwLm1hZScsICctbXMnLCAnMScsICctcGgnLCAnNycsICctcGh0JywgJzAuNScsICctbnQn

> <r_lp_tautomer_probability>
0.99990000499975

> <r_epik_Ionization_Penalty>
  0.1253

> <r_epik_Ionization_Penalty_Charging>
  0.1251

> <r_epik_Ionization_Penalty_Neutral>
  0.0003

> <r_epik_State_Penalty>
  0.1145

> <r_epik_Charging_Adjusted_Penalty>
0.239603488479986

> <i_epik_Tot_Q>
4

> <i_epik_Tot_abs_Q>
4

> <s_epik_Chemistry_Notes>
This compound has an imine and may undergo hydrolysis.

$$$$
