3gm0_ligand
                    3D
 Schrodinger Suite 2020-3.
 30 31  0  0  1  0            999 V2000
   -7.8340   -5.8670   16.5420 O   0  0  0  0  0  0
   -7.0540   -7.9350   17.1210 O   0  0  0  0  0  0
   -2.6600   -1.9010   15.5060 N   0  3  0  0  0  0
   -3.1790   -3.2790   15.6260 C   0  0  1  0  0  0
   -2.1360   -4.2640   15.0710 C   0  0  0  0  0  0
   -3.4810   -3.6020   17.1060 C   0  0  0  0  0  0
   -4.4120   -4.7920   17.2630 C   0  0  0  0  0  0
   -5.8100   -4.6140   17.1060 C   0  0  0  0  0  0
   -3.9020   -6.0760   17.5790 C   0  0  0  0  0  0
   -6.6830   -5.7120   17.2670 C   0  0  0  0  0  0
   -4.7880   -7.1710   17.7310 C   0  0  0  0  0  0
   -6.1800   -6.9710   17.5770 C   0  0  0  0  0  0
   -3.7650   -0.9510   15.3770 C   0  0  0  0  0  0
   -8.2840   -7.2220   16.8230 C   0  0  0  0  0  0
   -2.0742   -1.6504   16.4027 H   0  0  0  0  0  0
   -2.0177   -1.8273   14.6161 H   0  0  0  0  0  0
   -4.1050   -3.3304   15.0344 H   0  0  0  0  0  0
   -1.9294   -4.0242   14.0175 H   0  0  0  0  0  0
   -2.5256   -5.2901   15.1439 H   0  0  0  0  0  0
   -1.2073   -4.1820   15.6547 H   0  0  0  0  0  0
   -2.5420   -3.8351   17.6294 H   0  0  0  0  0  0
   -3.9593   -2.7327   17.5808 H   0  0  0  0  0  0
   -6.2104   -3.6302   16.8612 H   0  0  0  0  0  0
   -2.8290   -6.2209   17.7050 H   0  0  0  0  0  0
   -4.3993   -8.1620   17.9653 H   0  0  0  0  0  0
   -3.3631    0.0691   15.2887 H   0  0  0  0  0  0
   -4.4096   -1.0155   16.2660 H   0  0  0  0  0  0
   -4.3531   -1.1924   14.4793 H   0  0  0  0  0  0
   -8.9768   -7.2085   17.6773 H   0  0  0  0  0  0
   -8.7989   -7.6279   15.9398 H   0  0  0  0  0  0
  1 10  1  0  0  0
  1 14  1  0  0  0
  2 12  1  0  0  0
  2 14  1  0  0  0
  3  4  1  0  0  0
  3 13  1  0  0  0
  3 15  1  0  0  0
  3 16  1  0  0  0
  4  5  1  0  0  0
  4  6  1  0  0  0
  4 17  1  0  0  0
  5 18  1  0  0  0
  5 19  1  0  0  0
  5 20  1  0  0  0
  6  7  1  0  0  0
  6 21  1  0  0  0
  6 22  1  0  0  0
  7  8  2  0  0  0
  7  9  1  0  0  0
  8 10  1  0  0  0
  8 23  1  0  0  0
  9 11  2  0  0  0
  9 24  1  0  0  0
 10 12  2  0  0  0
 11 12  1  0  0  0
 11 25  1  0  0  0
 13 26  1  0  0  0
 13 27  1  0  0  0
 13 28  1  0  0  0
 14 29  1  0  0  0
 14 30  1  0  0  0
M  CHG  1   3   1
M  END
> <s_m_source_file>
../3gm0_ligand.sdf

> <i_m_source_file_index>
1

> <s_epik_input>
TzFbQ0gyXU9jKGMxMilbY0hdW2NIXWMoW2NIXTIpW0NIMl1bQ0BIXShbQ0gzXSlbTkgyK11bQ0gzXQ==

> <s_epik_cmdline>
J2VwaWtfYXBwJywgJy1pbWFlJywgJ2xpZ2FuZF9wcm8ubWFlJywgJy1vbWFlJywgJ2xpZ2FuZF9wcmVwLm1hZScsICctbXMnLCAnMScsICctcGgnLCAnNycsICctcGh0JywgJzAuNScsICctbnQn

> <r_lp_tautomer_probability>
1

> <r_epik_Ionization_Penalty>
  0.0005

> <r_epik_Ionization_Penalty_Charging>
  0.0005

> <r_epik_Ionization_Penalty_Neutral>
  0.0000

> <r_epik_State_Penalty>
 -0.0000

> <r_epik_Charging_Adjusted_Penalty>
0.000543098820967012

> <i_epik_Tot_Q>
1

> <i_epik_Tot_abs_Q>
1

> <s_epik_Chemistry_Notes>
This compound contains an acetal/aminal-like group ( X-CH(R)-Y where X, Y are N, S, or O) that may be acid/base labile, releasing an aldehyde.

$$$$
