3gn7_ligand
                    3D
 Schrodinger Suite 2020-3.
 35 37  0  0  1  0            999 V2000
   26.5090   65.4040    9.3900 C   0  0  0  0  0  0
   26.9340   66.1890   10.4440 C   0  0  0  0  0  0
   28.2340   66.0460   10.8660 C   0  0  0  0  0  0
   25.4300   64.4350    7.8210 C   0  0  0  0  0  0
   26.0620   67.1560   11.1150 C   0  0  0  0  0  0
   24.4130   63.9970    6.8530 C   0  0  2  0  0  0
   23.1140   65.8710    6.0270 C   0  0  0  0  0  0
   24.8540   64.2600    5.4360 C   0  0  0  0  0  0
   29.0900   65.1440   10.2740 C   0  0  0  0  0  0
   28.7020   64.3570    9.2150 C   0  0  0  0  0  0
   27.4010   64.5340    8.8050 C   0  0  0  0  0  0
   26.6920   63.9290    7.8070 N   0  3  0  0  0  0
   25.2860   65.3350    8.7730 N   0  0  0  0  0  0
   24.7270   66.9820   10.8570 N   0  0  0  0  0  0
   26.5500   68.0350   11.8080 O   0  0  0  0  0  0
   23.1610   64.7760    7.0210 N   0  3  0  0  0  0
   24.0620   65.4430    4.9320 C   0  0  0  0  0  0
   24.0960   62.5400    7.0200 C   0  0  0  0  0  0
   28.5965   66.6615   11.6893 H   0  0  0  0  0  0
   22.0854   65.9833    5.6536 H   0  0  0  0  0  0
   23.4368   66.8100    6.5003 H   0  0  0  0  0  0
   25.9312   64.4823    5.4225 H   0  0  0  0  0  0
   24.6554   63.3711    4.8192 H   0  0  0  0  0  0
   30.1064   65.0510   10.6566 H   0  0  0  0  0  0
   29.3753   63.6460    8.7362 H   0  0  0  0  0  0
   24.3943   66.1526   10.2156 H   0  0  0  0  0  0
   23.9884   67.6718   11.2914 H   0  0  0  0  0  0
   22.2948   64.1141    6.8738 H   0  0  0  0  0  0
   23.1281   65.2032    8.0341 H   0  0  0  0  0  0
   23.4863   65.1615    4.0379 H   0  0  0  0  0  0
   24.7377   66.2754    4.6859 H   0  0  0  0  0  0
   25.0153   61.9484    6.8981 H   0  0  0  0  0  0
   23.3606   62.2354    6.2608 H   0  0  0  0  0  0
   23.6797   62.3680    8.0235 H   0  0  0  0  0  0
   26.9701   63.1651    7.0660 H   0  0  0  0  0  0
  1  2  2  0  0  0
  1 11  1  0  0  0
  1 13  1  0  0  0
  2  3  1  0  0  0
  2  5  1  0  0  0
  3  9  2  0  0  0
  3 19  1  0  0  0
  4  6  1  0  0  0
  4 12  1  0  0  0
  4 13  2  0  0  0
  5 14  1  0  0  0
  5 15  2  0  0  0
  6  8  1  0  0  0
  6 16  1  0  0  0
  6 18  1  0  0  0
  7 16  1  0  0  0
  7 17  1  0  0  0
  7 20  1  0  0  0
  7 21  1  0  0  0
  8 17  1  0  0  0
  8 22  1  0  0  0
  8 23  1  0  0  0
  9 10  1  0  0  0
  9 24  1  0  0  0
 10 11  2  0  0  0
 10 25  1  0  0  0
 11 12  1  0  0  0
 12 35  1  0  0  0
 14 26  1  0  0  0
 14 27  1  0  0  0
 16 28  1  0  0  0
 16 29  1  0  0  0
 17 30  1  0  0  0
 17 31  1  0  0  0
 18 32  1  0  0  0
 18 33  1  0  0  0
 18 34  1  0  0  0
M  CHG  2  12   1  16   1
M  END
> <s_m_source_file>
../3gn7_ligand.sdf

> <i_m_source_file_index>
1

> <s_epik_input>
W05IMl1DKD1PKWMxW2NIXVtjSF1bY0hdYyhjMTIpW25IXWMobjIpW0NAXTMoW0NIM10pW0NIMl1bQ0gyXVtDSDJdW05IMitdMw==

> <s_epik_cmdline>
J2VwaWtfYXBwJywgJy1pbWFlJywgJ2xpZ2FuZF9wcm8ubWFlJywgJy1vbWFlJywgJ2xpZ2FuZF9wcmVwLm1hZScsICctbXMnLCAnMScsICctcGgnLCAnNycsICctcGh0JywgJzAuNScsICctbnQn

> <r_epik_Ionization_Penalty>
  0.0014

> <r_epik_Ionization_Penalty_Charging>
  0.0013

> <r_epik_Ionization_Penalty_Neutral>
  0.0000

> <r_epik_State_Penalty>
  0.1498

> <r_epik_Charging_Adjusted_Penalty>
0.151175409822398

> <i_epik_Tot_Q>
2

> <i_epik_Tot_abs_Q>
2

> <s_epik_Chemistry_Notes>
This compound has an imine and may undergo hydrolysis.

$$$$
