3gp0_ligand
                    3D
 Schrodinger Suite 2020-3.
 61 65  0  0  1  0            999 V2000
   19.8780   60.1390   22.9360 O   0  0  0  0  0  0
   19.1410   59.7490   23.8470 C   0  0  0  0  0  0
   18.3680   58.6150   23.7530 N   0  0  0  0  0  0
   18.4440   57.7110   22.7500 C   0  0  0  0  0  0
   17.3340   56.8940   22.4470 C   0  0  0  0  0  0
   17.3950   55.9320   21.4600 C   0  0  0  0  0  0
   16.3110   55.1500   21.2400 N   0  0  0  0  0  0
   15.2030   55.0650   22.0270 C   0  0  0  0  0  0
   14.4220   54.1530   21.4650 C   0  0  0  0  0  0
   13.0550   53.7100   22.0060 C   0  0  0  0  0  0
   15.0210   53.6560   20.3830 N   0  0  0  0  0  0
   16.1830   54.2740   20.2330 C   0  0  0  0  0  0
   18.6080   55.7200   20.7550 C   0  0  0  0  0  0
   19.6470   57.5120   22.0380 C   0  0  0  0  0  0
   19.7220   56.5290   21.0490 C   0  0  0  0  0  0
   21.0390   56.3490   20.2500 C   0  0  0  0  0  0
   22.1010   56.2240   21.0030 F   0  0  0  0  0  0
   20.9400   55.3410   19.4480 F   0  0  0  0  0  0
   21.3140   57.3350   19.4510 F   0  0  0  0  0  0
   19.0860   60.5960   25.1220 C   0  0  0  0  0  0
   18.4420   60.1960   26.3010 C   0  0  0  0  0  0
   18.4570   61.0080   27.4390 C   0  0  0  0  0  0
   19.1550   62.2240   27.4160 C   0  0  0  0  0  0
   19.1860   63.1270   28.6500 C   0  0  0  0  0  0
   19.8120   62.6190   26.2570 C   0  0  0  0  0  0
   19.7860   61.8080   25.1080 C   0  0  0  0  0  0
   20.4830   63.7890   26.2300 N   0  0  0  0  0  0
   20.2290   64.7980   25.3740 C   0  0  0  0  0  0
   19.0500   64.9280   24.7240 N   0  0  0  0  0  0
   18.8170   65.9400   23.9070 C   0  0  0  0  0  0
   19.8230   66.9020   23.7160 C   0  0  0  0  0  0
   21.0570   66.7530   24.3810 C   0  0  0  0  0  0
   21.2200   65.7040   25.2090 N   0  0  0  0  0  0
   22.1420   67.6590   24.1940 C   0  0  0  0  0  0
   22.0460   68.7000   23.2470 C   0  0  0  0  0  0
   23.1410   69.5810   23.0690 C   0  0  0  0  0  0
   24.3000   69.3720   23.8450 C   0  0  0  0  0  0
   24.3900   68.3550   24.7240 N   0  0  0  0  0  0
   23.3470   67.5040   24.9260 C   0  0  0  0  0  0
   17.6223   58.3917   24.5302 H   0  0  0  0  0  0
   16.4073   57.0260   23.0055 H   0  0  0  0  0  0
   14.9994   55.6321   22.9353 H   0  0  0  0  0  0
   12.8121   54.2906   22.9082 H   0  0  0  0  0  0
   13.0894   52.6396   22.2570 H   0  0  0  0  0  0
   12.2843   53.8825   21.2404 H   0  0  0  0  0  0
   16.9050   54.1015   19.4348 H   0  0  0  0  0  0
   18.6764   54.9410   19.9957 H   0  0  0  0  0  0
   20.5189   58.1270   22.2608 H   0  0  0  0  0  0
   17.9222   59.2384   26.3310 H   0  0  0  0  0  0
   17.9284   60.6972   28.3402 H   0  0  0  0  0  0
   18.6169   62.6547   29.4643 H   0  0  0  0  0  0
   18.7353   64.0998   28.4039 H   0  0  0  0  0  0
   20.2281   63.2759   28.9693 H   0  0  0  0  0  0
   20.3111   62.1235   24.2064 H   0  0  0  0  0  0
   21.3022   63.9697   26.9415 H   0  0  0  0  0  0
   17.8612   66.0270   23.3903 H   0  0  0  0  0  0
   19.6510   67.7553   23.0600 H   0  0  0  0  0  0
   21.1377   68.8254   22.6576 H   0  0  0  0  0  0
   23.0891   70.3993   22.3508 H   0  0  0  0  0  0
   25.1450   70.0510   23.7306 H   0  0  0  0  0  0
   23.4384   66.6985   25.6547 H   0  0  0  0  0  0
  1  2  2  0  0  0
  2  3  1  0  0  0
  2 20  1  0  0  0
  3  4  1  0  0  0
  3 40  1  0  0  0
  4  5  2  0  0  0
  4 14  1  0  0  0
  5  6  1  0  0  0
  5 41  1  0  0  0
  6  7  1  0  0  0
  6 13  2  0  0  0
  7  8  1  0  0  0
  7 12  1  0  0  0
  8  9  2  0  0  0
  8 42  1  0  0  0
  9 10  1  0  0  0
  9 11  1  0  0  0
 10 43  1  0  0  0
 10 44  1  0  0  0
 10 45  1  0  0  0
 11 12  2  0  0  0
 12 46  1  0  0  0
 13 15  1  0  0  0
 13 47  1  0  0  0
 14 15  2  0  0  0
 14 48  1  0  0  0
 15 16  1  0  0  0
 16 17  1  0  0  0
 16 18  1  0  0  0
 16 19  1  0  0  0
 20 21  2  0  0  0
 20 26  1  0  0  0
 21 22  1  0  0  0
 21 49  1  0  0  0
 22 23  2  0  0  0
 22 50  1  0  0  0
 23 24  1  0  0  0
 23 25  1  0  0  0
 24 51  1  0  0  0
 24 52  1  0  0  0
 24 53  1  0  0  0
 25 26  2  0  0  0
 25 27  1  0  0  0
 26 54  1  0  0  0
 27 28  1  0  0  0
 27 55  1  0  0  0
 28 29  2  0  0  0
 28 33  1  0  0  0
 29 30  1  0  0  0
 30 31  2  0  0  0
 30 56  1  0  0  0
 31 32  1  0  0  0
 31 57  1  0  0  0
 32 33  2  0  0  0
 32 34  1  0  0  0
 34 35  2  0  0  0
 34 39  1  0  0  0
 35 36  1  0  0  0
 35 58  1  0  0  0
 36 37  2  0  0  0
 36 59  1  0  0  0
 37 38  1  0  0  0
 37 60  1  0  0  0
 38 39  2  0  0  0
 39 61  1  0  0  0
M  END
> <s_m_source_file>
../3gp0_ligand.sdf

> <i_m_source_file_index>
1

> <s_epik_input>
W2NIXTFuYyhbQ0gzXSlbY0hdbjEtYyhbY0hdYyhbY0hdMilDKEYpKEYpRilbY0hdYzJbTkhdQyg9TyljM1tjSF1bY0hdYyhbQ0gzXSljKFtjSF0zKVtOSF1jNG5bY0hdW2NIXWMobjQpLWM1W2NIXVtjSF1bY0hdbltjSF01

> <s_epik_cmdline>
J2VwaWtfYXBwJywgJy1pbWFlJywgJ2xpZ2FuZF9wcm8ubWFlJywgJy1vbWFlJywgJ2xpZ2FuZF9wcmVwLm1hZScsICctbXMnLCAnMScsICctcGgnLCAnNycsICctcGh0JywgJzAuNScsICctbnQn

> <r_lp_tautomer_probability>
0.999999987636

> <r_epik_Ionization_Penalty>
  0.1509

> <r_epik_Ionization_Penalty_Charging>
  0.1503

> <r_epik_Ionization_Penalty_Neutral>
  0.0006

> <r_epik_State_Penalty>
  0.1396

> <r_epik_Charging_Adjusted_Penalty>
0.28997481999385

> <i_epik_Tot_Q>
0

> <i_epik_Tot_abs_Q>
0

$$$$
