3gpe_ligand
                    3D
 Schrodinger Suite 2020-3.
 33 33  0  0  1  0            999 V2000
   31.0180  -20.4850   20.6360 O   0  5  0  0  0  0
   29.9050  -21.4880   20.4500 P   0  0  0  0  0  0
   28.6940  -21.4480   21.3500 O   0  0  0  0  0  0
   29.4000  -21.3990   18.9260 O   0  5  0  0  0  0
   31.2800  -21.9360   17.9480 O   0  0  0  0  0  0
   30.5370  -22.9660   20.5230 O   0  0  0  0  0  0
   31.4900  -23.3970   19.5530 C   0  0  1  0  0  0
   32.1520  -22.1810   18.9150 C   0  0  1  0  0  0
   32.5180  -24.2990   20.2260 C   0  0  2  0  0  0
   33.0220  -23.6570   21.4030 O   0  0  0  0  0  0
   33.6760  -24.6160   19.2860 C   0  0  2  0  0  0
   34.8760  -24.0150   19.7860 O   0  0  0  0  0  0
   33.3980  -24.1050   17.8770 C   0  0  1  0  0  0
   32.2380  -24.7520   17.3560 O   0  0  0  0  0  0
   31.4920  -24.1620   16.0560 P   0  0  0  0  0  0
   31.7040  -22.6700   16.1600 O   0  5  0  0  0  0
   32.2100  -24.8150   14.8970 O   0  5  0  0  0  0
   30.0570  -24.6020   16.2260 O   0  0  0  0  0  0
   33.1800  -22.5960   17.8690 C   0  0  2  0  0  0
   34.4140  -21.9290   18.1240 O   0  0  0  0  0  0
   34.6640  -20.4400   17.5640 P   0  0  0  0  0  0
   36.0000  -20.0490   18.1500 O   0  0  0  0  0  0
   34.6680  -20.6120   16.0630 O   0  5  0  0  0  0
   33.4940  -19.6470   18.0970 O   0  5  0  0  0  0
   30.2713  -21.5737   18.1958 H   0  0  0  0  0  0
   30.9317  -23.9614   18.7916 H   0  0  0  0  0  0
   32.4280  -21.4251   19.6649 H   0  0  0  0  0  0
   32.0365  -25.2309   20.5571 H   0  0  0  0  0  0
   32.3302  -23.3510   22.2016 H   0  0  0  0  0  0
   33.8552  -25.7010   19.2625 H   0  0  0  0  0  0
   35.2376  -24.2652   20.7943 H   0  0  0  0  0  0
   34.2315  -24.3710   17.2102 H   0  0  0  0  0  0
   32.8563  -22.2700   16.8695 H   0  0  0  0  0  0
  1  2  1  0  0  0
  2  3  2  0  0  0
  2  4  1  0  0  0
  2  6  1  0  0  0
  5  8  1  0  0  0
  5 25  1  0  0  0
  6  7  1  0  0  0
  7  8  1  0  0  0
  7  9  1  0  0  0
  7 26  1  0  0  0
  8 19  1  0  0  0
  8 27  1  0  0  0
  9 10  1  0  0  0
  9 11  1  0  0  0
  9 28  1  0  0  0
 10 29  1  0  0  0
 11 12  1  0  0  0
 11 13  1  0  0  0
 11 30  1  0  0  0
 12 31  1  0  0  0
 13 14  1  0  0  0
 13 19  1  0  0  0
 13 32  1  0  0  0
 14 15  1  0  0  0
 15 16  1  0  0  0
 15 17  1  0  0  0
 15 18  2  0  0  0
 19 20  1  0  0  0
 19 33  1  0  0  0
 20 21  1  0  0  0
 21 22  2  0  0  0
 21 23  1  0  0  0
 21 24  1  0  0  0
M  CHG  6   1  -1   4  -1  16  -1  17  -1  23  -1  24  -1
M  END
> <s_m_source_file>
../3gpe_ligand.sdf

> <i_m_source_file_index>
1

> <s_epik_input>
W09IXVAoPU8pKFtPSF0pT1tDQEhdMVtDQEhdKFtPSF0pW0NAQEhdKE9QKD1PKShbT0hdKVtPSF0pW0NAQEhdKFtDQEBIXShbT0hdKVtDQEhdMVtPSF0pT1AoPU8pKFtPSF0pW09IXQ==

> <s_epik_cmdline>
J2VwaWtfYXBwJywgJy1pbWFlJywgJ2xpZ2FuZF9wcm8ubWFlJywgJy1vbWFlJywgJ2xpZ2FuZF9wcmVwLm1hZScsICctbXMnLCAnMScsICctcGgnLCAnNycsICctcGh0JywgJzAuNScsICctbnQn

> <r_epik_Ionization_Penalty>
  0.3502

> <r_epik_Ionization_Penalty_Charging>
  0.3502

> <r_epik_Ionization_Penalty_Neutral>
  0.0000

> <r_epik_State_Penalty>
  0.1971

> <r_epik_Charging_Adjusted_Penalty>
0.54723198003405

> <i_epik_Tot_Q>
-6

> <i_epik_Tot_abs_Q>
6

$$$$
