3gpj_ligand
                    3D
 Schrodinger Suite 2020-3.
 77 77  0  0  1  0            999 V2000
   58.4080 -134.7200   34.8370 C   0  0  0  0  0  0
   53.4990 -133.8200   34.3290 C   0  0  0  0  0  0
   55.3630 -132.4710   35.4030 C   0  0  0  0  0  0
   55.0120 -133.3770   34.2130 C   0  0  0  0  0  0
   56.2100 -135.3210   31.8640 O   0  0  0  0  0  0
   55.7490 -135.5250   32.9990 C   0  0  0  0  0  0
   56.0320 -134.5800   34.1770 C   0  0  1  0  0  0
   54.9720 -136.5980   33.2820 O   0  5  0  0  0  0
   57.4300 -134.1120   34.0690 N   0  0  0  0  0  0
   59.7200 -134.3110   34.7640 N   0  0  0  0  0  0
   60.8080 -134.9370   35.5740 C   0  0  2  0  0  0
   60.5250 -134.8150   37.0350 C   0  0  0  0  0  0
   60.8820 -135.8770   37.8310 N   0  0  0  0  0  0
   60.6490 -135.7740   39.2640 C   0  0  1  0  0  0
   59.5800 -136.8200   39.6980 C   0  0  0  0  0  0
   59.7260 -138.1980   38.9890 C   0  0  0  0  0  0
   59.1640 -139.3720   39.8620 C   0  0  0  0  0  0
   60.0440 -139.6580   41.1190 C   0  0  0  0  0  0
   59.6160 -138.8720   42.2730 N   0  0  0  0  0  0
   60.4430 -138.2200   43.1580 C   0  0  0  0  0  0
   59.9300 -137.6070   44.0900 O   0  0  0  0  0  0
   61.9730 -138.1960   43.0930 C   0  0  0  0  0  0
   62.5990 -136.8320   43.5280 C   0  0  0  0  0  0
   63.0540 -136.0130   42.2840 C   0  0  2  0  0  0
   63.6390 -134.6080   42.6930 C   0  0  0  0  0  0
   64.5510 -133.9970   41.5790 C   0  0  0  0  0  0
   62.5150 -133.5430   43.0590 C   0  0  0  0  0  0
   61.9030 -135.8630   41.3920 N   0  0  0  0  0  0
   61.9610 -135.9930   40.0240 C   0  0  0  0  0  0
   63.0060 -136.2540   39.3870 O   0  0  0  0  0  0
   60.0110 -133.8050   37.4520 O   0  0  0  0  0  0
   62.2350 -134.3470   35.3170 C   0  0  0  0  0  0
   62.5940 -134.5310   33.8330 C   0  0  0  0  0  0
   62.3010 -132.8450   35.6530 C   0  0  0  0  0  0
   58.0780 -135.6310   35.5820 O   0  0  0  0  0  0
   52.8561 -132.9276   34.3479 H   0  0  0  0  0  0
   53.3554 -134.3951   35.2556 H   0  0  0  0  0  0
   53.2328 -134.4455   33.4642 H   0  0  0  0  0  0
   54.6592 -131.6265   35.4410 H   0  0  0  0  0  0
   56.3877 -132.0893   35.2835 H   0  0  0  0  0  0
   55.2934 -133.0486   36.3366 H   0  0  0  0  0  0
   55.1178 -132.8258   33.2670 H   0  0  0  0  0  0
   55.9599 -135.1313   35.1262 H   0  0  0  0  0  0
   57.6833 -133.2894   33.3840 H   0  0  0  0  0  0
   59.9530 -133.4871   34.0734 H   0  0  0  0  0  0
   60.7639 -135.9914   35.2635 H   0  0  0  0  0  0
   61.3332 -136.7882   37.4112 H   0  0  0  0  0  0
   60.2923 -134.7490   39.4431 H   0  0  0  0  0  0
   59.6607 -136.9993   40.7803 H   0  0  0  0  0  0
   58.5758 -136.4369   39.4637 H   0  0  0  0  0  0
   59.1721 -138.1819   38.0387 H   0  0  0  0  0  0
   60.7894 -138.3973   38.7903 H   0  0  0  0  0  0
   58.1512 -139.1188   40.2087 H   0  0  0  0  0  0
   59.1261 -140.2915   39.2594 H   0  0  0  0  0  0
   59.9722 -140.7237   41.3821 H   0  0  0  0  0  0
   61.0915 -139.4045   40.8987 H   0  0  0  0  0  0
   58.5446 -138.7618   42.4966 H   0  0  0  0  0  0
   62.3805 -138.9705   43.7594 H   0  0  0  0  0  0
   62.2993 -138.3916   42.0609 H   0  0  0  0  0  0
   61.8523 -136.2469   44.0849 H   0  0  0  0  0  0
   63.4726 -137.0177   44.1701 H   0  0  0  0  0  0
   63.8176 -136.5634   41.7149 H   0  0  0  0  0  0
   64.2517 -134.8163   43.5825 H   0  0  0  0  0  0
   65.3363 -134.7191   41.3111 H   0  0  0  0  0  0
   65.0151 -133.0719   41.9516 H   0  0  0  0  0  0
   63.9429 -133.7702   40.6908 H   0  0  0  0  0  0
   61.8615 -133.9542   43.8425 H   0  0  0  0  0  0
   61.9171 -133.3184   42.1634 H   0  0  0  0  0  0
   62.9893 -132.6201   43.4241 H   0  0  0  0  0  0
   60.9114 -135.6311   41.8079 H   0  0  0  0  0  0
   62.9574 -134.8719   35.9594 H   0  0  0  0  0  0
   62.5518 -135.5996   33.5753 H   0  0  0  0  0  0
   63.6098 -134.1499   33.6515 H   0  0  0  0  0  0
   61.8772 -133.9752   33.2107 H   0  0  0  0  0  0
   62.0466 -132.6948   36.7126 H   0  0  0  0  0  0
   61.5855 -132.2965   35.0228 H   0  0  0  0  0  0
   63.3181 -132.4713   35.4636 H   0  0  0  0  0  0
  1  9  1  0  0  0
  1 10  1  0  0  0
  1 35  2  0  0  0
  2  4  1  0  0  0
  2 36  1  0  0  0
  2 37  1  0  0  0
  2 38  1  0  0  0
  3  4  1  0  0  0
  3 39  1  0  0  0
  3 40  1  0  0  0
  3 41  1  0  0  0
  4  7  1  0  0  0
  4 42  1  0  0  0
  5  6  2  0  0  0
  6  7  1  0  0  0
  6  8  1  0  0  0
  7  9  1  0  0  0
  7 43  1  0  0  0
  9 44  1  0  0  0
 10 11  1  0  0  0
 10 45  1  0  0  0
 11 12  1  0  0  0
 11 32  1  0  0  0
 11 46  1  0  0  0
 12 13  1  0  0  0
 12 31  2  0  0  0
 13 14  1  0  0  0
 13 47  1  0  0  0
 14 15  1  0  0  0
 14 29  1  0  0  0
 14 48  1  0  0  0
 15 16  1  0  0  0
 15 49  1  0  0  0
 15 50  1  0  0  0
 16 17  1  0  0  0
 16 51  1  0  0  0
 16 52  1  0  0  0
 17 18  1  0  0  0
 17 53  1  0  0  0
 17 54  1  0  0  0
 18 19  1  0  0  0
 18 55  1  0  0  0
 18 56  1  0  0  0
 19 20  1  0  0  0
 19 57  1  0  0  0
 20 21  2  0  0  0
 20 22  1  0  0  0
 22 23  1  0  0  0
 22 58  1  0  0  0
 22 59  1  0  0  0
 23 24  1  0  0  0
 23 60  1  0  0  0
 23 61  1  0  0  0
 24 25  1  0  0  0
 24 28  1  0  0  0
 24 62  1  0  0  0
 25 26  1  0  0  0
 25 27  1  0  0  0
 25 63  1  0  0  0
 26 64  1  0  0  0
 26 65  1  0  0  0
 26 66  1  0  0  0
 27 67  1  0  0  0
 27 68  1  0  0  0
 27 69  1  0  0  0
 28 29  1  0  0  0
 28 70  1  0  0  0
 29 30  2  0  0  0
 32 33  1  0  0  0
 32 34  1  0  0  0
 32 71  1  0  0  0
 33 72  1  0  0  0
 33 73  1  0  0  0
 33 74  1  0  0  0
 34 75  1  0  0  0
 34 76  1  0  0  0
 34 77  1  0  0  0
M  CHG  1   8  -1
M  END
> <s_m_source_file>
../3gpj_ligand.sdf

> <i_m_source_file_index>
1

> <s_epik_input>
W0NIM11bQ0hdKFtDSDNdKVtDQEBIXShDKD1PKVtPSF0pW05IXUMoPU8pW05IXVtDQEBIXShbQ0hdKFtDSDNdKVtDSDNdKUMoPU8pW05IXVtDQEhdMVtDSDJdW0NIMl1bQ0gyXVtDSDJdW05IXUMoPU8pW0NIMl1bQ0gyXVtDQEhdKFtDSF0oW0NIM10pW0NIM10pW05IXUMxPU8=

> <s_epik_cmdline>
J2VwaWtfYXBwJywgJy1pbWFlJywgJ2xpZ2FuZF9wcm8ubWFlJywgJy1vbWFlJywgJ2xpZ2FuZF9wcmVwLm1hZScsICctbXMnLCAnMScsICctcGgnLCAnNycsICctcGh0JywgJzAuNScsICctbnQn

> <r_lp_tautomer_probability>
1

> <r_epik_Ionization_Penalty>
  0.0012

> <r_epik_Ionization_Penalty_Charging>
  0.0011

> <r_epik_Ionization_Penalty_Neutral>
  0.0001

> <r_epik_State_Penalty>
 -0.0000

> <r_epik_Charging_Adjusted_Penalty>
0.00113860615900256

> <i_epik_Tot_Q>
-1

> <i_epik_Tot_abs_Q>
1

$$$$
