3gpo_ligand
                    3D
 Schrodinger Suite 2020-3.
 57 60  0  0  1  0            999 V2000
   15.2070   39.9840   -9.4250 N   0  0  0  0  0  0
   15.3640   41.2450   -8.9870 C   0  0  0  0  0  0
   15.1580   42.3210   -9.7700 N   0  0  0  0  0  0
   14.7930   42.1800  -11.0660 C   0  0  0  0  0  0
   14.6140   40.8300  -11.6250 C   0  0  0  0  0  0
   14.8490   39.6980  -10.7010 C   0  0  0  0  0  0
   14.7020   38.4150  -11.1110 N   0  0  0  0  0  0
   14.2430   40.9880  -12.9100 N   0  0  0  0  0  0
   14.2120   42.3260  -13.1600 C   0  0  0  0  0  0
   14.5490   43.0330  -12.0540 N   0  0  0  0  0  0
   14.5880   44.5090  -11.8620 C   0  0  1  0  0  0
   14.4950   45.3220  -13.1460 C   0  0  2  0  0  0
   15.7820   45.6850  -13.6600 O   0  0  0  0  0  0
   13.6950   46.5500  -12.7310 C   0  0  2  0  0  0
   14.5820   47.5410  -12.1820 O   0  0  0  0  0  0
   13.3680   44.8000  -11.1530 O   0  0  0  0  0  0
   12.7910   46.0480  -11.6160 C   0  0  2  0  0  0
   11.3450   45.8510  -12.0610 C   0  0  0  0  0  0
   11.3220   45.5520  -13.4610 O   0  0  0  0  0  0
   10.1890   44.6340  -14.1190 P   0  0  2  0  0  0
   10.2250   43.2800  -13.4520 O   0  5  0  0  0  0
   10.3030   44.7180  -15.6140 O   0  0  0  0  0  0
    8.7660   45.2660  -13.6570 O   0  0  0  0  0  0
    7.9370   46.5110  -14.2840 P   0  0  1  0  0  0
    6.9110   46.8390  -13.1920 O   0  5  0  0  0  0
    8.9150   47.5490  -14.7530 O   0  0  0  0  0  0
    7.1290   45.8590  -15.4900 O   0  0  0  0  0  0
    6.1890   44.8180  -15.2360 C   0  0  0  0  0  0
    7.1620   43.3430  -16.8410 O   0  0  0  0  0  0
    7.7820   41.1230  -17.0330 O   0  0  0  0  0  0
    6.7120   42.0250  -17.1990 C   0  0  1  0  0  0
    4.6360   40.7150  -16.6350 O   0  0  0  0  0  0
    5.5400   41.7710  -16.2700 C   0  0  2  0  0  0
    4.2340   43.0030  -17.8150 O   0  0  0  0  0  0
    4.8410   43.0870  -16.5100 C   0  0  2  0  0  0
    5.9770   44.0880  -16.5500 C   0  0  1  0  0  0
   15.6714   41.4035   -7.9533 H   0  0  0  0  0  0
   14.8818   37.5887  -10.4075 H   0  0  0  0  0  0
   14.4029   38.1996  -12.1474 H   0  0  0  0  0  0
   13.9511   42.7692  -14.1210 H   0  0  0  0  0  0
   15.5185   44.7650  -11.3341 H   0  0  0  0  0  0
   14.0785   44.7633  -13.9971 H   0  0  0  0  0  0
   16.4777   44.9046  -14.0020 H   0  0  0  0  0  0
   13.1727   47.0430  -13.5642 H   0  0  0  0  0  0
   15.3233   48.0340  -12.8281 H   0  0  0  0  0  0
   12.7644   46.7649  -10.7821 H   0  0  0  0  0  0
   10.8982   45.0186  -11.4976 H   0  0  0  0  0  0
   10.7739   46.7715  -11.8699 H   0  0  0  0  0  0
    6.5931   44.1375  -14.4721 H   0  0  0  0  0  0
    5.2461   45.2552  -14.8757 H   0  0  0  0  0  0
    8.6829   41.2175  -17.6570 H   0  0  0  0  0  0
    6.4573   41.9064  -18.2625 H   0  0  0  0  0  0
    4.9486   39.6649  -16.5368 H   0  0  0  0  0  0
    5.8232   41.4333  -15.2621 H   0  0  0  0  0  0
    3.3858   42.3233  -17.9844 H   0  0  0  0  0  0
    4.0462   43.3453  -15.7948 H   0  0  0  0  0  0
    5.7848   44.8363  -17.3330 H   0  0  0  0  0  0
  1  2  1  0  0  0
  1  6  2  0  0  0
  2  3  2  0  0  0
  2 37  1  0  0  0
  3  4  1  0  0  0
  4  5  2  0  0  0
  4 10  1  0  0  0
  5  6  1  0  0  0
  5  8  1  0  0  0
  6  7  1  0  0  0
  7 38  1  0  0  0
  7 39  1  0  0  0
  8  9  2  0  0  0
  9 10  1  0  0  0
  9 40  1  0  0  0
 10 11  1  0  0  0
 11 12  1  0  0  0
 11 16  1  0  0  0
 11 41  1  0  0  0
 12 13  1  0  0  0
 12 14  1  0  0  0
 12 42  1  0  0  0
 13 43  1  0  0  0
 14 15  1  0  0  0
 14 17  1  0  0  0
 14 44  1  0  0  0
 15 45  1  0  0  0
 16 17  1  0  0  0
 17 18  1  0  0  0
 17 46  1  0  0  0
 18 19  1  0  0  0
 18 47  1  0  0  0
 18 48  1  0  0  0
 19 20  1  0  0  0
 20 21  1  0  0  0
 20 22  2  0  0  0
 20 23  1  0  0  0
 23 24  1  0  0  0
 24 25  1  0  0  0
 24 26  2  0  0  0
 24 27  1  0  0  0
 27 28  1  0  0  0
 28 36  1  0  0  0
 28 49  1  0  0  0
 28 50  1  0  0  0
 29 31  1  0  0  0
 29 36  1  0  0  0
 30 31  1  0  0  0
 30 51  1  0  0  0
 31 33  1  0  0  0
 31 52  1  0  0  0
 32 33  1  0  0  0
 32 53  1  0  0  0
 33 35  1  0  0  0
 33 54  1  0  0  0
 34 35  1  0  0  0
 34 55  1  0  0  0
 35 36  1  0  0  0
 35 56  1  0  0  0
 36 57  1  0  0  0
M  CHG  2  21  -1  25  -1
M  END
> <s_m_source_file>
../3gpo_ligand.sdf

> <i_m_source_file_index>
1

> <s_epik_input>
bjFbY0hdbmMoW05IMl0pYyhjMTIpbltjSF1uMltDQEhdM1tDQEhdKFtPSF0pW0NASF0oW09IXSlbQ0BIXShPMylbQ0gyXU9bUEBAXSg9TykoW09IXSlPW1BAXSg9TykoW09IXSlPW0NIMl1bQ0BASF0oT1tDQEhdNFtPSF0pW0NAQEhdKFtPSF0pW0NASF00W09IXQ==

> <s_epik_cmdline>
J2VwaWtfYXBwJywgJy1pbWFlJywgJ2xpZ2FuZF9wcm8ubWFlJywgJy1vbWFlJywgJ2xpZ2FuZF9wcmVwLm1hZScsICctbXMnLCAnMScsICctcGgnLCAnNycsICctcGh0JywgJzAuNScsICctbnQn

> <r_lp_tautomer_probability>
1

> <r_epik_Ionization_Penalty>
  0.0012

> <r_epik_Ionization_Penalty_Charging>
  0.0006

> <r_epik_Ionization_Penalty_Neutral>
  0.0006

> <r_epik_State_Penalty>
 -0.0000

> <r_epik_Charging_Adjusted_Penalty>
0.000554568258717467

> <i_epik_Tot_Q>
-2

> <i_epik_Tot_abs_Q>
2

> <s_epik_Chemistry_Notes>
This compound contains an acetal/aminal-like group ( X-CH(R)-Y where X, Y are N, S, or O) that may be acid/base labile, releasing an aldehyde.

$$$$
