3gqo_ligand
                    3D
 Schrodinger Suite 2020-3.
 57 60  0  0  1  0            999 V2000
   -9.3740  -14.7070   32.9450 N   0  0  0  0  0  0
   -9.7340  -14.0650   31.8130 C   0  0  0  0  0  0
   -9.1850  -14.3150   30.6090 N   0  0  0  0  0  0
   -8.2280  -15.2530   30.4950 C   0  0  0  0  0  0
   -7.7830  -15.9970   31.6780 C   0  0  0  0  0  0
   -8.4310  -15.6660   32.9530 C   0  0  0  0  0  0
   -8.0660  -16.2970   34.0860 N   0  0  0  0  0  0
   -6.8280  -16.8490   31.2720 N   0  0  0  0  0  0
   -6.6770  -16.6750   29.9310 C   0  0  0  0  0  0
   -7.5130  -15.7210   29.4840 N   0  0  0  0  0  0
   -7.6940  -15.2290   28.1140 C   0  0  1  0  0  0
   -6.5920  -15.6650   27.1810 C   0  0  2  0  0  0
   -5.5540  -14.6880   27.1300 O   0  0  0  0  0  0
   -7.3620  -15.7890   25.8780 C   0  0  2  0  0  0
   -7.5130  -14.5200   25.2580 O   0  0  0  0  0  0
   -8.8820  -15.8680   27.6510 O   0  0  0  0  0  0
   -8.7640  -16.2050   26.2780 C   0  0  2  0  0  0
   -9.0710  -17.6800   26.0640 C   0  0  0  0  0  0
   -7.8750  -18.4410   26.1390 O   0  0  0  0  0  0
   -7.8690  -19.9370   26.7000 P   0  0  2  0  0  0
   -8.2190  -19.8740   28.1640 O   0  5  0  0  0  0
   -6.5640  -20.5450   26.2650 O   0  0  0  0  0  0
   -9.0540  -20.6900   25.9210 O   0  0  0  0  0  0
   -8.9240  -21.2490   24.4230 P   0  0  1  0  0  0
  -10.3210  -21.4490   23.9020 O   0  5  0  0  0  0
   -7.9520  -20.4140   23.6550 O   0  0  0  0  0  0
   -8.2940  -22.7050   24.6360 O   0  0  0  0  0  0
   -9.0320  -23.6790   25.3680 C   0  0  0  0  0  0
   -7.2210  -24.2710   26.8600 O   0  0  0  0  0  0
   -7.0620  -24.5850   29.1860 O   0  0  0  0  0  0
   -7.2850  -25.2030   27.9400 C   0  0  1  0  0  0
   -8.8930  -26.8270   28.7290 O   0  0  0  0  0  0
   -8.7020  -25.7010   27.8850 C   0  0  2  0  0  0
   -7.9800  -27.1590   26.1200 O   0  0  0  0  0  0
   -8.7670  -25.9980   26.4090 C   0  0  2  0  0  0
   -8.0730  -24.7670   25.8210 C   0  0  1  0  0  0
  -10.5110  -13.3032   31.8772 H   0  0  0  0  0  0
   -8.5553  -16.0445   35.0383 H   0  0  0  0  0  0
   -7.2786  -17.0647   34.0588 H   0  0  0  0  0  0
   -5.9770  -17.2306   29.3069 H   0  0  0  0  0  0
   -7.7606  -14.1312   28.1322 H   0  0  0  0  0  0
   -6.0157  -16.5557   27.4719 H   0  0  0  0  0  0
   -4.9255  -14.5065   28.0144 H   0  0  0  0  0  0
   -6.8417  -16.4382   25.1584 H   0  0  0  0  0  0
   -6.6312  -13.9888   24.8704 H   0  0  0  0  0  0
   -9.5143  -15.6506   25.6952 H   0  0  0  0  0  0
   -9.7690  -18.0257   26.8407 H   0  0  0  0  0  0
   -9.5270  -17.8196   25.0728 H   0  0  0  0  0  0
   -9.5010  -23.2031   26.2419 H   0  0  0  0  0  0
   -9.8117  -24.1096   24.7225 H   0  0  0  0  0  0
   -6.0767  -24.1543   29.4178 H   0  0  0  0  0  0
   -6.4820  -25.9506   27.8611 H   0  0  0  0  0  0
   -8.8624  -26.7066   29.8220 H   0  0  0  0  0  0
   -9.5039  -25.0621   28.2835 H   0  0  0  0  0  0
   -8.3146  -28.1494   26.4622 H   0  0  0  0  0  0
   -9.7685  -26.2357   26.0210 H   0  0  0  0  0  0
   -7.4713  -25.0322   24.9391 H   0  0  0  0  0  0
  1  2  1  0  0  0
  1  6  2  0  0  0
  2  3  2  0  0  0
  2 37  1  0  0  0
  3  4  1  0  0  0
  4  5  2  0  0  0
  4 10  1  0  0  0
  5  6  1  0  0  0
  5  8  1  0  0  0
  6  7  1  0  0  0
  7 38  1  0  0  0
  7 39  1  0  0  0
  8  9  2  0  0  0
  9 10  1  0  0  0
  9 40  1  0  0  0
 10 11  1  0  0  0
 11 12  1  0  0  0
 11 16  1  0  0  0
 11 41  1  0  0  0
 12 13  1  0  0  0
 12 14  1  0  0  0
 12 42  1  0  0  0
 13 43  1  0  0  0
 14 15  1  0  0  0
 14 17  1  0  0  0
 14 44  1  0  0  0
 15 45  1  0  0  0
 16 17  1  0  0  0
 17 18  1  0  0  0
 17 46  1  0  0  0
 18 19  1  0  0  0
 18 47  1  0  0  0
 18 48  1  0  0  0
 19 20  1  0  0  0
 20 21  1  0  0  0
 20 22  2  0  0  0
 20 23  1  0  0  0
 23 24  1  0  0  0
 24 25  1  0  0  0
 24 26  2  0  0  0
 24 27  1  0  0  0
 27 28  1  0  0  0
 28 36  1  0  0  0
 28 49  1  0  0  0
 28 50  1  0  0  0
 29 31  1  0  0  0
 29 36  1  0  0  0
 30 31  1  0  0  0
 30 51  1  0  0  0
 31 33  1  0  0  0
 31 52  1  0  0  0
 32 33  1  0  0  0
 32 53  1  0  0  0
 33 35  1  0  0  0
 33 54  1  0  0  0
 34 35  1  0  0  0
 34 55  1  0  0  0
 35 36  1  0  0  0
 35 56  1  0  0  0
 36 57  1  0  0  0
M  CHG  2  21  -1  25  -1
M  END
> <s_m_source_file>
../3gqo_ligand.sdf

> <i_m_source_file_index>
1

> <s_epik_input>
bjFbY0hdbmMoW05IMl0pYyhjMTIpbltjSF1uMltDQEhdM1tDQEhdKFtPSF0pW0NASF0oW09IXSlbQ0BIXShPMylbQ0gyXU9bUEBAXSg9TykoW09IXSlPW1BAXSg9TykoW09IXSlPW0NIMl1bQ0BASF0oT1tDQEhdNFtPSF0pW0NAQEhdKFtPSF0pW0NASF00W09IXQ==

> <s_epik_cmdline>
J2VwaWtfYXBwJywgJy1pbWFlJywgJ2xpZ2FuZF9wcm8ubWFlJywgJy1vbWFlJywgJ2xpZ2FuZF9wcmVwLm1hZScsICctbXMnLCAnMScsICctcGgnLCAnNycsICctcGh0JywgJzAuNScsICctbnQn

> <r_lp_tautomer_probability>
1

> <r_epik_Ionization_Penalty>
  0.0012

> <r_epik_Ionization_Penalty_Charging>
  0.0006

> <r_epik_Ionization_Penalty_Neutral>
  0.0006

> <r_epik_State_Penalty>
 -0.0000

> <r_epik_Charging_Adjusted_Penalty>
0.000554568258717467

> <i_epik_Tot_Q>
-2

> <i_epik_Tot_abs_Q>
2

> <s_epik_Chemistry_Notes>
This compound contains an acetal/aminal-like group ( X-CH(R)-Y where X, Y are N, S, or O) that may be acid/base labile, releasing an aldehyde.

$$$$
