3gqz_ligand
                    3D
 Schrodinger Suite 2020-3.
 30 31  0  0  1  0            999 V2000
  -37.1580   13.5970   16.4040 O   0  0  0  0  0  0
  -36.9260   13.6420   17.6020 C   0  0  0  0  0  0
  -37.7020   14.5660   18.4960 C   0  0  0  0  0  0
  -35.8430   12.7700   18.1740 C   0  0  0  0  0  0
  -35.5760   12.7760   19.5440 C   0  0  0  0  0  0
  -34.5690   11.9670   20.0620 C   0  0  0  0  0  0
  -35.0950   11.9500   17.3260 C   0  0  0  0  0  0
  -34.0860   11.1390   17.8410 C   0  0  0  0  0  0
  -33.8260   11.1500   19.2110 C   0  0  0  0  0  0
  -32.8160   10.3450   19.7500 N   0  0  0  0  0  0
  -32.9860    9.0460   19.9330 C   0  0  0  0  0  0
  -33.9690    8.3770   19.6320 O   0  0  0  0  0  0
  -31.5480   10.9320   20.1440 C   0  0  0  0  0  0
  -30.7960    9.6770   20.6010 C   0  0  2  0  0  0
  -31.7540    8.4810   20.5950 C   0  0  0  0  0  0
  -30.1750    9.8910   21.9570 C   0  0  0  0  0  0
  -30.0970   11.0500   22.4210 O   0  0  0  0  0  0
  -29.7250    8.8930   22.5690 O   0  5  0  0  0  0
  -38.4440   15.1164   17.8989 H   0  0  0  0  0  0
  -37.0133   15.2789   18.9728 H   0  0  0  0  0  0
  -38.2171   13.9795   19.2710 H   0  0  0  0  0  0
  -36.1569   13.4151   20.2090 H   0  0  0  0  0  0
  -34.3614   11.9721   21.1320 H   0  0  0  0  0  0
  -35.3018   11.9446   16.2558 H   0  0  0  0  0  0
  -33.5035   10.5000   17.1773 H   0  0  0  0  0  0
  -31.0913   11.4336   19.2780 H   0  0  0  0  0  0
  -31.7170   11.6659   20.9457 H   0  0  0  0  0  0
  -29.9610    9.4677   19.9163 H   0  0  0  0  0  0
  -32.0081    8.1347   21.6077 H   0  0  0  0  0  0
  -31.3746    7.6353   20.0027 H   0  0  0  0  0  0
  1  2  2  0  0  0
  2  3  1  0  0  0
  2  4  1  0  0  0
  3 19  1  0  0  0
  3 20  1  0  0  0
  3 21  1  0  0  0
  4  5  2  0  0  0
  4  7  1  0  0  0
  5  6  1  0  0  0
  5 22  1  0  0  0
  6  9  2  0  0  0
  6 23  1  0  0  0
  7  8  2  0  0  0
  7 24  1  0  0  0
  8  9  1  0  0  0
  8 25  1  0  0  0
  9 10  1  0  0  0
 10 11  1  0  0  0
 10 13  1  0  0  0
 11 12  2  0  0  0
 11 15  1  0  0  0
 13 14  1  0  0  0
 13 26  1  0  0  0
 13 27  1  0  0  0
 14 15  1  0  0  0
 14 16  1  0  0  0
 14 28  1  0  0  0
 15 29  1  0  0  0
 15 30  1  0  0  0
 16 17  2  0  0  0
 16 18  1  0  0  0
M  CHG  1  18  -1
M  END
> <s_m_source_file>
../3gqz_ligand.sdf

> <i_m_source_file_index>
1

> <s_epik_input>
Tz1DKFtDSDNdKWMxW2NIXVtjSF1jKFtjSF1bY0hdMSlOMkMoPU8pW0NIMl1bQ0BASF0oW0NIMl0yKUMoPU8pW09IXQ==

> <s_epik_cmdline>
J2VwaWtfYXBwJywgJy1pbWFlJywgJ2xpZ2FuZF9wcm8ubWFlJywgJy1vbWFlJywgJ2xpZ2FuZF9wcmVwLm1hZScsICctbXMnLCAnMScsICctcGgnLCAnNycsICctcGh0JywgJzAuNScsICctbnQn

> <r_lp_tautomer_probability>
1

> <r_epik_Ionization_Penalty>
  0.0036

> <r_epik_Ionization_Penalty_Charging>
  0.0035

> <r_epik_Ionization_Penalty_Neutral>
  0.0002

> <r_epik_State_Penalty>
 -0.0000

> <r_epik_Charging_Adjusted_Penalty>
0.00347773073204076

> <i_epik_Tot_Q>
-1

> <i_epik_Tot_abs_Q>
1

$$$$
