3gsg_ligand
                    3D
 Schrodinger Suite 2020-3.
 31 33  0  0  1  0            999 V2000
  -37.2770    6.1430   15.9900 O   0  0  0  0  0  0
  -36.3210    5.8560   15.2920 C   0  0  0  0  0  0
  -35.0090    5.8450   15.6430 N   0  0  0  0  0  0
  -34.2350    5.2290   16.7580 C   0  0  1  0  0  0
  -34.4000    5.4670   18.2430 C   0  0  0  0  0  0
  -33.3780    5.5760   18.9750 O   0  5  0  0  0  0
  -35.5320    5.4500   18.7300 O   0  0  0  0  0  0
  -34.3730    3.7320   16.6000 C   0  0  0  0  0  0
  -36.4310    5.4170   13.8310 C   0  0  2  0  0  0
  -35.0410    5.7500   13.4180 C   0  0  2  0  0  0
  -34.3160    6.2860   14.6160 C   0  0  0  0  0  0
  -33.2810    6.9480   14.6100 O   0  0  0  0  0  0
  -37.1510    6.0870   12.6390 C   0  0  2  0  0  0
  -36.7240    5.2720   11.3820 C   0  0  0  0  0  0
  -35.1820    5.5380   11.1370 C   0  0  0  0  0  0
  -36.3300    7.3240   12.2990 C   0  0  0  0  0  0
  -34.9810    6.6250   12.1960 C   0  0  1  0  0  0
  -33.3037    5.7850   16.5747 H   0  0  0  0  0  0
  -34.2654    3.4639   15.5386 H   0  0  0  0  0  0
  -35.3630    3.4151   16.9598 H   0  0  0  0  0  0
  -33.5910    3.2278   17.1867 H   0  0  0  0  0  0
  -36.9523    4.4532   13.9272 H   0  0  0  0  0  0
  -34.5275    4.8350   13.0878 H   0  0  0  0  0  0
  -38.2203    6.2218   12.8591 H   0  0  0  0  0  0
  -36.9040    4.2016   11.5605 H   0  0  0  0  0  0
  -37.3121    5.6028   10.5133 H   0  0  0  0  0  0
  -34.6174    4.6107   11.3137 H   0  0  0  0  0  0
  -35.0274    5.8694   10.0996 H   0  0  0  0  0  0
  -36.7037    7.7664   11.3638 H   0  0  0  0  0  0
  -36.4189    8.0583   13.1132 H   0  0  0  0  0  0
  -34.1227    7.2983   12.0542 H   0  0  0  0  0  0
  1  2  2  0  0  0
  2  3  1  0  0  0
  2  9  1  0  0  0
  3  4  1  0  0  0
  3 11  1  0  0  0
  4  5  1  0  0  0
  4  8  1  0  0  0
  4 18  1  0  0  0
  5  6  1  0  0  0
  5  7  2  0  0  0
  8 19  1  0  0  0
  8 20  1  0  0  0
  8 21  1  0  0  0
  9 10  1  0  0  0
  9 13  1  0  0  0
  9 22  1  0  0  0
 10 11  1  0  0  0
 10 17  1  0  0  0
 10 23  1  0  0  0
 11 12  2  0  0  0
 13 14  1  0  0  0
 13 16  1  0  0  0
 13 24  1  0  0  0
 14 15  1  0  0  0
 14 25  1  0  0  0
 14 26  1  0  0  0
 15 17  1  0  0  0
 15 27  1  0  0  0
 15 28  1  0  0  0
 16 17  1  0  0  0
 16 29  1  0  0  0
 16 30  1  0  0  0
 17 31  1  0  0  0
M  CHG  1   6  -1
M  END
> <s_m_source_file>
../3gsg_ligand.sdf

> <i_m_source_file_index>
1

> <s_epik_input>
W09IXUMoPU8pW0NAQEhdKFtDSDNdKU4oQzE9TylDKD1PKVtDQEBIXShbQ0BASF0xMilbQ0BIXTNbQ0gyXVtDSDJdW0NAQEhdMltDSDJdMw==

> <s_epik_cmdline>
J2VwaWtfYXBwJywgJy1pbWFlJywgJ2xpZ2FuZF9wcm8ubWFlJywgJy1vbWFlJywgJ2xpZ2FuZF9wcmVwLm1hZScsICctbXMnLCAnMScsICctcGgnLCAnNycsICctcGh0JywgJzAuNScsICctbnQn

> <r_lp_tautomer_probability>
1

> <r_epik_Ionization_Penalty>
  0.0002

> <r_epik_Ionization_Penalty_Charging>
  0.0002

> <r_epik_Ionization_Penalty_Neutral>
  0.0000

> <r_epik_State_Penalty>
 -0.0000

> <r_epik_Charging_Adjusted_Penalty>
0.000208377661908258

> <i_epik_Tot_Q>
-1

> <i_epik_Tot_abs_Q>
1

$$$$
