3gss_ligand
                    3D
 Schrodinger Suite 2020-3.
 66 66  0  0  1  0            999 V2000
   14.7060   10.8820   23.3290 N   0  3  0  0  0  0
   14.5890   10.0180   24.5180 C   0  0  2  0  0  0
   15.6900    8.9740   24.4280 C   0  0  0  0  0  0
   16.1050    8.4440   25.4750 O   0  0  0  0  0  0
   16.1610    8.7210   23.2970 O   0  5  0  0  0  0
   13.2180    9.3520   24.5340 C   0  0  0  0  0  0
   12.9620    8.5240   25.7690 C   0  0  0  0  0  0
   11.5130    8.1270   25.9040 C   0  0  0  0  0  0
   10.7590    8.1250   24.9380 O   0  0  0  0  0  0
   11.1200    7.7560   27.1100 N   0  0  0  0  0  0
    9.7400    7.3830   27.3600 C   0  0  2  0  0  0
    9.3730    7.7640   28.7820 C   0  0  0  0  0  0
   10.2510    7.9770   29.6200 O   0  0  0  0  0  0
    9.5250    5.8930   27.1140 C   0  0  0  0  0  0
   10.2670    4.8490   28.3470 S   0  0  0  0  0  0
    8.0740    7.8490   29.0420 N   0  0  0  0  0  0
    7.6000    8.2300   30.3560 C   0  0  0  0  0  0
    6.9270    9.5890   30.2680 C   0  0  0  0  0  0
    6.1760    9.9410   31.1900 O   0  0  0  0  0  0
    7.1240   10.3010   29.2620 O   0  5  0  0  0  0
    3.8860    5.0690   25.4440 C   0  0  0  0  0  0
    2.6310    5.5870   25.1570 O   0  0  0  0  0  0
    4.9500    5.4220   24.5780 C   0  0  0  0  0  0
    4.6470    6.5010   23.2010 Cl  0  0  0  0  0  0
    6.2520    4.9130   24.8010 C   0  0  0  0  0  0
    7.5490    5.4180   23.6940 Cl  0  0  0  0  0  0
    6.4940    4.0200   25.8960 C   0  0  0  0  0  0
    5.4100    3.6880   26.7440 C   0  0  0  0  0  0
    4.1360    4.1990   26.5170 C   0  0  0  0  0  0
    7.8590    3.3760   26.1530 C   0  0  0  0  0  0
    8.6650    3.1560   25.2470 O   0  0  0  0  0  0
    8.3570    2.9460   27.5890 C   0  0  1  0  0  0
    7.8640    1.5480   28.0140 C   0  0  0  0  0  0
    8.3880    0.9600   29.3190 C   0  0  0  0  0  0
    9.8630    3.1710   27.8400 C   0  0  0  0  0  0
    1.5370    4.8070   24.5820 C   0  0  0  0  0  0
    0.7460    5.5470   23.5080 C   0  0  0  0  0  0
   -0.4730    5.2960   23.3800 O   0  0  0  0  0  0
    1.3270    6.4210   22.8180 O   0  5  0  0  0  0
   15.6961   11.3612   23.3200 H   0  0  0  0  0  0
   13.9245   11.6555   23.3595 H   0  0  0  0  0  0
   14.5847   10.2738   22.4205 H   0  0  0  0  0  0
   14.6992   10.6271   25.4273 H   0  0  0  0  0  0
   12.4351   10.1234   24.4882 H   0  0  0  0  0  0
   13.1251    8.6832   23.6656 H   0  0  0  0  0  0
   13.5638    7.6043   25.7250 H   0  0  0  0  0  0
   13.2407    9.1021   26.6624 H   0  0  0  0  0  0
   11.8533    7.7320   27.9295 H   0  0  0  0  0  0
    9.1248    7.9504   26.6461 H   0  0  0  0  0  0
    8.4470    5.6745   27.1064 H   0  0  0  0  0  0
    9.9624    5.6147   26.1438 H   0  0  0  0  0  0
    7.3539    7.6249   28.2412 H   0  0  0  0  0  0
    6.8779    7.4825   30.7163 H   0  0  0  0  0  0
    8.4506    8.2830   31.0515 H   0  0  0  0  0  0
    5.5764    3.0204   27.5894 H   0  0  0  0  0  0
    3.3193    3.9195   27.1826 H   0  0  0  0  0  0
    7.8773    3.6380   28.2968 H   0  0  0  0  0  0
    6.7705    1.5650   28.1318 H   0  0  0  0  0  0
    8.1384    0.8125   27.2434 H   0  0  0  0  0  0
    7.9442   -0.0339   29.4776 H   0  0  0  0  0  0
    8.1150    1.6211   30.1547 H   0  0  0  0  0  0
    9.4829    0.8686   29.2664 H   0  0  0  0  0  0
   10.3905    2.9336   26.9044 H   0  0  0  0  0  0
   10.1736    2.4659   28.6251 H   0  0  0  0  0  0
    1.9412    3.8954   24.1176 H   0  0  0  0  0  0
    0.8272    4.5304   25.3756 H   0  0  0  0  0  0
  1  2  1  0  0  0
  1 40  1  0  0  0
  1 41  1  0  0  0
  1 42  1  0  0  0
  2  3  1  0  0  0
  2  6  1  0  0  0
  2 43  1  0  0  0
  3  4  2  0  0  0
  3  5  1  0  0  0
  6  7  1  0  0  0
  6 44  1  0  0  0
  6 45  1  0  0  0
  7  8  1  0  0  0
  7 46  1  0  0  0
  7 47  1  0  0  0
  8  9  2  0  0  0
  8 10  1  0  0  0
 10 11  1  0  0  0
 10 48  1  0  0  0
 11 12  1  0  0  0
 11 14  1  0  0  0
 11 49  1  0  0  0
 12 13  2  0  0  0
 12 16  1  0  0  0
 14 15  1  0  0  0
 14 50  1  0  0  0
 14 51  1  0  0  0
 15 35  1  0  0  0
 16 17  1  0  0  0
 16 52  1  0  0  0
 17 18  1  0  0  0
 17 53  1  0  0  0
 17 54  1  0  0  0
 18 19  2  0  0  0
 18 20  1  0  0  0
 21 22  1  0  0  0
 21 23  2  0  0  0
 21 29  1  0  0  0
 22 36  1  0  0  0
 23 24  1  0  0  0
 23 25  1  0  0  0
 25 26  1  0  0  0
 25 27  2  0  0  0
 27 28  1  0  0  0
 27 30  1  0  0  0
 28 29  2  0  0  0
 28 55  1  0  0  0
 29 56  1  0  0  0
 30 31  2  0  0  0
 30 32  1  0  0  0
 32 33  1  0  0  0
 32 35  1  0  0  0
 32 57  1  0  0  0
 33 34  1  0  0  0
 33 58  1  0  0  0
 33 59  1  0  0  0
 34 60  1  0  0  0
 34 61  1  0  0  0
 34 62  1  0  0  0
 35 63  1  0  0  0
 35 64  1  0  0  0
 36 37  1  0  0  0
 36 65  1  0  0  0
 36 66  1  0  0  0
 37 38  2  0  0  0
 37 39  1  0  0  0
M  CHG  4   1   1   5  -1  20  -1  39  -1
M  END
> <s_m_source_file>
../3gss_ligand.sdf

> <i_m_source_file_index>
1

> <s_epik_input>
Tz1DKFtPSF0pW0NAQEhdKFtOSDMrXSlbQ0gyXVtDSDJdQyg9TylbTkhdW0NASF0oQyg9TylbTkhdW0NIMl1DKD1PKVtPSF0pW0NIMl1TW0NIMl1bQ0BIXShbQ0gyXVtDSDNdKUMoPU8pYyhbY0hdW2NIXTEpYyhDbCljKENsKWMxT1tDSDJdQyg9TylbT0hd

> <s_epik_cmdline>
J2VwaWtfYXBwJywgJy1pbWFlJywgJ2xpZ2FuZF9wcm8ubWFlJywgJy1vbWFlJywgJ2xpZ2FuZF9wcmVwLm1hZScsICctbXMnLCAnMScsICctcGgnLCAnNycsICctcGh0JywgJzAuNScsICctbnQn

> <r_lp_tautomer_probability>
1

> <r_epik_Ionization_Penalty>
  0.0026

> <r_epik_Ionization_Penalty_Charging>
  0.0026

> <r_epik_Ionization_Penalty_Neutral>
  0.0000

> <r_epik_State_Penalty>
 -0.0000

> <r_epik_Charging_Adjusted_Penalty>
0.00258300423118647

> <i_epik_Tot_Q>
-2

> <i_epik_Tot_abs_Q>
4

$$$$
