3gst_ligand
                    3D
 Schrodinger Suite 2020-3.
 61 63  0  0  1  0            999 V2000
   14.5620   14.7450   25.0920 N   0  3  0  0  0  0
   14.1510   15.3770   26.3990 C   0  0  2  0  0  0
   13.1440   16.5080   26.1890 C   0  0  0  0  0  0
   12.4380   16.8980   27.1110 O   0  0  0  0  0  0
   13.1400   17.0330   24.9680 O   0  5  0  0  0  0
   15.3740   16.0750   27.1080 C   0  0  0  0  0  0
   15.7930   15.1850   28.2290 C   0  0  0  0  0  0
   16.7670   15.6900   29.2190 C   0  0  0  0  0  0
   17.9750   15.5180   28.9210 O   0  0  0  0  0  0
   16.2950   16.2790   30.3300 N   0  0  0  0  0  0
   17.2090   16.9690   31.2690 C   0  0  2  0  0  0
   16.9640   16.3990   32.6940 C   0  0  0  0  0  0
   17.5550   16.9260   33.6090 O   0  0  0  0  0  0
   17.0910   18.5080   31.2710 C   0  0  0  0  0  0
   17.3250   19.1560   29.6490 S   0  0  0  0  0  0
   16.2670   15.3090   32.7800 N   0  0  0  0  0  0
   15.8910   14.8170   34.1340 C   0  0  0  0  0  0
   16.6510   13.5810   34.4670 C   0  0  0  0  0  0
   17.5230   13.0370   33.7730 O   0  0  0  0  0  0
   16.4220   12.9510   35.6130 O   0  5  0  0  0  0
   19.0120   19.0640   29.8780 C   0  0  2  0  0  0
   19.4670   20.4270   30.3270 C   0  0  0  0  0  0
   19.6360   20.6660   31.7170 C   0  0  0  0  0  0
   20.0880   21.8980   32.1800 C   0  0  0  0  0  0
   20.3590   22.9100   31.2340 C   0  0  0  0  0  0
   20.2180   22.6990   29.8620 C   0  0  0  0  0  0
   19.7920   21.4440   29.3930 C   0  0  0  0  0  0
   19.5880   21.1600   27.9290 C   0  0  0  0  0  0
   19.5340   22.2300   26.9870 C   0  0  0  0  0  0
   19.3350   21.9120   25.6510 C   0  0  0  0  0  0
   19.1970   20.5950   25.2170 C   0  0  0  0  0  0
   19.3050   19.5510   26.1400 C   0  0  0  0  0  0
   19.5000   19.8500   27.4870 C   0  0  0  0  0  0
   19.5280   18.6830   28.4710 C   0  0  1  0  0  0
   20.9200   18.3460   28.6100 O   0  0  0  0  0  0
   15.2846   13.9387   25.2859 H   0  0  0  0  0  0
   15.0257   15.5057   24.4467 H   0  0  0  0  0  0
   13.6753   14.3300   24.5906 H   0  0  0  0  0  0
   13.7129   14.5407   26.9635 H   0  0  0  0  0  0
   16.1933   16.2020   26.3850 H   0  0  0  0  0  0
   15.0644   17.0598   27.4880 H   0  0  0  0  0  0
   14.9117   14.9075   28.8259 H   0  0  0  0  0  0
   16.2603   14.2766   27.8210 H   0  0  0  0  0  0
   15.2155   16.2446   30.5386 H   0  0  0  0  0  0
   18.2158   16.7490   30.8843 H   0  0  0  0  0  0
   16.0920   18.7987   31.6281 H   0  0  0  0  0  0
   17.8564   18.9336   31.9366 H   0  0  0  0  0  0
   15.9538   14.7508   31.8854 H   0  0  0  0  0  0
   16.1200   15.5905   34.8818 H   0  0  0  0  0  0
   14.8144   14.5924   34.1566 H   0  0  0  0  0  0
   19.4611   18.3903   30.6226 H   0  0  0  0  0  0
   19.4086   19.8739   32.4304 H   0  0  0  0  0  0
   20.2292   22.0770   33.2459 H   0  0  0  0  0  0
   20.6889   23.8873   31.5865 H   0  0  0  0  0  0
   20.4368   23.5021   29.1583 H   0  0  0  0  0  0
   19.6457   23.2660   27.3070 H   0  0  0  0  0  0
   19.2851   22.7174   24.9183 H   0  0  0  0  0  0
   19.0062   20.3806   24.1655 H   0  0  0  0  0  0
   19.2374   18.5144   25.8098 H   0  0  0  0  0  0
   18.9382   17.8408   28.0801 H   0  0  0  0  0  0
   21.2230   17.5231   29.2741 H   0  0  0  0  0  0
  1  2  1  0  0  0
  1 36  1  0  0  0
  1 37  1  0  0  0
  1 38  1  0  0  0
  2  6  1  0  0  0
  2  3  1  0  0  0
  2 39  1  0  0  0
  3  5  1  0  0  0
  3  4  2  0  0  0
  6  7  1  0  0  0
  6 40  1  0  0  0
  6 41  1  0  0  0
  7  8  1  0  0  0
  7 42  1  0  0  0
  7 43  1  0  0  0
  8 10  1  0  0  0
  8  9  2  0  0  0
 10 11  1  0  0  0
 10 44  1  0  0  0
 11 14  1  0  0  0
 11 12  1  0  0  0
 11 45  1  0  0  0
 12 16  1  0  0  0
 12 13  2  0  0  0
 14 15  1  0  0  0
 14 46  1  0  0  0
 14 47  1  0  0  0
 15 21  1  0  0  0
 16 17  1  0  0  0
 16 48  1  0  0  0
 17 18  1  0  0  0
 17 49  1  0  0  0
 17 50  1  0  0  0
 18 20  1  0  0  0
 18 19  2  0  0  0
 21 22  1  0  0  0
 21 34  1  0  0  0
 21 51  1  0  0  0
 22 27  1  0  0  0
 22 23  2  0  0  0
 23 24  1  0  0  0
 23 52  1  0  0  0
 24 25  2  0  0  0
 24 53  1  0  0  0
 25 26  1  0  0  0
 25 54  1  0  0  0
 26 27  2  0  0  0
 26 55  1  0  0  0
 27 28  1  0  0  0
 28 33  1  0  0  0
 28 29  2  0  0  0
 29 30  1  0  0  0
 29 56  1  0  0  0
 30 31  2  0  0  0
 30 57  1  0  0  0
 31 32  1  0  0  0
 31 58  1  0  0  0
 32 33  2  0  0  0
 32 59  1  0  0  0
 33 34  1  0  0  0
 34 35  1  0  0  0
 34 60  1  0  0  0
 35 61  1  0  0  0
M  CHG  3   1   1   5  -1  20  -1
M  END
> <s_m_source_file>
../3gst_ligand.sdf

> <i_m_source_file_index>
1

> <s_epik_input>
Tz1DKFtPSF0pW0NAQEhdKFtOSDMrXSlbQ0gyXVtDSDJdQyg9TylbTkhdW0NASF0oQyg9TylbTkhdW0NIMl1DKD1PKVtPSF0pW0NIMl1TW0NASF0xW0NASF0oW09IXSljKFtjSF1bY0hdW2NIXVtjSF0yKWMyYyhjMTMpW2NIXVtjSF1bY0hdW2NIXTM=

> <s_epik_cmdline>
J2VwaWtfYXBwJywgJy1pbWFlJywgJ2xpZ2FuZF9wcm8ubWFlJywgJy1vbWFlJywgJ2xpZ2FuZF9wcmVwLm1hZScsICctbXMnLCAnMScsICctcGgnLCAnNycsICctcGh0JywgJzAuNScsICctbnQn

> <r_lp_tautomer_probability>
1

> <r_epik_Ionization_Penalty>
  0.0025

> <r_epik_Ionization_Penalty_Charging>
  0.0025

> <r_epik_Ionization_Penalty_Neutral>
  0.0000

> <r_epik_State_Penalty>
 -0.0000

> <r_epik_Charging_Adjusted_Penalty>
0.00251955541370068

> <i_epik_Tot_Q>
-1

> <i_epik_Tot_abs_Q>
3

$$$$
