3gt9_ligand
                    3D
 Schrodinger Suite 2020-3.
 73 77  0  0  1  0            999 V2000
   80.5260   62.0630   14.9220 O   0  0  0  0  0  0
   80.8480   62.3490   13.7780 C   0  0  0  0  0  0
   82.0200   61.6510   13.1440 C   0  0  2  0  0  0
   81.5110   60.5290   12.2340 C   0  0  0  0  0  0
   80.8980   59.3690   13.0190 C   0  0  0  0  0  0
   80.3590   58.2930   12.0840 C   0  0  0  0  0  0
   81.4490   57.7770   11.1490 C   0  0  0  0  0  0
   82.1060   58.9230   10.3860 C   0  0  0  0  0  0
   82.6270   59.9900   11.3440 C   0  0  0  0  0  0
   82.9330   61.1350   14.1560 N   0  0  0  0  0  0
   84.2610   61.1950   14.0560 C   0  0  0  0  0  0
   84.8450   61.6540   13.0890 O   0  0  0  0  0  0
   85.0460   60.6330   15.2060 C   0  0  2  0  0  0
   85.1240   61.6510   16.3340 C   0  0  0  0  0  0
   86.3820   60.2450   14.7900 N   0  3  0  0  0  0
   86.5510   59.0820   13.9390 C   0  0  0  0  0  0
   80.1740   63.2600   13.0650 N   0  0  0  0  0  0
   78.9940   63.9020   13.6370 C   0  0  1  0  0  0
   78.5650   64.9660   12.6290 C   0  0  0  0  0  0
   79.7190   65.1120   11.7070 C   0  0  0  0  0  0
   80.4380   63.7690   11.7230 C   0  0  0  0  0  0
   77.8710   62.9390   13.9260 C   0  0  0  0  0  0
   77.6080   61.5130   13.0980 S   0  0  0  0  0  0
   76.3070   61.2890   14.1180 C   0  0  0  0  0  0
   76.1160   62.2510   15.0320 C   0  0  0  0  0  0
   77.0230   63.2090   14.9080 N   0  0  0  0  0  0
   74.9950   62.2610   16.0390 C   0  0  0  0  0  0
   73.7400   61.8380   15.5990 C   0  0  0  0  0  0
   72.6510   61.8240   16.4630 C   0  0  0  0  0  0
   72.8130   62.2410   17.7790 C   0  0  0  0  0  0
   74.0600   62.6690   18.2260 C   0  0  0  0  0  0
   74.1880   63.0810   19.5500 C   0  0  0  0  0  0
   75.1600   62.6850   17.3650 C   0  0  0  0  0  0
   76.3940   63.1240   17.8650 C   0  0  0  0  0  0
   76.5200   63.5360   19.1900 C   0  0  0  0  0  0
   75.4150   63.5160   20.0330 C   0  0  0  0  0  0
   82.6151   62.3794   12.5737 H   0  0  0  0  0  0
   80.7249   60.9772   11.6087 H   0  0  0  0  0  0
   81.6649   58.9186   13.6664 H   0  0  0  0  0  0
   80.0690   59.7427   13.6380 H   0  0  0  0  0  0
   79.9777   57.4490   12.6775 H   0  0  0  0  0  0
   79.5438   58.7110   11.4752 H   0  0  0  0  0  0
   82.2204   57.2577   11.7365 H   0  0  0  0  0  0
   81.0085   57.0779   10.4229 H   0  0  0  0  0  0
   82.9503   58.5350    9.7972 H   0  0  0  0  0  0
   81.3697   59.3840    9.7113 H   0  0  0  0  0  0
   83.0538   60.8131   10.7521 H   0  0  0  0  0  0
   83.4127   59.5435   11.9711 H   0  0  0  0  0  0
   82.5350   60.6630   15.0664 H   0  0  0  0  0  0
   84.5578   59.7078   15.5460 H   0  0  0  0  0  0
   84.1071   61.9372   16.6405 H   0  0  0  0  0  0
   85.6668   62.5424   15.9865 H   0  0  0  0  0  0
   85.6545   61.2093   17.1904 H   0  0  0  0  0  0
   86.8427   61.0673   14.2229 H   0  0  0  0  0  0
   86.9929   60.0245   15.6778 H   0  0  0  0  0  0
   87.6201   58.9368   13.7246 H   0  0  0  0  0  0
   86.0054   59.2352   12.9962 H   0  0  0  0  0  0
   86.1556   58.1924   14.4511 H   0  0  0  0  0  0
   79.2765   64.3129   14.6175 H   0  0  0  0  0  0
   77.6631   64.6263   12.0988 H   0  0  0  0  0  0
   78.3474   65.9056   13.1579 H   0  0  0  0  0  0
   79.3539   65.3565   10.6986 H   0  0  0  0  0  0
   80.3747   65.9193   12.0653 H   0  0  0  0  0  0
   81.5234   63.8725   11.5771 H   0  0  0  0  0  0
   80.0332   63.0676   10.9786 H   0  0  0  0  0  0
   75.6554   60.4182   14.0461 H   0  0  0  0  0  0
   73.6121   61.5148   14.5659 H   0  0  0  0  0  0
   71.6758   61.4880   16.1105 H   0  0  0  0  0  0
   71.9631   62.2329   18.4614 H   0  0  0  0  0  0
   73.3210   63.0619   20.2103 H   0  0  0  0  0  0
   77.2648   63.1432   17.2097 H   0  0  0  0  0  0
   77.4857   63.8742   19.5657 H   0  0  0  0  0  0
   75.5113   63.8405   21.0691 H   0  0  0  0  0  0
  1  2  2  0  0  0
  2  3  1  0  0  0
  2 17  1  0  0  0
  3  4  1  0  0  0
  3 10  1  0  0  0
  3 37  1  0  0  0
  4  5  1  0  0  0
  4  9  1  0  0  0
  4 38  1  0  0  0
  5  6  1  0  0  0
  5 39  1  0  0  0
  5 40  1  0  0  0
  6  7  1  0  0  0
  6 41  1  0  0  0
  6 42  1  0  0  0
  7  8  1  0  0  0
  7 43  1  0  0  0
  7 44  1  0  0  0
  8  9  1  0  0  0
  8 45  1  0  0  0
  8 46  1  0  0  0
  9 47  1  0  0  0
  9 48  1  0  0  0
 10 11  1  0  0  0
 10 49  1  0  0  0
 11 12  2  0  0  0
 11 13  1  0  0  0
 13 14  1  0  0  0
 13 15  1  0  0  0
 13 50  1  0  0  0
 14 51  1  0  0  0
 14 52  1  0  0  0
 14 53  1  0  0  0
 15 16  1  0  0  0
 15 54  1  0  0  0
 15 55  1  0  0  0
 16 56  1  0  0  0
 16 57  1  0  0  0
 16 58  1  0  0  0
 17 18  1  0  0  0
 17 21  1  0  0  0
 18 19  1  0  0  0
 18 22  1  0  0  0
 18 59  1  0  0  0
 19 20  1  0  0  0
 19 60  1  0  0  0
 19 61  1  0  0  0
 20 21  1  0  0  0
 20 62  1  0  0  0
 20 63  1  0  0  0
 21 64  1  0  0  0
 21 65  1  0  0  0
 22 23  1  0  0  0
 22 26  2  0  0  0
 23 24  1  0  0  0
 24 25  2  0  0  0
 24 66  1  0  0  0
 25 26  1  0  0  0
 25 27  1  0  0  0
 27 28  2  0  0  0
 27 33  1  0  0  0
 28 29  1  0  0  0
 28 67  1  0  0  0
 29 30  2  0  0  0
 29 68  1  0  0  0
 30 31  1  0  0  0
 30 69  1  0  0  0
 31 32  1  0  0  0
 31 33  2  0  0  0
 32 36  2  0  0  0
 32 70  1  0  0  0
 33 34  1  0  0  0
 34 35  2  0  0  0
 34 71  1  0  0  0
 35 36  1  0  0  0
 35 72  1  0  0  0
 36 73  1  0  0  0
M  CHG  1  15   1
M  END
> <s_m_source_file>
../3gt9_ligand.sdf

> <i_m_source_file_index>
1

> <s_epik_input>
W0NIMl0xW0NIMl1bQ0gyXVtDSDJdW0NIMl1bQ0hdMVtDQEhdKFtOSF1DKD1PKVtDQEhdKFtDSDNdKVtOSDIrXVtDSDNdKUMoPU8pTjJbQ0BASF0oW0NIMl1bQ0gyXVtDSDJdMiljM3NbY0hdYyhuMyktYyhbY0hdW2NIXVtjSF00KWMoYzQ1KVtjSF1bY0hdW2NIXVtjSF01

> <s_epik_cmdline>
J2VwaWtfYXBwJywgJy1pbWFlJywgJ2xpZ2FuZF9wcm8ubWFlJywgJy1vbWFlJywgJ2xpZ2FuZF9wcmVwLm1hZScsICctbXMnLCAnMScsICctcGgnLCAnNycsICctcGh0JywgJzAuNScsICctbnQn

> <r_epik_Ionization_Penalty>
  0.0807

> <r_epik_Ionization_Penalty_Charging>
  0.0807

> <r_epik_Ionization_Penalty_Neutral>
  0.0000

> <r_epik_State_Penalty>
  0.0715

> <r_epik_Charging_Adjusted_Penalty>
0.152214310838881

> <i_epik_Tot_Q>
1

> <i_epik_Tot_abs_Q>
1

$$$$
