3gta_ligand
                    3D
 Schrodinger Suite 2020-3.
 73 77  0  0  1  0            999 V2000
   80.4330   61.7560   15.4270 O   0  0  0  0  0  0
   80.7700   62.1380   14.2930 C   0  0  0  0  0  0
   81.9750   61.3850   13.6660 C   0  0  2  0  0  0
   81.5290   60.2760   12.6670 C   0  0  0  0  0  0
   82.6820   59.6360   11.8340 C   0  0  0  0  0  0
   82.1550   58.5610   10.8560 C   0  0  0  0  0  0
   81.3870   57.4570   11.6180 C   0  0  0  0  0  0
   80.2200   58.0420   12.4460 C   0  0  0  0  0  0
   80.6940   59.1700   13.3930 C   0  0  0  0  0  0
   82.9150   60.8590   14.6790 N   0  0  0  0  0  0
   84.2370   61.0410   14.6090 C   0  0  0  0  0  0
   84.8010   61.5340   13.6320 O   0  0  0  0  0  0
   85.0630   60.5500   15.8170 C   0  0  2  0  0  0
   85.0360   61.5460   16.9970 C   0  0  0  0  0  0
   86.4270   60.1840   15.3400 N   0  3  0  0  0  0
   86.5950   58.9970   14.4650 C   0  0  0  0  0  0
   80.0850   63.1360   13.6710 N   0  0  0  0  0  0
   80.4050   63.7650   12.3760 C   0  0  0  0  0  0
   79.7530   65.1370   12.5130 C   0  0  0  0  0  0
   78.4790   64.8370   13.2980 C   0  0  0  0  0  0
   78.8720   63.7130   14.2760 C   0  0  1  0  0  0
   77.7280   62.7350   14.5760 C   0  0  0  0  0  0
   77.0680   62.7600   15.7460 N   0  0  0  0  0  0
   76.1040   61.7730   15.7620 C   0  0  0  0  0  0
   75.2040   61.4990   16.8200 C   0  0  0  0  0  0
   74.2910   60.4250   16.6210 C   0  0  0  0  0  0
   74.2730   59.6760   15.4400 C   0  0  0  0  0  0
   75.1600   59.9520   14.4060 C   0  0  0  0  0  0
   76.0830   61.0190   14.5860 C   0  0  0  0  0  0
   77.2660   61.5220   13.4440 S   0  0  0  0  0  0
   75.2100   62.2320   18.0220 C   0  0  0  0  0  0
   76.4280   62.5490   18.6860 C   0  0  0  0  0  0
   76.4440   63.2730   19.8790 C   0  0  0  0  0  0
   75.2470   63.6920   20.4500 C   0  0  0  0  0  0
   74.0380   63.3990   19.8310 C   0  0  0  0  0  0
   74.0100   62.6790   18.6360 C   0  0  0  0  0  0
   82.5758   62.1304   13.1243 H   0  0  0  0  0  0
   80.9000   60.8004   11.9326 H   0  0  0  0  0  0
   83.1885   60.4173   11.2483 H   0  0  0  0  0  0
   83.4048   59.1604   12.5132 H   0  0  0  0  0  0
   81.4754   59.0288   10.1285 H   0  0  0  0  0  0
   83.0017   58.1022   10.3244 H   0  0  0  0  0  0
   80.9738   56.7346   10.8987 H   0  0  0  0  0  0
   82.0736   56.9395   12.3041 H   0  0  0  0  0  0
   79.4612   58.4581   11.7670 H   0  0  0  0  0  0
   79.7686   57.2462   13.0567 H   0  0  0  0  0  0
   81.3060   58.7064   14.1807 H   0  0  0  0  0  0
   79.7985   59.6230   13.8434 H   0  0  0  0  0  0
   82.5342   60.2886   15.5390 H   0  0  0  0  0  0
   84.6408   59.6239   16.2342 H   0  0  0  0  0  0
   83.9929   61.7544   17.2771 H   0  0  0  0  0  0
   85.5294   62.4825   16.6977 H   0  0  0  0  0  0
   85.5665   61.1105   17.8566 H   0  0  0  0  0  0
   86.8465   61.0160   14.7554 H   0  0  0  0  0  0
   87.0754   59.9800   16.2048 H   0  0  0  0  0  0
   87.6584   58.8764   14.2109 H   0  0  0  0  0  0
   86.0111   59.1355   13.5431 H   0  0  0  0  0  0
   86.2400   58.0994   14.9926 H   0  0  0  0  0  0
   81.4969   63.8191   12.2546 H   0  0  0  0  0  0
   79.9747   63.1650   11.5606 H   0  0  0  0  0  0
   80.4321   65.8134   13.0528 H   0  0  0  0  0  0
   79.5463   65.5462   11.5131 H   0  0  0  0  0  0
   78.1538   65.7435   13.8294 H   0  0  0  0  0  0
   77.6882   64.5149   12.6045 H   0  0  0  0  0  0
   79.1281   64.0537   15.2901 H   0  0  0  0  0  0
   73.5842   60.1788   17.4134 H   0  0  0  0  0  0
   73.5536   58.8647   15.3289 H   0  0  0  0  0  0
   75.1485   59.3685   13.4854 H   0  0  0  0  0  0
   77.3717   62.2182   18.2522 H   0  0  0  0  0  0
   77.3921   63.5095   20.3620 H   0  0  0  0  0  0
   75.2573   64.2516   21.3853 H   0  0  0  0  0  0
   73.1042   63.7342   20.2824 H   0  0  0  0  0  0
   73.0519   62.4561   18.1664 H   0  0  0  0  0  0
  1  2  2  0  0  0
  2  3  1  0  0  0
  2 17  1  0  0  0
  3  4  1  0  0  0
  3 10  1  0  0  0
  3 37  1  0  0  0
  4  5  1  0  0  0
  4  9  1  0  0  0
  4 38  1  0  0  0
  5  6  1  0  0  0
  5 39  1  0  0  0
  5 40  1  0  0  0
  6  7  1  0  0  0
  6 41  1  0  0  0
  6 42  1  0  0  0
  7  8  1  0  0  0
  7 43  1  0  0  0
  7 44  1  0  0  0
  8  9  1  0  0  0
  8 45  1  0  0  0
  8 46  1  0  0  0
  9 47  1  0  0  0
  9 48  1  0  0  0
 10 11  1  0  0  0
 10 49  1  0  0  0
 11 12  2  0  0  0
 11 13  1  0  0  0
 13 14  1  0  0  0
 13 15  1  0  0  0
 13 50  1  0  0  0
 14 51  1  0  0  0
 14 52  1  0  0  0
 14 53  1  0  0  0
 15 16  1  0  0  0
 15 54  1  0  0  0
 15 55  1  0  0  0
 16 56  1  0  0  0
 16 57  1  0  0  0
 16 58  1  0  0  0
 17 18  1  0  0  0
 17 21  1  0  0  0
 18 19  1  0  0  0
 18 59  1  0  0  0
 18 60  1  0  0  0
 19 20  1  0  0  0
 19 61  1  0  0  0
 19 62  1  0  0  0
 20 21  1  0  0  0
 20 63  1  0  0  0
 20 64  1  0  0  0
 21 22  1  0  0  0
 21 65  1  0  0  0
 22 23  2  0  0  0
 22 30  1  0  0  0
 23 24  1  0  0  0
 24 25  2  0  0  0
 24 29  1  0  0  0
 25 26  1  0  0  0
 25 31  1  0  0  0
 26 27  2  0  0  0
 26 66  1  0  0  0
 27 28  1  0  0  0
 27 67  1  0  0  0
 28 29  2  0  0  0
 28 68  1  0  0  0
 29 30  1  0  0  0
 31 32  2  0  0  0
 31 36  1  0  0  0
 32 33  1  0  0  0
 32 69  1  0  0  0
 33 34  2  0  0  0
 33 70  1  0  0  0
 34 35  1  0  0  0
 34 71  1  0  0  0
 35 36  2  0  0  0
 35 72  1  0  0  0
 36 73  1  0  0  0
M  CHG  1  15   1
M  END
> <s_m_source_file>
../3gta_ligand.sdf

> <i_m_source_file_index>
1

> <s_epik_input>
W0NIMl0xW0NIMl1bQ0gyXVtDSDJdW0NIMl1bQ0hdMVtDQEhdKFtOSF1DKD1PKVtDQEhdKFtDSDNdKVtOSDIrXVtDSDNdKUMoPU8pTjJbQ0gyXVtDSDJdW0NIMl1bQ0BIXTJjKG4zKXNjKGMzNClbY0hdW2NIXVtjSF1jNC1jNVtjSF1bY0hdW2NIXVtjSF1bY0hdNQ==

> <s_epik_cmdline>
J2VwaWtfYXBwJywgJy1pbWFlJywgJ2xpZ2FuZF9wcm8ubWFlJywgJy1vbWFlJywgJ2xpZ2FuZF9wcmVwLm1hZScsICctbXMnLCAnMScsICctcGgnLCAnNycsICctcGh0JywgJzAuNScsICctbnQn

> <r_epik_Ionization_Penalty>
  0.0807

> <r_epik_Ionization_Penalty_Charging>
  0.0807

> <r_epik_Ionization_Penalty_Neutral>
  0.0000

> <r_epik_State_Penalty>
  0.0715

> <r_epik_Charging_Adjusted_Penalty>
0.152214310838881

> <i_epik_Tot_Q>
1

> <i_epik_Tot_abs_Q>
1

$$$$
