3gur_ligand
                    3D
 Schrodinger Suite 2020-3.
 70 71  0  0  1  0            999 V2000
   12.0480   -2.6040   11.0020 C   0  0  0  0  0  0
   11.7360   -2.2090   13.3580 N   0  3  0  0  0  0
    5.1230   -8.6280   13.7100 S   0  0  0  0  0  0
   10.4640   -9.6260   13.3060 C   0  0  0  0  0  0
   10.7670   -7.2260   12.9830 N   0  0  0  0  0  0
    9.6590  -10.7750   13.1720 O   0  0  0  0  0  0
   13.2500  -11.4470   14.2170 C   0  0  0  0  0  0
   11.7920   -9.6740   13.3650 N   0  0  0  0  0  0
    4.7470   -4.9620   14.5870 C   0  0  0  0  0  0
    5.4940   -6.2490   14.5960 C   0  0  0  0  0  0
   11.5610   -1.4820   10.7450 O   0  0  0  0  0  0
   12.1280   -3.4560   10.0910 O   0  5  0  0  0  0
   13.1120  -10.9330   15.3480 O   0  0  0  0  0  0
   14.0010  -12.4390   14.0910 O   0  5  0  0  0  0
   12.5320   -2.9300   12.3840 C   0  0  1  0  0  0
    4.6990   -4.5580   15.8590 N   0  0  0  0  0  0
    9.8400   -8.2640   13.3900 C   0  0  1  0  0  0
    5.3260   -5.5430   16.6410 O   0  0  0  0  0  0
   12.5220  -10.8790   13.0230 C   0  0  0  0  0  0
    5.8080   -6.6080   15.8470 N   0  0  0  0  0  0
    3.3150   -2.9430   11.6710 O   0  5  0  0  0  0
    3.6430   -3.2290   12.9530 N   0  3  0  0  0  0
    3.2180   -2.2530   13.8040 O   0  0  0  0  0  0
   10.7660   -8.8840   16.9720 O   0  0  0  0  0  0
   12.3980   -4.4290   12.6280 C   0  0  0  0  0  0
    8.5940   -8.2220   12.5140 C   0  0  0  0  0  0
   10.8770   -6.0880   13.6630 C   0  0  0  0  0  0
    9.4180   -9.0540   16.5210 C   0  0  0  0  0  0
   10.9330   -6.0360   15.0710 O   0  0  0  0  0  0
    8.7310  -10.1340   17.3620 C   0  0  0  0  0  0
    8.3050  -11.3860   16.6210 C   0  0  0  0  0  0
    7.0130  -11.0710   15.9180 C   0  0  0  0  0  0
    6.9590   -9.6000   15.5050 C   0  0  0  0  0  0
    5.5450   -9.0240   15.3710 C   0  0  0  0  0  0
    5.8360   -7.0760   13.3810 C   0  0  2  0  0  0
    5.2550   -6.4130   12.2310 C   0  0  0  0  0  0
    4.6040   -5.1750   12.2400 C   0  0  0  0  0  0
    4.2960   -4.3920   13.2940 C   0  5  0  0  0  0
   10.9410   -4.8190   12.8460 C   0  0  0  0  0  0
    7.4430   -6.8930   12.9050 S   0  0  0  0  0  0
   11.8326   -1.1275   13.1821 H   0  0  0  0  0  0
   12.0908   -2.4488   14.3712 H   0  0  0  0  0  0
   10.6808   -2.5037   13.2596 H   0  0  0  0  0  0
   11.3988   -7.3705   12.0942 H   0  0  0  0  0  0
   12.3366   -8.7723   13.6819 H   0  0  0  0  0  0
   13.5734   -2.5971   12.5048 H   0  0  0  0  0  0
    9.6052   -8.0469   14.4425 H   0  0  0  0  0  0
   13.2479  -10.6324   12.2342 H   0  0  0  0  0  0
   11.8056  -11.6221   12.6427 H   0  0  0  0  0  0
   11.4202   -8.1462   16.4844 H   0  0  0  0  0  0
   12.7834   -4.9783   11.7564 H   0  0  0  0  0  0
   12.9753   -4.7081   13.5218 H   0  0  0  0  0  0
    8.8892   -8.0877   11.4629 H   0  0  0  0  0  0
    8.0384   -9.1653   12.6212 H   0  0  0  0  0  0
    8.8732   -8.1043   16.6275 H   0  0  0  0  0  0
    9.4206   -9.3586   15.4640 H   0  0  0  0  0  0
    9.4132  -10.4685   18.1575 H   0  0  0  0  0  0
    7.8165   -9.7212   17.8128 H   0  0  0  0  0  0
    9.0824  -11.6643   15.8942 H   0  0  0  0  0  0
    8.1638  -12.2071   17.3393 H   0  0  0  0  0  0
    6.9250  -11.6943   15.0159 H   0  0  0  0  0  0
    6.1687  -11.2796   16.5915 H   0  0  0  0  0  0
    7.4814   -8.9890   16.2558 H   0  0  0  0  0  0
    7.4470   -9.4756   14.5271 H   0  0  0  0  0  0
    5.4930   -8.1155   15.9891 H   0  0  0  0  0  0
    4.8395   -9.7730   15.7600 H   0  0  0  0  0  0
    5.3604   -6.9721   11.2896 H   0  0  0  0  0  0
    4.2716   -4.7215   11.2946 H   0  0  0  0  0  0
   10.4214   -4.0110   13.3819 H   0  0  0  0  0  0
   10.4561   -4.9844   11.8726 H   0  0  0  0  0  0
  1 11  2  0  0  0
  1 12  1  0  0  0
  1 15  1  0  0  0
  2 15  1  0  0  0
  2 41  1  0  0  0
  2 42  1  0  0  0
  2 43  1  0  0  0
  3 34  1  0  0  0
  3 35  1  0  0  0
  4  6  2  0  0  0
  4  8  1  0  0  0
  4 17  1  0  0  0
  5 17  1  0  0  0
  5 27  1  0  0  0
  5 44  1  0  0  0
  7 13  2  0  0  0
  7 14  1  0  0  0
  7 19  1  0  0  0
  8 19  1  0  0  0
  8 45  1  0  0  0
  9 10  1  0  0  0
  9 16  2  0  0  0
  9 38  1  0  0  0
 10 20  2  0  0  0
 10 35  1  0  0  0
 15 25  1  0  0  0
 15 46  1  0  0  0
 16 18  1  0  0  0
 17 26  1  0  0  0
 17 47  1  0  0  0
 18 20  1  0  0  0
 19 48  1  0  0  0
 19 49  1  0  0  0
 21 22  1  0  0  0
 22 23  2  0  0  0
 22 38  1  0  0  0
 24 28  1  0  0  0
 24 50  1  0  0  0
 25 39  1  0  0  0
 25 51  1  0  0  0
 25 52  1  0  0  0
 26 40  1  0  0  0
 26 53  1  0  0  0
 26 54  1  0  0  0
 27 29  2  0  0  0
 27 39  1  0  0  0
 28 30  1  0  0  0
 28 55  1  0  0  0
 28 56  1  0  0  0
 30 31  1  0  0  0
 30 57  1  0  0  0
 30 58  1  0  0  0
 31 32  1  0  0  0
 31 59  1  0  0  0
 31 60  1  0  0  0
 32 33  1  0  0  0
 32 61  1  0  0  0
 32 62  1  0  0  0
 33 34  1  0  0  0
 33 63  1  0  0  0
 33 64  1  0  0  0
 34 65  1  0  0  0
 34 66  1  0  0  0
 35 36  1  0  0  0
 35 40  1  0  0  0
 36 37  2  0  0  0
 36 67  1  0  0  0
 37 38  1  0  0  0
 37 68  1  0  0  0
 39 69  1  0  0  0
 39 70  1  0  0  0
M  CHG  6   2   1  12  -1  14  -1  21  -1  22   1  38  -1
M  END
> <s_m_source_file>
../3gur_ligand.sdf

> <i_m_source_file_index>
1

> <s_epik_input>
Tz1DKFtPSF0pW0NAQEhdKFtOSDMrXSlbQ0gyXVtDSDJdQyg9TylbTkhdW0NASF0oQyg9TylbTkhdW0NIMl1DKD1PKVtPSF0pW0NIMl1TW0NAQF0oYyhjMTIpbm9uMSkoW0NIXT1bQ0hdW0NIXTJbTitdKFtPLV0pPU8pU1tDSDJdW0NIMl1bQ0gyXVtDSDJdW0NIMl1bQ0gyXVtPSF0=

> <s_epik_cmdline>
J2VwaWtfYXBwJywgJy1pbWFlJywgJ2xpZ2FuZF9wcm8ubWFlJywgJy1vbWFlJywgJ2xpZ2FuZF9wcmVwLm1hZScsICctbXMnLCAnMScsICctcGgnLCAnNycsICctcGh0JywgJzAuNScsICctbnQn

> <r_lp_tautomer_probability>
1

> <r_epik_Ionization_Penalty>
  0.0027

> <r_epik_Ionization_Penalty_Charging>
  0.0027

> <r_epik_Ionization_Penalty_Neutral>
  0.0000

> <r_epik_State_Penalty>
 -0.0000

> <r_epik_Charging_Adjusted_Penalty>
0.00266267576892803

> <i_epik_Tot_Q>
-2

> <i_epik_Tot_abs_Q>
6

$$$$
