3gus_ligand
                    3D
 Schrodinger Suite 2020-3.
 35 36  0  0  1  0            999 V2000
    1.9180    6.1580   32.8910 O   0  0  0  0  0  0
    2.4840    5.1660   32.0260 C   0  0  0  0  0  0
    3.9230    5.5470   31.6970 C   0  0  0  0  0  0
    4.5510    4.5520   30.7290 C   0  0  0  0  0  0
    5.5370    3.6440   31.4530 C   0  0  0  0  0  0
    6.5650    3.0720   30.4850 C   0  0  0  0  0  0
    6.3030    1.5950   30.2080 C   0  0  0  0  0  0
    7.5060    0.9370   29.0960 S   0  0  0  0  0  0
    7.6960    1.8900   27.7030 C   0  0  0  0  0  0
    6.5560    2.6660   27.1260 C   0  0  0  0  0  0
    5.2580    2.8150   27.4830 N   0  0  0  0  0  0
    4.7190    3.7060   26.5020 O   0  0  0  0  0  0
    5.6770    4.1200   25.5270 N   0  0  0  0  0  0
    6.8150    3.4890   25.9030 C   0  0  0  0  0  0
    8.9470    1.9380   27.0910 C   0  0  0  0  0  0
    9.1770    2.6950   25.9390 C   0  0  0  0  0  0
    8.1850    3.4670   25.3270 C   0  0  0  0  0  0
    8.4670    4.2280   24.1820 N   0  3  0  0  0  0
    7.4850    5.0590   23.6390 O   0  0  0  0  0  0
    9.7300    4.1720   23.5950 O   0  5  0  0  0  0
    0.8797    6.0559   33.2397 H   0  0  0  0  0  0
    2.4677    4.1881   32.5295 H   0  0  0  0  0  0
    1.8962    5.1103   31.0979 H   0  0  0  0  0  0
    3.9415    6.5448   31.2344 H   0  0  0  0  0  0
    4.5193    5.5603   32.6213 H   0  0  0  0  0  0
    3.7625    3.9318   30.2778 H   0  0  0  0  0  0
    5.0859    5.0978   29.9378 H   0  0  0  0  0  0
    6.0644    4.2195   32.2280 H   0  0  0  0  0  0
    4.9924    2.8111   31.9217 H   0  0  0  0  0  0
    6.5170    3.6206   29.5328 H   0  0  0  0  0  0
    7.5716    3.1740   30.9166 H   0  0  0  0  0  0
    6.3490    1.0312   31.1514 H   0  0  0  0  0  0
    5.3058    1.4774   29.7589 H   0  0  0  0  0  0
    9.7699    1.3687   27.5233 H   0  0  0  0  0  0
   10.1738    2.6830   25.4982 H   0  0  0  0  0  0
  1  2  1  0  0  0
  1 21  1  0  0  0
  2  3  1  0  0  0
  2 22  1  0  0  0
  2 23  1  0  0  0
  3  4  1  0  0  0
  3 24  1  0  0  0
  3 25  1  0  0  0
  4  5  1  0  0  0
  4 26  1  0  0  0
  4 27  1  0  0  0
  5  6  1  0  0  0
  5 28  1  0  0  0
  5 29  1  0  0  0
  6  7  1  0  0  0
  6 30  1  0  0  0
  6 31  1  0  0  0
  7  8  1  0  0  0
  7 32  1  0  0  0
  7 33  1  0  0  0
  8  9  1  0  0  0
  9 10  1  0  0  0
  9 15  2  0  0  0
 10 11  2  0  0  0
 10 14  1  0  0  0
 11 12  1  0  0  0
 12 13  1  0  0  0
 13 14  2  0  0  0
 14 17  1  0  0  0
 15 16  1  0  0  0
 15 34  1  0  0  0
 16 17  2  0  0  0
 16 35  1  0  0  0
 17 18  1  0  0  0
 18 19  2  0  0  0
 18 20  1  0  0  0
M  CHG  2  18   1  20  -1
M  END
> <s_m_source_file>
../3gus_ligand.sdf

> <i_m_source_file_index>
1

> <s_epik_input>
W09IXVtDSDJdW0NIMl1bQ0gyXVtDSDJdW0NIMl1bQ0gyXVNjMVtjSF1bY0hdYyhbTitdKD1PKVtPLV0pYyhjMTIpbm9uMg==

> <s_epik_cmdline>
J2VwaWtfYXBwJywgJy1pbWFlJywgJ2xpZ2FuZF9wcm8ubWFlJywgJy1vbWFlJywgJ2xpZ2FuZF9wcmVwLm1hZScsICctbXMnLCAnMScsICctcGgnLCAnNycsICctcGh0JywgJzAuNScsICctbnQn

> <r_lp_tautomer_probability>
1

> <r_epik_Ionization_Penalty>
  0.0000

> <r_epik_Ionization_Penalty_Charging>
  0.0000

> <r_epik_Ionization_Penalty_Neutral>
  0.0000

> <r_epik_State_Penalty>
 -0.0000

> <r_epik_Charging_Adjusted_Penalty>
0

> <i_epik_Tot_Q>
0

> <i_epik_Tot_abs_Q>
2

$$$$
