3guz_ligand
                    3D
 Schrodinger Suite 2020-3.
 21 20  0  0  1  0            999 V2000
   10.7970  -12.2620    0.3240 O   0  0  0  0  0  0
   10.2210  -11.9000   -0.7230 C   0  0  0  0  0  0
    9.0580  -11.4290   -0.8090 O   0  5  0  0  0  0
   11.0630  -11.9320   -1.9960 C   0  0  2  0  0  0
   10.8930  -10.6780   -2.6850 O   0  0  0  0  0  0
   10.7810  -13.1240   -2.9290 C   0  0  0  0  0  0
   11.0140  -14.4470   -2.1540 C   0  0  0  0  0  0
    9.3140  -13.0570   -3.5090 C   0  0  0  0  0  0
   11.7240  -13.0270   -4.1610 C   0  0  0  0  0  0
   13.1430  -12.9540   -3.8010 O   0  0  0  0  0  0
   12.1224  -12.0090   -1.7103 H   0  0  0  0  0  0
   11.0590   -9.7304   -2.1516 H   0  0  0  0  0  0
   10.3355  -14.4897   -1.2892 H   0  0  0  0  0  0
   12.0562  -14.4886   -1.8047 H   0  0  0  0  0  0
   10.8155  -15.3009   -2.8184 H   0  0  0  0  0  0
    8.5900  -13.1210   -2.6833 H   0  0  0  0  0  0
    9.1550  -13.8964   -4.2020 H   0  0  0  0  0  0
    9.1750  -12.1070   -4.0458 H   0  0  0  0  0  0
   11.5889  -13.9144   -4.7969 H   0  0  0  0  0  0
   11.4818  -12.1223   -4.7379 H   0  0  0  0  0  0
   13.9073  -12.8823   -4.5888 H   0  0  0  0  0  0
  1  2  2  0  0  0
  2  3  1  0  0  0
  2  4  1  0  0  0
  4  5  1  0  0  0
  4  6  1  0  0  0
  4 11  1  0  0  0
  5 12  1  0  0  0
  6  7  1  0  0  0
  6  8  1  0  0  0
  6  9  1  0  0  0
  7 13  1  0  0  0
  7 14  1  0  0  0
  7 15  1  0  0  0
  8 16  1  0  0  0
  8 17  1  0  0  0
  8 18  1  0  0  0
  9 10  1  0  0  0
  9 19  1  0  0  0
  9 20  1  0  0  0
 10 21  1  0  0  0
M  CHG  1   3  -1
M  END
> <s_m_source_file>
../3guz_ligand.sdf

> <i_m_source_file_index>
1

> <s_epik_input>
Tz1DKFtPSF0pW0NASF0oW09IXSlDKFtDSDNdKShbQ0gzXSlbQ0gyXVtPSF0=

> <s_epik_cmdline>
J2VwaWtfYXBwJywgJy1pbWFlJywgJ2xpZ2FuZF9wcm8ubWFlJywgJy1vbWFlJywgJ2xpZ2FuZF9wcmVwLm1hZScsICctbXMnLCAnMScsICctcGgnLCAnNycsICctcGh0JywgJzAuNScsICctbnQn

> <r_lp_tautomer_probability>
1

> <r_epik_Ionization_Penalty>
  0.0004

> <r_epik_Ionization_Penalty_Charging>
  0.0004

> <r_epik_Ionization_Penalty_Neutral>
  0.0000

> <r_epik_State_Penalty>
 -0.0000

> <r_epik_Charging_Adjusted_Penalty>
0.000403673375741066

> <i_epik_Tot_Q>
-1

> <i_epik_Tot_abs_Q>
1

$$$$
