3gvb_ligand
                    3D
 Schrodinger Suite 2020-3.
 26 27  0  0  1  0            999 V2000
   10.6950   45.9040   27.6200 O   0  0  0  0  0  0
   11.6200   45.6950   26.8510 C   0  0  0  0  0  0
   11.6820   46.2100   25.4390 C   0  0  0  0  0  0
   12.7120   44.9870   27.0890 N   0  0  0  0  0  0
   13.6140   44.7690   25.9690 C   0  0  0  0  0  0
   12.8010   45.3730   24.8190 C   0  0  1  0  0  0
   12.2160   44.2710   23.9810 C   0  0  0  0  0  0
   11.0200   43.9420   24.1510 O   0  5  0  0  0  0
   12.9500   43.7150   23.1350 O   0  0  0  0  0  0
   12.9990   44.4750   28.3680 C   0  0  0  0  0  0
   13.0000   43.1020   28.6060 C   0  0  0  0  0  0
   12.7250   42.2200   27.6050 O   0  0  0  0  0  0
   13.2900   42.6120   29.8790 C   0  0  0  0  0  0
   13.5740   43.4910   30.9220 C   0  0  0  0  0  0
   13.5730   44.8650   30.6890 C   0  0  0  0  0  0
   13.2880   45.3550   29.4140 C   0  0  0  0  0  0
   10.7111   46.0498   24.9473 H   0  0  0  0  0  0
   11.9141   47.2852   25.4507 H   0  0  0  0  0  0
   14.5643   45.2903   26.1567 H   0  0  0  0  0  0
   13.8033   43.6914   25.8550 H   0  0  0  0  0  0
   13.4313   45.9878   24.1597 H   0  0  0  0  0  0
   12.4941   42.5890   26.5948 H   0  0  0  0  0  0
   13.2945   41.5369   30.0588 H   0  0  0  0  0  0
   13.7962   43.1053   31.9170 H   0  0  0  0  0  0
   13.7947   45.5563   31.5021 H   0  0  0  0  0  0
   13.2908   46.4299   29.2331 H   0  0  0  0  0  0
  1  2  2  0  0  0
  2  3  1  0  0  0
  2  4  1  0  0  0
  3  6  1  0  0  0
  3 17  1  0  0  0
  3 18  1  0  0  0
  4  5  1  0  0  0
  4 10  1  0  0  0
  5  6  1  0  0  0
  5 19  1  0  0  0
  5 20  1  0  0  0
  6  7  1  0  0  0
  6 21  1  0  0  0
  7  8  1  0  0  0
  7  9  2  0  0  0
 10 11  2  0  0  0
 10 16  1  0  0  0
 11 12  1  0  0  0
 11 13  1  0  0  0
 12 22  1  0  0  0
 13 14  2  0  0  0
 13 23  1  0  0  0
 14 15  1  0  0  0
 14 24  1  0  0  0
 15 16  2  0  0  0
 15 25  1  0  0  0
 16 26  1  0  0  0
M  CHG  1   8  -1
M  END
> <s_m_source_file>
../3gvb_ligand.sdf

> <i_m_source_file_index>
1

> <s_epik_input>
Tz1DMVtDSDJdW0NASF0oQyg9TylbT0hdKVtDSDJdTjFjMmMoW09IXSlbY0hdW2NIXVtjSF1bY0hdMg==

> <s_epik_cmdline>
J2VwaWtfYXBwJywgJy1pbWFlJywgJ2xpZ2FuZF9wcm8ubWFlJywgJy1vbWFlJywgJ2xpZ2FuZF9wcmVwLm1hZScsICctbXMnLCAnMScsICctcGgnLCAnNycsICctcGh0JywgJzAuNScsICctbnQn

> <r_lp_tautomer_probability>
1

> <r_epik_Ionization_Penalty>
  0.0045

> <r_epik_Ionization_Penalty_Charging>
  0.0035

> <r_epik_Ionization_Penalty_Neutral>
  0.0010

> <r_epik_State_Penalty>
 -0.0000

> <r_epik_Charging_Adjusted_Penalty>
0.00347773073204076

> <i_epik_Tot_Q>
-1

> <i_epik_Tot_abs_Q>
1

$$$$
