3gvu_ligand
                    3D
 Schrodinger Suite 2020-3.
 69 73  0  0  1  0            999 V2000
    6.5740    7.6540   23.3390 C   0  0  0  0  0  0
    7.4130    8.3860   22.5000 C   0  0  0  0  0  0
    8.4740    7.7180   21.8660 C   0  0  0  0  0  0
    8.6330    6.3510   22.1020 C   0  0  0  0  0  0
    7.8150    5.6800   22.9090 N   0  0  0  0  0  0
    6.8080    6.2840   23.5180 C   0  0  0  0  0  0
    9.3520    8.3900   21.0090 C   0  0  0  0  0  0
    9.1360    9.7250   20.6710 C   0  0  0  0  0  0
   10.0430   10.3330   19.8050 C   0  0  0  0  0  0
   11.0820    9.6760   19.3270 N   0  0  0  0  0  0
   11.2910    8.4030   19.6710 C   0  0  0  0  0  0
   10.4260    7.7590   20.4800 N   0  0  0  0  0  0
   12.3370    7.7430   19.1900 N   0  0  0  0  0  0
   13.1720    8.2180   18.2450 C   0  0  0  0  0  0
   12.8640    8.1260   16.9010 C   0  0  0  0  0  0
   13.7850    8.5730   15.9640 C   0  0  0  0  0  0
   14.9980    9.0950   16.3390 C   0  0  0  0  0  0
   15.3370    9.1920   17.6800 C   0  0  0  0  0  0
   14.4110    8.7260   18.6160 C   0  0  0  0  0  0
   16.5710    9.6630   17.9920 N   0  0  0  0  0  0
   17.0770    9.8360   19.2270 C   0  0  0  0  0  0
   18.5640   10.2230   19.2890 C   0  0  0  0  0  0
   19.2470   10.8230   18.2380 C   0  0  0  0  0  0
   20.5980   11.1530   18.3750 C   0  0  0  0  0  0
   21.2810   10.8870   19.5570 C   0  0  0  0  0  0
   20.5900   10.2840   20.5790 C   0  0  0  0  0  0
   19.2470    9.9610   20.4560 C   0  0  0  0  0  0
   22.7850   11.2550   19.7710 C   0  0  0  0  0  0
   23.0820   12.6190   19.2840 N   0  3  1  0  0  0
   22.2630   13.5090   20.0220 C   0  0  0  0  0  0
   22.5130   14.8940   19.4090 C   0  0  0  0  0  0
   23.9200   15.3340   19.5840 N   0  0  2  0  0  0
   24.2840   16.4960   18.7780 C   0  0  0  0  0  0
   24.7180   14.3030   18.8430 C   0  0  0  0  0  0
   24.4870   12.8940   19.4590 C   0  0  0  0  0  0
   16.4480    9.7480   20.2870 O   0  0  0  0  0  0
   11.5170    7.5620   16.4330 C   0  0  0  0  0  0
    5.7445    8.1423   23.8505 H   0  0  0  0  0  0
    7.2496    9.4517   22.3397 H   0  0  0  0  0  0
    9.4488    5.8194   21.6122 H   0  0  0  0  0  0
    6.1505    5.7075   24.1687 H   0  0  0  0  0  0
    8.2848   10.2758   21.0713 H   0  0  0  0  0  0
    9.8906   11.3731   19.5167 H   0  0  0  0  0  0
   12.5710    6.7353   19.5640 H   0  0  0  0  0  0
   13.5391    8.5080   14.9041 H   0  0  0  0  0  0
   15.6995    9.4356   15.5774 H   0  0  0  0  0  0
   14.6692    8.7621   19.6744 H   0  0  0  0  0  0
   17.2697    9.9475   17.1915 H   0  0  0  0  0  0
   18.7274   11.0369   17.3040 H   0  0  0  0  0  0
   21.1233   11.6250   17.5447 H   0  0  0  0  0  0
   21.1095   10.0537   21.5092 H   0  0  0  0  0  0
   18.7261    9.4946   21.2922 H   0  0  0  0  0  0
   23.0250   11.2076   20.8434 H   0  0  0  0  0  0
   23.4185   10.5430   19.2217 H   0  0  0  0  0  0
   22.8617   12.7707   18.2170 H   0  0  0  0  0  0
   21.2100   13.2076   19.9208 H   0  0  0  0  0  0
   22.5525   13.4795   21.0828 H   0  0  0  0  0  0
   22.2944   14.8629   18.3314 H   0  0  0  0  0  0
   21.8591   15.6334   19.8945 H   0  0  0  0  0  0
   23.7809   17.3899   19.1753 H   0  0  0  0  0  0
   23.9716   16.3319   17.7361 H   0  0  0  0  0  0
   25.3737   16.6414   18.8155 H   0  0  0  0  0  0
   24.4079   14.2881   17.7877 H   0  0  0  0  0  0
   25.7877   14.5514   18.9073 H   0  0  0  0  0  0
   24.7325   12.8804   20.5312 H   0  0  0  0  0  0
   25.0785   12.1270   18.9376 H   0  0  0  0  0  0
   10.9221    7.2601   17.3076 H   0  0  0  0  0  0
   11.6897    6.6881   15.7877 H   0  0  0  0  0  0
   10.9730    8.3332   15.8680 H   0  0  0  0  0  0
  1  2  2  0  0  0
  1  6  1  0  0  0
  1 38  1  0  0  0
  2  3  1  0  0  0
  2 39  1  0  0  0
  3  4  2  0  0  0
  3  7  1  0  0  0
  4  5  1  0  0  0
  4 40  1  0  0  0
  5  6  2  0  0  0
  6 41  1  0  0  0
  7  8  2  0  0  0
  7 12  1  0  0  0
  8  9  1  0  0  0
  8 42  1  0  0  0
  9 10  2  0  0  0
  9 43  1  0  0  0
 10 11  1  0  0  0
 11 12  2  0  0  0
 11 13  1  0  0  0
 13 14  1  0  0  0
 13 44  1  0  0  0
 14 15  2  0  0  0
 14 19  1  0  0  0
 15 16  1  0  0  0
 15 37  1  0  0  0
 16 17  2  0  0  0
 16 45  1  0  0  0
 17 18  1  0  0  0
 17 46  1  0  0  0
 18 19  2  0  0  0
 18 20  1  0  0  0
 19 47  1  0  0  0
 20 21  1  0  0  0
 20 48  1  0  0  0
 21 22  1  0  0  0
 21 36  2  0  0  0
 22 23  2  0  0  0
 22 27  1  0  0  0
 23 24  1  0  0  0
 23 49  1  0  0  0
 24 25  2  0  0  0
 24 50  1  0  0  0
 25 26  1  0  0  0
 25 28  1  0  0  0
 26 27  2  0  0  0
 26 51  1  0  0  0
 27 52  1  0  0  0
 28 29  1  0  0  0
 28 53  1  0  0  0
 28 54  1  0  0  0
 29 30  1  0  0  0
 29 35  1  0  0  0
 29 55  1  0  0  0
 30 31  1  0  0  0
 30 56  1  0  0  0
 30 57  1  0  0  0
 31 32  1  0  0  0
 31 58  1  0  0  0
 31 59  1  0  0  0
 32 33  1  0  0  0
 32 34  1  0  0  0
 33 60  1  0  0  0
 33 61  1  0  0  0
 33 62  1  0  0  0
 34 35  1  0  0  0
 34 63  1  0  0  0
 34 64  1  0  0  0
 35 65  1  0  0  0
 35 66  1  0  0  0
 37 67  1  0  0  0
 37 68  1  0  0  0
 37 69  1  0  0  0
M  CHG  1  29   1
M  END
> <s_m_source_file>
../3gvu_ligand.sdf

> <i_m_source_file_index>
1

> <s_epik_input>
W2NIXTFuW2NIXVtjSF1bY0hdYzEtYzJbY0hdW2NIXW5jKG4yKVtOSF1jM2MoW0NIM10pW2NIXVtjSF1jKFtjSF0zKVtOSF1DKD1PKWM0W2NIXVtjSF1jKFtjSF1bY0hdNClbQ0gyXVtOQEgrXTVbQ0gyXVtDSDJdW05ASCtdKFtDSDNdKVtDSDJdW0NIMl01

> <s_epik_cmdline>
J2VwaWtfYXBwJywgJy1pbWFlJywgJ2xpZ2FuZF9wcm8ubWFlJywgJy1vbWFlJywgJ2xpZ2FuZF9wcmVwLm1hZScsICctbXMnLCAnMScsICctcGgnLCAnNycsICctcGh0JywgJzAuNScsICctbnQn

> <r_lp_tautomer_probability>
1

> <r_epik_Ionization_Penalty>
  0.0173

> <r_epik_Ionization_Penalty_Charging>
  0.0155

> <r_epik_Ionization_Penalty_Neutral>
  0.0019

> <r_epik_State_Penalty>
 -0.0000

> <r_epik_Charging_Adjusted_Penalty>
0.0154526225118262

> <i_epik_Tot_Q>
1

> <i_epik_Tot_abs_Q>
1

$$$$
