3gw5_ligand
                    3D
 Schrodinger Suite 2020-3.
 82 84  0  0  1  0            999 V2000
   29.0520   -7.7360  -14.5800 C   0  0  1  0  0  0
   28.3380   -7.4420  -15.8020 O   0  0  0  0  0  0
   30.5570   -8.0720  -14.9200 C   0  0  0  0  0  0
   31.2010   -8.0810  -16.2280 C   0  0  0  0  0  0
   31.3830   -8.4210  -13.6600 C   0  0  0  0  0  0
   32.6220   -8.4200  -16.3310 C   0  0  0  0  0  0
   32.7770   -8.7520  -13.8130 C   0  0  0  0  0  0
   33.4000   -8.7530  -15.1410 C   0  0  0  0  0  0
   28.9810   -6.4490  -13.6720 C   0  0  0  0  0  0
   29.6150   -5.1110  -14.1530 C   0  0  0  0  0  0
   29.5150   -3.9070  -13.1820 C   0  0  0  0  0  0
   28.0770   -3.4730  -12.8320 C   0  0  0  0  0  0
   27.3650   -3.1910  -14.0050 O   0  0  0  0  0  0
   26.0340   -2.8060  -13.7510 C   0  0  0  0  0  0
   26.5300   -8.8260   -9.1820 C   0  0  2  0  0  0
   25.1140   -8.3550   -8.7230 C   0  0  0  0  0  0
   27.6640   -7.8160   -8.8540 C   0  0  0  0  0  0
   25.0300   -8.1250   -7.2700 N   0  3  0  0  0  0
   29.1080   -8.2160   -9.2440 C   0  0  0  0  0  0
   30.1190   -7.1050   -8.8610 C   0  0  0  0  0  0
   31.5950   -7.4570   -9.2340 C   0  0  0  0  0  0
   32.0760   -8.8390   -8.6880 C   0  0  0  0  0  0
   29.5560   -9.5880   -8.5120 C   0  0  0  0  0  0
   31.0280  -10.0350   -8.8720 C   0  0  0  0  0  0
   26.5350   -9.0280  -10.6220 N   0  0  0  0  0  0
   26.2580  -10.1770  -11.3420 C   0  0  0  0  0  0
   25.9530  -11.2340  -10.7900 O   0  0  0  0  0  0
   26.3650  -10.0150  -12.7320 N   0  0  0  0  0  0
   27.6060  -11.5600  -14.0030 C   0  0  0  0  0  0
   28.3230  -10.3470  -14.6870 C   0  0  0  0  0  0
   28.3170   -8.9620  -13.8230 C   0  0  2  0  0  0
   26.7540   -8.7170  -13.4460 C   0  0  0  0  0  0
   26.1260  -11.1000  -13.6550 C   0  0  0  0  0  0
   25.1760   -9.3290   -6.4430 C   0  0  0  0  0  0
   33.6920   -9.1440  -12.4460 Cl  0  0  0  0  0  0
   28.6860   -6.6332  -16.4614 H   0  0  0  0  0  0
   30.6288   -7.8371  -17.1231 H   0  0  0  0  0  0
   30.9189   -8.4167  -12.6737 H   0  0  0  0  0  0
   33.1049   -8.4238  -17.3082 H   0  0  0  0  0  0
   34.4557   -9.0052  -15.2407 H   0  0  0  0  0  0
   27.9284   -6.1887  -13.4866 H   0  0  0  0  0  0
   29.4837   -6.6479  -12.7140 H   0  0  0  0  0  0
   30.6894   -5.2594  -14.3364 H   0  0  0  0  0  0
   29.1256   -4.7869  -15.0833 H   0  0  0  0  0  0
   30.0088   -4.1600  -12.2322 H   0  0  0  0  0  0
   30.0088   -3.0323  -13.6304 H   0  0  0  0  0  0
   27.5716   -4.2840  -12.2870 H   0  0  0  0  0  0
   28.1090   -2.5721  -12.2017 H   0  0  0  0  0  0
   25.5245   -2.5976  -14.7034 H   0  0  0  0  0  0
   26.0271   -1.9010  -13.1258 H   0  0  0  0  0  0
   25.5111   -3.6187  -13.2256 H   0  0  0  0  0  0
   26.7383   -9.7880   -8.6909 H   0  0  0  0  0  0
   24.8604   -7.4108   -9.2271 H   0  0  0  0  0  0
   24.3699   -9.1217   -8.9846 H   0  0  0  0  0  0
   27.4725   -6.8673   -9.3767 H   0  0  0  0  0  0
   27.6934   -7.6373   -7.7690 H   0  0  0  0  0  0
   25.8268   -7.4320   -6.9618 H   0  0  0  0  0  0
   24.0502   -7.6900   -7.0236 H   0  0  0  0  0  0
   29.0971   -8.3172  -10.3393 H   0  0  0  0  0  0
   29.8576   -6.1745   -9.3862 H   0  0  0  0  0  0
   30.0833   -6.9354   -7.7747 H   0  0  0  0  0  0
   31.6995   -7.4863  -10.3286 H   0  0  0  0  0  0
   32.2698   -6.6924   -8.8216 H   0  0  0  0  0  0
   32.9956   -9.1400   -9.2112 H   0  0  0  0  0  0
   32.2776   -8.7572   -7.6097 H   0  0  0  0  0  0
   29.5073   -9.4544   -7.4212 H   0  0  0  0  0  0
   28.8794  -10.4017   -8.8123 H   0  0  0  0  0  0
   31.0390  -10.3745   -9.9183 H   0  0  0  0  0  0
   31.3056  -10.8705   -8.2125 H   0  0  0  0  0  0
   26.7850   -8.1935  -11.2936 H   0  0  0  0  0  0
   27.5916  -12.4151  -14.6949 H   0  0  0  0  0  0
   28.1488  -11.8382  -13.0876 H   0  0  0  0  0  0
   29.3782  -10.5995  -14.8682 H   0  0  0  0  0  0
   27.8302  -10.1220  -15.6443 H   0  0  0  0  0  0
   28.9224   -9.0253  -12.9068 H   0  0  0  0  0  0
   26.1203   -8.5835  -14.3352 H   0  0  0  0  0  0
   26.6118   -7.8662  -12.7634 H   0  0  0  0  0  0
   25.5353  -11.8824  -13.1561 H   0  0  0  0  0  0
   25.5728  -10.7236  -14.5281 H   0  0  0  0  0  0
   25.0993   -9.0554   -5.3803 H   0  0  0  0  0  0
   26.1574   -9.7879   -6.6336 H   0  0  0  0  0  0
   24.3808  -10.0458   -6.6954 H   0  0  0  0  0  0
  1  2  1  0  0  0
  1  3  1  0  0  0
  1  9  1  0  0  0
  1 31  1  0  0  0
  2 36  1  0  0  0
  3  4  2  0  0  0
  3  5  1  0  0  0
  4  6  1  0  0  0
  4 37  1  0  0  0
  5  7  2  0  0  0
  5 38  1  0  0  0
  6  8  2  0  0  0
  6 39  1  0  0  0
  7  8  1  0  0  0
  7 35  1  0  0  0
  8 40  1  0  0  0
  9 10  1  0  0  0
  9 41  1  0  0  0
  9 42  1  0  0  0
 10 11  1  0  0  0
 10 43  1  0  0  0
 10 44  1  0  0  0
 11 12  1  0  0  0
 11 45  1  0  0  0
 11 46  1  0  0  0
 12 13  1  0  0  0
 12 47  1  0  0  0
 12 48  1  0  0  0
 13 14  1  0  0  0
 14 49  1  0  0  0
 14 50  1  0  0  0
 14 51  1  0  0  0
 15 16  1  0  0  0
 15 17  1  0  0  0
 15 25  1  0  0  0
 15 52  1  0  0  0
 16 18  1  0  0  0
 16 53  1  0  0  0
 16 54  1  0  0  0
 17 19  1  0  0  0
 17 55  1  0  0  0
 17 56  1  0  0  0
 18 34  1  0  0  0
 18 57  1  0  0  0
 18 58  1  0  0  0
 19 20  1  0  0  0
 19 23  1  0  0  0
 19 59  1  0  0  0
 20 21  1  0  0  0
 20 60  1  0  0  0
 20 61  1  0  0  0
 21 22  1  0  0  0
 21 62  1  0  0  0
 21 63  1  0  0  0
 22 24  1  0  0  0
 22 64  1  0  0  0
 22 65  1  0  0  0
 23 24  1  0  0  0
 23 66  1  0  0  0
 23 67  1  0  0  0
 24 68  1  0  0  0
 24 69  1  0  0  0
 25 26  1  0  0  0
 25 70  1  0  0  0
 26 27  2  0  0  0
 26 28  1  0  0  0
 28 32  1  0  0  0
 28 33  1  0  0  0
 29 30  1  0  0  0
 29 33  1  0  0  0
 29 71  1  0  0  0
 29 72  1  0  0  0
 30 31  1  0  0  0
 30 73  1  0  0  0
 30 74  1  0  0  0
 31 32  1  0  0  0
 31 75  1  0  0  0
 32 76  1  0  0  0
 32 77  1  0  0  0
 33 78  1  0  0  0
 33 79  1  0  0  0
 34 80  1  0  0  0
 34 81  1  0  0  0
 34 82  1  0  0  0
M  CHG  1  18   1
M  END
> <s_m_source_file>
../3gw5_ligand.sdf

> <i_m_source_file_index>
1

> <s_epik_input>
W2NIXTFjKENsKVtjSF1bY0hdW2NIXWMxW0NAXShbT0hdKShbQ0gyXVtDSDJdW0NIMl1bQ0gyXU9bQ0gzXSlbQ0BIXShbQ0gyXVtDSDJdW0NIMl0yKVtDSDJdTjJDKD1PKVtOSF1bQ0BIXShbQ0gyXVtOSDIrXVtDSDNdKVtDSDJdW0NIXTNbQ0gyXVtDSDJdW0NIMl1bQ0gyXVtDSDJdMw==

> <s_epik_cmdline>
J2VwaWtfYXBwJywgJy1pbWFlJywgJ2xpZ2FuZF9wcm8ubWFlJywgJy1vbWFlJywgJ2xpZ2FuZF9wcmVwLm1hZScsICctbXMnLCAnMScsICctcGgnLCAnNycsICctcGh0JywgJzAuNScsICctbnQn

> <r_lp_tautomer_probability>
1

> <r_epik_Ionization_Penalty>
  0.0008

> <r_epik_Ionization_Penalty_Charging>
  0.0007

> <r_epik_Ionization_Penalty_Neutral>
  0.0000

> <r_epik_State_Penalty>
 -0.0000

> <r_epik_Charging_Adjusted_Penalty>
0.000745544300522662

> <i_epik_Tot_Q>
1

> <i_epik_Tot_abs_Q>
1

$$$$
