3gws_ligand
                    3D
 Schrodinger Suite 2020-3.
 35 36  0  0  1  0            999 V2000
    6.7540   20.8300   27.5330 C   0  0  0  0  0  0
    3.4700   18.0600   30.0340 C   0  0  0  0  0  0
    7.0140   20.4060   28.9320 C   0  0  0  0  0  0
    3.0840   17.1850   31.1010 C   0  0  0  0  0  0
    6.2920   19.3900   29.4820 C   0  0  0  0  0  0
    1.9570   17.4760   31.8880 C   0  0  0  0  0  0
    5.2900   18.7570   28.7180 C   0  0  0  0  0  0
    1.2190   18.5980   31.6290 C   0  0  0  0  0  0
    5.0450   19.1580   27.3620 C   0  0  0  0  0  0
    1.6140   19.4970   30.5220 C   0  0  0  0  0  0
    5.7930   20.2090   26.7870 C   0  0  0  0  0  0
    2.7070   19.2150   29.7580 C   0  0  0  0  0  0
    7.5750   21.9560   26.9160 C   0  0  0  0  0  0
    8.2510   21.6500   25.5790 C   0  0  1  0  0  0
    9.2900   22.6910   25.2040 C   0  0  0  0  0  0
    6.6770   18.7820   31.4690 I   0  0  0  0  0  0
    1.4590   16.1470   33.4570 I   0  0  0  0  0  0
    3.5680   18.1570   26.2350 I   0  0  0  0  0  0
    8.7460   20.2940   25.4590 N   0  3  0  0  0  0
    0.0790   18.8970   32.3880 O   0  0  0  0  0  0
    4.5660   17.6890   29.2450 O   0  0  0  0  0  0
   10.2350   22.3770   24.5640 O   0  0  0  0  0  0
    9.0920   24.0140   25.6110 O   0  5  0  0  0  0
    7.7829   20.9079   29.5193 H   0  0  0  0  0  0
    3.6686   16.2876   31.3035 H   0  0  0  0  0  0
    1.0264   20.3916   30.3159 H   0  0  0  0  0  0
    5.6055   20.5210   25.7596 H   0  0  0  0  0  0
    2.9899   19.8769   28.9395 H   0  0  0  0  0  0
    6.9263   22.8255   26.7340 H   0  0  0  0  0  0
    8.3840   22.2400   27.6051 H   0  0  0  0  0  0
    7.4659   21.6582   24.8086 H   0  0  0  0  0  0
    7.9521   19.5874   25.7427 H   0  0  0  0  0  0
    9.6116   20.1594   26.1243 H   0  0  0  0  0  0
    9.0502   20.1054   24.4188 H   0  0  0  0  0  0
   -0.2220   18.2343   33.2128 H   0  0  0  0  0  0
  1  3  2  0  0  0
  1 11  1  0  0  0
  1 13  1  0  0  0
  2  4  2  0  0  0
  2 12  1  0  0  0
  2 21  1  0  0  0
  3  5  1  0  0  0
  3 24  1  0  0  0
  4  6  1  0  0  0
  4 25  1  0  0  0
  5  7  2  0  0  0
  5 16  1  0  0  0
  6  8  2  0  0  0
  6 17  1  0  0  0
  7  9  1  0  0  0
  7 21  1  0  0  0
  8 10  1  0  0  0
  8 20  1  0  0  0
  9 11  2  0  0  0
  9 18  1  0  0  0
 10 12  2  0  0  0
 10 26  1  0  0  0
 11 27  1  0  0  0
 12 28  1  0  0  0
 13 14  1  0  0  0
 13 29  1  0  0  0
 13 30  1  0  0  0
 14 15  1  0  0  0
 14 19  1  0  0  0
 14 31  1  0  0  0
 15 22  2  0  0  0
 15 23  1  0  0  0
 19 32  1  0  0  0
 19 33  1  0  0  0
 19 34  1  0  0  0
 20 35  1  0  0  0
M  CHG  2  19   1  23  -1
M  END
> <s_m_source_file>
../3gws_ligand.sdf

> <i_m_source_file_index>
1

> <s_epik_input>
Tz1DKFtPSF0pW0NAQEhdKFtOSDMrXSlbQ0gyXWMxW2NIXWMoSSljKGMoSSlbY0hdMSlPYzJbY0hdYyhJKWMoW09IXSlbY0hdW2NIXTI=

> <s_epik_cmdline>
J2VwaWtfYXBwJywgJy1pbWFlJywgJ2xpZ2FuZF9wcm8ubWFlJywgJy1vbWFlJywgJ2xpZ2FuZF9wcmVwLm1hZScsICctbXMnLCAnMScsICctcGgnLCAnNycsICctcGh0JywgJzAuNScsICctbnQn

> <r_lp_tautomer_probability>
1

> <r_epik_Ionization_Penalty>
  0.1157

> <r_epik_Ionization_Penalty_Charging>
  0.0030

> <r_epik_Ionization_Penalty_Neutral>
  0.1127

> <r_epik_State_Penalty>
  0.1024

> <r_epik_Charging_Adjusted_Penalty>
0.105431399014428

> <i_epik_Tot_Q>
0

> <i_epik_Tot_abs_Q>
2

$$$$
