3gwt_ligand
                    3D
 Schrodinger Suite 2020-3.
 63 66  0  0  1  0            999 V2000
   44.0530   46.0630   61.6620 O   0  0  0  0  0  0
   43.6220   45.8360   62.7810 C   0  0  0  0  0  0
   42.4210   45.2780   62.9690 N   0  0  0  0  0  0
   44.4500   46.2530   63.9850 C   0  0  0  0  0  0
   43.8350   46.2940   65.2340 C   0  0  0  0  0  0
   44.4700   46.7120   66.3520 N   0  0  0  0  0  0
   45.7380   47.1390   66.2630 C   0  0  0  0  0  0
   46.4130   47.1630   65.0420 C   0  0  0  0  0  0
   47.7360   47.6170   64.9820 C   0  0  0  0  0  0
   48.3750   48.0540   66.1460 C   0  0  0  0  0  0
   50.0300   48.6840   66.0440 S   0  0  0  0  0  0
   50.4000   48.6620   64.6550 O   0  0  0  0  0  0
   51.1110   47.6430   66.9220 C   0  0  0  0  0  0
   51.4520   46.4770   66.3150 C   0  0  0  0  0  0
   52.3090   45.6140   66.9360 C   0  0  0  0  0  0
   52.5960   44.3780   66.1690 C   0  0  0  0  0  0
   52.9680   44.5120   64.8880 N   0  0  0  0  0  0
   53.4160   43.3940   64.1040 C   0  0  0  0  0  0
   52.9620   45.7780   64.1520 C   0  0  0  0  0  0
   52.4410   43.3100   66.7300 O   0  0  0  0  0  0
   52.8340   45.9010   68.1910 C   0  0  0  0  0  0
   52.4970   47.1020   68.8110 C   0  0  0  0  0  0
   51.6290   47.9830   68.1690 C   0  0  0  0  0  0
   50.0920   49.9530   66.7220 O   0  0  0  0  0  0
   47.6860   48.0290   67.3590 C   0  0  0  0  0  0
   46.3720   47.5720   67.4230 C   0  0  0  0  0  0
   45.6210   47.5380   68.7240 C   0  0  0  0  0  0
   45.7650   46.7210   63.8780 C   0  0  0  0  0  0
   46.4540   46.7160   62.6990 N   0  0  0  0  0  0
   47.6140   45.9730   62.6520 C   0  0  0  0  0  0
   48.4850   46.0740   61.5800 C   0  0  0  0  0  0
   47.9690   45.0810   63.6680 C   0  0  0  0  0  0
   49.1540   44.3060   63.6060 C   0  0  0  0  0  0
   50.0240   44.4320   62.5280 C   0  0  0  0  0  0
   49.6630   45.3230   61.5150 C   0  0  0  0  0  0
   50.4770   45.4850   60.4310 O   0  0  0  0  0  0
   50.0800   46.3110   59.3470 C   0  0  0  0  0  0
   41.8147   44.9730   62.1034 H   0  0  0  0  0  0
   42.0397   45.1241   63.9892 H   0  0  0  0  0  0
   42.7958   45.9750   65.3136 H   0  0  0  0  0  0
   48.2665   47.6297   64.0299 H   0  0  0  0  0  0
   51.0429   46.2307   65.3352 H   0  0  0  0  0  0
   53.3940   42.4824   64.7193 H   0  0  0  0  0  0
   54.4436   43.5776   63.7573 H   0  0  0  0  0  0
   52.7533   43.2662   63.2354 H   0  0  0  0  0  0
   52.6097   46.5842   64.8122 H   0  0  0  0  0  0
   52.2907   45.6946   63.2846 H   0  0  0  0  0  0
   53.9811   46.0060   63.8064 H   0  0  0  0  0  0
   53.5016   45.1944   68.6841 H   0  0  0  0  0  0
   52.9085   47.3504   69.7893 H   0  0  0  0  0  0
   51.3582   48.9288   68.6383 H   0  0  0  0  0  0
   48.1820   48.3712   68.2673 H   0  0  0  0  0  0
   44.6077   47.1459   68.5523 H   0  0  0  0  0  0
   45.5554   48.5557   69.1362 H   0  0  0  0  0  0
   46.1502   46.8875   69.4359 H   0  0  0  0  0  0
   46.0770   47.2892   61.8392 H   0  0  0  0  0  0
   48.2460   46.7572   60.7650 H   0  0  0  0  0  0
   47.3149   44.9784   64.5339 H   0  0  0  0  0  0
   49.3853   43.6061   64.4089 H   0  0  0  0  0  0
   50.9496   43.8588   62.4760 H   0  0  0  0  0  0
   50.8670   46.3108   58.5785 H   0  0  0  0  0  0
   49.9201   47.3378   59.7078 H   0  0  0  0  0  0
   49.1452   45.9245   58.9147 H   0  0  0  0  0  0
  1  2  2  0  0  0
  2  3  1  0  0  0
  2  4  1  0  0  0
  3 38  1  0  0  0
  3 39  1  0  0  0
  4  5  2  0  0  0
  4 28  1  0  0  0
  5  6  1  0  0  0
  5 40  1  0  0  0
  6  7  2  0  0  0
  7  8  1  0  0  0
  7 26  1  0  0  0
  8  9  1  0  0  0
  8 28  2  0  0  0
  9 10  2  0  0  0
  9 41  1  0  0  0
 10 11  1  0  0  0
 10 25  1  0  0  0
 11 12  2  0  0  0
 11 13  1  0  0  0
 11 24  2  0  0  0
 13 14  2  0  0  0
 13 23  1  0  0  0
 14 15  1  0  0  0
 14 42  1  0  0  0
 15 16  1  0  0  0
 15 21  2  0  0  0
 16 17  1  0  0  0
 16 20  2  0  0  0
 17 18  1  0  0  0
 17 19  1  0  0  0
 18 43  1  0  0  0
 18 44  1  0  0  0
 18 45  1  0  0  0
 19 46  1  0  0  0
 19 47  1  0  0  0
 19 48  1  0  0  0
 21 22  1  0  0  0
 21 49  1  0  0  0
 22 23  2  0  0  0
 22 50  1  0  0  0
 23 51  1  0  0  0
 25 26  2  0  0  0
 25 52  1  0  0  0
 26 27  1  0  0  0
 27 53  1  0  0  0
 27 54  1  0  0  0
 27 55  1  0  0  0
 28 29  1  0  0  0
 29 30  1  0  0  0
 29 56  1  0  0  0
 30 31  2  0  0  0
 30 32  1  0  0  0
 31 35  1  0  0  0
 31 57  1  0  0  0
 32 33  2  0  0  0
 32 58  1  0  0  0
 33 34  1  0  0  0
 33 59  1  0  0  0
 34 35  2  0  0  0
 34 60  1  0  0  0
 35 36  1  0  0  0
 36 37  1  0  0  0
 37 61  1  0  0  0
 37 62  1  0  0  0
 37 63  1  0  0  0
M  END
> <s_m_source_file>
../3gwt_ligand.sdf

> <i_m_source_file_index>
1

> <s_epik_input>
W2NIXTFbY0hdW2NIXWMoT1tDSDNdKVtjSF1jMVtOSF1jKGMoW2NIXW4yKUMoPU8pW05IMl0pYyhjMjMpW2NIXWMoW2NIXWMzW0NIM10pUyg9TykoPU8pYzRbY0hdYyhDKD1PKU4oW0NIM10pW0NIM10pW2NIXVtjSF1bY0hdNA==

> <s_epik_cmdline>
J2VwaWtfYXBwJywgJy1pbWFlJywgJ2xpZ2FuZF9wcm8ubWFlJywgJy1vbWFlJywgJ2xpZ2FuZF9wcmVwLm1hZScsICctbXMnLCAnMScsICctcGgnLCAnNycsICctcGh0JywgJzAuNScsICctbnQn

> <r_lp_tautomer_probability>
1

> <r_epik_Ionization_Penalty>
  0.0013

> <r_epik_Ionization_Penalty_Charging>
  0.0000

> <r_epik_Ionization_Penalty_Neutral>
  0.0013

> <r_epik_State_Penalty>
 -0.0000

> <r_epik_Charging_Adjusted_Penalty>
0

> <i_epik_Tot_Q>
0

> <i_epik_Tot_abs_Q>
0

$$$$
