3gwu_ligand
                    3D
 Schrodinger Suite 2020-3.
 38 40  0  0  1  0            999 V2000
   29.1850   25.6670   20.9190 Cl  0  0  0  0  0  0
   28.3210   24.3370   21.7520 C   0  0  0  0  0  0
   27.9210   23.2600   20.9910 C   0  0  0  0  0  0
   28.3030   23.2900   19.2480 Cl  0  0  0  0  0  0
   28.0540   24.3680   23.1210 C   0  0  0  0  0  0
   27.3770   23.2940   23.7040 C   0  0  0  0  0  0
   26.9760   22.1970   22.9280 C   0  0  0  0  0  0
   27.2470   22.1830   21.5630 C   0  0  0  0  0  0
   26.2490   21.0360   23.5120 C   0  0  1  0  0  0
   27.0520   20.2860   24.5290 C   0  0  0  0  0  0
   28.4180   20.0890   24.2980 C   0  0  0  0  0  0
   29.2060   19.3810   25.2020 C   0  0  0  0  0  0
   28.6320   18.8660   26.3580 C   0  0  0  0  0  0
   27.2720   19.0520   26.5970 C   0  0  0  0  0  0
   26.4740   19.7550   25.6930 C   0  0  0  0  0  0
   25.0260   19.9110   26.0190 C   0  0  1  0  0  0
   24.8540   20.8810   27.0950 N   0  3  0  0  0  0
   23.5360   21.1370   27.6580 C   0  0  0  0  0  0
   24.2260   20.3160   24.7800 C   0  0  0  0  0  0
   24.8970   21.4840   24.0700 C   0  0  0  0  0  0
   28.3690   25.2177   23.7268 H   0  0  0  0  0  0
   27.1585   23.3089   24.7718 H   0  0  0  0  0  0
   26.9354   21.3387   20.9481 H   0  0  0  0  0  0
   26.1011   20.3221   22.6883 H   0  0  0  0  0  0
   28.8730   20.4966   23.3952 H   0  0  0  0  0  0
   30.2674   19.2316   25.0038 H   0  0  0  0  0  0
   29.2435   18.3185   27.0752 H   0  0  0  0  0  0
   26.8248   18.6427   27.5029 H   0  0  0  0  0  0
   24.6512   18.9512   26.4040 H   0  0  0  0  0  0
   25.4529   20.5736   27.9650 H   0  0  0  0  0  0
   25.1870   21.8718   26.7522 H   0  0  0  0  0  0
   23.6170   21.8947   28.4513 H   0  0  0  0  0  0
   23.1306   20.2058   28.0804 H   0  0  0  0  0  0
   22.8647   21.5039   26.8676 H   0  0  0  0  0  0
   24.1663   19.4636   24.0873 H   0  0  0  0  0  0
   23.2113   20.6160   25.0806 H   0  0  0  0  0  0
   25.0494   22.3071   24.7836 H   0  0  0  0  0  0
   24.2556   21.8279   23.2451 H   0  0  0  0  0  0
  1  2  1  0  0  0
  2  3  2  0  0  0
  2  5  1  0  0  0
  3  4  1  0  0  0
  3  8  1  0  0  0
  5  6  2  0  0  0
  5 21  1  0  0  0
  6  7  1  0  0  0
  6 22  1  0  0  0
  7  8  2  0  0  0
  7  9  1  0  0  0
  8 23  1  0  0  0
  9 10  1  0  0  0
  9 20  1  0  0  0
  9 24  1  0  0  0
 10 11  2  0  0  0
 10 15  1  0  0  0
 11 12  1  0  0  0
 11 25  1  0  0  0
 12 13  2  0  0  0
 12 26  1  0  0  0
 13 14  1  0  0  0
 13 27  1  0  0  0
 14 15  2  0  0  0
 14 28  1  0  0  0
 15 16  1  0  0  0
 16 17  1  0  0  0
 16 19  1  0  0  0
 16 29  1  0  0  0
 17 18  1  0  0  0
 17 30  1  0  0  0
 17 31  1  0  0  0
 18 32  1  0  0  0
 18 33  1  0  0  0
 18 34  1  0  0  0
 19 20  1  0  0  0
 19 35  1  0  0  0
 19 36  1  0  0  0
 20 37  1  0  0  0
 20 38  1  0  0  0
M  CHG  1  17   1
M  END
> <s_m_source_file>
../3gwu_ligand.sdf

> <i_m_source_file_index>
1

> <s_epik_input>
Q2xjMWMoQ2wpW2NIXWMoW2NIXVtjSF0xKVtDQEBIXTJbQ0gyXVtDSDJdW0NASF0oW05IMitdW0NIM10pYyhjMjMpW2NIXVtjSF1bY0hdW2NIXTM=

> <s_epik_cmdline>
J2VwaWtfYXBwJywgJy1pbWFlJywgJ2xpZ2FuZF9wcm8ubWFlJywgJy1vbWFlJywgJ2xpZ2FuZF9wcmVwLm1hZScsICctbXMnLCAnMScsICctcGgnLCAnNycsICctcGh0JywgJzAuNScsICctbnQn

> <r_epik_Ionization_Penalty>
  0.0157

> <r_epik_Ionization_Penalty_Charging>
  0.0157

> <r_epik_Ionization_Penalty_Neutral>
  0.0000

> <r_epik_State_Penalty>
  0.0124

> <r_epik_Charging_Adjusted_Penalty>
0.0281076452545391

> <i_epik_Tot_Q>
1

> <i_epik_Tot_abs_Q>
1

$$$$
