3gwv_ligand
                    3D
 Schrodinger Suite 2020-3.
 41 42  0  0  1  0            999 V2000
   27.2850   25.1570   19.2720 F   0  0  0  0  0  0
   28.3210   24.7390   19.9700 C   0  0  0  0  0  0
   28.9740   25.8030   20.3920 F   0  0  0  0  0  0
   29.1130   24.0210   19.2000 F   0  0  0  0  0  0
   27.8530   23.9030   21.1340 C   0  0  0  0  0  0
   28.2450   24.2330   22.4320 C   0  0  0  0  0  0
   27.8170   23.4620   23.5130 C   0  0  0  0  0  0
   26.9950   22.3520   23.3130 C   0  0  0  0  0  0
   26.5940   22.0220   22.0120 C   0  0  0  0  0  0
   27.0280   22.7940   20.9270 C   0  0  0  0  0  0
   26.5880   21.6380   24.4210 O   0  0  0  0  0  0
   26.3090   20.2340   24.4430 C   0  0  2  0  0  0
   25.2390   19.9490   25.4940 C   0  0  0  0  0  0
   23.9160   19.5580   24.8450 C   0  0  0  0  0  0
   22.9530   20.6440   24.8690 N   0  3  0  0  0  0
   21.7900   20.5640   25.7350 C   0  0  0  0  0  0
   27.5450   19.4840   24.7680 C   0  0  0  0  0  0
   27.6800   18.1590   24.3590 C   0  0  0  0  0  0
   28.8350   17.4370   24.6450 C   0  0  0  0  0  0
   29.8650   18.0470   25.3510 C   0  0  0  0  0  0
   29.7330   19.3720   25.7640 C   0  0  0  0  0  0
   28.5790   20.0950   25.4760 C   0  0  0  0  0  0
   28.8881   25.0965   22.6019 H   0  0  0  0  0  0
   28.1275   23.7290   24.5232 H   0  0  0  0  0  0
   25.9436   21.1636   21.8439 H   0  0  0  0  0  0
   26.7206   22.5284   19.9155 H   0  0  0  0  0  0
   25.9765   19.9583   23.4313 H   0  0  0  0  0  0
   25.5701   19.1221   26.1395 H   0  0  0  0  0  0
   25.0766   20.8489   26.1053 H   0  0  0  0  0  0
   24.0908   19.2788   23.7955 H   0  0  0  0  0  0
   23.4815   18.7034   25.3842 H   0  0  0  0  0  0
   23.4543   21.5717   25.1822 H   0  0  0  0  0  0
   22.5271   20.7787   23.8638 H   0  0  0  0  0  0
   21.1814   21.4726   25.6165 H   0  0  0  0  0  0
   22.1174   20.4759   26.7814 H   0  0  0  0  0  0
   21.1903   19.6829   25.4630 H   0  0  0  0  0  0
   26.8701   17.6814   23.8076 H   0  0  0  0  0  0
   28.9309   16.4017   24.3180 H   0  0  0  0  0  0
   30.7737   17.4909   25.5812 H   0  0  0  0  0  0
   30.5423   19.8470   26.3185 H   0  0  0  0  0  0
   28.4844   21.1310   25.8015 H   0  0  0  0  0  0
  1  2  1  0  0  0
  2  3  1  0  0  0
  2  4  1  0  0  0
  2  5  1  0  0  0
  5  6  2  0  0  0
  5 10  1  0  0  0
  6  7  1  0  0  0
  6 23  1  0  0  0
  7  8  2  0  0  0
  7 24  1  0  0  0
  8  9  1  0  0  0
  8 11  1  0  0  0
  9 10  2  0  0  0
  9 25  1  0  0  0
 10 26  1  0  0  0
 11 12  1  0  0  0
 12 13  1  0  0  0
 12 17  1  0  0  0
 12 27  1  0  0  0
 13 14  1  0  0  0
 13 28  1  0  0  0
 13 29  1  0  0  0
 14 15  1  0  0  0
 14 30  1  0  0  0
 14 31  1  0  0  0
 15 16  1  0  0  0
 15 32  1  0  0  0
 15 33  1  0  0  0
 16 34  1  0  0  0
 16 35  1  0  0  0
 16 36  1  0  0  0
 17 18  2  0  0  0
 17 22  1  0  0  0
 18 19  1  0  0  0
 18 37  1  0  0  0
 19 20  2  0  0  0
 19 38  1  0  0  0
 20 21  1  0  0  0
 20 39  1  0  0  0
 21 22  2  0  0  0
 21 40  1  0  0  0
 22 41  1  0  0  0
M  CHG  1  15   1
M  END
> <s_m_source_file>
../3gwv_ligand.sdf

> <i_m_source_file_index>
1

> <s_epik_input>
RkMoRikoRiljMVtjSF1bY0hdYyhbY0hdW2NIXTEpT1tDQEhdKFtDSDJdW0NIMl1bTkgyK11bQ0gzXSljMltjSF1bY0hdW2NIXVtjSF1bY0hdMg==

> <s_epik_cmdline>
J2VwaWtfYXBwJywgJy1pbWFlJywgJ2xpZ2FuZF9wcm8ubWFlJywgJy1vbWFlJywgJ2xpZ2FuZF9wcmVwLm1hZScsICctbXMnLCAnMScsICctcGgnLCAnNycsICctcGh0JywgJzAuNScsICctbnQn

> <r_lp_tautomer_probability>
1

> <r_epik_Ionization_Penalty>
  0.0008

> <r_epik_Ionization_Penalty_Charging>
  0.0008

> <r_epik_Ionization_Penalty_Neutral>
  0.0000

> <r_epik_State_Penalty>
 -0.0000

> <r_epik_Charging_Adjusted_Penalty>
0.000752709891267998

> <i_epik_Tot_Q>
1

> <i_epik_Tot_abs_Q>
1

$$$$
