3gwx_ligand
                    3D
 Schrodinger Suite 2020-3.
 51 50  0  0  1  0            999 V2000
   35.2730   12.1360   61.7350 C   0  0  0  0  0  0
   34.4850   13.0750   61.9770 O   0  0  0  0  0  0
   36.2310   11.8620   62.5240 O   0  5  0  0  0  0
   35.0620   11.3240   60.4380 C   0  0  0  0  0  0
   35.2530    9.8000   60.6270 C   0  0  0  0  0  0
   35.0240    9.1900   59.2230 C   0  0  0  0  0  0
   35.2220    7.6510   59.1200 C   0  0  0  0  0  0
   34.2240    6.7670   59.2710 C   0  0  0  0  0  0
   32.8570    7.2170   59.5780 C   0  0  0  0  0  0
   31.8960    6.9060   58.4600 C   0  0  0  0  0  0
   30.5870    7.0900   58.6680 C   0  0  0  0  0  0
   30.0590    7.6010   59.9920 C   0  0  0  0  0  0
   29.1350    8.7640   59.7240 C   0  0  0  0  0  0
   27.8580    8.7800   60.1850 C   0  0  0  0  0  0
   27.2020    7.6620   60.9890 C   0  0  0  0  0  0
   26.4500    8.2610   62.1380 C   0  0  0  0  0  0
   25.1970    8.0900   62.5490 C   0  0  0  0  0  0
   24.0940    7.2290   61.9490 C   0  0  0  0  0  0
   22.7550    7.9330   61.8760 C   0  0  0  0  0  0
   22.4130    9.0390   61.1600 C   0  0  0  0  0  0
   23.2550    9.9010   60.2500 C   0  0  0  0  0  0
   22.9110    9.4190   58.8640 C   0  0  0  0  0  0
   34.0389   11.4845   60.0673 H   0  0  0  0  0  0
   35.7839   11.6548   59.6768 H   0  0  0  0  0  0
   36.2703    9.6008   60.9950 H   0  0  0  0  0  0
   34.5194    9.4262   61.3565 H   0  0  0  0  0  0
   33.9923    9.3919   58.8994 H   0  0  0  0  0  0
   35.7275    9.6413   58.5079 H   0  0  0  0  0  0
   36.2428    7.2978   58.9120 H   0  0  0  0  0  0
   34.4224    5.6902   59.1654 H   0  0  0  0  0  0
   32.5004    6.7120   60.4879 H   0  0  0  0  0  0
   32.8566    8.3052   59.7385 H   0  0  0  0  0  0
   32.2515    6.5345   57.4876 H   0  0  0  0  0  0
   29.8664    6.8688   57.8669 H   0  0  0  0  0  0
   29.5102    6.7962   60.5031 H   0  0  0  0  0  0
   30.9003    7.9278   60.6208 H   0  0  0  0  0  0
   29.5193    9.6128   59.1393 H   0  0  0  0  0  0
   27.2120    9.6477   59.9853 H   0  0  0  0  0  0
   26.5080    7.1044   60.3429 H   0  0  0  0  0  0
   27.9771    6.9803   61.3691 H   0  0  0  0  0  0
   27.1185    8.9451   62.6812 H   0  0  0  0  0  0
   24.8357    8.6153   63.4454 H   0  0  0  0  0  0
   24.3714    6.9391   60.9248 H   0  0  0  0  0  0
   23.9595    6.3256   62.5621 H   0  0  0  0  0  0
   22.0058    7.4335   62.5078 H   0  0  0  0  0  0
   21.3832    9.4235   61.2003 H   0  0  0  0  0  0
   22.9896   10.9583   60.3976 H   0  0  0  0  0  0
   24.3191    9.7536   60.4865 H   0  0  0  0  0  0
   23.4833    9.9959   58.1226 H   0  0  0  0  0  0
   21.8346    9.5570   58.6845 H   0  0  0  0  0  0
   23.1640    8.3523   58.7734 H   0  0  0  0  0  0
  1  4  1  0  0  0
  1  3  1  0  0  0
  1  2  2  0  0  0
  4  5  1  0  0  0
  4 23  1  0  0  0
  4 24  1  0  0  0
  5  6  1  0  0  0
  5 25  1  0  0  0
  5 26  1  0  0  0
  6  7  1  0  0  0
  6 27  1  0  0  0
  6 28  1  0  0  0
  7  8  2  0  0  0
  7 29  1  0  0  0
  8  9  1  0  0  0
  8 30  1  0  0  0
  9 10  1  0  0  0
  9 31  1  0  0  0
  9 32  1  0  0  0
 10 11  2  0  0  0
 10 33  1  0  0  0
 11 12  1  0  0  0
 11 34  1  0  0  0
 12 13  1  0  0  0
 12 35  1  0  0  0
 12 36  1  0  0  0
 13 14  2  0  0  0
 13 37  1  0  0  0
 14 15  1  0  0  0
 14 38  1  0  0  0
 15 16  1  0  0  0
 15 39  1  0  0  0
 15 40  1  0  0  0
 16 17  2  0  0  0
 16 41  1  0  0  0
 17 18  1  0  0  0
 17 42  1  0  0  0
 18 19  1  0  0  0
 18 43  1  0  0  0
 18 44  1  0  0  0
 19 20  2  0  0  0
 19 45  1  0  0  0
 20 21  1  0  0  0
 20 46  1  0  0  0
 21 22  1  0  0  0
 21 47  1  0  0  0
 21 48  1  0  0  0
 22 49  1  0  0  0
 22 50  1  0  0  0
 22 51  1  0  0  0
M  CHG  1   3  -1
M  END
> <s_m_source_file>
../3gwx_ligand.sdf

> <i_m_source_file_index>
1

> <s_epik_input>
Tz1DKFtPSF0pW0NIMl1bQ0gyXVtDSDJdL1tDSF09W0NIXVxbQ0gyXS9bQ0hdPVtDSF1cW0NIMl0vW0NIXT1bQ0hdXFtDSDJdL1tDSF09W0NIXVxbQ0gyXS9bQ0hdPVtDSF1cW0NIMl1bQ0gzXQ==

> <s_epik_cmdline>
J2VwaWtfYXBwJywgJy1pbWFlJywgJ2xpZ2FuZF9wcm8ubWFlJywgJy1vbWFlJywgJ2xpZ2FuZF9wcmVwLm1hZScsICctbXMnLCAnMScsICctcGgnLCAnNycsICctcGh0JywgJzAuNScsICctbnQn

> <r_lp_tautomer_probability>
1

> <r_epik_Ionization_Penalty>
  0.0041

> <r_epik_Ionization_Penalty_Charging>
  0.0041

> <r_epik_Ionization_Penalty_Neutral>
  0.0000

> <r_epik_State_Penalty>
 -0.0000

> <r_epik_Charging_Adjusted_Penalty>
0.00414476801241648

> <i_epik_Tot_Q>
-1

> <i_epik_Tot_abs_Q>
1

$$$$
