3gxl_ligand
                    3D
 Schrodinger Suite 2020-3.
 42 46  0  0  1  0            999 V2000
   10.5430   63.4270    5.7160 C   0  0  0  0  0  0
   11.9710   63.6300    5.2890 C   0  0  0  0  0  0
   12.4230   63.1370    4.0410 C   0  0  0  0  0  0
   13.7740   63.3590    3.6870 C   0  0  0  0  0  0
   14.6400   64.0490    4.5510 C   0  0  0  0  0  0
   14.1390   64.5220    5.7880 C   0  0  0  0  0  0
   12.8130   64.3140    6.1560 N   0  0  0  0  0  0
   15.0010   65.2550    6.7440 C   0  0  0  0  0  0
   16.0450   65.9520    6.2370 N   0  0  0  0  0  0
   16.8690   66.6410    7.0800 C   0  0  0  0  0  0
   17.9370   67.3340    6.4620 N   0  0  0  0  0  0
   18.1890   67.7830    5.1390 C   0  0  0  0  0  0
   19.5150   68.2030    4.7920 C   0  0  0  0  0  0
   19.8420   68.6760    3.4870 C   0  0  0  0  0  0
   18.7840   68.7140    2.5300 C   0  0  0  0  0  0
   18.7540   69.1080    1.2150 N   0  0  0  0  0  0
   17.5260   68.9890    0.6340 N   0  0  0  0  0  0
   16.7490   68.5010    1.6190 C   0  0  0  0  0  0
   17.4620   68.3060    2.8250 C   0  0  0  0  0  0
   17.1590   67.8350    4.1460 C   0  0  0  0  0  0
   16.6650   66.6530    8.4910 C   0  0  0  0  0  0
   17.4710   67.3440    9.4690 C   0  0  0  0  0  0
   17.1590   67.2720   10.8450 C   0  0  0  0  0  0
   16.0440   66.5100   11.2690 C   0  0  0  0  0  0
   15.2340   65.8140   10.3020 C   0  0  0  0  0  0
   15.5260   65.8760    8.9280 C   0  0  0  0  0  0
   14.7140   65.1940    8.0750 N   0  0  0  0  0  0
   10.0016   62.8741    4.9342 H   0  0  0  0  0  0
   10.0643   64.4051    5.8717 H   0  0  0  0  0  0
   10.5189   62.8534    6.6543 H   0  0  0  0  0  0
   11.7489   62.6017    3.3723 H   0  0  0  0  0  0
   14.1478   62.9901    2.7319 H   0  0  0  0  0  0
   15.6806   64.2176    4.2739 H   0  0  0  0  0  0
   18.8131   67.6357    7.0548 H   0  0  0  0  0  0
   20.2978   68.1595    5.5493 H   0  0  0  0  0  0
   20.8531   68.9938    3.2323 H   0  0  0  0  0  0
   15.6881   68.2806    1.5004 H   0  0  0  0  0  0
   16.1461   67.5172    4.3932 H   0  0  0  0  0  0
   18.3309   67.9285    9.1419 H   0  0  0  0  0  0
   17.7727   67.7996   11.5751 H   0  0  0  0  0  0
   15.7978   66.4497   12.3291 H   0  0  0  0  0  0
   14.3794   65.2288   10.6417 H   0  0  0  0  0  0
  1  2  1  0  0  0
  1 28  1  0  0  0
  1 29  1  0  0  0
  1 30  1  0  0  0
  2  3  2  0  0  0
  2  7  1  0  0  0
  3  4  1  0  0  0
  3 31  1  0  0  0
  4  5  2  0  0  0
  4 32  1  0  0  0
  5  6  1  0  0  0
  5 33  1  0  0  0
  6  7  2  0  0  0
  6  8  1  0  0  0
  8  9  2  0  0  0
  8 27  1  0  0  0
  9 10  1  0  0  0
 10 11  1  0  0  0
 10 21  2  0  0  0
 11 12  1  0  0  0
 11 34  1  0  0  0
 12 13  2  0  0  0
 12 20  1  0  0  0
 13 14  1  0  0  0
 13 35  1  0  0  0
 14 15  2  0  0  0
 14 36  1  0  0  0
 15 16  1  0  0  0
 15 19  1  0  0  0
 16 17  2  0  0  0
 17 18  1  0  0  0
 18 19  1  0  0  0
 18 37  1  0  0  0
 19 20  2  0  0  0
 20 38  1  0  0  0
 21 22  1  0  0  0
 21 26  1  0  0  0
 22 23  2  0  0  0
 22 39  1  0  0  0
 23 24  1  0  0  0
 23 40  1  0  0  0
 24 25  2  0  0  0
 24 41  1  0  0  0
 25 26  1  0  0  0
 25 42  1  0  0  0
 26 27  2  0  0  0
M  END
> <s_m_source_file>
../3gxl_ligand.sdf

> <i_m_source_file_index>
1

> <s_epik_input>
W0NIM11jMVtjSF1bY0hdW2NIXWMobjEpLWMobmMoYzIzKVtjSF1bY0hdW2NIXVtjSF0zKW5jMltOSF1jKFtjSF1bY0hdNClbY0hdYyhjNDUpW0NIMl1OPU41

> <s_epik_cmdline>
J2VwaWtfYXBwJywgJy1pbWFlJywgJ2xpZ2FuZF9wcm8ubWFlJywgJy1vbWFlJywgJ2xpZ2FuZF9wcmVwLm1hZScsICctbXMnLCAnMScsICctcGgnLCAnNycsICctcGh0JywgJzAuNScsICctbnQn

> <r_lp_tautomer_probability>
1

> <r_epik_Ionization_Penalty>
  0.0020

> <r_epik_Ionization_Penalty_Charging>
  0.0000

> <r_epik_Ionization_Penalty_Neutral>
  0.0020

> <r_epik_State_Penalty>
 -0.0000

> <r_epik_Charging_Adjusted_Penalty>
0

> <i_epik_Tot_Q>
0

> <i_epik_Tot_abs_Q>
0

$$$$
