3gxt_ligand
                    3D
 Schrodinger Suite 2020-3.
 25 25  0  0  1  0            999 V2000
  -17.1670   61.3430  105.6910 C   0  0  0  0  0  0
  -16.5510   60.2280  106.5580 C   0  0  2  0  0  0
  -15.2570   60.5800  107.0860 O   0  0  0  0  0  0
  -16.5720   58.9340  105.7210 C   0  0  1  0  0  0
  -15.7340   57.8550  106.1940 O   0  0  0  0  0  0
  -18.0540   58.6060  105.7750 C   0  0  2  0  0  0
  -18.2930   57.2700  105.3800 O   0  0  0  0  0  0
  -18.6920   59.6290  104.8380 C   0  0  2  0  0  0
  -18.5550   60.9970  105.3720 N   0  3  0  0  0  0
  -20.1520   59.3860  104.6420 C   0  0  0  0  0  0
  -20.5860   60.3980  103.7420 O   0  0  0  0  0  0
  -17.1421   62.2935  106.2441 H   0  0  0  0  0  0
  -16.5896   61.4451  104.7603 H   0  0  0  0  0  0
  -17.0831   60.0879  107.5105 H   0  0  0  0  0  0
  -15.1405   61.4874  107.6967 H   0  0  0  0  0  0
  -16.1163   59.0167  104.7233 H   0  0  0  0  0  0
  -14.6403   57.9719  106.2040 H   0  0  0  0  0  0
  -18.4940   58.5951  106.7831 H   0  0  0  0  0  0
  -17.8851   56.4393  105.9746 H   0  0  0  0  0  0
  -18.1727   59.5517  103.8714 H   0  0  0  0  0  0
  -19.1687   61.0665  106.2823 H   0  0  0  0  0  0
  -18.9421   61.6947  104.6148 H   0  0  0  0  0  0
  -20.3031   58.3811  104.2209 H   0  0  0  0  0  0
  -20.6692   59.4595  105.6101 H   0  0  0  0  0  0
  -21.6400   60.4417  103.4304 H   0  0  0  0  0  0
  1  2  1  0  0  0
  1  9  1  0  0  0
  1 12  1  0  0  0
  1 13  1  0  0  0
  2  3  1  0  0  0
  2  4  1  0  0  0
  2 14  1  0  0  0
  3 15  1  0  0  0
  4  5  1  0  0  0
  4  6  1  0  0  0
  4 16  1  0  0  0
  5 17  1  0  0  0
  6  7  1  0  0  0
  6  8  1  0  0  0
  6 18  1  0  0  0
  7 19  1  0  0  0
  8  9  1  0  0  0
  8 10  1  0  0  0
  8 20  1  0  0  0
  9 21  1  0  0  0
  9 22  1  0  0  0
 10 11  1  0  0  0
 10 23  1  0  0  0
 10 24  1  0  0  0
 11 25  1  0  0  0
M  CHG  1   9   1
M  END
> <s_m_source_file>
../3gxt_ligand.sdf

> <i_m_source_file_index>
1

> <s_epik_input>
W09IXVtDQEhdMVtDSDJdW05IMitdW0NASF0oW0NIMl1bT0hdKVtDQEBIXShbT0hdKVtDQEBIXTFbT0hd

> <s_epik_cmdline>
J2VwaWtfYXBwJywgJy1pbWFlJywgJ2xpZ2FuZF9wcm8ubWFlJywgJy1vbWFlJywgJ2xpZ2FuZF9wcmVwLm1hZScsICctbXMnLCAnMScsICctcGgnLCAnNycsICctcGh0JywgJzAuNScsICctbnQn

> <r_lp_tautomer_probability>
1

> <r_epik_Ionization_Penalty>
  0.0034

> <r_epik_Ionization_Penalty_Charging>
  0.0034

> <r_epik_Ionization_Penalty_Neutral>
  0.0000

> <r_epik_State_Penalty>
 -0.0000

> <r_epik_Charging_Adjusted_Penalty>
0.00338677877254832

> <i_epik_Tot_Q>
1

> <i_epik_Tot_abs_Q>
1

$$$$
