3gxy_ligand
                    3D
 Schrodinger Suite 2020-3.
 81 83  0  0  1  0            999 V2000
   22.2950   60.5660  140.2000 C   0  0  0  0  0  0
   22.3720   61.9470  140.8720 C   0  0  0  0  0  0
   23.3230   62.0110  142.0620 C   0  0  0  0  0  0
   20.6620   58.8370  139.2380 C   0  0  0  0  0  0
   20.8630   60.0130  140.2000 C   0  0  0  0  0  0
   21.7640   57.7630  136.6240 C   0  0  1  0  0  0
   20.7830   56.8570  137.1640 O   0  0  0  0  0  0
   21.8810   57.6140  135.1040 C   0  0  1  0  0  0
   22.0010   56.2360  134.7100 O   0  0  0  0  0  0
   20.6960   58.2460  134.3800 C   0  0  2  0  0  0
   21.0130   58.2700  132.9900 O   0  0  0  0  0  0
   20.4150   59.6740  134.8580 C   0  0  2  0  0  0
   21.3070   60.0940  135.9070 O   0  0  0  0  0  0
   18.9550   59.8410  135.2730 C   0  0  0  0  0  0
   18.2210   60.3590  134.1520 O   0  0  0  0  0  0
   20.3340   59.3030  137.9110 O   0  0  0  0  0  0
   21.4650   59.2140  137.0330 C   0  0  1  0  0  0
   22.7690   55.2750  134.2060 C   0  0  2  0  0  0
   22.6150   53.8680  133.6600 C   0  0  2  0  0  0
   22.6420   52.8970  134.8320 C   0  0  2  0  0  0
   23.9460   53.0350  135.6000 C   0  0  1  0  0  0
   24.1950   54.4980  135.9220 C   0  0  1  0  0  0
   25.5900   54.6500  136.5030 C   0  0  0  0  0  0
   23.7500   53.6430  132.8560 O   0  0  0  0  0  0
   22.5520   51.5610  134.4320 O   0  0  0  0  0  0
   23.8580   52.3110  136.8110 O   0  0  0  0  0  0
   24.0570   55.3480  134.7860 O   0  0  0  0  0  0
   25.8490   56.0380  136.5490 O   0  0  0  0  0  0
   23.6220   54.2140  131.5370 C   0  0  2  0  0  0
   24.2830   53.3080  130.5110 C   0  0  2  0  0  0
   25.8000   53.3360  130.6130 C   0  0  2  0  0  0
   26.3130   54.7400  130.3230 C   0  0  1  0  0  0
   25.4950   55.7740  131.1000 C   0  0  1  0  0  0
   25.5790   57.1000  130.4070 C   0  0  0  0  0  0
   23.9960   53.8690  129.2600 O   0  0  0  0  0  0
   26.3280   52.4650  129.6600 O   0  0  0  0  0  0
   27.6540   54.8860  130.7480 O   0  0  0  0  0  0
   24.1120   55.5390  131.3670 O   0  0  0  0  0  0
   25.5320   57.9170  131.5370 O   0  0  0  0  0  0
   22.6348   60.6464  139.1569 H   0  0  0  0  0  0
   22.9392   59.8580  140.7420 H   0  0  0  0  0  0
   22.7196   62.6917  140.1408 H   0  0  0  0  0  0
   21.3753   62.2319  141.2399 H   0  0  0  0  0  0
   23.3178   63.0280  142.4812 H   0  0  0  0  0  0
   24.3408   61.7555  141.7321 H   0  0  0  0  0  0
   22.9964   61.2957  142.8312 H   0  0  0  0  0  0
   21.5873   58.2446  139.1847 H   0  0  0  0  0  0
   19.8406   58.2021  139.6016 H   0  0  0  0  0  0
   20.6062   59.6601  141.2097 H   0  0  0  0  0  0
   20.1633   60.8070  139.9002 H   0  0  0  0  0  0
   22.7083   57.4415  137.0876 H   0  0  0  0  0  0
   20.8588   55.7788  136.9598 H   0  0  0  0  0  0
   22.8205   58.0885  134.7845 H   0  0  0  0  0  0
   19.7902   57.6377  134.5195 H   0  0  0  0  0  0
   21.2465   57.3332  132.4629 H   0  0  0  0  0  0
   20.6528   60.3710  134.0409 H   0  0  0  0  0  0
   18.5451   58.8652  135.5726 H   0  0  0  0  0  0
   18.8921   60.5406  136.1195 H   0  0  0  0  0  0
   17.1420   60.5528  134.2432 H   0  0  0  0  0  0
   22.3143   59.6275  137.5966 H   0  0  0  0  0  0
   22.2322   55.8221  133.4170 H   0  0  0  0  0  0
   21.7193   53.7244  133.0379 H   0  0  0  0  0  0
   21.7425   53.0690  135.4413 H   0  0  0  0  0  0
   24.7837   52.5945  135.0394 H   0  0  0  0  0  0
   23.4105   54.8568  136.6045 H   0  0  0  0  0  0
   25.6177   54.2088  137.5103 H   0  0  0  0  0  0
   26.3148   54.1336  135.8565 H   0  0  0  0  0  0
   21.6817   51.2175  133.8536 H   0  0  0  0  0  0
   23.6789   51.2259  136.7913 H   0  0  0  0  0  0
   26.8103   56.4055  136.9374 H   0  0  0  0  0  0
   22.5346   54.3432  131.4324 H   0  0  0  0  0  0
   23.8929   52.2830  130.5953 H   0  0  0  0  0  0
   26.1460   52.9690  131.5905 H   0  0  0  0  0  0
   26.3057   54.9033  129.2352 H   0  0  0  0  0  0
   25.9030   55.7257  132.1204 H   0  0  0  0  0  0
   26.5173   57.1563  129.8357 H   0  0  0  0  0  0
   24.7254   57.2105  129.7220 H   0  0  0  0  0  0
   22.9519   53.9697  128.9289 H   0  0  0  0  0  0
   26.0767   51.3946  129.6940 H   0  0  0  0  0  0
   28.4386   54.2422  130.3238 H   0  0  0  0  0  0
   25.5720   59.0108  131.4270 H   0  0  0  0  0  0
  1  2  1  0  0  0
  1  5  1  0  0  0
  1 40  1  0  0  0
  1 41  1  0  0  0
  2  3  1  0  0  0
  2 42  1  0  0  0
  2 43  1  0  0  0
  3 44  1  0  0  0
  3 45  1  0  0  0
  3 46  1  0  0  0
  4  5  1  0  0  0
  4 16  1  0  0  0
  4 47  1  0  0  0
  4 48  1  0  0  0
  5 49  1  0  0  0
  5 50  1  0  0  0
  6  7  1  0  0  0
  6  8  1  0  0  0
  6 17  1  0  0  0
  6 51  1  0  0  0
  7 52  1  0  0  0
  8  9  1  0  0  0
  8 10  1  0  0  0
  8 53  1  0  0  0
  9 18  1  0  0  0
 10 11  1  0  0  0
 10 12  1  0  0  0
 10 54  1  0  0  0
 11 55  1  0  0  0
 12 13  1  0  0  0
 12 14  1  0  0  0
 12 56  1  0  0  0
 13 17  1  0  0  0
 14 15  1  0  0  0
 14 57  1  0  0  0
 14 58  1  0  0  0
 15 59  1  0  0  0
 16 17  1  0  0  0
 17 60  1  0  0  0
 18 19  1  0  0  0
 18 27  1  0  0  0
 18 61  1  0  0  0
 19 20  1  0  0  0
 19 24  1  0  0  0
 19 62  1  0  0  0
 20 21  1  0  0  0
 20 25  1  0  0  0
 20 63  1  0  0  0
 21 22  1  0  0  0
 21 26  1  0  0  0
 21 64  1  0  0  0
 22 23  1  0  0  0
 22 27  1  0  0  0
 22 65  1  0  0  0
 23 28  1  0  0  0
 23 66  1  0  0  0
 23 67  1  0  0  0
 24 29  1  0  0  0
 25 68  1  0  0  0
 26 69  1  0  0  0
 28 70  1  0  0  0
 29 30  1  0  0  0
 29 38  1  0  0  0
 29 71  1  0  0  0
 30 31  1  0  0  0
 30 35  1  0  0  0
 30 72  1  0  0  0
 31 32  1  0  0  0
 31 36  1  0  0  0
 31 73  1  0  0  0
 32 33  1  0  0  0
 32 37  1  0  0  0
 32 74  1  0  0  0
 33 34  1  0  0  0
 33 38  1  0  0  0
 33 75  1  0  0  0
 34 39  1  0  0  0
 34 76  1  0  0  0
 34 77  1  0  0  0
 35 78  1  0  0  0
 36 79  1  0  0  0
 37 80  1  0  0  0
 39 81  1  0  0  0
M  END
> <s_m_source_file>
../3gxy_ligand.sdf

> <i_m_source_file_index>
1

> <s_epik_input>
W0NIM11bQ0gyXVtDSDJdW0NIMl1bQ0gyXU9bQ0BASF0xT1tDQEhdKFtDSDJdW09IXSlbQ0BASF0oW09IXSlbQ0BASF0oW0NAQEhdMVtPSF0pT1tDQEBIXTJbQ0BIXShbQ0BASF0oW09IXSlbQ0BIXShbT0hdKVtDQEhdKE8yKVtDSDJdW09IXSlPW0NAQEhdM1tDQEBIXShbT0hdKVtDQEBIXShbT0hdKVtDQEhdKFtPSF0pW0NASF0oTzMpW0NIMl1bT0hd

> <s_epik_cmdline>
J2VwaWtfYXBwJywgJy1pbWFlJywgJ2xpZ2FuZF9wcm8ubWFlJywgJy1vbWFlJywgJ2xpZ2FuZF9wcmVwLm1hZScsICctbXMnLCAnMScsICctcGgnLCAnNycsICctcGh0JywgJzAuNScsICctbnQn

> <r_lp_tautomer_probability>
1

> <r_epik_Ionization_Penalty>
  0.0000

> <r_epik_Ionization_Penalty_Charging>
  0.0000

> <r_epik_Ionization_Penalty_Neutral>
  0.0000

> <r_epik_State_Penalty>
 -0.0000

> <r_epik_Charging_Adjusted_Penalty>
0

> <i_epik_Tot_Q>
0

> <i_epik_Tot_abs_Q>
0

> <s_epik_Chemistry_Notes>
This compound contains an acetal/aminal-like group ( X-CH(R)-Y where X, Y are N, S, or O) that may be acid/base labile, releasing an aldehyde.

$$$$
