3gxz_ligand
                    3D
 Schrodinger Suite 2020-3.
225234  0  0  1  0            999 V2000
   15.3610   64.4960  142.2250 C   0  0  2  0  0  0
   14.3830   64.2890  141.0360 C   0  0  1  0  0  0
   14.9180   64.9040  139.7260 C   0  0  2  0  0  0
   16.3900   64.5630  139.3700 C   0  0  1  0  0  0
   17.2190   64.2360  140.6430 C   0  0  1  0  0  0
   18.6670   64.7170  140.5070 C   0  0  0  0  0  0
   13.2910   62.1590  141.7500 C   0  0  0  0  0  0
   12.9060   60.7280  141.4290 C   0  0  0  0  0  0
   13.9510   62.8850  140.8320 N   0  0  0  0  0  0
   14.8420   65.5030  143.0950 O   0  0  0  0  0  0
   14.7020   66.3000  139.7800 O   0  0  0  0  0  0
   16.3170   63.5340  138.3520 O   0  0  0  0  0  0
   16.6980   64.8440  141.8290 O   0  0  0  0  0  0
   19.4640   63.6130  140.1210 O   0  0  0  0  0  0
   13.0070   62.6540  142.8470 O   0  0  0  0  0  0
   17.5050   62.9900  137.6470 C   0  0  1  0  0  0
   18.5210   63.9640  136.9840 C   0  0  1  0  0  0
   19.5150   63.1610  136.1030 C   0  0  2  0  0  0
   20.1160   62.0280  136.9900 C   0  0  1  0  0  0
   18.9340   61.1250  137.3580 C   0  0  1  0  0  0
   19.3340   59.7760  137.9690 C   0  0  0  0  0  0
   17.7500   65.1650  134.8950 C   0  0  0  0  0  0
   18.5050   64.1970  134.0050 C   0  0  0  0  0  0
   17.8060   65.0120  136.2380 N   0  0  0  0  0  0
   20.4410   64.0340  135.4690 O   0  0  0  0  0  0
   21.3740   61.3880  136.6460 O   0  0  0  0  0  0
   18.1790   61.8990  138.2890 O   0  0  0  0  0  0
   20.7410   59.6970  138.0140 O   0  0  0  0  0  0
   17.0960   66.0910  134.3860 O   0  0  0  0  0  0
   21.5170   60.3870  135.5710 C   0  0  1  0  0  0
   21.3590   58.8910  135.9620 C   0  0  2  0  0  0
   21.8590   58.0570  134.7610 C   0  0  2  0  0  0
   20.9720   58.3550  133.5430 C   0  0  1  0  0  0
   20.3280   59.7710  133.5100 C   0  0  1  0  0  0
   18.8380   59.8260  133.8410 C   0  0  0  0  0  0
   20.0430   58.5250  136.3690 O   0  0  0  0  0  0
   22.0120   56.6550  135.0080 O   0  0  0  0  0  0
   21.7730   58.1850  132.3940 O   0  0  0  0  0  0
   20.9530   60.7630  134.3100 O   0  0  0  0  0  0
   18.2760   58.8080  133.0610 O   0  0  0  0  0  0
   23.1140   56.0760  134.2340 C   0  0  2  0  0  0
   22.8630   54.6650  133.6730 C   0  0  2  0  0  0
   22.7520   53.6820  134.8360 C   0  0  2  0  0  0
   24.1280   53.6430  135.4720 C   0  0  1  0  0  0
   24.5490   55.0470  135.8950 C   0  0  1  0  0  0
   26.0230   54.9940  136.2740 C   0  0  0  0  0  0
   24.0050   54.2530  132.9370 O   0  0  0  0  0  0
   22.4080   52.3660  134.4580 O   0  0  0  0  0  0
   24.1490   52.7490  136.5710 O   0  0  0  0  0  0
   24.3610   56.0570  134.9040 O   0  0  0  0  0  0
   26.3850   56.2600  136.7690 O   0  0  0  0  0  0
   24.0120   54.5600  131.5240 C   0  0  2  0  0  0
   24.7430   53.4520  130.7520 C   0  0  2  0  0  0
   26.2680   53.5340  130.8700 C   0  0  2  0  0  0
   26.7420   54.9340  130.5200 C   0  0  1  0  0  0
   25.9910   55.9250  131.3910 C   0  0  1  0  0  0
   26.4460   57.3300  131.0390 C   0  0  0  0  0  0
   24.4500   53.4930  129.3680 O   0  0  0  0  0  0
   26.8870   52.6380  129.9790 O   0  0  0  0  0  0
   28.1410   55.0560  130.7240 O   0  0  0  0  0  0
   24.5880   55.8200  131.2080 O   0  0  0  0  0  0
   25.6290   58.2190  131.7720 O   0  0  0  0  0  0
   23.0600   53.7740  129.1080 C   0  0  2  0  0  0
   22.8620   53.5440  127.6090 C   0  0  2  0  0  0
   23.0390   54.8520  126.8590 C   0  0  2  0  0  0
   21.9460   55.8100  127.3040 C   0  0  1  0  0  0
   21.7910   55.8650  128.8270 C   0  0  1  0  0  0
   20.3850   55.5700  129.3330 C   0  0  0  0  0  0
   21.5870   52.9910  127.3560 O   0  0  0  0  0  0
   22.9720   54.6490  125.4630 O   0  0  0  0  0  0
   22.3060   57.0820  126.8310 O   0  0  0  0  0  0
   22.7290   55.0850  129.5520 O   0  0  0  0  0  0
   20.4370   55.3240  130.7280 O   0  0  0  0  0  0
   17.1280   59.2520  132.3200 C   0  0  2  0  0  0
   16.1480   58.0830  132.4210 C   0  0  2  0  0  0
   16.8020   56.8710  131.7540 C   0  0  2  0  0  0
   17.0470   57.2280  130.2880 C   0  0  1  0  0  0
   17.9650   58.4490  130.2260 C   0  0  1  0  0  0
   18.1380   58.8670  128.7780 C   0  0  0  0  0  0
   14.8920   58.3790  131.8420 O   0  0  0  0  0  0
   16.0560   55.6810  131.9460 O   0  0  0  0  0  0
   17.6370   56.1490  129.5980 O   0  0  0  0  0  0
   17.4500   59.5480  130.9700 O   0  0  0  0  0  0
   19.0550   59.9320  128.7240 O   0  0  0  0  0  0
   16.0440   55.3900  133.3590 C   0  0  2  0  0  0
   16.1290   53.8900  133.5360 C   0  0  2  0  0  0
   14.8080   53.3360  133.0280 C   0  0  2  0  0  0
   13.6840   53.7590  133.9720 C   0  0  1  0  0  0
   13.9250   55.1260  134.6420 C   0  0  1  0  0  0
   14.2040   55.0140  136.1450 C   0  0  0  0  0  0
   16.3390   53.5800  134.8970 O   0  0  0  0  0  0
   14.8760   51.9320  132.8780 O   0  0  0  0  0  0
   12.4690   53.8060  133.2510 O   0  0  0  0  0  0
   14.9040   55.9500  134.0050 O   0  0  0  0  0  0
   14.0280   56.2760  136.7550 O   0  0  0  0  0  0
   19.1350   60.3630  127.3490 C   0  0  2  0  0  0
   20.5100   60.0920  126.7190 C   0  0  2  0  0  0
   21.5000   61.2220  127.0690 C   0  0  2  0  0  0
   20.9810   62.2430  128.1060 C   0  0  1  0  0  0
   19.4780   62.5540  128.0830 C   0  0  1  0  0  0
   19.2050   64.0080  127.6840 C   0  0  0  0  0  0
   20.3950   59.8850  125.3020 O   0  0  0  0  0  0
   21.9280   61.9080  125.9100 O   0  0  0  0  0  0
   21.3170   61.8280  129.4170 O   0  0  0  0  0  0
   18.7890   61.7170  127.1830 O   0  0  0  0  0  0
   17.8140   64.1490  127.4760 O   0  0  0  0  0  0
   20.2110   58.4780  124.9180 C   0  0  2  0  0  0
   20.7240   58.2080  123.4810 C   0  0  2  0  0  0
   20.1200   56.9950  122.7450 C   0  0  2  0  0  0
   18.6330   56.7820  123.0530 C   0  0  1  0  0  0
   18.0720   57.8620  123.9750 C   0  0  1  0  0  0
   16.6420   57.5040  124.3940 C   0  0  0  0  0  0
   22.1350   58.0630  123.4790 O   0  0  0  0  0  0
   20.8780   55.8100  122.9750 O   0  0  0  0  0  0
   17.8940   56.7650  121.8470 O   0  0  0  0  0  0
   18.8920   57.9750  125.1270 O   0  0  0  0  0  0
   15.7740   58.6060  124.2220 O   0  0  0  0  0  0
   15.4902   63.5688  142.8025 H   0  0  0  0  0  0
   13.4467   64.7931  141.3175 H   0  0  0  0  0  0
   14.3149   64.5360  138.8829 H   0  0  0  0  0  0
   16.9590   65.3696  138.8845 H   0  0  0  0  0  0
   17.1440   63.1519  140.8137 H   0  0  0  0  0  0
   18.7206   65.5076  139.7441 H   0  0  0  0  0  0
   19.0134   65.1148  141.4723 H   0  0  0  0  0  0
   13.2443   60.4764  140.4130 H   0  0  0  0  0  0
   11.8129   60.6202  141.4887 H   0  0  0  0  0  0
   13.3815   60.0493  142.1524 H   0  0  0  0  0  0
   14.1680   62.3753  139.8817 H   0  0  0  0  0  0
   13.8247   65.4070  143.5022 H   0  0  0  0  0  0
   13.7035   66.6931  140.0217 H   0  0  0  0  0  0
   20.5455   63.7424  139.9672 H   0  0  0  0  0  0
   16.9236   62.4955  136.8549 H   0  0  0  0  0  0
   19.0937   64.5305  137.7331 H   0  0  0  0  0  0
   19.0857   62.7236  135.1896 H   0  0  0  0  0  0
   20.6457   62.4417  137.8608 H   0  0  0  0  0  0
   18.3164   60.8801  136.4813 H   0  0  0  0  0  0
   18.9236   59.6983  138.9866 H   0  0  0  0  0  0
   18.9345   58.9598  137.3492 H   0  0  0  0  0  0
   19.0207   63.4517  134.6284 H   0  0  0  0  0  0
   19.2445   64.7495  133.4068 H   0  0  0  0  0  0
   17.7975   63.6876  133.3342 H   0  0  0  0  0  0
   17.2377   65.7823  136.7798 H   0  0  0  0  0  0
   20.0768   64.8525  134.8307 H   0  0  0  0  0  0
   21.2287   58.7994  138.4220 H   0  0  0  0  0  0
   22.5779   60.5329  135.3196 H   0  0  0  0  0  0
   21.8807   58.6563  136.9015 H   0  0  0  0  0  0
   22.9162   58.2883  134.5640 H   0  0  0  0  0  0
   20.1579   57.6158  133.5149 H   0  0  0  0  0  0
   20.5239   60.0981  132.4782 H   0  0  0  0  0  0
   18.6947   59.6488  134.9171 H   0  0  0  0  0  0
   18.4399   60.8167  133.5764 H   0  0  0  0  0  0
   19.5653   59.0413  137.2147 H   0  0  0  0  0  0
   22.3152   57.2410  132.2363 H   0  0  0  0  0  0
   23.2087   56.8365  133.4449 H   0  0  0  0  0  0
   21.9918   54.6541  133.0016 H   0  0  0  0  0  0
   21.9164   53.9540  135.4976 H   0  0  0  0  0  0
   24.8621   53.2115  134.7756 H   0  0  0  0  0  0
   23.8794   55.3930  136.6962 H   0  0  0  0  0  0
   26.1759   54.2245  137.0451 H   0  0  0  0  0  0
   26.6215   54.7462  135.3850 H   0  0  0  0  0  0
   21.4405   52.1680  133.9736 H   0  0  0  0  0  0
   23.8697   51.6947  136.4278 H   0  0  0  0  0  0
   27.4162   56.4453  137.1040 H   0  0  0  0  0  0
   22.9519   54.6864  131.2590 H   0  0  0  0  0  0
   24.3543   52.4970  131.1352 H   0  0  0  0  0  0
   26.5875   53.2219  131.8752 H   0  0  0  0  0  0
   26.6113   55.1496  129.4493 H   0  0  0  0  0  0
   26.1401   55.6911  132.4554 H   0  0  0  0  0  0
   27.5035   57.4531  131.3158 H   0  0  0  0  0  0
   26.3287   57.4933  129.9575 H   0  0  0  0  0  0
   26.6833   51.5596  130.0534 H   0  0  0  0  0  0
   28.8362   54.4092  130.1688 H   0  0  0  0  0  0
   25.7753   59.3051  131.6776 H   0  0  0  0  0  0
   22.3925   53.1538  129.7243 H   0  0  0  0  0  0
   23.5575   52.7828  127.2257 H   0  0  0  0  0  0
   24.0458   55.2684  127.0104 H   0  0  0  0  0  0
   20.9805   55.5355  126.8540 H   0  0  0  0  0  0
   22.0759   56.8937  129.0928 H   0  0  0  0  0  0
   19.7346   56.4344  129.1334 H   0  0  0  0  0  0
   19.9873   54.6846  128.8154 H   0  0  0  0  0  0
   21.2973   52.0392  127.8253 H   0  0  0  0  0  0
   23.6926   53.9805  124.9692 H   0  0  0  0  0  0
   22.4642   57.2440  125.7546 H   0  0  0  0  0  0
   19.5147   55.0905  131.2801 H   0  0  0  0  0  0
   16.7673   60.2215  132.6940 H   0  0  0  0  0  0
   15.8555   57.8873  133.4632 H   0  0  0  0  0  0
   17.7371   56.5642  132.2454 H   0  0  0  0  0  0
   16.0998   57.3892  129.7525 H   0  0  0  0  0  0
   18.9243   58.2236  130.7148 H   0  0  0  0  0  0
   18.5180   58.0161  128.1936 H   0  0  0  0  0  0
   17.1679   59.1876  128.3705 H   0  0  0  0  0  0
   14.2995   59.2266  132.2170 H   0  0  0  0  0  0
   17.1148   55.1827  129.5385 H   0  0  0  0  0  0
   16.8859   55.9139  133.8352 H   0  0  0  0  0  0
   16.9980   53.4279  133.0448 H   0  0  0  0  0  0
   14.5991   53.6726  132.0018 H   0  0  0  0  0  0
   13.5672   52.9871  134.7470 H   0  0  0  0  0  0
   13.0121   55.7139  134.4661 H   0  0  0  0  0  0
   13.5077   54.2906  136.5943 H   0  0  0  0  0  0
   15.2381   54.6734  136.3016 H   0  0  0  0  0  0
   17.2559   53.9169  135.4027 H   0  0  0  0  0  0
   15.6403   51.4850  132.2253 H   0  0  0  0  0  0
   12.1216   52.9194  132.7003 H   0  0  0  0  0  0
   14.1858   56.3904  137.8376 H   0  0  0  0  0  0
   18.3250   59.8065  126.8548 H   0  0  0  0  0  0
   20.9126   59.1307  127.0708 H   0  0  0  0  0  0
   22.4056   60.7386  127.4644 H   0  0  0  0  0  0
   21.5201   63.1789  127.8972 H   0  0  0  0  0  0
   19.0587   62.3168  129.0719 H   0  0  0  0  0  0
   19.5388   64.6782  128.4898 H   0  0  0  0  0  0
   19.7535   64.2439  126.7601 H   0  0  0  0  0  0
   22.3324   61.3453  125.0557 H   0  0  0  0  0  0
   22.3546   61.5537  129.6581 H   0  0  0  0  0  0
   17.3982   65.1233  127.1797 H   0  0  0  0  0  0
   20.7694   57.9088  125.6757 H   0  0  0  0  0  0
   20.4801   59.1104  122.9012 H   0  0  0  0  0  0
   20.2263   57.1523  121.6615 H   0  0  0  0  0  0
   18.4880   55.7929  123.5119 H   0  0  0  0  0  0
   18.1085   58.8493  123.4914 H   0  0  0  0  0  0
   16.2779   56.6683  123.7784 H   0  0  0  0  0  0
   16.6333   57.2097  125.4539 H   0  0  0  0  0  0
   22.7670   58.8262  123.9567 H   0  0  0  0  0  0
   21.9635   55.8083  122.7972 H   0  0  0  0  0  0
   18.1525   56.0482  121.0536 H   0  0  0  0  0  0
   14.7084   58.5121  124.4784 H   0  0  0  0  0  0
  1  2  1  0  0  0
  1 10  1  0  0  0
  1 13  1  0  0  0
  1118  1  0  0  0
  2  3  1  0  0  0
  2  9  1  0  0  0
  2119  1  0  0  0
  3  4  1  0  0  0
  3 11  1  0  0  0
  3120  1  0  0  0
  4  5  1  0  0  0
  4 12  1  0  0  0
  4121  1  0  0  0
  5  6  1  0  0  0
  5 13  1  0  0  0
  5122  1  0  0  0
  6 14  1  0  0  0
  6123  1  0  0  0
  6124  1  0  0  0
  7  8  1  0  0  0
  7  9  1  0  0  0
  7 15  2  0  0  0
  8125  1  0  0  0
  8126  1  0  0  0
  8127  1  0  0  0
  9128  1  0  0  0
 10129  1  0  0  0
 11130  1  0  0  0
 12 16  1  0  0  0
 14131  1  0  0  0
 16 17  1  0  0  0
 16 27  1  0  0  0
 16132  1  0  0  0
 17 18  1  0  0  0
 17 24  1  0  0  0
 17133  1  0  0  0
 18 19  1  0  0  0
 18 25  1  0  0  0
 18134  1  0  0  0
 19 20  1  0  0  0
 19 26  1  0  0  0
 19135  1  0  0  0
 20 21  1  0  0  0
 20 27  1  0  0  0
 20136  1  0  0  0
 21 28  1  0  0  0
 21137  1  0  0  0
 21138  1  0  0  0
 22 23  1  0  0  0
 22 24  1  0  0  0
 22 29  2  0  0  0
 23139  1  0  0  0
 23140  1  0  0  0
 23141  1  0  0  0
 24142  1  0  0  0
 25143  1  0  0  0
 26 30  1  0  0  0
 28144  1  0  0  0
 30 31  1  0  0  0
 30 39  1  0  0  0
 30145  1  0  0  0
 31 32  1  0  0  0
 31 36  1  0  0  0
 31146  1  0  0  0
 32 33  1  0  0  0
 32 37  1  0  0  0
 32147  1  0  0  0
 33 34  1  0  0  0
 33 38  1  0  0  0
 33148  1  0  0  0
 34 35  1  0  0  0
 34 39  1  0  0  0
 34149  1  0  0  0
 35 40  1  0  0  0
 35150  1  0  0  0
 35151  1  0  0  0
 36152  1  0  0  0
 37 41  1  0  0  0
 38153  1  0  0  0
 40 74  1  0  0  0
 41 42  1  0  0  0
 41 50  1  0  0  0
 41154  1  0  0  0
 42 43  1  0  0  0
 42 47  1  0  0  0
 42155  1  0  0  0
 43 44  1  0  0  0
 43 48  1  0  0  0
 43156  1  0  0  0
 44 45  1  0  0  0
 44 49  1  0  0  0
 44157  1  0  0  0
 45 46  1  0  0  0
 45 50  1  0  0  0
 45158  1  0  0  0
 46 51  1  0  0  0
 46159  1  0  0  0
 46160  1  0  0  0
 47 52  1  0  0  0
 48161  1  0  0  0
 49162  1  0  0  0
 51163  1  0  0  0
 52 53  1  0  0  0
 52 61  1  0  0  0
 52164  1  0  0  0
 53 54  1  0  0  0
 53 58  1  0  0  0
 53165  1  0  0  0
 54 55  1  0  0  0
 54 59  1  0  0  0
 54166  1  0  0  0
 55 56  1  0  0  0
 55 60  1  0  0  0
 55167  1  0  0  0
 56 57  1  0  0  0
 56 61  1  0  0  0
 56168  1  0  0  0
 57 62  1  0  0  0
 57169  1  0  0  0
 57170  1  0  0  0
 58 63  1  0  0  0
 59171  1  0  0  0
 60172  1  0  0  0
 62173  1  0  0  0
 63 64  1  0  0  0
 63 72  1  0  0  0
 63174  1  0  0  0
 64 65  1  0  0  0
 64 69  1  0  0  0
 64175  1  0  0  0
 65 66  1  0  0  0
 65 70  1  0  0  0
 65176  1  0  0  0
 66 67  1  0  0  0
 66 71  1  0  0  0
 66177  1  0  0  0
 67 68  1  0  0  0
 67 72  1  0  0  0
 67178  1  0  0  0
 68 73  1  0  0  0
 68179  1  0  0  0
 68180  1  0  0  0
 69181  1  0  0  0
 70182  1  0  0  0
 71183  1  0  0  0
 73184  1  0  0  0
 74 75  1  0  0  0
 74 83  1  0  0  0
 74185  1  0  0  0
 75 76  1  0  0  0
 75 80  1  0  0  0
 75186  1  0  0  0
 76 77  1  0  0  0
 76 81  1  0  0  0
 76187  1  0  0  0
 77 78  1  0  0  0
 77 82  1  0  0  0
 77188  1  0  0  0
 78 79  1  0  0  0
 78 83  1  0  0  0
 78189  1  0  0  0
 79 84  1  0  0  0
 79190  1  0  0  0
 79191  1  0  0  0
 80192  1  0  0  0
 81 85  1  0  0  0
 82193  1  0  0  0
 84 96  1  0  0  0
 85 86  1  0  0  0
 85 94  1  0  0  0
 85194  1  0  0  0
 86 87  1  0  0  0
 86 91  1  0  0  0
 86195  1  0  0  0
 87 88  1  0  0  0
 87 92  1  0  0  0
 87196  1  0  0  0
 88 89  1  0  0  0
 88 93  1  0  0  0
 88197  1  0  0  0
 89 90  1  0  0  0
 89 94  1  0  0  0
 89198  1  0  0  0
 90 95  1  0  0  0
 90199  1  0  0  0
 90200  1  0  0  0
 91201  1  0  0  0
 92202  1  0  0  0
 93203  1  0  0  0
 95204  1  0  0  0
 96 97  1  0  0  0
 96105  1  0  0  0
 96205  1  0  0  0
 97 98  1  0  0  0
 97102  1  0  0  0
 97206  1  0  0  0
 98 99  1  0  0  0
 98103  1  0  0  0
 98207  1  0  0  0
 99100  1  0  0  0
 99104  1  0  0  0
 99208  1  0  0  0
100101  1  0  0  0
100105  1  0  0  0
100209  1  0  0  0
101106  1  0  0  0
101210  1  0  0  0
101211  1  0  0  0
102107  1  0  0  0
103212  1  0  0  0
104213  1  0  0  0
106214  1  0  0  0
107108  1  0  0  0
107116  1  0  0  0
107215  1  0  0  0
108109  1  0  0  0
108113  1  0  0  0
108216  1  0  0  0
109110  1  0  0  0
109114  1  0  0  0
109217  1  0  0  0
110111  1  0  0  0
110115  1  0  0  0
110218  1  0  0  0
111112  1  0  0  0
111116  1  0  0  0
111219  1  0  0  0
112117  1  0  0  0
112220  1  0  0  0
112221  1  0  0  0
113222  1  0  0  0
114223  1  0  0  0
115224  1  0  0  0
117225  1  0  0  0
M  END
> <s_m_source_file>
../3gxz_ligand.sdf

> <i_m_source_file_index>
1

> <s_epik_input>
W0NIM11DKD1PKVtOSF1bQ0BASF0oW0NAQEhdMVtPSF0pW0NAQEhdKFtPSF0pW0NAQEhdKFtDQEhdKE8xKVtDSDJdW09IXSlPW0NASF0yW0NASF0oW05IXUMoPU8pW0NIM10pW0NAQEhdKFtPSF0pW0NAQEhdKFtDQEhdKE8yKVtDSDJdW09IXSlPW0NASF0zW0NAQEhdKFtPSF0pW0NAQEhdKE9bQ0BASF00W0NASF0oW0NAQEhdKFtPSF0pW0NASF0oW09IXSlbQ0BIXShPNClbQ0gyXVtPSF0pT1tDQEBIXTVbQ0BIXShbQ0BASF0oW09IXSlbQ0BIXShbT0hdKVtDQEhdKE81KVtDSDJdW09IXSlPW0NAQEhdNltDQEBIXShbT0hdKVtDQEBIXShbT0hdKVtDQEhdKFtPSF0pW0NASF0oTzYpW0NIMl1bT0hdKVtDQEhdKFtPSF0pW0NASF0oTzMpW0NIMl1PW0NAQEhdN1tDQEBIXShbT0hdKVtDQEBIXShPW0NAQEhdOFtDQEBIXShbT0hdKVtDQEBIXShbT0hdKVtDQEhdKFtPSF0pW0NASF0oTzgpW0NIMl1bT0hdKVtDQEhdKFtPSF0pW0NASF0oTzcpW0NIMl1PW0NAQEhdOVtDQEhdKFtDQEBIXShbT0hdKVtDQEhdKFtPSF0pW0NASF0oTzkpW0NIMl1bT0hdKU9bQ0BASF0xW0NAQEhdKFtPSF0pW0NAQEhdKFtPSF0pW0NASF0oW09IXSlbQ0BIXShPMSlbQ0gyXVtPSF0=

> <s_epik_cmdline>
J2VwaWtfYXBwJywgJy1pbWFlJywgJ2xpZ2FuZF9wcm8ubWFlJywgJy1vbWFlJywgJ2xpZ2FuZF9wcmVwLm1hZScsICctbXMnLCAnMScsICctcGgnLCAnNycsICctcGh0JywgJzAuNScsICctbnQn

> <s_epik_pKa_notes>
Molecule size exceeds maximum supported for generating protonation states

> <s_epik_Chemistry_Notes>
This compound contains an acetal/aminal-like group ( X-CH(R)-Y where X, Y are N, S, or O) that may be acid/base labile, releasing an aldehyde.

$$$$
