3gy2_ligand
                    3D
 Schrodinger Suite 2020-3.
 38 39  0  0  1  0            999 V2000
   -1.3590   15.3070   18.1730 C   0  0  0  0  0  0
   -1.4670   13.9260   18.2200 C   0  0  0  0  0  0
   -1.7290   13.2440   17.0460 C   0  0  0  0  0  0
   -1.8850   13.9480   15.8520 C   0  0  0  0  0  0
   -1.7850   15.3400   15.8080 C   0  0  0  0  0  0
   -1.5080   16.0210   16.9890 C   0  0  0  0  0  0
   -2.1850   13.1850   14.6090 C   0  0  0  0  0  0
   -2.8060   13.7420   13.6570 N   0  3  0  0  0  0
   -1.8170   11.9080   14.5290 N   0  0  0  0  0  0
   -1.1240   15.9530   19.3140 N   0  0  0  0  0  0
   -0.1060   16.7440   19.4670 N   0  0  0  0  0  0
   -0.2690   17.6320   20.3050 N   0  0  0  0  0  0
    0.7740   18.4940   20.5940 C   0  0  0  0  0  0
    1.9990   18.3640   19.9350 C   0  0  0  0  0  0
    3.0340   19.2290   20.2600 C   0  0  0  0  0  0
    2.8190   20.1830   21.2550 C   0  0  0  0  0  0
    1.5990   20.3020   21.9100 C   0  0  0  0  0  0
    0.5640   19.4460   21.5840 C   0  0  0  0  0  0
    3.9220   21.1130   21.6240 C   0  0  0  0  0  0
    4.7550   21.4260   20.7390 N   0  3  0  0  0  0
    4.0240   21.5830   22.8690 N   0  0  0  0  0  0
   -1.3481   13.3895   19.1614 H   0  0  0  0  0  0
   -1.8135   12.1573   17.0536 H   0  0  0  0  0  0
   -1.9207   15.8800   14.8709 H   0  0  0  0  0  0
   -1.4085   17.1064   16.9863 H   0  0  0  0  0  0
   -3.1035   14.7979   13.7376 H   0  0  0  0  0  0
   -1.2779   11.4376   15.3645 H   0  0  0  0  0  0
   -2.0521   11.3233   13.6274 H   0  0  0  0  0  0
   -1.2375   17.7346   20.8164 H   0  0  0  0  0  0
    2.1396   17.5940   19.1764 H   0  0  0  0  0  0
    3.9946   19.1646   19.7489 H   0  0  0  0  0  0
    1.4594   21.0652   22.6756 H   0  0  0  0  0  0
   -0.3972   19.5163   22.0931 H   0  0  0  0  0  0
    4.6507   21.0263   19.7195 H   0  0  0  0  0  0
    3.2820   21.2949   23.6282 H   0  0  0  0  0  0
    4.8501   22.2585   23.1359 H   0  0  0  0  0  0
   -3.0481   13.1701   12.7491 H   0  0  0  0  0  0
    5.5894   22.1000   20.9828 H   0  0  0  0  0  0
  1  2  2  0  0  0
  1  6  1  0  0  0
  1 10  1  0  0  0
  2  3  1  0  0  0
  2 22  1  0  0  0
  3  4  2  0  0  0
  3 23  1  0  0  0
  4  5  1  0  0  0
  4  7  1  0  0  0
  5  6  2  0  0  0
  5 24  1  0  0  0
  6 25  1  0  0  0
  7  8  2  0  0  0
  7  9  1  0  0  0
  8 26  1  0  0  0
  8 37  1  0  0  0
  9 27  1  0  0  0
  9 28  1  0  0  0
 10 11  2  0  0  0
 11 12  1  0  0  0
 12 13  1  0  0  0
 12 29  1  0  0  0
 13 14  2  0  0  0
 13 18  1  0  0  0
 14 15  1  0  0  0
 14 30  1  0  0  0
 15 16  2  0  0  0
 15 31  1  0  0  0
 16 17  1  0  0  0
 16 19  1  0  0  0
 17 18  2  0  0  0
 17 32  1  0  0  0
 18 33  1  0  0  0
 19 20  2  0  0  0
 19 21  1  0  0  0
 20 34  1  0  0  0
 20 38  1  0  0  0
 21 35  1  0  0  0
 21 36  1  0  0  0
M  CHG  2   8   1  20   1
M  END
> <s_m_source_file>
../3gy2_ligand.sdf

> <i_m_source_file_index>
1

> <s_epik_input>
W0hdXE49QyhbTkgyXSlcYyhbY0hdW2NIXTEpW2NIXVtjSF1jMS9OPU4vW05IXWMyW2NIXVtjSF1jKFtjSF1bY0hdMikvQyg9TlxbSF0pW05IMl0=

> <s_epik_cmdline>
J2VwaWtfYXBwJywgJy1pbWFlJywgJ2xpZ2FuZF9wcm8ubWFlJywgJy1vbWFlJywgJ2xpZ2FuZF9wcmVwLm1hZScsICctbXMnLCAnMScsICctcGgnLCAnNycsICctcGh0JywgJzAuNScsICctbnQn

> <r_lp_tautomer_probability>
1

> <r_epik_Ionization_Penalty>
  0.0006

> <r_epik_Ionization_Penalty_Charging>
  0.0006

> <r_epik_Ionization_Penalty_Neutral>
  0.0000

> <r_epik_State_Penalty>
 -0.0000

> <r_epik_Charging_Adjusted_Penalty>
0.0006231946369672

> <i_epik_Tot_Q>
2

> <i_epik_Tot_abs_Q>
2

> <s_epik_Chemistry_Notes>
This compound has an imine and may undergo hydrolysis.

$$$$
