3gy3_ligand
                    3D
 Schrodinger Suite 2020-3.
 51 52  0  0  1  0            999 V2000
   -9.6230   21.1830   50.0110 C   0  0  0  0  0  0
   -9.6360   19.9500   49.3440 C   0  0  0  0  0  0
   -9.1680   18.8130   49.9850 C   0  0  0  0  0  0
   -8.6880   18.9130   51.2910 C   0  0  0  0  0  0
   -8.6590   20.1490   51.9470 C   0  0  0  0  0  0
   -9.1160   21.2900   51.3060 C   0  0  0  0  0  0
  -10.6310   22.3540   48.1270 C   0  0  0  0  0  0
  -11.3130   23.7070   47.9560 C   0  0  0  0  0  0
   -8.1870   17.7040   52.0120 C   0  0  0  0  0  0
  -12.5790   23.8290   48.8010 C   0  0  0  0  0  0
  -13.3640   25.5950   51.6180 C   0  0  0  0  0  0
  -14.5970   26.2610   51.5370 C   0  0  0  0  0  0
  -15.6400   25.9190   52.3850 C   0  0  0  0  0  0
  -15.4450   24.9150   53.3170 C   0  0  0  0  0  0
  -14.2130   24.2490   53.4130 C   0  0  0  0  0  0
  -13.1620   24.5850   52.5550 C   0  0  0  0  0  0
  -12.5390   26.3230   49.4130 C   0  0  0  0  0  0
  -13.1980   25.2060   48.5920 C   0  0  0  0  0  0
  -16.5630   24.5160   54.2220 C   0  0  0  0  0  0
  -10.0520   22.3380   49.4220 O   0  0  0  0  0  0
  -12.3390   25.9400   50.7820 O   0  0  0  0  0  0
   -8.5890   16.5530   51.6950 N   0  3  0  0  0  0
   -7.3320   17.8570   53.0220 N   0  0  0  0  0  0
  -17.3890   25.3750   54.6390 N   0  3  0  0  0  0
  -16.6890   23.2220   54.5320 N   0  0  0  0  0  0
  -10.0133   19.8852   48.3234 H   0  0  0  0  0  0
   -9.1751   17.8505   49.4734 H   0  0  0  0  0  0
   -8.2758   20.2146   52.9653 H   0  0  0  0  0  0
   -9.0796   22.2574   51.8070 H   0  0  0  0  0  0
  -11.3771   21.5520   48.0263 H   0  0  0  0  0  0
   -9.8567   22.2335   47.3550 H   0  0  0  0  0  0
  -10.6220   24.5070   48.2604 H   0  0  0  0  0  0
  -11.5929   23.8459   46.9013 H   0  0  0  0  0  0
  -13.2981   23.0537   48.4981 H   0  0  0  0  0  0
  -12.3249   23.6984   49.8632 H   0  0  0  0  0  0
  -14.7360   27.0535   50.8016 H   0  0  0  0  0  0
  -16.5987   26.4333   52.3182 H   0  0  0  0  0  0
  -14.0755   23.4668   54.1595 H   0  0  0  0  0  0
  -12.2048   24.0675   52.6180 H   0  0  0  0  0  0
  -11.5584   26.5675   48.9787 H   0  0  0  0  0  0
  -13.1801   27.2167   49.3972 H   0  0  0  0  0  0
  -13.1115   25.4899   47.5328 H   0  0  0  0  0  0
  -14.2596   25.1781   48.8786 H   0  0  0  0  0  0
   -9.2950   16.4274   50.8609 H   0  0  0  0  0  0
   -6.9814   18.8623   53.2983 H   0  0  0  0  0  0
   -6.9766   16.9780   53.5797 H   0  0  0  0  0  0
  -17.2638   26.4343   54.3701 H   0  0  0  0  0  0
  -15.9563   22.4926   54.1564 H   0  0  0  0  0  0
  -17.5254   22.8864   55.1627 H   0  0  0  0  0  0
   -8.2340   15.6736   52.2523 H   0  0  0  0  0  0
  -18.2338   25.0641   55.2712 H   0  0  0  0  0  0
  1  2  2  0  0  0
  1  6  1  0  0  0
  1 20  1  0  0  0
  2  3  1  0  0  0
  2 26  1  0  0  0
  3  4  2  0  0  0
  3 27  1  0  0  0
  4  5  1  0  0  0
  4  9  1  0  0  0
  5  6  2  0  0  0
  5 28  1  0  0  0
  6 29  1  0  0  0
  7  8  1  0  0  0
  7 20  1  0  0  0
  7 30  1  0  0  0
  7 31  1  0  0  0
  8 10  1  0  0  0
  8 32  1  0  0  0
  8 33  1  0  0  0
  9 22  2  0  0  0
  9 23  1  0  0  0
 10 18  1  0  0  0
 10 34  1  0  0  0
 10 35  1  0  0  0
 11 12  2  0  0  0
 11 16  1  0  0  0
 11 21  1  0  0  0
 12 13  1  0  0  0
 12 36  1  0  0  0
 13 14  2  0  0  0
 13 37  1  0  0  0
 14 15  1  0  0  0
 14 19  1  0  0  0
 15 16  2  0  0  0
 15 38  1  0  0  0
 16 39  1  0  0  0
 17 18  1  0  0  0
 17 21  1  0  0  0
 17 40  1  0  0  0
 17 41  1  0  0  0
 18 42  1  0  0  0
 18 43  1  0  0  0
 19 24  2  0  0  0
 19 25  1  0  0  0
 22 44  1  0  0  0
 22 50  1  0  0  0
 23 45  1  0  0  0
 23 46  1  0  0  0
 24 47  1  0  0  0
 24 51  1  0  0  0
 25 48  1  0  0  0
 25 49  1  0  0  0
M  CHG  2  22   1  24   1
M  END
> <s_m_source_file>
../3gy3_ligand.sdf

> <i_m_source_file_index>
1

> <s_epik_input>
W0hdXE49QyhbTkgyXSlcYyhbY0hdW2NIXTEpW2NIXVtjSF1jMU9bQ0gyXVtDSDJdW0NIMl1bQ0gyXVtDSDJdT2MyW2NIXVtjSF1jKFtjSF1bY0hdMikvQyg9TlxbSF0pW05IMl0=

> <s_epik_cmdline>
J2VwaWtfYXBwJywgJy1pbWFlJywgJ2xpZ2FuZF9wcm8ubWFlJywgJy1vbWFlJywgJ2xpZ2FuZF9wcmVwLm1hZScsICctbXMnLCAnMScsICctcGgnLCAnNycsICctcGh0JywgJzAuNScsICctbnQn

> <r_lp_tautomer_probability>
1

> <r_epik_Ionization_Penalty>
  0.0002

> <r_epik_Ionization_Penalty_Charging>
  0.0002

> <r_epik_Ionization_Penalty_Neutral>
  0.0000

> <r_epik_State_Penalty>
 -0.0000

> <r_epik_Charging_Adjusted_Penalty>
0.000150897695684095

> <i_epik_Tot_Q>
2

> <i_epik_Tot_abs_Q>
2

> <s_epik_Chemistry_Notes>
This compound has an imine and may undergo hydrolysis.

$$$$
