3gy7_ligand
                    3D
 Schrodinger Suite 2020-3.
 18 18  0  0  1  0            999 V2000
   -1.8340   14.0880   16.4010 C   0  0  0  0  0  0
   -1.2040   13.4690   17.4820 C   0  0  0  0  0  0
   -0.8720   14.1820   18.6280 C   0  0  0  0  0  0
   -1.1670   15.5370   18.7190 C   0  0  0  0  0  0
   -1.7900   16.1650   17.6420 C   0  0  0  0  0  0
   -2.1330   15.4490   16.4910 C   0  0  0  0  0  0
   -2.1740   13.3630   15.2370 C   0  0  0  0  0  0
   -2.9450   13.8830   14.3060 N   0  0  0  0  0  0
   -1.7370   12.1440   15.0050 N   0  3  0  0  0  0
   -0.9679   12.4063   17.4263 H   0  0  0  0  0  0
   -0.3786   13.6766   19.4582 H   0  0  0  0  0  0
   -0.9152   16.0995   19.6181 H   0  0  0  0  0  0
   -2.0132   17.2304   17.6978 H   0  0  0  0  0  0
   -2.6336   15.9531   15.6643 H   0  0  0  0  0  0
   -3.3485   14.8988   14.4301 H   0  0  0  0  0  0
   -3.1860   13.3019   13.4037 H   0  0  0  0  0  0
   -1.0874   11.6437   15.7383 H   0  0  0  0  0  0
   -2.0212   11.6250   14.0777 H   0  0  0  0  0  0
  1  2  2  0  0  0
  1  6  1  0  0  0
  1  7  1  0  0  0
  2  3  1  0  0  0
  2 10  1  0  0  0
  3  4  2  0  0  0
  3 11  1  0  0  0
  4  5  1  0  0  0
  4 12  1  0  0  0
  5  6  2  0  0  0
  5 13  1  0  0  0
  6 14  1  0  0  0
  7  8  1  0  0  0
  7  9  2  0  0  0
  8 15  1  0  0  0
  8 16  1  0  0  0
  9 17  1  0  0  0
  9 18  1  0  0  0
M  CHG  1   9   1
M  END
> <s_m_source_file>
../3gy7_ligand.sdf

> <i_m_source_file_index>
1

> <s_epik_input>
W0hdXE49QyhbTkgyXSlcYzFbY0hdW2NIXVtjSF1bY0hdW2NIXTE=

> <s_epik_cmdline>
J2VwaWtfYXBwJywgJy1pbWFlJywgJ2xpZ2FuZF9wcm8ubWFlJywgJy1vbWFlJywgJ2xpZ2FuZF9wcmVwLm1hZScsICctbXMnLCAnMScsICctcGgnLCAnNycsICctcGh0JywgJzAuNScsICctbnQn

> <r_lp_tautomer_probability>
1

> <r_epik_Ionization_Penalty>
  0.0003

> <r_epik_Ionization_Penalty_Charging>
  0.0003

> <r_epik_Ionization_Penalty_Neutral>
  0.0000

> <r_epik_State_Penalty>
 -0.0000

> <r_epik_Charging_Adjusted_Penalty>
0.0003115973184836

> <i_epik_Tot_Q>
1

> <i_epik_Tot_abs_Q>
1

> <s_epik_Chemistry_Notes>
This compound has an imine and may undergo hydrolysis.

$$$$
