3gyn_ligand
                    3D
 Schrodinger Suite 2020-3.
 69 72  0  0  1  0            999 V2000
   95.8800    7.0940   63.7860 O   0  0  0  0  0  0
   96.4120    8.3350   64.3280 S   0  0  0  0  0  0
   95.9970    8.7650   65.6400 O   0  0  0  0  0  0
   98.1850    8.2380   64.4260 C   0  0  0  0  0  0
   96.2480    9.6440   63.2180 N   0  0  0  0  0  0
   96.0730    9.4350   61.8080 C   0  0  0  0  0  0
   95.3600   10.3820   61.0690 C   0  0  0  0  0  0
   96.6090    8.3140   61.1530 C   0  0  0  0  0  0
   96.4260    8.1500   59.7730 C   0  0  0  0  0  0
   97.0830    6.7200   58.9770 S   0  0  0  0  0  0
   98.4090    6.4840   59.4990 O   0  0  0  0  0  0
   96.0370    5.7210   59.1000 O   0  0  0  0  0  0
   97.1570    7.2590   57.3750 N   0  0  0  0  0  0
   96.3400    8.3230   56.9020 C   0  0  0  0  0  0
   95.4890    8.9840   57.6300 N   0  0  0  0  0  0
   95.7040    9.0870   59.0170 C   0  0  0  0  0  0
   95.1820   10.2130   59.6880 C   0  0  0  0  0  0
   96.5490    8.6450   55.4730 C   0  0  0  0  0  0
   97.1590    7.6460   54.5120 C   0  0  0  0  0  0
   97.0210    6.4350   54.7100 O   0  0  0  0  0  0
   97.8450    8.1930   53.4260 N   0  0  0  0  0  0
   98.5510    7.3160   52.4870 C   0  0  0  0  0  0
   99.9500    7.7820   52.0590 C   0  0  0  0  0  0
  100.0940    7.3780   50.5910 C   0  0  0  0  0  0
   97.7500    7.0720   51.2080 C   0  0  0  0  0  0
   98.6740    7.3720   50.0330 C   0  0  0  0  0  0
   97.8630    9.6430   53.1890 C   0  0  0  0  0  0
   96.5530   10.3410   53.6060 C   0  0  2  0  0  0
   96.7950   11.8730   53.5220 C   0  0  0  0  0  0
   96.1980    9.8690   55.0180 C   0  0  0  0  0  0
   95.5090   10.7900   55.7900 O   0  5  0  0  0  0
   95.4340    9.9230   52.6220 C   0  0  0  0  0  0
   94.0570   10.4720   52.9820 C   0  0  0  0  0  0
   92.8980    9.7250   52.3000 C   0  0  0  0  0  0
   91.5600   10.1440   52.9050 C   0  0  0  0  0  0
   92.9020    9.9870   50.7860 C   0  0  0  0  0  0
   98.4704    7.4286   65.1140 H   0  0  0  0  0  0
   98.5845    9.1931   64.7977 H   0  0  0  0  0  0
   98.5967    8.0323   63.4269 H   0  0  0  0  0  0
   96.2758   10.6813   63.5829 H   0  0  0  0  0  0
   94.9403   11.2557   61.5675 H   0  0  0  0  0  0
   97.1687    7.5696   61.7193 H   0  0  0  0  0  0
   94.6307   10.9648   59.1233 H   0  0  0  0  0  0
   98.6393    6.4173   53.1151 H   0  0  0  0  0  0
  100.0267    8.8724   52.1818 H   0  0  0  0  0  0
  100.7083    7.2883   52.6846 H   0  0  0  0  0  0
  100.7288    8.1098   50.0699 H   0  0  0  0  0  0
  100.5559    6.3816   50.5285 H   0  0  0  0  0  0
   97.4152    6.0246   51.1793 H   0  0  0  0  0  0
   96.8743    7.7374   51.1912 H   0  0  0  0  0  0
   98.4478    8.3556   49.5955 H   0  0  0  0  0  0
   98.5882    6.5971   49.2570 H   0  0  0  0  0  0
   98.6812   10.0987   53.7659 H   0  0  0  0  0  0
   98.0173    9.8375   52.1174 H   0  0  0  0  0  0
   97.5916   12.1575   54.2252 H   0  0  0  0  0  0
   95.8684   12.4054   53.7827 H   0  0  0  0  0  0
   97.0964   12.1410   52.4986 H   0  0  0  0  0  0
   95.6769   10.2892   51.6136 H   0  0  0  0  0  0
   95.3524    8.8262   52.6039 H   0  0  0  0  0  0
   93.9037   10.3938   54.0685 H   0  0  0  0  0  0
   93.9918   11.5270   52.6775 H   0  0  0  0  0  0
   93.0302    8.6465   52.4714 H   0  0  0  0  0  0
   91.5708    9.9512   53.9879 H   0  0  0  0  0  0
   90.7492    9.5658   52.4377 H   0  0  0  0  0  0
   91.3962   11.2168   52.7251 H   0  0  0  0  0  0
   93.8705    9.6810   50.3635 H   0  0  0  0  0  0
   92.7427   11.0592   50.5990 H   0  0  0  0  0  0
   92.0957    9.4083   50.3116 H   0  0  0  0  0  0
   94.6128    9.4551   57.1605 H   0  0  0  0  0  0
  1  2  2  0  0  0
  2  3  2  0  0  0
  2  4  1  0  0  0
  2  5  1  0  0  0
  4 37  1  0  0  0
  4 38  1  0  0  0
  4 39  1  0  0  0
  5  6  1  0  0  0
  5 40  1  0  0  0
  6  7  2  0  0  0
  6  8  1  0  0  0
  7 17  1  0  0  0
  7 41  1  0  0  0
  8  9  2  0  0  0
  8 42  1  0  0  0
  9 10  1  0  0  0
  9 16  1  0  0  0
 10 11  2  0  0  0
 10 12  2  0  0  0
 10 13  1  0  0  0
 13 14  2  0  0  0
 14 15  1  0  0  0
 14 18  1  0  0  0
 15 16  1  0  0  0
 15 69  1  0  0  0
 16 17  2  0  0  0
 17 43  1  0  0  0
 18 19  1  0  0  0
 18 30  2  0  0  0
 19 20  2  0  0  0
 19 21  1  0  0  0
 21 22  1  0  0  0
 21 27  1  0  0  0
 22 23  1  0  0  0
 22 25  1  0  0  0
 22 44  1  0  0  0
 23 24  1  0  0  0
 23 45  1  0  0  0
 23 46  1  0  0  0
 24 26  1  0  0  0
 24 47  1  0  0  0
 24 48  1  0  0  0
 25 26  1  0  0  0
 25 49  1  0  0  0
 25 50  1  0  0  0
 26 51  1  0  0  0
 26 52  1  0  0  0
 27 28  1  0  0  0
 27 53  1  0  0  0
 27 54  1  0  0  0
 28 29  1  0  0  0
 28 30  1  0  0  0
 28 32  1  0  0  0
 29 55  1  0  0  0
 29 56  1  0  0  0
 29 57  1  0  0  0
 30 31  1  0  0  0
 32 33  1  0  0  0
 32 58  1  0  0  0
 32 59  1  0  0  0
 33 34  1  0  0  0
 33 60  1  0  0  0
 33 61  1  0  0  0
 34 35  1  0  0  0
 34 36  1  0  0  0
 34 62  1  0  0  0
 35 63  1  0  0  0
 35 64  1  0  0  0
 35 65  1  0  0  0
 36 66  1  0  0  0
 36 67  1  0  0  0
 36 68  1  0  0  0
M  CHG  1  31  -1
M  END
> <s_m_source_file>
../3gyn_ligand.sdf

> <i_m_source_file_index>
1

> <s_epik_input>
Tz1TKD1PKShbQ0gzXSlbTkhdYyhbY0hdMSlbY0hdW2NIXWMoYzEyKU49QyhbTkhdUzIoPU8pPU8pQyg9QzNbT0hdKUMoPU8pTihbQ0hdNFtDSDJdW0NIMl1bQ0gyXVtDSDJdNClbQ0gyXVtDQEBdMyhbQ0gzXSlbQ0gyXVtDSDJdW0NIXShbQ0gzXSlbQ0gzXQ==

> <s_epik_cmdline>
J2VwaWtfYXBwJywgJy1pbWFlJywgJ2xpZ2FuZF9wcm8ubWFlJywgJy1vbWFlJywgJ2xpZ2FuZF9wcmVwLm1hZScsICctbXMnLCAnMScsICctcGgnLCAnNycsICctcGh0JywgJzAuNScsICctbnQn

> <r_lp_tautomer_probability>
1

> <r_epik_Ionization_Penalty>
  0.0751

> <r_epik_Ionization_Penalty_Charging>
  0.0523

> <r_epik_Ionization_Penalty_Neutral>
  0.0229

> <r_epik_State_Penalty>
 -0.0000

> <r_epik_Charging_Adjusted_Penalty>
0.0522746962953227

> <i_epik_Tot_Q>
-1

> <i_epik_Tot_abs_Q>
1

> <s_epik_Chemistry_Notes>
This compound has an imine and may undergo hydrolysis.

$$$$
