3gzn_ligand
                    3D
 Schrodinger Suite 2020-3.
 56 60  0  0  1  0            999 V2000
    8.5800   73.2300  -25.4140 C   0  0  1  0  0  0
   10.1090   73.2160  -25.1580 C   0  0  0  0  0  0
   10.2850   72.6570  -23.7390 C   0  0  1  0  0  0
   11.5860   73.1820  -23.0930 C   0  0  0  0  0  0
    7.9010   70.2450  -27.3080 C   0  0  0  0  0  0
    7.3390   72.3500  -27.4280 C   0  0  0  0  0  0
    5.9590   73.2950  -29.0720 C   0  0  0  0  0  0
    6.3860   71.0090  -29.1870 C   0  0  0  0  0  0
    5.5140   67.8650  -28.5080 C   0  0  0  0  0  0
    6.5830   67.5450  -30.6010 C   0  0  0  0  0  0
    6.1450   66.2860  -30.1530 C   0  0  0  0  0  0
    6.4210   65.4170  -32.3740 C   0  0  0  0  0  0
    6.9430   67.7350  -31.9350 C   0  0  0  0  0  0
    5.8220   66.3810  -28.6590 C   0  0  0  0  0  0
    6.0640   65.2210  -31.0430 C   0  0  0  0  0  0
    6.8570   66.6640  -32.8230 C   0  0  0  0  0  0
    6.5720   68.5010  -29.4090 C   0  0  1  0  0  0
    6.1730   69.8550  -29.8550 N   0  0  0  0  0  0
    5.7950   72.1250  -29.6730 N   0  0  0  0  0  0
    6.7090   73.4130  -27.9720 N   0  0  0  0  0  0
    7.1860   71.1100  -28.0330 C   0  0  0  0  0  0
    8.4850   70.8870  -26.2940 C   0  0  0  0  0  0
    8.1450   72.1710  -26.3710 N   0  0  0  0  0  0
    7.9100   73.0320  -24.0410 C   0  0  0  0  0  0
    9.0240   73.1210  -22.9990 C   0  0  2  0  0  0
    9.1620   74.4740  -22.5970 O   0  0  0  0  0  0
   11.7750   72.5750  -21.8130 O   0  0  0  0  0  0
   12.9320   72.7020  -20.9710 S   0  0  0  0  0  0
   13.0530   74.1010  -20.4560 O   0  0  0  0  0  0
   12.7530   71.7840  -19.8030 O   0  0  0  0  0  0
   14.3130   72.2840  -21.7500 N   0  0  0  0  0  0
    8.2688   74.1627  -25.9072 H   0  0  0  0  0  0
   10.6000   72.5750  -25.9051 H   0  0  0  0  0  0
   10.5035   74.2398  -25.2373 H   0  0  0  0  0  0
   10.3812   71.5615  -23.7156 H   0  0  0  0  0  0
   12.4413   72.9369  -23.7398 H   0  0  0  0  0  0
   11.5200   74.2731  -22.9701 H   0  0  0  0  0  0
    7.9932   69.1785  -27.5132 H   0  0  0  0  0  0
    5.4721   74.1792  -29.4834 H   0  0  0  0  0  0
    4.4855   68.0621  -28.8448 H   0  0  0  0  0  0
    5.6159   68.1550  -27.4518 H   0  0  0  0  0  0
    6.3591   64.5848  -33.0752 H   0  0  0  0  0  0
    7.2877   68.7101  -32.2793 H   0  0  0  0  0  0
    6.6715   66.1152  -28.0127 H   0  0  0  0  0  0
    4.9403   65.7919  -28.3664 H   0  0  0  0  0  0
    5.7245   64.2429  -30.7021 H   0  0  0  0  0  0
    7.1306   66.8008  -33.8692 H   0  0  0  0  0  0
    7.5417   68.6606  -28.9148 H   0  0  0  0  0  0
    5.6509   69.9865  -30.8142 H   0  0  0  0  0  0
    9.1274   70.4384  -25.5362 H   0  0  0  0  0  0
    7.1590   73.8200  -23.8824 H   0  0  0  0  0  0
    7.4204   72.0474  -24.0105 H   0  0  0  0  0  0
    8.8305   72.5779  -22.0622 H   0  0  0  0  0  0
    9.9173   74.7505  -21.8466 H   0  0  0  0  0  0
   15.1678   72.3973  -21.0671 H   0  0  0  0  0  0
   14.4529   72.9370  -22.6241 H   0  0  0  0  0  0
  1  2  1  0  0  0
  1 23  1  0  0  0
  1 24  1  0  0  0
  1 32  1  0  0  0
  2  3  1  0  0  0
  2 33  1  0  0  0
  2 34  1  0  0  0
  3  4  1  0  0  0
  3 25  1  0  0  0
  3 35  1  0  0  0
  4 27  1  0  0  0
  4 36  1  0  0  0
  4 37  1  0  0  0
  5 21  1  0  0  0
  5 22  2  0  0  0
  5 38  1  0  0  0
  6 20  1  0  0  0
  6 21  2  0  0  0
  6 23  1  0  0  0
  7 19  1  0  0  0
  7 20  2  0  0  0
  7 39  1  0  0  0
  8 18  1  0  0  0
  8 19  2  0  0  0
  8 21  1  0  0  0
  9 14  1  0  0  0
  9 17  1  0  0  0
  9 40  1  0  0  0
  9 41  1  0  0  0
 10 11  2  0  0  0
 10 13  1  0  0  0
 10 17  1  0  0  0
 11 14  1  0  0  0
 11 15  1  0  0  0
 12 15  2  0  0  0
 12 16  1  0  0  0
 12 42  1  0  0  0
 13 16  2  0  0  0
 13 43  1  0  0  0
 14 44  1  0  0  0
 14 45  1  0  0  0
 15 46  1  0  0  0
 16 47  1  0  0  0
 17 18  1  0  0  0
 17 48  1  0  0  0
 18 49  1  0  0  0
 22 23  1  0  0  0
 22 50  1  0  0  0
 24 25  1  0  0  0
 24 51  1  0  0  0
 24 52  1  0  0  0
 25 26  1  0  0  0
 25 53  1  0  0  0
 26 54  1  0  0  0
 27 28  1  0  0  0
 28 29  2  0  0  0
 28 30  2  0  0  0
 28 31  1  0  0  0
 31 55  1  0  0  0
 31 56  1  0  0  0
M  END
> <s_m_source_file>
../3gzn_ligand.sdf

> <i_m_source_file_index>
1

> <s_epik_input>
Tz1TKD1PKShbTkgyXSlPW0NIMl1bQ0BASF0oW0NASF0oW0NIMl0xKVtPSF0pW0NIMl1bQ0BIXTFuMltjSF1bY0hdYyhjMjMpYyhuW2NIXW4zKVtOSF1bQ0BIXTRbQ0gyXVtDSDJdYyhjNDUpW2NIXVtjSF1bY0hdW2NIXTU=

> <s_epik_cmdline>
J2VwaWtfYXBwJywgJy1pbWFlJywgJ2xpZ2FuZF9wcm8ubWFlJywgJy1vbWFlJywgJ2xpZ2FuZF9wcmVwLm1hZScsICctbXMnLCAnMScsICctcGgnLCAnNycsICctcGh0JywgJzAuNScsICctbnQn

> <r_lp_tautomer_probability>
1

> <r_epik_Ionization_Penalty>
  0.0111

> <r_epik_Ionization_Penalty_Charging>
  0.0000

> <r_epik_Ionization_Penalty_Neutral>
  0.0111

> <r_epik_State_Penalty>
 -0.0000

> <r_epik_Charging_Adjusted_Penalty>
0

> <i_epik_Tot_Q>
0

> <i_epik_Tot_abs_Q>
0

$$$$
