3h03_ligand
                    3D
 Schrodinger Suite 2020-3.
 31 31  0  0  1  0            999 V2000
   21.5620   -2.3380   22.0240 N   0  0  0  0  0  0
   22.6370   -2.6700   21.1380 C   0  0  0  0  0  0
   22.3590   -2.9250   19.9310 O   0  0  0  0  0  0
   23.9910   -2.7000   21.5770 N   0  0  0  0  0  0
   24.1850   -2.3680   22.9670 C   0  0  0  0  0  0
   25.3360   -2.3590   23.4520 O   0  0  0  0  0  0
   23.1650   -2.0480   23.8300 C   0  0  0  0  0  0
   21.8870   -2.0400   23.3490 C   0  0  0  0  0  0
   20.1610   -2.3070   21.5610 C   0  0  0  0  0  0
   19.8870   -1.0010   20.7820 C   0  0  2  0  0  0
   20.2540    0.1680   21.7070 N   0  3  0  0  0  0
   18.4130   -0.9800   20.3680 C   0  0  0  0  0  0
   17.7820   -0.0460   20.8530 O   0  5  0  0  0  0
   17.9540   -1.8060   19.6420 O   0  0  0  0  0  0
   24.9720   -3.0750   20.5000 C   0  0  0  0  0  0
   26.4730   -3.1840   20.7200 C   0  0  0  0  0  0
   27.1730   -3.5670   19.4550 C   0  0  0  0  0  0
   27.1930   -2.7680   18.5390 O   0  5  0  0  0  0
   27.6720   -4.6720   19.3940 O   0  0  0  0  0  0
   23.3708   -1.8065   24.8728 H   0  0  0  0  0  0
   21.0784   -1.7879   24.0351 H   0  0  0  0  0  0
   19.9739   -3.1667   20.9008 H   0  0  0  0  0  0
   19.4868   -2.3575   22.4287 H   0  0  0  0  0  0
   20.4820   -0.9181   19.8605 H   0  0  0  0  0  0
   21.3196    0.1048   21.9727 H   0  0  0  0  0  0
   19.6445    0.1174   22.6213 H   0  0  0  0  0  0
   20.0609    1.1194   21.1898 H   0  0  0  0  0  0
   24.7272   -4.0752   20.1132 H   0  0  0  0  0  0
   24.9164   -2.3418   19.6819 H   0  0  0  0  0  0
   26.8650   -2.2143   21.0607 H   0  0  0  0  0  0
   26.6772   -3.9503   21.4823 H   0  0  0  0  0  0
  1  2  1  0  0  0
  1  8  1  0  0  0
  1  9  1  0  0  0
  2  3  2  0  0  0
  2  4  1  0  0  0
  4  5  1  0  0  0
  4 15  1  0  0  0
  5  6  2  0  0  0
  5  7  1  0  0  0
  7  8  2  0  0  0
  7 20  1  0  0  0
  8 21  1  0  0  0
  9 10  1  0  0  0
  9 22  1  0  0  0
  9 23  1  0  0  0
 10 11  1  0  0  0
 10 12  1  0  0  0
 10 24  1  0  0  0
 11 25  1  0  0  0
 11 26  1  0  0  0
 11 27  1  0  0  0
 12 13  1  0  0  0
 12 14  2  0  0  0
 15 16  1  0  0  0
 15 28  1  0  0  0
 15 29  1  0  0  0
 16 17  1  0  0  0
 16 30  1  0  0  0
 16 31  1  0  0  0
 17 18  1  0  0  0
 17 19  2  0  0  0
M  CHG  3  11   1  13  -1  18  -1
M  END
> <s_m_source_file>
../3h03_ligand.sdf

> <i_m_source_file_index>
1

> <s_epik_input>
W09IXUMoPU8pW0NAQEhdKFtOSDMrXSlbQ0gyXW4xYyg9TyluKGMoPU8pW2NIXVtjSF0xKVtDSDJdW0NIMl1DKD1PKVtPSF0=

> <s_epik_cmdline>
J2VwaWtfYXBwJywgJy1pbWFlJywgJ2xpZ2FuZF9wcm8ubWFlJywgJy1vbWFlJywgJ2xpZ2FuZF9wcmVwLm1hZScsICctbXMnLCAnMScsICctcGgnLCAnNycsICctcGh0JywgJzAuNScsICctbnQn

> <r_lp_tautomer_probability>
1

> <r_epik_Ionization_Penalty>
  0.0356

> <r_epik_Ionization_Penalty_Charging>
  0.0356

> <r_epik_Ionization_Penalty_Neutral>
  0.0000

> <r_epik_State_Penalty>
  0.0274

> <r_epik_Charging_Adjusted_Penalty>
0.062990519144851

> <i_epik_Tot_Q>
-1

> <i_epik_Tot_abs_Q>
3

$$$$
