3h06_ligand
                    3D
 Schrodinger Suite 2020-3.
 53 54  0  0  1  0            999 V2000
   34.4200  -22.5340  -34.1430 C   0  0  0  0  0  0
   34.4900  -21.2200  -34.8740 C   0  0  1  0  0  0
   33.3900  -20.1720  -34.6740 C   0  0  0  0  0  0
   33.4630  -18.8160  -35.4230 C   0  0  0  0  0  0
   34.6350  -18.5250  -36.3630 C   0  0  3  0  0  0
   35.7400  -19.5940  -36.5570 C   0  0  0  0  0  0
   35.6770  -20.9490  -35.8130 C   0  0  0  0  0  0
   34.7150  -17.1990  -37.1000 C   0  0  0  0  0  0
   33.0280  -23.9510  -35.8460 C   0  0  3  0  0  0
   30.5160  -25.3840  -39.5530 C   0  0  0  0  0  0
   29.7490  -23.7760  -37.7920 N   0  3  0  0  0  0
   30.8830  -24.4780  -38.3830 C   0  0  1  0  0  0
   31.5090  -25.3790  -37.3420 C   0  0  0  0  0  0
   31.8100  -24.8070  -36.0750 N   0  0  3  0  0  0
   30.8690  -25.0820  -34.9500 C   0  0  0  0  0  0
   31.1060  -24.5200  -33.5850 C   0  0  0  0  0  0
   32.3300  -23.6540  -33.3470 C   0  0  2  0  0  0
   32.5660  -23.1180  -32.0750 O   0  0  0  0  0  0
   33.2860  -23.3680  -34.4690 N   0  0  3  0  0  0
   34.0400  -17.0750  -38.0790 O   0  0  0  0  0  0
   35.6480  -16.3030  -36.4720 O   0  5  0  0  0  0
   33.8980  -23.6970  -36.8740 O   0  0  0  0  0  0
   31.3490  -25.5240  -40.3600 O   0  0  0  0  0  0
   29.3250  -24.9700  -40.1620 O   0  0  0  0  0  0
   35.3174  -23.1282  -34.3702 H   0  0  0  0  0  0
   34.3674  -22.3488  -33.0600 H   0  0  0  0  0  0
   33.9234  -21.6551  -35.7104 H   0  0  0  0  0  0
   32.4218  -20.5933  -34.9824 H   0  0  0  0  0  0
   33.3442  -19.8864  -33.6127 H   0  0  0  0  0  0
   32.5746  -18.7015  -36.0615 H   0  0  0  0  0  0
   33.4975  -17.9947  -34.6920 H   0  0  0  0  0  0
   35.2004  -18.0928  -35.5242 H   0  0  0  0  0  0
   35.7857  -19.8859  -37.6166 H   0  0  0  0  0  0
   36.7107  -19.1781  -36.2491 H   0  0  0  0  0  0
   36.6154  -20.9975  -35.2411 H   0  0  0  0  0  0
   35.6941  -21.7065  -36.6104 H   0  0  0  0  0  0
   32.4495  -23.0554  -36.1168 H   0  0  0  0  0  0
   30.5078  -26.4608  -39.3285 H   0  0  0  0  0  0
   29.2908  -23.1194  -38.5462 H   0  0  0  0  0  0
   30.0953  -23.1711  -36.9410 H   0  0  0  0  0  0
   29.0059  -24.5082  -37.4431 H   0  0  0  0  0  0
   31.5319  -23.6585  -38.7256 H   0  0  0  0  0  0
   30.8313  -26.2188  -37.1286 H   0  0  0  0  0  0
   32.4660  -25.7673  -37.7208 H   0  0  0  0  0  0
   29.8684  -24.7051  -35.2085 H   0  0  0  0  0  0
   30.8176  -26.1662  -34.7717 H   0  0  0  0  0  0
   30.2571  -23.8816  -33.2989 H   0  0  0  0  0  0
   31.2060  -25.3429  -32.8619 H   0  0  0  0  0  0
   31.7494  -22.7594  -33.6163 H   0  0  0  0  0  0
   31.8667  -23.3265  -31.2519 H   0  0  0  0  0  0
   32.3565  -25.8481  -40.0600 H   0  0  0  0  0  0
   28.4289  -24.7883  -39.5505 H   0  0  0  0  0  0
   33.7093  -24.1205  -37.8715 H   0  0  0  0  0  0
  1  2  1  0  0  0
  1 19  1  0  0  0
  1 25  1  0  0  0
  1 26  1  0  0  0
  2  3  1  0  0  0
  2  7  1  0  0  0
  2 27  1  0  0  0
  3  4  1  0  0  0
  3 28  1  0  0  0
  3 29  1  0  0  0
  4  5  1  0  0  0
  4 30  1  0  0  0
  4 31  1  0  0  0
  5  6  1  0  0  0
  5  8  1  0  0  0
  5 32  1  0  0  0
  6  7  1  0  0  0
  6 33  1  0  0  0
  6 34  1  0  0  0
  7 35  1  0  0  0
  7 36  1  0  0  0
  8 20  2  0  0  0
  8 21  1  0  0  0
  9 14  1  0  0  0
  9 19  1  0  0  0
  9 22  1  0  0  0
  9 37  1  0  0  0
 10 12  1  0  0  0
 10 23  1  0  0  0
 10 24  1  0  0  0
 10 38  1  0  0  0
 11 12  1  0  0  0
 11 39  1  0  0  0
 11 40  1  0  0  0
 11 41  1  0  0  0
 12 13  1  0  0  0
 12 42  1  0  0  0
 13 14  1  0  0  0
 13 43  1  0  0  0
 13 44  1  0  0  0
 14 15  1  0  0  0
 15 16  1  0  0  0
 15 45  1  0  0  0
 15 46  1  0  0  0
 16 17  1  0  0  0
 16 47  1  0  0  0
 16 48  1  0  0  0
 17 18  1  0  0  0
 17 19  1  0  0  0
 17 49  1  0  0  0
 18 50  1  0  0  0
 22 53  1  0  0  0
 23 51  1  0  0  0
 24 52  1  0  0  0
M  CHG  2  11   1  21  -1
M  END
> <s_m_source_file>
../3h06_ligand.sdf

> <i_m_source_file_index>
1

> <s_epik_input>
W0NIMl0xW0NIMl1bQ0hdKEMoPU8pW09IXSlbQ0gyXVtDSDJdW0NIXTFbQ0gyXVtOSCtdMltDQEBIXShbT0hdKVtDSDJdW0NIMl1bTkgrXShbQ0hdMltPSF0pW0NIMl1bQ0BIXShbTkgzK10pW0NIXShbT0hdKVtPSF0=

> <s_epik_cmdline>
J2VwaWtfYXBwJywgJy1pbWFlJywgJ2xpZ2FuZF9wcm8ubWFlJywgJy1vbWFlJywgJ2xpZ2FuZF9wcmVwLm1hZScsICctbXMnLCAnMScsICctcGgnLCAnNycsICctcGh0JywgJzAuNScsICctbnQn

> <r_epik_Ionization_Penalty>
  0.1397

> <r_epik_Ionization_Penalty_Charging>
  0.1324

> <r_epik_Ionization_Penalty_Neutral>
  0.0073

> <r_epik_State_Penalty>
  0.1175

> <r_epik_Charging_Adjusted_Penalty>
0.249903687733623

> <i_epik_Tot_Q>
0

> <i_epik_Tot_abs_Q>
2

> <s_epik_Chemistry_Notes>
This compound contains an acetal/aminal-like group ( X-CH(R)-Y where X, Y are N, S, or O) that may be acid/base labile, releasing an aldehyde.

$$$$
