3h0e_ligand
                    3D
 Schrodinger Suite 2020-3.
 62 66  0  0  1  0            999 V2000
   21.2150   59.4650    7.6640 C   0  0  0  0  0  0
   28.0630   49.4410   14.1630 O   0  0  0  0  0  0
   24.7570   56.2660   11.7350 C   0  0  0  0  0  0
   26.2530   56.4910   11.8210 C   0  0  0  0  0  0
   23.0420   58.8010    6.2340 C   0  0  0  0  0  0
   26.8160   49.6010   16.9730 N   0  3  0  0  0  0
   25.8060   52.9620   10.1230 S   0  0  0  0  0  0
   24.5940   55.3500   10.5150 C   0  0  1  0  0  0
   24.2710   56.1170    9.2290 C   0  0  0  0  0  0
   25.1510   51.2260   14.3120 C   0  0  0  0  0  0
   27.3180   50.5430   14.6910 C   0  0  2  0  0  0
   26.4220   50.1850   15.8950 C   0  0  0  0  0  0
   25.7510   49.4180   17.9880 C   0  0  0  0  0  0
   26.4280   51.1860   13.6970 C   0  0  0  0  0  0
   25.2740   51.8680   18.2730 C   0  0  0  0  0  0
   24.6430   50.5040   17.9320 C   0  0  0  0  0  0
   24.3250   52.3260   12.3450 C   0  0  0  0  0  0
   25.6120   52.2750   11.7570 C   0  0  0  0  0  0
   26.6950   51.6970   12.4350 C   0  0  0  0  0  0
   24.0950   51.8000   13.6270 C   0  0  0  0  0  0
   25.1620   50.6500   15.5780 N   0  0  0  0  0  0
   24.0590   50.5170   16.4970 C   0  0  0  0  0  0
   27.0850   52.5260    9.6050 O   0  0  0  0  0  0
   24.5820   52.7120    9.3910 O   0  0  0  0  0  0
   25.9100   54.6370   10.3850 N   0  0  1  0  0  0
   26.8180   55.1270   11.4600 C   0  0  0  0  0  0
   23.0860   56.8940    9.4170 O   0  0  0  0  0  0
   22.7700   57.7520    8.4000 C   0  0  0  0  0  0
   23.4690   57.8820    7.1980 C   0  0  0  0  0  0
   21.9160   59.5900    6.4660 C   0  0  0  0  0  0
   21.6410   58.5470    8.6280 C   0  0  0  0  0  0
   23.5300   50.2320   18.9660 C   0  0  0  0  0  0
   20.3358   60.0822    7.8489 H   0  0  0  0  0  0
   28.7576   48.8860   14.8107 H   0  0  0  0  0  0
   24.4038   55.7909   12.6621 H   0  0  0  0  0  0
   24.2480   57.2319   11.6010 H   0  0  0  0  0  0
   26.5474   57.2753   11.1081 H   0  0  0  0  0  0
   26.5186   56.8046   12.8414 H   0  0  0  0  0  0
   23.5915   58.9008    5.2979 H   0  0  0  0  0  0
   23.7584   54.6488   10.6567 H   0  0  0  0  0  0
   25.1092   56.7843    8.9798 H   0  0  0  0  0  0
   24.1131   55.4038    8.4065 H   0  0  0  0  0  0
   28.1594   51.2033   14.9480 H   0  0  0  0  0  0
   25.2630   48.4440   17.8359 H   0  0  0  0  0  0
   26.1936   49.4532   18.9944 H   0  0  0  0  0  0
   26.0739   52.0924   17.5521 H   0  0  0  0  0  0
   25.6949   51.8336   19.2887 H   0  0  0  0  0  0
   24.5036   52.6515   18.2216 H   0  0  0  0  0  0
   23.5008   52.7800   11.7949 H   0  0  0  0  0  0
   27.6912   51.6517   11.9950 H   0  0  0  0  0  0
   23.1019   51.8433   14.0742 H   0  0  0  0  0  0
   23.5180   49.5771   16.3128 H   0  0  0  0  0  0
   23.3670   51.3654   16.3904 H   0  0  0  0  0  0
   27.8542   55.2406   11.1088 H   0  0  0  0  0  0
   26.8007   54.4765   12.3469 H   0  0  0  0  0  0
   24.3487   57.2663    7.0108 H   0  0  0  0  0  0
   21.5846   60.3035    5.7115 H   0  0  0  0  0  0
   21.0903   58.4496    9.5636 H   0  0  0  0  0  0
   23.9625   50.2264   19.9774 H   0  0  0  0  0  0
   23.0682   49.2552   18.7593 H   0  0  0  0  0  0
   22.7660   51.0205   18.8983 H   0  0  0  0  0  0
   27.8651   49.2867   17.0763 H   0  0  0  0  0  0
  1 30  2  0  0  0
  1 31  1  0  0  0
  1 33  1  0  0  0
  2 11  1  0  0  0
  2 34  1  0  0  0
  3  4  1  0  0  0
  3  8  1  0  0  0
  3 35  1  0  0  0
  3 36  1  0  0  0
  4 26  1  0  0  0
  4 37  1  0  0  0
  4 38  1  0  0  0
  5 29  2  0  0  0
  5 30  1  0  0  0
  5 39  1  0  0  0
  6 12  2  0  0  0
  6 13  1  0  0  0
  6 62  1  0  0  0
  7 18  1  0  0  0
  7 23  2  0  0  0
  7 24  2  0  0  0
  7 25  1  0  0  0
  8  9  1  0  0  0
  8 25  1  0  0  0
  8 40  1  0  0  0
  9 27  1  0  0  0
  9 41  1  0  0  0
  9 42  1  0  0  0
 10 14  2  0  0  0
 10 20  1  0  0  0
 10 21  1  0  0  0
 11 12  1  0  0  0
 11 14  1  0  0  0
 11 43  1  0  0  0
 12 21  1  0  0  0
 13 16  1  0  0  0
 13 44  1  0  0  0
 13 45  1  0  0  0
 14 19  1  0  0  0
 15 16  1  0  0  0
 15 46  1  0  0  0
 15 47  1  0  0  0
 15 48  1  0  0  0
 16 22  1  0  0  0
 16 32  1  0  0  0
 17 18  1  0  0  0
 17 20  2  0  0  0
 17 49  1  0  0  0
 18 19  2  0  0  0
 19 50  1  0  0  0
 20 51  1  0  0  0
 21 22  1  0  0  0
 22 52  1  0  0  0
 22 53  1  0  0  0
 25 26  1  0  0  0
 26 54  1  0  0  0
 26 55  1  0  0  0
 27 28  1  0  0  0
 28 29  1  0  0  0
 28 31  2  0  0  0
 29 56  1  0  0  0
 30 57  1  0  0  0
 31 58  1  0  0  0
 32 59  1  0  0  0
 32 60  1  0  0  0
 32 61  1  0  0  0
M  CHG  1   6   1
M  END
> <s_m_source_file>
../3h0e_ligand.sdf

> <i_m_source_file_index>
1

> <s_epik_input>
W2NIXTFbY0hdW2NIXVtjSF1bY0hdYzFPW0NIMl1bQ0BASF0yW0NIMl1bQ0gyXVtDSDJdTjJTKD1PKSg9TyljKFtjSF1bY0hdMylbY0hdYyhjMzQpW0NASF0oW09IXSlDNU40W0NIMl1DKFtDSDJdTj01KShbQ0gzXSlbQ0gzXQ==

> <s_epik_cmdline>
J2VwaWtfYXBwJywgJy1pbWFlJywgJ2xpZ2FuZF9wcm8ubWFlJywgJy1vbWFlJywgJ2xpZ2FuZF9wcmVwLm1hZScsICctbXMnLCAnMScsICctcGgnLCAnNycsICctcGh0JywgJzAuNScsICctbnQn

> <r_lp_tautomer_probability>
1

> <r_epik_Ionization_Penalty>
  0.0142

> <r_epik_Ionization_Penalty_Charging>
  0.0002

> <r_epik_Ionization_Penalty_Neutral>
  0.0140

> <r_epik_State_Penalty>
  0.0110

> <r_epik_Charging_Adjusted_Penalty>
0.0111262175522689

> <i_epik_Tot_Q>
1

> <i_epik_Tot_abs_Q>
1

> <s_epik_Chemistry_Notes>
This compound has an imine and may undergo hydrolysis.

$$$$
