3h0q_ligand
                    3D
 Schrodinger Suite 2020-3.
 65 70  0  0  1  0            999 V2000
    5.8020   32.3770   17.1890 C   0  0  0  0  0  0
    4.2300   33.6100   15.7880 C   0  0  0  0  0  0
    6.3090   30.2280   19.1140 C   0  0  0  0  0  0
    6.6760   29.1770   20.1540 C   0  0  0  0  0  0
    5.7400   29.0620   21.4050 C   0  0  0  0  0  0
    6.3660   28.0220   22.3740 C   0  0  0  0  0  0
    5.4960   30.4290   22.1570 C   0  0  0  0  0  0
    3.1390   32.7810   16.2020 C   0  0  0  0  0  0
    3.3830   31.7130   17.1320 C   0  0  0  0  0  0
    4.6980   31.4800   17.6450 C   0  0  0  0  0  0
    5.5060   33.3960   16.2760 N   0  0  0  0  0  0
    4.9610   30.4150   18.5970 C   0  0  0  0  0  0
    7.3530   31.1240   18.6450 C   0  0  0  0  0  0
    7.1060   32.1650   17.7040 C   0  0  0  0  0  0
    4.0390   34.7410   14.8210 C   0  0  0  0  0  0
    5.5980   27.8830   23.7130 C   0  0  0  0  0  0
    5.2000   29.2320   24.3120 N   0  0  0  0  0  0
    4.5590   30.2040   23.3640 C   0  0  0  0  0  0
    5.4290   29.5150   25.7150 C   0  0  0  0  0  0
    5.0630   30.9170   26.2380 C   0  0  0  0  0  0
    6.0260   32.0610   26.3380 C   0  0  0  0  0  0
    5.5290   33.3600   26.8740 C   0  0  0  0  0  0
    4.1900   33.4390   27.2590 N   0  0  0  0  0  0
    3.2520   32.3770   27.1760 C   0  0  0  0  0  0
    3.7010   31.1280   26.6630 C   0  0  0  0  0  0
    7.4260   31.9890   25.9470 C   0  0  0  0  0  0
    8.2960   33.1270   26.0660 C   0  0  0  0  0  0
    7.7960   34.3720   26.5780 C   0  0  0  0  0  0
    6.4250   34.4870   26.9810 C   0  0  0  0  0  0
    1.8380   32.6500   27.6370 C   0  0  0  0  0  0
    1.2070   33.9320   27.5840 C   0  0  0  0  0  0
   -0.1470   34.1310   28.0340 C   0  0  0  0  0  0
   -0.9110   33.0270   28.5520 C   0  0  0  0  0  0
   -0.3000   31.7320   28.6160 C   0  0  0  0  0  0
    1.0480   31.5540   28.1690 C   0  0  0  0  0  0
    5.5480   28.5810   26.4980 O   0  0  0  0  0  0
    6.6707   28.1812   19.6866 H   0  0  0  0  0  0
    7.6791   29.3898   20.5522 H   0  0  0  0  0  0
    4.7520   28.7307   21.0527 H   0  0  0  0  0  0
    6.3732   27.0320   21.8945 H   0  0  0  0  0  0
    7.3970   28.3199   22.6155 H   0  0  0  0  0  0
    6.4572   30.8283   22.5129 H   0  0  0  0  0  0
    5.0326   31.1495   21.4669 H   0  0  0  0  0  0
    2.1349   32.9577   15.8164 H   0  0  0  0  0  0
    2.5586   31.0746   17.4495 H   0  0  0  0  0  0
    4.1534   29.7593   18.9226 H   0  0  0  0  0  0
    8.3651   30.9944   19.0284 H   0  0  0  0  0  0
    7.9265   32.8039   17.3772 H   0  0  0  0  0  0
    2.9822   34.7915   14.5199 H   0  0  0  0  0  0
    4.6658   34.5737   13.9326 H   0  0  0  0  0  0
    4.3290   35.6871   15.3014 H   0  0  0  0  0  0
    4.6772   27.3040   23.5491 H   0  0  0  0  0  0
    6.2318   27.3639   24.4471 H   0  0  0  0  0  0
    4.3863   31.1613   23.8776 H   0  0  0  0  0  0
    3.5990   29.7982   23.0123 H   0  0  0  0  0  0
    2.9921   30.3033   26.5888 H   0  0  0  0  0  0
    7.8232   31.0524   25.5557 H   0  0  0  0  0  0
    9.3407   33.0445   25.7661 H   0  0  0  0  0  0
    8.4607   35.2319   26.6604 H   0  0  0  0  0  0
    6.0553   35.4349   27.3721 H   0  0  0  0  0  0
    1.7658   34.7820   27.1924 H   0  0  0  0  0  0
   -0.5952   35.1232   27.9818 H   0  0  0  0  0  0
   -1.9369   33.1731   28.8900 H   0  0  0  0  0  0
   -0.8619   30.8828   29.0050 H   0  0  0  0  0  0
    1.4966   30.5625   28.2300 H   0  0  0  0  0  0
  1 10  1  0  0  0
  1 11  2  0  0  0
  1 14  1  0  0  0
  2  8  2  0  0  0
  2 11  1  0  0  0
  2 15  1  0  0  0
  3  4  1  0  0  0
  3 12  2  0  0  0
  3 13  1  0  0  0
  4  5  1  0  0  0
  4 37  1  0  0  0
  4 38  1  0  0  0
  5  6  1  0  0  0
  5  7  1  0  0  0
  5 39  1  0  0  0
  6 16  1  0  0  0
  6 40  1  0  0  0
  6 41  1  0  0  0
  7 18  1  0  0  0
  7 42  1  0  0  0
  7 43  1  0  0  0
  8  9  1  0  0  0
  8 44  1  0  0  0
  9 10  2  0  0  0
  9 45  1  0  0  0
 10 12  1  0  0  0
 12 46  1  0  0  0
 13 14  2  0  0  0
 13 47  1  0  0  0
 14 48  1  0  0  0
 15 49  1  0  0  0
 15 50  1  0  0  0
 15 51  1  0  0  0
 16 17  1  0  0  0
 16 52  1  0  0  0
 16 53  1  0  0  0
 17 18  1  0  0  0
 17 19  1  0  0  0
 18 54  1  0  0  0
 18 55  1  0  0  0
 19 20  1  0  0  0
 19 36  2  0  0  0
 20 21  2  0  0  0
 20 25  1  0  0  0
 21 22  1  0  0  0
 21 26  1  0  0  0
 22 23  2  0  0  0
 22 29  1  0  0  0
 23 24  1  0  0  0
 24 25  2  0  0  0
 24 30  1  0  0  0
 25 56  1  0  0  0
 26 27  2  0  0  0
 26 57  1  0  0  0
 27 28  1  0  0  0
 27 58  1  0  0  0
 28 29  2  0  0  0
 28 59  1  0  0  0
 29 60  1  0  0  0
 30 31  2  0  0  0
 30 35  1  0  0  0
 31 32  1  0  0  0
 31 61  1  0  0  0
 32 33  2  0  0  0
 32 62  1  0  0  0
 33 34  1  0  0  0
 33 63  1  0  0  0
 34 35  2  0  0  0
 34 64  1  0  0  0
 35 65  1  0  0  0
M  END
> <s_m_source_file>
../3h0q_ligand.sdf

> <i_m_source_file_index>
1

> <s_epik_input>
bjFjKFtDSDNdKVtjSF1bY0hdYyhjMTIpW2NIXWMoW2NIXVtjSF0yKVtDSDJdW0NIXTNbQ0gyXVtDSDJdTihbQ0gyXVtDSDJdMylDKD1PKWM0W2NIXWMobmMoYzQ1KVtjSF1bY0hdW2NIXVtjSF01KS1jNltjSF1bY0hdW2NIXVtjSF1bY0hdNg==

> <s_epik_cmdline>
J2VwaWtfYXBwJywgJy1pbWFlJywgJ2xpZ2FuZF9wcm8ubWFlJywgJy1vbWFlJywgJ2xpZ2FuZF9wcmVwLm1hZScsICctbXMnLCAnMScsICctcGgnLCAnNycsICctcGh0JywgJzAuNScsICctbnQn

> <r_epik_Ionization_Penalty>
  0.0456

> <r_epik_Ionization_Penalty_Charging>
  0.0000

> <r_epik_Ionization_Penalty_Neutral>
  0.0456

> <r_epik_State_Penalty>
  0.0387

> <r_epik_Charging_Adjusted_Penalty>
0.0386926317214961

> <i_epik_Tot_Q>
0

> <i_epik_Tot_abs_Q>
0

$$$$
