3h0s_ligand
                    3D
 Schrodinger Suite 2020-3.
 49 53  0  0  1  0            999 V2000
    5.9620   28.5060   20.9620 C   0  0  0  0  0  0
    4.5020   30.6440   18.0100 C   0  0  0  0  0  0
    6.9980   31.0010   18.5030 C   0  0  0  0  0  0
    6.1290   31.0880   22.3840 C   0  0  0  0  0  0
    5.7590   32.3850   16.9030 C   0  0  0  0  0  0
    6.8940   28.7000   22.1880 C   0  0  0  0  0  0
    6.9520   34.2860   15.6850 C   0  0  0  0  0  0
    5.7920   29.7940   20.1100 C   0  0  0  0  0  0
    7.0360   30.0080   19.3730 O   0  0  0  0  0  0
    4.6830   29.5370   19.0550 C   0  0  0  0  0  0
    5.3240   30.9470   21.0670 C   0  0  0  0  0  0
    5.7770   31.3800   17.7450 C   0  0  0  0  0  0
    8.0960   31.6790   18.3080 C   0  0  0  0  0  0
    3.3900   31.1840   17.7910 O   0  0  0  0  0  0
    8.0950   32.8120   17.3250 C   0  0  0  0  0  0
    6.9930   33.1390   16.6620 C   0  0  0  0  0  0
    6.3460   29.7750   23.0600 N   0  0  0  0  0  0
    5.3600   30.5870   25.2420 C   0  0  0  0  0  0
    5.2910   32.7490   26.3790 C   0  0  0  0  0  0
    3.3630   31.2570   26.4710 C   0  0  0  0  0  0
    4.0420   30.3320   25.6840 C   0  0  0  0  0  0
    6.0470   29.5450   24.3940 C   0  0  0  0  0  0
    3.9830   32.4680   26.8070 C   0  0  0  0  0  0
    6.0000   31.8040   25.6020 C   0  0  0  0  0  0
    7.2350   32.3440   25.3530 N   0  0  0  0  0  0
    7.3220   33.5500   25.9270 N   0  3  0  0  0  0
    6.1570   33.8350   26.5700 C   0  0  0  0  0  0
    6.3100   28.4740   24.9370 O   0  0  0  0  0  0
    6.3769   27.7268   20.3057 H   0  0  0  0  0  0
    4.9624   28.2017   21.3058 H   0  0  0  0  0  0
    7.1145   31.5255   22.1663 H   0  0  0  0  0  0
    5.5829   31.7424   23.0793 H   0  0  0  0  0  0
    4.8374   32.6567   16.3883 H   0  0  0  0  0  0
    6.9527   27.7600   22.7563 H   0  0  0  0  0  0
    7.8994   28.9833   21.8431 H   0  0  0  0  0  0
    5.9412   34.3689   15.2590 H   0  0  0  0  0  0
    7.6766   34.1057   14.8773 H   0  0  0  0  0  0
    7.2082   35.2205   16.2057 H   0  0  0  0  0  0
    3.7453   29.4041   19.6146 H   0  0  0  0  0  0
    4.9453   28.5955   18.5502 H   0  0  0  0  0  0
    4.2684   30.7461   21.3022 H   0  0  0  0  0  0
    5.3997   31.8800   20.4893 H   0  0  0  0  0  0
    9.0045   31.4245   18.8539 H   0  0  0  0  0  0
    9.0125   33.3747   17.1528 H   0  0  0  0  0  0
    2.3547   31.0409   26.8241 H   0  0  0  0  0  0
    3.5515   29.3994   25.4050 H   0  0  0  0  0  0
    3.4438   33.2006   27.4076 H   0  0  0  0  0  0
    5.9370   34.7429   27.1316 H   0  0  0  0  0  0
    8.2456   34.1397   25.8306 H   0  0  0  0  0  0
  1  6  1  0  0  0
  1  8  1  0  0  0
  1 29  1  0  0  0
  1 30  1  0  0  0
  2 10  1  0  0  0
  2 12  1  0  0  0
  2 14  2  0  0  0
  3  9  1  0  0  0
  3 12  2  0  0  0
  3 13  1  0  0  0
  4 11  1  0  0  0
  4 17  1  0  0  0
  4 31  1  0  0  0
  4 32  1  0  0  0
  5 12  1  0  0  0
  5 16  2  0  0  0
  5 33  1  0  0  0
  6 17  1  0  0  0
  6 34  1  0  0  0
  6 35  1  0  0  0
  7 16  1  0  0  0
  7 36  1  0  0  0
  7 37  1  0  0  0
  7 38  1  0  0  0
  8  9  1  0  0  0
  8 10  1  0  0  0
  8 11  1  0  0  0
 10 39  1  0  0  0
 10 40  1  0  0  0
 11 41  1  0  0  0
 11 42  1  0  0  0
 13 15  2  0  0  0
 13 43  1  0  0  0
 15 16  1  0  0  0
 15 44  1  0  0  0
 17 22  1  0  0  0
 18 21  2  0  0  0
 18 22  1  0  0  0
 18 24  1  0  0  0
 19 23  1  0  0  0
 19 24  2  0  0  0
 19 27  1  0  0  0
 20 21  1  0  0  0
 20 23  2  0  0  0
 20 45  1  0  0  0
 21 46  1  0  0  0
 22 28  2  0  0  0
 23 47  1  0  0  0
 24 25  1  0  0  0
 25 26  1  0  0  0
 26 27  2  0  0  0
 26 49  1  0  0  0
 27 48  1  0  0  0
M  CHG  1  26   1
M  END
> <s_m_source_file>
../3h0s_ligand.sdf

> <i_m_source_file_index>
1

> <s_epik_input>
W2NIXTFuW25IXWMoYzEyKWMoW2NIXVtjSF1bY0hdMilDKD1PKU4oW0NIMl1bQ0gyXTMpW0NIMl1bQ0gyXUMzNE9jNWMoQyg9TylbQ0gyXTQpW2NIXWMoW0NIM10pW2NIXVtjSF01

> <s_epik_cmdline>
J2VwaWtfYXBwJywgJy1pbWFlJywgJ2xpZ2FuZF9wcm8ubWFlJywgJy1vbWFlJywgJ2xpZ2FuZF9wcmVwLm1hZScsICctbXMnLCAnMScsICctcGgnLCAnNycsICctcGh0JywgJzAuNScsICctbnQn

> <r_epik_Ionization_Penalty>
  0.0000

> <r_epik_Ionization_Penalty_Charging>
  0.0000

> <r_epik_Ionization_Penalty_Neutral>
  0.0000

> <r_epik_State_Penalty>
  0.0588

> <r_epik_Charging_Adjusted_Penalty>
0.0587931066721785

> <i_epik_Tot_Q>
1

> <i_epik_Tot_abs_Q>
1

$$$$
