3h0y_ligand
                    3D
 Schrodinger Suite 2020-3.
 49 52  0  0  1  0            999 V2000
   53.7580    9.7250   18.9840 F   0  0  0  0  0  0
   53.2190   10.6790   19.7130 C   0  0  0  0  0  0
   52.8400   11.7960   19.0780 C   0  0  0  0  0  0
   52.2360   12.7780   19.7200 N   0  0  0  0  0  0
   52.1790   12.7560   21.1590 C   0  0  0  0  0  0
   51.4410   13.8690   21.7930 N   0  0  0  0  0  0
   51.3410   14.0730   23.1270 C   0  0  0  0  0  0
   51.4780   13.0830   24.1010 C   0  0  0  0  0  0
   51.4390   13.3840   25.4600 C   0  0  0  0  0  0
   51.2670   14.6960   25.8710 C   0  0  0  0  0  0
   51.2320   14.9880   27.1680 O   0  0  0  0  0  0
   51.1430   15.6970   24.9120 C   0  0  0  0  0  0
   51.1900   15.3910   23.5520 C   0  0  0  0  0  0
   52.4300   11.4610   21.7190 N   0  0  0  0  0  0
   53.0560   10.5150   21.0290 C   0  0  0  0  0  0
   53.4660    9.3530   21.5740 N   0  0  0  0  0  0
   53.2100    9.0640   22.8730 C   0  0  0  0  0  0
   52.4820    7.9360   23.2500 C   0  0  0  0  0  0
   53.4560   10.0460   23.8330 C   0  0  0  0  0  0
   53.0280    9.8990   25.1390 C   0  0  0  0  0  0
   52.3420    8.7650   25.5460 C   0  0  0  0  0  0
   52.0720    7.7740   24.5820 C   0  0  0  0  0  0
   52.0550    8.7090   26.8800 N   0  0  0  0  0  0
   51.6250    7.6060   27.4920 C   0  0  0  0  0  0
   51.5030    6.5510   26.8880 O   0  0  0  0  0  0
   51.2130    7.6040   28.9440 C   0  0  0  0  0  0
   50.7530    8.7460   29.6290 C   0  0  0  0  0  0
   50.6290   10.4040   28.8900 Cl  0  0  0  0  0  0
   50.3790    8.6210   30.9730 C   0  0  0  0  0  0
   51.2670    6.3710   29.6070 C   0  0  0  0  0  0
   50.8910    6.2630   30.9400 C   0  0  0  0  0  0
   50.4480    7.3920   31.6230 C   0  0  0  0  0  0
   53.0343   11.8957   18.0101 H   0  0  0  0  0  0
   50.9197   14.6095   21.1686 H   0  0  0  0  0  0
   51.6191   12.0479   23.7901 H   0  0  0  0  0  0
   51.5435   12.5894   26.1987 H   0  0  0  0  0  0
   51.3312   14.1867   27.9150 H   0  0  0  0  0  0
   51.0077   16.7316   25.2273 H   0  0  0  0  0  0
   51.1079   16.1901   22.8153 H   0  0  0  0  0  0
   54.0170    8.6230   20.9628 H   0  0  0  0  0  0
   52.2308    7.1781   22.5079 H   0  0  0  0  0  0
   53.9970   10.9480   23.5471 H   0  0  0  0  0  0
   53.2334   10.6886   25.8618 H   0  0  0  0  0  0
   51.5379    6.8700   24.8745 H   0  0  0  0  0  0
   52.1756    9.6050   27.5066 H   0  0  0  0  0  0
   50.0291    9.4981   31.5174 H   0  0  0  0  0  0
   51.6082    5.4857   29.0704 H   0  0  0  0  0  0
   50.9426    5.3000   31.4480 H   0  0  0  0  0  0
   50.1543    7.3136   32.6697 H   0  0  0  0  0  0
  1  2  1  0  0  0
  2  3  2  0  0  0
  2 15  1  0  0  0
  3  4  1  0  0  0
  3 33  1  0  0  0
  4  5  2  0  0  0
  5  6  1  0  0  0
  5 14  1  0  0  0
  6  7  1  0  0  0
  6 34  1  0  0  0
  7  8  2  0  0  0
  7 13  1  0  0  0
  8  9  1  0  0  0
  8 35  1  0  0  0
  9 10  2  0  0  0
  9 36  1  0  0  0
 10 11  1  0  0  0
 10 12  1  0  0  0
 11 37  1  0  0  0
 12 13  2  0  0  0
 12 38  1  0  0  0
 13 39  1  0  0  0
 14 15  2  0  0  0
 15 16  1  0  0  0
 16 17  1  0  0  0
 16 40  1  0  0  0
 17 18  2  0  0  0
 17 19  1  0  0  0
 18 22  1  0  0  0
 18 41  1  0  0  0
 19 20  2  0  0  0
 19 42  1  0  0  0
 20 21  1  0  0  0
 20 43  1  0  0  0
 21 22  2  0  0  0
 21 23  1  0  0  0
 22 44  1  0  0  0
 23 24  1  0  0  0
 23 45  1  0  0  0
 24 25  2  0  0  0
 24 26  1  0  0  0
 26 27  2  0  0  0
 26 30  1  0  0  0
 27 28  1  0  0  0
 27 29  1  0  0  0
 29 32  2  0  0  0
 29 46  1  0  0  0
 30 31  2  0  0  0
 30 47  1  0  0  0
 31 32  1  0  0  0
 31 48  1  0  0  0
 32 49  1  0  0  0
M  END
> <s_m_source_file>
../3h0y_ligand.sdf

> <i_m_source_file_index>
1

> <s_epik_input>
W2NIXTFbY0hdYyhbT0hdKVtjSF1bY0hdYzFbTkhdYyhuW2NIXWMyRiluYzJbTkhdYzNbY0hdW2NIXWMoW2NIXVtjSF0zKVtOSF1DKD1PKWM0YyhDbClbY0hdW2NIXVtjSF1bY0hdNA==

> <s_epik_cmdline>
J2VwaWtfYXBwJywgJy1pbWFlJywgJ2xpZ2FuZF9wcm8ubWFlJywgJy1vbWFlJywgJ2xpZ2FuZF9wcmVwLm1hZScsICctbXMnLCAnMScsICctcGgnLCAnNycsICctcGh0JywgJzAuNScsICctbnQn

> <r_lp_tautomer_probability>
1

> <r_epik_Ionization_Penalty>
  0.0006

> <r_epik_Ionization_Penalty_Charging>
  0.0000

> <r_epik_Ionization_Penalty_Neutral>
  0.0006

> <r_epik_State_Penalty>
 -0.0000

> <r_epik_Charging_Adjusted_Penalty>
0

> <i_epik_Tot_Q>
0

> <i_epik_Tot_abs_Q>
0

$$$$
