3h1x_ligand
                    3D
 Schrodinger Suite 2020-3.
 40 42  0  0  1  0            999 V2000
    0.7450  -11.4340    8.4070 C   0  0  0  0  0  0
    1.2510  -12.6140    7.6690 C   0  0  0  0  0  0
    2.5830  -12.6840    7.3070 C   0  0  0  0  0  0
    3.4670  -11.6510    7.6110 C   0  0  0  0  0  0
    3.0020  -10.5440    8.3180 C   0  0  0  0  0  0
    1.6630  -10.4350    8.7020 C   0  0  0  0  0  0
    5.4300  -10.7000    6.4900 C   0  0  0  0  0  0
    0.1170  -13.5310    7.4440 C   0  0  0  0  0  0
   -1.0290  -12.8260    8.1000 C   0  0  0  0  0  0
   -1.5040  -10.8930    9.2380 C   0  0  0  0  0  0
   -1.4230   -9.5470    9.9220 C   0  0  0  0  0  0
   -2.6140   -9.0630   10.4610 C   0  0  0  0  0  0
   -2.6640   -7.8380   11.1110 C   0  0  0  0  0  0
   -1.5250   -7.0720   11.2430 C   0  0  0  0  0  0
   -0.3330   -7.5360   10.7080 C   0  0  0  0  0  0
   -0.2850   -8.7640   10.0540 C   0  0  0  0  0  0
   -2.4320  -13.3020    8.2730 C   0  0  0  0  0  0
    0.3260  -14.8880    6.8070 C   0  0  0  0  0  0
   -0.7900  -15.8200    6.4450 C   0  0  0  0  0  0
   -0.5620  -11.6700    8.6010 N   0  0  0  0  0  0
    4.7610  -11.7320    7.2460 O   0  0  0  0  0  0
   -2.6130  -11.3850    9.2470 O   0  0  0  0  0  0
   -1.6300  -16.2190    7.2410 O   0  0  0  0  0  0
   -0.7810  -16.2810    5.2120 O   0  5  0  0  0  0
   -1.6480   -5.5060   12.1090 Cl  0  0  0  0  0  0
    2.9481  -13.5623    6.7746 H   0  0  0  0  0  0
    3.6978   -9.7459    8.5771 H   0  0  0  0  0  0
    1.3327   -9.5486    9.2436 H   0  0  0  0  0  0
    6.4757  -10.9930    6.3152 H   0  0  0  0  0  0
    5.4031   -9.7562    7.0544 H   0  0  0  0  0  0
    4.9209  -10.5645    5.5244 H   0  0  0  0  0  0
   -3.5229   -9.6578   10.3702 H   0  0  0  0  0  0
   -3.6088   -7.4793   11.5195 H   0  0  0  0  0  0
    0.5721   -6.9356   10.8000 H   0  0  0  0  0  0
    0.6600   -9.1155    9.6397 H   0  0  0  0  0  0
   -2.5550  -14.2717    7.7685 H   0  0  0  0  0  0
   -3.1246  -12.5694    7.8331 H   0  0  0  0  0  0
   -2.6510  -13.4159    9.3449 H   0  0  0  0  0  0
    0.8406  -14.7650    5.8426 H   0  0  0  0  0  0
    0.9383  -15.5148    7.4720 H   0  0  0  0  0  0
  1  2  2  0  0  0
  1  6  1  0  0  0
  1 20  1  0  0  0
  2  3  1  0  0  0
  2  8  1  0  0  0
  3  4  2  0  0  0
  3 26  1  0  0  0
  4  5  1  0  0  0
  4 21  1  0  0  0
  5  6  2  0  0  0
  5 27  1  0  0  0
  6 28  1  0  0  0
  7 21  1  0  0  0
  7 29  1  0  0  0
  7 30  1  0  0  0
  7 31  1  0  0  0
  8  9  2  0  0  0
  8 18  1  0  0  0
  9 17  1  0  0  0
  9 20  1  0  0  0
 10 11  1  0  0  0
 10 20  1  0  0  0
 10 22  2  0  0  0
 11 12  2  0  0  0
 11 16  1  0  0  0
 12 13  1  0  0  0
 12 32  1  0  0  0
 13 14  2  0  0  0
 13 33  1  0  0  0
 14 15  1  0  0  0
 14 25  1  0  0  0
 15 16  2  0  0  0
 15 34  1  0  0  0
 16 35  1  0  0  0
 17 36  1  0  0  0
 17 37  1  0  0  0
 17 38  1  0  0  0
 18 19  1  0  0  0
 18 39  1  0  0  0
 18 40  1  0  0  0
 19 23  2  0  0  0
 19 24  1  0  0  0
M  CHG  1  24  -1
M  END
> <s_m_source_file>
../3h1x_ligand.sdf

> <i_m_source_file_index>
1

> <s_epik_input>
W2NIXTFbY0hdYyhPW0NIM10pW2NIXWMoYzEyKWMoW0NIMl1DKD1PKVtPSF0pYyhbQ0gzXSluMkMoPU8pYzNbY0hdW2NIXWMoQ2wpW2NIXVtjSF0z

> <s_epik_cmdline>
J2VwaWtfYXBwJywgJy1pbWFlJywgJ2xpZ2FuZF9wcm8ubWFlJywgJy1vbWFlJywgJ2xpZ2FuZF9wcmVwLm1hZScsICctbXMnLCAnMScsICctcGgnLCAnNycsICctcGh0JywgJzAuNScsICctbnQn

> <r_lp_tautomer_probability>
1

> <r_epik_Ionization_Penalty>
  0.0011

> <r_epik_Ionization_Penalty_Charging>
  0.0011

> <r_epik_Ionization_Penalty_Neutral>
  0.0000

> <r_epik_State_Penalty>
 -0.0000

> <r_epik_Charging_Adjusted_Penalty>
0.0010668340448865

> <i_epik_Tot_Q>
-1

> <i_epik_Tot_abs_Q>
1

$$$$
