3h1z_ligand
                    3D
 Schrodinger Suite 2020-3.
254261  0  0  1  0            999 V2000
  -11.3140  -22.2310  -37.6170 N   0  3  0  0  0  0
  -12.6880  -21.6660  -37.7680 C   0  0  2  0  0  0
  -13.2540  -21.2560  -36.4300 C   0  0  0  0  0  0
  -13.0530  -21.9430  -35.4200 O   0  0  0  0  0  0
  -13.6100  -22.6900  -38.4290 C   0  0  0  0  0  0
  -15.0710  -22.3710  -38.3400 C   0  0  0  0  0  0
  -15.8380  -22.8110  -37.2530 C   0  0  0  0  0  0
  -15.7040  -21.6420  -39.3410 C   0  0  0  0  0  0
  -17.2130  -22.5540  -37.1850 C   0  0  0  0  0  0
  -17.0690  -21.3370  -39.2600 C   0  0  0  0  0  0
  -17.8080  -21.8120  -38.1880 C   0  0  0  0  0  0
  -19.1270  -21.5200  -38.1430 O   0  0  0  0  0  0
  -13.9390  -20.1220  -36.4090 N   0  0  0  0  0  0
  -14.7940  -19.7930  -35.2830 C   0  0  2  0  0  0
  -15.9890  -19.0870  -35.8880 C   0  0  0  0  0  0
  -15.8770  -18.4910  -36.9720 O   0  0  0  0  0  0
  -14.0480  -18.9370  -34.2370 C   0  0  0  0  0  0
  -13.6440  -17.5720  -34.7390 C   0  0  0  0  0  0
  -12.3870  -17.3880  -35.3060 C   0  0  0  0  0  0
  -14.5180  -16.4890  -34.6600 C   0  0  0  0  0  0
  -11.9820  -16.1250  -35.7890 C   0  0  0  0  0  0
  -14.1350  -15.1950  -35.1360 C   0  0  0  0  0  0
  -12.8530  -15.0320  -35.7210 C   0  0  0  0  0  0
  -17.1130  -19.1270  -35.2190 N   0  0  0  0  0  0
  -18.3080  -18.4900  -35.7420 C   0  0  2  0  0  0
  -18.2150  -16.9870  -35.7900 C   0  0  0  0  0  0
  -17.8980  -16.4200  -34.8230 O   0  0  0  0  0  0
  -19.4040  -18.9660  -34.7990 C   0  0  0  0  0  0
  -18.7590  -19.6050  -33.7340 C   0  0  0  0  0  0
  -17.4290  -20.0300  -34.1250 C   0  0  0  0  0  0
  -18.4940  -16.3880  -36.9280 N   0  0  0  0  0  0
  -18.3820  -14.9720  -37.1460 C   0  0  2  0  0  0
  -19.8000  -14.4250  -37.2550 C   0  0  0  0  0  0
  -20.6160  -15.0900  -37.7860 O   0  0  0  0  0  0
  -17.5800  -14.6920  -38.4310 C   0  0  2  0  0  0
  -18.1130  -15.4430  -39.4980 O   0  0  0  0  0  0
  -16.1550  -15.0080  -38.2730 C   0  0  0  0  0  0
  -20.0830  -13.2370  -36.7290 N   0  0  0  0  0  0
  -21.3740  -12.5680  -36.9640 C   0  0  2  0  0  0
  -21.1180  -11.4200  -37.9120 C   0  0  0  0  0  0
  -20.0570  -10.7770  -37.8530 O   0  0  0  0  0  0
  -22.0520  -12.0490  -35.6800 C   0  0  0  0  0  0
  -22.5810  -13.1730  -34.7850 C   0  0  0  0  0  0
  -23.4070  -14.0230  -35.2380 O   0  0  0  0  0  0
  -22.1860  -13.1840  -33.5990 O   0  0  0  0  0  0
  -22.1000  -11.1740  -38.7730 N   0  0  0  0  0  0
  -21.9740  -10.2440  -39.8800 C   0  0  2  0  0  0
  -21.6560   -8.8420  -39.3780 C   0  0  0  0  0  0
  -20.8470   -8.1180  -39.9770 O   0  0  0  0  0  0
  -23.2710  -10.2560  -40.7080 C   0  0  0  0  0  0
  -23.3330   -9.2550  -41.8620 C   0  0  0  0  0  0
  -22.1180   -9.3250  -42.7710 C   0  0  0  0  0  0
  -21.7460  -10.4460  -43.1830 O   0  0  0  0  0  0
  -21.5440   -8.2530  -43.0660 O   0  0  0  0  0  0
  -22.2960   -8.4700  -38.2760 N   0  0  0  0  0  0
  -22.1440   -7.1290  -37.7410 C   0  0  2  0  0  0
  -20.7970   -6.9020  -37.0830 C   0  0  0  0  0  0
  -20.4110   -5.7620  -36.8820 O   0  0  0  0  0  0
  -23.2860   -6.7940  -36.7750 C   0  0  0  0  0  0
  -22.9810   -6.9880  -35.2920 C   0  0  0  0  0  0
  -23.3360   -8.3740  -34.8030 C   0  0  0  0  0  0
  -24.1040   -8.3290  -33.5540 N   0  0  0  0  0  0
  -23.7140   -8.8450  -32.3880 C   0  0  0  0  0  0
  -22.5370   -9.4640  -32.2710 N   0  0  0  0  0  0
  -24.5160   -8.7500  -31.3350 N   0  0  0  0  0  0
  -20.0760   -7.9670  -36.7400 N   0  0  0  0  0  0
  -18.7630   -7.7780  -36.1530 C   0  0  2  0  0  0
  -17.6470   -7.5990  -37.1860 C   0  0  0  0  0  0
  -16.5330   -7.2760  -36.8120 O   0  0  0  0  0  0
  -18.4360   -8.9030  -35.1750 C   0  0  0  0  0  0
  -19.4590   -8.9850  -34.1800 O   0  0  0  0  0  0
  -17.9520   -7.8030  -38.4760 N   0  0  0  0  0  0
  -16.9590   -7.5830  -39.5370 C   0  0  2  0  0  0
  -16.6410   -6.1150  -39.6360 C   0  0  0  0  0  0
  -17.5510   -5.2670  -39.5400 O   0  0  0  0  0  0
  -17.4560   -8.0520  -40.9040 C   0  0  0  0  0  0
  -17.4390   -9.5140  -41.0840 C   0  0  0  0  0  0
  -18.5070  -10.3620  -41.0900 C   0  0  0  0  0  0
  -16.2730  -10.3250  -41.2350 C   0  0  0  0  0  0
  -18.0740  -11.6660  -41.2600 N   0  0  0  0  0  0
  -16.7040  -11.6640  -41.3550 C   0  0  0  0  0  0
  -14.8970  -10.0400  -41.2810 C   0  0  0  0  0  0
  -15.8100  -12.7230  -41.5290 C   0  0  0  0  0  0
  -14.0140  -11.0730  -41.4780 C   0  0  0  0  0  0
  -14.4730  -12.4070  -41.5750 C   0  0  0  0  0  0
  -15.3600   -5.8020  -39.8260 N   0  0  0  0  0  0
  -14.9520   -4.4270  -40.0290 C   0  0  2  0  0  0
  -14.5120   -4.3470  -41.4830 C   0  0  0  0  0  0
  -13.4440   -4.8260  -41.8420 O   0  0  0  0  0  0
  -13.8270   -4.0130  -39.0620 C   0  0  0  0  0  0
  -13.4180   -2.5450  -39.2790 C   0  0  0  0  0  0
  -14.2720   -4.2890  -37.6020 C   0  0  0  0  0  0
  -15.3910   -3.7970  -42.3200 N   0  0  0  0  0  0
  -15.1440   -3.7700  -43.7470 C   0  0  2  0  0  0
  -14.2730   -2.5780  -44.1640 C   0  0  0  0  0  0
  -14.4840   -1.4410  -43.7060 O   0  0  0  0  0  0
  -16.4670   -3.6960  -44.5150 C   0  0  0  0  0  0
  -17.2360   -4.9930  -44.5630 C   0  0  0  0  0  0
  -17.0820   -5.8830  -45.6070 C   0  0  0  0  0  0
  -18.1530   -5.2970  -43.5480 C   0  0  0  0  0  0
  -17.7940   -7.0770  -45.6110 C   0  0  0  0  0  0
  -18.8550   -6.4680  -43.5450 C   0  0  0  0  0  0
  -18.6760   -7.3410  -44.5650 C   0  0  0  0  0  0
  -19.4250   -8.4940  -44.5410 O   0  0  0  0  0  0
  -13.3750   -2.8110  -45.1220 N   0  0  0  0  0  0
  -12.5680   -1.7040  -45.6470 C   0  0  2  0  0  0
  -13.4000   -0.9100  -46.6970 C   0  0  0  0  0  0
  -14.1030   -1.5190  -47.5390 O   0  0  0  0  0  0
  -11.2890   -2.2200  -46.3050 C   0  0  0  0  0  0
  -10.4940   -2.9530  -45.3680 O   0  0  0  0  0  0
  -13.2990    0.4270  -46.6620 N   0  0  0  0  0  0
  -13.8970    1.2070  -47.7500 C   0  0  2  0  0  0
  -13.1460    1.0050  -49.0760 C   0  0  0  0  0  0
  -11.9360    0.7290  -49.0570 O   0  0  0  0  0  0
  -13.7710    2.6570  -47.2520 C   0  0  0  0  0  0
  -12.5780    2.6600  -46.3650 C   0  0  0  0  0  0
  -12.6650    1.2920  -45.6470 C   0  0  0  0  0  0
  -13.8450    1.1580  -50.2080 N   0  0  0  0  0  0
  -13.2210    1.0400  -51.5080 C   0  0  2  0  0  0
  -13.1110    2.3960  -52.1550 C   0  0  0  0  0  0
  -14.0970    3.1370  -52.2250 O   0  0  0  0  0  0
  -14.0300    0.1380  -52.4330 C   0  0  0  0  0  0
  -14.2090   -1.3130  -52.0220 C   0  0  0  0  0  0
  -14.9860   -2.0010  -53.1360 C   0  0  0  0  0  0
  -12.8430   -2.0130  -51.7890 C   0  0  0  0  0  0
  -11.9110    2.7190  -52.6160 N   0  0  0  0  0  0
  -11.6820    3.9720  -53.3380 C   0  0  2  0  0  0
  -11.4750    3.5840  -54.7960 C   0  0  0  0  0  0
  -10.7120    2.6370  -55.1370 O   0  0  0  0  0  0
  -10.4730    4.7420  -52.7970 C   0  0  0  0  0  0
  -10.4820    4.9530  -51.3060 C   0  0  0  0  0  0
   -9.3660    5.3820  -50.6140 N   0  0  0  0  0  0
  -11.4530    4.7800  -50.3750 C   0  0  0  0  0  0
   -9.6550    5.4880  -49.3300 C   0  0  0  0  0  0
  -10.9140    5.1210  -49.1570 N   0  0  0  0  0  0
  -12.1200    4.1700  -55.6610 O   0  0  0  0  0  0
  -10.6611  -21.4849  -37.1405 H   0  0  0  0  0  0
  -10.9130  -22.4897  -38.6081 H   0  0  0  0  0  0
  -11.3559  -23.1346  -36.9911 H   0  0  0  0  0  0
  -12.6012  -20.7686  -38.3982 H   0  0  0  0  0  0
  -13.3670  -22.7652  -39.4992 H   0  0  0  0  0  0
  -13.4705  -23.6711  -37.9515 H   0  0  0  0  0  0
  -15.3560  -23.3630  -36.4461 H   0  0  0  0  0  0
  -15.1289  -21.3025  -40.2024 H   0  0  0  0  0  0
  -17.8057  -22.9338  -36.3528 H   0  0  0  0  0  0
  -17.5449  -20.7324  -40.0321 H   0  0  0  0  0  0
  -19.7421  -21.8817  -37.3059 H   0  0  0  0  0  0
  -13.8545  -19.4266  -37.2571 H   0  0  0  0  0  0
  -15.0983  -20.7171  -34.7696 H   0  0  0  0  0  0
  -14.6947  -18.7831  -33.3606 H   0  0  0  0  0  0
  -13.1284  -19.4552  -33.9276 H   0  0  0  0  0  0
  -11.7031  -18.2337  -35.3785 H   0  0  0  0  0  0
  -15.5091  -16.6300  -34.2287 H   0  0  0  0  0  0
  -10.9871  -16.0007  -36.2165 H   0  0  0  0  0  0
  -14.8168  -14.3489  -35.0505 H   0  0  0  0  0  0
  -12.5486  -14.0622  -36.1147 H   0  0  0  0  0  0
  -18.4504  -18.7793  -36.7937 H   0  0  0  0  0  0
  -20.5017  -18.8974  -34.8157 H   0  0  0  0  0  0
  -19.2741  -19.7211  -32.7690 H   0  0  0  0  0  0
  -17.4040  -21.0682  -34.4877 H   0  0  0  0  0  0
  -16.6891  -19.9047  -33.3207 H   0  0  0  0  0  0
  -18.8319  -17.0449  -37.7430 H   0  0  0  0  0  0
  -17.8493  -14.5410  -36.2855 H   0  0  0  0  0  0
  -17.6506  -13.6347  -38.7261 H   0  0  0  0  0  0
  -19.1743  -15.3388  -39.7677 H   0  0  0  0  0  0
  -15.7396  -14.4216  -37.4402 H   0  0  0  0  0  0
  -15.6190  -14.7582  -39.2005 H   0  0  0  0  0  0
  -16.0388  -16.0809  -38.0599 H   0  0  0  0  0  0
  -19.3191  -12.7536  -36.1023 H   0  0  0  0  0  0
  -22.0372  -13.3297  -37.3998 H   0  0  0  0  0  0
  -21.3268  -11.4676  -35.0918 H   0  0  0  0  0  0
  -22.9043  -11.4076  -35.9489 H   0  0  0  0  0  0
  -23.7814  -14.8270  -34.5873 H   0  0  0  0  0  0
  -23.0440  -11.7161  -38.6148 H   0  0  0  0  0  0
  -21.1235  -10.5980  -40.4811 H   0  0  0  0  0  0
  -23.4106  -11.2508  -41.1562 H   0  0  0  0  0  0
  -24.1253  -10.0251  -40.0547 H   0  0  0  0  0  0
  -24.2229   -9.4579  -42.4759 H   0  0  0  0  0  0
  -23.3911   -8.2333  -41.4585 H   0  0  0  0  0  0
  -20.6610   -8.2643  -43.7218 H   0  0  0  0  0  0
  -22.9489   -9.1944  -37.7671 H   0  0  0  0  0  0
  -22.1875   -6.4895  -38.6350 H   0  0  0  0  0  0
  -23.5695   -5.7379  -36.8946 H   0  0  0  0  0  0
  -24.1531   -7.4337  -36.9964 H   0  0  0  0  0  0
  -21.9066   -6.8320  -35.1152 H   0  0  0  0  0  0
  -23.5590   -6.2625  -34.7008 H   0  0  0  0  0  0
  -23.9426   -8.8871  -35.5638 H   0  0  0  0  0  0
  -22.4142   -8.9462  -34.6219 H   0  0  0  0  0  0
  -25.0886   -7.8390  -33.5311 H   0  0  0  0  0  0
  -21.8692   -9.5449  -33.1414 H   0  0  0  0  0  0
  -22.2349   -9.8931  -31.3042 H   0  0  0  0  0  0
  -25.4867   -8.2408  -31.4271 H   0  0  0  0  0  0
  -20.4669   -8.9830  -36.8978 H   0  0  0  0  0  0
  -18.8721   -6.8253  -35.6141 H   0  0  0  0  0  0
  -18.3782   -9.8570  -35.7196 H   0  0  0  0  0  0
  -17.4700   -8.6983  -34.6904 H   0  0  0  0  0  0
  -19.3936   -9.7424  -33.3850 H   0  0  0  0  0  0
  -18.9665   -8.1411  -38.7337 H   0  0  0  0  0  0
  -16.0786   -8.1682  -39.2328 H   0  0  0  0  0  0
  -18.4949   -7.7211  -41.0497 H   0  0  0  0  0  0
  -16.8204   -7.6225  -41.6924 H   0  0  0  0  0  0
  -19.5477  -10.0581  -40.9776 H   0  0  0  0  0  0
  -14.5377   -9.0178  -41.1625 H   0  0  0  0  0  0
  -16.1564  -13.7521  -41.6239 H   0  0  0  0  0  0
  -12.9477  -10.8624  -41.5605 H   0  0  0  0  0  0
  -13.7442  -13.2094  -41.6898 H   0  0  0  0  0  0
  -14.6080   -6.6048  -39.8273 H   0  0  0  0  0  0
  -15.8109   -3.7730  -39.8182 H   0  0  0  0  0  0
  -12.9305   -4.6137  -39.2751 H   0  0  0  0  0  0
  -13.1118   -2.4006  -40.3256 H   0  0  0  0  0  0
  -12.5782   -2.2962  -38.6136 H   0  0  0  0  0  0
  -14.2717   -1.8893  -39.0529 H   0  0  0  0  0  0
  -14.5532   -5.3474  -37.4983 H   0  0  0  0  0  0
  -15.1360   -3.6542  -37.3558 H   0  0  0  0  0  0
  -13.4424   -4.0611  -36.9166 H   0  0  0  0  0  0
  -16.3147   -3.3595  -41.9133 H   0  0  0  0  0  0
  -14.6112   -4.7145  -43.9315 H   0  0  0  0  0  0
  -17.1245   -2.9517  -44.0419 H   0  0  0  0  0  0
  -16.2704   -3.4021  -45.5566 H   0  0  0  0  0  0
  -16.4030   -5.6498  -46.4272 H   0  0  0  0  0  0
  -18.3097   -4.5811  -42.7411 H   0  0  0  0  0  0
  -17.6643   -7.7958  -46.4201 H   0  0  0  0  0  0
  -19.5480   -6.6965  -42.7353 H   0  0  0  0  0  0
  -19.3178   -9.2363  -45.3457 H   0  0  0  0  0  0
  -13.2380   -3.8278  -45.5186 H   0  0  0  0  0  0
  -12.3020   -1.0915  -44.7729 H   0  0  0  0  0  0
  -11.5496   -2.8830  -47.1431 H   0  0  0  0  0  0
  -10.7005   -1.3695  -46.6796 H   0  0  0  0  0  0
   -9.5368   -3.3931  -45.6845 H   0  0  0  0  0  0
  -14.9310    0.8789  -47.9323 H   0  0  0  0  0  0
  -13.6379    3.3298  -48.1120 H   0  0  0  0  0  0
  -14.6832    2.9374  -46.7049 H   0  0  0  0  0  0
  -11.6678    2.7574  -46.9750 H   0  0  0  0  0  0
  -12.6431    3.5066  -45.6657 H   0  0  0  0  0  0
  -13.2969    1.3252  -44.7472 H   0  0  0  0  0  0
  -11.6762    0.8869  -45.3859 H   0  0  0  0  0  0
  -14.9199    1.3787  -50.1319 H   0  0  0  0  0  0
  -12.2288    0.6110  -51.3040 H   0  0  0  0  0  0
  -15.0497    0.5378  -52.5352 H   0  0  0  0  0  0
  -13.5496    0.1016  -53.4219 H   0  0  0  0  0  0
  -14.7706   -1.3591  -51.0773 H   0  0  0  0  0  0
  -15.9482   -1.4885  -53.2825 H   0  0  0  0  0  0
  -15.1677   -3.0507  -52.8621 H   0  0  0  0  0  0
  -14.4034   -1.9609  -54.0682 H   0  0  0  0  0  0
  -12.3009   -1.4994  -50.9814 H   0  0  0  0  0  0
  -12.2481   -1.9728  -52.7134 H   0  0  0  0  0  0
  -13.0123   -3.0627  -51.5072 H   0  0  0  0  0  0
  -11.0772    2.0219  -52.4459 H   0  0  0  0  0  0
  -12.5612    4.6171  -53.1936 H   0  0  0  0  0  0
  -10.5881    2.3864  -56.2009 H   0  0  0  0  0  0
   -9.5510    4.1919  -53.0362 H   0  0  0  0  0  0
  -10.4358    5.7389  -53.2605 H   0  0  0  0  0  0
  -12.4982    4.4432  -50.4390 H   0  0  0  0  0  0
   -8.9733    5.8207  -48.5472 H   0  0  0  0  0  0
  1  2  1  0  0  0
  1137  1  0  0  0
  1138  1  0  0  0
  1139  1  0  0  0
  2  3  1  0  0  0
  2  5  1  0  0  0
  2140  1  0  0  0
  3  4  2  0  0  0
  3 13  1  0  0  0
  5  6  1  0  0  0
  5141  1  0  0  0
  5142  1  0  0  0
  6  7  2  0  0  0
  6  8  1  0  0  0
  7  9  1  0  0  0
  7143  1  0  0  0
  8 10  2  0  0  0
  8144  1  0  0  0
  9 11  2  0  0  0
  9145  1  0  0  0
 10 11  1  0  0  0
 10146  1  0  0  0
 11 12  1  0  0  0
 12147  1  0  0  0
 13 14  1  0  0  0
 13148  1  0  0  0
 14 15  1  0  0  0
 14 17  1  0  0  0
 14149  1  0  0  0
 15 16  2  0  0  0
 15 24  1  0  0  0
 17 18  1  0  0  0
 17150  1  0  0  0
 17151  1  0  0  0
 18 19  2  0  0  0
 18 20  1  0  0  0
 19 21  1  0  0  0
 19152  1  0  0  0
 20 22  2  0  0  0
 20153  1  0  0  0
 21 23  2  0  0  0
 21154  1  0  0  0
 22 23  1  0  0  0
 22155  1  0  0  0
 23156  1  0  0  0
 24 25  1  0  0  0
 24 30  1  0  0  0
 25 26  1  0  0  0
 25 28  1  0  0  0
 25157  1  0  0  0
 26 27  2  0  0  0
 26 31  1  0  0  0
 28 29  2  0  0  0
 28158  1  0  0  0
 29 30  1  0  0  0
 29159  1  0  0  0
 30160  1  0  0  0
 30161  1  0  0  0
 31 32  1  0  0  0
 31162  1  0  0  0
 32 33  1  0  0  0
 32 35  1  0  0  0
 32163  1  0  0  0
 33 34  2  0  0  0
 33 38  1  0  0  0
 35 36  1  0  0  0
 35 37  1  0  0  0
 35164  1  0  0  0
 36165  1  0  0  0
 37166  1  0  0  0
 37167  1  0  0  0
 37168  1  0  0  0
 38 39  1  0  0  0
 38169  1  0  0  0
 39 40  1  0  0  0
 39 42  1  0  0  0
 39170  1  0  0  0
 40 41  2  0  0  0
 40 46  1  0  0  0
 42 43  1  0  0  0
 42171  1  0  0  0
 42172  1  0  0  0
 43 44  1  0  0  0
 43 45  2  0  0  0
 44173  1  0  0  0
 46 47  1  0  0  0
 46174  1  0  0  0
 47 48  1  0  0  0
 47 50  1  0  0  0
 47175  1  0  0  0
 48 49  2  0  0  0
 48 55  1  0  0  0
 50 51  1  0  0  0
 50176  1  0  0  0
 50177  1  0  0  0
 51 52  1  0  0  0
 51178  1  0  0  0
 51179  1  0  0  0
 52 53  2  0  0  0
 52 54  1  0  0  0
 54180  1  0  0  0
 55 56  1  0  0  0
 55181  1  0  0  0
 56 57  1  0  0  0
 56 59  1  0  0  0
 56182  1  0  0  0
 57 58  2  0  0  0
 57 66  1  0  0  0
 59 60  1  0  0  0
 59183  1  0  0  0
 59184  1  0  0  0
 60 61  1  0  0  0
 60185  1  0  0  0
 60186  1  0  0  0
 61 62  1  0  0  0
 61187  1  0  0  0
 61188  1  0  0  0
 62 63  1  0  0  0
 62189  1  0  0  0
 63 64  1  0  0  0
 63 65  2  0  0  0
 64190  1  0  0  0
 64191  1  0  0  0
 65192  1  0  0  0
 66 67  1  0  0  0
 66193  1  0  0  0
 67 68  1  0  0  0
 67 70  1  0  0  0
 67194  1  0  0  0
 68 69  2  0  0  0
 68 72  1  0  0  0
 70 71  1  0  0  0
 70195  1  0  0  0
 70196  1  0  0  0
 71197  1  0  0  0
 72 73  1  0  0  0
 72198  1  0  0  0
 73 74  1  0  0  0
 73 76  1  0  0  0
 73199  1  0  0  0
 74 75  2  0  0  0
 74 86  1  0  0  0
 76 77  1  0  0  0
 76200  1  0  0  0
 76201  1  0  0  0
 77 78  2  0  0  0
 77 79  1  0  0  0
 78 80  1  0  0  0
 78202  1  0  0  0
 79 81  2  0  0  0
 79 82  1  0  0  0
 80 81  1  0  0  0
 81 83  1  0  0  0
 82 84  2  0  0  0
 82203  1  0  0  0
 83 85  2  0  0  0
 83204  1  0  0  0
 84 85  1  0  0  0
 84205  1  0  0  0
 85206  1  0  0  0
 86 87  1  0  0  0
 86207  1  0  0  0
 87 88  1  0  0  0
 87 90  1  0  0  0
 87208  1  0  0  0
 88 89  2  0  0  0
 88 93  1  0  0  0
 90 91  1  0  0  0
 90 92  1  0  0  0
 90209  1  0  0  0
 91210  1  0  0  0
 91211  1  0  0  0
 91212  1  0  0  0
 92213  1  0  0  0
 92214  1  0  0  0
 92215  1  0  0  0
 93 94  1  0  0  0
 93216  1  0  0  0
 94 95  1  0  0  0
 94 97  1  0  0  0
 94217  1  0  0  0
 95 96  2  0  0  0
 95105  1  0  0  0
 97 98  1  0  0  0
 97218  1  0  0  0
 97219  1  0  0  0
 98 99  2  0  0  0
 98100  1  0  0  0
 99101  1  0  0  0
 99220  1  0  0  0
100102  2  0  0  0
100221  1  0  0  0
101103  2  0  0  0
101222  1  0  0  0
102103  1  0  0  0
102223  1  0  0  0
103104  1  0  0  0
104224  1  0  0  0
105106  1  0  0  0
105225  1  0  0  0
106107  1  0  0  0
106109  1  0  0  0
106226  1  0  0  0
107108  2  0  0  0
107111  1  0  0  0
109110  1  0  0  0
109227  1  0  0  0
109228  1  0  0  0
110229  1  0  0  0
111112  1  0  0  0
111117  1  0  0  0
112113  1  0  0  0
112115  1  0  0  0
112230  1  0  0  0
113114  2  0  0  0
113118  1  0  0  0
115116  1  0  0  0
115231  1  0  0  0
115232  1  0  0  0
116117  1  0  0  0
116233  1  0  0  0
116234  1  0  0  0
117235  1  0  0  0
117236  1  0  0  0
118119  1  0  0  0
118237  1  0  0  0
119120  1  0  0  0
119122  1  0  0  0
119238  1  0  0  0
120121  2  0  0  0
120126  1  0  0  0
122123  1  0  0  0
122239  1  0  0  0
122240  1  0  0  0
123124  1  0  0  0
123125  1  0  0  0
123241  1  0  0  0
124242  1  0  0  0
124243  1  0  0  0
124244  1  0  0  0
125245  1  0  0  0
125246  1  0  0  0
125247  1  0  0  0
126127  1  0  0  0
126248  1  0  0  0
127128  1  0  0  0
127130  1  0  0  0
127249  1  0  0  0
128129  1  0  0  0
128136  2  0  0  0
129250  1  0  0  0
130131  1  0  0  0
130251  1  0  0  0
130252  1  0  0  0
131132  2  0  0  0
131133  1  0  0  0
132134  1  0  0  0
133135  2  0  0  0
133253  1  0  0  0
134135  1  0  0  0
134254  1  0  0  0
M  CHG  1   1   1
M  END
> <s_m_source_file>
../3h1z_ligand.sdf

> <i_m_source_file_index>
1

> <s_epik_input>
W2NIXTFbY0hdYyhbT0hdKVtjSF1bY0hdYzFbQ0gyXVtDQEhdKFtOSDMrXSlDKD1PKVtOSF1bQ0BASF0oW0NIMl1jMltjSF1bY0hdW2NIXVtjSF1bY0hdMilDKD1PKU4zW0NAQEhdKFtDSF09W0NIXVtDSDJdMylDKD1PKVtOSF1bQ0BASF0oW0NASF0oW09IXSlbQ0gzXSlDKD1PKVtOSF1bQ0BASF0oW0NIMl1DKD1PKVtPSF0pQyg9TylbTkhdW0NAQEhdKFtDSDJdW0NIMl1DKD1PKVtPSF0pQyg9TylbTkhdW0NAQEhdKFtDSDJdW0NIMl1bQ0gyXVtOSF0vQyhbTkgyXSk9TlxbSF0pQyg9TylbTkhdW0NAQEhdKFtDSDJdW09IXSlDKD1PKVtOSF1bQ0BASF0oW0NIMl1jNFtjSF1bbkhdYyhjNDUpW2NIXVtjSF1bY0hdW2NIXTUpQyg9TylbTkhdW0NAQEhdKFtDSF0oW0NIM10pW0NIM10pQyg9TylbTkhdW0NAQEhdKFtDSDJdYzZbY0hdW2NIXWMoW09IXSlbY0hdW2NIXTYpQyg9TylbTkhdW0NAQEhdKFtDSDJdW09IXSlDKD1PKU43W0NAQEhdKFtDSDJdW0NIMl1bQ0gyXTcpQyg9TylbTkhdW0NAQEhdKFtDSDJdW0NIXShbQ0gzXSlbQ0gzXSlDKD1PKVtOSF1bQ0BIXShDKD1PKVtPSF0pW0NIMl1DOD1OW0NIMl1OPVtDSF04

> <s_epik_cmdline>
J2VwaWtfYXBwJywgJy1pbWFlJywgJ2xpZ2FuZF9wcm8ubWFlJywgJy1vbWFlJywgJ2xpZ2FuZF9wcmVwLm1hZScsICctbXMnLCAnMScsICctcGgnLCAnNycsICctcGh0JywgJzAuNScsICctbnQn

> <s_epik_pKa_notes>
Molecule size exceeds maximum supported for generating protonation states

> <s_epik_Chemistry_Notes>
This compound has an imine and may undergo hydrolysis.

$$$$
