3h21_ligand
                    3D
 Schrodinger Suite 2020-3.
 28 29  0  0  1  0            999 V2000
  -76.9280   84.3450   92.9620 C   0  0  0  0  0  0
  -77.4740   83.1930   90.9850 C   0  0  0  0  0  0
  -78.8020   85.0770   91.4940 C   0  0  0  0  0  0
  -78.0110   85.3210   92.7190 C   0  0  0  0  0  0
  -79.5400   86.6940   96.8720 O   0  0  0  0  0  0
  -78.8750   87.7490   96.5790 C   0  0  0  0  0  0
  -79.3650   88.9260   96.7820 O   0  5  0  0  0  0
  -77.4420   87.5820   96.0070 C   0  0  2  0  0  0
  -76.8600   88.9210   95.5770 C   0  0  0  0  0  0
  -77.3370   86.5400   94.9020 C   0  0  0  0  0  0
  -78.2370   86.4350   93.6950 C   0  0  0  0  0  0
  -79.1570   87.2540   93.5150 O   0  0  0  0  0  0
  -76.3690   85.5900   95.0040 N   0  0  0  0  0  0
  -76.1330   84.5260   94.0940 N   0  0  0  0  0  0
  -75.0610   83.5710   94.3530 C   0  0  0  0  0  0
  -79.7250   85.8360   91.1930 O   0  0  0  0  0  0
  -76.7130   83.3270   92.0940 N   0  0  0  0  0  0
  -77.2250   82.1530   90.1590 N   0  0  0  0  0  0
  -78.4900   84.0320   90.7060 N   0  0  0  0  0  0
  -76.8125   87.1904   96.8196 H   0  0  0  0  0  0
  -76.9551   89.6437   96.4008 H   0  0  0  0  0  0
  -77.4066   89.2931   94.6979 H   0  0  0  0  0  0
  -75.7977   88.7940   95.3215 H   0  0  0  0  0  0
  -75.0314   82.8250   93.5451 H   0  0  0  0  0  0
  -75.2444   83.0653   95.3125 H   0  0  0  0  0  0
  -74.0990   84.1026   94.3967 H   0  0  0  0  0  0
  -76.3975   81.4623   90.3784 H   0  0  0  0  0  0
  -77.8498   81.9971   89.2672 H   0  0  0  0  0  0
  1  4  2  0  0  0
  1 14  1  0  0  0
  1 17  1  0  0  0
  2 17  2  0  0  0
  2 18  1  0  0  0
  2 19  1  0  0  0
  3  4  1  0  0  0
  3 16  2  0  0  0
  3 19  1  0  0  0
  4 11  1  0  0  0
  5  6  2  0  0  0
  6  7  1  0  0  0
  6  8  1  0  0  0
  8  9  1  0  0  0
  8 10  1  0  0  0
  8 20  1  0  0  0
  9 21  1  0  0  0
  9 22  1  0  0  0
  9 23  1  0  0  0
 10 11  1  0  0  0
 10 13  2  0  0  0
 11 12  2  0  0  0
 13 14  1  0  0  0
 14 15  1  0  0  0
 15 24  1  0  0  0
 15 25  1  0  0  0
 15 26  1  0  0  0
 18 27  1  0  0  0
 18 28  1  0  0  0
M  CHG  1   7  -1
M  END
> <s_m_source_file>
../3h21_ligand.sdf

> <i_m_source_file_index>
1

> <s_epik_input>
W0hdL049QyhcTjEpW05IXUMoPU8pW0NIXShDPTEyKUMoPU8pQyhbQ0BASF0oW0NIM10pQyg9TylbT0hdKT1OTjJbQ0gzXQ==

> <s_epik_cmdline>
J2VwaWtfYXBwJywgJy1pbWFlJywgJ2xpZ2FuZF9wcm8ubWFlJywgJy1vbWFlJywgJ2xpZ2FuZF9wcmVwLm1hZScsICctbXMnLCAnMScsICctcGgnLCAnNycsICctcGh0JywgJzAuNScsICctbnQn

> <r_epik_Ionization_Penalty>
  0.0424

> <r_epik_Ionization_Penalty_Charging>
  0.0004

> <r_epik_Ionization_Penalty_Neutral>
  0.0420

> <r_epik_State_Penalty>
  0.3060

> <r_epik_Charging_Adjusted_Penalty>
0.306468412174286

> <i_epik_Tot_Q>
-1

> <i_epik_Tot_abs_Q>
1

> <s_epik_Chemistry_Notes>
This compound has an imine and may undergo hydrolysis.

$$$$
