3h23_ligand
                    3D
 Schrodinger Suite 2020-3.
 38 39  0  0  1  0            999 V2000
  -78.7880   86.1580  101.2010 O   0  0  0  0  0  0
  -77.8490   85.3570  101.0800 C   0  0  0  0  0  0
  -77.4620   84.6210  102.0270 O   0  5  0  0  0  0
  -77.1040   85.3590   99.7820 C   0  0  0  0  0  0
  -75.9060   84.6230   99.6930 C   0  0  0  0  0  0
  -75.1650   84.6380   98.5090 C   0  0  0  0  0  0
  -77.5390   86.1620   98.7210 C   0  0  0  0  0  0
  -76.7940   86.1590   97.5440 C   0  0  0  0  0  0
  -75.5980   85.4180   97.4230 C   0  0  0  0  0  0
  -74.8800   85.4560   96.2350 O   0  0  0  0  0  0
  -73.5530   84.9670   96.0900 C   0  0  0  0  0  0
  -73.3220   84.6750   94.6210 C   0  0  0  0  0  0
  -74.2340   83.5950   94.0230 C   0  0  0  0  0  0
  -75.5400   84.1280   93.7050 N   0  0  0  0  0  0
  -76.2410   83.9210   92.5590 C   0  0  0  0  0  0
  -77.4340   84.7430   92.2340 C   0  0  2  0  0  0
  -77.9520   85.7360   93.0600 N   0  0  0  0  0  0
  -77.3740   86.2230   94.0150 O   0  0  0  0  0  0
  -78.1340   84.4720   90.9770 C   0  0  0  0  0  0
  -79.1580   85.1450   90.7130 O   0  0  0  0  0  0
  -77.7030   83.4560   90.2030 N   0  0  0  0  0  0
  -76.6070   82.7520   90.5190 C   0  0  0  0  0  0
  -75.9290   82.9750   91.6600 N   0  0  0  0  0  0
  -76.1430   81.8010   89.7050 N   0  0  0  0  0  0
  -75.5577   84.0424  100.5472 H   0  0  0  0  0  0
  -74.2532   84.0463   98.4275 H   0  0  0  0  0  0
  -78.4367   86.7733   98.8134 H   0  0  0  0  0  0
  -77.1436   86.7443   96.6935 H   0  0  0  0  0  0
  -72.8413   85.7276   96.4435 H   0  0  0  0  0  0
  -73.4336   84.0489   96.6840 H   0  0  0  0  0  0
  -73.4908   85.5900   94.0343 H   0  0  0  0  0  0
  -72.2877   84.3307   94.4738 H   0  0  0  0  0  0
  -73.7817   83.2030   93.1001 H   0  0  0  0  0  0
  -74.3569   82.7765   94.7475 H   0  0  0  0  0  0
  -76.0625   84.7713   94.4283 H   0  0  0  0  0  0
  -77.2480   85.4870   93.0226 H   0  0  0  0  0  0
  -78.2540   83.1887   89.2892 H   0  0  0  0  0  0
  -76.6638   81.5829   88.7609 H   0  0  0  0  0  0
  1  2  2  0  0  0
  2  3  1  0  0  0
  2  4  1  0  0  0
  4  5  2  0  0  0
  4  7  1  0  0  0
  5  6  1  0  0  0
  5 25  1  0  0  0
  6  9  2  0  0  0
  6 26  1  0  0  0
  7  8  2  0  0  0
  7 27  1  0  0  0
  8  9  1  0  0  0
  8 28  1  0  0  0
  9 10  1  0  0  0
 10 11  1  0  0  0
 11 12  1  0  0  0
 11 29  1  0  0  0
 11 30  1  0  0  0
 12 13  1  0  0  0
 12 31  1  0  0  0
 12 32  1  0  0  0
 13 14  1  0  0  0
 13 33  1  0  0  0
 13 34  1  0  0  0
 14 15  1  0  0  0
 14 35  1  0  0  0
 15 16  1  0  0  0
 15 23  2  0  0  0
 16 17  1  0  0  0
 16 19  1  0  0  0
 16 36  1  0  0  0
 17 18  2  0  0  0
 19 20  2  0  0  0
 19 21  1  0  0  0
 21 22  1  0  0  0
 21 37  1  0  0  0
 22 23  1  0  0  0
 22 24  2  0  0  0
 24 38  1  0  0  0
M  CHG  1   3  -1
M  END
> <s_m_source_file>
../3h23_ligand.sdf

> <i_m_source_file_index>
1

> <s_epik_input>
Tz1DKFtPSF0pYzFbY0hdW2NIXWMoW2NIXVtjSF0xKU9bQ0gyXVtDSDJdW0NIMl1bTkhdQzI9TkMoPU5cW0hdKVxbTkhdQyg9TylbQ0BIXTJOPU8=

> <s_epik_cmdline>
J2VwaWtfYXBwJywgJy1pbWFlJywgJ2xpZ2FuZF9wcm8ubWFlJywgJy1vbWFlJywgJ2xpZ2FuZF9wcmVwLm1hZScsICctbXMnLCAnMScsICctcGgnLCAnNycsICctcGh0JywgJzAuNScsICctbnQn

> <r_epik_Ionization_Penalty>
  0.0872

> <r_epik_Ionization_Penalty_Charging>
  0.0013

> <r_epik_Ionization_Penalty_Neutral>
  0.0859

> <r_epik_State_Penalty>
  0.4670

> <r_epik_Charging_Adjusted_Penalty>
0.468321176017534

> <i_epik_Tot_Q>
-1

> <i_epik_Tot_abs_Q>
1

> <s_epik_Chemistry_Notes>
This compound has an imine and may undergo hydrolysis.

$$$$
