3h26_ligand
                    3D
 Schrodinger Suite 2020-3.
 22 23  0  0  1  0            999 V2000
  -80.1420   85.8730   91.1380 O   0  5  0  0  0  0
  -79.2090   85.1030   91.4650 C   0  0  0  0  0  0
  -78.9780   83.9900   90.7340 N   0  3  0  0  0  0
  -77.9770   83.1340   91.0560 C   0  0  0  0  0  0
  -77.7820   82.0340   90.2930 N   0  0  0  0  0  0
  -77.1830   83.3700   92.1290 N   0  0  0  0  0  0
  -78.4010   85.3630   92.5730 C   0  0  0  0  0  0
  -77.3730   84.4730   92.9010 C   0  0  0  0  0  0
  -76.5890   84.7200   93.9700 N   0  0  0  0  0  0
  -75.5120   83.8050   94.3320 C   0  0  0  0  0  0
  -76.7830   85.8080   94.7270 C   0  0  0  0  0  0
  -78.6000   86.4620   93.3340 N   0  0  0  0  0  0
  -77.8080   86.7000   94.4060 C   0  0  0  0  0  0
  -78.0340   87.9250   95.2440 C   0  0  0  0  0  0
  -78.9570   88.7110   94.9370 O   0  0  0  0  0  0
  -77.2930   88.1400   96.2290 O   0  5  0  0  0  0
  -78.4286   81.8463   89.4231 H   0  0  0  0  0  0
  -75.4851   82.9693   93.6172 H   0  0  0  0  0  0
  -75.6873   83.4151   95.3455 H   0  0  0  0  0  0
  -74.5516   84.3407   94.3062 H   0  0  0  0  0  0
  -76.1436   85.9960   95.5895 H   0  0  0  0  0  0
  -79.6075   83.7653   89.8603 H   0  0  0  0  0  0
  1  2  1  0  0  0
  2  3  1  0  0  0
  2  7  2  0  0  0
  3  4  1  0  0  0
  3 22  1  0  0  0
  4  5  2  0  0  0
  4  6  1  0  0  0
  5 17  1  0  0  0
  6  8  2  0  0  0
  7  8  1  0  0  0
  7 12  1  0  0  0
  8  9  1  0  0  0
  9 10  1  0  0  0
  9 11  1  0  0  0
 10 18  1  0  0  0
 10 19  1  0  0  0
 10 20  1  0  0  0
 11 13  1  0  0  0
 11 21  1  0  0  0
 12 13  2  0  0  0
 13 14  1  0  0  0
 14 15  2  0  0  0
 14 16  1  0  0  0
M  CHG  3   1  -1   3   1  16  -1
M  END
> <s_m_source_file>
../3h26_ligand.sdf

> <i_m_source_file_index>
1

> <s_epik_input>
Tz1jMVtuSF0vYyg9TlxbSF0pW25IXWMoYzEyKU4oW0NIM10pW0NIMl1DKD1OMilDKD1PKVtPSF0=

> <s_epik_cmdline>
J2VwaWtfYXBwJywgJy1pbWFlJywgJ2xpZ2FuZF9wcm8ubWFlJywgJy1vbWFlJywgJ2xpZ2FuZF9wcmVwLm1hZScsICctbXMnLCAnMScsICctcGgnLCAnNycsICctcGh0JywgJzAuNScsICctbnQn

> <r_lp_tautomer_probability>
1

> <r_epik_Ionization_Penalty>
  0.0000

> <r_epik_Ionization_Penalty_Charging>
  0.0000

> <r_epik_Ionization_Penalty_Neutral>
  0.0000

> <r_epik_State_Penalty>
 -0.0000

> <r_epik_Charging_Adjusted_Penalty>
1.01358890064003e-06

> <i_epik_Tot_Q>
-1

> <i_epik_Tot_abs_Q>
3

> <s_epik_Chemistry_Notes>
This compound has an imine and may undergo hydrolysis.

$$$$
