3h2a_ligand
                    3D
 Schrodinger Suite 2020-3.
 17 17  0  0  1  0            999 V2000
  -79.7200   85.6490   91.1270 O   0  0  0  0  0  0
  -78.7460   84.8850   91.2890 C   0  0  0  0  0  0
  -77.7700   85.0420   92.4050 C   0  0  0  0  0  0
  -77.8570   86.0470   93.3340 N   0  3  0  0  0  0
  -77.0190   86.1350   94.2280 O   0  0  0  0  0  0
  -78.7620   86.8770   93.3090 O   0  5  0  0  0  0
  -78.5860   83.8540   90.4300 N   0  0  0  0  0  0
  -77.5610   82.9680   90.5430 C   0  0  0  0  0  0
  -77.4690   81.9680   89.6340 N   0  0  0  0  0  0
  -76.6360   83.0440   91.5400 N   0  0  0  0  0  0
  -76.6780   84.0240   92.4760 C   0  0  0  0  0  0
  -75.7220   84.0730   93.4390 N   0  0  0  0  0  0
  -78.2080   81.8925   88.8227 H   0  0  0  0  0  0
  -75.7497   84.8652   94.2017 H   0  0  0  0  0  0
  -76.6553   81.2314   89.7071 H   0  0  0  0  0  0
  -79.2989   83.7100   89.6048 H   0  0  0  0  0  0
  -74.9199   83.3205   93.4565 H   0  0  0  0  0  0
  1  2  2  0  0  0
  2  3  1  0  0  0
  2  7  1  0  0  0
  3  4  1  0  0  0
  3 11  2  0  0  0
  4  5  2  0  0  0
  4  6  1  0  0  0
  7  8  1  0  0  0
  7 16  1  0  0  0
  8  9  1  0  0  0
  8 10  2  0  0  0
  9 13  1  0  0  0
  9 15  1  0  0  0
 10 11  1  0  0  0
 11 12  1  0  0  0
 12 14  1  0  0  0
 12 17  1  0  0  0
M  CHG  2   4   1   6  -1
M  END
> <s_m_source_file>
../3h2a_ligand.sdf

> <i_m_source_file_index>
1

> <s_epik_input>
Tz1DMVtDSF0oW04rXSg9TylbTy1dKS9DKD1OL1tIXSlbTkhdQyhcW05IXTEpPU4vW0hd

> <s_epik_cmdline>
J2VwaWtfYXBwJywgJy1pbWFlJywgJ2xpZ2FuZF9wcm8ubWFlJywgJy1vbWFlJywgJ2xpZ2FuZF9wcmVwLm1hZScsICctbXMnLCAnMScsICctcGgnLCAnNycsICctcGh0JywgJzAuNScsICctbnQn

> <r_lp_tautomer_probability>
1

> <r_epik_Ionization_Penalty>
  0.2381

> <r_epik_Ionization_Penalty_Charging>
  0.2373

> <r_epik_Ionization_Penalty_Neutral>
  0.0008

> <r_epik_State_Penalty>
 -0.0000

> <r_epik_Charging_Adjusted_Penalty>
0.237274826537389

> <i_epik_Tot_Q>
0

> <i_epik_Tot_abs_Q>
2

$$$$
