3h2m_ligand
                    3D
 Schrodinger Suite 2020-3.
 35 36  0  0  1  0            999 V2000
  -81.4830   87.1920   90.8780 O   0  0  0  0  0  0
  -80.5160   86.5170   91.2410 C   0  0  0  0  0  0
  -79.7110   86.8730   92.4420 C   0  0  0  0  0  0
  -78.5540   85.9750   92.7200 C   0  0  0  0  0  0
  -78.3210   84.9040   91.9070 N   0  0  0  0  0  0
  -79.1000   84.6640   90.8160 C   0  0  0  0  0  0
  -78.8470   83.6300   89.9850 N   0  3  0  0  0  0
  -80.1650   85.4310   90.5300 N   0  0  0  0  0  0
  -79.9770   87.9410   93.2550 N   0  0  0  0  0  0
  -79.1970   88.2160   94.3530 C   0  0  2  0  0  0
  -79.6120   89.4690   95.1200 C   0  0  0  0  0  0
  -80.2140   89.3620   96.5300 C   0  0  0  0  0  0
  -80.9310   88.0480   96.7550 O   0  0  0  0  0  0
  -79.0170   89.6730   97.4610 C   0  0  0  0  0  0
  -81.1940   90.5630   96.7770 C   0  0  0  0  0  0
  -77.9750   87.3920   94.7480 C   0  0  0  0  0  0
  -77.7380   86.2330   93.8330 N   0  0  0  0  0  0
  -76.6340   85.2740   94.0060 C   0  0  0  0  0  0
  -77.9870   82.9705   90.1736 H   0  0  0  0  0  0
  -79.3728   87.2133   93.9363 H   0  0  0  0  0  0
  -78.7362   90.1194   95.2611 H   0  0  0  0  0  0
  -80.3821   90.0096   94.5501 H   0  0  0  0  0  0
  -80.3919   87.0980   96.6250 H   0  0  0  0  0  0
  -78.2608   88.8802   97.3632 H   0  0  0  0  0  0
  -79.3658   89.7206   98.5032 H   0  0  0  0  0  0
  -78.5739   90.6393   97.1781 H   0  0  0  0  0  0
  -82.0917   90.4379   96.1537 H   0  0  0  0  0  0
  -80.6926   91.5057   96.5127 H   0  0  0  0  0  0
  -81.4845   90.5870   97.8377 H   0  0  0  0  0  0
  -77.0789   88.0295   94.7221 H   0  0  0  0  0  0
  -78.1134   86.9951   95.7645 H   0  0  0  0  0  0
  -76.6763   84.5183   93.2078 H   0  0  0  0  0  0
  -76.7276   84.7797   94.9842 H   0  0  0  0  0  0
  -75.6735   85.8076   93.9552 H   0  0  0  0  0  0
  -79.5009   83.4472   89.1195 H   0  0  0  0  0  0
  1  2  2  0  0  0
  2  3  1  0  0  0
  2  8  1  0  0  0
  3  4  1  0  0  0
  3  9  2  0  0  0
  4  5  2  0  0  0
  4 17  1  0  0  0
  5  6  1  0  0  0
  6  7  2  0  0  0
  6  8  1  0  0  0
  7 19  1  0  0  0
  7 35  1  0  0  0
  9 10  1  0  0  0
 10 11  1  0  0  0
 10 16  1  0  0  0
 10 20  1  0  0  0
 11 12  1  0  0  0
 11 21  1  0  0  0
 11 22  1  0  0  0
 12 13  1  0  0  0
 12 14  1  0  0  0
 12 15  1  0  0  0
 13 23  1  0  0  0
 14 24  1  0  0  0
 14 25  1  0  0  0
 14 26  1  0  0  0
 15 27  1  0  0  0
 15 28  1  0  0  0
 15 29  1  0  0  0
 16 17  1  0  0  0
 16 30  1  0  0  0
 16 31  1  0  0  0
 17 18  1  0  0  0
 18 32  1  0  0  0
 18 33  1  0  0  0
 18 34  1  0  0  0
M  CHG  1   7   1
M  END
> <s_m_source_file>
../3h2m_ligand.sdf

> <i_m_source_file_index>
1

> <s_epik_input>
Tz1DMVtOSF1DKD1OXFtIXSlcTj1DKEMxPTIpTihbQ0gzXSlbQ0gyXVtDSF0oTjIpW0NIMl1DKFtPSF0pKFtDSDNdKVtDSDNd

> <s_epik_cmdline>
J2VwaWtfYXBwJywgJy1pbWFlJywgJ2xpZ2FuZF9wcm8ubWFlJywgJy1vbWFlJywgJ2xpZ2FuZF9wcmVwLm1hZScsICctbXMnLCAnMScsICctcGgnLCAnNycsICctcGh0JywgJzAuNScsICctbnQn

> <r_lp_tautomer_probability>
1

> <r_epik_Ionization_Penalty>
  0.0032

> <r_epik_Ionization_Penalty_Charging>
  0.0000

> <r_epik_Ionization_Penalty_Neutral>
  0.0032

> <r_epik_State_Penalty>
 -0.0000

> <r_epik_Charging_Adjusted_Penalty>
2.18070985149648e-12

> <i_epik_Tot_Q>
1

> <i_epik_Tot_abs_Q>
1

> <s_epik_Chemistry_Notes>
This compound has an imine and may undergo hydrolysis.

$$$$
