3h2n_ligand
                    3D
 Schrodinger Suite 2020-3.
 22 23  0  0  1  0            999 V2000
  -80.4690   86.2800   91.2880 O   0  0  0  0  0  0
  -79.5350   85.5190   91.4840 C   0  0  0  0  0  0
  -79.3450   84.4240   90.7420 N   0  0  0  0  0  0
  -78.6560   85.7770   92.6300 C   0  0  0  0  0  0
  -78.8680   86.8500   93.4290 N   0  0  0  0  0  0
  -78.1650   86.9190   94.7040 C   0  0  2  0  0  0
  -78.2110   88.3530   95.2410 C   0  0  0  0  0  0
  -76.7470   86.3230   94.5540 C   0  0  0  0  0  0
  -76.7160   84.9900   93.9230 N   0  0  0  0  0  0
  -77.5720   84.7700   92.8890 C   0  0  0  0  0  0
  -77.4600   83.7050   92.0490 N   0  0  0  0  0  0
  -78.3130   83.5640   90.9830 C   0  0  0  0  0  0
  -78.1790   82.4880   90.1580 N   0  0  0  0  0  0
  -80.0299   84.1965   89.9119 H   0  0  0  0  0  0
  -78.7094   86.2933   95.4266 H   0  0  0  0  0  0
  -79.2574   88.6849   95.3111 H   0  0  0  0  0  0
  -77.6604   89.0177   94.5591 H   0  0  0  0  0  0
  -77.7482   88.3860   96.2384 H   0  0  0  0  0  0
  -76.1331   86.9898   93.9308 H   0  0  0  0  0  0
  -76.2851   86.2211   95.5471 H   0  0  0  0  0  0
  -76.0197   84.2227   94.2924 H   0  0  0  0  0  0
  -78.8569   82.3646   89.3006 H   0  0  0  0  0  0
  1  2  2  0  0  0
  2  3  1  0  0  0
  2  4  1  0  0  0
  3 12  1  0  0  0
  3 14  1  0  0  0
  4  5  2  0  0  0
  4 10  1  0  0  0
  5  6  1  0  0  0
  6  7  1  0  0  0
  6  8  1  0  0  0
  6 15  1  0  0  0
  7 16  1  0  0  0
  7 17  1  0  0  0
  7 18  1  0  0  0
  8  9  1  0  0  0
  8 19  1  0  0  0
  8 20  1  0  0  0
  9 10  1  0  0  0
  9 21  1  0  0  0
 10 11  2  0  0  0
 11 12  1  0  0  0
 12 13  2  0  0  0
 13 22  1  0  0  0
M  END
> <s_m_source_file>
../3h2n_ligand.sdf

> <i_m_source_file_index>
1

> <s_epik_input>
Tz1DMVtOSF0vQyg9Ti9bSF0pTj1DKEMxPTIpW05IXVtDSDJdW0NASF0oTjIpW0NIM10=

> <s_epik_cmdline>
J2VwaWtfYXBwJywgJy1pbWFlJywgJ2xpZ2FuZF9wcm8ubWFlJywgJy1vbWFlJywgJ2xpZ2FuZF9wcmVwLm1hZScsICctbXMnLCAnMScsICctcGgnLCAnNycsICctcGh0JywgJzAuNScsICctbnQn

> <r_epik_Ionization_Penalty>
 15.6656

> <r_epik_Ionization_Penalty_Charging>
  0.0000

> <r_epik_Ionization_Penalty_Neutral>
 15.6656

> <r_epik_State_Penalty>
  0.4107

> <r_epik_Charging_Adjusted_Penalty>
0.410679838952604

> <i_epik_Tot_Q>
0

> <i_epik_Tot_abs_Q>
0

> <s_epik_Chemistry_Notes>
This compound has an imine and may undergo hydrolysis.

$$$$
