3h2o_ligand
                    3D
 Schrodinger Suite 2020-3.
 37 39  0  0  1  0            999 V2000
  -82.9760   95.4260   94.3410 O   0  5  0  0  0  0
  -82.7060   94.8080   95.4130 C   0  0  0  0  0  0
  -83.4110   94.8740   96.4430 O   0  0  0  0  0  0
  -81.5120   93.9070   95.4640 C   0  0  0  0  0  0
  -81.1900   93.2080   96.6260 C   0  0  0  0  0  0
  -80.0860   92.3640   96.6170 C   0  0  0  0  0  0
  -80.7200   93.7750   94.3310 C   0  0  0  0  0  0
  -79.6190   92.9410   94.3180 C   0  0  0  0  0  0
  -79.3110   92.2390   95.4580 C   0  0  0  0  0  0
  -78.2250   91.4520   95.4110 N   0  0  0  0  0  0
  -78.2000   90.1920   96.1360 C   0  0  0  0  0  0
  -79.4190   89.3320   95.8930 C   0  0  0  0  0  0
  -79.0020   88.2220   95.0070 C   0  0  0  0  0  0
  -77.7640   87.4290   95.3280 C   0  0  0  0  0  0
  -77.5000   86.3650   94.3420 N   0  0  0  0  0  0
  -78.2950   86.1330   93.2830 C   0  0  0  0  0  0
  -78.0180   85.1600   92.3790 N   0  0  0  0  0  0
  -78.8700   84.9680   91.3110 C   0  0  0  0  0  0
  -78.5920   83.9840   90.4280 N   0  0  0  0  0  0
  -79.9970   85.7060   91.0700 N   0  3  0  0  0  0
  -80.3680   86.7180   91.8650 C   0  0  0  0  0  0
  -81.4010   87.3690   91.6120 O   0  0  0  0  0  0
  -79.5110   86.9970   93.0550 C   0  0  0  0  0  0
  -79.7920   87.9910   93.9320 N   0  0  0  0  0  0
  -81.7938   93.3214   97.5264 H   0  0  0  0  0  0
  -79.8237   91.7997   97.5119 H   0  0  0  0  0  0
  -80.9722   94.3408   93.4341 H   0  0  0  0  0  0
  -79.0070   92.8419   93.4215 H   0  0  0  0  0  0
  -77.3511   91.7642   94.8204 H   0  0  0  0  0  0
  -77.3193   89.6092   95.8281 H   0  0  0  0  0  0
  -78.1481   90.3916   97.2165 H   0  0  0  0  0  0
  -79.7902   88.9427   96.8525 H   0  0  0  0  0  0
  -80.2040   89.9355   95.4139 H   0  0  0  0  0  0
  -77.1315   87.6203   96.1948 H   0  0  0  0  0  0
  -77.6998   83.3559   90.5673 H   0  0  0  0  0  0
  -79.2579   83.8109   89.5697 H   0  0  0  0  0  0
  -80.6302   85.4751   90.2007 H   0  0  0  0  0  0
  1  2  1  0  0  0
  2  3  2  0  0  0
  2  4  1  0  0  0
  4  5  2  0  0  0
  4  7  1  0  0  0
  5  6  1  0  0  0
  5 25  1  0  0  0
  6  9  2  0  0  0
  6 26  1  0  0  0
  7  8  2  0  0  0
  7 27  1  0  0  0
  8  9  1  0  0  0
  8 28  1  0  0  0
  9 10  1  0  0  0
 10 11  1  0  0  0
 10 29  1  0  0  0
 11 12  1  0  0  0
 11 30  1  0  0  0
 11 31  1  0  0  0
 12 13  1  0  0  0
 12 32  1  0  0  0
 12 33  1  0  0  0
 13 14  1  0  0  0
 13 24  2  0  0  0
 14 15  2  0  0  0
 14 34  1  0  0  0
 15 16  1  0  0  0
 16 17  1  0  0  0
 16 23  2  0  0  0
 17 18  2  0  0  0
 18 19  1  0  0  0
 18 20  1  0  0  0
 19 35  1  0  0  0
 19 36  1  0  0  0
 20 21  1  0  0  0
 20 37  1  0  0  0
 21 22  2  0  0  0
 21 23  1  0  0  0
 23 24  1  0  0  0
M  CHG  2   1  -1  20   1
M  END
> <s_m_source_file>
../3h2o_ligand.sdf

> <i_m_source_file_index>
1

> <s_epik_input>
W09IXUMoPU8pYzFbY0hdW2NIXWMoW2NIXVtjSF0xKVtOSF1bQ0gyXVtDSDJdYyhbY0hdbjIpbmMoYzIzKWMoPU8pW25IXWMoXFtuSF0zKT1OL1tIXQ==

> <s_epik_cmdline>
J2VwaWtfYXBwJywgJy1pbWFlJywgJ2xpZ2FuZF9wcm8ubWFlJywgJy1vbWFlJywgJ2xpZ2FuZF9wcmVwLm1hZScsICctbXMnLCAnMScsICctcGgnLCAnNycsICctcGh0JywgJzAuNScsICctbnQn

> <r_lp_tautomer_probability>
1

> <r_epik_Ionization_Penalty>
  0.2817

> <r_epik_Ionization_Penalty_Charging>
  0.2797

> <r_epik_Ionization_Penalty_Neutral>
  0.0020

> <r_epik_State_Penalty>
 -0.0000

> <r_epik_Charging_Adjusted_Penalty>
0.279713869296607

> <i_epik_Tot_Q>
0

> <i_epik_Tot_abs_Q>
2

> <s_epik_Chemistry_Notes>
This compound has an imine and may undergo hydrolysis.

$$$$
