3h30_ligand
                    3D
 Schrodinger Suite 2020-3.
 32 34  0  0  1  0            999 V2000
   18.0160   -2.9300    6.7590 C   0  0  0  0  0  0
   18.9360   -3.9750    6.7390 C   0  0  0  0  0  0
   19.4540   -4.4220    5.5280 C   0  0  0  0  0  0
   20.5960   -5.7220    5.5180 Cl  0  0  0  0  0  0
   19.0450   -3.8210    4.3370 C   0  0  0  0  0  0
   19.6730   -4.3670    2.8260 Cl  0  0  0  0  0  0
   18.1240   -2.7760    4.3580 C   0  0  0  0  0  0
   17.6120   -2.3310    5.5740 C   0  0  0  0  0  0
   16.7420   -1.3780    5.8940 N   0  0  0  0  0  0
   16.5990   -1.3700    7.2180 C   0  0  0  0  0  0
   17.3780   -2.3150    7.7470 N   0  0  0  0  0  0
   17.5060   -2.6470    9.1810 C   0  0  2  0  0  0
   16.4260   -2.0430    9.9320 O   0  0  0  0  0  0
   16.8820   -1.8890   11.3070 C   0  0  2  0  0  0
   16.5630   -0.4580   11.7490 C   0  0  0  0  0  0
   15.1450   -0.2690   11.7620 O   0  0  0  0  0  0
   18.4160   -2.1350   11.2660 C   0  0  1  0  0  0
   18.7000   -3.4580   11.7500 O   0  0  0  0  0  0
   18.7600   -2.0390    9.7780 C   0  0  1  0  0  0
   19.8860   -2.8600    9.4660 O   0  0  0  0  0  0
   19.2502   -4.4426    7.6721 H   0  0  0  0  0  0
   17.8055   -2.3086    3.4263 H   0  0  0  0  0  0
   15.9494   -0.6987    7.7796 H   0  0  0  0  0  0
   17.4733   -3.7448    9.2421 H   0  0  0  0  0  0
   16.3630   -2.5940   11.9730 H   0  0  0  0  0  0
   16.9653   -0.2878   12.7585 H   0  0  0  0  0  0
   17.0218    0.2536   11.0467 H   0  0  0  0  0  0
   14.7224    0.7032   12.0555 H   0  0  0  0  0  0
   19.0213   -1.4796   11.9094 H   0  0  0  0  0  0
   18.5127   -3.7100   12.8042 H   0  0  0  0  0  0
   19.0657   -1.0511    9.4029 H   0  0  0  0  0  0
   20.2646   -2.9053    8.4342 H   0  0  0  0  0  0
  1  2  1  0  0  0
  1  8  2  0  0  0
  1 11  1  0  0  0
  2  3  2  0  0  0
  2 21  1  0  0  0
  3  4  1  0  0  0
  3  5  1  0  0  0
  5  6  1  0  0  0
  5  7  2  0  0  0
  7  8  1  0  0  0
  7 22  1  0  0  0
  8  9  1  0  0  0
  9 10  2  0  0  0
 10 11  1  0  0  0
 10 23  1  0  0  0
 11 12  1  0  0  0
 12 13  1  0  0  0
 12 19  1  0  0  0
 12 24  1  0  0  0
 13 14  1  0  0  0
 14 15  1  0  0  0
 14 17  1  0  0  0
 14 25  1  0  0  0
 15 16  1  0  0  0
 15 26  1  0  0  0
 15 27  1  0  0  0
 16 28  1  0  0  0
 17 18  1  0  0  0
 17 19  1  0  0  0
 17 29  1  0  0  0
 18 30  1  0  0  0
 19 20  1  0  0  0
 19 31  1  0  0  0
 20 32  1  0  0  0
M  END
> <s_m_source_file>
../3h30_ligand.sdf

> <i_m_source_file_index>
1

> <s_epik_input>
W2NIXTFjKENsKWMoQ2wpW2NIXWMoYzEyKW5bY0hdbjJbQ0BASF0zT1tDQEhdKFtDSDJdW09IXSlbQ0BASF0oW09IXSlbQ0BIXTNbT0hd

> <s_epik_cmdline>
J2VwaWtfYXBwJywgJy1pbWFlJywgJ2xpZ2FuZF9wcm8ubWFlJywgJy1vbWFlJywgJ2xpZ2FuZF9wcmVwLm1hZScsICctbXMnLCAnMScsICctcGgnLCAnNycsICctcGh0JywgJzAuNScsICctbnQn

> <r_lp_tautomer_probability>
1

> <r_epik_Ionization_Penalty>
  0.0034

> <r_epik_Ionization_Penalty_Charging>
  0.0000

> <r_epik_Ionization_Penalty_Neutral>
  0.0034

> <r_epik_State_Penalty>
 -0.0000

> <r_epik_Charging_Adjusted_Penalty>
0

> <i_epik_Tot_Q>
0

> <i_epik_Tot_abs_Q>
0

> <s_epik_Chemistry_Notes>
This compound contains an acetal/aminal-like group ( X-CH(R)-Y where X, Y are N, S, or O) that may be acid/base labile, releasing an aldehyde.

$$$$
