3h3c_ligand
                    3D
 Schrodinger Suite 2020-3.
 57 59  0  0  1  0            999 V2000
   16.9110  -10.3060    1.1380 C   0  0  0  0  0  0
   18.8950  -10.7860    2.4290 C   0  0  0  0  0  0
   14.6980   -9.5710    2.0190 C   0  0  0  0  0  0
   12.5790   -8.7150    2.4970 C   0  0  0  0  0  0
   12.2010   -7.7260    5.7620 F   0  0  0  0  0  0
   11.7480   -8.6460    4.8470 C   0  0  0  0  0  0
   10.7250   -7.9740    4.2090 F   0  0  0  0  0  0
   11.3180   -9.8180    5.4780 F   0  0  0  0  0  0
   12.8050   -8.9840    3.8250 C   0  0  0  0  0  0
   13.5630   -9.0200    1.6430 N   0  0  0  0  0  0
   14.0260   -9.5520    4.2190 C   0  0  0  0  0  0
   14.2920   -9.8180    5.5540 N   0  0  0  0  0  0
   15.5940  -10.3650    5.9030 C   0  0  2  0  0  0
   15.5630  -11.9050    5.7560 C   0  0  0  0  0  0
   15.7660  -12.4540    7.1820 C   0  0  0  0  0  0
   16.3970  -11.3130    8.0170 C   0  0  0  0  0  0
   15.9710   -9.9870    7.3760 C   0  0  1  0  0  0
   17.1250   -9.0630    7.4200 N   0  3  0  0  0  0
   17.4810   -8.6910    8.8030 C   0  0  0  0  0  0
   16.7650   -7.7880    6.7900 C   0  0  0  0  0  0
   14.9340   -9.8600    3.2990 N   0  0  0  0  0  0
   15.6110   -9.8330    1.0280 N   0  0  0  0  0  0
   17.5890  -10.3440    2.3740 C   0  0  0  0  0  0
   17.5600  -10.6950   -0.0500 C   0  0  0  0  0  0
   18.8740  -11.1500    0.0340 C   0  0  0  0  0  0
   19.5570  -11.1970    1.2570 C   0  0  0  0  0  0
   21.2710  -11.7650    1.3980 S   0  0  0  0  0  0
   21.2630  -13.0550    2.0400 O   0  0  0  0  0  0
   21.9290  -11.4690    0.1760 O   0  0  0  0  0  0
   21.8560  -10.6820    2.5200 N   0  0  3  0  0  0
   22.0240   -9.2280    2.2960 C   0  0  0  0  0  0
   19.4168  -10.8170    3.3855 H   0  0  0  0  0  0
   11.6426   -8.2741    2.1551 H   0  0  0  0  0  0
   13.5475   -9.6256    6.3406 H   0  0  0  0  0  0
   16.2956   -9.9137    5.1860 H   0  0  0  0  0  0
   14.5931  -12.2141    5.3390 H   0  0  0  0  0  0
   16.3708  -12.2253    5.0816 H   0  0  0  0  0  0
   14.7941  -12.7527    7.6017 H   0  0  0  0  0  0
   16.4342  -13.3271    7.1471 H   0  0  0  0  0  0
   16.0346  -11.3738    9.0538 H   0  0  0  0  0  0
   17.4924  -11.4125    8.0050 H   0  0  0  0  0  0
   15.1621   -9.4626    7.9058 H   0  0  0  0  0  0
   17.9531   -9.5800    6.9130 H   0  0  0  0  0  0
   17.7692   -9.5930    9.3627 H   0  0  0  0  0  0
   16.6153   -8.2183    9.2899 H   0  0  0  0  0  0
   18.3238   -7.9843    8.7872 H   0  0  0  0  0  0
   16.4808   -7.9642    5.7421 H   0  0  0  0  0  0
   17.6264   -7.1049    6.8264 H   0  0  0  0  0  0
   15.9179   -7.3389    7.3292 H   0  0  0  0  0  0
   15.1868   -9.6159    0.0366 H   0  0  0  0  0  0
   17.0821  -10.0247    3.2846 H   0  0  0  0  0  0
   17.0473  -10.6414   -1.0104 H   0  0  0  0  0  0
   19.3829  -11.4771   -0.8727 H   0  0  0  0  0  0
   22.2756  -11.1516    3.4219 H   0  0  0  0  0  0
   22.4284   -8.7611    3.2062 H   0  0  0  0  0  0
   21.0490   -8.7790    2.0557 H   0  0  0  0  0  0
   22.7194   -9.0638    1.4597 H   0  0  0  0  0  0
  1 22  1  0  0  0
  1 23  2  0  0  0
  1 24  1  0  0  0
  2 23  1  0  0  0
  2 26  2  0  0  0
  2 32  1  0  0  0
  3 10  2  0  0  0
  3 21  1  0  0  0
  3 22  1  0  0  0
  4  9  2  0  0  0
  4 10  1  0  0  0
  4 33  1  0  0  0
  5  6  1  0  0  0
  6  7  1  0  0  0
  6  8  1  0  0  0
  6  9  1  0  0  0
  9 11  1  0  0  0
 11 12  1  0  0  0
 11 21  2  0  0  0
 12 13  1  0  0  0
 12 34  1  0  0  0
 13 14  1  0  0  0
 13 17  1  0  0  0
 13 35  1  0  0  0
 14 15  1  0  0  0
 14 36  1  0  0  0
 14 37  1  0  0  0
 15 16  1  0  0  0
 15 38  1  0  0  0
 15 39  1  0  0  0
 16 17  1  0  0  0
 16 40  1  0  0  0
 16 41  1  0  0  0
 17 18  1  0  0  0
 17 42  1  0  0  0
 18 19  1  0  0  0
 18 20  1  0  0  0
 18 43  1  0  0  0
 19 44  1  0  0  0
 19 45  1  0  0  0
 19 46  1  0  0  0
 20 47  1  0  0  0
 20 48  1  0  0  0
 20 49  1  0  0  0
 22 50  1  0  0  0
 23 51  1  0  0  0
 24 25  2  0  0  0
 24 52  1  0  0  0
 25 26  1  0  0  0
 25 53  1  0  0  0
 26 27  1  0  0  0
 27 28  2  0  0  0
 27 29  2  0  0  0
 27 30  1  0  0  0
 30 31  1  0  0  0
 30 54  1  0  0  0
 31 55  1  0  0  0
 31 56  1  0  0  0
 31 57  1  0  0  0
M  CHG  1  18   1
M  END
> <s_m_source_file>
../3h3c_ligand.sdf

> <i_m_source_file_index>
1

> <s_epik_input>
W0NIM11bTkhdUyg9TykoPU8pYyhbY0hdW2NIXTEpW2NIXVtjSF1jMVtOSF1jMm5bY0hdYyhDKEYpKEYpRiljKG4yKVtOSF1bQ0BASF0zW0NIMl1bQ0gyXVtDSDJdW0NASF0zW05IK10oW0NIM10pW0NIM10=

> <s_epik_cmdline>
J2VwaWtfYXBwJywgJy1pbWFlJywgJ2xpZ2FuZF9wcm8ubWFlJywgJy1vbWFlJywgJ2xpZ2FuZF9wcmVwLm1hZScsICctbXMnLCAnMScsICctcGgnLCAnNycsICctcGh0JywgJzAuNScsICctbnQn

> <r_lp_tautomer_probability>
1

> <r_epik_Ionization_Penalty>
  0.0007

> <r_epik_Ionization_Penalty_Charging>
  0.0007

> <r_epik_Ionization_Penalty_Neutral>
  0.0001

> <r_epik_State_Penalty>
 -0.0000

> <r_epik_Charging_Adjusted_Penalty>
0.000666324510955891

> <i_epik_Tot_Q>
1

> <i_epik_Tot_abs_Q>
1

$$$$
