3h52_ligand
                    3D
 Schrodinger Suite 2020-3.
225224  0  0  1  0            999 V2000
  -36.9320   27.6710  -47.6900 N   0  3  0  0  0  0
  -36.1940   28.7460  -46.9630 C   0  0  2  0  0  0
  -35.6930   28.3340  -45.5650 C   0  0  0  0  0  0
  -34.9360   29.0800  -44.9360 O   0  0  0  0  0  0
  -37.0620   30.0050  -46.8600 C   0  0  0  0  0  0
  -36.1080   27.1640  -45.0770 N   0  0  0  0  0  0
  -35.6500   26.6680  -43.7690 C   0  0  2  0  0  0
  -35.6570   25.1350  -43.7100 C   0  0  0  0  0  0
  -36.7200   24.5000  -43.7720 O   0  0  0  0  0  0
  -36.5100   27.2410  -42.6330 C   0  0  0  0  0  0
  -34.4650   24.5500  -43.5850 N   0  0  0  0  0  0
  -34.3260   23.1030  -43.4440 C   0  0  0  0  0  0
  -35.0170   22.6110  -42.1890 C   0  0  0  0  0  0
  -35.3430   23.3990  -41.3050 O   0  0  0  0  0  0
  -35.2530   21.3080  -42.1060 N   0  0  0  0  0  0
  -35.8950   20.7420  -40.9260 C   0  0  2  0  0  0
  -35.0980   21.1280  -39.6890 C   0  0  0  0  0  0
  -35.6260   21.7820  -38.7930 O   0  0  0  0  0  0
  -36.0000   19.2200  -41.0330 C   0  0  0  0  0  0
  -36.9020   18.5160  -40.0160 C   0  0  0  0  0  0
  -36.6500   17.0240  -40.0660 C   0  0  0  0  0  0
  -36.6810   19.0280  -38.6150 C   0  0  0  0  0  0
  -33.8180   20.7560  -39.6630 N   0  0  0  0  0  0
  -32.9630   21.0260  -38.4980 C   0  0  2  0  0  0
  -32.8800   22.5330  -38.2210 C   0  0  0  0  0  0
  -32.5880   22.9450  -37.0970 O   0  0  0  0  0  0
  -31.5570   20.4050  -38.6510 C   0  0  0  0  0  0
  -30.4810   21.3460  -39.1910 C   0  0  0  0  0  0
  -29.0730   20.7610  -39.1210 C   0  0  0  0  0  0
  -28.3610   20.8070  -40.1550 O   0  0  0  0  0  0
  -28.6750   20.2690  -38.0370 O   0  0  0  0  0  0
  -33.1380   23.3440  -39.2460 N   0  0  0  0  0  0
  -33.2460   24.7900  -39.0730 C   0  0  2  0  0  0
  -34.5180   25.1580  -38.2840 C   0  0  0  0  0  0
  -34.4770   25.9970  -37.3920 O   0  0  0  0  0  0
  -33.2310   25.4930  -40.4420 C   0  0  0  0  0  0
  -32.3560   26.7350  -40.4610 C   0  0  0  0  0  0
  -32.0500   27.2930  -39.3770 O   0  0  0  0  0  0
  -31.9690   27.1540  -41.5770 O   0  0  0  0  0  0
  -35.6400   24.5200  -38.6090 N   0  0  0  0  0  0
  -36.8990   24.7300  -37.8740 C   0  0  2  0  0  0
  -36.7510   24.3280  -36.3990 C   0  0  0  0  0  0
  -37.1340   25.0770  -35.4950 O   0  0  0  0  0  0
  -38.0750   23.9260  -38.4910 C   0  0  2  0  0  0
  -38.4310   24.4500  -39.8880 C   0  0  0  0  0  0
  -39.3010   23.9910  -37.5880 C   0  0  0  0  0  0
  -39.4840   23.6210  -40.6060 C   0  0  0  0  0  0
  -36.1900   23.1440  -36.1730 N   0  0  0  0  0  0
  -35.9430   22.6530  -34.8240 C   0  0  2  0  0  0
  -35.0600   23.6460  -34.0630 C   0  0  0  0  0  0
  -35.3690   24.0020  -32.9230 O   0  0  0  0  0  0
  -35.2930   21.2450  -34.8430 C   0  0  2  0  0  0
  -36.2570   20.2190  -35.4180 C   0  0  0  0  0  0
  -34.8860   20.7940  -33.4560 C   0  0  0  0  0  0
  -35.6300   18.8450  -35.5450 C   0  0  0  0  0  0
  -33.9790   24.0980  -34.6980 N   0  0  0  0  0  0
  -33.0630   25.0610  -34.0870 C   0  0  2  0  0  0
  -33.7810   26.3560  -33.7500 C   0  0  0  0  0  0
  -33.7650   26.8040  -32.6100 O   0  0  0  0  0  0
  -31.9110   25.3600  -35.0430 C   0  0  0  0  0  0
  -30.8130   26.2670  -34.4840 C   0  0  0  0  0  0
  -30.1390   27.1250  -35.5890 C   0  0  0  0  0  0
  -30.1200   26.5010  -36.9190 N   0  0  0  0  0  0
  -29.4280   25.4050  -37.2500 C   0  0  0  0  0  0
  -28.6770   24.7560  -36.3560 N   0  0  0  0  0  0
  -29.4930   24.9410  -38.4960 N   0  0  0  0  0  0
  -34.4110   26.9500  -34.7570 N   0  0  0  0  0  0
  -35.2060   28.1640  -34.5750 C   0  0  2  0  0  0
  -36.2300   28.0240  -33.4420 C   0  0  0  0  0  0
  -36.4020   28.9540  -32.6520 O   0  0  0  0  0  0
  -35.9320   28.5560  -35.8790 C   0  0  0  0  0  0
  -35.0870   29.3480  -36.8950 C   0  0  0  0  0  0
  -35.9860   30.1390  -37.8550 C   0  0  0  0  0  0
  -35.3100   30.4260  -39.1940 C   0  0  0  0  0  0
  -34.1710   31.3850  -39.0990 N   0  3  0  0  0  0
  -36.9090   26.8770  -33.3680 N   0  0  0  0  0  0
  -37.9370   26.6660  -32.3500 C   0  0  2  0  0  0
  -37.2900   26.5940  -30.9890 C   0  0  0  0  0  0
  -37.7720   27.2190  -30.0470 O   0  0  0  0  0  0
  -38.7390   25.4070  -32.6220 C   0  0  0  0  0  0
  -36.1870   25.8530  -30.8860 N   0  0  0  0  0  0
  -35.4750   25.7350  -29.6170 C   0  0  2  0  0  0
  -35.0660   27.0920  -29.0470 C   0  0  0  0  0  0
  -34.8630   27.1950  -27.8440 O   0  0  0  0  0  0
  -34.2220   24.8620  -29.7390 C   0  0  0  0  0  0
  -34.1730   23.4060  -29.2760 C   0  0  0  0  0  0
  -32.7180   23.0120  -29.0900 C   0  0  0  0  0  0
  -34.9250   23.1490  -27.9950 C   0  0  0  0  0  0
  -34.9330   28.1120  -29.9030 N   0  0  0  0  0  0
  -34.5390   29.4660  -29.4770 C   0  0  2  0  0  0
  -35.5810   30.5910  -29.7390 C   0  0  0  0  0  0
  -36.0870   31.2020  -28.7990 O   0  0  0  0  0  0
  -33.2110   29.8440  -30.1420 C   0  0  0  0  0  0
  -31.9540   29.4730  -29.3530 C   0  0  0  0  0  0
  -31.2900   27.8290  -29.7020 S   0  0  0  0  0  0
  -29.5920   28.0680  -29.1910 C   0  0  0  0  0  0
  -35.8700   30.8850  -31.0080 N   0  0  0  0  0  0
  -36.6880   32.0560  -31.3720 C   0  0  0  0  0  0
  -36.8800   32.2030  -32.8810 C   0  0  0  0  0  0
  -35.9400   32.5460  -33.6120 O   0  0  0  0  0  0
  -38.1110   31.9470  -33.3370 N   0  0  0  0  0  0
  -38.4390   31.9110  -34.7770 C   0  0  2  0  0  0
  -38.3180   33.2830  -35.4230 C   0  0  0  0  0  0
  -37.2830   33.5980  -36.0030 O   0  0  0  0  0  0
  -39.8500   31.3280  -35.0260 C   0  0  0  0  0  0
  -39.8540   29.8980  -34.9790 O   0  0  0  0  0  0
  -36.2997   26.7734  -47.7576 H   0  0  0  0  0  0
  -37.1837   28.0194  -48.7026 H   0  0  0  0  0  0
  -37.8564   27.4282  -47.1455 H   0  0  0  0  0  0
  -35.3056   28.9293  -47.5853 H   0  0  0  0  0  0
  -37.4142   30.2905  -47.8622 H   0  0  0  0  0  0
  -36.4678   30.8261  -46.4325 H   0  0  0  0  0  0
  -37.9269   29.8020  -46.2114 H   0  0  0  0  0  0
  -36.8094   26.5658  -45.6772 H   0  0  0  0  0  0
  -34.6152   27.0304  -43.6807 H   0  0  0  0  0  0
  -36.4990   28.3398  -42.6833 H   0  0  0  0  0  0
  -36.1033   26.9142  -41.6646 H   0  0  0  0  0  0
  -37.5436   26.8794  -42.7375 H   0  0  0  0  0  0
  -33.5707   25.1905  -43.5902 H   0  0  0  0  0  0
  -34.7783   22.6047  -44.3141 H   0  0  0  0  0  0
  -33.2593   22.8411  -43.3850 H   0  0  0  0  0  0
  -34.9589   20.6532  -42.9395 H   0  0  0  0  0  0
  -36.9059   21.1740  -40.8881 H   0  0  0  0  0  0
  -36.3987   18.9486  -42.0216 H   0  0  0  0  0  0
  -35.0028   18.7737  -40.9047 H   0  0  0  0  0  0
  -37.9511   18.7266  -40.2708 H   0  0  0  0  0  0
  -36.8133   16.6587  -41.0907 H   0  0  0  0  0  0
  -37.3409   16.5123  -39.3798 H   0  0  0  0  0  0
  -35.6128   16.8170  -39.7638 H   0  0  0  0  0  0
  -36.8660   20.1120  -38.5873 H   0  0  0  0  0  0
  -35.6438   18.8251  -38.3098 H   0  0  0  0  0  0
  -37.3720   18.5204  -37.9259 H   0  0  0  0  0  0
  -33.4047   20.2360  -40.5398 H   0  0  0  0  0  0
  -33.4737   20.5298  -37.6595 H   0  0  0  0  0  0
  -31.2017   20.0558  -37.6703 H   0  0  0  0  0  0
  -31.6054   19.5549  -39.3474 H   0  0  0  0  0  0
  -30.6909   21.5760  -40.2460 H   0  0  0  0  0  0
  -30.4810   22.2774  -38.6057 H   0  0  0  0  0  0
  -27.3414   20.3946  -40.1395 H   0  0  0  0  0  0
  -33.2707   22.8979  -40.2427 H   0  0  0  0  0  0
  -32.3584   25.0797  -38.4913 H   0  0  0  0  0  0
  -32.8459   24.8009  -41.2054 H   0  0  0  0  0  0
  -34.2533   25.8000  -40.7078 H   0  0  0  0  0  0
  -31.4170   28.1926  -39.3810 H   0  0  0  0  0  0
  -35.6077   23.8180  -39.4552 H   0  0  0  0  0  0
  -37.0755   25.8117  -37.9680 H   0  0  0  0  0  0
  -37.7683   22.8737  -38.5839 H   0  0  0  0  0  0
  -38.8228   25.4746  -39.8064 H   0  0  0  0  0  0
  -37.5305   24.4510  -40.5197 H   0  0  0  0  0  0
  -39.0402   23.6142  -36.5880 H   0  0  0  0  0  0
  -40.1041   23.3723  -38.0150 H   0  0  0  0  0  0
  -39.6436   25.0333  -37.5093 H   0  0  0  0  0  0
  -39.6834   24.0587  -41.5953 H   0  0  0  0  0  0
  -40.4114   23.6141  -40.0144 H   0  0  0  0  0  0
  -39.1191   22.5905  -40.7277 H   0  0  0  0  0  0
  -35.9103   22.5298  -37.0417 H   0  0  0  0  0  0
  -36.9363   22.5943  -34.3551 H   0  0  0  0  0  0
  -34.3880   21.2967  -35.4661 H   0  0  0  0  0  0
  -37.1350   20.1323  -34.7610 H   0  0  0  0  0  0
  -36.5789   20.5394  -36.4199 H   0  0  0  0  0  0
  -34.1873   21.5250  -33.0230 H   0  0  0  0  0  0
  -34.3959   19.8112  -33.5191 H   0  0  0  0  0  0
  -35.7791   20.7181  -32.8183 H   0  0  0  0  0  0
  -36.3662   18.1433  -35.9640 H   0  0  0  0  0  0
  -35.3124   18.4937  -34.5522 H   0  0  0  0  0  0
  -34.7563   18.9008  -36.2110 H   0  0  0  0  0  0
  -33.7857   23.7233  -35.7140 H   0  0  0  0  0  0
  -32.7008   24.5869  -33.1628 H   0  0  0  0  0  0
  -31.4202   24.4188  -35.3315 H   0  0  0  0  0  0
  -32.3007   25.8607  -35.9416 H   0  0  0  0  0  0
  -31.2460   26.9502  -33.7386 H   0  0  0  0  0  0
  -30.0353   25.6511  -34.0088 H   0  0  0  0  0  0
  -30.6767   28.0792  -35.6913 H   0  0  0  0  0  0
  -29.0924   27.3216  -35.3133 H   0  0  0  0  0  0
  -30.7083   26.9373  -37.7397 H   0  0  0  0  0  0
  -28.6113   25.1247  -35.3217 H   0  0  0  0  0  0
  -28.1243   23.8528  -36.6541 H   0  0  0  0  0  0
  -30.1063   25.4623  -39.2457 H   0  0  0  0  0  0
  -34.3191   26.4973  -35.7553 H   0  0  0  0  0  0
  -34.4560   28.9195  -34.2978 H   0  0  0  0  0  0
  -36.2701   27.6469  -36.3979 H   0  0  0  0  0  0
  -36.8011   29.1863  -35.6396 H   0  0  0  0  0  0
  -34.4348   30.0531  -36.3589 H   0  0  0  0  0  0
  -34.4700   28.6511  -37.4812 H   0  0  0  0  0  0
  -36.9022   29.5646  -38.0565 H   0  0  0  0  0  0
  -36.2512   31.1038  -37.3979 H   0  0  0  0  0  0
  -34.9144   29.4891  -39.6133 H   0  0  0  0  0  0
  -36.0439   30.8581  -39.8901 H   0  0  0  0  0  0
  -33.7380   31.5402  -40.0982 H   0  0  0  0  0  0
  -33.4028   30.9764  -38.4259 H   0  0  0  0  0  0
  -34.5324   32.3454  -38.7028 H   0  0  0  0  0  0
  -36.6816   26.0817  -34.0932 H   0  0  0  0  0  0
  -38.6124   27.5325  -32.4049 H   0  0  0  0  0  0
  -39.2033   25.4758  -33.6168 H   0  0  0  0  0  0
  -39.5231   25.2995  -31.8580 H   0  0  0  0  0  0
  -38.0720   24.5330  -32.5884 H   0  0  0  0  0  0
  -35.8147   25.3256  -31.7766 H   0  0  0  0  0  0
  -36.2255   25.2594  -28.9684 H   0  0  0  0  0  0
  -33.9325   24.7820  -30.7972 H   0  0  0  0  0  0
  -33.4002   25.3181  -29.1675 H   0  0  0  0  0  0
  -34.6714   22.7926  -30.0411 H   0  0  0  0  0  0
  -32.1656   23.1981  -30.0229 H   0  0  0  0  0  0
  -32.6572   21.9438  -28.8347 H   0  0  0  0  0  0
  -32.2775   23.6088  -28.2777 H   0  0  0  0  0  0
  -35.9796   23.4332  -28.1256 H   0  0  0  0  0  0
  -34.4822   23.7457  -27.1839 H   0  0  0  0  0  0
  -34.8619   22.0806  -27.7408 H   0  0  0  0  0  0
  -35.1318   27.9056  -30.9650 H   0  0  0  0  0  0
  -34.4520   29.3460  -28.3870 H   0  0  0  0  0  0
  -33.1300   29.3356  -31.1141 H   0  0  0  0  0  0
  -33.1736   30.9329  -30.2935 H   0  0  0  0  0  0
  -31.1526   30.1911  -29.5812 H   0  0  0  0  0  0
  -32.1756   29.5009  -28.2759 H   0  0  0  0  0  0
  -29.0291   27.1350  -29.3413 H   0  0  0  0  0  0
  -29.5649   28.3452  -28.1268 H   0  0  0  0  0  0
  -29.1382   28.8708  -29.7907 H   0  0  0  0  0  0
  -35.4776   30.2225  -31.7936 H   0  0  0  0  0  0
  -37.6845   31.9634  -30.9154 H   0  0  0  0  0  0
  -36.2007   32.9718  -31.0060 H   0  0  0  0  0  0
  -38.8955   31.7585  -32.5893 H   0  0  0  0  0  0
  -37.6719   31.2532  -35.2116 H   0  0  0  0  0  0
  -39.1569   33.9925  -35.3707 H   0  0  0  0  0  0
  -40.5414   31.6993  -34.2552 H   0  0  0  0  0  0
  -40.2059   31.6404  -36.0189 H   0  0  0  0  0  0
  -40.7914   29.3451  -35.1389 H   0  0  0  0  0  0
  1  2  1  0  0  0
  1107  1  0  0  0
  1108  1  0  0  0
  1109  1  0  0  0
  2  3  1  0  0  0
  2  5  1  0  0  0
  2110  1  0  0  0
  3  4  2  0  0  0
  3  6  1  0  0  0
  5111  1  0  0  0
  5112  1  0  0  0
  5113  1  0  0  0
  6  7  1  0  0  0
  6114  1  0  0  0
  7  8  1  0  0  0
  7 10  1  0  0  0
  7115  1  0  0  0
  8  9  2  0  0  0
  8 11  1  0  0  0
 10116  1  0  0  0
 10117  1  0  0  0
 10118  1  0  0  0
 11 12  1  0  0  0
 11119  1  0  0  0
 12 13  1  0  0  0
 12120  1  0  0  0
 12121  1  0  0  0
 13 14  2  0  0  0
 13 15  1  0  0  0
 15 16  1  0  0  0
 15122  1  0  0  0
 16 17  1  0  0  0
 16 19  1  0  0  0
 16123  1  0  0  0
 17 18  2  0  0  0
 17 23  1  0  0  0
 19 20  1  0  0  0
 19124  1  0  0  0
 19125  1  0  0  0
 20 21  1  0  0  0
 20 22  1  0  0  0
 20126  1  0  0  0
 21127  1  0  0  0
 21128  1  0  0  0
 21129  1  0  0  0
 22130  1  0  0  0
 22131  1  0  0  0
 22132  1  0  0  0
 23 24  1  0  0  0
 23133  1  0  0  0
 24 25  1  0  0  0
 24 27  1  0  0  0
 24134  1  0  0  0
 25 26  2  0  0  0
 25 32  1  0  0  0
 27 28  1  0  0  0
 27135  1  0  0  0
 27136  1  0  0  0
 28 29  1  0  0  0
 28137  1  0  0  0
 28138  1  0  0  0
 29 30  1  0  0  0
 29 31  2  0  0  0
 30139  1  0  0  0
 32 33  1  0  0  0
 32140  1  0  0  0
 33 34  1  0  0  0
 33 36  1  0  0  0
 33141  1  0  0  0
 34 35  2  0  0  0
 34 40  1  0  0  0
 36 37  1  0  0  0
 36142  1  0  0  0
 36143  1  0  0  0
 37 38  1  0  0  0
 37 39  2  0  0  0
 38144  1  0  0  0
 40 41  1  0  0  0
 40145  1  0  0  0
 41 42  1  0  0  0
 41 44  1  0  0  0
 41146  1  0  0  0
 42 43  2  0  0  0
 42 48  1  0  0  0
 44 45  1  0  0  0
 44 46  1  0  0  0
 44147  1  0  0  0
 45 47  1  0  0  0
 45148  1  0  0  0
 45149  1  0  0  0
 46150  1  0  0  0
 46151  1  0  0  0
 46152  1  0  0  0
 47153  1  0  0  0
 47154  1  0  0  0
 47155  1  0  0  0
 48 49  1  0  0  0
 48156  1  0  0  0
 49 50  1  0  0  0
 49 52  1  0  0  0
 49157  1  0  0  0
 50 51  2  0  0  0
 50 56  1  0  0  0
 52 53  1  0  0  0
 52 54  1  0  0  0
 52158  1  0  0  0
 53 55  1  0  0  0
 53159  1  0  0  0
 53160  1  0  0  0
 54161  1  0  0  0
 54162  1  0  0  0
 54163  1  0  0  0
 55164  1  0  0  0
 55165  1  0  0  0
 55166  1  0  0  0
 56 57  1  0  0  0
 56167  1  0  0  0
 57 58  1  0  0  0
 57 60  1  0  0  0
 57168  1  0  0  0
 58 59  2  0  0  0
 58 67  1  0  0  0
 60 61  1  0  0  0
 60169  1  0  0  0
 60170  1  0  0  0
 61 62  1  0  0  0
 61171  1  0  0  0
 61172  1  0  0  0
 62 63  1  0  0  0
 62173  1  0  0  0
 62174  1  0  0  0
 63 64  1  0  0  0
 63175  1  0  0  0
 64 65  1  0  0  0
 64 66  2  0  0  0
 65176  1  0  0  0
 65177  1  0  0  0
 66178  1  0  0  0
 67 68  1  0  0  0
 67179  1  0  0  0
 68 69  1  0  0  0
 68 71  1  0  0  0
 68180  1  0  0  0
 69 70  2  0  0  0
 69 76  1  0  0  0
 71 72  1  0  0  0
 71181  1  0  0  0
 71182  1  0  0  0
 72 73  1  0  0  0
 72183  1  0  0  0
 72184  1  0  0  0
 73 74  1  0  0  0
 73185  1  0  0  0
 73186  1  0  0  0
 74 75  1  0  0  0
 74187  1  0  0  0
 74188  1  0  0  0
 75189  1  0  0  0
 75190  1  0  0  0
 75191  1  0  0  0
 76 77  1  0  0  0
 76192  1  0  0  0
 77 78  1  0  0  0
 77 80  1  0  0  0
 77193  1  0  0  0
 78 79  2  0  0  0
 78 81  1  0  0  0
 80194  1  0  0  0
 80195  1  0  0  0
 80196  1  0  0  0
 81 82  1  0  0  0
 81197  1  0  0  0
 82 83  1  0  0  0
 82 85  1  0  0  0
 82198  1  0  0  0
 83 84  2  0  0  0
 83 89  1  0  0  0
 85 86  1  0  0  0
 85199  1  0  0  0
 85200  1  0  0  0
 86 87  1  0  0  0
 86 88  1  0  0  0
 86201  1  0  0  0
 87202  1  0  0  0
 87203  1  0  0  0
 87204  1  0  0  0
 88205  1  0  0  0
 88206  1  0  0  0
 88207  1  0  0  0
 89 90  1  0  0  0
 89208  1  0  0  0
 90 91  1  0  0  0
 90 93  1  0  0  0
 90209  1  0  0  0
 91 92  2  0  0  0
 91 97  1  0  0  0
 93 94  1  0  0  0
 93210  1  0  0  0
 93211  1  0  0  0
 94 95  1  0  0  0
 94212  1  0  0  0
 94213  1  0  0  0
 95 96  1  0  0  0
 96214  1  0  0  0
 96215  1  0  0  0
 96216  1  0  0  0
 97 98  1  0  0  0
 97217  1  0  0  0
 98 99  1  0  0  0
 98218  1  0  0  0
 98219  1  0  0  0
 99100  2  0  0  0
 99101  1  0  0  0
101102  1  0  0  0
101220  1  0  0  0
102103  1  0  0  0
102105  1  0  0  0
102221  1  0  0  0
103104  2  0  0  0
103222  1  0  0  0
105106  1  0  0  0
105223  1  0  0  0
105224  1  0  0  0
106225  1  0  0  0
M  CHG  2   1   1  75   1
M  END
> <s_m_source_file>
../3h52_ligand.sdf

> <i_m_source_file_index>
1

> <s_epik_input>
W05IMytdW0NAQEhdKFtDSDNdKUMoPU8pW05IXVtDQEBIXShbQ0gzXSlDKD1PKVtOSF1bQ0gyXUMoPU8pW05IXVtDQEBIXShbQ0gyXVtDSF0oW0NIM10pW0NIM10pQyg9TylbTkhdW0NAQEhdKFtDSDJdW0NIMl1DKD1PKVtPSF0pQyg9TylbTkhdW0NAQEhdKFtDSDJdQyg9TylbT0hdKUMoPU8pW05IXVtDQEBIXShbQ0BASF0oW0NIM10pW0NIMl1bQ0gzXSlDKD1PKVtOSF1bQ0BASF0oW0NAQEhdKFtDSDNdKVtDSDJdW0NIM10pQyg9TylbTkhdW0NAQEhdKFtDSDJdW0NIMl1bQ0gyXVtOSF0vQyhbTkgyXSk9TlxbSF0pQyg9TylbTkhdW0NAQEhdKFtDSDJdW0NIMl1bQ0gyXVtDSDJdW05IMytdKUMoPU8pW05IXVtDQEBIXShbQ0gzXSlDKD1PKVtOSF1bQ0BASF0oW0NIMl1bQ0hdKFtDSDNdKVtDSDNdKUMoPU8pW05IXVtDQEBIXShbQ0gyXVtDSDJdU1tDSDNdKUMoPU8pW05IXVtDSDJdQyg9TylbTkhdW0NASF0oW0NIXT1PKVtDSDJdW09IXQ==

> <s_epik_cmdline>
J2VwaWtfYXBwJywgJy1pbWFlJywgJ2xpZ2FuZF9wcm8ubWFlJywgJy1vbWFlJywgJ2xpZ2FuZF9wcmVwLm1hZScsICctbXMnLCAnMScsICctcGgnLCAnNycsICctcGh0JywgJzAuNScsICctbnQn

> <s_epik_pKa_notes>
Molecule size exceeds maximum supported for generating protonation states

> <s_epik_Chemistry_Notes>
This compound has an imine and may undergo hydrolysis.

$$$$
