3h59_ligand
                    3D
 Schrodinger Suite 2020-3.
 66 69  0  0  1  0            999 V2000
   -8.3190   -9.8640    8.1780 C   0  0  0  0  0  0
   -7.9110   -9.9980    6.8590 C   0  0  0  0  0  0
   -6.6300   -9.6440    6.4340 C   0  0  0  0  0  0
   -5.7360   -9.1010    7.3300 C   0  0  0  0  0  0
   -6.1400   -8.9360    8.6540 C   0  0  0  0  0  0
   -7.4160   -9.3230    9.0840 C   0  0  0  0  0  0
  -10.5380   -7.8900   11.3480 C   0  0  0  0  0  0
  -10.8720   -7.0490   10.3190 C   0  0  0  0  0  0
  -10.7330   -7.8270    9.0240 C   0  0  1  0  0  0
  -10.1930   -9.1550    9.4340 N   0  0  0  0  0  0
  -10.1050   -9.1650   10.7940 C   0  0  0  0  0  0
  -10.6110   -7.6850   15.7480 C   0  0  0  0  0  0
   -9.8950   -8.6250   14.9920 C   0  0  0  0  0  0
   -9.3790   -9.7800   15.6230 C   0  0  0  0  0  0
   -9.5540   -9.9700   16.9880 C   0  0  0  0  0  0
  -10.2570   -9.0280   17.7540 C   0  0  0  0  0  0
  -10.7870   -7.9050   17.1100 C   0  0  0  0  0  0
  -10.4970   -7.6040   12.8090 C   0  0  0  0  0  0
   -9.7170   -8.4400   13.6160 N   0  0  0  0  0  0
  -11.2690   -6.1980   14.9840 S   0  0  0  0  0  0
  -11.2260   -6.5720   13.2670 C   0  0  0  0  0  0
  -12.6420   -5.9880   15.3670 O   0  0  0  0  0  0
  -10.3320   -5.1520   15.2840 O   0  0  0  0  0  0
  -10.4570   -9.2430   19.1490 N   0  5  0  0  0  0
  -10.7110   -8.0620   20.2800 S   0  0  0  0  0  0
  -12.5170   -7.9930   20.4300 C   0  0  0  0  0  0
  -10.1940   -8.6460   21.4620 O   0  0  0  0  0  0
  -10.2030   -6.8470   19.7540 O   0  0  0  0  0  0
  -11.2860   -5.7760   10.4480 O   0  5  0  0  0  0
   -9.6500  -10.0640   11.4870 O   0  0  0  0  0  0
   -9.7270  -10.2570    8.5780 C   0  0  0  0  0  0
   -4.4800   -8.7350    6.9150 F   0  0  0  0  0  0
   -6.2530   -9.8380    4.9800 C   0  0  0  0  0  0
  -12.1090   -7.8790    8.2820 C   0  0  0  0  0  0
  -12.4590   -6.4300    7.9340 C   0  0  0  0  0  0
  -13.2820   -6.3150    6.6710 C   0  0  0  0  0  0
  -12.0700   -8.7310    6.9920 C   0  0  0  0  0  0
  -13.2230   -8.4620    9.1690 C   0  0  0  0  0  0
   -8.6163  -10.3940    6.1284 H   0  0  0  0  0  0
   -5.4472   -8.4958    9.3712 H   0  0  0  0  0  0
   -7.6999   -9.1996   10.1291 H   0  0  0  0  0  0
  -10.0165   -7.3846    8.3163 H   0  0  0  0  0  0
   -8.8415  -10.5247   15.0360 H   0  0  0  0  0  0
   -9.1419  -10.8578   17.4676 H   0  0  0  0  0  0
  -11.3552   -7.1804   17.6933 H   0  0  0  0  0  0
   -8.9130   -8.9743   13.0887 H   0  0  0  0  0  0
  -11.8032   -5.9521   12.5652 H   0  0  0  0  0  0
  -12.8875   -8.9444   20.8392 H   0  0  0  0  0  0
  -12.9611   -7.8227   19.4381 H   0  0  0  0  0  0
  -12.7978   -7.1700   21.1036 H   0  0  0  0  0  0
  -10.3478  -10.3646    7.6763 H   0  0  0  0  0  0
   -9.7005  -11.2132    9.1211 H   0  0  0  0  0  0
   -7.1007  -10.2820    4.4375 H   0  0  0  0  0  0
   -5.3833  -10.5082    4.9130 H   0  0  0  0  0  0
   -6.0012   -8.8647    4.5335 H   0  0  0  0  0  0
  -13.0397   -5.9856    8.7558 H   0  0  0  0  0  0
  -11.5333   -5.8545    7.7861 H   0  0  0  0  0  0
  -13.5022   -5.2558    6.4720 H   0  0  0  0  0  0
  -14.2245   -6.8683    6.7959 H   0  0  0  0  0  0
  -12.7181   -6.7373    5.8262 H   0  0  0  0  0  0
  -11.2840   -8.3490    6.3239 H   0  0  0  0  0  0
  -13.0438   -8.6718    6.4839 H   0  0  0  0  0  0
  -11.8544   -9.7782    7.2506 H   0  0  0  0  0  0
  -13.2879   -7.8846   10.1030 H   0  0  0  0  0  0
  -12.9940   -9.5123    9.4024 H   0  0  0  0  0  0
  -14.1834   -8.4059    8.6357 H   0  0  0  0  0  0
  1  2  2  0  0  0
  1  6  1  0  0  0
  1 31  1  0  0  0
  2  3  1  0  0  0
  2 39  1  0  0  0
  3  4  2  0  0  0
  3 33  1  0  0  0
  4  5  1  0  0  0
  4 32  1  0  0  0
  5  6  2  0  0  0
  5 40  1  0  0  0
  6 41  1  0  0  0
  7  8  2  0  0  0
  7 11  1  0  0  0
  7 18  1  0  0  0
  8  9  1  0  0  0
  8 29  1  0  0  0
  9 10  1  0  0  0
  9 34  1  0  0  0
  9 42  1  0  0  0
 10 11  1  0  0  0
 10 31  1  0  0  0
 11 30  2  0  0  0
 12 13  2  0  0  0
 12 17  1  0  0  0
 12 20  1  0  0  0
 13 14  1  0  0  0
 13 19  1  0  0  0
 14 15  2  0  0  0
 14 43  1  0  0  0
 15 16  1  0  0  0
 15 44  1  0  0  0
 16 17  2  0  0  0
 16 24  1  0  0  0
 17 45  1  0  0  0
 18 19  1  0  0  0
 18 21  2  0  0  0
 19 46  1  0  0  0
 20 21  1  0  0  0
 20 22  2  0  0  0
 20 23  2  0  0  0
 21 47  1  0  0  0
 24 25  1  0  0  0
 25 26  1  0  0  0
 25 27  2  0  0  0
 25 28  2  0  0  0
 26 48  1  0  0  0
 26 49  1  0  0  0
 26 50  1  0  0  0
 31 51  1  0  0  0
 31 52  1  0  0  0
 33 53  1  0  0  0
 33 54  1  0  0  0
 33 55  1  0  0  0
 34 35  1  0  0  0
 34 37  1  0  0  0
 34 38  1  0  0  0
 35 36  1  0  0  0
 35 56  1  0  0  0
 35 57  1  0  0  0
 36 58  1  0  0  0
 36 59  1  0  0  0
 36 60  1  0  0  0
 37 61  1  0  0  0
 37 62  1  0  0  0
 37 63  1  0  0  0
 38 64  1  0  0  0
 38 65  1  0  0  0
 38 66  1  0  0  0
M  CHG  2  24  -1  29  -1
M  END
> <s_m_source_file>
../3h59_ligand.sdf

> <i_m_source_file_index>
1

> <s_epik_input>
W2NIXTFbY0hdYyhGKWMoW0NIM10pW2NIXWMxW0NIMl1OKEMyPU8pW0NAQEhdKEMoW0NIM10pKFtDSDNdKVtDSDJdW0NIM10pQyhbT0hdKT1DMkMoPVtDSF1TMyg9Tyk9TylbTkhdYyhjMzQpW2NIXVtjSF1jKFtjSF00KVtOSF1TKD1PKSg9TylbQ0gzXQ==

> <s_epik_cmdline>
J2VwaWtfYXBwJywgJy1pbWFlJywgJ2xpZ2FuZF9wcm8ubWFlJywgJy1vbWFlJywgJ2xpZ2FuZF9wcmVwLm1hZScsICctbXMnLCAnMScsICctcGgnLCAnNycsICctcGh0JywgJzAuNScsICctbnQn

> <r_epik_Ionization_Penalty>
  1.6665

> <r_epik_Ionization_Penalty_Charging>
  0.3335

> <r_epik_Ionization_Penalty_Neutral>
  1.3331

> <r_epik_State_Penalty>
  0.0486

> <r_epik_Charging_Adjusted_Penalty>
0.382055175053915

> <i_epik_Tot_Q>
-2

> <i_epik_Tot_abs_Q>
2

$$$$
