3h5s_ligand
                    3D
 Schrodinger Suite 2020-3.
 68 72  0  0  1  0            999 V2000
  -10.0420    8.2950   12.9910 C   0  0  1  0  0  0
   -9.7090    9.7350   11.1920 C   0  0  0  0  0  0
  -10.0370    8.4080   10.6240 C   0  0  0  0  0  0
  -10.1800    7.5360   11.6890 C   0  0  0  0  0  0
   -9.2140   10.7180   13.4480 C   0  0  0  0  0  0
   -7.7720   10.3400   13.7720 C   0  0  0  0  0  0
   -7.2820   10.4850   15.0730 C   0  0  0  0  0  0
   -5.9680   10.1750   15.3590 C   0  0  0  0  0  0
   -5.1160    9.6710   14.3680 C   0  0  0  0  0  0
  -10.4330    6.2400   11.6520 O   0  5  0  0  0  0
   -9.6480    9.6510   12.5470 N   0  0  0  0  0  0
   -5.5680    9.5000   13.0600 C   0  0  0  0  0  0
   -6.8960    9.8490   12.7930 C   0  0  0  0  0  0
   -9.4010   10.7500   10.5740 O   0  0  0  0  0  0
  -10.1360    8.0150    9.1750 C   0  0  0  0  0  0
  -10.8670    6.6880    7.2690 S   0  0  0  0  0  0
  -10.7070    6.8880    8.9170 N   0  0  0  0  0  0
  -10.2430    8.2810    6.8070 C   0  0  0  0  0  0
   -9.8120    8.8790    8.0120 C   0  0  0  0  0  0
   -9.2370   10.1720    7.9020 C   0  0  0  0  0  0
   -9.0890   10.8040    6.6710 C   0  0  0  0  0  0
   -9.9480    5.7270    6.8140 O   0  0  0  0  0  0
  -12.2510    6.5600    7.0200 O   0  0  0  0  0  0
  -11.4500    8.2970   13.7060 C   0  0  0  0  0  0
  -11.7900    6.9000   14.2460 C   0  0  0  0  0  0
  -11.5180    9.2010   14.9610 C   0  0  0  0  0  0
  -12.6160    8.6870   12.7450 C   0  0  0  0  0  0
   -3.8480    9.3620   14.6900 F   0  0  0  0  0  0
   -5.4560   10.3540   16.7680 C   0  0  0  0  0  0
  -10.0890    8.9040    5.6000 C   0  0  0  0  0  0
   -9.5230   10.1750    5.5060 C   0  0  0  0  0  0
   -9.3680   10.8900    4.1930 C   0  0  0  0  0  0
  -10.4240   10.3940    3.1860 C   0  0  0  0  0  0
  -10.4360    8.9040    3.1670 N   0  0  3  0  0  0
  -10.5620    8.1370    4.4120 C   0  0  0  0  0  0
  -10.4750    8.0300    1.7660 S   0  0  0  0  0  0
   -9.8360    8.8060    0.7490 O   0  0  0  0  0  0
  -10.0250    6.7130    2.0810 O   0  0  0  0  0  0
  -12.2670    7.9530    1.4220 C   0  0  0  0  0  0
   -9.2777    7.8976   13.6750 H   0  0  0  0  0  0
   -9.8025   10.7487   14.3768 H   0  0  0  0  0  0
   -9.2347   11.7075   12.9679 H   0  0  0  0  0  0
   -7.9400   10.8441   15.8643 H   0  0  0  0  0  0
   -4.9145    9.1111   12.2791 H   0  0  0  0  0  0
   -7.2679    9.7338   11.7749 H   0  0  0  0  0  0
   -8.9028   10.6831    8.8049 H   0  0  0  0  0  0
   -8.6329   11.7926    6.6182 H   0  0  0  0  0  0
  -10.9978    6.5701   14.9342 H   0  0  0  0  0  0
  -11.8662    6.1915   13.4080 H   0  0  0  0  0  0
  -12.7495    6.9379   14.7826 H   0  0  0  0  0  0
  -10.7006    8.9366   15.6480 H   0  0  0  0  0  0
  -12.4839    9.0544   15.4666 H   0  0  0  0  0  0
  -11.4178   10.2543   14.6600 H   0  0  0  0  0  0
  -12.5797    8.0517   11.8478 H   0  0  0  0  0  0
  -12.5120    9.7421   12.4517 H   0  0  0  0  0  0
  -13.5781    8.5422   13.2582 H   0  0  0  0  0  0
   -6.2597   10.7570   17.4017 H   0  0  0  0  0  0
   -4.6070   11.0534   16.7635 H   0  0  0  0  0  0
   -5.1283    9.3820   17.1653 H   0  0  0  0  0  0
   -9.4984   11.9714    4.3467 H   0  0  0  0  0  0
   -8.3647   10.6959    3.7860 H   0  0  0  0  0  0
  -11.4164   10.7636    3.4835 H   0  0  0  0  0  0
  -10.1784   10.7703    2.1820 H   0  0  0  0  0  0
   -9.9661    7.2183    4.3077 H   0  0  0  0  0  0
  -11.6218    7.8736    4.5438 H   0  0  0  0  0  0
  -12.6367    8.9594    1.1761 H   0  0  0  0  0  0
  -12.7949    7.5752    2.3100 H   0  0  0  0  0  0
  -12.4486    7.2780    0.5727 H   0  0  0  0  0  0
  1  4  1  0  0  0
  1 11  1  0  0  0
  1 24  1  0  0  0
  1 40  1  0  0  0
  2  3  1  0  0  0
  2 11  1  0  0  0
  2 14  2  0  0  0
  3  4  2  0  0  0
  3 15  1  0  0  0
  4 10  1  0  0  0
  5  6  1  0  0  0
  5 11  1  0  0  0
  5 41  1  0  0  0
  5 42  1  0  0  0
  6  7  2  0  0  0
  6 13  1  0  0  0
  7  8  1  0  0  0
  7 43  1  0  0  0
  8  9  2  0  0  0
  8 29  1  0  0  0
  9 12  1  0  0  0
  9 28  1  0  0  0
 12 13  2  0  0  0
 12 44  1  0  0  0
 13 45  1  0  0  0
 15 17  2  0  0  0
 15 19  1  0  0  0
 16 17  1  0  0  0
 16 18  1  0  0  0
 16 22  2  0  0  0
 16 23  2  0  0  0
 18 19  2  0  0  0
 18 30  1  0  0  0
 19 20  1  0  0  0
 20 21  2  0  0  0
 20 46  1  0  0  0
 21 31  1  0  0  0
 21 47  1  0  0  0
 24 25  1  0  0  0
 24 26  1  0  0  0
 24 27  1  0  0  0
 25 48  1  0  0  0
 25 49  1  0  0  0
 25 50  1  0  0  0
 26 51  1  0  0  0
 26 52  1  0  0  0
 26 53  1  0  0  0
 27 54  1  0  0  0
 27 55  1  0  0  0
 27 56  1  0  0  0
 29 57  1  0  0  0
 29 58  1  0  0  0
 29 59  1  0  0  0
 30 31  2  0  0  0
 30 35  1  0  0  0
 31 32  1  0  0  0
 32 33  1  0  0  0
 32 60  1  0  0  0
 32 61  1  0  0  0
 33 34  1  0  0  0
 33 62  1  0  0  0
 33 63  1  0  0  0
 34 35  1  0  0  0
 34 36  1  0  0  0
 35 64  1  0  0  0
 35 65  1  0  0  0
 36 37  2  0  0  0
 36 38  2  0  0  0
 36 39  1  0  0  0
 39 66  1  0  0  0
 39 67  1  0  0  0
 39 68  1  0  0  0
M  CHG  1  10  -1
M  END
> <s_m_source_file>
../3h5s_ligand.sdf

> <i_m_source_file_index>
1

> <s_epik_input>
W2NIXTFbY0hdYyhGKWMoW0NIM10pW2NIXWMxW0NIMl1OMkMoPU8pQyg9QyhbT0hdKVtDQEBIXTJDKFtDSDNdKShbQ0gzXSlbQ0gzXSlDKD1OUzMoPU8pPU8pYyhjMzQpW2NIXVtjSF1jNWM0W0NIMl1OKFtDSDJdW0NIMl01KVMoPU8pKD1PKVtDSDNd

> <s_epik_cmdline>
J2VwaWtfYXBwJywgJy1pbWFlJywgJ2xpZ2FuZF9wcm8ubWFlJywgJy1vbWFlJywgJ2xpZ2FuZF9wcmVwLm1hZScsICctbXMnLCAnMScsICctcGgnLCAnNycsICctcGh0JywgJzAuNScsICctbnQn

> <r_lp_tautomer_probability>
1

> <r_epik_Ionization_Penalty>
  0.0004

> <r_epik_Ionization_Penalty_Charging>
  0.0004

> <r_epik_Ionization_Penalty_Neutral>
  0.0000

> <r_epik_State_Penalty>
 -0.0000

> <r_epik_Charging_Adjusted_Penalty>
0.000353129494624652

> <i_epik_Tot_Q>
-1

> <i_epik_Tot_abs_Q>
1

> <s_epik_Chemistry_Notes>
This compound has an imine and may undergo hydrolysis.

$$$$
