3h5u_ligand
                    3D
 Schrodinger Suite 2020-3.
 61 64  0  0  1  0            999 V2000
   76.0450   44.6650   12.9280 C   0  0  0  0  0  0
   75.8690   45.5640   11.8970 C   0  0  0  0  0  0
   76.0180   44.8160   10.5980 C   0  0  1  0  0  0
   76.4230   43.4580   11.0020 N   0  0  0  0  0  0
   76.3880   43.3650   12.3500 C   0  0  0  0  0  0
   76.7030   42.3510   12.9750 O   0  0  0  0  0  0
   75.5680   46.8820   12.0040 O   0  5  0  0  0  0
   76.8810   42.3880   10.1350 C   0  0  0  0  0  0
   78.3160   42.8100    9.7800 C   0  0  0  0  0  0
   74.5950   44.8110    9.8950 C   0  0  0  0  0  0
   77.4150   43.1000   15.5790 C   0  0  0  0  0  0
   77.7970   42.5290   16.7760 C   0  0  0  0  0  0
   77.3390   43.0400   17.9820 C   0  0  0  0  0  0
   76.4830   44.1280   17.9380 C   0  0  0  0  0  0
   76.5390   44.2100   15.5110 C   0  0  0  0  0  0
   76.1090   44.6910   16.7560 C   0  0  0  0  0  0
   75.0760   46.0740   16.3770 S   0  0  0  0  0  0
   75.1410   45.9670   14.6960 N   0  0  0  0  0  0
   75.9420   44.9880   14.3840 C   0  0  0  0  0  0
   73.7630   45.7570   16.8270 O   0  0  0  0  0  0
   75.6690   47.3240   16.7280 O   0  0  0  0  0  0
   74.2600   46.2120    9.3910 C   0  0  0  0  0  0
   74.5000   43.8490    8.7030 C   0  0  0  0  0  0
   73.4300   44.4170   10.8160 C   0  0  0  0  0  0
   79.2400   43.1660   10.7770 C   0  0  0  0  0  0
   80.5440   43.5490   10.4470 C   0  0  0  0  0  0
   80.9410   43.6010    9.1000 C   0  0  0  0  0  0
   80.0220   43.2660    8.1020 C   0  0  0  0  0  0
   78.7230   42.8800    8.4410 C   0  0  0  0  0  0
   82.2000   43.9960    8.7640 F   0  0  0  0  0  0
   75.9120   44.7790   19.1590 C   0  0  0  0  0  0
   76.0580   43.9600   20.3470 N   0  0  3  0  0  0
   75.8970   44.7650   21.7820 S   0  0  0  0  0  0
   74.1110   44.7660   22.1090 C   0  0  0  0  0  0
   76.5000   43.8750   22.6820 O   0  0  0  0  0  0
   76.2920   46.0880   21.5730 O   0  0  0  0  0  0
   76.7935   45.2247    9.9335 H   0  0  0  0  0  0
   76.8465   41.4336   10.6809 H   0  0  0  0  0  0
   76.2296   42.3283    9.2507 H   0  0  0  0  0  0
   77.8025   42.6803   14.6507 H   0  0  0  0  0  0
   78.4653   41.6679   16.7740 H   0  0  0  0  0  0
   77.6426   42.6001   18.9319 H   0  0  0  0  0  0
   75.0585   46.5608    8.7197 H   0  0  0  0  0  0
   74.1739   46.8985   10.2462 H   0  0  0  0  0  0
   73.3061   46.1865    8.8438 H   0  0  0  0  0  0
   75.3083   44.0680    7.9898 H   0  0  0  0  0  0
   73.5273   43.9767    8.2054 H   0  0  0  0  0  0
   74.5962   42.8128    9.0595 H   0  0  0  0  0  0
   73.4283   45.0668   11.7035 H   0  0  0  0  0  0
   73.5483   43.3691   11.1290 H   0  0  0  0  0  0
   72.4794   44.5330   10.2748 H   0  0  0  0  0  0
   78.9358   43.1433   11.8235 H   0  0  0  0  0  0
   81.2522   43.8071   11.2344 H   0  0  0  0  0  0
   80.3201   43.3061    7.0543 H   0  0  0  0  0  0
   78.0147   42.6293    7.6514 H   0  0  0  0  0  0
   76.4279   45.7333   19.3410 H   0  0  0  0  0  0
   74.8387   44.9657   19.0071 H   0  0  0  0  0  0
   76.0963   42.8642   20.2583 H   0  0  0  0  0  0
   73.7687   43.7344   22.2783 H   0  0  0  0  0  0
   73.5802   45.1913   21.2445 H   0  0  0  0  0  0
   73.9022   45.3729   23.0024 H   0  0  0  0  0  0
  1  2  2  0  0  0
  1  5  1  0  0  0
  1 19  1  0  0  0
  2  3  1  0  0  0
  2  7  1  0  0  0
  3  4  1  0  0  0
  3 10  1  0  0  0
  3 37  1  0  0  0
  4  5  1  0  0  0
  4  8  1  0  0  0
  5  6  2  0  0  0
  8  9  1  0  0  0
  8 38  1  0  0  0
  8 39  1  0  0  0
  9 25  2  0  0  0
  9 29  1  0  0  0
 10 22  1  0  0  0
 10 23  1  0  0  0
 10 24  1  0  0  0
 11 12  2  0  0  0
 11 15  1  0  0  0
 11 40  1  0  0  0
 12 13  1  0  0  0
 12 41  1  0  0  0
 13 14  2  0  0  0
 13 42  1  0  0  0
 14 16  1  0  0  0
 14 31  1  0  0  0
 15 16  2  0  0  0
 15 19  1  0  0  0
 16 17  1  0  0  0
 17 18  1  0  0  0
 17 20  2  0  0  0
 17 21  2  0  0  0
 18 19  2  0  0  0
 22 43  1  0  0  0
 22 44  1  0  0  0
 22 45  1  0  0  0
 23 46  1  0  0  0
 23 47  1  0  0  0
 23 48  1  0  0  0
 24 49  1  0  0  0
 24 50  1  0  0  0
 24 51  1  0  0  0
 25 26  1  0  0  0
 25 52  1  0  0  0
 26 27  2  0  0  0
 26 53  1  0  0  0
 27 28  1  0  0  0
 27 30  1  0  0  0
 28 29  2  0  0  0
 28 54  1  0  0  0
 29 55  1  0  0  0
 31 32  1  0  0  0
 31 56  1  0  0  0
 31 57  1  0  0  0
 32 33  1  0  0  0
 32 58  1  0  0  0
 33 34  1  0  0  0
 33 35  2  0  0  0
 33 36  2  0  0  0
 34 59  1  0  0  0
 34 60  1  0  0  0
 34 61  1  0  0  0
M  CHG  1   7  -1
M  END
> <s_m_source_file>
../3h5u_ligand.sdf

> <i_m_source_file_index>
1

> <s_epik_input>
W0NIM11TKD1PKSg9TylbTkhdW0NIMl1jKFtjSF1bY0hdW2NIXTEpYyhjMTIpUyg9TykoPU8pTj1DMkMzPUMoW09IXSlbQ0BIXShDKFtDSDNdKShbQ0gzXSlbQ0gzXSlOKEMzPU8pW0NIMl1jNFtjSF1bY0hdYyhGKVtjSF1bY0hdNA==

> <s_epik_cmdline>
J2VwaWtfYXBwJywgJy1pbWFlJywgJ2xpZ2FuZF9wcm8ubWFlJywgJy1vbWFlJywgJ2xpZ2FuZF9wcmVwLm1hZScsICctbXMnLCAnMScsICctcGgnLCAnNycsICctcGh0JywgJzAuNScsICctbnQn

> <r_lp_tautomer_probability>
1

> <r_epik_Ionization_Penalty>
  0.0004

> <r_epik_Ionization_Penalty_Charging>
  0.0003

> <r_epik_Ionization_Penalty_Neutral>
  0.0001

> <r_epik_State_Penalty>
 -0.0000

> <r_epik_Charging_Adjusted_Penalty>
0.000344577667969231

> <i_epik_Tot_Q>
-1

> <i_epik_Tot_abs_Q>
1

> <s_epik_Chemistry_Notes>
This compound has an imine and may undergo hydrolysis.

$$$$
