3h6z_ligand
                    3D
 Schrodinger Suite 2020-3.
126126  0  0  1  0            999 V2000
   52.9280   24.5360   28.5430 N   0  0  0  0  0  0
   52.7940   25.6450   29.5530 C   0  0  2  0  0  0
   53.2540   27.0020   29.0260 C   0  0  0  0  0  0
   54.1740   27.0940   28.2020 O   0  0  0  0  0  0
   53.5710   25.3310   30.8500 C   0  0  0  0  0  0
   52.7400   24.6850   31.9160 C   0  0  0  0  0  0
   51.3720   25.0740   32.1330 N   0  0  0  0  0  0
   53.0870   23.6830   32.8410 C   0  0  0  0  0  0
   50.9050   24.3310   33.1300 C   0  0  0  0  0  0
   51.9270   23.4770   33.5790 N   0  0  0  0  0  0
   52.6020   28.0520   29.4980 N   0  0  0  0  0  0
   53.1710   29.3740   29.4010 C   0  0  2  0  0  0
   52.9810   30.0050   30.7620 C   0  0  0  0  0  0
   53.8730   30.6920   31.2680 O   0  0  0  0  0  0
   52.5280   30.2010   28.2930 C   0  0  0  0  0  0
   53.3530   31.4160   27.9380 C   0  0  0  0  0  0
   53.3660   31.6810   26.4540 C   0  0  0  0  0  0
   53.6420   33.0880   26.1710 N   0  0  0  0  0  0
   52.9900   33.8110   25.2610 C   0  0  0  0  0  0
   52.0030   33.2700   24.5480 N   0  0  0  0  0  0
   53.3130   35.0850   25.0740 N   0  3  0  0  0  0
   51.8230   29.7360   31.3610 N   0  0  0  0  0  0
   51.5380   30.1940   32.7020 C   0  0  1  0  0  0
   50.0600   30.4710   32.8750 C   0  0  0  0  0  0
   49.7740   31.9090   32.4880 C   0  0  0  0  0  0
   48.4180   32.2980   33.0260 C   0  0  0  0  0  0
   47.8110   33.3370   32.1160 C   0  0  0  0  0  0
   46.4880   33.6960   32.5660 N   0  3  0  0  0  0
   45.9350   34.9790   32.1850 C   0  0  0  0  0  0
   52.0430   29.2040   33.6970 C   0  0  0  0  0  0
   51.6720   28.0260   33.7000 O   0  0  0  0  0  0
   52.9310   29.6920   34.5440 N   0  0  0  0  0  0
   53.5250   28.8820   35.5820 C   0  0  2  0  0  0
   52.5290   28.7810   36.7510 C   0  0  0  0  0  0
   51.6640   29.6490   36.9050 O   0  0  0  0  0  0
   54.9290   29.4530   35.9800 C   0  0  0  0  0  0
   54.8250   30.5250   37.0650 C   0  0  0  0  0  0
   55.8620   28.3260   36.3810 C   0  0  0  0  0  0
   52.6270   27.7110   37.5400 N   0  0  0  0  0  0
   51.7420   27.5190   38.6830 C   0  0  2  0  0  0
   51.9230   28.6530   39.6890 C   0  0  0  0  0  0
   53.0410   29.0420   40.0060 O   0  0  0  0  0  0
   51.9830   26.1570   39.3400 C   0  0  0  0  0  0
   51.2560   25.8400   40.6490 C   0  0  0  0  0  0
   49.7470   25.9000   40.4670 C   0  0  0  0  0  0
   51.6760   24.4930   41.1670 C   0  0  0  0  0  0
   50.8110   29.1980   40.1690 N   0  0  0  0  0  0
   50.8480   30.3090   41.1140 C   0  0  2  0  0  0
   50.0190   30.0630   42.3670 C   0  0  0  0  0  0
   48.9480   29.4540   42.3490 O   0  5  0  0  0  0
   50.4680   31.6140   40.4260 C   0  0  0  0  0  0
   51.5430   32.0570   39.4610 C   0  0  0  0  0  0
   51.2530   33.3920   38.8530 C   0  0  0  0  0  0
   52.4360   34.2460   38.9200 N   0  0  0  0  0  0
   53.3610   34.3550   37.9690 C   0  0  0  0  0  0
   53.2640   33.6690   36.8360 N   0  0  0  0  0  0
   54.3900   35.1690   38.1570 N   0  3  0  0  0  0
   50.4460   30.4580   43.4480 O   0  0  0  0  0  0
   53.9886   24.4025   28.2836 H   0  0  0  0  0  0
   52.5345   23.6017   28.9700 H   0  0  0  0  0  0
   51.7117   25.6971   29.7425 H   0  0  0  0  0  0
   54.6356   25.5388   31.0329 H   0  0  0  0  0  0
   53.9926   23.1004   33.0657 H   0  0  0  0  0  0
   49.8937   24.3762   33.5342 H   0  0  0  0  0  0
   51.6175   27.9101   29.9677 H   0  0  0  0  0  0
   54.2336   29.2709   29.1357 H   0  0  0  0  0  0
   52.4218   29.5833   27.3890 H   0  0  0  0  0  0
   51.5358   30.5448   28.6208 H   0  0  0  0  0  0
   52.9361   32.3017   28.4398 H   0  0  0  0  0  0
   54.3914   31.2630   28.2671 H   0  0  0  0  0  0
   54.1460   31.0679   25.9789 H   0  0  0  0  0  0
   52.3858   31.4228   26.0268 H   0  0  0  0  0  0
   54.4317   33.6159   26.7257 H   0  0  0  0  0  0
   51.7304   32.2149   24.6981 H   0  0  0  0  0  0
   51.4607   33.8784   23.8092 H   0  0  0  0  0  0
   54.1269   35.5377   25.6594 H   0  0  0  0  0  0
   51.0737   29.1494   30.8093 H   0  0  0  0  0  0
   52.0908   31.1348   32.8410 H   0  0  0  0  0  0
   49.4819   29.7930   32.2299 H   0  0  0  0  0  0
   49.7768   30.3079   33.9253 H   0  0  0  0  0  0
   50.5466   32.5645   32.9162 H   0  0  0  0  0  0
   49.7805   32.0020   31.3920 H   0  0  0  0  0  0
   47.7693   31.4104   33.0617 H   0  0  0  0  0  0
   48.5303   32.7111   34.0393 H   0  0  0  0  0  0
   48.4432   34.2372   32.1143 H   0  0  0  0  0  0
   47.7429   32.9349   31.0944 H   0  0  0  0  0  0
   45.7607   32.9620   32.1888 H   0  0  0  0  0  0
   46.4643   33.7039   33.6657 H   0  0  0  0  0  0
   44.9268   35.0851   32.6120 H   0  0  0  0  0  0
   45.8772   35.0423   31.0883 H   0  0  0  0  0  0
   46.5809   35.7841   32.5652 H   0  0  0  0  0  0
   53.2153   30.7496   34.4413 H   0  0  0  0  0  0
   53.6714   27.8744   35.1656 H   0  0  0  0  0  0
   55.3871   29.9517   35.1132 H   0  0  0  0  0  0
   54.1405   31.3189   36.7316 H   0  0  0  0  0  0
   55.8203   30.9540   37.2531 H   0  0  0  0  0  0
   54.4394   30.0733   37.9909 H   0  0  0  0  0  0
   55.9055   27.5809   35.5729 H   0  0  0  0  0  0
   55.4881   27.8496   37.2993 H   0  0  0  0  0  0
   56.8689   28.7303   36.5615 H   0  0  0  0  0  0
   53.3997   26.9624   37.3108 H   0  0  0  0  0  0
   50.7203   27.5471   38.2765 H   0  0  0  0  0  0
   51.6787   25.3574   38.6486 H   0  0  0  0  0  0
   53.0514   26.0488   39.5783 H   0  0  0  0  0  0
   51.5363   26.5910   41.4023 H   0  0  0  0  0  0
   49.4626   26.8927   40.0879 H   0  0  0  0  0  0
   49.2537   25.7215   41.4339 H   0  0  0  0  0  0
   49.4335   25.1292   39.7476 H   0  0  0  0  0  0
   52.7688   24.4722   41.2908 H   0  0  0  0  0  0
   51.3732   23.7143   40.4515 H   0  0  0  0  0  0
   51.1934   24.3067   42.1377 H   0  0  0  0  0  0
   49.8448   28.7908   39.8365 H   0  0  0  0  0  0
   51.8993   30.3529   41.4346 H   0  0  0  0  0  0
   49.5309   31.4745   39.8670 H   0  0  0  0  0  0
   50.3300   32.4007   41.1824 H   0  0  0  0  0  0
   52.5045   32.1281   39.9906 H   0  0  0  0  0  0
   51.6274   31.3246   38.6446 H   0  0  0  0  0  0
   50.9639   33.2603   37.7999 H   0  0  0  0  0  0
   50.4302   33.8738   39.4016 H   0  0  0  0  0  0
   52.6167   34.8665   39.8101 H   0  0  0  0  0  0
   52.4123   32.9919   36.6742 H   0  0  0  0  0  0
   54.0353   33.7779   36.0593 H   0  0  0  0  0  0
   54.4758   35.7398   39.0934 H   0  0  0  0  0  0
   52.7668   35.6879   24.3337 H   0  0  0  0  0  0
   55.1582   35.2737   37.3767 H   0  0  0  0  0  0
   50.9187   25.8606   31.5118 H   0  0  0  0  0  0
  1  2  1  0  0  0
  1 59  1  0  0  0
  1 60  1  0  0  0
  2  3  1  0  0  0
  2  5  1  0  0  0
  2 61  1  0  0  0
  3  4  2  0  0  0
  3 11  1  0  0  0
  5  6  2  0  0  0
  5 62  1  0  0  0
  6  7  1  0  0  0
  6  8  1  0  0  0
  7  9  1  0  0  0
  7126  1  0  0  0
  8 10  2  0  0  0
  8 63  1  0  0  0
  9 10  1  0  0  0
  9 64  1  0  0  0
 11 12  1  0  0  0
 11 65  1  0  0  0
 12 13  1  0  0  0
 12 15  1  0  0  0
 12 66  1  0  0  0
 13 14  2  0  0  0
 13 22  1  0  0  0
 15 16  1  0  0  0
 15 67  1  0  0  0
 15 68  1  0  0  0
 16 17  1  0  0  0
 16 69  1  0  0  0
 16 70  1  0  0  0
 17 18  1  0  0  0
 17 71  1  0  0  0
 17 72  1  0  0  0
 18 19  1  0  0  0
 18 73  1  0  0  0
 19 20  1  0  0  0
 19 21  2  0  0  0
 20 74  1  0  0  0
 20 75  1  0  0  0
 21 76  1  0  0  0
 21124  1  0  0  0
 22 23  1  0  0  0
 22 77  1  0  0  0
 23 24  1  0  0  0
 23 30  1  0  0  0
 23 78  1  0  0  0
 24 25  1  0  0  0
 24 79  1  0  0  0
 24 80  1  0  0  0
 25 26  1  0  0  0
 25 81  1  0  0  0
 25 82  1  0  0  0
 26 27  1  0  0  0
 26 83  1  0  0  0
 26 84  1  0  0  0
 27 28  1  0  0  0
 27 85  1  0  0  0
 27 86  1  0  0  0
 28 29  1  0  0  0
 28 87  1  0  0  0
 28 88  1  0  0  0
 29 89  1  0  0  0
 29 90  1  0  0  0
 29 91  1  0  0  0
 30 31  2  0  0  0
 30 32  1  0  0  0
 32 33  1  0  0  0
 32 92  1  0  0  0
 33 34  1  0  0  0
 33 36  1  0  0  0
 33 93  1  0  0  0
 34 35  2  0  0  0
 34 39  1  0  0  0
 36 37  1  0  0  0
 36 38  1  0  0  0
 36 94  1  0  0  0
 37 95  1  0  0  0
 37 96  1  0  0  0
 37 97  1  0  0  0
 38 98  1  0  0  0
 38 99  1  0  0  0
 38100  1  0  0  0
 39 40  1  0  0  0
 39101  1  0  0  0
 40 41  1  0  0  0
 40 43  1  0  0  0
 40102  1  0  0  0
 41 42  2  0  0  0
 41 47  1  0  0  0
 43 44  1  0  0  0
 43103  1  0  0  0
 43104  1  0  0  0
 44 45  1  0  0  0
 44 46  1  0  0  0
 44105  1  0  0  0
 45106  1  0  0  0
 45107  1  0  0  0
 45108  1  0  0  0
 46109  1  0  0  0
 46110  1  0  0  0
 46111  1  0  0  0
 47 48  1  0  0  0
 47112  1  0  0  0
 48 49  1  0  0  0
 48 51  1  0  0  0
 48113  1  0  0  0
 49 50  1  0  0  0
 49 58  2  0  0  0
 51 52  1  0  0  0
 51114  1  0  0  0
 51115  1  0  0  0
 52 53  1  0  0  0
 52116  1  0  0  0
 52117  1  0  0  0
 53 54  1  0  0  0
 53118  1  0  0  0
 53119  1  0  0  0
 54 55  1  0  0  0
 54120  1  0  0  0
 55 56  1  0  0  0
 55 57  2  0  0  0
 56121  1  0  0  0
 56122  1  0  0  0
 57123  1  0  0  0
 57125  1  0  0  0
M  CHG  4  21   1  28   1  50  -1  57   1
M  END
> <s_m_source_file>
../3h6z_ligand.sdf

> <i_m_source_file_index>
1

> <s_epik_input>
W0NIXTE9TltDSDJdTj1DMVtDSDJdW0NASF0oW05IMytdKUMoPU8pW05IXVtDQEBIXShbQ0gyXVtDSDJdW0NIMl1bTkhdL0MoW05IMl0pPU5cW0hdKUMoPU8pW05IXVtDQEBIXShbQ0gyXVtDSDJdW0NIMl1bQ0gyXVtOSDIrXVtDSDNdKUMoPU8pW05IXVtDQEBIXShbQ0hdKFtDSDNdKVtDSDNdKUMoPU8pW05IXVtDQEBIXShbQ0gyXVtDSF0oW0NIM10pW0NIM10pQyg9TylbTkhdW0NASF0oQyg9TylbT0hdKVtDSDJdW0NIMl1bQ0gyXVtOSF0vQyhbTkgyXSk9TlxbSF0=

> <s_epik_cmdline>
J2VwaWtfYXBwJywgJy1pbWFlJywgJ2xpZ2FuZF9wcm8ubWFlJywgJy1vbWFlJywgJ2xpZ2FuZF9wcmVwLm1hZScsICctbXMnLCAnMScsICctcGgnLCAnNycsICctcGh0JywgJzAuNScsICctbnQn

> <r_epik_Ionization_Penalty>
  0.1013

> <r_epik_Ionization_Penalty_Charging>
  0.0004

> <r_epik_Ionization_Penalty_Neutral>
  0.1009

> <r_epik_State_Penalty>
  0.0909

> <r_epik_Charging_Adjusted_Penalty>
0.0913252798568804

> <i_epik_Tot_Q>
2

> <i_epik_Tot_abs_Q>
4

> <s_epik_Chemistry_Notes>
This compound has an imine and may undergo hydrolysis.

$$$$
