3h85_ligand
                    3D
 Schrodinger Suite 2020-3.
135139  0  0  1  0            999 V2000
   63.6780  -11.4690    0.6630 N   0  3  0  0  0  0
   62.8980  -10.2650    1.0660 C   0  0  2  0  0  0
   63.3570   -9.0190    0.3160 C   0  0  0  0  0  0
   64.5410   -8.8590    0.0200 O   0  0  0  0  0  0
   62.9480  -10.0540    2.5730 C   0  0  0  0  0  0
   62.3790  -11.1720    3.2410 O   0  0  0  0  0  0
   62.4060   -8.1300    0.0340 N   0  0  0  0  0  0
   62.5260   -7.2110   -1.0860 C   0  0  2  0  0  0
   62.6110   -5.7180   -0.7900 C   0  0  0  0  0  0
   62.7760   -5.2890    0.3630 O   0  0  0  0  0  0
   61.3610   -7.4440   -2.0340 C   0  0  0  0  0  0
   61.7880   -8.0130   -3.3270 C   0  0  0  0  0  0
   62.3850   -7.3430   -4.3620 C   0  0  0  0  0  0
   61.6510   -9.3700   -3.7460 C   0  0  0  0  0  0
   62.6280   -8.2070   -5.3990 N   0  3  0  0  0  0
   62.1840   -9.4580   -5.0480 C   0  0  0  0  0  0
   61.1260  -10.5200   -3.1500 C   0  0  0  0  0  0
   62.2070  -10.6600   -5.7650 C   0  0  0  0  0  0
   61.1480  -11.7030   -3.8560 C   0  0  0  0  0  0
   61.6860  -11.7690   -5.1490 C   0  0  0  0  0  0
   62.4960   -4.9470   -1.8760 N   0  0  0  0  0  0
   62.4170   -3.4930   -1.8220 C   0  0  2  0  0  0
   60.9670   -3.0600   -1.5950 C   0  0  0  0  0  0
   60.0390   -3.6450   -2.1610 O   0  0  0  0  0  0
   62.9460   -2.8370   -3.1360 C   0  0  0  0  0  0
   63.9070   -3.7800   -3.8590 C   0  0  0  0  0  0
   61.7920   -2.4140   -4.0410 C   0  0  0  0  0  0
   60.7810   -2.0360   -0.7650 N   0  0  0  0  0  0
   59.4500   -1.5230   -0.4710 C   0  0  2  0  0  0
   58.8360   -0.7850   -1.6560 C   0  0  0  0  0  0
   59.5450   -0.2900   -2.5240 O   0  0  0  0  0  0
   59.5000   -0.6050    0.7440 C   0  0  0  0  0  0
   59.7020   -1.3300    2.0510 C   0  0  0  0  0  0
   58.6380   -1.9790    2.6810 C   0  0  0  0  0  0
   60.9470   -1.3580    2.6690 C   0  0  0  0  0  0
   58.8110   -2.6430    3.8870 C   0  0  0  0  0  0
   61.1310   -2.0230    3.8770 C   0  0  0  0  0  0
   60.0570   -2.6640    4.4800 C   0  0  0  0  0  0
   60.2250   -3.3160    5.6830 O   0  0  0  0  0  0
   57.5080   -0.7360   -1.6840 N   0  0  0  0  0  0
   56.7620    0.0670   -2.6460 C   0  0  2  0  0  0
   55.8010    0.9690   -1.8960 C   0  0  0  0  0  0
   55.4270    0.6660   -0.7600 O   0  0  0  0  0  0
   55.9500   -0.8220   -3.5780 C   0  0  0  0  0  0
   56.7590   -1.3560   -4.6010 O   0  0  0  0  0  0
   55.3840    2.0800   -2.5320 N   0  0  0  0  0  0
   54.3850    2.9330   -1.8990 C   0  0  2  0  0  0
   53.1330    2.1010   -1.6740 C   0  0  0  0  0  0
   52.7820    1.2810   -2.5200 O   0  0  0  0  0  0
   54.1180    4.0180   -2.9480 C   0  0  0  0  0  0
   55.2170    3.9120   -3.9320 C   0  0  0  0  0  0
   55.6940    2.5090   -3.9060 C   0  0  0  0  0  0
   52.4480    2.2960   -0.5690 N   0  0  0  0  0  0
   51.2650    1.5230   -0.2990 C   0  0  2  0  0  0
   50.2540    1.7170   -1.3880 C   0  0  0  0  0  0
   49.6300    0.7750   -1.8290 O   0  0  0  0  0  0
   50.6630    1.9560    1.0110 C   0  0  0  0  0  0
   49.6700    0.9830    1.5900 C   0  0  0  0  0  0
   50.2670   -0.3380    1.4700 C   0  0  0  0  0  0
   49.4640    1.3120    3.0000 C   0  0  0  0  0  0
   50.0710    2.9580   -1.8020 N   0  0  0  0  0  0
   49.1930    3.2650   -2.9140 C   0  0  2  0  0  0
   49.9680    3.9380   -4.0190 C   0  0  0  0  0  0
   50.1740    3.3620   -5.0680 O   0  0  0  0  0  0
   48.0800    4.1920   -2.4750 C   0  0  0  0  0  0
   47.3590    3.7320   -1.2570 C   0  0  0  0  0  0
   47.6010    4.2600   -0.0100 N   0  0  0  0  0  0
   46.3940    2.8050   -1.0940 C   0  0  0  0  0  0
   46.8200    3.6690    0.8720 C   0  0  0  0  0  0
   46.0760    2.7840    0.2380 N   0  0  0  0  0  0
   50.4040    5.0800   -3.8770 O   0  5  0  0  0  0
   63.6222  -11.5936   -0.4285 H   0  0  0  0  0  0
   63.2592  -12.3590    1.1555 H   0  0  0  0  0  0
   64.7284  -11.3432    0.9645 H   0  0  0  0  0  0
   61.8558  -10.4696    0.7798 H   0  0  0  0  0  0
   63.9941   -9.9363    2.8922 H   0  0  0  0  0  0
   62.3805   -9.1490    2.8356 H   0  0  0  0  0  0
   62.3314  -11.1904    4.3398 H   0  0  0  0  0  0
   61.5122   -8.1026    0.6746 H   0  0  0  0  0  0
   63.5167   -7.4925   -1.4724 H   0  0  0  0  0  0
   60.6490   -8.1454   -1.5745 H   0  0  0  0  0  0
   60.8555   -6.4881   -2.2357 H   0  0  0  0  0  0
   62.5955   -6.2671   -4.2721 H   0  0  0  0  0  0
   60.7066  -10.4817   -2.1446 H   0  0  0  0  0  0
   62.6220  -10.7124   -6.7716 H   0  0  0  0  0  0
   60.7393  -12.6050   -3.4005 H   0  0  0  0  0  0
   61.6903  -12.7229   -5.6764 H   0  0  0  0  0  0
   62.4617   -5.4640   -2.8463 H   0  0  0  0  0  0
   63.0495   -3.2188   -0.9648 H   0  0  0  0  0  0
   63.5072   -1.9229   -2.8919 H   0  0  0  0  0  0
   64.7237   -4.0634   -3.1788 H   0  0  0  0  0  0
   64.3241   -3.2726   -4.7414 H   0  0  0  0  0  0
   63.3649   -4.6827   -4.1772 H   0  0  0  0  0  0
   61.1223   -1.7378   -3.4894 H   0  0  0  0  0  0
   61.2314   -3.3047   -4.3608 H   0  0  0  0  0  0
   62.1906   -1.8947   -4.9250 H   0  0  0  0  0  0
   61.6636   -1.5758   -0.2969 H   0  0  0  0  0  0
   58.8480   -2.4201   -0.2638 H   0  0  0  0  0  0
   60.3334    0.1044    0.6335 H   0  0  0  0  0  0
   58.5538   -0.0496    0.8231 H   0  0  0  0  0  0
   57.6522   -1.9636    2.2162 H   0  0  0  0  0  0
   61.7909   -0.8517    2.2004 H   0  0  0  0  0  0
   57.9684   -3.1447    4.3629 H   0  0  0  0  0  0
   62.1138   -2.0408    4.3480 H   0  0  0  0  0  0
   59.3719   -3.8227    6.1578 H   0  0  0  0  0  0
   56.9709   -1.3382   -0.9364 H   0  0  0  0  0  0
   57.5090    0.6416   -3.2133 H   0  0  0  0  0  0
   55.5137   -1.6529   -3.0042 H   0  0  0  0  0  0
   55.1443   -0.2314   -4.0384 H   0  0  0  0  0  0
   56.3197   -2.0214   -5.3588 H   0  0  0  0  0  0
   54.7297    3.3308   -0.9331 H   0  0  0  0  0  0
   53.1416    3.8379   -3.4215 H   0  0  0  0  0  0
   54.1133    5.0048   -2.4619 H   0  0  0  0  0  0
   54.8406    4.1745   -4.9317 H   0  0  0  0  0  0
   56.0272    4.6016   -3.6526 H   0  0  0  0  0  0
   56.7770    2.4271   -4.0801 H   0  0  0  0  0  0
   55.1582    1.8667   -4.6204 H   0  0  0  0  0  0
   52.7847    3.0560    0.1514 H   0  0  0  0  0  0
   51.5878    0.4721   -0.2622 H   0  0  0  0  0  0
   51.4612    2.0826    1.7573 H   0  0  0  0  0  0
   50.1345    2.9109    0.8738 H   0  0  0  0  0  0
   48.6916    0.9964    1.0874 H   0  0  0  0  0  0
   50.4182   -0.5768    0.4069 H   0  0  0  0  0  0
   49.5981   -1.0851    1.9221 H   0  0  0  0  0  0
   51.2361   -0.3510    1.9902 H   0  0  0  0  0  0
   49.0126    2.3118    3.0810 H   0  0  0  0  0  0
   50.4313    1.3029    3.5237 H   0  0  0  0  0  0
   48.7932    0.5688    3.4557 H   0  0  0  0  0  0
   50.6035    3.7679   -1.2818 H   0  0  0  0  0  0
   48.7891    2.2978   -3.2476 H   0  0  0  0  0  0
   47.7845    5.1301   -2.9677 H   0  0  0  0  0  0
   45.8763    2.1325   -1.7937 H   0  0  0  0  0  0
   46.7937    3.8762    1.9418 H   0  0  0  0  0  0
   63.1087   -7.8414   -6.3184 H   0  0  0  0  0  0
   48.3544    5.0516    0.1153 H   0  0  0  0  0  0
  1  2  1  0  0  0
  1 72  1  0  0  0
  1 73  1  0  0  0
  1 74  1  0  0  0
  2  3  1  0  0  0
  2  5  1  0  0  0
  2 75  1  0  0  0
  3  4  2  0  0  0
  3  7  1  0  0  0
  5  6  1  0  0  0
  5 76  1  0  0  0
  5 77  1  0  0  0
  6 78  1  0  0  0
  7  8  1  0  0  0
  7 79  1  0  0  0
  8  9  1  0  0  0
  8 11  1  0  0  0
  8 80  1  0  0  0
  9 10  2  0  0  0
  9 21  1  0  0  0
 11 12  1  0  0  0
 11 81  1  0  0  0
 11 82  1  0  0  0
 12 13  2  0  0  0
 12 14  1  0  0  0
 13 15  1  0  0  0
 13 83  1  0  0  0
 14 16  2  0  0  0
 14 17  1  0  0  0
 15 16  1  0  0  0
 15134  1  0  0  0
 16 18  1  0  0  0
 17 19  2  0  0  0
 17 84  1  0  0  0
 18 20  2  0  0  0
 18 85  1  0  0  0
 19 20  1  0  0  0
 19 86  1  0  0  0
 20 87  1  0  0  0
 21 22  1  0  0  0
 21 88  1  0  0  0
 22 23  1  0  0  0
 22 25  1  0  0  0
 22 89  1  0  0  0
 23 24  2  0  0  0
 23 28  1  0  0  0
 25 26  1  0  0  0
 25 27  1  0  0  0
 25 90  1  0  0  0
 26 91  1  0  0  0
 26 92  1  0  0  0
 26 93  1  0  0  0
 27 94  1  0  0  0
 27 95  1  0  0  0
 27 96  1  0  0  0
 28 29  1  0  0  0
 28 97  1  0  0  0
 29 30  1  0  0  0
 29 32  1  0  0  0
 29 98  1  0  0  0
 30 31  2  0  0  0
 30 40  1  0  0  0
 32 33  1  0  0  0
 32 99  1  0  0  0
 32100  1  0  0  0
 33 34  2  0  0  0
 33 35  1  0  0  0
 34 36  1  0  0  0
 34101  1  0  0  0
 35 37  2  0  0  0
 35102  1  0  0  0
 36 38  2  0  0  0
 36103  1  0  0  0
 37 38  1  0  0  0
 37104  1  0  0  0
 38 39  1  0  0  0
 39105  1  0  0  0
 40 41  1  0  0  0
 40106  1  0  0  0
 41 42  1  0  0  0
 41 44  1  0  0  0
 41107  1  0  0  0
 42 43  2  0  0  0
 42 46  1  0  0  0
 44 45  1  0  0  0
 44108  1  0  0  0
 44109  1  0  0  0
 45110  1  0  0  0
 46 47  1  0  0  0
 46 52  1  0  0  0
 47 48  1  0  0  0
 47 50  1  0  0  0
 47111  1  0  0  0
 48 49  2  0  0  0
 48 53  1  0  0  0
 50 51  1  0  0  0
 50112  1  0  0  0
 50113  1  0  0  0
 51 52  1  0  0  0
 51114  1  0  0  0
 51115  1  0  0  0
 52116  1  0  0  0
 52117  1  0  0  0
 53 54  1  0  0  0
 53118  1  0  0  0
 54 55  1  0  0  0
 54 57  1  0  0  0
 54119  1  0  0  0
 55 56  2  0  0  0
 55 61  1  0  0  0
 57 58  1  0  0  0
 57120  1  0  0  0
 57121  1  0  0  0
 58 59  1  0  0  0
 58 60  1  0  0  0
 58122  1  0  0  0
 59123  1  0  0  0
 59124  1  0  0  0
 59125  1  0  0  0
 60126  1  0  0  0
 60127  1  0  0  0
 60128  1  0  0  0
 61 62  1  0  0  0
 61129  1  0  0  0
 62 63  1  0  0  0
 62 65  1  0  0  0
 62130  1  0  0  0
 63 64  2  0  0  0
 63 71  1  0  0  0
 65 66  2  0  0  0
 65131  1  0  0  0
 66 67  1  0  0  0
 66 68  1  0  0  0
 67 69  1  0  0  0
 67135  1  0  0  0
 68 70  2  0  0  0
 68132  1  0  0  0
 69 70  1  0  0  0
 69133  1  0  0  0
M  CHG  3   1   1  15   1  71  -1
M  END
> <s_m_source_file>
../3h85_ligand.sdf

> <i_m_source_file_index>
1

> <s_epik_input>
W2NIXTFbY0hdW2NIXVtjSF1jKGMxMilbbkhdW2NIXWMyW0NIMl1bQ0BIXShbTkhdQyg9TylbQ0BASF0oW05IMytdKVtDSDJdW09IXSlDKD1PKVtOSF1bQ0BASF0oW0NIXShbQ0gzXSlbQ0gzXSlDKD1PKVtOSF1bQ0BASF0oW0NIMl1jM1tjSF1bY0hdYyhbT0hdKVtjSF1bY0hdMylDKD1PKVtOSF1bQ0BASF0oW0NIMl1bT0hdKUMoPU8pTjRbQ0BASF0oW0NIMl1bQ0gyXVtDSDJdNClDKD1PKVtOSF1bQ0BASF0oW0NIMl1bQ0hdKFtDSDNdKVtDSDNdKUMoPU8pW05IXVtDQEhdKEMoPU8pW09IXSlbQ0gyXUM1PU5bQ0gyXU49W0NIXTU=

> <s_epik_cmdline>
J2VwaWtfYXBwJywgJy1pbWFlJywgJ2xpZ2FuZF9wcm8ubWFlJywgJy1vbWFlJywgJ2xpZ2FuZF9wcmVwLm1hZScsICctbXMnLCAnMScsICctcGgnLCAnNycsICctcGh0JywgJzAuNScsICctbnQn

> <r_epik_Ionization_Penalty>
  0.1582

> <r_epik_Ionization_Penalty_Charging>
  0.1573

> <r_epik_Ionization_Penalty_Neutral>
  0.0009

> <r_epik_State_Penalty>
  0.1466

> <r_epik_Charging_Adjusted_Penalty>
0.303857077766773

> <i_epik_Tot_Q>
1

> <i_epik_Tot_abs_Q>
3

> <s_epik_Chemistry_Notes>
This compound has an imine and may undergo hydrolysis.

$$$$
