3h89_ligand
                    3D
 Schrodinger Suite 2020-3.
151156  0  0  1  0            999 V2000
   30.5470   -3.6070  -10.1640 C   0  0  0  0  0  0
   29.5170   -3.8940   -9.2920 C   0  0  0  0  0  0
   28.9320   -3.0160   -8.7110 O   0  0  0  0  0  0
   28.4970   -3.8070  -14.2010 C   0  0  1  0  0  0
   29.2850   -2.5480  -13.7070 C   0  0  0  0  0  0
   29.9200   -2.5200  -12.4070 C   0  0  0  0  0  0
   29.8290   -3.7460  -11.4950 C   0  0  3  0  0  0
   29.0310   -5.0550  -11.9270 C   0  0  0  0  0  0
   28.3900   -5.0250  -13.2810 C   0  0  0  0  0  0
   26.7810   -3.3810  -18.3810 C   0  0  0  0  0  0
   26.9570   -4.8920  -16.1250 C   0  0  0  0  0  0
   27.8700   -3.7740  -15.5490 C   0  0  3  0  0  0
   26.4450   -4.6200  -17.5520 C   0  0  0  0  0  0
   28.2390   -2.4420  -16.4230 C   0  0  0  0  0  0
   27.6940   -2.2800  -17.7760 C   0  0  0  0  0  0
   29.2390   -5.3290   -9.1710 N   0  0  0  0  0  0
   28.2860   -5.9600   -8.3720 C   0  0  2  0  0  0
   29.1650   -7.0890   -7.9310 C   0  0  0  0  0  0
   30.2060   -7.5130   -8.6260 O   0  0  0  0  0  0
   27.2100   -6.4620   -9.2520 C   0  0  0  0  0  0
   23.5710   -7.6070  -14.9110 C   0  0  0  0  0  0
   23.6050   -7.1340  -16.1600 C   0  0  0  0  0  0
   23.2990   -5.6850  -16.4750 C   0  0  0  0  0  0
   23.9170   -8.0610  -17.3400 C   0  0  0  0  0  0
   23.3170   -5.0980  -17.8360 C   0  0  0  0  0  0
   23.9340   -7.4930  -18.7410 C   0  0  0  0  0  0
   23.6050   -5.9670  -19.0290 C   0  0  0  0  0  0
   28.7530   -7.6320   -6.6120 N   0  0  0  0  0  0
   29.4490   -8.6840   -5.9570 C   0  0  2  0  0  0
   29.3680  -10.0990   -6.8160 C   0  0  0  0  0  0
   28.0570  -10.5490   -7.6210 C   0  0  0  0  0  0
   27.7370  -12.0690   -7.5510 C   0  0  0  0  0  0
   26.5490  -12.6270   -8.2440 N   0  0  0  0  0  0
   25.2480  -12.8340   -7.5640 C   0  0  0  0  0  0
   25.1290  -13.1080   -6.2180 N   0  0  0  0  0  0
   24.0320  -12.7690   -8.2170 N   0  0  0  0  0  0
   28.8890   -9.0670   -4.6820 C   0  0  0  0  0  0
   29.6660   -9.5080   -3.7900 O   0  0  0  0  0  0
   27.5720   -8.9400   -4.5820 N   0  0  0  0  0  0
   26.8100   -9.3010   -3.4310 C   0  0  2  0  0  0
   26.5650  -10.8380   -3.6560 C   0  0  0  0  0  0
   26.1400  -11.2590   -4.7180 O   0  0  0  0  0  0
   25.4250   -8.5790   -3.3250 C   0  0  0  0  0  0
   24.7130   -9.1140   -2.0270 C   0  0  2  0  0  0
   25.0760   -8.5480   -0.6630 C   0  0  0  0  0  0
   23.6130  -10.2780   -2.1430 C   0  0  0  0  0  0
   24.3940   -9.0940    0.5700 C   0  0  0  0  0  0
   22.9660  -10.7870   -0.9140 C   0  0  0  0  0  0
   23.3370  -10.2220    0.4280 C   0  0  0  0  0  0
   22.7490  -10.7000    1.4990 O   0  0  0  0  0  0
   29.0780  -13.8470   -2.2000 C   0  0  0  0  0  0
   29.0100  -14.2380   -0.6250 C   0  0  0  0  0  0
   30.3490  -14.2830    0.1350 C   0  0  0  0  0  0
   31.6370  -13.9730   -0.5920 C   0  0  0  0  0  0
   31.6570  -13.6150   -2.0590 C   0  0  0  0  0  0
   30.3920  -13.5460   -2.8770 C   0  0  0  0  0  0
   27.9170  -13.7670   -3.0290 C   0  0  0  0  0  0
   26.6500  -13.1950   -2.6130 C   0  0  0  0  0  0
   26.8780  -11.6780   -2.4820 N   0  0  0  0  0  0
   23.6150   -5.3550  -20.3260 C   0  0  3  0  0  0
   23.3270   -3.8300  -20.5120 C   0  0  0  0  0  0
   23.8640   -6.1440  -21.6250 C   0  0  0  0  0  0
   23.3220   -3.1830  -21.8960 C   0  0  0  0  0  0
   23.8490   -5.4890  -22.9580 C   0  0  0  0  0  0
   23.5860   -4.0340  -23.0890 C   0  0  0  0  0  0
   24.4630   -7.2990  -13.8830 C   0  0  0  0  0  0
   25.7620   -5.9570   -9.3450 C   0  0  0  0  0  0
   24.9620   -5.9330  -10.3590 C   0  0  0  0  0  0
   25.2720   -6.4360  -11.7830 C   0  0  0  0  0  0
   24.1210   -6.6540  -12.8130 N   0  0  0  0  0  0
   25.4660   -7.7030  -14.1310 O   0  0  0  0  0  0
   30.9223   -2.5920   -9.9668 H   0  0  0  0  0  0
   31.3610   -4.3330  -10.0216 H   0  0  0  0  0  0
   29.4217   -4.2157  -14.6345 H   0  0  0  0  0  0
   29.3506   -1.6728  -14.3701 H   0  0  0  0  0  0
   30.4638   -1.6215  -12.0797 H   0  0  0  0  0  0
   28.9117   -3.3413  -11.0424 H   0  0  0  0  0  0
   29.7158   -5.9158  -11.9355 H   0  0  0  0  0  0
   28.2169   -5.2412  -11.2110 H   0  0  0  0  0  0
   27.3315   -5.2230  -13.0564 H   0  0  0  0  0  0
   28.8290   -5.9014  -13.7803 H   0  0  0  0  0  0
   27.2988   -3.6857  -19.3024 H   0  0  0  0  0  0
   25.8529   -2.8505  -18.6403 H   0  0  0  0  0  0
   27.5145   -5.8397  -16.1585 H   0  0  0  0  0  0
   26.0718   -5.0098  -15.4827 H   0  0  0  0  0  0
   28.7523   -4.2768  -15.9717 H   0  0  0  0  0  0
   25.3565   -4.6785  -17.4048 H   0  0  0  0  0  0
   26.7924   -5.5200  -18.0804 H   0  0  0  0  0  0
   28.8949   -1.6680  -15.9979 H   0  0  0  0  0  0
   27.9323   -1.3793  -18.3607 H   0  0  0  0  0  0
   29.8986   -5.9273   -9.8167 H   0  0  0  0  0  0
   27.8140   -5.3357   -7.5991 H   0  0  0  0  0  0
   27.5144   -6.3511  -10.3032 H   0  0  0  0  0  0
   27.0238   -7.5240   -9.0343 H   0  0  0  0  0  0
   22.6181   -7.3265  -14.4385 H   0  0  0  0  0  0
   23.6614   -8.7031  -14.9314 H   0  0  0  0  0  0
   23.0479   -5.0275  -15.6427 H   0  0  0  0  0  0
   24.1243   -9.1177  -17.1710 H   0  0  0  0  0  0
   23.1211   -4.0344  -17.9723 H   0  0  0  0  0  0
   24.1789   -8.1493  -19.5761 H   0  0  0  0  0  0
   27.8660   -7.1828   -6.1415 H   0  0  0  0  0  0
   30.3981   -8.1544   -5.7873 H   0  0  0  0  0  0
   30.1400  -10.0969   -7.5996 H   0  0  0  0  0  0
   29.5355  -10.9493   -6.1386 H   0  0  0  0  0  0
   27.1799  -10.0220   -7.2173 H   0  0  0  0  0  0
   28.1767  -10.2995   -8.6856 H   0  0  0  0  0  0
   28.5757  -12.6402   -7.9757 H   0  0  0  0  0  0
   27.5863  -12.3641   -6.5021 H   0  0  0  0  0  0
   26.6124  -12.9059   -9.3062 H   0  0  0  0  0  0
   26.0293  -13.1847   -5.5906 H   0  0  0  0  0  0
   23.9977  -12.5563   -9.2957 H   0  0  0  0  0  0
   23.0983  -12.9299   -7.6581 H   0  0  0  0  0  0
   27.0681   -8.5244   -5.4671 H   0  0  0  0  0  0
   27.4053   -8.9896   -2.5600 H   0  0  0  0  0  0
   25.5822   -7.4924   -3.2579 H   0  0  0  0  0  0
   24.8229   -8.8080   -4.2167 H   0  0  0  0  0  0
   25.4927   -9.8819   -1.9158 H   0  0  0  0  0  0
   26.1481   -8.7059   -0.4740 H   0  0  0  0  0  0
   24.8548   -7.4707   -0.6424 H   0  0  0  0  0  0
   23.3390  -10.6967   -3.1226 H   0  0  0  0  0  0
   25.1487   -9.5166    1.2496 H   0  0  0  0  0  0
   23.8544   -8.2825    1.0803 H   0  0  0  0  0  0
   22.2094  -11.5828   -0.9799 H   0  0  0  0  0  0
   28.9680  -12.7837   -1.9408 H   0  0  0  0  0  0
   28.3883  -13.5039   -0.0915 H   0  0  0  0  0  0
   28.5701  -15.2402   -0.5146 H   0  0  0  0  0  0
   30.3265  -13.5566    0.9607 H   0  0  0  0  0  0
   30.5071  -15.2935    0.5399 H   0  0  0  0  0  0
   32.1256  -13.1080   -0.1197 H   0  0  0  0  0  0
   32.3058  -14.8448   -0.5411 H   0  0  0  0  0  0
   32.0889  -12.6113   -2.1856 H   0  0  0  0  0  0
   32.2667  -14.3483   -2.6071 H   0  0  0  0  0  0
   30.5517  -14.2577   -3.7004 H   0  0  0  0  0  0
   30.3724  -12.5213   -3.2766 H   0  0  0  0  0  0
   28.1457  -13.1692   -3.9236 H   0  0  0  0  0  0
   27.6127  -14.7795   -3.3326 H   0  0  0  0  0  0
   25.8828  -13.4135   -3.3704 H   0  0  0  0  0  0
   26.3490  -13.6322   -1.6495 H   0  0  0  0  0  0
   27.2603  -11.2586   -1.5397 H   0  0  0  0  0  0
   23.8489   -5.9468  -19.4287 H   0  0  0  0  0  0
   22.3257   -3.5957  -20.1216 H   0  0  0  0  0  0
   24.0803   -3.2450  -19.9640 H   0  0  0  0  0  0
   24.0571   -7.2240  -21.5450 H   0  0  0  0  0  0
   23.1277   -2.1074  -22.0198 H   0  0  0  0  0  0
   24.0344   -6.0832  -23.8649 H   0  0  0  0  0  0
   23.5889   -3.5867  -24.0939 H   0  0  0  0  0  0
   25.4254   -5.5755   -8.3697 H   0  0  0  0  0  0
   23.9471   -5.5232  -10.2493 H   0  0  0  0  0  0
   25.9410   -5.7225  -12.2863 H   0  0  0  0  0  0
   25.7611   -7.4197  -11.7261 H   0  0  0  0  0  0
   23.1125   -6.2698  -12.6003 H   0  0  0  0  0  0
  1  2  1  0  0  0
  1  7  1  0  0  0
  1 72  1  0  0  0
  1 73  1  0  0  0
  2  3  2  0  0  0
  2 16  1  0  0  0
  4  5  1  0  0  0
  4  9  1  0  0  0
  4 12  1  0  0  0
  4 74  1  0  0  0
  5  6  2  0  0  0
  5 75  1  0  0  0
  6  7  1  0  0  0
  6 76  1  0  0  0
  7  8  1  0  0  0
  7 77  1  0  0  0
  8  9  1  0  0  0
  8 78  1  0  0  0
  8 79  1  0  0  0
  9 80  1  0  0  0
  9 81  1  0  0  0
 10 13  1  0  0  0
 10 15  1  0  0  0
 10 82  1  0  0  0
 10 83  1  0  0  0
 11 12  1  0  0  0
 11 13  1  0  0  0
 11 84  1  0  0  0
 11 85  1  0  0  0
 12 14  1  0  0  0
 12 86  1  0  0  0
 13 87  1  0  0  0
 13 88  1  0  0  0
 14 15  2  0  0  0
 14 89  1  0  0  0
 15 90  1  0  0  0
 16 17  1  0  0  0
 16 91  1  0  0  0
 17 18  1  0  0  0
 17 20  1  0  0  0
 17 92  1  0  0  0
 18 19  2  0  0  0
 18 28  1  0  0  0
 20 67  1  0  0  0
 20 93  1  0  0  0
 20 94  1  0  0  0
 21 22  1  0  0  0
 21 66  1  0  0  0
 21 95  1  0  0  0
 21 96  1  0  0  0
 22 23  2  0  0  0
 22 24  1  0  0  0
 23 25  1  0  0  0
 23 97  1  0  0  0
 24 26  2  0  0  0
 24 98  1  0  0  0
 25 27  2  0  0  0
 25 99  1  0  0  0
 26 27  1  0  0  0
 26100  1  0  0  0
 27 60  1  0  0  0
 28 29  1  0  0  0
 28101  1  0  0  0
 29 30  1  0  0  0
 29 37  1  0  0  0
 29102  1  0  0  0
 30 31  1  0  0  0
 30103  1  0  0  0
 30104  1  0  0  0
 31 32  1  0  0  0
 31105  1  0  0  0
 31106  1  0  0  0
 32 33  1  0  0  0
 32107  1  0  0  0
 32108  1  0  0  0
 33 34  1  0  0  0
 33109  1  0  0  0
 34 35  2  0  0  0
 34 36  1  0  0  0
 35110  1  0  0  0
 36111  1  0  0  0
 36112  1  0  0  0
 37 38  2  0  0  0
 37 39  1  0  0  0
 39 40  1  0  0  0
 39113  1  0  0  0
 40 41  1  0  0  0
 40 43  1  0  0  0
 40114  1  0  0  0
 41 42  2  0  0  0
 41 59  1  0  0  0
 43 44  1  0  0  0
 43115  1  0  0  0
 43116  1  0  0  0
 44 45  1  0  0  0
 44 46  1  0  0  0
 44117  1  0  0  0
 45 47  1  0  0  0
 45118  1  0  0  0
 45119  1  0  0  0
 46 48  2  0  0  0
 46120  1  0  0  0
 47 49  1  0  0  0
 47121  1  0  0  0
 47122  1  0  0  0
 48 49  1  0  0  0
 48123  1  0  0  0
 49 50  2  0  0  0
 51 52  1  0  0  0
 51 56  1  0  0  0
 51 57  1  0  0  0
 51124  1  0  0  0
 52 53  1  0  0  0
 52125  1  0  0  0
 52126  1  0  0  0
 53 54  1  0  0  0
 53127  1  0  0  0
 53128  1  0  0  0
 54 55  1  0  0  0
 54129  1  0  0  0
 54130  1  0  0  0
 55 56  1  0  0  0
 55131  1  0  0  0
 55132  1  0  0  0
 56133  1  0  0  0
 56134  1  0  0  0
 57 58  1  0  0  0
 57135  1  0  0  0
 57136  1  0  0  0
 58 59  1  0  0  0
 58137  1  0  0  0
 58138  1  0  0  0
 59139  1  0  0  0
 60 61  1  0  0  0
 60 62  1  0  0  0
 60140  1  0  0  0
 61 63  1  0  0  0
 61141  1  0  0  0
 61142  1  0  0  0
 62 64  2  0  0  0
 62143  1  0  0  0
 63 65  2  0  0  0
 63144  1  0  0  0
 64 65  1  0  0  0
 64145  1  0  0  0
 65146  1  0  0  0
 66 70  1  0  0  0
 66 71  2  0  0  0
 67 68  2  0  0  0
 67147  1  0  0  0
 68 69  1  0  0  0
 68148  1  0  0  0
 69 70  1  0  0  0
 69149  1  0  0  0
 69150  1  0  0  0
 70151  1  0  0  0
M  END
> <s_m_source_file>
../3h89_ligand.sdf

> <i_m_source_file_index>
1

> <s_epik_input>
W0NIMl0xW0NIMl1bQ0gyXVtDSDJdW0NIMl1bQ0hdMVtDSDJdW0NIMl1bTkhdQyg9TylbQ0BIXShbQ0gyXVtDQEBIXTJbQ0gyXVtDSDJdQyg9TylbQ0hdPVtDSF0yKVtOSF1DKD1PKVtDQEBIXShbQ0gyXVtDSDJdW0NIMl1bTkhdL0MoPU5cW0hdKVtOSDJdKVtOSF1DKD1PKVtDQEBIXShbTkhdQyg9TylbQ0gyXVtDSF0oW0NIMl1bQ0gyXTMpW0NIXT1bQ0hdW0NIXTNbQ0hdNFtDSDJdW0NIMl1bQ0gyXVtDSF09W0NIXTQpW0NIMl0vW0NIXT1bQ0hdXFtDSDJdW05IXUMoPU8pW0NIMl1jNVtjSF1bY0hdYyhbY0hdW2NIXTUpW0NIXTZbQ0gyXVtDSF09W0NIXVtDSF09W0NIXTY=

> <s_epik_cmdline>
J2VwaWtfYXBwJywgJy1pbWFlJywgJ2xpZ2FuZF9wcm8ubWFlJywgJy1vbWFlJywgJ2xpZ2FuZF9wcmVwLm1hZScsICctbXMnLCAnMScsICctcGgnLCAnNycsICctcGh0JywgJzAuNScsICctbnQn

> <s_epik_pKa_notes>
Molecule size exceeds maximum supported for generating protonation states

> <s_epik_Chemistry_Notes>
This compound has an imine and may undergo hydrolysis.

$$$$
