3h8b_ligand
                    3D
 Schrodinger Suite 2020-3.
152157  0  0  1  0            999 V2000
    3.2190   -4.8430    6.0950 C   0  0  0  0  0  0
    2.0850   -4.5470    6.7180 C   0  0  0  0  0  0
    1.6510   -3.4260    6.8170 O   0  0  0  0  0  0
    3.8220   -6.6690    1.9450 C   0  0  3  0  0  0
    4.9600   -6.4010    3.0020 C   0  0  0  0  0  0
    4.6670   -5.8160    4.2790 C   0  0  0  0  0  0
    3.2370   -5.4440    4.6930 C   0  0  3  0  0  0
    1.9980   -5.7040    3.6840 C   0  0  0  0  0  0
    2.3640   -6.3130    2.3340 C   0  0  0  0  0  0
    5.3810   -8.5000   -2.0260 C   0  0  0  0  0  0
    3.2140   -7.5400   -0.5650 C   0  0  0  0  0  0
    4.2050   -7.2650    0.6050 C   0  0  0  0  0  0
    3.8830   -8.1630   -1.8530 C   0  0  0  0  0  0
    5.8290   -7.6190    0.4110 C   0  0  0  0  0  0
    6.3650   -8.2210   -0.8650 C   0  0  0  0  0  0
    1.4520   -5.7410    7.3240 N   0  0  0  0  0  0
    0.2690   -5.8730    8.1140 C   0  0  2  0  0  0
    0.4080   -7.3090    8.4670 C   0  0  0  0  0  0
    1.0870   -8.1420    7.7260 O   0  0  0  0  0  0
   -0.9400   -5.6350    7.3670 C   0  0  0  0  0  0
   -5.3240   -3.4670    2.7760 C   0  0  0  0  0  0
   -5.1570   -2.9890    1.5860 C   0  0  0  0  0  0
   -4.3620   -1.7430    1.2910 C   0  0  0  0  0  0
   -5.7840   -3.6990    0.4520 C   0  0  0  0  0  0
   -4.1590   -1.2380   -0.0660 C   0  0  0  0  0  0
   -5.5910   -3.1890   -0.9580 C   0  0  0  0  0  0
   -4.7680   -1.9300   -1.2490 C   0  0  0  0  0  0
   -0.2560   -7.6530    9.7560 N   0  0  0  0  0  0
   -0.1800   -8.9400   10.3270 C   0  0  2  0  0  0
   -0.5600  -10.2780    9.3930 C   0  0  0  0  0  0
   -1.8460  -10.4580    8.4630 C   0  0  0  0  0  0
   -3.1900  -10.4680    9.2210 C   0  0  0  0  0  0
   -4.4900  -10.6280    8.5320 N   0  0  0  0  0  0
   -5.7750  -10.4070    9.2310 C   0  0  0  0  0  0
   -6.1100  -11.0180   10.4230 N   0  0  0  0  0  0
   -6.7570   -9.5640    8.7560 N   0  0  0  0  0  0
   -0.9180   -9.1040   11.5780 C   0  0  0  0  0  0
   -0.5700  -10.0300   12.3160 O   0  0  0  0  0  0
   -1.9020   -8.2380   11.8580 N   0  0  0  0  0  0
   -2.6740   -8.3110   13.0950 C   0  0  2  0  0  0
   -3.6910   -9.4910   12.8320 C   0  0  0  0  0  0
   -4.4240   -9.4710   11.8860 O   0  0  0  0  0  0
   -3.5480   -7.0460   13.4250 C   0  0  0  0  0  0
   -4.3000   -7.2990   14.7930 C   0  0  1  0  0  0
   -3.5580   -7.0930   16.1120 C   0  0  0  0  0  0
   -5.8390   -7.7690   14.8120 C   0  0  0  0  0  0
   -4.2740   -7.3350   17.4240 C   0  0  0  0  0  0
   -6.5010   -7.9930   16.1200 C   0  0  0  0  0  0
   -5.7620   -7.7900   17.4090 C   0  0  0  0  0  0
   -2.9550  -13.5160   13.4070 C   0  0  0  0  0  0
   -2.9040  -13.9990   14.9580 C   0  0  0  0  0  0
   -1.6780  -14.8390   15.3720 C   0  0  0  0  0  0
   -0.6130  -15.1710   14.3620 C   0  0  0  0  0  0
   -0.7030  -14.7050   12.9310 C   0  0  0  0  0  0
   -1.8610  -13.8760   12.4340 C   0  0  0  0  0  0
   -4.0100  -12.7410   12.8920 C   0  0  0  0  0  0
   -4.6700  -11.6990   13.6610 C   0  0  0  0  0  0
   -3.6630  -10.5480   13.8560 N   0  0  0  0  0  0
   -4.5050   -1.4220   -2.5380 C   0  0  0  0  0  0
   -3.6110   -0.1660   -2.7300 C   0  0  0  0  0  0
   -5.0850   -2.0480   -3.8130 C   0  0  0  0  0  0
   -3.3290    0.3750   -4.1140 C   0  0  0  0  0  0
   -4.7970   -1.4910   -5.1290 C   0  0  0  0  0  0
   -3.9280   -0.2870   -5.2670 C   0  0  0  0  0  0
   -4.2830   -3.9460    3.5910 C   0  0  0  0  0  0
   -1.8170   -4.4650    7.6230 C   0  0  0  0  0  0
   -2.5330   -3.7690    6.8480 C   0  0  0  0  0  0
   -2.6960   -3.9720    5.3500 C   0  0  0  0  0  0
   -3.8750   -3.2960    4.6040 N   0  0  0  0  0  0
   -3.8720   -4.9570    3.2030 O   0  0  0  0  0  0
    3.8227   -3.9308    5.9792 H   0  0  0  0  0  0
    3.7803   -5.5815    6.6863 H   0  0  0  0  0  0
    3.6831   -7.6817    2.3513 H   0  0  0  0  0  0
    5.9949   -6.6714    2.7454 H   0  0  0  0  0  0
    5.4797   -5.6217    4.9944 H   0  0  0  0  0  0
    3.3741   -4.4402    4.2645 H   0  0  0  0  0  0
    1.2831   -6.3967    4.1521 H   0  0  0  0  0  0
    1.4955   -4.7499    3.4668 H   0  0  0  0  0  0
    1.9645   -5.5750    1.6228 H   0  0  0  0  0  0
    1.7447   -7.2217    2.3060 H   0  0  0  0  0  0
    5.4943   -9.5762   -2.2236 H   0  0  0  0  0  0
    5.7905   -7.9270   -2.8710 H   0  0  0  0  0  0
    2.4400   -8.2469   -0.2314 H   0  0  0  0  0  0
    2.7403   -6.5965   -0.8738 H   0  0  0  0  0  0
    4.0181   -8.2743    1.0005 H   0  0  0  0  0  0
    3.5821   -7.4285   -2.6146 H   0  0  0  0  0  0
    3.2852   -9.0788   -1.9705 H   0  0  0  0  0  0
    6.4204   -6.6976    0.5174 H   0  0  0  0  0  0
    6.1401   -8.3448    1.1768 H   0  0  0  0  0  0
    6.8384   -9.1630   -0.5512 H   0  0  0  0  0  0
    7.1392   -7.5160   -1.2019 H   0  0  0  0  0  0
    2.0520   -6.6299    7.0793 H   0  0  0  0  0  0
    0.1912   -5.1388    8.9294 H   0  0  0  0  0  0
   -0.6960   -5.5243    6.3001 H   0  0  0  0  0  0
   -1.6264   -6.4842    7.5000 H   0  0  0  0  0  0
   -5.7739   -2.6974    3.4205 H   0  0  0  0  0  0
   -5.9897   -4.3415    2.7298 H   0  0  0  0  0  0
   -3.9201   -1.1958    2.1237 H   0  0  0  0  0  0
   -6.3854   -4.5901    0.6320 H   0  0  0  0  0  0
   -3.5551   -0.3438   -0.2204 H   0  0  0  0  0  0
   -6.0480   -3.7296   -1.7868 H   0  0  0  0  0  0
   -0.8215   -6.8582   10.2645 H   0  0  0  0  0  0
    0.8796   -8.7492   10.5524 H   0  0  0  0  0  0
    0.2402  -10.4516    8.6584 H   0  0  0  0  0  0
   -0.6605  -11.1611   10.0412 H   0  0  0  0  0  0
   -1.8939   -9.6308    7.7395 H   0  0  0  0  0  0
   -1.7771  -11.4139    7.9230 H   0  0  0  0  0  0
   -3.1972  -11.2973    9.9437 H   0  0  0  0  0  0
   -3.3167   -9.5149    9.7553 H   0  0  0  0  0  0
   -4.5183  -10.9187    7.4715 H   0  0  0  0  0  0
   -5.4053  -11.7142   10.9013 H   0  0  0  0  0  0
   -7.0816  -10.8086   10.8943 H   0  0  0  0  0  0
   -6.6052   -9.0194    7.8124 H   0  0  0  0  0  0
   -2.1204   -7.4531   11.1189 H   0  0  0  0  0  0
   -1.9173   -8.4178   13.8862 H   0  0  0  0  0  0
   -2.8974   -6.1633   13.5118 H   0  0  0  0  0  0
   -4.2789   -6.8849   12.6189 H   0  0  0  0  0  0
   -3.9775   -8.3505   14.7758 H   0  0  0  0  0  0
   -2.6892   -7.7664   16.1530 H   0  0  0  0  0  0
   -3.2168   -6.0496   16.1817 H   0  0  0  0  0  0
   -6.3993   -7.9243   13.8782 H   0  0  0  0  0  0
   -3.7537   -8.1250   17.9854 H   0  0  0  0  0  0
   -4.2791   -6.4076   18.0155 H   0  0  0  0  0  0
   -7.5525   -8.3139   16.1564 H   0  0  0  0  0  0
   -5.8520   -8.7659   17.9085 H   0  0  0  0  0  0
   -6.3776   -7.0485   17.9393 H   0  0  0  0  0  0
   -2.4137  -12.5968   13.6755 H   0  0  0  0  0  0
   -2.9034  -13.1179   15.6166 H   0  0  0  0  0  0
   -3.7847  -14.6204   15.1777 H   0  0  0  0  0  0
   -1.1305  -14.3190   16.1719 H   0  0  0  0  0  0
   -2.0127  -15.8217   15.7357 H   0  0  0  0  0  0
    0.3506  -14.7593   14.6965 H   0  0  0  0  0  0
   -0.5301  -16.2633   14.2621 H   0  0  0  0  0  0
    0.1689  -14.0775   12.6942 H   0  0  0  0  0  0
   -0.7193  -15.5777   12.2615 H   0  0  0  0  0  0
   -2.2866  -14.4565   11.6022 H   0  0  0  0  0  0
   -1.4016  -12.9565   12.0422 H   0  0  0  0  0  0
   -3.6636  -12.1955   12.0018 H   0  0  0  0  0  0
   -4.8474  -13.3987   12.6162 H   0  0  0  0  0  0
   -5.5548  -11.3433   13.1127 H   0  0  0  0  0  0
   -4.9807  -12.1036   14.6356 H   0  0  0  0  0  0
   -2.9824  -10.5531   14.7202 H   0  0  0  0  0  0
   -3.1829    0.3301   -1.8590 H   0  0  0  0  0  0
   -5.7251   -2.9266   -3.7332 H   0  0  0  0  0  0
   -2.6879    1.2463   -4.2475 H   0  0  0  0  0  0
   -5.2199   -1.9579   -6.0185 H   0  0  0  0  0  0
   -3.7341    0.1115   -6.2629 H   0  0  0  0  0  0
   -1.7794   -4.2294    8.6968 H   0  0  0  0  0  0
   -3.1136   -2.9238    7.2463 H   0  0  0  0  0  0
   -1.8013   -3.5990    4.8300 H   0  0  0  0  0  0
   -2.8239   -5.0436    5.1369 H   0  0  0  0  0  0
   -4.2794   -2.3396    4.9668 H   0  0  0  0  0  0
  1  2  1  0  0  0
  1  7  1  0  0  0
  1 71  1  0  0  0
  1 72  1  0  0  0
  2  3  2  0  0  0
  2 16  1  0  0  0
  4  5  1  0  0  0
  4  9  1  0  0  0
  4 12  1  0  0  0
  4 73  1  0  0  0
  5  6  2  0  0  0
  5 74  1  0  0  0
  6  7  1  0  0  0
  6 75  1  0  0  0
  7  8  1  0  0  0
  7 76  1  0  0  0
  8  9  1  0  0  0
  8 77  1  0  0  0
  8 78  1  0  0  0
  9 79  1  0  0  0
  9 80  1  0  0  0
 10 13  1  0  0  0
 10 15  1  0  0  0
 10 81  1  0  0  0
 10 82  1  0  0  0
 11 12  1  0  0  0
 11 13  1  0  0  0
 11 83  1  0  0  0
 11 84  1  0  0  0
 12 14  1  0  0  0
 12 85  1  0  0  0
 13 86  1  0  0  0
 13 87  1  0  0  0
 14 15  1  0  0  0
 14 88  1  0  0  0
 14 89  1  0  0  0
 15 90  1  0  0  0
 15 91  1  0  0  0
 16 17  1  0  0  0
 16 92  1  0  0  0
 17 18  1  0  0  0
 17 20  1  0  0  0
 17 93  1  0  0  0
 18 19  2  0  0  0
 18 28  1  0  0  0
 20 66  1  0  0  0
 20 94  1  0  0  0
 20 95  1  0  0  0
 21 22  1  0  0  0
 21 65  1  0  0  0
 21 96  1  0  0  0
 21 97  1  0  0  0
 22 23  2  0  0  0
 22 24  1  0  0  0
 23 25  1  0  0  0
 23 98  1  0  0  0
 24 26  2  0  0  0
 24 99  1  0  0  0
 25 27  2  0  0  0
 25100  1  0  0  0
 26 27  1  0  0  0
 26101  1  0  0  0
 27 59  1  0  0  0
 28 29  1  0  0  0
 28102  1  0  0  0
 29 30  1  0  0  0
 29 37  1  0  0  0
 29103  1  0  0  0
 30 31  1  0  0  0
 30104  1  0  0  0
 30105  1  0  0  0
 31 32  1  0  0  0
 31106  1  0  0  0
 31107  1  0  0  0
 32 33  1  0  0  0
 32108  1  0  0  0
 32109  1  0  0  0
 33 34  1  0  0  0
 33110  1  0  0  0
 34 35  1  0  0  0
 34 36  2  0  0  0
 35111  1  0  0  0
 35112  1  0  0  0
 36113  1  0  0  0
 37 38  2  0  0  0
 37 39  1  0  0  0
 39 40  1  0  0  0
 39114  1  0  0  0
 40 41  1  0  0  0
 40 43  1  0  0  0
 40115  1  0  0  0
 41 42  2  0  0  0
 41 58  1  0  0  0
 43 44  1  0  0  0
 43116  1  0  0  0
 43117  1  0  0  0
 44 45  1  0  0  0
 44 46  1  0  0  0
 44118  1  0  0  0
 45 47  1  0  0  0
 45119  1  0  0  0
 45120  1  0  0  0
 46 48  2  0  0  0
 46121  1  0  0  0
 47 49  1  0  0  0
 47122  1  0  0  0
 47123  1  0  0  0
 48 49  1  0  0  0
 48124  1  0  0  0
 49125  1  0  0  0
 49126  1  0  0  0
 50 51  1  0  0  0
 50 55  1  0  0  0
 50 56  1  0  0  0
 50127  1  0  0  0
 51 52  1  0  0  0
 51128  1  0  0  0
 51129  1  0  0  0
 52 53  1  0  0  0
 52130  1  0  0  0
 52131  1  0  0  0
 53 54  1  0  0  0
 53132  1  0  0  0
 53133  1  0  0  0
 54 55  1  0  0  0
 54134  1  0  0  0
 54135  1  0  0  0
 55136  1  0  0  0
 55137  1  0  0  0
 56 57  1  0  0  0
 56138  1  0  0  0
 56139  1  0  0  0
 57 58  1  0  0  0
 57140  1  0  0  0
 57141  1  0  0  0
 58142  1  0  0  0
 59 60  2  0  0  0
 59 61  1  0  0  0
 60 62  1  0  0  0
 60143  1  0  0  0
 61 63  2  0  0  0
 61144  1  0  0  0
 62 64  2  0  0  0
 62145  1  0  0  0
 63 64  1  0  0  0
 63146  1  0  0  0
 64147  1  0  0  0
 65 69  1  0  0  0
 65 70  2  0  0  0
 66 67  2  0  0  0
 66148  1  0  0  0
 67 68  1  0  0  0
 67149  1  0  0  0
 68 69  1  0  0  0
 68150  1  0  0  0
 68151  1  0  0  0
 69152  1  0  0  0
M  END
> <s_m_source_file>
../3h8b_ligand.sdf

> <i_m_source_file_index>
1

> <s_epik_input>
W0NIMl0xW0NIMl1bQ0gyXVtDSDJdW0NIMl1bQ0hdMVtDSDJdW0NIMl1bTkhdQyg9TylbQ0BIXShbQ0gyXVtDSF0yW0NIMl1bQ0gyXVtDSDJdW0NIXT1bQ0hdMilbTkhdQyg9TylbQ0BASF0oW0NIMl1bQ0gyXVtDSDJdW05IXS9DKFtOSDJdKT1OXFtIXSlbTkhdQyg9TylbQ0BASF0oW05IXUMoPU8pW0NIMl1bQ0hdKFtDSDJdW0NIMl0zKVtDSF09W0NIXVtDSF0zW0NIXTRbQ0gyXVtDSDJdW0NIMl1bQ0gyXVtDSDJdNClbQ0gyXS9bQ0hdPVtDSF1cW0NIMl1bTkhdQyg9TylbQ0gyXWM1W2NIXVtjSF1jKFtjSF1bY0hdNSktYzZbY0hdW2NIXVtjSF1bY0hdW2NIXTY=

> <s_epik_cmdline>
J2VwaWtfYXBwJywgJy1pbWFlJywgJ2xpZ2FuZF9wcm8ubWFlJywgJy1vbWFlJywgJ2xpZ2FuZF9wcmVwLm1hZScsICctbXMnLCAnMScsICctcGgnLCAnNycsICctcGh0JywgJzAuNScsICctbnQn

> <s_epik_pKa_notes>
Molecule size exceeds maximum supported for generating protonation states

> <s_epik_Chemistry_Notes>
This compound has an imine and may undergo hydrolysis.

$$$$
