3h98_ligand
                    3D
 Schrodinger Suite 2020-3.
 57 60  0  0  1  0            999 V2000
    4.9820   -8.8960   -9.6940 C   0  0  0  0  0  0
    6.4900   -9.1390   -9.6140 C   0  0  0  0  0  0
    6.7380   -9.4220   -8.1300 C   0  0  0  0  0  0
    6.9480  -10.2690  -10.5070 C   0  0  0  0  0  0
    8.4510  -10.4250  -10.5270 C   0  0  0  0  0  0
    8.9780   -8.9450  -12.4630 C   0  0  0  0  0  0
    9.5850   -7.6880  -12.9660 C   0  0  1  0  0  0
    9.1090   -9.2310  -11.0890 N   0  0  0  0  0  0
   10.5130   -7.3420  -10.7180 N   0  0  0  0  0  0
    8.3030   -9.6340  -13.2290 O   0  0  0  0  0  0
   10.4530   -6.9730  -12.0070 C   0  0  2  0  0  0
   11.0670   -5.8580  -12.3880 O   0  0  0  0  0  0
   10.1030   -8.6130   -9.0250 N   0  0  0  0  0  0
   11.1530   -6.8040   -9.6720 C   0  0  0  0  0  0
   10.8990   -7.6130   -8.6050 C   0  0  0  0  0  0
    9.8800   -8.4320  -10.3230 C   0  0  0  0  0  0
    9.6620   -7.4930  -14.3900 C   0  0  0  0  0  0
   10.1940   -7.6570  -17.2470 C   0  0  0  0  0  0
    9.4050   -8.6440  -16.5240 C   0  0  0  0  0  0
    8.7950   -9.6570  -17.2480 C   0  0  0  0  0  0
    9.8280   -8.7350  -23.0420 O   0  0  0  0  0  0
   10.2940   -8.1480  -21.8190 S   0  0  0  0  0  0
    9.7500   -6.9130  -21.4460 O   0  0  0  0  0  0
   11.9790   -8.0910  -21.9570 C   0  0  0  0  0  0
    9.8640   -9.1420  -20.6380 N   0  0  0  0  0  0
    9.7430   -8.8850  -19.3090 C   0  0  0  0  0  0
   10.3610   -7.8050  -18.6370 C   0  0  0  0  0  0
   10.7800   -6.3990  -16.3890 S   0  0  0  0  0  0
    9.9780   -5.2130  -16.7360 O   0  0  0  0  0  0
   12.1460   -6.2550  -16.7680 O   0  0  0  0  0  0
   10.5410   -6.5750  -14.8100 N   0  0  0  0  0  0
    8.9440   -9.7880  -18.6050 C   0  0  0  0  0  0
    9.1870   -8.4840  -15.1920 N   0  0  0  0  0  0
    4.7084   -8.0660   -9.0260 H   0  0  0  0  0  0
    4.4471   -9.8064   -9.3858 H   0  0  0  0  0  0
    4.7061   -8.6408  -10.7278 H   0  0  0  0  0  0
    7.0751   -8.2854   -9.9868 H   0  0  0  0  0  0
    6.3866   -8.5693   -7.5304 H   0  0  0  0  0  0
    7.8145   -9.5709   -7.9601 H   0  0  0  0  0  0
    6.1910  -10.3291   -7.8333 H   0  0  0  0  0  0
    6.5160  -11.2159  -10.1509 H   0  0  0  0  0  0
    6.6155  -10.0792  -11.5382 H   0  0  0  0  0  0
    8.8177  -10.5749   -9.5008 H   0  0  0  0  0  0
    8.7212  -11.2949  -11.1436 H   0  0  0  0  0  0
    8.8198   -6.9024  -13.0520 H   0  0  0  0  0  0
   11.5044   -7.1410  -11.7306 H   0  0  0  0  0  0
   11.0280   -5.5408  -13.4405 H   0  0  0  0  0  0
   11.7581   -5.8974   -9.6736 H   0  0  0  0  0  0
   11.2743   -7.4744   -7.5911 H   0  0  0  0  0  0
    8.1725  -10.3777  -16.7177 H   0  0  0  0  0  0
   12.2572   -7.4053  -22.7709 H   0  0  0  0  0  0
   12.3630   -9.0978  -22.1783 H   0  0  0  0  0  0
   12.4124   -7.7329  -21.0115 H   0  0  0  0  0  0
    9.6194  -10.1905  -20.8633 H   0  0  0  0  0  0
   10.9652   -7.0889  -19.1939 H   0  0  0  0  0  0
    8.4390  -10.5965  -19.1336 H   0  0  0  0  0  0
    8.5483   -9.2741  -14.7704 H   0  0  0  0  0  0
  1  2  1  0  0  0
  1 34  1  0  0  0
  1 35  1  0  0  0
  1 36  1  0  0  0
  2  3  1  0  0  0
  2  4  1  0  0  0
  2 37  1  0  0  0
  3 38  1  0  0  0
  3 39  1  0  0  0
  3 40  1  0  0  0
  4  5  1  0  0  0
  4 41  1  0  0  0
  4 42  1  0  0  0
  5  8  1  0  0  0
  5 43  1  0  0  0
  5 44  1  0  0  0
  6  7  1  0  0  0
  6  8  1  0  0  0
  6 10  2  0  0  0
  7 11  1  0  0  0
  7 17  1  0  0  0
  7 45  1  0  0  0
  8 16  1  0  0  0
  9 11  1  0  0  0
  9 14  1  0  0  0
  9 16  1  0  0  0
 11 12  1  0  0  0
 11 46  1  0  0  0
 12 47  1  0  0  0
 13 15  1  0  0  0
 13 16  2  0  0  0
 14 15  2  0  0  0
 14 48  1  0  0  0
 15 49  1  0  0  0
 17 31  2  0  0  0
 17 33  1  0  0  0
 18 19  2  0  0  0
 18 27  1  0  0  0
 18 28  1  0  0  0
 19 20  1  0  0  0
 19 33  1  0  0  0
 20 32  2  0  0  0
 20 50  1  0  0  0
 21 22  2  0  0  0
 22 23  2  0  0  0
 22 24  1  0  0  0
 22 25  1  0  0  0
 24 51  1  0  0  0
 24 52  1  0  0  0
 24 53  1  0  0  0
 25 26  1  0  0  0
 25 54  1  0  0  0
 26 27  2  0  0  0
 26 32  1  0  0  0
 27 55  1  0  0  0
 28 29  2  0  0  0
 28 30  2  0  0  0
 28 31  1  0  0  0
 32 56  1  0  0  0
 33 57  1  0  0  0
M  END
> <s_m_source_file>
../3h98_ligand.sdf

> <i_m_source_file_index>
1

> <s_epik_input>
W0NIM11bQ0hdKFtDSDNdKVtDSDJdW0NIMl1OKGMobjEyKW5bY0hdW2NIXTIpQyg9TylbQ0BASF0oW0NASF0xW09IXSlDKD1OUzMoPU8pPU8pW05IXWMoYzM0KVtjSF1bY0hdYyhbY0hdNClbTkhdUyg9TykoPU8pW0NIM10=

> <s_epik_cmdline>
J2VwaWtfYXBwJywgJy1pbWFlJywgJ2xpZ2FuZF9wcm8ubWFlJywgJy1vbWFlJywgJ2xpZ2FuZF9wcmVwLm1hZScsICctbXMnLCAnMScsICctcGgnLCAnNycsICctcGh0JywgJzAuNScsICctbnQn

> <r_lp_tautomer_probability>
1

> <r_epik_Ionization_Penalty>
  0.0796

> <r_epik_Ionization_Penalty_Charging>
  0.0243

> <r_epik_Ionization_Penalty_Neutral>
  0.0553

> <r_epik_State_Penalty>
 -0.0000

> <r_epik_Charging_Adjusted_Penalty>
0.0242612146260875

> <i_epik_Tot_Q>
0

> <i_epik_Tot_abs_Q>
0

> <s_epik_Chemistry_Notes>
This compound has an imine and may undergo hydrolysis. This compound contains an acetal/aminal-like group ( X-CH(R)-Y where X, Y are N, S, or O) that may be acid/base labile, releasing an aldehyde.

$$$$
