3h9f_ligand
                    3D
 Schrodinger Suite 2020-3.
 68 72  0  0  1  0            999 V2000
    1.6090   20.6110   45.9040 C   0  0  0  0  0  0
    1.8790   21.9360   45.6240 C   0  0  0  0  0  0
    1.2690   22.9260   46.3810 C   0  0  0  0  0  0
    0.4480   22.5690   47.3450 N   0  0  0  0  0  0
    0.7640   20.3120   46.8930 N   0  0  0  0  0  0
   -1.4920   15.7290   52.2680 C   0  0  0  0  0  0
   -0.9510   14.3240   52.5500 C   0  0  0  0  0  0
   -1.9180   13.2920   51.9240 C   0  0  0  0  0  0
   -1.4230   11.9460   52.0620 O   0  0  0  0  0  0
   -2.1450   13.6240   50.4300 C   0  0  0  0  0  0
   -1.2330   14.7570   49.9320 C   0  0  0  0  0  0
   -1.2910   15.9400   50.8220 N   0  0  0  0  0  0
   -1.1280   17.2140   50.2810 C   0  0  0  0  0  0
   -0.9550   18.3300   51.1020 C   0  0  0  0  0  0
   -0.7650   19.5860   50.5150 C   0  0  0  0  0  0
   -0.5740   20.6930   51.2570 O   0  0  0  0  0  0
   -0.6490   20.4830   52.6490 C   0  0  0  0  0  0
   -1.1220   17.3800   48.8970 C   0  0  0  0  0  0
   -0.9540   18.6400   48.3170 C   0  0  0  0  0  0
   -0.7570   19.7480   49.1280 C   0  0  0  0  0  0
   -0.6220   20.9750   48.6210 N   0  0  0  0  0  0
    0.1970   21.2740   47.6160 C   0  0  0  0  0  0
    2.6780   22.4160   44.6830 N   0  0  0  0  0  0
    3.4690   23.6240   44.9780 C   0  0  0  0  0  0
    2.8320   21.8590   43.4870 C   0  0  0  0  0  0
    3.6150   22.3740   42.6770 O   0  0  0  0  0  0
    2.0740   20.6290   43.1080 C   0  0  0  0  0  0
    2.6030   19.4570   43.9370 C   0  0  0  0  0  0
    2.0550   19.5140   45.2920 N   0  0  0  0  0  0
    1.8300   18.1950   45.9350 C   0  0  0  0  0  0
    3.0620   17.2880   45.8280 C   0  0  0  0  0  0
    2.5320   15.8760   45.7360 C   0  0  0  0  0  0
    1.1410   15.9930   45.1520 C   0  0  0  0  0  0
    0.7850   17.4870   45.1300 C   0  0  0  0  0  0
    1.4719   23.9663   46.1737 H   0  0  0  0  0  0
   -2.5575   15.7726   52.5380 H   0  0  0  0  0  0
   -0.9321   16.4641   52.8648 H   0  0  0  0  0  0
    0.0493   14.2200   52.1044 H   0  0  0  0  0  0
   -0.8864   14.1673   53.6369 H   0  0  0  0  0  0
   -2.8649   13.2782   52.4837 H   0  0  0  0  0  0
   -1.2049   11.5399   53.0607 H   0  0  0  0  0  0
   -1.9390   12.7316   49.8207 H   0  0  0  0  0  0
   -3.1882   13.9385   50.2786 H   0  0  0  0  0  0
   -0.1926   14.4016   49.8968 H   0  0  0  0  0  0
   -1.5491   15.0663   48.9248 H   0  0  0  0  0  0
   -0.9688   18.2176   52.1760 H   0  0  0  0  0  0
   -0.4817   21.4356   53.1730 H   0  0  0  0  0  0
    0.1203   19.7576   52.9523 H   0  0  0  0  0  0
   -1.6441   20.0920   52.9077 H   0  0  0  0  0  0
   -1.2489   16.5246   48.2500 H   0  0  0  0  0  0
   -0.9779   18.7474   47.2426 H   0  0  0  0  0  0
   -1.2074   21.8089   49.0357 H   0  0  0  0  0  0
    3.2405   23.9723   45.9961 H   0  0  0  0  0  0
    3.2161   24.4135   44.2549 H   0  0  0  0  0  0
    4.5407   23.3878   44.9032 H   0  0  0  0  0  0
    1.0038   20.7803   43.3125 H   0  0  0  0  0  0
    2.2174   20.4255   42.0365 H   0  0  0  0  0  0
    2.3033   18.5095   43.4653 H   0  0  0  0  0  0
    3.7005   19.5100   43.9883 H   0  0  0  0  0  0
    1.5529   18.3941   46.9808 H   0  0  0  0  0  0
    3.6377   17.5560   44.9298 H   0  0  0  0  0  0
    3.6923   17.4189   46.7200 H   0  0  0  0  0  0
    3.1884   15.2797   45.0853 H   0  0  0  0  0  0
    2.5061   15.4279   46.7403 H   0  0  0  0  0  0
    1.1349   15.5777   44.1334 H   0  0  0  0  0  0
    0.4314   15.4343   45.7800 H   0  0  0  0  0  0
   -0.2037   17.6587   45.5806 H   0  0  0  0  0  0
    0.7908   17.8738   44.1003 H   0  0  0  0  0  0
  1  2  2  0  0  0
  1  5  1  0  0  0
  1 29  1  0  0  0
  2  3  1  0  0  0
  2 23  1  0  0  0
  3  4  2  0  0  0
  3 35  1  0  0  0
  4 22  1  0  0  0
  5 22  2  0  0  0
  6  7  1  0  0  0
  6 12  1  0  0  0
  6 36  1  0  0  0
  6 37  1  0  0  0
  7  8  1  0  0  0
  7 38  1  0  0  0
  7 39  1  0  0  0
  8  9  1  0  0  0
  8 10  1  0  0  0
  8 40  1  0  0  0
  9 41  1  0  0  0
 10 11  1  0  0  0
 10 42  1  0  0  0
 10 43  1  0  0  0
 11 12  1  0  0  0
 11 44  1  0  0  0
 11 45  1  0  0  0
 12 13  1  0  0  0
 13 14  2  0  0  0
 13 18  1  0  0  0
 14 15  1  0  0  0
 14 46  1  0  0  0
 15 16  1  0  0  0
 15 20  2  0  0  0
 16 17  1  0  0  0
 17 47  1  0  0  0
 17 48  1  0  0  0
 17 49  1  0  0  0
 18 19  2  0  0  0
 18 50  1  0  0  0
 19 20  1  0  0  0
 19 51  1  0  0  0
 20 21  1  0  0  0
 21 22  1  0  0  0
 21 52  1  0  0  0
 23 24  1  0  0  0
 23 25  1  0  0  0
 24 53  1  0  0  0
 24 54  1  0  0  0
 24 55  1  0  0  0
 25 26  2  0  0  0
 25 27  1  0  0  0
 27 28  1  0  0  0
 27 56  1  0  0  0
 27 57  1  0  0  0
 28 29  1  0  0  0
 28 58  1  0  0  0
 28 59  1  0  0  0
 29 30  1  0  0  0
 30 31  1  0  0  0
 30 34  1  0  0  0
 30 60  1  0  0  0
 31 32  1  0  0  0
 31 61  1  0  0  0
 31 62  1  0  0  0
 32 33  1  0  0  0
 32 63  1  0  0  0
 32 64  1  0  0  0
 33 34  1  0  0  0
 33 65  1  0  0  0
 33 66  1  0  0  0
 34 67  1  0  0  0
 34 68  1  0  0  0
M  END
> <i_m_stars>
0

> <s_m_entry_id>
112

> <s_m_entry_name>
Structure112

> <s_m_Source_Path>
/disk1/aquila/PDBbind2020/fail/3h9f

> <s_m_Source_File>
3h9f_protein.pdb

> <i_m_Source_File_Index>
1

> <s_pdb_PDB_TITLE>
3h9f_protein

> <i_pdb_PDB_Model>
1

> <s_pdb_PDB_format_version>
3.0

> <s_ppw_entry_id_backup>
110

> <b_ppw_prepared>
1

> <s_ppw_prepared_with_version>
2020-2

> <b_ppw_assigned_bond_orders>
1

> <b_ppw_added_hydrogens>
1

> <b_ppw_treated_metals>
1

> <s_ppw_het_states>
eJztlz9PwzAQxb+KlZW2+M7xv7IxsSJGxFCVTpSWoQwI9bsTn2NeEkAICQFC7vT6YvudL6eflOeGmqW67n7BRj9T+mamkgyQsUinNSRBMqSBbCEtpIP0kAESaYQ0QhohjZBGSCOkEdIIaYQ0QhojjZHGSGOkMdIYaYw0RhojjZFmJC3pvu+55dy3PBnSYhoaKasYQbbEsSH3KUaUM3Q5VGS+POEVZqOsYNlisCIbgy1GjBZGK4adGg6GE8PD8NNDpXQdYUjpNCg9G4ilfBeCke/CU8O9nkFyF8LlSCpN01JW2LKlrJDSCaWTn7SQpLA0OmMDhbHUkcaIRwbqYOkp43Lcjl+2yDxexZDC2E8Mgzo4DwwqZWkyo8kcsaVz9EJe3XOTBqUjgl7YkKpO/0n+u3BMy0zsspqrw+qwUQ+b3Wp7eJKnWt2tV9vT+/32TF3Mz/e7W7XeP+4OS0Vn6rJb0si0V8z8LmZGEHkXMyMQVcxUzFTMfB0zgxGrmKmYqZj5WczQom1NGHCmM3zqe+EMLSx3nJnrfuGUNOmAT0hzQhU1fwE19cOpouZ3UWNtHKMmmBFpDFPPGmtDHPz8u+Bx3wyewdTWT6kKngqe/wIeH7zrwZNJE1xrEmnKo7dw8fFDuOgKlz8El/oBVeHyL+Fyc3wBG/iZrg==

> <b_ppw_created_disulfur>
1

> <s_m_source_file>
../3h9f_ligand.sdf

> <i_m_source_file_index>
1

> <s_epik_input>
W0NIMl0xW0NIMl1bQ0gyXVtDSDJdW0NIXTFOMltDSDJdW0NIMl1DKD1PKU4oW0NIM10pYyhjMjMpW2NIXW5jKG4zKVtOSF1jKFtjSF1bY0hdNCljKE9bQ0gzXSlbY0hdYzROKFtDSDJdW0NIMl01KVtDSDJdW0NIMl1bQ0hdNVtPSF0=

> <s_epik_cmdline>
J2VwaWtfYXBwJywgJy1pbWFlJywgJ2xpZ2FuZF9wcm8ubWFlJywgJy1vbWFlJywgJ2xpZ2FuZF9wcmVwLm1hZScsICctbXMnLCAnMScsICctcGgnLCAnNycsICctcGh0JywgJzAuNScsICctbnQn

> <r_lp_tautomer_probability>
1

> <r_epik_Ionization_Penalty>
  0.2203

> <r_epik_Ionization_Penalty_Charging>
  0.0000

> <r_epik_Ionization_Penalty_Neutral>
  0.2203

> <r_epik_State_Penalty>
 -0.0000

> <r_epik_Charging_Adjusted_Penalty>
0

> <i_epik_Tot_Q>
0

> <i_epik_Tot_abs_Q>
0

$$$$
