3h9o_ligand
                    3D
 Schrodinger Suite 2020-3.
 46 49  0  0  1  0            999 V2000
   31.6330  -15.9740   14.0900 C   0  0  0  0  0  0
   33.5210  -15.2110   15.2980 C   0  0  0  0  0  0
   38.6680  -14.3400   12.8970 C   0  0  0  0  0  0
   37.6550  -16.8490   13.6830 C   0  0  0  0  0  0
   41.7150  -16.3660   12.0150 C   0  0  0  0  0  0
   41.2050  -14.0150   11.8510 C   0  0  0  0  0  0
   45.0600  -19.0150   11.0650 C   0  0  0  0  0  0
   32.3800  -14.8360   14.5230 O   0  0  0  0  0  0
   34.7700  -14.7500   14.5570 C   0  0  0  0  0  0
   35.6130  -15.8720   14.3260 O   0  0  0  0  0  0
   36.8660  -15.6930   13.8100 C   0  0  0  0  0  0
   37.3930  -14.4630   13.4170 C   0  0  0  0  0  0
   39.4790  -15.4800   12.7610 C   0  0  0  0  0  0
   38.9400  -16.7260   13.1580 C   0  0  0  0  0  0
   37.1060  -18.0420   14.0760 O   0  0  0  0  0  0
   37.3970  -19.2030   13.3050 C   0  0  0  0  0  0
   40.7950  -15.3120   12.2150 C   0  0  0  0  0  0
   42.9720  -16.0900   11.4790 C   0  0  0  0  0  0
   43.3520  -14.8350   11.1330 N   0  0  0  0  0  0
   42.4880  -13.8210   11.3210 C   0  0  0  0  0  0
   40.3030  -12.9720   12.0490 C   0  0  0  0  0  0
   39.0640  -13.1110   12.5520 N   0  0  0  0  0  0
   42.9460  -12.5770   10.9330 N   0  0  0  0  0  0
   43.9350  -17.1260   11.2890 N   0  0  0  0  0  0
   43.7950  -18.5030   11.2970 C   0  0  0  0  0  0
   45.9840  -18.0150   10.9160 N   0  0  0  0  0  0
   45.2850  -16.9030   11.0560 C   0  0  0  0  0  0
   30.7670  -15.6410   13.4992 H   0  0  0  0  0  0
   31.2834  -16.5384   14.9670 H   0  0  0  0  0  0
   32.2735  -16.6189   13.4704 H   0  0  0  0  0  0
   33.4675  -14.7299   16.2858 H   0  0  0  0  0  0
   33.5365  -16.3038   15.4228 H   0  0  0  0  0  0
   41.4435  -17.3883   12.2782 H   0  0  0  0  0  0
   45.2913  -20.0787   11.0081 H   0  0  0  0  0  0
   34.4809  -14.2996   13.5960 H   0  0  0  0  0  0
   35.3033  -14.0048   15.1655 H   0  0  0  0  0  0
   36.7790  -13.5687   13.5234 H   0  0  0  0  0  0
   39.5514  -17.6218   13.0494 H   0  0  0  0  0  0
   36.8870  -20.0726   13.7450 H   0  0  0  0  0  0
   38.4830  -19.3780   13.3013 H   0  0  0  0  0  0
   37.0459  -19.0553   12.2731 H   0  0  0  0  0  0
   40.6261  -11.9676   11.7755 H   0  0  0  0  0  0
   42.3030  -11.6925   11.0519 H   0  0  0  0  0  0
   43.9538  -12.4708   10.5051 H   0  0  0  0  0  0
   42.8765  -19.0686   11.4539 H   0  0  0  0  0  0
   45.7252  -15.9077   10.9946 H   0  0  0  0  0  0
  1  8  1  0  0  0
  1 28  1  0  0  0
  1 29  1  0  0  0
  1 30  1  0  0  0
  2  8  1  0  0  0
  2  9  1  0  0  0
  2 31  1  0  0  0
  2 32  1  0  0  0
  3 12  2  0  0  0
  3 13  1  0  0  0
  3 22  1  0  0  0
  4 11  2  0  0  0
  4 14  1  0  0  0
  4 15  1  0  0  0
  5 17  1  0  0  0
  5 18  2  0  0  0
  5 33  1  0  0  0
  6 17  2  0  0  0
  6 20  1  0  0  0
  6 21  1  0  0  0
  7 25  2  0  0  0
  7 26  1  0  0  0
  7 34  1  0  0  0
  9 10  1  0  0  0
  9 35  1  0  0  0
  9 36  1  0  0  0
 10 11  1  0  0  0
 11 12  1  0  0  0
 12 37  1  0  0  0
 13 14  2  0  0  0
 13 17  1  0  0  0
 14 38  1  0  0  0
 15 16  1  0  0  0
 16 39  1  0  0  0
 16 40  1  0  0  0
 16 41  1  0  0  0
 18 19  1  0  0  0
 18 24  1  0  0  0
 19 20  2  0  0  0
 20 23  1  0  0  0
 21 22  2  0  0  0
 21 42  1  0  0  0
 23 43  1  0  0  0
 23 44  1  0  0  0
 24 25  1  0  0  0
 24 27  1  0  0  0
 25 45  1  0  0  0
 26 27  2  0  0  0
 27 46  1  0  0  0
M  END
> <s_m_source_file>
../3h9o_ligand.sdf

> <i_m_source_file_index>
1

> <s_epik_input>
W0NIM11PW0NIMl1bQ0gyXU9jKFtjSF0xKWMoT1tDSDNdKVtjSF1jKGMxMiljM2MoW2NIXW4yKWMoW05IMl0pbmMoW2NIXTMpLW40W2NIXVtjSF1uW2NIXTQ=

> <s_epik_cmdline>
J2VwaWtfYXBwJywgJy1pbWFlJywgJ2xpZ2FuZF9wcm8ubWFlJywgJy1vbWFlJywgJ2xpZ2FuZF9wcmVwLm1hZScsICctbXMnLCAnMScsICctcGgnLCAnNycsICctcGh0JywgJzAuNScsICctbnQn

> <r_lp_tautomer_probability>
1

> <r_epik_Ionization_Penalty>
  0.0019

> <r_epik_Ionization_Penalty_Charging>
  0.0018

> <r_epik_Ionization_Penalty_Neutral>
  0.0001

> <r_epik_State_Penalty>
 -0.0000

> <r_epik_Charging_Adjusted_Penalty>
0.00184502197096123

> <i_epik_Tot_Q>
0

> <i_epik_Tot_abs_Q>
0

$$$$
