3hab_ligand
                    3D
 Schrodinger Suite 2020-3.
 44 47  0  0  1  0            999 V2000
   33.3860   48.5360   36.0170 F   0  0  0  0  0  0
   34.6090   49.0840   36.0900 C   0  0  0  0  0  0
   34.7850   50.4070   36.4800 C   0  0  0  0  0  0
   36.0930   50.9160   36.5470 C   0  0  0  0  0  0
   36.2570   52.1780   36.9470 F   0  0  0  0  0  0
   35.7150   48.3080   35.7620 C   0  0  0  0  0  0
   35.5140   47.0440   35.3790 F   0  0  0  0  0  0
   37.0080   48.8210   35.8210 C   0  0  0  0  0  0
   37.2130   50.1360   36.2340 C   0  0  0  0  0  0
   38.6040   50.7220   36.2880 C   0  0  1  0  0  0
   39.6350   49.8630   37.0550 C   0  0  0  0  0  0
   39.0690   51.0080   34.8460 C   0  0  1  0  0  0
   38.0580   51.8180   34.1530 N   0  3  0  0  0  0
   40.4330   51.7170   34.7860 C   0  0  0  0  0  0
   41.3980   51.1280   35.7180 N   0  0  0  0  0  0
   41.0580   50.3040   36.7480 C   0  0  0  0  0  0
   42.1650   49.9420   37.4510 N   0  0  0  0  0  0
   42.7350   51.3230   35.7220 C   0  0  0  0  0  0
   43.6550   52.0600   34.9470 C   0  0  0  0  0  0
   45.0340   52.0080   35.2730 C   0  0  0  0  0  0
   43.2500   50.5290   36.8680 C   0  0  0  0  0  0
   44.6220   50.5280   37.1460 C   0  0  0  0  0  0
   45.5290   51.2590   36.3640 C   0  0  0  0  0  0
   47.1330   51.2370   36.7150 S   0  0  0  0  0  0
   47.8850   51.0310   35.5090 O   0  0  0  0  0  0
   47.4370   52.5730   37.1940 O   0  0  0  0  0  0
   47.5060   50.1380   37.8750 C   0  0  0  0  0  0
   33.9288   51.0343   36.7278 H   0  0  0  0  0  0
   37.8573   48.1960   35.5450 H   0  0  0  0  0  0
   38.5199   51.6504   36.8720 H   0  0  0  0  0  0
   39.4631   49.9629   38.1369 H   0  0  0  0  0  0
   39.5242   48.8086   36.7620 H   0  0  0  0  0  0
   39.1560   50.0508   34.3111 H   0  0  0  0  0  0
   37.0848   51.3073   34.1985 H   0  0  0  0  0  0
   38.3530   51.9519   33.1018 H   0  0  0  0  0  0
   37.9792   52.8012   34.6399 H   0  0  0  0  0  0
   40.8439   51.6360   33.7688 H   0  0  0  0  0  0
   40.3065   52.7781   35.0470 H   0  0  0  0  0  0
   43.3096   52.6627   34.1070 H   0  0  0  0  0  0
   45.7393   52.5673   34.6583 H   0  0  0  0  0  0
   44.9941   49.9461   37.9892 H   0  0  0  0  0  0
   47.2748   49.1265   37.5097 H   0  0  0  0  0  0
   46.9155   50.3450   38.7797 H   0  0  0  0  0  0
   48.5778   50.2058   38.1132 H   0  0  0  0  0  0
  1  2  1  0  0  0
  2  3  2  0  0  0
  2  6  1  0  0  0
  3  4  1  0  0  0
  3 28  1  0  0  0
  4  5  1  0  0  0
  4  9  2  0  0  0
  6  7  1  0  0  0
  6  8  2  0  0  0
  8  9  1  0  0  0
  8 29  1  0  0  0
  9 10  1  0  0  0
 10 11  1  0  0  0
 10 12  1  0  0  0
 10 30  1  0  0  0
 11 16  1  0  0  0
 11 31  1  0  0  0
 11 32  1  0  0  0
 12 13  1  0  0  0
 12 14  1  0  0  0
 12 33  1  0  0  0
 13 34  1  0  0  0
 13 35  1  0  0  0
 13 36  1  0  0  0
 14 15  1  0  0  0
 14 37  1  0  0  0
 14 38  1  0  0  0
 15 16  1  0  0  0
 15 18  1  0  0  0
 16 17  2  0  0  0
 17 21  1  0  0  0
 18 19  1  0  0  0
 18 21  2  0  0  0
 19 20  2  0  0  0
 19 39  1  0  0  0
 20 23  1  0  0  0
 20 40  1  0  0  0
 21 22  1  0  0  0
 22 23  2  0  0  0
 22 41  1  0  0  0
 23 24  1  0  0  0
 24 25  2  0  0  0
 24 26  2  0  0  0
 24 27  1  0  0  0
 27 42  1  0  0  0
 27 43  1  0  0  0
 27 44  1  0  0  0
M  CHG  1  13   1
M  END
> <s_m_source_file>
../3hab_ligand.sdf

> <i_m_source_file_index>
1

> <s_epik_input>
RmMxW2NIXWMoRiljKFtjSF1jMUYpW0NASF0oW0NAQEhdKFtOSDMrXSlbQ0gyXTIpW0NIMl1jKG4yMyluYzRjM1tjSF1bY0hdYyhbY0hdNClTKD1PKSg9TylbQ0gzXQ==

> <s_epik_cmdline>
J2VwaWtfYXBwJywgJy1pbWFlJywgJ2xpZ2FuZF9wcm8ubWFlJywgJy1vbWFlJywgJ2xpZ2FuZF9wcmVwLm1hZScsICctbXMnLCAnMScsICctcGgnLCAnNycsICctcGh0JywgJzAuNScsICctbnQn

> <r_lp_tautomer_probability>
1

> <r_epik_Ionization_Penalty>
  0.0264

> <r_epik_Ionization_Penalty_Charging>
  0.0247

> <r_epik_Ionization_Penalty_Neutral>
  0.0017

> <r_epik_State_Penalty>
 -0.0000

> <r_epik_Charging_Adjusted_Penalty>
0.0247040207632623

> <i_epik_Tot_Q>
1

> <i_epik_Tot_abs_Q>
1

$$$$
