3hau_ligand
                    3D
 Schrodinger Suite 2020-3.
123122  0  0  1  0            999 V2000
    4.3590   -9.0510   16.5790 C   0  0  0  0  0  0
    3.5360   -8.6630   17.3910 O   0  0  0  0  0  0
    4.0380   -9.7770   15.3070 C   0  0  0  0  0  0
    5.6480   -8.7830   16.7840 N   0  0  0  0  0  0
    6.1500   -8.1730   17.9980 C   0  0  2  0  0  0
    6.7200   -6.7430   17.8420 C   0  0  0  0  0  0
    6.9940   -6.0890   18.8220 O   0  0  0  0  0  0
    7.2440   -9.0470   18.6230 C   0  0  2  0  0  0
    8.3370   -9.1290   17.7190 O   0  0  0  0  0  0
    6.6910  -10.4370   19.0040 C   0  0  0  0  0  0
    6.8250   -6.2590   16.6150 N   0  0  0  0  0  0
    7.3550   -4.9590   16.3150 C   0  0  2  0  0  0
    6.2860   -4.1460   15.6020 C   0  0  0  0  0  0
    6.1910   -4.1530   14.3740 O   0  0  0  0  0  0
    8.6580   -5.0070   15.4960 C   0  0  2  0  0  0
    9.6900   -5.9750   16.0690 C   0  0  0  0  0  0
    9.2760   -3.6320   15.3430 C   0  0  0  0  0  0
   10.2100   -5.7590   17.4820 C   0  0  0  0  0  0
    5.5230   -3.3900   16.3580 N   0  0  0  0  0  0
    4.3250   -2.7340   15.8150 C   0  0  2  0  0  0
    4.5040   -1.2350   15.6840 C   0  0  0  0  0  0
    3.0720   -3.0580   16.6060 C   0  0  0  0  0  0
    2.7930   -4.5580   16.8220 C   0  0  0  0  0  0
    2.7170   -5.4150   15.5620 C   0  0  0  0  0  0
    1.6300   -4.9130   14.6200 C   0  0  0  0  0  0
    5.7570   -0.9190   14.9920 N   0  3  0  0  0  0
    5.7310    0.3480   14.1900 C   0  0  2  0  0  0
    4.6690    0.2930   13.1020 C   0  0  0  0  0  0
    4.4090   -0.7400   12.4990 O   0  0  0  0  0  0
    7.1210    0.5860   13.6090 C   0  0  0  0  0  0
    7.3200    1.8040   12.7260 C   0  0  0  0  0  0
    7.4990    1.3860   11.2620 C   0  0  0  0  0  0
    8.6030    0.3820   10.8540 C   0  0  0  0  0  0
    4.0730    1.4460   12.7900 N   0  0  0  0  0  0
    3.1490    1.5280   11.6630 C   0  0  2  0  0  0
    3.2010    2.9260   11.0550 C   0  0  0  0  0  0
    3.3130    3.9610   11.7490 O   0  0  0  0  0  0
    1.7600    1.1810   12.1140 C   0  0  0  0  0  0
    0.6520    1.3450   11.0580 C   0  0  0  0  0  0
    0.0960    2.7390   10.9200 C   0  0  0  0  0  0
    0.1320    3.4910   11.8720 O   0  0  0  0  0  0
   -0.4340    3.0770    9.7490 N   0  0  0  0  0  0
    3.1390    2.9670    9.7320 N   0  0  0  0  0  0
    3.2430    4.1890    9.0110 C   0  0  2  0  0  0
    2.1500    4.3280    8.0120 C   0  0  0  0  0  0
    1.8330    3.3600    7.3040 O   0  0  0  0  0  0
    4.5710    4.2380    8.3200 C   0  0  0  0  0  0
    5.7320    4.5570    9.2400 C   0  0  0  0  0  0
    6.9120    3.7380    8.8010 C   0  0  0  0  0  0
    8.1980    4.3860    8.6220 N   0  0  0  0  0  0
    8.4440    5.4970    7.9080 C   0  0  0  0  0  0
    7.4810    6.2230    7.3530 N   0  0  0  0  0  0
    9.6890    5.9190    7.7620 N   0  3  0  0  0  0
    1.4400    5.4610    8.0880 N   0  0  0  0  0  0
    2.9525   -9.9436   15.2438 H   0  0  0  0  0  0
    4.5589  -10.7458   15.2963 H   0  0  0  0  0  0
    4.3671   -9.1742   14.4477 H   0  0  0  0  0  0
    6.3431   -9.0489   15.9740 H   0  0  0  0  0  0
    5.2247   -8.1300   18.5913 H   0  0  0  0  0  0
    7.6768   -8.5798   19.5199 H   0  0  0  0  0  0
    8.8275   -8.2105   17.3643 H   0  0  0  0  0  0
    5.8498  -10.3180   19.7027 H   0  0  0  0  0  0
    7.4849  -11.0287   19.4833 H   0  0  0  0  0  0
    6.3443  -10.9547   18.0975 H   0  0  0  0  0  0
    6.4785   -6.9129   15.8012 H   0  0  0  0  0  0
    7.5917   -4.5311   17.3003 H   0  0  0  0  0  0
    8.3783   -5.3737   14.4974 H   0  0  0  0  0  0
    9.2697   -6.9914   16.0857 H   0  0  0  0  0  0
   10.5932   -5.9620   15.4413 H   0  0  0  0  0  0
    8.5290   -2.9382   14.9300 H   0  0  0  0  0  0
   10.1377   -3.6911   14.6619 H   0  0  0  0  0  0
    9.6099   -3.2686   16.3261 H   0  0  0  0  0  0
   10.9403   -6.5439   17.7279 H   0  0  0  0  0  0
    9.3711   -5.8032   18.1922 H   0  0  0  0  0  0
   10.6946   -4.7737   17.5477 H   0  0  0  0  0  0
    5.7943   -3.2519   17.4150 H   0  0  0  0  0  0
    4.2214   -3.1678   14.8095 H   0  0  0  0  0  0
    3.6657   -0.8145   15.1092 H   0  0  0  0  0  0
    4.5272   -0.7796   16.6850 H   0  0  0  0  0  0
    3.1441   -2.6086   17.6074 H   0  0  0  0  0  0
    2.1934   -2.6512   16.0840 H   0  0  0  0  0  0
    3.5922   -4.9944   17.4391 H   0  0  0  0  0  0
    1.8266   -4.6814   17.3327 H   0  0  0  0  0  0
    3.6821   -5.3791   15.0354 H   0  0  0  0  0  0
    2.4889   -6.4548   15.8390 H   0  0  0  0  0  0
    1.5995   -5.5492   13.7232 H   0  0  0  0  0  0
    1.8494   -3.8758   14.3265 H   0  0  0  0  0  0
    0.6562   -4.9515   15.1302 H   0  0  0  0  0  0
    6.5659   -0.8105   15.7295 H   0  0  0  0  0  0
    6.0048   -1.7313   14.2929 H   0  0  0  0  0  0
    5.4592    1.1804   14.8558 H   0  0  0  0  0  0
    7.8457    0.7031   14.4282 H   0  0  0  0  0  0
    7.4092   -0.2723   12.9844 H   0  0  0  0  0  0
    6.4412    2.4609   12.8040 H   0  0  0  0  0  0
    8.2168    2.3510   13.0525 H   0  0  0  0  0  0
    6.5742    0.9131   10.9000 H   0  0  0  0  0  0
    7.7200    2.2740   10.6515 H   0  0  0  0  0  0
    8.5643    0.2161    9.7673 H   0  0  0  0  0  0
    8.4419   -0.5725   11.3766 H   0  0  0  0  0  0
    9.5877    0.7885   11.1281 H   0  0  0  0  0  0
    4.2852    2.3409   13.3935 H   0  0  0  0  0  0
    3.4663    0.7836   10.9179 H   0  0  0  0  0  0
    1.7296    0.1279   12.4303 H   0  0  0  0  0  0
    1.4770    1.8259   12.9590 H   0  0  0  0  0  0
    1.0439    1.0656   10.0689 H   0  0  0  0  0  0
   -0.1971    0.6939   11.3132 H   0  0  0  0  0  0
   -0.4399    2.3551    8.9191 H   0  0  0  0  0  0
   -0.8668    4.0787    9.6098 H   0  0  0  0  0  0
    3.0028    2.0190    9.1909 H   0  0  0  0  0  0
    3.1417    4.9882    9.7600 H   0  0  0  0  0  0
    4.7806    3.2616    7.8588 H   0  0  0  0  0  0
    4.5507    5.0145    7.5412 H   0  0  0  0  0  0
    5.9685    5.6292    9.1737 H   0  0  0  0  0  0
    5.4593    4.3051   10.2754 H   0  0  0  0  0  0
    7.1052    2.9473    9.5409 H   0  0  0  0  0  0
    6.6980    3.2811    7.8236 H   0  0  0  0  0  0
    9.0964    3.9661    9.0979 H   0  0  0  0  0  0
    6.4310    5.9095    7.4492 H   0  0  0  0  0  0
    7.7331    7.1380    6.7969 H   0  0  0  0  0  0
   10.5186    5.3486    8.2052 H   0  0  0  0  0  0
    1.7803    6.2808    8.7377 H   0  0  0  0  0  0
    0.5165    5.5718    7.5008 H   0  0  0  0  0  0
    9.8948    6.8403    7.1974 H   0  0  0  0  0  0
  1  2  2  0  0  0
  1  3  1  0  0  0
  1  4  1  0  0  0
  3 55  1  0  0  0
  3 56  1  0  0  0
  3 57  1  0  0  0
  4  5  1  0  0  0
  4 58  1  0  0  0
  5  6  1  0  0  0
  5  8  1  0  0  0
  5 59  1  0  0  0
  6  7  2  0  0  0
  6 11  1  0  0  0
  8  9  1  0  0  0
  8 10  1  0  0  0
  8 60  1  0  0  0
  9 61  1  0  0  0
 10 62  1  0  0  0
 10 63  1  0  0  0
 10 64  1  0  0  0
 11 12  1  0  0  0
 11 65  1  0  0  0
 12 13  1  0  0  0
 12 15  1  0  0  0
 12 66  1  0  0  0
 13 14  2  0  0  0
 13 19  1  0  0  0
 15 16  1  0  0  0
 15 17  1  0  0  0
 15 67  1  0  0  0
 16 18  1  0  0  0
 16 68  1  0  0  0
 16 69  1  0  0  0
 17 70  1  0  0  0
 17 71  1  0  0  0
 17 72  1  0  0  0
 18 73  1  0  0  0
 18 74  1  0  0  0
 18 75  1  0  0  0
 19 20  1  0  0  0
 19 76  1  0  0  0
 20 21  1  0  0  0
 20 22  1  0  0  0
 20 77  1  0  0  0
 21 26  1  0  0  0
 21 78  1  0  0  0
 21 79  1  0  0  0
 22 23  1  0  0  0
 22 80  1  0  0  0
 22 81  1  0  0  0
 23 24  1  0  0  0
 23 82  1  0  0  0
 23 83  1  0  0  0
 24 25  1  0  0  0
 24 84  1  0  0  0
 24 85  1  0  0  0
 25 86  1  0  0  0
 25 87  1  0  0  0
 25 88  1  0  0  0
 26 27  1  0  0  0
 26 89  1  0  0  0
 26 90  1  0  0  0
 27 28  1  0  0  0
 27 30  1  0  0  0
 27 91  1  0  0  0
 28 29  2  0  0  0
 28 34  1  0  0  0
 30 31  1  0  0  0
 30 92  1  0  0  0
 30 93  1  0  0  0
 31 32  1  0  0  0
 31 94  1  0  0  0
 31 95  1  0  0  0
 32 33  1  0  0  0
 32 96  1  0  0  0
 32 97  1  0  0  0
 33 98  1  0  0  0
 33 99  1  0  0  0
 33100  1  0  0  0
 34 35  1  0  0  0
 34101  1  0  0  0
 35 36  1  0  0  0
 35 38  1  0  0  0
 35102  1  0  0  0
 36 37  2  0  0  0
 36 43  1  0  0  0
 38 39  1  0  0  0
 38103  1  0  0  0
 38104  1  0  0  0
 39 40  1  0  0  0
 39105  1  0  0  0
 39106  1  0  0  0
 40 41  2  0  0  0
 40 42  1  0  0  0
 42107  1  0  0  0
 42108  1  0  0  0
 43 44  1  0  0  0
 43109  1  0  0  0
 44 45  1  0  0  0
 44 47  1  0  0  0
 44110  1  0  0  0
 45 46  2  0  0  0
 45 54  1  0  0  0
 47 48  1  0  0  0
 47111  1  0  0  0
 47112  1  0  0  0
 48 49  1  0  0  0
 48113  1  0  0  0
 48114  1  0  0  0
 49 50  1  0  0  0
 49115  1  0  0  0
 49116  1  0  0  0
 50 51  1  0  0  0
 50117  1  0  0  0
 51 52  1  0  0  0
 51 53  2  0  0  0
 52118  1  0  0  0
 52119  1  0  0  0
 53120  1  0  0  0
 53123  1  0  0  0
 54121  1  0  0  0
 54122  1  0  0  0
M  CHG  2  26   1  53   1
M  END
> <s_m_source_file>
../3hau_ligand.sdf

> <i_m_source_file_index>
1

> <s_epik_input>
Tz1DKFtDSDNdKVtOSF1bQ0BASF0oW0NASF0oW09IXSlbQ0gzXSlDKD1PKVtOSF1bQ0BASF0oW0NAQEhdKFtDSDNdKVtDSDJdW0NIM10pQyg9TylbTkhdW0NAQEhdKFtDSDJdW0NIMl1bQ0gyXVtDSDNdKVtDSDJdW05IMitdW0NAQEhdKFtDSDJdW0NIMl1bQ0gyXVtDSDNdKUMoPU8pW05IXVtDQEBIXShbQ0gyXVtDSDJdQyg9TylbTkgyXSlDKD1PKVtOSF1bQ0BIXShDKD1PKVtOSDJdKVtDSDJdW0NIMl1bQ0gyXVtOSF0vQyhbTkgyXSk9TlxbSF0=

> <s_epik_cmdline>
J2VwaWtfYXBwJywgJy1pbWFlJywgJ2xpZ2FuZF9wcm8ubWFlJywgJy1vbWFlJywgJ2xpZ2FuZF9wcmVwLm1hZScsICctbXMnLCAnMScsICctcGgnLCAnNycsICctcGh0JywgJzAuNScsICctbnQn

> <r_epik_Ionization_Penalty>
  0.1921

> <r_epik_Ionization_Penalty_Charging>
  0.1921

> <r_epik_Ionization_Penalty_Neutral>
  0.0000

> <r_epik_State_Penalty>
  0.1818

> <r_epik_Charging_Adjusted_Penalty>
0.37396405168134

> <i_epik_Tot_Q>
2

> <i_epik_Tot_abs_Q>
2

> <s_epik_Chemistry_Notes>
This compound has an imine and may undergo hydrolysis.

$$$$
