3haw_ligand
                    3D
 Schrodinger Suite 2020-3.
123122  0  0  1  0            999 V2000
    4.2490   -8.7840   16.3760 C   0  0  0  0  0  0
    3.3990   -8.4190   17.1880 O   0  0  0  0  0  0
    3.8520   -9.2350   14.9850 C   0  0  0  0  0  0
    5.5410   -8.5260   16.5750 N   0  0  0  0  0  0
    6.1130   -7.9230   17.8040 C   0  0  2  0  0  0
    6.7580   -6.5050   17.6600 C   0  0  0  0  0  0
    7.0490   -5.8530   18.6280 O   0  0  0  0  0  0
    7.1630   -8.8500   18.4490 C   0  0  2  0  0  0
    8.2460   -9.0350   17.5500 O   0  0  0  0  0  0
    6.5680  -10.2270   18.8310 C   0  0  0  0  0  0
    6.9280   -6.0360   16.4470 N   0  0  0  0  0  0
    7.4710   -4.7190   16.1510 C   0  0  2  0  0  0
    6.4280   -3.8420   15.4740 C   0  0  0  0  0  0
    6.3260   -3.7520   14.2700 O   0  0  0  0  0  0
    8.7570   -4.7590   15.3400 C   0  0  2  0  0  0
    9.7530   -5.7560   15.8940 C   0  0  0  0  0  0
    9.3760   -3.3960   15.2740 C   0  0  0  0  0  0
   10.2250   -5.6300   17.3620 C   0  0  0  0  0  0
    5.5860   -3.2280   16.2640 N   0  0  0  0  0  0
    4.4200   -2.4680   15.7050 C   0  0  2  0  0  0
    4.6020   -0.9780   15.4940 C   0  0  0  0  0  0
    3.1150   -2.8240   16.4090 C   0  0  0  0  0  0
    2.8250   -4.2810   16.6900 C   0  0  0  0  0  0
    2.6610   -5.1210   15.4300 C   0  0  0  0  0  0
    1.4880   -4.5600   14.6520 C   0  0  0  0  0  0
    5.8840   -0.6630   14.8790 N   0  3  0  0  0  0
    5.8850    0.5090   14.0120 C   0  0  2  0  0  0
    4.8010    0.3940   12.9520 C   0  0  0  0  0  0
    4.5900   -0.6530   12.3180 O   0  0  0  0  0  0
    7.2780    0.7310   13.4310 C   0  0  0  0  0  0
    7.4050    1.9410   12.4900 C   0  0  0  0  0  0
    7.3070    1.5460   11.0180 C   0  0  0  0  0  0
    8.5360    0.8160   10.5150 C   0  0  0  0  0  0
    4.1500    1.4980   12.6540 N   0  0  0  0  0  0
    3.1490    1.5690   11.5620 C   0  0  2  0  0  0
    3.2010    2.9630   10.9130 C   0  0  0  0  0  0
    3.2910    4.0260   11.5790 O   0  0  0  0  0  0
    1.7760    1.1520   12.0340 C   0  0  0  0  0  0
    0.6880    1.3080   11.0050 C   0  0  0  0  0  0
    0.1140    2.7020   10.9280 C   0  0  0  0  0  0
    0.1320    3.4220   11.8920 O   0  0  0  0  0  0
   -0.4440    3.0600    9.7970 N   0  0  0  0  0  0
    3.0930    2.9790    9.5900 N   0  0  0  0  0  0
    3.2080    4.2080    8.8410 C   0  0  2  0  0  0
    2.0210    4.3120    7.9630 C   0  0  0  0  0  0
    1.6630    3.3380    7.2640 O   0  0  0  0  0  0
    4.4990    4.2280    7.9810 C   0  0  0  0  0  0
    5.6660    3.3520    8.4230 C   0  0  0  0  0  0
    7.0650    3.9930    8.3100 C   0  0  0  0  0  0
    7.1850    5.0010    7.2470 N   0  0  0  0  0  0
    8.3270    5.4940    6.7520 C   0  0  0  0  0  0
    9.5000    5.0860    7.1910 N   0  3  0  0  0  0
    8.2860    6.4280    5.8040 N   0  0  0  0  0  0
    1.3540    5.4600    7.9920 N   0  0  0  0  0  0
    2.7671   -9.4138   14.9532 H   0  0  0  0  0  0
    4.3843  -10.1646   14.7351 H   0  0  0  0  0  0
    4.1164   -8.4540   14.2569 H   0  0  0  0  0  0
    6.2002   -8.7968   15.7371 H   0  0  0  0  0  0
    5.1932   -7.8313   18.4003 H   0  0  0  0  0  0
    7.5927   -8.3644   19.3376 H   0  0  0  0  0  0
    8.7968   -8.1638   17.1658 H   0  0  0  0  0  0
    5.7289  -10.0833   19.5276 H   0  0  0  0  0  0
    7.3435  -10.8406   19.3127 H   0  0  0  0  0  0
    6.2088  -10.7355   17.9241 H   0  0  0  0  0  0
    6.6314   -6.7058   15.6264 H   0  0  0  0  0  0
    7.7211   -4.3189   17.1447 H   0  0  0  0  0  0
    8.4985   -5.0780   14.3195 H   0  0  0  0  0  0
    9.3299   -6.7695   15.8329 H   0  0  0  0  0  0
   10.6823   -5.7107   15.3072 H   0  0  0  0  0  0
    8.6446   -2.6803   14.8706 H   0  0  0  0  0  0
   10.2594   -3.4258   14.6193 H   0  0  0  0  0  0
    9.6784   -3.0814   16.2837 H   0  0  0  0  0  0
   10.9417   -6.4336   17.5870 H   0  0  0  0  0  0
    9.3582   -5.7129   18.0342 H   0  0  0  0  0  0
   10.7107   -4.6539   17.5085 H   0  0  0  0  0  0
    5.7418   -3.2742   17.3519 H   0  0  0  0  0  0
    4.3777   -2.8362   14.6693 H   0  0  0  0  0  0
    3.8052   -0.6008   14.8361 H   0  0  0  0  0  0
    4.5518   -0.4615   16.4639 H   0  0  0  0  0  0
    3.0845   -2.3351   17.3939 H   0  0  0  0  0  0
    2.2650   -2.4790   15.8020 H   0  0  0  0  0  0
    3.6533   -4.7145   17.2696 H   0  0  0  0  0  0
    1.8914   -4.3647   17.2657 H   0  0  0  0  0  0
    3.5807   -5.0643   14.8293 H   0  0  0  0  0  0
    2.4694   -6.1675   15.7094 H   0  0  0  0  0  0
    1.3431   -5.1471   13.7331 H   0  0  0  0  0  0
    1.6904   -3.5113   14.3890 H   0  0  0  0  0  0
    0.5790   -4.6144   15.2691 H   0  0  0  0  0  0
    6.6303   -0.4723   15.6642 H   0  0  0  0  0  0
    6.2118   -1.5110   14.2597 H   0  0  0  0  0  0
    5.6344    1.3754   14.6417 H   0  0  0  0  0  0
    7.9952    0.8919   14.2494 H   0  0  0  0  0  0
    7.5778   -0.1531   12.8492 H   0  0  0  0  0  0
    6.5986    2.6580   12.7038 H   0  0  0  0  0  0
    8.3791    2.4272   12.6472 H   0  0  0  0  0  0
    6.4425    0.8814   10.8735 H   0  0  0  0  0  0
    7.1816    2.4496   10.4034 H   0  0  0  0  0  0
    8.4021    0.5609    9.4534 H   0  0  0  0  0  0
    8.6794   -0.1055   11.0983 H   0  0  0  0  0  0
    9.4186    1.4627   10.6282 H   0  0  0  0  0  0
    4.3743    2.3926   13.2535 H   0  0  0  0  0  0
    3.4143    0.8179   10.8034 H   0  0  0  0  0  0
    1.7940    0.0905   12.3220 H   0  0  0  0  0  0
    1.4855    1.7625   12.9017 H   0  0  0  0  0  0
    1.0875    1.0651   10.0093 H   0  0  0  0  0  0
   -0.1423    0.6269   11.2431 H   0  0  0  0  0  0
   -0.4388    2.3716    8.9390 H   0  0  0  0  0  0
   -0.9174    4.0487    9.7060 H   0  0  0  0  0  0
    2.9121    2.0296    9.0647 H   0  0  0  0  0  0
    3.2162    5.0276    9.5746 H   0  0  0  0  0  0
    4.2637    3.8968    6.9588 H   0  0  0  0  0  0
    4.9039    5.2503    7.9511 H   0  0  0  0  0  0
    5.5379    3.0766    9.4802 H   0  0  0  0  0  0
    5.6941    2.4407    7.8076 H   0  0  0  0  0  0
    7.3169    4.4928    9.2570 H   0  0  0  0  0  0
    7.8101    3.2121    8.0981 H   0  0  0  0  0  0
    6.2806    5.4207    6.7824 H   0  0  0  0  0  0
    9.5566    4.3153    7.9738 H   0  0  0  0  0  0
    7.3170    6.7830    5.4232 H   0  0  0  0  0  0
    9.2211    6.8447    5.4016 H   0  0  0  0  0  0
    1.7101    6.2872    8.6236 H   0  0  0  0  0  0
    0.4454    5.5837    7.3844 H   0  0  0  0  0  0
   10.4230    5.5160    6.7748 H   0  0  0  0  0  0
  1  2  2  0  0  0
  1  3  1  0  0  0
  1  4  1  0  0  0
  3 55  1  0  0  0
  3 56  1  0  0  0
  3 57  1  0  0  0
  4  5  1  0  0  0
  4 58  1  0  0  0
  5  6  1  0  0  0
  5  8  1  0  0  0
  5 59  1  0  0  0
  6  7  2  0  0  0
  6 11  1  0  0  0
  8  9  1  0  0  0
  8 10  1  0  0  0
  8 60  1  0  0  0
  9 61  1  0  0  0
 10 62  1  0  0  0
 10 63  1  0  0  0
 10 64  1  0  0  0
 11 12  1  0  0  0
 11 65  1  0  0  0
 12 13  1  0  0  0
 12 15  1  0  0  0
 12 66  1  0  0  0
 13 14  2  0  0  0
 13 19  1  0  0  0
 15 16  1  0  0  0
 15 17  1  0  0  0
 15 67  1  0  0  0
 16 18  1  0  0  0
 16 68  1  0  0  0
 16 69  1  0  0  0
 17 70  1  0  0  0
 17 71  1  0  0  0
 17 72  1  0  0  0
 18 73  1  0  0  0
 18 74  1  0  0  0
 18 75  1  0  0  0
 19 20  1  0  0  0
 19 76  1  0  0  0
 20 21  1  0  0  0
 20 22  1  0  0  0
 20 77  1  0  0  0
 21 26  1  0  0  0
 21 78  1  0  0  0
 21 79  1  0  0  0
 22 23  1  0  0  0
 22 80  1  0  0  0
 22 81  1  0  0  0
 23 24  1  0  0  0
 23 82  1  0  0  0
 23 83  1  0  0  0
 24 25  1  0  0  0
 24 84  1  0  0  0
 24 85  1  0  0  0
 25 86  1  0  0  0
 25 87  1  0  0  0
 25 88  1  0  0  0
 26 27  1  0  0  0
 26 89  1  0  0  0
 26 90  1  0  0  0
 27 28  1  0  0  0
 27 30  1  0  0  0
 27 91  1  0  0  0
 28 29  2  0  0  0
 28 34  1  0  0  0
 30 31  1  0  0  0
 30 92  1  0  0  0
 30 93  1  0  0  0
 31 32  1  0  0  0
 31 94  1  0  0  0
 31 95  1  0  0  0
 32 33  1  0  0  0
 32 96  1  0  0  0
 32 97  1  0  0  0
 33 98  1  0  0  0
 33 99  1  0  0  0
 33100  1  0  0  0
 34 35  1  0  0  0
 34101  1  0  0  0
 35 36  1  0  0  0
 35 38  1  0  0  0
 35102  1  0  0  0
 36 37  2  0  0  0
 36 43  1  0  0  0
 38 39  1  0  0  0
 38103  1  0  0  0
 38104  1  0  0  0
 39 40  1  0  0  0
 39105  1  0  0  0
 39106  1  0  0  0
 40 41  2  0  0  0
 40 42  1  0  0  0
 42107  1  0  0  0
 42108  1  0  0  0
 43 44  1  0  0  0
 43109  1  0  0  0
 44 45  1  0  0  0
 44 47  1  0  0  0
 44110  1  0  0  0
 45 46  2  0  0  0
 45 54  1  0  0  0
 47 48  1  0  0  0
 47111  1  0  0  0
 47112  1  0  0  0
 48 49  1  0  0  0
 48113  1  0  0  0
 48114  1  0  0  0
 49 50  1  0  0  0
 49115  1  0  0  0
 49116  1  0  0  0
 50 51  1  0  0  0
 50117  1  0  0  0
 51 52  2  0  0  0
 51 53  1  0  0  0
 52118  1  0  0  0
 52123  1  0  0  0
 53119  1  0  0  0
 53120  1  0  0  0
 54121  1  0  0  0
 54122  1  0  0  0
M  CHG  2  26   1  52   1
M  END
> <s_m_source_file>
../3haw_ligand.sdf

> <i_m_source_file_index>
1

> <s_epik_input>
Tz1DKFtDSDNdKVtOSF1bQ0BASF0oW0NASF0oW09IXSlbQ0gzXSlDKD1PKVtOSF1bQ0BASF0oW0NAQEhdKFtDSDNdKVtDSDJdW0NIM10pQyg9TylbTkhdW0NAQEhdKFtDSDJdW0NIMl1bQ0gyXVtDSDNdKVtDSDJdW05IMitdW0NAQEhdKFtDSDJdW0NIMl1bQ0gyXVtDSDNdKUMoPU8pW05IXVtDQEBIXShbQ0gyXVtDSDJdQyg9TylbTkgyXSlDKD1PKVtOSF1bQ0BIXShDKD1PKVtOSDJdKVtDSDJdW0NIMl1bQ0gyXVtOSF0vQyg9TlxbSF0pW05IMl0=

> <s_epik_cmdline>
J2VwaWtfYXBwJywgJy1pbWFlJywgJ2xpZ2FuZF9wcm8ubWFlJywgJy1vbWFlJywgJ2xpZ2FuZF9wcmVwLm1hZScsICctbXMnLCAnMScsICctcGgnLCAnNycsICctcGh0JywgJzAuNScsICctbnQn

> <r_epik_Ionization_Penalty>
  0.1922

> <r_epik_Ionization_Penalty_Charging>
  0.1922

> <r_epik_Ionization_Penalty_Neutral>
  0.0000

> <r_epik_State_Penalty>
  0.1818

> <r_epik_Charging_Adjusted_Penalty>
0.373976833447039

> <i_epik_Tot_Q>
2

> <i_epik_Tot_abs_Q>
2

> <s_epik_Chemistry_Notes>
This compound has an imine and may undergo hydrolysis.

$$$$
