3hbo_ligand
                    3D
 Schrodinger Suite 2020-3.
123122  0  0  1  0            999 V2000
    4.4190   -8.9140   16.3310 C   0  0  0  0  0  0
    3.4770   -8.4500   16.9700 O   0  0  0  0  0  0
    4.2190   -9.7470   15.0860 C   0  0  0  0  0  0
    5.6810   -8.6040   16.6040 N   0  0  0  0  0  0
    6.1190   -7.9500   17.8290 C   0  0  2  0  0  0
    6.6920   -6.5490   17.6270 C   0  0  0  0  0  0
    6.9890   -5.8600   18.5990 O   0  0  0  0  0  0
    7.1470   -8.8010   18.5830 C   0  0  2  0  0  0
    8.3290   -8.9570   17.7940 O   0  0  0  0  0  0
    6.5470  -10.2190   18.9050 C   0  0  0  0  0  0
    6.8270   -6.1050   16.3870 N   0  0  0  0  0  0
    7.3880   -4.7810   16.1820 C   0  0  2  0  0  0
    6.3430   -3.9060   15.5010 C   0  0  0  0  0  0
    6.2670   -3.8890   14.2820 O   0  0  0  0  0  0
    8.6920   -4.8210   15.3830 C   0  0  2  0  0  0
    9.6680   -5.8900   15.9050 C   0  0  0  0  0  0
    9.3530   -3.4360   15.3030 C   0  0  0  0  0  0
   10.2020   -5.6910   17.3420 C   0  0  0  0  0  0
    5.4710   -3.2670   16.2700 N   0  0  0  0  0  0
    4.3440   -2.5570   15.6320 C   0  0  2  0  0  0
    4.6150   -1.0690   15.5660 C   0  0  0  0  0  0
    3.0730   -2.8950   16.4110 C   0  0  0  0  0  0
    2.8670   -4.3910   16.6750 C   0  0  0  0  0  0
    2.7690   -5.2070   15.3860 C   0  0  0  0  0  0
    1.6860   -4.6630   14.4640 C   0  0  0  0  0  0
    5.8420   -0.7260   14.8550 N   0  3  0  0  0  0
    5.8200    0.4520   13.9540 C   0  0  2  0  0  0
    4.7070    0.3760   12.8990 C   0  0  0  0  0  0
    4.4360   -0.6610   12.3150 O   0  0  0  0  0  0
    7.2190    0.6150   13.3360 C   0  0  0  0  0  0
    7.4100    1.8380   12.4500 C   0  0  0  0  0  0
    7.3990    1.4200   10.9710 C   0  0  0  0  0  0
    8.6490    0.6490   10.5650 C   0  0  0  0  0  0
    4.0940    1.5160   12.5940 N   0  0  0  0  0  0
    3.0960    1.5840   11.5190 C   0  0  2  0  0  0
    3.1210    2.9720   10.8970 C   0  0  0  0  0  0
    3.2780    3.9780   11.5830 O   0  0  0  0  0  0
    1.6860    1.2390   12.0400 C   0  0  0  0  0  0
    0.5850    1.3400   10.9750 C   0  0  0  0  0  0
    0.0210    2.7350   10.8600 C   0  0  0  0  0  0
    0.1020    3.5050   11.7950 O   0  0  0  0  0  0
   -0.6240    3.0430    9.7350 N   0  0  0  0  0  0
    3.0370    3.0080    9.5790 N   0  0  0  0  0  0
    3.0970    4.2670    8.8370 C   0  0  2  0  0  0
    1.8820    4.3110    7.9460 C   0  0  0  0  0  0
    1.6740    3.3870    7.1560 O   0  0  0  0  0  0
    4.3600    4.2850    7.9700 C   0  0  0  0  0  0
    5.6410    4.1900    8.7360 C   0  0  0  0  0  0
    5.5450    5.2230    9.8160 C   0  0  0  0  0  0
    6.6000    5.2210   10.8270 N   0  0  0  0  0  0
    7.7540    5.8380   10.6770 C   0  0  0  0  0  0
    8.0630    6.4340    9.5140 N   0  0  0  0  0  0
    8.6240    5.8240   11.6580 N   0  3  0  0  0  0
    1.2580    5.4660    7.7050 N   0  0  0  0  0  0
    3.1465   -9.9489   14.9483 H   0  0  0  0  0  0
    4.7608  -10.6986   15.1906 H   0  0  0  0  0  0
    4.6041   -9.1998   14.2129 H   0  0  0  0  0  0
    6.4161   -8.8738   15.8314 H   0  0  0  0  0  0
    5.1698   -7.8651   18.3783 H   0  0  0  0  0  0
    7.4768   -8.2663   19.4860 H   0  0  0  0  0  0
    8.8933   -8.0710   17.4677 H   0  0  0  0  0  0
    5.6371  -10.1029   19.5121 H   0  0  0  0  0  0
    7.2867  -10.8121   19.4627 H   0  0  0  0  0  0
    6.2976  -10.7336   17.9653 H   0  0  0  0  0  0
    6.5253   -6.7144   15.5224 H   0  0  0  0  0  0
    7.6255   -4.3964   17.1848 H   0  0  0  0  0  0
    8.4173   -5.1147   14.3592 H   0  0  0  0  0  0
    9.1725   -6.8721   15.9011 H   0  0  0  0  0  0
   10.5554   -5.9245   15.2560 H   0  0  0  0  0  0
    8.6242   -2.7031   14.9266 H   0  0  0  0  0  0
   10.2147   -3.4798   14.6207 H   0  0  0  0  0  0
    9.6933   -3.1337   16.3044 H   0  0  0  0  0  0
   10.8852   -6.5147   17.5966 H   0  0  0  0  0  0
    9.3589   -5.6822   18.0485 H   0  0  0  0  0  0
   10.7419   -4.7346   17.4034 H   0  0  0  0  0  0
    5.5764   -3.2599   17.3649 H   0  0  0  0  0  0
    4.2461   -2.8963   14.5902 H   0  0  0  0  0  0
    3.7851   -0.5679   15.0463 H   0  0  0  0  0  0
    4.7050   -0.6671   16.5860 H   0  0  0  0  0  0
    3.1013   -2.3984   17.3921 H   0  0  0  0  0  0
    2.1945   -2.5459   15.8486 H   0  0  0  0  0  0
    3.7147   -4.7806   17.2578 H   0  0  0  0  0  0
    1.9348   -4.5387   17.2400 H   0  0  0  0  0  0
    3.7311   -5.1692   14.8541 H   0  0  0  0  0  0
    2.5262   -6.2516   15.6308 H   0  0  0  0  0  0
    1.6434   -5.2722   13.5491 H   0  0  0  0  0  0
    1.9187   -3.6208   14.2001 H   0  0  0  0  0  0
    0.7137   -4.7031   14.9769 H   0  0  0  0  0  0
    6.6400   -0.5142   15.5819 H   0  0  0  0  0  0
    6.1429   -1.5688   14.2153 H   0  0  0  0  0  0
    5.5730    1.3270   14.5732 H   0  0  0  0  0  0
    7.9672    0.6953   14.1384 H   0  0  0  0  0  0
    7.4468   -0.2593   12.7085 H   0  0  0  0  0  0
    6.5937    2.5529   12.6309 H   0  0  0  0  0  0
    8.3733    2.3143   12.6851 H   0  0  0  0  0  0
    6.5293    0.7744   10.7789 H   0  0  0  0  0  0
    7.3371    2.3167   10.3370 H   0  0  0  0  0  0
    8.5834    0.3784    9.5008 H   0  0  0  0  0  0
    8.7291   -0.2652   11.1715 H   0  0  0  0  0  0
    9.5369    1.2772   10.7296 H   0  0  0  0  0  0
    4.3485    2.4203   13.1663 H   0  0  0  0  0  0
    3.3934    0.8348   10.7705 H   0  0  0  0  0  0
    1.6776    0.2063   12.4187 H   0  0  0  0  0  0
    1.4161    1.9297   12.8525 H   0  0  0  0  0  0
    0.9964    1.0584    9.9945 H   0  0  0  0  0  0
   -0.2402    0.6607   11.2351 H   0  0  0  0  0  0
   -0.6729    2.3148    8.9120 H   0  0  0  0  0  0
   -1.1074    4.0254    9.6295 H   0  0  0  0  0  0
    2.9189    2.0567    9.0395 H   0  0  0  0  0  0
    3.1054    5.1056    9.5488 H   0  0  0  0  0  0
    4.3397    3.4328    7.2748 H   0  0  0  0  0  0
    4.3988    5.2238    7.3981 H   0  0  0  0  0  0
    5.7421    3.1790    9.1574 H   0  0  0  0  0  0
    6.4868    4.3928    8.0626 H   0  0  0  0  0  0
    5.5665    6.2267    9.3663 H   0  0  0  0  0  0
    4.6035    5.0890   10.3689 H   0  0  0  0  0  0
    6.4519    4.6837   11.7754 H   0  0  0  0  0  0
    7.3332    6.4458    8.6911 H   0  0  0  0  0  0
    9.0459    6.9105    9.3843 H   0  0  0  0  0  0
    8.3709    5.3358   12.6107 H   0  0  0  0  0  0
    1.4080    6.3230    8.3780 H   0  0  0  0  0  0
    0.5938    5.5608    6.8333 H   0  0  0  0  0  0
    9.6069    6.3005   11.5283 H   0  0  0  0  0  0
  1  2  2  0  0  0
  1  3  1  0  0  0
  1  4  1  0  0  0
  3 55  1  0  0  0
  3 56  1  0  0  0
  3 57  1  0  0  0
  4  5  1  0  0  0
  4 58  1  0  0  0
  5  6  1  0  0  0
  5  8  1  0  0  0
  5 59  1  0  0  0
  6  7  2  0  0  0
  6 11  1  0  0  0
  8  9  1  0  0  0
  8 10  1  0  0  0
  8 60  1  0  0  0
  9 61  1  0  0  0
 10 62  1  0  0  0
 10 63  1  0  0  0
 10 64  1  0  0  0
 11 12  1  0  0  0
 11 65  1  0  0  0
 12 13  1  0  0  0
 12 15  1  0  0  0
 12 66  1  0  0  0
 13 14  2  0  0  0
 13 19  1  0  0  0
 15 16  1  0  0  0
 15 17  1  0  0  0
 15 67  1  0  0  0
 16 18  1  0  0  0
 16 68  1  0  0  0
 16 69  1  0  0  0
 17 70  1  0  0  0
 17 71  1  0  0  0
 17 72  1  0  0  0
 18 73  1  0  0  0
 18 74  1  0  0  0
 18 75  1  0  0  0
 19 20  1  0  0  0
 19 76  1  0  0  0
 20 21  1  0  0  0
 20 22  1  0  0  0
 20 77  1  0  0  0
 21 26  1  0  0  0
 21 78  1  0  0  0
 21 79  1  0  0  0
 22 23  1  0  0  0
 22 80  1  0  0  0
 22 81  1  0  0  0
 23 24  1  0  0  0
 23 82  1  0  0  0
 23 83  1  0  0  0
 24 25  1  0  0  0
 24 84  1  0  0  0
 24 85  1  0  0  0
 25 86  1  0  0  0
 25 87  1  0  0  0
 25 88  1  0  0  0
 26 27  1  0  0  0
 26 89  1  0  0  0
 26 90  1  0  0  0
 27 28  1  0  0  0
 27 30  1  0  0  0
 27 91  1  0  0  0
 28 29  2  0  0  0
 28 34  1  0  0  0
 30 31  1  0  0  0
 30 92  1  0  0  0
 30 93  1  0  0  0
 31 32  1  0  0  0
 31 94  1  0  0  0
 31 95  1  0  0  0
 32 33  1  0  0  0
 32 96  1  0  0  0
 32 97  1  0  0  0
 33 98  1  0  0  0
 33 99  1  0  0  0
 33100  1  0  0  0
 34 35  1  0  0  0
 34101  1  0  0  0
 35 36  1  0  0  0
 35 38  1  0  0  0
 35102  1  0  0  0
 36 37  2  0  0  0
 36 43  1  0  0  0
 38 39  1  0  0  0
 38103  1  0  0  0
 38104  1  0  0  0
 39 40  1  0  0  0
 39105  1  0  0  0
 39106  1  0  0  0
 40 41  2  0  0  0
 40 42  1  0  0  0
 42107  1  0  0  0
 42108  1  0  0  0
 43 44  1  0  0  0
 43109  1  0  0  0
 44 45  1  0  0  0
 44 47  1  0  0  0
 44110  1  0  0  0
 45 46  2  0  0  0
 45 54  1  0  0  0
 47 48  1  0  0  0
 47111  1  0  0  0
 47112  1  0  0  0
 48 49  1  0  0  0
 48113  1  0  0  0
 48114  1  0  0  0
 49 50  1  0  0  0
 49115  1  0  0  0
 49116  1  0  0  0
 50 51  1  0  0  0
 50117  1  0  0  0
 51 52  1  0  0  0
 51 53  2  0  0  0
 52118  1  0  0  0
 52119  1  0  0  0
 53120  1  0  0  0
 53123  1  0  0  0
 54121  1  0  0  0
 54122  1  0  0  0
M  CHG  2  26   1  53   1
M  END
> <s_m_source_file>
../3hbo_ligand.sdf

> <i_m_source_file_index>
1

> <s_epik_input>
Tz1DKFtDSDNdKVtOSF1bQ0BASF0oW0NASF0oW09IXSlbQ0gzXSlDKD1PKVtOSF1bQ0BASF0oW0NAQEhdKFtDSDNdKVtDSDJdW0NIM10pQyg9TylbTkhdW0NAQEhdKFtDSDJdW0NIMl1bQ0gyXVtDSDNdKVtDSDJdW05IMitdW0NAQEhdKFtDSDJdW0NIMl1bQ0gyXVtDSDNdKUMoPU8pW05IXVtDQEBIXShbQ0gyXVtDSDJdQyg9TylbTkgyXSlDKD1PKVtOSF1bQ0BIXShDKD1PKVtOSDJdKVtDSDJdW0NIMl1bQ0gyXVtOSF0vQyhbTkgyXSk9TlxbSF0=

> <s_epik_cmdline>
J2VwaWtfYXBwJywgJy1pbWFlJywgJ2xpZ2FuZF9wcm8ubWFlJywgJy1vbWFlJywgJ2xpZ2FuZF9wcmVwLm1hZScsICctbXMnLCAnMScsICctcGgnLCAnNycsICctcGh0JywgJzAuNScsICctbnQn

> <r_epik_Ionization_Penalty>
  0.1921

> <r_epik_Ionization_Penalty_Charging>
  0.1921

> <r_epik_Ionization_Penalty_Neutral>
  0.0000

> <r_epik_State_Penalty>
  0.1818

> <r_epik_Charging_Adjusted_Penalty>
0.37396405168134

> <i_epik_Tot_Q>
2

> <i_epik_Tot_abs_Q>
2

> <s_epik_Chemistry_Notes>
This compound has an imine and may undergo hydrolysis.

$$$$
