3hc8_ligand
                    3D
 Schrodinger Suite 2020-3.
 67 70  0  0  1  0            999 V2000
   17.2340   -5.8820   12.8690 C   0  0  0  0  0  0
   17.3770   -5.6280   14.2330 C   0  0  0  0  0  0
   18.2830   -6.3810   14.9920 C   0  0  0  0  0  0
   19.0350   -7.3770   14.3720 C   0  0  0  0  0  0
   18.8710   -7.6070   12.9950 C   0  0  0  0  0  0
   17.9840   -6.8530   12.3230 N   0  0  0  0  0  0
   19.9200   -8.1310   15.0530 N   0  0  0  0  0  0
   20.6280   -9.1020   14.4320 C   0  0  0  0  0  0
   20.4500   -9.3200   13.0530 C   0  0  0  0  0  0
   19.5850   -8.5490   12.3510 N   0  0  0  0  0  0
   21.1500  -10.2570   12.4470 O   0  0  0  0  0  0
   21.5090   -9.8740   15.0930 N   0  0  0  0  0  0
   21.9010   -9.8440   16.5080 C   0  0  0  0  0  0
   20.8730  -10.4340   17.4770 C   0  0  0  0  0  0
   21.4060  -10.8110   18.8270 N   0  3  0  0  0  0
   21.7270   -9.7180   19.7950 C   0  0  0  0  0  0
   20.7720   -9.7840   20.9970 C   0  0  0  0  0  0
   20.7210  -11.1130   21.5490 O   0  0  0  0  0  0
   20.3290  -12.1510   20.6330 C   0  0  0  0  0  0
   21.2200  -12.1960   19.3810 C   0  0  0  0  0  0
   16.3090   -5.1860   11.9470 C   0  0  0  0  0  0
   15.2460   -4.3980   12.3970 C   0  0  0  0  0  0
   14.3770   -3.7530   11.5280 C   0  0  0  0  0  0
   14.5920   -3.9460   10.1740 C   0  0  0  0  0  0
   15.6030   -4.7230    9.7310 N   0  0  0  0  0  0
   16.4420   -5.3440   10.5720 C   0  0  0  0  0  0
   19.3780   -8.7950   10.9040 C   0  0  0  0  0  0
   13.7400   -3.3260    9.3770 O   0  0  0  0  0  0
   20.5690   -8.4370   10.0200 C   0  0  0  0  0  0
   20.5530   -7.0290    9.9070 O   0  0  0  0  0  0
   21.5230   -6.4910    9.0020 C   0  0  0  0  0  0
   21.2350   -4.9980    8.7980 C   0  0  0  0  0  0
   19.8280   -4.7120    8.2690 C   0  0  0  0  0  0
   13.9390   -3.3050    7.9390 C   0  0  0  0  0  0
   16.7852   -4.8453   14.7077 H   0  0  0  0  0  0
   18.3985   -6.1892   16.0587 H   0  0  0  0  0  0
   22.8284  -10.4197   16.6438 H   0  0  0  0  0  0
   22.0669   -8.8025   16.8205 H   0  0  0  0  0  0
   20.0713   -9.7014   17.6519 H   0  0  0  0  0  0
   20.4446  -11.3500   17.0441 H   0  0  0  0  0  0
   22.3969  -11.0226   18.3988 H   0  0  0  0  0  0
   22.7623   -9.8335   20.1483 H   0  0  0  0  0  0
   21.6160   -8.7432   19.2975 H   0  0  0  0  0  0
   21.1185   -9.0923   21.7790 H   0  0  0  0  0  0
   19.7593   -9.4979   20.6768 H   0  0  0  0  0  0
   20.3984  -13.1277   21.1342 H   0  0  0  0  0  0
   19.2928  -11.9795   20.3061 H   0  0  0  0  0  0
   20.7430  -12.8335   18.6220 H   0  0  0  0  0  0
   22.1995  -12.6176   19.6508 H   0  0  0  0  0  0
   15.0938   -4.2858   13.4705 H   0  0  0  0  0  0
   13.5647   -3.1250   11.8938 H   0  0  0  0  0  0
   17.2348   -5.9779   10.1748 H   0  0  0  0  0  0
   19.1695   -9.8625   10.7397 H   0  0  0  0  0  0
   18.5266   -8.1962   10.5484 H   0  0  0  0  0  0
   21.4968   -8.7893   10.4945 H   0  0  0  0  0  0
   20.4541   -8.9181    9.0375 H   0  0  0  0  0  0
   22.5304   -6.6218    9.4240 H   0  0  0  0  0  0
   21.4577   -7.0180    8.0387 H   0  0  0  0  0  0
   21.3386   -4.4702    9.7575 H   0  0  0  0  0  0
   21.9494   -4.5826    8.0720 H   0  0  0  0  0  0
   19.6952   -3.6267    8.1485 H   0  0  0  0  0  0
   19.0833   -5.0956    8.9819 H   0  0  0  0  0  0
   19.6941   -5.2081    7.2964 H   0  0  0  0  0  0
   13.1229   -2.7406    7.4641 H   0  0  0  0  0  0
   13.9442   -4.3356    7.5545 H   0  0  0  0  0  0
   14.9006   -2.8229    7.7089 H   0  0  0  0  0  0
   21.9614  -10.6103   14.4124 H   0  0  0  0  0  0
  1  2  2  0  0  0
  1  6  1  0  0  0
  1 21  1  0  0  0
  2  3  1  0  0  0
  2 35  1  0  0  0
  3  4  2  0  0  0
  3 36  1  0  0  0
  4  5  1  0  0  0
  4  7  1  0  0  0
  5  6  2  0  0  0
  5 10  1  0  0  0
  7  8  2  0  0  0
  8  9  1  0  0  0
  8 12  1  0  0  0
  9 10  1  0  0  0
  9 11  2  0  0  0
 10 27  1  0  0  0
 12 13  1  0  0  0
 12 67  1  0  0  0
 13 14  1  0  0  0
 13 37  1  0  0  0
 13 38  1  0  0  0
 14 15  1  0  0  0
 14 39  1  0  0  0
 14 40  1  0  0  0
 15 16  1  0  0  0
 15 20  1  0  0  0
 15 41  1  0  0  0
 16 17  1  0  0  0
 16 42  1  0  0  0
 16 43  1  0  0  0
 17 18  1  0  0  0
 17 44  1  0  0  0
 17 45  1  0  0  0
 18 19  1  0  0  0
 19 20  1  0  0  0
 19 46  1  0  0  0
 19 47  1  0  0  0
 20 48  1  0  0  0
 20 49  1  0  0  0
 21 22  2  0  0  0
 21 26  1  0  0  0
 22 23  1  0  0  0
 22 50  1  0  0  0
 23 24  2  0  0  0
 23 51  1  0  0  0
 24 25  1  0  0  0
 24 28  1  0  0  0
 25 26  2  0  0  0
 26 52  1  0  0  0
 27 29  1  0  0  0
 27 53  1  0  0  0
 27 54  1  0  0  0
 28 34  1  0  0  0
 29 30  1  0  0  0
 29 55  1  0  0  0
 29 56  1  0  0  0
 30 31  1  0  0  0
 31 32  1  0  0  0
 31 57  1  0  0  0
 31 58  1  0  0  0
 32 33  1  0  0  0
 32 59  1  0  0  0
 32 60  1  0  0  0
 33 61  1  0  0  0
 33 62  1  0  0  0
 33 63  1  0  0  0
 34 64  1  0  0  0
 34 65  1  0  0  0
 34 66  1  0  0  0
M  CHG  1  15   1
M  END
> <s_m_source_file>
../3hc8_ligand.sdf

> <i_m_source_file_index>
1

> <s_epik_input>
W2NIXTFuYyhPW0NIM10pW2NIXVtjSF1jMS1jKFtjSF1bY0hdMiluYyhjMjMpbihbQ0gyXVtDSDJdT1tDSDJdW0NIMl1bQ0gzXSljKD1PKWMoXFtuSF0zKT1OXFtDSDJdW0NIMl1bTkgrXTRbQ0gyXVtDSDJdT1tDSDJdW0NIMl00

> <s_epik_cmdline>
J2VwaWtfYXBwJywgJy1pbWFlJywgJ2xpZ2FuZF9wcm8ubWFlJywgJy1vbWFlJywgJ2xpZ2FuZF9wcmVwLm1hZScsICctbXMnLCAnMScsICctcGgnLCAnNycsICctcGh0JywgJzAuNScsICctbnQn

> <r_lp_tautomer_probability>
1

> <r_epik_Ionization_Penalty>
  0.1653

> <r_epik_Ionization_Penalty_Charging>
  0.1653

> <r_epik_Ionization_Penalty_Neutral>
  0.0000

> <r_epik_State_Penalty>
  0.1547

> <r_epik_Charging_Adjusted_Penalty>
0.320009131361069

> <i_epik_Tot_Q>
1

> <i_epik_Tot_abs_Q>
1

$$$$
