3hd3_ligand
                    3D
 Schrodinger Suite 2020-3.
 68 70  0  0  1  0            999 V2000
   11.8830    9.8610   -1.1400 O   0  0  0  0  0  0
   11.8640   10.0990   -2.5040 S   0  0  0  0  0  0
   12.6370   11.2050   -3.0040 O   0  0  0  0  0  0
   10.2770   10.4000   -2.9020 C   0  0  0  0  0  0
    9.7730   11.6850   -3.0470 C   0  0  0  0  0  0
    8.4080   11.9150   -3.3560 C   0  0  0  0  0  0
    7.5130   10.8540   -3.5240 C   0  0  0  0  0  0
    8.0060    9.5920   -3.3830 C   0  0  0  0  0  0
    9.3510    9.3850   -3.0340 C   0  0  0  0  0  0
   12.2800    8.6390   -3.2920 C   0  0  0  0  0  0
   13.7760    8.4370   -3.4830 C   0  0  0  0  0  0
   14.2770    8.5070   -4.9360 C   0  0  2  0  0  0
   13.8030    9.7730   -5.7090 C   0  0  0  0  0  0
   14.5880    9.8870   -7.0000 C   0  0  0  0  0  0
   14.2070   11.0790   -7.9180 C   0  0  0  0  0  0
   14.0810   12.3430   -7.1400 C   0  0  0  0  0  0
   13.8070    7.2450   -5.5640 N   0  0  0  0  0  0
   14.5920    6.2590   -6.0350 C   0  0  0  0  0  0
   15.8950    6.3690   -6.0580 O   0  0  0  0  0  0
   13.9520    4.9830   -6.5790 C   0  0  2  0  0  0
   14.0920    3.8990   -5.4990 C   0  0  0  0  0  0
   13.5000    2.5650   -5.9530 C   0  0  0  0  0  0
   13.9850    2.1510   -7.3280 C   0  0  0  0  0  0
   13.8590    3.2590   -8.3500 C   0  0  0  0  0  0
   14.5860    4.5670   -7.8820 C   0  0  1  0  0  0
   14.5000    5.6630   -8.8880 C   0  0  0  0  0  0
   13.4190    6.3100   -9.0420 O   0  0  0  0  0  0
   15.7190    6.0180   -9.6900 C   0  0  0  0  0  0
   16.8360    5.1640   -9.7890 C   0  0  0  0  0  0
   15.7050    7.2060  -10.3630 C   0  0  0  0  0  0
   16.8140    7.5530  -11.1340 C   0  0  0  0  0  0
   17.8720    6.7070  -11.2250 C   0  0  0  0  0  0
   19.2520    7.2880  -12.1850 Cl  0  0  0  0  0  0
   17.9290    5.5080  -10.5660 C   0  0  0  0  0  0
   10.4413   12.5367   -2.9205 H   0  0  0  0  0  0
    8.0498   12.9387   -3.4646 H   0  0  0  0  0  0
    6.4631   11.0296   -3.7584 H   0  0  0  0  0  0
    7.3512    8.7353   -3.5423 H   0  0  0  0  0  0
    9.6830    8.3620   -2.8569 H   0  0  0  0  0  0
   11.9122    7.7864   -2.7023 H   0  0  0  0  0  0
   11.8216    8.6184   -4.2917 H   0  0  0  0  0  0
   14.3244    9.2134   -2.9294 H   0  0  0  0  0  0
   14.0633    7.4449   -3.1047 H   0  0  0  0  0  0
   15.3751    8.5572   -4.9755 H   0  0  0  0  0  0
   12.7300    9.6846   -5.9344 H   0  0  0  0  0  0
   13.9753   10.6662   -5.0905 H   0  0  0  0  0  0
   15.6571   10.0054   -6.7698 H   0  0  0  0  0  0
   14.4408    8.9770   -7.6003 H   0  0  0  0  0  0
   14.9851   11.2155   -8.6835 H   0  0  0  0  0  0
   13.2438   10.8719   -8.4071 H   0  0  0  0  0  0
   13.8109   13.1657   -7.8184 H   0  0  0  0  0  0
   15.0402   12.5702   -6.6518 H   0  0  0  0  0  0
   13.2989   12.2265   -6.3754 H   0  0  0  0  0  0
   12.7294    7.0545   -5.6760 H   0  0  0  0  0  0
   12.8919    5.1509   -6.8197 H   0  0  0  0  0  0
   15.1569    3.7442   -5.2708 H   0  0  0  0  0  0
   13.5645    4.2186   -4.5882 H   0  0  0  0  0  0
   13.7860    1.7760   -5.2419 H   0  0  0  0  0  0
   12.4035    2.6444   -5.9910 H   0  0  0  0  0  0
   15.0454    1.8639   -7.2717 H   0  0  0  0  0  0
   13.3919    1.2956   -7.6839 H   0  0  0  0  0  0
   14.3089    2.9345   -9.2999 H   0  0  0  0  0  0
   12.7958    3.4924   -8.5086 H   0  0  0  0  0  0
   15.6678    4.4145   -7.7542 H   0  0  0  0  0  0
   16.8393    4.2190   -9.2459 H   0  0  0  0  0  0
   14.8434    7.8705  -10.2988 H   0  0  0  0  0  0
   16.8315    8.5050  -11.6645 H   0  0  0  0  0  0
   18.7965    4.8534  -10.6495 H   0  0  0  0  0  0
  1  2  2  0  0  0
  2  3  2  0  0  0
  2  4  1  0  0  0
  2 10  1  0  0  0
  4  5  2  0  0  0
  4  9  1  0  0  0
  5  6  1  0  0  0
  5 35  1  0  0  0
  6  7  2  0  0  0
  6 36  1  0  0  0
  7  8  1  0  0  0
  7 37  1  0  0  0
  8  9  2  0  0  0
  8 38  1  0  0  0
  9 39  1  0  0  0
 10 11  1  0  0  0
 10 40  1  0  0  0
 10 41  1  0  0  0
 11 12  1  0  0  0
 11 42  1  0  0  0
 11 43  1  0  0  0
 12 13  1  0  0  0
 12 17  1  0  0  0
 12 44  1  0  0  0
 13 14  1  0  0  0
 13 45  1  0  0  0
 13 46  1  0  0  0
 14 15  1  0  0  0
 14 47  1  0  0  0
 14 48  1  0  0  0
 15 16  1  0  0  0
 15 49  1  0  0  0
 15 50  1  0  0  0
 16 51  1  0  0  0
 16 52  1  0  0  0
 16 53  1  0  0  0
 17 18  1  0  0  0
 17 54  1  0  0  0
 18 19  2  0  0  0
 18 20  1  0  0  0
 20 21  1  0  0  0
 20 25  1  0  0  0
 20 55  1  0  0  0
 21 22  1  0  0  0
 21 56  1  0  0  0
 21 57  1  0  0  0
 22 23  1  0  0  0
 22 58  1  0  0  0
 22 59  1  0  0  0
 23 24  1  0  0  0
 23 60  1  0  0  0
 23 61  1  0  0  0
 24 25  1  0  0  0
 24 62  1  0  0  0
 24 63  1  0  0  0
 25 26  1  0  0  0
 25 64  1  0  0  0
 26 27  2  0  0  0
 26 28  1  0  0  0
 28 29  2  0  0  0
 28 30  1  0  0  0
 29 34  1  0  0  0
 29 65  1  0  0  0
 30 31  2  0  0  0
 30 66  1  0  0  0
 31 32  1  0  0  0
 31 67  1  0  0  0
 32 33  1  0  0  0
 32 34  2  0  0  0
 34 68  1  0  0  0
M  END
> <s_m_source_file>
../3hd3_ligand.sdf

> <i_m_source_file_index>
1

> <s_epik_input>
W2NIXTFbY0hdW2NIXVtjSF1bY0hdYzFTKD1PKSg9TylbQ0gyXVtDSDJdW0NASF0oW0NIMl1bQ0gyXVtDSDJdW0NIM10pW05IXUMoPU8pW0NAQEhdMltDSDJdW0NIMl1bQ0gyXVtDSDJdW0NASF0yQyg9TyljM1tjSF1bY0hdYyhDbClbY0hdW2NIXTM=

> <s_epik_cmdline>
J2VwaWtfYXBwJywgJy1pbWFlJywgJ2xpZ2FuZF9wcm8ubWFlJywgJy1vbWFlJywgJ2xpZ2FuZF9wcmVwLm1hZScsICctbXMnLCAnMScsICctcGgnLCAnNycsICctcGh0JywgJzAuNScsICctbnQn

> <r_lp_tautomer_probability>
1

> <r_epik_Ionization_Penalty>
  0.0000

> <r_epik_Ionization_Penalty_Charging>
  0.0000

> <r_epik_Ionization_Penalty_Neutral>
  0.0000

> <r_epik_State_Penalty>
 -0.0000

> <r_epik_Charging_Adjusted_Penalty>
0

> <i_epik_Tot_Q>
0

> <i_epik_Tot_abs_Q>
0

$$$$
