3hdk_ligand
                    3D
 Schrodinger Suite 2020-3.
123122  0  0  1  0            999 V2000
    4.4900   -8.8850   16.2480 C   0  0  0  0  0  0
    3.5460   -8.2910   16.7750 O   0  0  0  0  0  0
    4.2600   -9.6940   14.9990 C   0  0  0  0  0  0
    5.7670   -8.5860   16.5290 N   0  0  0  0  0  0
    6.2250   -7.9400   17.7590 C   0  0  2  0  0  0
    6.8150   -6.5250   17.5800 C   0  0  0  0  0  0
    7.1550   -5.8710   18.5820 O   0  0  0  0  0  0
    7.2600   -8.7630   18.4920 C   0  0  2  0  0  0
    8.4680   -8.8230   17.7450 O   0  0  0  0  0  0
    6.7440  -10.2140   18.7610 C   0  0  0  0  0  0
    6.9310   -6.0510   16.3410 N   0  0  0  0  0  0
    7.5330   -4.7650   16.1180 C   0  0  2  0  0  0
    6.4870   -3.8390   15.4560 C   0  0  0  0  0  0
    6.4560   -3.6650   14.2620 O   0  0  0  0  0  0
    8.8590   -4.8730   15.2790 C   0  0  2  0  0  0
    9.8300   -5.9260   15.8460 C   0  0  0  0  0  0
    9.5280   -3.4950   15.1270 C   0  0  0  0  0  0
   10.2480   -5.7430   17.3260 C   0  0  0  0  0  0
    5.6140   -3.2610   16.2550 N   0  0  0  0  0  0
    4.4820   -2.5200   15.6720 C   0  0  2  0  0  0
    4.7180   -1.0000   15.5370 C   0  0  0  0  0  0
    3.2070   -2.8670   16.4710 C   0  0  0  0  0  0
    2.9540   -4.4020   16.6540 C   0  0  0  0  0  0
    2.8490   -5.1190   15.3030 C   0  0  0  0  0  0
    1.6890   -4.5760   14.5070 C   0  0  0  0  0  0
    5.8510   -0.6350   14.8780 N   0  3  0  0  0  0
    5.8940    0.5660   14.0390 C   0  0  2  0  0  0
    4.8340    0.4460   12.9050 C   0  0  0  0  0  0
    4.6100   -0.6210   12.2970 O   0  0  0  0  0  0
    7.2980    0.7230   13.4270 C   0  0  0  0  0  0
    7.5450    1.9620   12.5480 C   0  0  0  0  0  0
    7.6010    1.6170   11.0690 C   0  0  0  0  0  0
    8.8190    0.7460   10.7250 C   0  0  0  0  0  0
    4.2200    1.5600   12.5700 N   0  0  0  0  0  0
    3.1950    1.5380   11.5140 C   0  0  2  0  0  0
    3.2140    2.9320   10.8780 C   0  0  0  0  0  0
    3.2730    3.9230   11.5920 O   0  0  0  0  0  0
    1.8240    1.2760   12.0900 C   0  0  0  0  0  0
    0.7160    1.3750   10.9910 C   0  0  0  0  0  0
    0.1100    2.8020   10.8990 C   0  0  0  0  0  0
    0.1450    3.5310   11.8580 O   0  0  0  0  0  0
   -0.4900    3.1490    9.7690 N   0  0  0  0  0  0
    3.1410    2.9830    9.5550 N   0  0  0  0  0  0
    3.2850    4.2220    8.7980 C   0  0  2  0  0  0
    2.0890    4.4380    7.9140 C   0  0  0  0  0  0
    1.6310    3.4980    7.2300 O   0  0  0  0  0  0
    4.5500    4.1590    7.9430 C   0  0  0  0  0  0
    5.7680    4.7190    8.6860 C   0  0  0  0  0  0
    6.1580    6.1720    8.2460 C   0  0  0  0  0  0
    5.2960    7.2550    8.7520 N   0  0  0  0  0  0
    5.7410    8.4470    9.1430 C   0  0  0  0  0  0
    7.0470    8.7250    9.1290 N   0  0  0  0  0  0
    4.8900    9.3730    9.5680 N   0  3  0  0  0  0
    1.4480    5.6010    8.0000 N   0  0  0  0  0  0
    3.1825   -9.8761   14.8733 H   0  0  0  0  0  0
    4.7871  -10.6558   15.0829 H   0  0  0  0  0  0
    4.6424   -9.1410   14.1284 H   0  0  0  0  0  0
    6.4928   -8.8637   15.7505 H   0  0  0  0  0  0
    5.2739   -7.8960   18.3099 H   0  0  0  0  0  0
    7.5230   -8.2354   19.4207 H   0  0  0  0  0  0
    8.9840   -7.8948   17.4583 H   0  0  0  0  0  0
    5.8092  -10.1694   19.3390 H   0  0  0  0  0  0
    7.5011  -10.7727   19.3308 H   0  0  0  0  0  0
    6.5586  -10.7208   17.8025 H   0  0  0  0  0  0
    6.5665   -6.6429   15.4885 H   0  0  0  0  0  0
    7.7863   -4.3969   17.1232 H   0  0  0  0  0  0
    8.6056   -5.2224   14.2672 H   0  0  0  0  0  0
    9.3686   -6.9225   15.7818 H   0  0  0  0  0  0
   10.7630   -5.9158   15.2635 H   0  0  0  0  0  0
    8.8005   -2.7771   14.7205 H   0  0  0  0  0  0
   10.3845   -3.5769   14.4417 H   0  0  0  0  0  0
    9.8770   -3.1464   16.1102 H   0  0  0  0  0  0
   10.9378   -6.5498   17.6146 H   0  0  0  0  0  0
    9.3543   -5.7780   17.9664 H   0  0  0  0  0  0
   10.7488   -4.7712   17.4481 H   0  0  0  0  0  0
    5.7237   -3.3274   17.3475 H   0  0  0  0  0  0
    4.4047   -2.8792   14.6352 H   0  0  0  0  0  0
    3.8811   -0.5466   14.9857 H   0  0  0  0  0  0
    4.7848   -0.5490   16.5380 H   0  0  0  0  0  0
    3.2759   -2.4314   17.4787 H   0  0  0  0  0  0
    2.3271   -2.4569   15.9537 H   0  0  0  0  0  0
    3.7863   -4.8459   17.2199 H   0  0  0  0  0  0
    2.0137   -4.5557   17.2037 H   0  0  0  0  0  0
    3.7772   -4.9651   14.7331 H   0  0  0  0  0  0
    2.6956   -6.1954   15.4701 H   0  0  0  0  0  0
    1.6287   -5.1009   13.5422 H   0  0  0  0  0  0
    1.8369   -3.5004   14.3306 H   0  0  0  0  0  0
    0.7553   -4.7306   15.0676 H   0  0  0  0  0  0
    6.6585   -0.4628   15.6048 H   0  0  0  0  0  0
    6.1463   -1.4364   14.1848 H   0  0  0  0  0  0
    5.6742    1.4162   14.7015 H   0  0  0  0  0  0
    8.0449    0.7796   14.2326 H   0  0  0  0  0  0
    7.5168   -0.1425   12.7844 H   0  0  0  0  0  0
    6.7311    2.6865   12.6985 H   0  0  0  0  0  0
    8.5035    2.4242   12.8268 H   0  0  0  0  0  0
    6.6932    1.0635   10.7870 H   0  0  0  0  0  0
    7.6641    2.5430   10.4786 H   0  0  0  0  0  0
    8.8175    0.5225    9.6479 H   0  0  0  0  0  0
    8.7703   -0.1938   11.2946 H   0  0  0  0  0  0
    9.7412    1.2857   10.9862 H   0  0  0  0  0  0
    4.4693    2.5049   13.0749 H   0  0  0  0  0  0
    3.4257    0.7238   10.8113 H   0  0  0  0  0  0
    1.7958    0.2659   12.5245 H   0  0  0  0  0  0
    1.6071    2.0180   12.8726 H   0  0  0  0  0  0
    1.1477    1.1224   10.0113 H   0  0  0  0  0  0
   -0.0970    0.6721   11.2256 H   0  0  0  0  0  0
   -0.4999    2.4547    8.9159 H   0  0  0  0  0  0
   -0.9779    4.1312    9.6845 H   0  0  0  0  0  0
    2.9631    2.0340    9.0280 H   0  0  0  0  0  0
    3.3413    5.0368    9.5348 H   0  0  0  0  0  0
    4.7599    3.1129    7.6753 H   0  0  0  0  0  0
    4.4030    4.7496    7.0267 H   0  0  0  0  0  0
    5.5576    4.7480    9.7653 H   0  0  0  0  0  0
    6.6396    4.0743    8.4995 H   0  0  0  0  0  0
    7.1744    6.4015    8.5986 H   0  0  0  0  0  0
    6.1255    6.2440    7.1488 H   0  0  0  0  0  0
    4.2089    7.1040    8.8252 H   0  0  0  0  0  0
    7.7664    7.9696    8.7800 H   0  0  0  0  0  0
    7.4034    9.7094    9.4665 H   0  0  0  0  0  0
    3.8107    9.1612    9.5863 H   0  0  0  0  0  0
    1.8674    6.4166    8.6074 H   0  0  0  0  0  0
    0.4987    5.7468    7.4637 H   0  0  0  0  0  0
    5.2641   10.3521    9.9018 H   0  0  0  0  0  0
  1  2  2  0  0  0
  1  3  1  0  0  0
  1  4  1  0  0  0
  3 55  1  0  0  0
  3 56  1  0  0  0
  3 57  1  0  0  0
  4  5  1  0  0  0
  4 58  1  0  0  0
  5  6  1  0  0  0
  5  8  1  0  0  0
  5 59  1  0  0  0
  6  7  2  0  0  0
  6 11  1  0  0  0
  8  9  1  0  0  0
  8 10  1  0  0  0
  8 60  1  0  0  0
  9 61  1  0  0  0
 10 62  1  0  0  0
 10 63  1  0  0  0
 10 64  1  0  0  0
 11 12  1  0  0  0
 11 65  1  0  0  0
 12 13  1  0  0  0
 12 15  1  0  0  0
 12 66  1  0  0  0
 13 14  2  0  0  0
 13 19  1  0  0  0
 15 16  1  0  0  0
 15 17  1  0  0  0
 15 67  1  0  0  0
 16 18  1  0  0  0
 16 68  1  0  0  0
 16 69  1  0  0  0
 17 70  1  0  0  0
 17 71  1  0  0  0
 17 72  1  0  0  0
 18 73  1  0  0  0
 18 74  1  0  0  0
 18 75  1  0  0  0
 19 20  1  0  0  0
 19 76  1  0  0  0
 20 21  1  0  0  0
 20 22  1  0  0  0
 20 77  1  0  0  0
 21 26  1  0  0  0
 21 78  1  0  0  0
 21 79  1  0  0  0
 22 23  1  0  0  0
 22 80  1  0  0  0
 22 81  1  0  0  0
 23 24  1  0  0  0
 23 82  1  0  0  0
 23 83  1  0  0  0
 24 25  1  0  0  0
 24 84  1  0  0  0
 24 85  1  0  0  0
 25 86  1  0  0  0
 25 87  1  0  0  0
 25 88  1  0  0  0
 26 27  1  0  0  0
 26 89  1  0  0  0
 26 90  1  0  0  0
 27 28  1  0  0  0
 27 30  1  0  0  0
 27 91  1  0  0  0
 28 29  2  0  0  0
 28 34  1  0  0  0
 30 31  1  0  0  0
 30 92  1  0  0  0
 30 93  1  0  0  0
 31 32  1  0  0  0
 31 94  1  0  0  0
 31 95  1  0  0  0
 32 33  1  0  0  0
 32 96  1  0  0  0
 32 97  1  0  0  0
 33 98  1  0  0  0
 33 99  1  0  0  0
 33100  1  0  0  0
 34 35  1  0  0  0
 34101  1  0  0  0
 35 36  1  0  0  0
 35 38  1  0  0  0
 35102  1  0  0  0
 36 37  2  0  0  0
 36 43  1  0  0  0
 38 39  1  0  0  0
 38103  1  0  0  0
 38104  1  0  0  0
 39 40  1  0  0  0
 39105  1  0  0  0
 39106  1  0  0  0
 40 41  2  0  0  0
 40 42  1  0  0  0
 42107  1  0  0  0
 42108  1  0  0  0
 43 44  1  0  0  0
 43109  1  0  0  0
 44 45  1  0  0  0
 44 47  1  0  0  0
 44110  1  0  0  0
 45 46  2  0  0  0
 45 54  1  0  0  0
 47 48  1  0  0  0
 47111  1  0  0  0
 47112  1  0  0  0
 48 49  1  0  0  0
 48113  1  0  0  0
 48114  1  0  0  0
 49 50  1  0  0  0
 49115  1  0  0  0
 49116  1  0  0  0
 50 51  1  0  0  0
 50117  1  0  0  0
 51 52  1  0  0  0
 51 53  2  0  0  0
 52118  1  0  0  0
 52119  1  0  0  0
 53120  1  0  0  0
 53123  1  0  0  0
 54121  1  0  0  0
 54122  1  0  0  0
M  CHG  2  26   1  53   1
M  END
> <s_m_source_file>
../3hdk_ligand.sdf

> <i_m_source_file_index>
1

> <s_epik_input>
Tz1DKFtDSDNdKVtOSF1bQ0BASF0oW0NASF0oW09IXSlbQ0gzXSlDKD1PKVtOSF1bQ0BASF0oW0NAQEhdKFtDSDNdKVtDSDJdW0NIM10pQyg9TylbTkhdW0NAQEhdKFtDSDJdW0NIMl1bQ0gyXVtDSDNdKVtDSDJdW05IMitdW0NAQEhdKFtDSDJdW0NIMl1bQ0gyXVtDSDNdKUMoPU8pW05IXVtDQEBIXShbQ0gyXVtDSDJdQyg9TylbTkgyXSlDKD1PKVtOSF1bQ0BIXShDKD1PKVtOSDJdKVtDSDJdW0NIMl1bQ0gyXVtOSF0vQyhbTkgyXSk9TlxbSF0=

> <s_epik_cmdline>
J2VwaWtfYXBwJywgJy1pbWFlJywgJ2xpZ2FuZF9wcm8ubWFlJywgJy1vbWFlJywgJ2xpZ2FuZF9wcmVwLm1hZScsICctbXMnLCAnMScsICctcGgnLCAnNycsICctcGh0JywgJzAuNScsICctbnQn

> <r_epik_Ionization_Penalty>
  0.1921

> <r_epik_Ionization_Penalty_Charging>
  0.1921

> <r_epik_Ionization_Penalty_Neutral>
  0.0000

> <r_epik_State_Penalty>
  0.1818

> <r_epik_Charging_Adjusted_Penalty>
0.37396405168134

> <i_epik_Tot_Q>
2

> <i_epik_Tot_abs_Q>
2

> <s_epik_Chemistry_Notes>
This compound has an imine and may undergo hydrolysis.

$$$$
