3hdm_ligand
                    3D
 Schrodinger Suite 2020-3.
 37 40  0  0  1  0            999 V2000
   39.0200   29.8990   66.5850 C   0  0  0  0  0  0
   36.6620   30.0730   66.5510 C   0  0  0  0  0  0
   34.2760   35.7290   70.3390 C   0  0  0  0  0  0
   34.0840   34.0980   68.6180 C   0  0  0  0  0  0
   33.0440   36.2450   70.0060 C   0  0  0  0  0  0
   36.8460   32.2620   68.4080 C   0  0  0  0  0  0
   37.8680   30.4540   67.1030 C   0  0  0  0  0  0
   32.3410   35.6750   68.9710 C   0  0  0  0  0  0
   36.9310   33.1240   69.4870 C   0  0  0  0  0  0
   31.0330   36.2380   68.6240 C   0  0  0  0  0  0
   37.7680   28.6270   65.0120 C   0  0  0  0  0  0
   38.9780   28.9930   65.5500 C   0  0  0  0  0  0
   36.6060   29.1700   65.5130 C   0  0  0  0  0  0
   32.8490   34.6050   68.2700 C   0  0  0  0  0  0
   36.7560   34.6360   71.1520 C   0  0  0  0  0  0
   38.9790   31.4450   69.0670 C   0  0  0  0  0  0
   34.8060   34.6560   69.6540 C   0  0  0  0  0  0
   37.9060   31.4020   68.2000 C   0  0  0  0  0  0
   36.0990   34.1360   70.0480 C   0  0  0  0  0  0
   38.0660   33.0500   70.2730 C   0  0  0  0  0  0
   37.9410   33.9670   71.2710 N   0  3  0  0  0  0
   39.1210   32.2490   70.1290 N   0  0  0  0  0  0
   30.7070   35.8220   67.3760 O   0  5  0  0  0  0
   30.3780   36.9660   69.3570 O   0  0  0  0  0  0
   39.9846   30.1844   67.0048 H   0  0  0  0  0  0
   35.7368   30.4946   66.9439 H   0  0  0  0  0  0
   34.8414   36.1756   71.1569 H   0  0  0  0  0  0
   34.4934   33.2493   68.0701 H   0  0  0  0  0  0
   32.6322   37.0923   70.5543 H   0  0  0  0  0  0
   35.9777   32.2619   67.7491 H   0  0  0  0  0  0
   37.7280   27.9099   64.1921 H   0  0  0  0  0  0
   39.9018   28.5671   65.1583 H   0  0  0  0  0  0
   35.6432   28.8854   65.0885 H   0  0  0  0  0  0
   32.2825   34.1636   67.4500 H   0  0  0  0  0  0
   36.3944   35.4244   71.8121 H   0  0  0  0  0  0
   39.7964   30.7523   68.8666 H   0  0  0  0  0  0
   38.6294   34.2097   72.0939 H   0  0  0  0  0  0
  1  7  2  0  0  0
  1 12  1  0  0  0
  1 25  1  0  0  0
  2  7  1  0  0  0
  2 13  2  0  0  0
  2 26  1  0  0  0
  3  5  2  0  0  0
  3 17  1  0  0  0
  3 27  1  0  0  0
  4 14  1  0  0  0
  4 17  2  0  0  0
  4 28  1  0  0  0
  5  8  1  0  0  0
  5 29  1  0  0  0
  6  9  2  0  0  0
  6 18  1  0  0  0
  6 30  1  0  0  0
  7 18  1  0  0  0
  8 10  1  0  0  0
  8 14  2  0  0  0
  9 19  1  0  0  0
  9 20  1  0  0  0
 10 23  1  0  0  0
 10 24  2  0  0  0
 11 12  2  0  0  0
 11 13  1  0  0  0
 11 31  1  0  0  0
 12 32  1  0  0  0
 13 33  1  0  0  0
 14 34  1  0  0  0
 15 19  2  0  0  0
 15 21  1  0  0  0
 15 35  1  0  0  0
 16 18  2  0  0  0
 16 22  1  0  0  0
 16 36  1  0  0  0
 17 19  1  0  0  0
 20 21  2  0  0  0
 20 22  1  0  0  0
 21 37  1  0  0  0
M  CHG  2  21   1  23  -1
M  END
> <s_m_source_file>
../3hdm_ligand.sdf

> <i_m_source_file_index>
1

> <s_epik_input>
W2NIXTFbY0hdW2NIXVtjSF1bY0hdYzEtYyhbY0hdMilbY0hdW25IXWMoYzIzKW5bY0hdYzMtYyhbY0hdW2NIXTQpW2NIXVtjSF1jNEMoPU8pW09IXQ==

> <s_epik_cmdline>
J2VwaWtfYXBwJywgJy1pbWFlJywgJ2xpZ2FuZF9wcm8ubWFlJywgJy1vbWFlJywgJ2xpZ2FuZF9wcmVwLm1hZScsICctbXMnLCAnMScsICctcGgnLCAnNycsICctcGh0JywgJzAuNScsICctbnQn

> <r_lp_tautomer_probability>
1

> <r_epik_Ionization_Penalty>
  0.0006

> <r_epik_Ionization_Penalty_Charging>
  0.0006

> <r_epik_Ionization_Penalty_Neutral>
  0.0000

> <r_epik_State_Penalty>
 -0.0000

> <r_epik_Charging_Adjusted_Penalty>
0.000565637368467051

> <i_epik_Tot_Q>
0

> <i_epik_Tot_abs_Q>
2

$$$$
