3hdn_ligand
                    3D
 Schrodinger Suite 2020-3.
 46 50  0  0  1  0            999 V2000
   40.6520   27.1010   66.8400 C   0  0  0  0  0  0
   32.4780   33.2090   67.6890 C   0  0  0  0  0  0
   32.3660   35.1410   69.0830 C   0  0  0  0  0  0
   37.6870   28.5700   65.3080 C   0  0  0  0  0  0
   33.7510   32.9460   68.1490 C   0  0  0  0  0  0
   37.4210   29.5880   66.1990 C   0  0  0  0  0  0
   36.1510   34.2520   70.6560 C   0  0  0  0  0  0
   30.4110   34.5810   67.6550 C   0  0  0  0  0  0
   38.7640   27.7360   65.5160 C   0  0  0  0  0  0
   38.2190   29.7980   67.3070 C   0  0  0  0  0  0
   37.9670   30.8690   68.2560 C   0  0  0  0  0  0
   36.6610   32.5760   69.2280 C   0  0  0  0  0  0
   37.7250   32.7790   70.0870 C   0  0  0  0  0  0
   40.1200   25.8860   64.8570 C   0  0  0  0  0  0
   40.9260   26.0790   65.9580 C   0  0  0  0  0  0
   39.0390   26.7130   64.6340 C   0  0  0  0  0  0
   33.6360   34.8760   69.5430 C   0  0  0  0  0  0
   39.2930   28.9510   67.4980 C   0  0  0  0  0  0
   36.7810   31.5790   68.2710 C   0  0  0  0  0  0
   38.9400   31.1910   69.1790 C   0  0  0  0  0  0
   31.7840   34.3050   68.1550 C   0  0  0  0  0  0
   34.3360   33.7800   69.0800 C   0  0  0  0  0  0
   39.5700   27.9280   66.6190 C   0  0  0  0  0  0
   35.6600   33.5200   69.5970 C   0  0  0  0  0  0
   30.4050   35.7600   66.7370 C   0  0  0  0  0  0
   37.4020   33.7930   70.9370 N   0  3  0  0  0  0
   38.8870   32.1310   70.1220 N   0  0  0  0  0  0
   29.2220   36.4160   66.8310 O   0  5  0  0  0  0
   31.3270   36.0910   66.0040 O   0  0  0  0  0  0
   41.2888   27.2561   67.7109 H   0  0  0  0  0  0
   32.0188   32.5478   66.9542 H   0  0  0  0  0  0
   31.8218   36.0104   69.4520 H   0  0  0  0  0  0
   37.0453   28.4249   64.4390 H   0  0  0  0  0  0
   34.2959   32.0784   67.7769 H   0  0  0  0  0  0
   36.5646   30.2397   66.0259 H   0  0  0  0  0  0
   35.5370   35.0447   71.1083 H   0  0  0  0  0  0
   30.0373   33.7038   67.1065 H   0  0  0  0  0  0
   29.7464   34.7919   68.5058 H   0  0  0  0  0  0
   40.3376   25.0768   64.1599 H   0  0  0  0  0  0
   41.7796   25.4235   66.1308 H   0  0  0  0  0  0
   38.4035   26.5580   63.7621 H   0  0  0  0  0  0
   34.0929   35.5373   70.2792 H   0  0  0  0  0  0
   39.9369   29.0958   68.3655 H   0  0  0  0  0  0
   35.9786   31.3657   67.5647 H   0  0  0  0  0  0
   39.8600   30.6084   69.1315 H   0  0  0  0  0  0
   37.9834   34.2457   71.7537 H   0  0  0  0  0  0
  1 15  2  0  0  0
  1 23  1  0  0  0
  1 30  1  0  0  0
  2  5  2  0  0  0
  2 21  1  0  0  0
  2 31  1  0  0  0
  3 17  1  0  0  0
  3 21  2  0  0  0
  3 32  1  0  0  0
  4  6  2  0  0  0
  4  9  1  0  0  0
  4 33  1  0  0  0
  5 22  1  0  0  0
  5 34  1  0  0  0
  6 10  1  0  0  0
  6 35  1  0  0  0
  7 24  2  0  0  0
  7 26  1  0  0  0
  7 36  1  0  0  0
  8 21  1  0  0  0
  8 25  1  0  0  0
  8 37  1  0  0  0
  8 38  1  0  0  0
  9 16  1  0  0  0
  9 23  2  0  0  0
 10 11  1  0  0  0
 10 18  2  0  0  0
 11 19  2  0  0  0
 11 20  1  0  0  0
 12 13  2  0  0  0
 12 19  1  0  0  0
 12 24  1  0  0  0
 13 26  1  0  0  0
 13 27  1  0  0  0
 14 15  1  0  0  0
 14 16  2  0  0  0
 14 39  1  0  0  0
 15 40  1  0  0  0
 16 41  1  0  0  0
 17 22  2  0  0  0
 17 42  1  0  0  0
 18 23  1  0  0  0
 18 43  1  0  0  0
 19 44  1  0  0  0
 20 27  2  0  0  0
 20 45  1  0  0  0
 22 24  1  0  0  0
 25 28  1  0  0  0
 25 29  2  0  0  0
 26 46  1  0  0  0
M  CHG  2  26   1  28  -1
M  END
> <s_m_source_file>
../3hdn_ligand.sdf

> <i_m_source_file_index>
1

> <s_epik_input>
W2NIXTFbY0hdW2NIXVtjSF1jKGMxMilbY0hdYyhbY0hdW2NIXTIpLWMoW2NIXTMpW2NIXW5jKGMzNClbbkhdW2NIXWM0LWMoW2NIXVtjSF01KVtjSF1bY0hdYzVbQ0gyXUMoPU8pW09IXQ==

> <s_epik_cmdline>
J2VwaWtfYXBwJywgJy1pbWFlJywgJ2xpZ2FuZF9wcm8ubWFlJywgJy1vbWFlJywgJ2xpZ2FuZF9wcmVwLm1hZScsICctbXMnLCAnMScsICctcGgnLCAnNycsICctcGh0JywgJzAuNScsICctbnQn

> <r_epik_Ionization_Penalty>
  0.0218

> <r_epik_Ionization_Penalty_Charging>
  0.0020

> <r_epik_Ionization_Penalty_Neutral>
  0.0198

> <r_epik_State_Penalty>
  0.0158

> <r_epik_Charging_Adjusted_Penalty>
0.0177952605012828

> <i_epik_Tot_Q>
0

> <i_epik_Tot_abs_Q>
2

$$$$
