3hdz_ligand
                    3D
 Schrodinger Suite 2020-3.
 44 46  0  0  1  0            999 V2000
   20.1520   -6.7490   11.9030 N   0  0  0  0  0  0
   18.2550   -5.2510   11.8590 C   0  0  0  0  0  0
   18.2170   -5.1720   14.5640 C   0  0  0  0  0  0
   20.1210   -6.6960   14.6770 C   0  0  0  0  0  0
   21.0540   -7.4740   12.6100 C   0  0  0  0  0  0
   20.2890   -6.8680   10.4530 C   0  0  0  0  0  0
   16.2790   -3.6970   11.7500 C   0  0  0  0  0  0
   15.0450   -3.4270   12.3450 C   0  0  0  0  0  0
   14.0600   -2.7150   11.6600 C   0  0  0  0  0  0
   15.5100   -2.5350    9.7430 C   0  0  0  0  0  0
   14.2860   -2.2640   10.3560 C   0  0  0  0  0  0
   19.2120   -6.0000   12.5470 C   0  0  0  0  0  0
   19.1880   -5.9620   13.9420 C   0  0  0  0  0  0
   17.2990   -4.4750   12.5120 C   0  0  0  0  0  0
   17.3080   -4.4560   13.8670 N   0  3  0  0  0  0
   18.0880   -5.0510   15.8900 N   0  0  0  0  0  0
   21.0650   -7.4580   13.9970 C   0  0  0  0  0  0
   20.1900   -6.7330   15.9980 O   0  0  0  0  0  0
   21.3220   -5.8810    9.8900 C   0  0  0  0  0  0
   21.0790   -4.4000   10.2120 C   0  0  0  0  0  0
   16.4810   -3.2470   10.4430 C   0  0  0  0  0  0
   22.1300   -3.4500    9.6190 C   0  0  0  0  0  0
   18.2557   -5.2742   10.7692 H   0  0  0  0  0  0
   20.9347   -8.5411   12.3712 H   0  0  0  0  0  0
   22.0718   -7.1508   12.3462 H   0  0  0  0  0  0
   20.6135   -7.8876   10.1978 H   0  0  0  0  0  0
   19.3202   -6.6611    9.9749 H   0  0  0  0  0  0
   14.8486   -3.7772   13.3583 H   0  0  0  0  0  0
   13.1062   -2.5086   12.1455 H   0  0  0  0  0  0
   15.7042   -2.1929    8.7265 H   0  0  0  0  0  0
   13.5147   -1.7069    9.8241 H   0  0  0  0  0  0
   18.7739   -5.5893   16.5607 H   0  0  0  0  0  0
   17.2961   -4.4132   16.3096 H   0  0  0  0  0  0
   21.8103   -8.0400   14.5590 H   0  0  0  0  0  0
   19.4755   -6.1550   16.6025 H   0  0  0  0  0  0
   22.3170   -6.1227   10.2919 H   0  0  0  0  0  0
   21.3415   -5.9568    8.7928 H   0  0  0  0  0  0
   20.1017   -4.0932    9.8110 H   0  0  0  0  0  0
   21.0897   -4.2553   11.3024 H   0  0  0  0  0  0
   17.4315   -3.4605    9.9541 H   0  0  0  0  0  0
   21.8844   -2.4137    9.8943 H   0  0  0  0  0  0
   22.1351   -3.5469    8.5233 H   0  0  0  0  0  0
   23.1232   -3.7090   10.0147 H   0  0  0  0  0  0
   16.5622   -3.8472   14.3991 H   0  0  0  0  0  0
  1  5  1  0  0  0
  1  6  1  0  0  0
  1 12  1  0  0  0
  2 12  2  0  0  0
  2 14  1  0  0  0
  2 23  1  0  0  0
  3 13  2  0  0  0
  3 15  1  0  0  0
  3 16  1  0  0  0
  4 13  1  0  0  0
  4 17  2  0  0  0
  4 18  1  0  0  0
  5 17  1  0  0  0
  5 24  1  0  0  0
  5 25  1  0  0  0
  6 19  1  0  0  0
  6 26  1  0  0  0
  6 27  1  0  0  0
  7  8  2  0  0  0
  7 14  1  0  0  0
  7 21  1  0  0  0
  8  9  1  0  0  0
  8 28  1  0  0  0
  9 11  2  0  0  0
  9 29  1  0  0  0
 10 11  1  0  0  0
 10 21  2  0  0  0
 10 30  1  0  0  0
 11 31  1  0  0  0
 12 13  1  0  0  0
 14 15  2  0  0  0
 15 44  1  0  0  0
 16 32  1  0  0  0
 16 33  1  0  0  0
 17 34  1  0  0  0
 18 35  1  0  0  0
 19 20  1  0  0  0
 19 36  1  0  0  0
 19 37  1  0  0  0
 20 22  1  0  0  0
 20 38  1  0  0  0
 20 39  1  0  0  0
 21 40  1  0  0  0
 22 41  1  0  0  0
 22 42  1  0  0  0
 22 43  1  0  0  0
M  CHG  1  15   1
M  END
> <s_m_source_file>
../3hdz_ligand.sdf

> <i_m_source_file_index>
1

> <s_epik_input>
W0NIM11bQ0gyXVtDSDJdW0NIMl1OMVtDSDJdW0NIXT1DKFtPSF0pYyhjMTIpYyhbTkgyXSluYyhbY0hdMiktYzNbY0hdW2NIXVtjSF1bY0hdW2NIXTM=

> <s_epik_cmdline>
J2VwaWtfYXBwJywgJy1pbWFlJywgJ2xpZ2FuZF9wcm8ubWFlJywgJy1vbWFlJywgJ2xpZ2FuZF9wcmVwLm1hZScsICctbXMnLCAnMScsICctcGgnLCAnNycsICctcGh0JywgJzAuNScsICctbnQn

> <r_lp_tautomer_probability>
5e-05

> <r_epik_Ionization_Penalty>
  0.0297

> <r_epik_Ionization_Penalty_Charging>
  0.0028

> <r_epik_Ionization_Penalty_Neutral>
  0.0269

> <r_epik_State_Penalty>
  0.0219

> <r_epik_Charging_Adjusted_Penalty>
0.0247730128213792

> <i_epik_Tot_Q>
1

> <i_epik_Tot_abs_Q>
1

$$$$
