3hec_ligand
                    3D
 Schrodinger Suite 2020-3.
 69 73  0  0  1  0            999 V2000
   18.8480    4.6550  -24.7430 C   0  0  0  0  0  0
   18.8750    3.7470  -23.6800 C   0  0  0  0  0  0
   18.8470    2.3690  -23.9340 C   0  0  0  0  0  0
   18.7860    1.9450  -25.2700 C   0  0  0  0  0  0
   18.7590    2.8520  -26.2740 N   0  0  0  0  0  0
   18.7860    4.1760  -26.0450 C   0  0  0  0  0  0
   18.8550    1.3750  -22.7930 C   0  0  0  0  0  0
   18.5300    1.7620  -21.4830 C   0  0  0  0  0  0
   18.5400    0.8440  -20.4390 C   0  0  0  0  0  0
   18.8500   -0.4240  -20.6970 N   0  0  0  0  0  0
   19.1550   -0.7870  -21.9670 C   0  0  0  0  0  0
   19.1500    0.0720  -23.0060 N   0  0  0  0  0  0
   19.4620   -2.0470  -22.2580 N   0  0  0  0  0  0
   19.7220   -2.9540  -21.3070 C   0  0  0  0  0  0
   21.1470   -3.2260  -21.0730 C   0  0  0  0  0  0
   21.4410   -4.1780  -20.1210 C   0  0  0  0  0  0
   20.4150   -4.8210  -19.4210 C   0  0  0  0  0  0
   19.0420   -4.5870  -19.6150 C   0  0  0  0  0  0
   18.7120   -3.6320  -20.5960 C   0  0  0  0  0  0
   18.1240   -5.3040  -18.8480 N   0  0  0  0  0  0
   16.8210   -5.4380  -19.1430 C   0  0  0  0  0  0
   15.7970   -6.2940  -18.4300 C   0  0  0  0  0  0
   15.8410   -6.4990  -17.0460 C   0  0  0  0  0  0
   14.7940   -7.2450  -16.4810 C   0  0  0  0  0  0
   13.7120   -7.7870  -17.2510 C   0  0  0  0  0  0
   13.6740   -7.5810  -18.6310 C   0  0  0  0  0  0
   14.7180   -6.8240  -19.1900 C   0  0  0  0  0  0
   12.6320   -8.6050  -16.6020 C   0  0  0  0  0  0
   12.5470   -8.7480  -15.3390 N   0  3  1  0  0  0
   12.9640   -7.5860  -14.5590 C   0  0  0  0  0  0
   11.8340   -7.2450  -13.5950 C   0  0  0  0  0  0
   11.6980   -8.3900  -12.6710 N   0  0  3  0  0  0
   11.3590   -8.0920  -11.2850 C   0  0  0  0  0  0
   11.8860   -9.7700  -13.1110 C   0  0  0  0  0  0
   11.9100   -9.8850  -14.6580 C   0  0  0  0  0  0
   16.2940   -4.7560  -20.0070 O   0  0  0  0  0  0
   22.2080   -2.4870  -21.8600 C   0  0  0  0  0  0
   18.8753    5.7277  -24.5517 H   0  0  0  0  0  0
   18.9178    4.1110  -22.6535 H   0  0  0  0  0  0
   18.7602    0.8799  -25.5004 H   0  0  0  0  0  0
   18.7592    4.8742  -26.8816 H   0  0  0  0  0  0
   18.2653    2.7999  -21.2811 H   0  0  0  0  0  0
   18.2974    1.1584  -19.4239 H   0  0  0  0  0  0
   19.5088   -2.3734  -23.3074 H   0  0  0  0  0  0
   22.4803   -4.4316  -19.9121 H   0  0  0  0  0  0
   20.7006   -5.5575  -18.6700 H   0  0  0  0  0  0
   17.6649   -3.4152  -20.8073 H   0  0  0  0  0  0
   18.4523   -5.8102  -17.9282 H   0  0  0  0  0  0
   16.6501   -6.0983  -16.4354 H   0  0  0  0  0  0
   14.8040   -7.4207  -15.4053 H   0  0  0  0  0  0
   12.8719   -7.9883  -19.2466 H   0  0  0  0  0  0
   14.6997   -6.6330  -20.2630 H   0  0  0  0  0  0
   11.6486   -8.1871  -16.8632 H   0  0  0  0  0  0
   12.6951   -9.6440  -16.9577 H   0  0  0  0  0  0
   13.0544   -9.3794  -16.0832 H   0  0  0  0  0  0
   13.8815   -7.8280  -14.0025 H   0  0  0  0  0  0
   13.1578   -6.7406  -15.2355 H   0  0  0  0  0  0
   12.0867   -6.3273  -13.0438 H   0  0  0  0  0  0
   10.9039   -7.0884  -14.1610 H   0  0  0  0  0  0
   11.2614   -7.0038  -11.1572 H   0  0  0  0  0  0
   12.1533   -8.4690  -10.6240 H   0  0  0  0  0  0
   10.4064   -8.5783  -11.0278 H   0  0  0  0  0  0
   12.8415  -10.1519  -12.7221 H   0  0  0  0  0  0
   11.0612  -10.3913  -12.7319 H   0  0  0  0  0  0
   10.8652   -9.9730  -14.9905 H   0  0  0  0  0  0
   12.4521  -10.8101  -14.9037 H   0  0  0  0  0  0
   21.7258   -1.7830  -22.5542 H   0  0  0  0  0  0
   22.8111   -3.2090  -22.4301 H   0  0  0  0  0  0
   22.8581   -1.9320  -21.1676 H   0  0  0  0  0  0
  1  2  2  0  0  0
  1  6  1  0  0  0
  1 38  1  0  0  0
  2  3  1  0  0  0
  2 39  1  0  0  0
  3  4  2  0  0  0
  3  7  1  0  0  0
  4  5  1  0  0  0
  4 40  1  0  0  0
  5  6  2  0  0  0
  6 41  1  0  0  0
  7  8  2  0  0  0
  7 12  1  0  0  0
  8  9  1  0  0  0
  8 42  1  0  0  0
  9 10  2  0  0  0
  9 43  1  0  0  0
 10 11  1  0  0  0
 11 12  2  0  0  0
 11 13  1  0  0  0
 13 14  1  0  0  0
 13 44  1  0  0  0
 14 15  2  0  0  0
 14 19  1  0  0  0
 15 16  1  0  0  0
 15 37  1  0  0  0
 16 17  2  0  0  0
 16 45  1  0  0  0
 17 18  1  0  0  0
 17 46  1  0  0  0
 18 19  2  0  0  0
 18 20  1  0  0  0
 19 47  1  0  0  0
 20 21  1  0  0  0
 20 48  1  0  0  0
 21 22  1  0  0  0
 21 36  2  0  0  0
 22 23  2  0  0  0
 22 27  1  0  0  0
 23 24  1  0  0  0
 23 49  1  0  0  0
 24 25  2  0  0  0
 24 50  1  0  0  0
 25 26  1  0  0  0
 25 28  1  0  0  0
 26 27  2  0  0  0
 26 51  1  0  0  0
 27 52  1  0  0  0
 28 29  1  0  0  0
 28 53  1  0  0  0
 28 54  1  0  0  0
 29 30  1  0  0  0
 29 35  1  0  0  0
 29 55  1  0  0  0
 30 31  1  0  0  0
 30 56  1  0  0  0
 30 57  1  0  0  0
 31 32  1  0  0  0
 31 58  1  0  0  0
 31 59  1  0  0  0
 32 33  1  0  0  0
 32 34  1  0  0  0
 33 60  1  0  0  0
 33 61  1  0  0  0
 33 62  1  0  0  0
 34 35  1  0  0  0
 34 63  1  0  0  0
 34 64  1  0  0  0
 35 65  1  0  0  0
 35 66  1  0  0  0
 37 67  1  0  0  0
 37 68  1  0  0  0
 37 69  1  0  0  0
M  CHG  1  29   1
M  END
> <s_m_source_file>
../3hec_ligand.sdf

> <i_m_source_file_index>
1

> <s_epik_input>
W2NIXTFuW2NIXVtjSF1bY0hdYzEtYzJbY0hdW2NIXW5jKG4yKVtOSF1jM2MoW0NIM10pW2NIXVtjSF1jKFtjSF0zKVtOSF1DKD1PKWM0W2NIXVtjSF1jKFtjSF1bY0hdNClbQ0gyXVtOQEgrXTVbQ0gyXVtDSDJdW05IK10oW0NIM10pW0NIMl1bQ0gyXTU=

> <s_epik_cmdline>
J2VwaWtfYXBwJywgJy1pbWFlJywgJ2xpZ2FuZF9wcm8ubWFlJywgJy1vbWFlJywgJ2xpZ2FuZF9wcmVwLm1hZScsICctbXMnLCAnMScsICctcGgnLCAnNycsICctcGh0JywgJzAuNScsICctbnQn

> <r_lp_tautomer_probability>
1

> <r_epik_Ionization_Penalty>
  0.0173

> <r_epik_Ionization_Penalty_Charging>
  0.0155

> <r_epik_Ionization_Penalty_Neutral>
  0.0019

> <r_epik_State_Penalty>
 -0.0000

> <r_epik_Charging_Adjusted_Penalty>
0.0154526225118262

> <i_epik_Tot_Q>
1

> <i_epik_Tot_abs_Q>
1

$$$$
