3heg_ligand
                    3D
 Schrodinger Suite 2020-3.
 48 50  0  0  1  0            999 V2000
   -1.9780    2.2590   25.9480 C   0  0  0  0  0  0
   -1.2280    3.4280   25.8570 C   0  0  0  0  0  0
   -1.6980    4.5910   26.4520 C   0  0  0  0  0  0
   -2.9200    4.6600   27.1000 C   0  0  0  0  0  0
    0.4480    2.7040   24.2850 C   0  0  0  0  0  0
    2.3380    2.3780   22.9000 C   0  0  0  0  0  0
    1.6560    2.2710   21.6650 C   0  0  0  0  0  0
    2.3330    1.8220   20.5270 C   0  0  0  0  0  0
    3.7070    1.4910   20.6340 C   0  0  0  0  0  0
    4.3820    1.5940   21.8510 C   0  0  0  0  0  0
    3.6920    2.0440   22.9670 C   0  0  0  0  0  0
    4.4640    1.0880   19.5620 O   0  0  0  0  0  0
    3.7130   -1.0290   18.8880 C   0  0  0  0  0  0
    3.4170   -1.9280   17.8630 C   0  0  0  0  0  0
    4.0410   -0.3090   16.2360 C   0  0  0  0  0  0
    4.3280    0.6230   17.2290 C   0  0  0  0  0  0
    4.1010   -1.0340   13.8920 N   0  0  0  0  0  0
    3.2530   -1.0040   12.7050 C   0  0  0  0  0  0
   -3.7100    3.5350   27.1680 C   0  0  0  0  0  0
   -3.2190    2.2650   26.5840 C   0  0  0  0  0  0
   -4.0500    0.9970   26.6980 C   0  0  0  0  0  0
   -5.2380    1.1420   26.2110 F   0  0  0  0  0  0
   -3.4800    0.0010   26.1220 F   0  0  0  0  0  0
   -4.2250    0.6490   27.9280 F   0  0  0  0  0  0
   -5.2760    3.5990   28.0420 Cl  0  0  0  0  0  0
   -0.0220    3.4870   25.2640 N   0  0  0  0  0  0
    1.7480    2.8090   24.0510 N   0  0  0  0  0  0
   -0.2620    1.9460   23.6160 O   0  0  0  0  0  0
    4.1550    0.2360   18.5580 C   0  0  0  0  0  0
    3.5810   -1.5370   16.5780 N   0  0  0  0  0  0
    4.1310    0.0000   14.7620 C   0  0  0  0  0  0
    4.1550    1.1730   14.3910 O   0  0  0  0  0  0
   -1.5931    1.3335   25.5197 H   0  0  0  0  0  0
   -1.0793    5.4873   26.4073 H   0  0  0  0  0  0
   -3.2525    5.5949   27.5512 H   0  0  0  0  0  0
    0.6014    2.5390   21.6006 H   0  0  0  0  0  0
    1.8129    1.7281   19.5737 H   0  0  0  0  0  0
    5.4358    1.3248   21.9236 H   0  0  0  0  0  0
    4.2182    2.1389   23.9168 H   0  0  0  0  0  0
    3.5971   -1.3208   19.9318 H   0  0  0  0  0  0
    3.0587   -2.9312   18.0940 H   0  0  0  0  0  0
    4.6771    1.6241   16.9761 H   0  0  0  0  0  0
    4.7336   -1.9109   14.0940 H   0  0  0  0  0  0
    3.3807   -1.9388   12.1395 H   0  0  0  0  0  0
    3.5382   -0.1507   12.0721 H   0  0  0  0  0  0
    2.2009   -0.8999   13.0086 H   0  0  0  0  0  0
    0.7084    4.2475   25.5774 H   0  0  0  0  0  0
    2.4078    3.2623   24.8054 H   0  0  0  0  0  0
  1  2  2  0  0  0
  1 20  1  0  0  0
  1 33  1  0  0  0
  2  3  1  0  0  0
  2 26  1  0  0  0
  3  4  2  0  0  0
  3 34  1  0  0  0
  4 19  1  0  0  0
  4 35  1  0  0  0
  5 26  1  0  0  0
  5 27  1  0  0  0
  5 28  2  0  0  0
  6  7  2  0  0  0
  6 11  1  0  0  0
  6 27  1  0  0  0
  7  8  1  0  0  0
  7 36  1  0  0  0
  8  9  2  0  0  0
  8 37  1  0  0  0
  9 10  1  0  0  0
  9 12  1  0  0  0
 10 11  2  0  0  0
 10 38  1  0  0  0
 11 39  1  0  0  0
 12 29  1  0  0  0
 13 14  2  0  0  0
 13 29  1  0  0  0
 13 40  1  0  0  0
 14 30  1  0  0  0
 14 41  1  0  0  0
 15 16  1  0  0  0
 15 30  2  0  0  0
 15 31  1  0  0  0
 16 29  2  0  0  0
 16 42  1  0  0  0
 17 18  1  0  0  0
 17 31  1  0  0  0
 17 43  1  0  0  0
 18 44  1  0  0  0
 18 45  1  0  0  0
 18 46  1  0  0  0
 19 20  2  0  0  0
 19 25  1  0  0  0
 20 21  1  0  0  0
 21 22  1  0  0  0
 21 23  1  0  0  0
 21 24  1  0  0  0
 26 47  1  0  0  0
 27 48  1  0  0  0
 31 32  2  0  0  0
M  END
> <s_m_source_file>
../3heg_ligand.sdf

> <i_m_source_file_index>
1

> <s_epik_input>
W2NIXTFbY0hdYyhDbCljKEMoRikoRilGKVtjSF1jMVtOSF1DKD1PKVtOSF1jMltjSF1bY0hdYyhbY0hdW2NIXTIpT2MoW2NIXVtjSF1uMylbY0hdYzNDKD1PKVtOSF1bQ0gzXQ==

> <s_epik_cmdline>
J2VwaWtfYXBwJywgJy1pbWFlJywgJ2xpZ2FuZF9wcm8ubWFlJywgJy1vbWFlJywgJ2xpZ2FuZF9wcmVwLm1hZScsICctbXMnLCAnMScsICctcGgnLCAnNycsICctcGh0JywgJzAuNScsICctbnQn

> <r_lp_tautomer_probability>
1

> <r_epik_Ionization_Penalty>
  0.0154

> <r_epik_Ionization_Penalty_Charging>
  0.0000

> <r_epik_Ionization_Penalty_Neutral>
  0.0154

> <r_epik_State_Penalty>
 -0.0000

> <r_epik_Charging_Adjusted_Penalty>
0

> <i_epik_Tot_Q>
0

> <i_epik_Tot_abs_Q>
0

$$$$
