3hek_ligand
                    3D
 Schrodinger Suite 2020-3.
 53 56  0  0  1  0            999 V2000
   16.9690   -0.4100   48.8480 C   0  0  0  0  0  0
   16.1420   -1.4760   49.3160 C   0  0  0  0  0  0
   14.7780   -1.2440   49.6580 C   0  0  0  0  0  0
   14.2410    0.0590   49.5400 C   0  0  0  0  0  0
   16.7140   -2.8390   49.4510 C   0  0  0  0  0  0
   17.0310   -3.3320   50.7390 N   0  0  0  0  0  0
   17.6240   -4.6650   50.8180 C   0  0  0  0  0  0
   17.8800   -3.5970   52.9560 C   0  0  0  0  0  0
   15.7410   -2.4550   52.8050 C   0  0  0  0  0  0
   13.3210   -2.0780   54.3040 C   0  0  0  0  0  0
   12.0600   -1.9040   55.1180 C   0  0  0  0  0  0
    9.0440   -0.9360   53.2160 C   0  0  0  0  0  0
    9.8710   -1.0440   55.4910 C   0  0  0  0  0  0
   14.5870    2.3950   48.9580 O   0  5  0  0  0  0
   15.0620    1.1230   49.0810 C   0  0  0  0  0  0
   16.4250    0.8980   48.7300 C   0  0  0  0  0  0
   18.2870   -0.6460   48.5160 O   0  0  0  0  0  0
   12.5950    0.3110   49.9670 Cl  0  0  0  0  0  0
   16.9110   -3.4590   48.4080 O   0  0  0  0  0  0
   17.8450   -4.9660   52.2860 C   0  0  0  0  0  0
   17.0730   -2.6250   52.0540 C   0  0  2  0  0  0
   14.6870   -3.4280   52.7600 C   0  0  0  0  0  0
   13.4970   -3.2420   53.4990 C   0  0  0  0  0  0
   10.9750   -1.1050   54.5460 N   0  3  2  0  0  0
   10.3990   -1.6160   53.2880 C   0  0  0  0  0  0
    8.7320   -0.5690   54.6530 C   0  0  0  0  0  0
    7.5690   -1.1170   55.0700 F   0  0  0  0  0  0
    8.6170    0.7660   54.7720 F   0  0  0  0  0  0
   14.3540   -1.0980   54.3500 C   0  0  0  0  0  0
   15.5520   -1.2810   53.6100 C   0  0  0  0  0  0
   14.1529   -2.0654   50.0082 H   0  0  0  0  0  0
   16.9377   -5.3987   50.3701 H   0  0  0  0  0  0
   18.5786   -4.6746   50.2715 H   0  0  0  0  0  0
   17.4251   -3.6661   53.9551 H   0  0  0  0  0  0
   18.9233   -3.2616   53.0506 H   0  0  0  0  0  0
   11.6135   -2.8893   55.3175 H   0  0  0  0  0  0
   12.3038   -1.4122   56.0712 H   0  0  0  0  0  0
    9.1131   -0.0483   52.5700 H   0  0  0  0  0  0
    8.3043   -1.6357   52.7998 H   0  0  0  0  0  0
    9.6946   -2.0440   55.9138 H   0  0  0  0  0  0
   10.1198   -0.3422   56.3007 H   0  0  0  0  0  0
   17.0445    1.7213   48.3744 H   0  0  0  0  0  0
   18.7045   -1.6595   48.6086 H   0  0  0  0  0  0
   17.0173   -5.5854   52.6619 H   0  0  0  0  0  0
   18.7942   -5.5077   52.4104 H   0  0  0  0  0  0
   17.4517   -1.6172   51.8283 H   0  0  0  0  0  0
   14.8059   -4.3220   52.1479 H   0  0  0  0  0  0
   12.7084   -3.9931   53.4535 H   0  0  0  0  0  0
   11.4400   -0.1289   54.3436 H   0  0  0  0  0  0
   10.2612   -2.7072   53.3038 H   0  0  0  0  0  0
   10.9976   -1.3347   52.4091 H   0  0  0  0  0  0
   14.2239   -0.2021   54.9571 H   0  0  0  0  0  0
   16.3349   -0.5238   53.6534 H   0  0  0  0  0  0
  1  2  2  0  0  0
  1 16  1  0  0  0
  1 17  1  0  0  0
  2  3  1  0  0  0
  2  5  1  0  0  0
  3  4  2  0  0  0
  3 31  1  0  0  0
  4 15  1  0  0  0
  4 18  1  0  0  0
  5  6  1  0  0  0
  5 19  2  0  0  0
  6  7  1  0  0  0
  6 21  1  0  0  0
  7 20  1  0  0  0
  7 32  1  0  0  0
  7 33  1  0  0  0
  8 20  1  0  0  0
  8 21  1  0  0  0
  8 34  1  0  0  0
  8 35  1  0  0  0
  9 21  1  0  0  0
  9 22  2  0  0  0
  9 30  1  0  0  0
 10 11  1  0  0  0
 10 23  2  0  0  0
 10 29  1  0  0  0
 11 24  1  0  0  0
 11 36  1  0  0  0
 11 37  1  0  0  0
 12 25  1  0  0  0
 12 26  1  0  0  0
 12 38  1  0  0  0
 12 39  1  0  0  0
 13 24  1  0  0  0
 13 26  1  0  0  0
 13 40  1  0  0  0
 13 41  1  0  0  0
 14 15  1  0  0  0
 15 16  2  0  0  0
 16 42  1  0  0  0
 17 43  1  0  0  0
 20 44  1  0  0  0
 20 45  1  0  0  0
 21 46  1  0  0  0
 22 23  1  0  0  0
 22 47  1  0  0  0
 23 48  1  0  0  0
 24 25  1  0  0  0
 24 49  1  0  0  0
 25 50  1  0  0  0
 25 51  1  0  0  0
 26 27  1  0  0  0
 26 28  1  0  0  0
 29 30  2  0  0  0
 29 52  1  0  0  0
 30 53  1  0  0  0
M  CHG  2  14  -1  24   1
M  END
> <s_m_source_file>
../3hek_ligand.sdf

> <i_m_source_file_index>
1

> <s_epik_input>
W09IXWMoW2NIXTEpYyhDbClbY0hdYyhjMVtPSF0pQyg9TylOMltDSDJdW0NIMl1bQ0gyXVtDQEBIXTJjM1tjSF1bY0hdYyhbY0hdW2NIXTMpW0NIMl1bTkBIK10oW0NIMl00KVtDSDJdW0NIMl1DNChGKUY=

> <s_epik_cmdline>
J2VwaWtfYXBwJywgJy1pbWFlJywgJ2xpZ2FuZF9wcm8ubWFlJywgJy1vbWFlJywgJ2xpZ2FuZF9wcmVwLm1hZScsICctbXMnLCAnMScsICctcGgnLCAnNycsICctcGh0JywgJzAuNScsICctbnQn

> <r_lp_tautomer_probability>
1

> <r_epik_Ionization_Penalty>
  0.5382

> <r_epik_Ionization_Penalty_Charging>
  0.5327

> <r_epik_Ionization_Penalty_Neutral>
  0.0055

> <r_epik_State_Penalty>
 -0.0000

> <r_epik_Charging_Adjusted_Penalty>
0.532702979005741

> <i_epik_Tot_Q>
0

> <i_epik_Tot_abs_Q>
2

$$$$
