3hf6_ligand
                    3D
 Schrodinger Suite 2020-3.
 56 59  0  0  1  0            999 V2000
   15.7660    5.8280   19.3850 O   0  5  0  0  0  0
   15.2430    5.1580   18.4630 C   0  0  0  0  0  0
   15.4650    5.3890   17.2530 O   0  0  0  0  0  0
   14.2970    4.0460   18.8170 C   0  0  1  0  0  0
   14.4200    3.7060   20.2280 N   0  3  0  0  0  0
   12.8890    4.5660   18.5400 C   0  0  0  0  0  0
   11.8000    3.5370   18.7530 C   0  0  0  0  0  0
   10.8560    3.7370   19.7670 C   0  0  0  0  0  0
    9.8390    2.8030   19.9610 C   0  0  0  0  0  0
    9.7600    1.6670   19.1480 C   0  0  0  0  0  0
   10.6960    1.4780   18.1290 C   0  0  0  0  0  0
   11.7110    2.4150   17.9330 C   0  0  0  0  0  0
    8.6600    0.6830   19.3470 C   0  0  0  0  0  0
    7.6950    0.9280   20.2640 N   0  0  0  0  0  0
    6.6770    0.0520   20.4350 C   0  0  0  0  0  0
    6.6160   -1.0690   19.6780 N   0  0  0  0  0  0
    7.5790   -1.3140   18.7530 C   0  0  0  0  0  0
    7.5430   -2.4350   17.9930 N   0  0  0  0  0  0
    8.5910   -0.4340   18.5890 N   0  0  0  0  0  0
    5.7140    0.3000   21.3590 N   0  0  0  0  0  0
    5.6300    1.5680   22.0790 C   0  0  2  0  0  0
    4.7050    1.3810   23.2870 C   0  0  0  0  0  0
    5.1680    2.7030   21.2220 C   0  0  0  0  0  0
    4.7550    2.4880   19.8990 C   0  0  0  0  0  0
    4.3230    3.5190   19.0650 C   0  0  0  0  0  0
    4.2940    4.8190   19.5540 C   0  0  0  0  0  0
    3.8710    5.8840   18.7630 C   0  0  0  0  0  0
    3.8610    7.1700   19.3020 C   0  0  0  0  0  0
    4.2730    7.4030   20.6220 C   0  0  0  0  0  0
    4.7080    6.3660   21.4490 C   0  0  0  0  0  0
    4.7330    5.0680   20.9550 C   0  0  0  0  0  0
    5.1610    4.0000   21.7420 C   0  0  0  0  0  0
   14.5381    3.1272   18.2623 H   0  0  0  0  0  0
   15.4347    3.3312   20.4277 H   0  0  0  0  0  0
   13.6851    2.9284   20.4832 H   0  0  0  0  0  0
   14.2331    4.6017   20.8386 H   0  0  0  0  0  0
   12.6721    5.4115   19.2094 H   0  0  0  0  0  0
   12.8204    4.8995   17.4940 H   0  0  0  0  0  0
   10.9157    4.6202   20.4030 H   0  0  0  0  0  0
    9.1025    2.9585   20.7493 H   0  0  0  0  0  0
   10.6337    0.5991   17.4873 H   0  0  0  0  0  0
   12.4379    2.2681   17.1341 H   0  0  0  0  0  0
    6.7237   -3.1583   18.1182 H   0  0  0  0  0  0
    8.3331   -2.6219   17.2508 H   0  0  0  0  0  0
    4.9804   -0.4951   21.5580 H   0  0  0  0  0  0
    6.6600    1.8210   22.3707 H   0  0  0  0  0  0
    5.0667    0.5418   23.8993 H   0  0  0  0  0  0
    3.6843    1.1667   22.9375 H   0  0  0  0  0  0
    4.7004    2.3003   23.8910 H   0  0  0  0  0  0
    4.7724    1.4716   19.5058 H   0  0  0  0  0  0
    4.0119    3.3074   18.0420 H   0  0  0  0  0  0
    3.5515    5.7145   17.7348 H   0  0  0  0  0  0
    3.5279    8.0068   18.6880 H   0  0  0  0  0  0
    4.2531    8.4205   21.0125 H   0  0  0  0  0  0
    5.0246    6.5726   22.4713 H   0  0  0  0  0  0
    5.4911    4.1771   22.7656 H   0  0  0  0  0  0
  1  2  1  0  0  0
  2  3  2  0  0  0
  2  4  1  0  0  0
  4  5  1  0  0  0
  4  6  1  0  0  0
  4 33  1  0  0  0
  5 34  1  0  0  0
  5 35  1  0  0  0
  5 36  1  0  0  0
  6  7  1  0  0  0
  6 37  1  0  0  0
  6 38  1  0  0  0
  7  8  2  0  0  0
  7 12  1  0  0  0
  8  9  1  0  0  0
  8 39  1  0  0  0
  9 10  2  0  0  0
  9 40  1  0  0  0
 10 11  1  0  0  0
 10 13  1  0  0  0
 11 12  2  0  0  0
 11 41  1  0  0  0
 12 42  1  0  0  0
 13 14  2  0  0  0
 13 19  1  0  0  0
 14 15  1  0  0  0
 15 16  2  0  0  0
 15 20  1  0  0  0
 16 17  1  0  0  0
 17 18  1  0  0  0
 17 19  2  0  0  0
 18 43  1  0  0  0
 18 44  1  0  0  0
 20 21  1  0  0  0
 20 45  1  0  0  0
 21 22  1  0  0  0
 21 23  1  0  0  0
 21 46  1  0  0  0
 22 47  1  0  0  0
 22 48  1  0  0  0
 22 49  1  0  0  0
 23 24  2  0  0  0
 23 32  1  0  0  0
 24 25  1  0  0  0
 24 50  1  0  0  0
 25 26  2  0  0  0
 25 51  1  0  0  0
 26 27  1  0  0  0
 26 31  1  0  0  0
 27 28  2  0  0  0
 27 52  1  0  0  0
 28 29  1  0  0  0
 28 53  1  0  0  0
 29 30  2  0  0  0
 29 54  1  0  0  0
 30 31  1  0  0  0
 30 55  1  0  0  0
 31 32  2  0  0  0
 32 56  1  0  0  0
M  CHG  2   1  -1   5   1
M  END
> <s_m_source_file>
../3hf6_ligand.sdf

> <i_m_source_file_index>
1

> <s_epik_input>
W09IXUMoPU8pW0NAQEhdKFtOSDMrXSlbQ0gyXWMxW2NIXVtjSF1jKFtjSF1bY0hdMSktYzJuYyhuYyhuMilbTkgyXSlbTkhdW0NASF0oW0NIM10pYyhbY0hdW2NIXTMpW2NIXWMoYzM0KVtjSF1bY0hdW2NIXVtjSF00

> <s_epik_cmdline>
J2VwaWtfYXBwJywgJy1pbWFlJywgJ2xpZ2FuZF9wcm8ubWFlJywgJy1vbWFlJywgJ2xpZ2FuZF9wcmVwLm1hZScsICctbXMnLCAnMScsICctcGgnLCAnNycsICctcGh0JywgJzAuNScsICctbnQn

> <r_lp_tautomer_probability>
1

> <r_epik_Ionization_Penalty>
  0.0042

> <r_epik_Ionization_Penalty_Charging>
  0.0030

> <r_epik_Ionization_Penalty_Neutral>
  0.0012

> <r_epik_State_Penalty>
 -0.0000

> <r_epik_Charging_Adjusted_Penalty>
0.00304787057466445

> <i_epik_Tot_Q>
0

> <i_epik_Tot_abs_Q>
2

$$$$
