3hfb_ligand
                    3D
 Schrodinger Suite 2020-3.
 59 62  0  0  1  0            999 V2000
   16.0630    5.9860   19.2230 O   0  5  0  0  0  0
   15.4590    5.2980   18.3710 C   0  0  0  0  0  0
   15.6400    5.4490   17.1480 O   0  0  0  0  0  0
   14.4830    4.2540   18.8360 C   0  0  1  0  0  0
   14.6730    3.9930   20.2560 N   0  3  0  0  0  0
   13.0670    4.7470   18.5610 C   0  0  0  0  0  0
   12.0220    3.6870   18.8300 C   0  0  0  0  0  0
   11.8420    2.6290   17.9430 C   0  0  0  0  0  0
   10.8710    1.6600   18.2030 C   0  0  0  0  0  0
   10.0710    1.7510   19.3470 C   0  0  0  0  0  0
   10.2620    2.8060   20.2390 C   0  0  0  0  0  0
   11.2330    3.7700   19.9810 C   0  0  0  0  0  0
    9.0410    0.7130   19.6260 C   0  0  0  0  0  0
    8.8310   -0.3130   18.7630 N   0  0  0  0  0  0
    7.9100   -1.2530   19.0050 C   0  0  0  0  0  0
    7.1540   -1.1840   20.1670 C   0  0  0  0  0  0
    7.3640   -0.1650   21.0310 N   0  0  0  0  0  0
    8.2840    0.7780   20.7890 C   0  0  0  0  0  0
    6.2210   -2.1260   20.4420 N   0  0  0  0  0  0
    5.8650   -2.4200   21.8260 C   0  0  0  0  0  0
    5.1650   -3.7610   21.9390 C   0  0  0  0  0  0
    3.7380   -3.8550   22.3810 C   0  0  0  0  0  0
    3.1370   -5.1110   22.4740 C   0  0  0  0  0  0
    3.8690   -6.2550   22.1600 C   0  0  0  0  0  0
    5.1990   -6.1710   21.7430 C   0  0  0  0  0  0
    5.8450   -4.9400   21.6360 C   0  0  0  0  0  0
    2.9570   -2.6340   22.7240 C   0  0  0  0  0  0
    2.3090   -1.9230   21.7170 C   0  0  0  0  0  0
    1.5760   -0.7780   22.0300 C   0  0  0  0  0  0
    1.4790   -0.3290   23.3470 C   0  0  0  0  0  0
    2.1110   -1.0070   24.3920 C   0  0  0  0  0  0
    2.8560   -2.1560   24.1350 C   0  0  0  0  0  0
    3.5380   -2.8860   25.2730 C   0  0  0  0  0  0
   14.6704    3.2974   18.3262 H   0  0  0  0  0  0
   15.7000    3.6391   20.4295 H   0  0  0  0  0  0
   13.9594    3.2237   20.5861 H   0  0  0  0  0  0
   14.5032    4.9190   20.8249 H   0  0  0  0  0  0
   12.8475    5.6103   19.2064 H   0  0  0  0  0  0
   12.9815    5.0467   17.5061 H   0  0  0  0  0  0
   12.4583    2.5573   17.0468 H   0  0  0  0  0  0
   10.7356    0.8286   17.5113 H   0  0  0  0  0  0
    9.6507    2.8759   21.1387 H   0  0  0  0  0  0
   11.3787    4.5935   20.6800 H   0  0  0  0  0  0
    7.7548   -2.0660   18.2957 H   0  0  0  0  0  0
    8.4375    1.5904   21.4993 H   0  0  0  0  0  0
    5.7313   -2.6698   19.6207 H   0  0  0  0  0  0
    6.7765   -2.4469   22.4412 H   0  0  0  0  0  0
    5.1898   -1.6386   22.2049 H   0  0  0  0  0  0
    2.0978   -5.1973   22.7914 H   0  0  0  0  0  0
    3.3945   -7.2329   22.2415 H   0  0  0  0  0  0
    5.7417   -7.0837   21.4968 H   0  0  0  0  0  0
    6.8856   -4.8992   21.3142 H   0  0  0  0  0  0
    2.3746   -2.2615   20.6830 H   0  0  0  0  0  0
    1.0727   -0.2273   21.2353 H   0  0  0  0  0  0
    0.8991    0.5679   23.5648 H   0  0  0  0  0  0
    2.0210   -0.6356   25.4128 H   0  0  0  0  0  0
    4.0739   -3.7617   24.8780 H   0  0  0  0  0  0
    2.7829   -3.2161   26.0016 H   0  0  0  0  0  0
    4.2526   -2.2105   25.7660 H   0  0  0  0  0  0
  1  2  1  0  0  0
  2  3  2  0  0  0
  2  4  1  0  0  0
  4  5  1  0  0  0
  4  6  1  0  0  0
  4 34  1  0  0  0
  5 35  1  0  0  0
  5 36  1  0  0  0
  5 37  1  0  0  0
  6  7  1  0  0  0
  6 38  1  0  0  0
  6 39  1  0  0  0
  7  8  2  0  0  0
  7 12  1  0  0  0
  8  9  1  0  0  0
  8 40  1  0  0  0
  9 10  2  0  0  0
  9 41  1  0  0  0
 10 11  1  0  0  0
 10 13  1  0  0  0
 11 12  2  0  0  0
 11 42  1  0  0  0
 12 43  1  0  0  0
 13 14  2  0  0  0
 13 18  1  0  0  0
 14 15  1  0  0  0
 15 16  2  0  0  0
 15 44  1  0  0  0
 16 17  1  0  0  0
 16 19  1  0  0  0
 17 18  2  0  0  0
 18 45  1  0  0  0
 19 20  1  0  0  0
 19 46  1  0  0  0
 20 21  1  0  0  0
 20 47  1  0  0  0
 20 48  1  0  0  0
 21 22  2  0  0  0
 21 26  1  0  0  0
 22 23  1  0  0  0
 22 27  1  0  0  0
 23 24  2  0  0  0
 23 49  1  0  0  0
 24 25  1  0  0  0
 24 50  1  0  0  0
 25 26  2  0  0  0
 25 51  1  0  0  0
 26 52  1  0  0  0
 27 28  2  0  0  0
 27 32  1  0  0  0
 28 29  1  0  0  0
 28 53  1  0  0  0
 29 30  2  0  0  0
 29 54  1  0  0  0
 30 31  1  0  0  0
 30 55  1  0  0  0
 31 32  2  0  0  0
 31 56  1  0  0  0
 32 33  1  0  0  0
 33 57  1  0  0  0
 33 58  1  0  0  0
 33 59  1  0  0  0
M  CHG  2   1  -1   5   1
M  END
> <s_m_source_file>
../3hfb_ligand.sdf

> <i_m_source_file_index>
1

> <s_epik_input>
W09IXUMoPU8pW0NAQEhdKFtOSDMrXSlbQ0gyXWMxW2NIXVtjSF1jKFtjSF1bY0hdMSktYzJuW2NIXWMobltjSF0yKVtOSF1bQ0gyXWMzYyhbY0hdW2NIXVtjSF1bY0hdMyktYzRbY0hdW2NIXVtjSF1bY0hdYzRbQ0gzXQ==

> <s_epik_cmdline>
J2VwaWtfYXBwJywgJy1pbWFlJywgJ2xpZ2FuZF9wcm8ubWFlJywgJy1vbWFlJywgJ2xpZ2FuZF9wcmVwLm1hZScsICctbXMnLCAnMScsICctcGgnLCAnNycsICctcGh0JywgJzAuNScsICctbnQn

> <r_lp_tautomer_probability>
1

> <r_epik_Ionization_Penalty>
  0.0033

> <r_epik_Ionization_Penalty_Charging>
  0.0030

> <r_epik_Ionization_Penalty_Neutral>
  0.0002

> <r_epik_State_Penalty>
 -0.0000

> <r_epik_Charging_Adjusted_Penalty>
0.00304638086777021

> <i_epik_Tot_Q>
0

> <i_epik_Tot_abs_Q>
2

$$$$
