3hg1_ligand
                    3D
 Schrodinger Suite 2020-3.
148147  0  0  1  0            999 V2000
   48.7280  -14.8800   30.5160 N   0  3  0  0  0  0
   48.0350  -13.6560   30.9860 C   0  0  2  0  0  0
   48.7390  -12.3980   30.4770 C   0  0  0  0  0  0
   49.8160  -12.0760   30.9250 O   0  0  0  0  0  0
   48.0120  -13.6390   32.5080 C   0  0  0  0  0  0
   47.2770  -12.4460   33.1100 C   0  0  0  0  0  0
   45.7850  -12.5010   32.8780 C   0  0  0  0  0  0
   45.2610  -13.6120   32.5890 O   0  5  0  0  0  0
   45.1300  -11.4410   32.9970 O   0  0  0  0  0  0
   48.1190  -11.6970   29.5350 N   0  0  0  0  0  0
   48.7070  -10.4580   28.9950 C   0  0  2  0  0  0
   48.6750   -9.3510   30.0320 C   0  0  0  0  0  0
   47.8150   -9.3330   30.8980 O   0  0  0  0  0  0
   47.9560   -9.9980   27.7370 C   0  0  0  0  0  0
   48.1490  -10.8290   26.4690 C   0  0  0  0  0  0
   47.2540  -10.3050   25.3440 C   0  0  0  0  0  0
   49.6190  -10.8130   26.0420 C   0  0  0  0  0  0
   49.6190   -8.4210   29.9380 N   0  0  0  0  0  0
   49.6670   -7.3100   30.8720 C   0  0  2  0  0  0
   48.4030   -6.4790   30.7170 C   0  0  0  0  0  0
   48.0200   -6.1250   29.6180 O   0  0  0  0  0  0
   50.9010   -6.4630   30.6300 C   0  0  0  0  0  0
   47.7570   -6.1780   31.8310 N   0  0  0  0  0  0
   46.5160   -5.3980   31.8140 C   0  0  0  0  0  0
   46.7240   -3.9210   32.0620 C   0  0  0  0  0  0
   45.7900   -3.1350   31.9640 O   0  0  0  0  0  0
   47.9530   -3.5500   32.3880 N   0  0  0  0  0  0
   48.2970   -2.1590   32.6500 C   0  0  2  0  0  0
   49.7670   -1.8960   32.3190 C   0  0  0  0  0  0
   50.4610   -2.7570   31.7970 O   0  0  0  0  0  0
   48.0500   -1.7790   34.1460 C   0  0  2  0  0  0
   48.8740   -2.6770   35.0700 C   0  0  0  0  0  0
   46.5820   -1.9010   34.4990 C   0  0  0  0  0  0
   48.6960   -2.3470   36.5490 C   0  0  0  0  0  0
   50.2230   -0.6970   32.6150 N   0  0  0  0  0  0
   51.6230   -0.3290   32.3870 C   0  0  0  0  0  0
   52.0600   -0.3390   30.9310 C   0  0  0  0  0  0
   53.2370   -0.4560   30.6380 O   0  0  0  0  0  0
   51.1090   -0.2020   30.0270 N   0  0  0  0  0  0
   51.4130   -0.1860   28.6230 C   0  0  2  0  0  0
   50.8820    1.0630   27.9850 C   0  0  0  0  0  0
   49.6780    1.2550   27.8900 O   0  0  0  0  0  0
   50.8530   -1.3850   27.9440 C   0  0  2  0  0  0
   51.5950   -2.6250   28.4300 C   0  0  0  0  0  0
   50.9870   -1.2510   26.4550 C   0  0  0  0  0  0
   51.1890   -3.8640   27.7530 C   0  0  0  0  0  0
   51.7920    1.9160   27.5310 N   0  0  0  0  0  0
   51.4130    3.1730   26.9410 C   0  0  2  0  0  0
   52.1770    3.4910   25.6770 C   0  0  0  0  0  0
   53.0280    2.7450   25.2510 O   0  0  0  0  0  0
   51.6580    4.2810   27.9370 C   0  0  0  0  0  0
   51.0140    4.0680   29.2890 C   0  0  0  0  0  0
   51.3270    5.2590   30.1970 C   0  0  0  0  0  0
   49.5180    3.8790   29.1230 C   0  0  0  0  0  0
   51.8540    4.6260   25.0910 N   0  0  0  0  0  0
   52.4990    5.0700   23.9120 C   0  0  2  0  0  0
   53.8820    5.5620   24.2650 C   0  0  0  0  0  0
   54.0670    6.2090   25.2960 O   0  0  0  0  0  0
   51.7350    6.2170   23.2900 C   0  0  2  0  0  0
   50.3870    5.8080   23.0300 O   0  0  0  0  0  0
   52.4130    6.6750   21.9660 C   0  0  0  0  0  0
   54.8620    5.2540   23.4140 N   0  0  0  0  0  0
   56.2420    5.7030   23.6410 C   0  0  2  0  0  0
   56.3670    7.2210   23.3990 C   0  0  0  0  0  0
   57.1810    7.8970   24.0320 O   0  0  0  0  0  0
   57.2370    4.9750   22.7150 C   0  0  0  0  0  0
   57.3390    3.5240   23.0790 C   0  0  0  0  0  0
   56.8260    5.1380   21.2740 C   0  0  0  0  0  0
   55.6630    7.8050   22.5670 O   0  5  0  0  0  0
   48.7447  -14.8925   29.4162 H   0  0  0  0  0  0
   48.1939  -15.7682   30.8847 H   0  0  0  0  0  0
   49.7593  -14.8872   30.8985 H   0  0  0  0  0  0
   47.0126  -13.6939   30.5820 H   0  0  0  0  0  0
   47.5109  -14.5460   32.8773 H   0  0  0  0  0  0
   49.0431  -13.6084   32.8900 H   0  0  0  0  0  0
   47.4478  -12.4203   34.1964 H   0  0  0  0  0  0
   47.6537  -11.5168   32.6575 H   0  0  0  0  0  0
   47.1500  -12.0558   29.1578 H   0  0  0  0  0  0
   49.7504  -10.7076   28.7522 H   0  0  0  0  0  0
   46.8736  -10.0058   27.9328 H   0  0  0  0  0  0
   48.2735   -8.9785   27.4726 H   0  0  0  0  0  0
   47.8595  -11.8681   26.6843 H   0  0  0  0  0  0
   46.2040  -10.3250   25.6713 H   0  0  0  0  0  0
   47.3730  -10.9410   24.4544 H   0  0  0  0  0  0
   47.5416   -9.2723   25.0975 H   0  0  0  0  0  0
   50.2437  -11.1929   26.8639 H   0  0  0  0  0  0
   49.9191   -9.7829   25.7992 H   0  0  0  0  0  0
   49.7504  -11.4517   25.1561 H   0  0  0  0  0  0
   50.3709   -8.5007   29.1390 H   0  0  0  0  0  0
   49.7262   -7.7405   31.8825 H   0  0  0  0  0  0
   51.8010   -7.0844   30.7474 H   0  0  0  0  0  0
   50.9277   -5.6379   31.3570 H   0  0  0  0  0  0
   50.8695   -6.0522   29.6101 H   0  0  0  0  0  0
   48.1733   -6.5285   32.7870 H   0  0  0  0  0  0
   46.0320   -5.5004   30.8315 H   0  0  0  0  0  0
   45.8386   -5.7696   32.5970 H   0  0  0  0  0  0
   48.7252   -4.3302   32.4584 H   0  0  0  0  0  0
   47.6372   -1.5975   31.9722 H   0  0  0  0  0  0
   48.3468   -0.7325   34.3097 H   0  0  0  0  0  0
   48.5734   -3.7253   34.9262 H   0  0  0  0  0  0
   49.9422   -2.5660   34.8322 H   0  0  0  0  0  0
   45.9901   -1.2549   33.8340 H   0  0  0  0  0  0
   46.4290   -1.5908   35.5432 H   0  0  0  0  0  0
   46.2610   -2.9459   34.3761 H   0  0  0  0  0  0
   49.3138   -3.0274   37.1534 H   0  0  0  0  0  0
   47.6385   -2.4675   36.8269 H   0  0  0  0  0  0
   49.0074   -1.3081   36.7329 H   0  0  0  0  0  0
   49.5243    0.0366   33.0435 H   0  0  0  0  0  0
   51.8002    0.6896   32.7625 H   0  0  0  0  0  0
   52.2788   -1.0347   32.9180 H   0  0  0  0  0  0
   50.0674   -0.0989   30.3654 H   0  0  0  0  0  0
   52.5105   -0.2127   28.5546 H   0  0  0  0  0  0
   49.7821   -1.4544   28.1856 H   0  0  0  0  0  0
   52.6739   -2.4978   28.2574 H   0  0  0  0  0  0
   51.4097   -2.7653   29.5052 H   0  0  0  0  0  0
   50.4478   -0.3535   26.1176 H   0  0  0  0  0  0
   50.5608   -2.1399   25.9670 H   0  0  0  0  0  0
   52.0506   -1.1613   26.1892 H   0  0  0  0  0  0
   51.7664   -4.7087   28.1570 H   0  0  0  0  0  0
   51.3805   -3.7717   26.6737 H   0  0  0  0  0  0
   50.1162   -4.0392   27.9214 H   0  0  0  0  0  0
   52.8550    1.6452   27.6130 H   0  0  0  0  0  0
   50.3489    3.0434   26.6941 H   0  0  0  0  0  0
   52.7391    4.3842   28.1121 H   0  0  0  0  0  0
   51.2591    5.2260   27.5397 H   0  0  0  0  0  0
   51.4194    3.1541   29.7478 H   0  0  0  0  0  0
   52.4171    5.3679   30.2961 H   0  0  0  0  0  0
   50.8836    5.0899   31.1894 H   0  0  0  0  0  0
   50.9053    6.1753   29.7582 H   0  0  0  0  0  0
   49.3279    3.0171   28.4665 H   0  0  0  0  0  0
   49.0815    4.7841   28.6755 H   0  0  0  0  0  0
   49.0598    3.6987   30.1067 H   0  0  0  0  0  0
   51.0575    5.2342   25.5446 H   0  0  0  0  0  0
   52.5180    4.1950   23.2457 H   0  0  0  0  0  0
   51.6643    7.0427   24.0134 H   0  0  0  0  0  0
   49.7519    5.4511   23.8542 H   0  0  0  0  0  0
   53.4472    6.9875   22.1727 H   0  0  0  0  0  0
   51.8525    7.5205   21.5405 H   0  0  0  0  0  0
   52.4184    5.8407   21.2491 H   0  0  0  0  0  0
   54.6189    4.6504   22.5271 H   0  0  0  0  0  0
   56.4380    5.4460   24.6924 H   0  0  0  0  0  0
   58.2421    5.4066   22.8314 H   0  0  0  0  0  0
   57.6397    3.4307   24.1330 H   0  0  0  0  0  0
   58.0898    3.0374   22.4391 H   0  0  0  0  0  0
   56.3624    3.0396   22.9320 H   0  0  0  0  0  0
   56.7580    6.2087   21.0310 H   0  0  0  0  0  0
   55.8463    4.6633   21.1162 H   0  0  0  0  0  0
   57.5737    4.6610   20.6233 H   0  0  0  0  0  0
  1  2  1  0  0  0
  1 70  1  0  0  0
  1 71  1  0  0  0
  1 72  1  0  0  0
  2  3  1  0  0  0
  2  5  1  0  0  0
  2 73  1  0  0  0
  3  4  2  0  0  0
  3 10  1  0  0  0
  5  6  1  0  0  0
  5 74  1  0  0  0
  5 75  1  0  0  0
  6  7  1  0  0  0
  6 76  1  0  0  0
  6 77  1  0  0  0
  7  8  1  0  0  0
  7  9  2  0  0  0
 10 11  1  0  0  0
 10 78  1  0  0  0
 11 12  1  0  0  0
 11 14  1  0  0  0
 11 79  1  0  0  0
 12 13  2  0  0  0
 12 18  1  0  0  0
 14 15  1  0  0  0
 14 80  1  0  0  0
 14 81  1  0  0  0
 15 16  1  0  0  0
 15 17  1  0  0  0
 15 82  1  0  0  0
 16 83  1  0  0  0
 16 84  1  0  0  0
 16 85  1  0  0  0
 17 86  1  0  0  0
 17 87  1  0  0  0
 17 88  1  0  0  0
 18 19  1  0  0  0
 18 89  1  0  0  0
 19 20  1  0  0  0
 19 22  1  0  0  0
 19 90  1  0  0  0
 20 21  2  0  0  0
 20 23  1  0  0  0
 22 91  1  0  0  0
 22 92  1  0  0  0
 22 93  1  0  0  0
 23 24  1  0  0  0
 23 94  1  0  0  0
 24 25  1  0  0  0
 24 95  1  0  0  0
 24 96  1  0  0  0
 25 26  2  0  0  0
 25 27  1  0  0  0
 27 28  1  0  0  0
 27 97  1  0  0  0
 28 29  1  0  0  0
 28 31  1  0  0  0
 28 98  1  0  0  0
 29 30  2  0  0  0
 29 35  1  0  0  0
 31 32  1  0  0  0
 31 33  1  0  0  0
 31 99  1  0  0  0
 32 34  1  0  0  0
 32100  1  0  0  0
 32101  1  0  0  0
 33102  1  0  0  0
 33103  1  0  0  0
 33104  1  0  0  0
 34105  1  0  0  0
 34106  1  0  0  0
 34107  1  0  0  0
 35 36  1  0  0  0
 35108  1  0  0  0
 36 37  1  0  0  0
 36109  1  0  0  0
 36110  1  0  0  0
 37 38  2  0  0  0
 37 39  1  0  0  0
 39 40  1  0  0  0
 39111  1  0  0  0
 40 41  1  0  0  0
 40 43  1  0  0  0
 40112  1  0  0  0
 41 42  2  0  0  0
 41 47  1  0  0  0
 43 44  1  0  0  0
 43 45  1  0  0  0
 43113  1  0  0  0
 44 46  1  0  0  0
 44114  1  0  0  0
 44115  1  0  0  0
 45116  1  0  0  0
 45117  1  0  0  0
 45118  1  0  0  0
 46119  1  0  0  0
 46120  1  0  0  0
 46121  1  0  0  0
 47 48  1  0  0  0
 47122  1  0  0  0
 48 49  1  0  0  0
 48 51  1  0  0  0
 48123  1  0  0  0
 49 50  2  0  0  0
 49 55  1  0  0  0
 51 52  1  0  0  0
 51124  1  0  0  0
 51125  1  0  0  0
 52 53  1  0  0  0
 52 54  1  0  0  0
 52126  1  0  0  0
 53127  1  0  0  0
 53128  1  0  0  0
 53129  1  0  0  0
 54130  1  0  0  0
 54131  1  0  0  0
 54132  1  0  0  0
 55 56  1  0  0  0
 55133  1  0  0  0
 56 57  1  0  0  0
 56 59  1  0  0  0
 56134  1  0  0  0
 57 58  2  0  0  0
 57 62  1  0  0  0
 59 60  1  0  0  0
 59 61  1  0  0  0
 59135  1  0  0  0
 60136  1  0  0  0
 61137  1  0  0  0
 61138  1  0  0  0
 61139  1  0  0  0
 62 63  1  0  0  0
 62140  1  0  0  0
 63 64  1  0  0  0
 63 66  1  0  0  0
 63141  1  0  0  0
 64 65  2  0  0  0
 64 69  1  0  0  0
 66 67  1  0  0  0
 66 68  1  0  0  0
 66142  1  0  0  0
 67143  1  0  0  0
 67144  1  0  0  0
 67145  1  0  0  0
 68146  1  0  0  0
 68147  1  0  0  0
 68148  1  0  0  0
M  CHG  3   1   1   8  -1  69  -1
M  END
> <s_m_source_file>
../3hg1_ligand.sdf

> <i_m_source_file_index>
1

> <s_epik_input>
W09IXUMoPU8pW0NIMl1bQ0gyXVtDQEhdKFtOSDMrXSlDKD1PKVtOSF1bQ0BASF0oW0NIMl1bQ0hdKFtDSDNdKVtDSDNdKUMoPU8pW05IXVtDQEBIXShbQ0gzXSlDKD1PKVtOSF1bQ0gyXUMoPU8pW05IXVtDQEBIXShbQ0BASF0oW0NIM10pW0NIMl1bQ0gzXSlDKD1PKVtOSF1bQ0gyXUMoPU8pW05IXVtDQEBIXShbQ0BASF0oW0NIM10pW0NIMl1bQ0gzXSlDKD1PKVtOSF1bQ0BASF0oW0NIMl1bQ0hdKFtDSDNdKVtDSDNdKUMoPU8pW05IXVtDQEBIXShbQ0BIXShbT0hdKVtDSDNdKUMoPU8pW05IXVtDQEhdKEMoPU8pW09IXSlbQ0hdKFtDSDNdKVtDSDNd

> <s_epik_cmdline>
J2VwaWtfYXBwJywgJy1pbWFlJywgJ2xpZ2FuZF9wcm8ubWFlJywgJy1vbWFlJywgJ2xpZ2FuZF9wcmVwLm1hZScsICctbXMnLCAnMScsICctcGgnLCAnNycsICctcGh0JywgJzAuNScsICctbnQn

> <r_epik_Ionization_Penalty>
  0.0750

> <r_epik_Ionization_Penalty_Charging>
  0.0750

> <r_epik_Ionization_Penalty_Neutral>
  0.0000

> <r_epik_State_Penalty>
  0.0649

> <r_epik_Charging_Adjusted_Penalty>
0.139988261612658

> <i_epik_Tot_Q>
-1

> <i_epik_Tot_abs_Q>
3

$$$$
