3hha_ligand
                    3D
 Schrodinger Suite 2020-3.
 57 58  0  0  1  0            999 V2000
   10.4590    7.7320   -4.0550 O   0  0  0  0  0  0
    9.6140    8.3290   -3.4140 C   0  0  0  0  0  0
    9.9840    9.4890   -2.6100 C   0  0  0  0  0  0
   11.0890    9.5940   -1.8590 N   0  0  0  0  0  0
   12.0990    8.5490   -1.6440 C   0  0  0  0  0  0
   11.1630   10.7170   -1.2900 N   0  0  0  0  0  0
   10.0990   11.4470   -1.6510 C   0  0  0  0  0  0
    9.8960   12.8510   -1.1560 C   0  0  0  0  0  0
    8.4040   13.0760   -1.0190 C   0  0  0  0  0  0
   10.5180   13.0400    0.2430 C   0  0  0  0  0  0
   10.5880   13.7860   -2.1540 C   0  0  0  0  0  0
    9.3220   10.6830   -2.5060 C   0  0  0  0  0  0
    8.3080    7.9420   -3.4430 N   0  0  0  0  0  0
    7.8390    6.7970   -4.2280 C   0  0  2  0  0  0
    6.7820    7.2940   -5.1770 C   0  0  0  0  0  0
    6.6310    6.5970   -6.3190 N   0  0  0  0  0  0
    5.6730    6.9440   -7.3600 C   0  0  0  0  0  0
    4.4900    6.0440   -7.3950 C   0  0  0  0  0  0
    3.5990    6.1240   -8.3420 N   0  0  0  0  0  0
    6.0810    8.2590   -4.9430 O   0  0  0  0  0  0
    7.2590    5.7310   -3.3040 C   0  0  0  0  0  0
    8.2400    5.3090   -2.2150 C   0  0  0  0  0  0
    9.5770    4.9950   -2.5240 C   0  0  0  0  0  0
   10.4730    4.6700   -1.5230 C   0  0  0  0  0  0
    7.8070    5.2600   -0.9190 C   0  0  0  0  0  0
    8.6890    4.9000    0.0910 C   0  0  0  0  0  0
    8.1830    4.8240    1.5110 C   0  0  0  0  0  0
   10.0210    4.6150   -0.2200 C   0  0  0  0  0  0
   11.8373    7.6590   -2.2351 H   0  0  0  0  0  0
   12.1310    8.2841   -0.5769 H   0  0  0  0  0  0
   13.0849    8.9216   -1.9591 H   0  0  0  0  0  0
    7.9918   12.3660   -0.2869 H   0  0  0  0  0  0
    7.9187   12.9206   -1.9939 H   0  0  0  0  0  0
    8.2183   14.1048   -0.6768 H   0  0  0  0  0  0
   10.0211   12.3688    0.9589 H   0  0  0  0  0  0
   10.3851   14.0832    0.5654 H   0  0  0  0  0  0
   11.5913   12.8027    0.2021 H   0  0  0  0  0  0
   10.1442   13.6509   -3.1514 H   0  0  0  0  0  0
   11.6613   13.5488   -2.1951 H   0  0  0  0  0  0
   10.4551   14.8293   -1.8318 H   0  0  0  0  0  0
    8.3883   10.9695   -2.9899 H   0  0  0  0  0  0
    7.5947    8.5280   -2.8449 H   0  0  0  0  0  0
    8.6911    6.3768   -4.7824 H   0  0  0  0  0  0
    7.2519    5.7087   -6.5074 H   0  0  0  0  0  0
    5.7551    7.7726   -8.0788 H   0  0  0  0  0  0
    4.3510    5.2875   -6.6086 H   0  0  0  0  0  0
    3.7118    6.8709   -9.1417 H   0  0  0  0  0  0
    6.3555    6.1228   -2.8139 H   0  0  0  0  0  0
    6.9994    4.8381   -3.8917 H   0  0  0  0  0  0
    9.9087    5.0083   -3.5622 H   0  0  0  0  0  0
   11.5166    4.4611   -1.7581 H   0  0  0  0  0  0
    6.7718    5.5030   -0.6793 H   0  0  0  0  0  0
    7.1146    5.0847    1.5340 H   0  0  0  0  0  0
    8.7462    5.5298    2.1392 H   0  0  0  0  0  0
    8.3195    3.8021    1.8947 H   0  0  0  0  0  0
   10.7131    4.3454    0.5778 H   0  0  0  0  0  0
    2.7338    5.4447   -8.3420 H   0  0  0  0  0  0
  1  2  2  0  0  0
  2  3  1  0  0  0
  2 13  1  0  0  0
  3  4  1  0  0  0
  3 12  2  0  0  0
  4  5  1  0  0  0
  4  6  1  0  0  0
  5 29  1  0  0  0
  5 30  1  0  0  0
  5 31  1  0  0  0
  6  7  2  0  0  0
  7  8  1  0  0  0
  7 12  1  0  0  0
  8  9  1  0  0  0
  8 10  1  0  0  0
  8 11  1  0  0  0
  9 32  1  0  0  0
  9 33  1  0  0  0
  9 34  1  0  0  0
 10 35  1  0  0  0
 10 36  1  0  0  0
 10 37  1  0  0  0
 11 38  1  0  0  0
 11 39  1  0  0  0
 11 40  1  0  0  0
 12 41  1  0  0  0
 13 14  1  0  0  0
 13 42  1  0  0  0
 14 15  1  0  0  0
 14 21  1  0  0  0
 14 43  1  0  0  0
 15 16  1  0  0  0
 15 20  2  0  0  0
 16 17  1  0  0  0
 16 44  1  0  0  0
 17 18  2  0  0  0
 17 45  1  0  0  0
 18 19  1  0  0  0
 18 46  1  0  0  0
 19 47  1  0  0  0
 19 57  1  0  0  0
 21 22  1  0  0  0
 21 48  1  0  0  0
 21 49  1  0  0  0
 22 23  2  0  0  0
 22 25  1  0  0  0
 23 24  1  0  0  0
 23 50  1  0  0  0
 24 28  2  0  0  0
 24 51  1  0  0  0
 25 26  2  0  0  0
 25 52  1  0  0  0
 26 27  1  0  0  0
 26 28  1  0  0  0
 27 53  1  0  0  0
 27 54  1  0  0  0
 27 55  1  0  0  0
 28 56  1  0  0  0
M  END
> <s_m_source_file>
../3hha_ligand.sdf

> <i_m_source_file_index>
1

> <s_epik_input>
W0NIM11DKFtDSDNdKShbQ0gzXSljKFtjSF0xKW5uKFtDSDNdKWMxQyg9TylbTkhdW0NASF0oQyg9TylbTkhdW0NIMl0vW0NIXT1OXFtIXSlbQ0gyXWMyW2NIXVtjSF1bY0hdYyhbY0hdMilbQ0gzXQ==

> <s_epik_cmdline>
J2VwaWtfYXBwJywgJy1pbWFlJywgJ2xpZ2FuZF9wcm8ubWFlJywgJy1vbWFlJywgJ2xpZ2FuZF9wcmVwLm1hZScsICctbXMnLCAnMScsICctcGgnLCAnNycsICctcGh0JywgJzAuNScsICctbnQn

> <r_lp_tautomer_probability>
1

> <r_epik_Ionization_Penalty>
  0.0002

> <r_epik_Ionization_Penalty_Charging>
  0.0002

> <r_epik_Ionization_Penalty_Neutral>
  0.0000

> <r_epik_State_Penalty>
 -0.0000

> <r_epik_Charging_Adjusted_Penalty>
0.000177271205257758

> <i_epik_Tot_Q>
0

> <i_epik_Tot_abs_Q>
0

> <s_epik_Chemistry_Notes>
This compound has an imine and may undergo hydrolysis.

$$$$
