3hhk_ligand
                    3D
 Schrodinger Suite 2020-3.
 57 60  0  0  1  0            999 V2000
   96.4530   44.1150   42.6400 O   0  0  0  0  0  0
   96.6660   45.2750   42.9630 C   0  0  0  0  0  0
   97.1600   46.2440   42.1350 N   0  0  0  0  0  0
   96.4120   45.8030   44.3400 C   0  0  0  0  0  0
   95.7730   44.7140   44.9930 O   0  0  0  0  0  0
   95.5680   45.0060   46.3310 C   0  0  0  0  0  0
   94.7170   44.1640   47.0100 C   0  0  0  0  0  0
   96.1720   46.0650   46.9780 C   0  0  0  0  0  0
   95.8820   46.2410   48.3140 C   0  0  0  0  0  0
   96.6150   47.5830   49.2040 S   0  0  0  0  0  0
   95.7510   48.7110   48.9280 O   0  0  0  0  0  0
   98.0110   47.6000   48.8140 O   0  0  0  0  0  0
   96.5460   47.1320   50.7650 N   0  0  0  0  0  0
   95.0320   45.4150   49.0120 C   0  0  0  0  0  0
   94.4450   44.3630   48.3440 C   0  0  0  0  0  0
   94.7560   45.6280   50.3680 N   0  0  0  0  0  0
   95.6710   46.2690   51.1690 C   0  0  0  0  0  0
   95.7270   45.8800   52.5910 C   0  0  0  0  0  0
   94.9750   44.7250   53.1330 C   0  0  0  0  0  0
   94.2560   44.0810   52.3800 O   0  5  0  0  0  0
   96.5260   46.5940   53.3960 C   0  0  0  0  0  0
   97.2660   47.6760   52.9870 O   0  0  0  0  0  0
   96.6640   46.2720   54.7970 C   0  0  0  0  0  0
   97.4960   47.0280   55.5950 C   0  0  0  0  0  0
   97.6390   46.7210   56.9280 C   0  0  0  0  0  0
   95.9720   45.2050   55.3210 C   0  0  0  0  0  0
   96.1150   44.9000   56.6580 C   0  0  0  0  0  0
   96.9470   45.6540   57.4540 C   0  0  0  0  0  0
   95.1310   44.4500   54.4810 N   0  0  0  0  0  0
   94.4010   43.3330   55.0440 C   0  0  0  0  0  0
   93.1600   43.7400   55.8280 C   0  0  0  0  0  0
   92.1600   44.5840   55.0600 C   0  0  0  0  0  0
   91.1420   45.1740   56.0060 C   0  0  0  0  0  0
   91.4220   43.7500   54.0440 C   0  0  0  0  0  0
   97.3962   46.0045   41.0877 H   0  0  0  0  0  0
   97.3213   47.2632   42.5160 H   0  0  0  0  0  0
   97.3684   46.0737   44.8111 H   0  0  0  0  0  0
   95.7687   46.6931   44.2785 H   0  0  0  0  0  0
   94.2529   43.3294   46.4846 H   0  0  0  0  0  0
   96.8518   46.7360   46.4530 H   0  0  0  0  0  0
   93.7675   43.6906   48.8703 H   0  0  0  0  0  0
   93.8038   45.2819   50.7964 H   0  0  0  0  0  0
   98.0412   47.8702   55.1689 H   0  0  0  0  0  0
   98.2947   47.3176   57.5623 H   0  0  0  0  0  0
   95.5679   44.0598   57.0856 H   0  0  0  0  0  0
   97.0587   45.4041   58.5091 H   0  0  0  0  0  0
   94.0706   42.6655   54.2345 H   0  0  0  0  0  0
   95.0544   42.7780   55.7332 H   0  0  0  0  0  0
   92.6222   42.8386   56.1571 H   0  0  0  0  0  0
   93.4587   44.3301   56.7070 H   0  0  0  0  0  0
   92.7153   45.3832   54.5473 H   0  0  0  0  0  0
   91.6552   45.7891   56.7599 H   0  0  0  0  0  0
   90.5932   44.3627   56.5065 H   0  0  0  0  0  0
   90.4359   45.8001   55.4408 H   0  0  0  0  0  0
   92.1423   43.3071   53.3404 H   0  0  0  0  0  0
   90.7140   44.3859   53.4923 H   0  0  0  0  0  0
   90.8713   42.9485   54.5580 H   0  0  0  0  0  0
  1  2  2  0  0  0
  2  3  1  0  0  0
  2  4  1  0  0  0
  3 35  1  0  0  0
  3 36  1  0  0  0
  4  5  1  0  0  0
  4 37  1  0  0  0
  4 38  1  0  0  0
  5  6  1  0  0  0
  6  7  2  0  0  0
  6  8  1  0  0  0
  7 15  1  0  0  0
  7 39  1  0  0  0
  8  9  2  0  0  0
  8 40  1  0  0  0
  9 10  1  0  0  0
  9 14  1  0  0  0
 10 11  2  0  0  0
 10 12  2  0  0  0
 10 13  1  0  0  0
 13 17  2  0  0  0
 14 15  2  0  0  0
 14 16  1  0  0  0
 15 41  1  0  0  0
 16 17  1  0  0  0
 16 42  1  0  0  0
 17 18  1  0  0  0
 18 19  2  0  0  0
 18 21  1  0  0  0
 19 20  1  0  0  0
 19 29  1  0  0  0
 21 22  2  0  0  0
 21 23  1  0  0  0
 23 24  2  0  0  0
 23 26  1  0  0  0
 24 25  1  0  0  0
 24 43  1  0  0  0
 25 28  2  0  0  0
 25 44  1  0  0  0
 26 27  2  0  0  0
 26 29  1  0  0  0
 27 28  1  0  0  0
 27 45  1  0  0  0
 28 46  1  0  0  0
 29 30  1  0  0  0
 30 31  1  0  0  0
 30 47  1  0  0  0
 30 48  1  0  0  0
 31 32  1  0  0  0
 31 49  1  0  0  0
 31 50  1  0  0  0
 32 33  1  0  0  0
 32 34  1  0  0  0
 32 51  1  0  0  0
 33 52  1  0  0  0
 33 53  1  0  0  0
 33 54  1  0  0  0
 34 55  1  0  0  0
 34 56  1  0  0  0
 34 57  1  0  0  0
M  CHG  1  20  -1
M  END
> <s_m_source_file>
../3hhk_ligand.sdf

> <i_m_source_file_index>
1

> <s_epik_input>
Tz1DKFtOSDJdKVtDSDJdT2MoW2NIXTEpW2NIXVtjSF1jKGMxMilbTkhdQyg9TlMyKD1PKT1PKWMoYzNbT0hdKWMoPU8pbihbQ0gyXVtDSDJdW0NIXShbQ0gzXSlbQ0gzXSljKGMzNClbY0hdW2NIXVtjSF1bY0hdNA==

> <s_epik_cmdline>
J2VwaWtfYXBwJywgJy1pbWFlJywgJ2xpZ2FuZF9wcm8ubWFlJywgJy1vbWFlJywgJ2xpZ2FuZF9wcmVwLm1hZScsICctbXMnLCAnMScsICctcGgnLCAnNycsICctcGh0JywgJzAuNScsICctbnQn

> <r_epik_Ionization_Penalty>
  0.0239

> <r_epik_Ionization_Penalty_Charging>
  0.0025

> <r_epik_Ionization_Penalty_Neutral>
  0.0214

> <r_epik_State_Penalty>
  0.0172

> <r_epik_Charging_Adjusted_Penalty>
0.0196714725400911

> <i_epik_Tot_Q>
-1

> <i_epik_Tot_abs_Q>
1

> <s_epik_Chemistry_Notes>
This compound has an imine and may undergo hydrolysis.

$$$$
