3hhm_ligand
                    3D
 Schrodinger Suite 2020-3.
 59 62  0  0  1  0            999 V2000
   60.7470   60.3390  113.7990 C   0  0  1  0  0  0
   61.7350   59.3080  114.0360 O   0  0  0  0  0  0
   61.1520   61.3550  112.7000 C   0  0  1  0  0  0
   59.3110   59.7840  113.6550 C   0  0  0  0  0  0
   62.3490   58.7430  112.8480 C   0  0  0  0  0  0
   63.2390   57.9180  112.9500 O   0  0  0  0  0  0
   61.8690   59.1740  111.5500 C   0  0  0  0  0  0
   61.3750   60.5450  111.4240 C   0  0  0  0  0  0
   61.8660   58.3110  110.5480 C   0  0  0  0  0  0
   61.1350   61.0340  110.2040 C   0  0  0  0  0  0
   60.3320   62.2280  110.0380 C   0  0  0  0  0  0
   61.6180   60.4370  109.1200 O   0  0  0  0  0  0
   59.7080   62.3970  109.0070 O   0  0  0  0  0  0
   60.3330   63.2000  111.1730 C   0  0  2  0  0  0
   59.0530   62.7640  114.7380 O   0  0  0  0  0  0
   59.8800   63.4300  113.7390 C   0  0  1  0  0  0
   58.6100   63.3670  116.0330 C   0  0  0  0  0  0
   60.0920   62.4730  112.5090 C   0  0  2  0  0  0
   59.3230   64.3320  111.0550 C   0  0  1  0  0  0
   62.4970   62.0020  113.0450 C   0  0  0  0  0  0
   59.3020   64.8330  113.4350 C   0  0  0  0  0  0
   59.7200   65.3690  112.0780 C   0  0  1  0  0  0
   61.2030   65.7490  112.0670 C   0  0  0  0  0  0
   58.9110   66.5310  111.6010 C   0  0  0  0  0  0
   59.0910   65.0690  109.7380 C   0  0  0  0  0  0
   58.5030   66.4190  110.1480 C   0  0  0  0  0  0
   58.6220   67.4690  112.3190 O   0  0  0  0  0  0
   57.5710   62.9380  116.5310 O   0  0  0  0  0  0
   59.3620   64.4410  116.7800 C   0  0  0  0  0  0
   59.2290   58.3810  113.4210 O   0  0  0  0  0  0
   57.8730   57.9770  113.2090 C   0  0  0  0  0  0
   60.7879   60.8809  114.7554 H   0  0  0  0  0  0
   58.7467   59.9832  114.5780 H   0  0  0  0  0  0
   58.8115   60.2748  112.8067 H   0  0  0  0  0  0
   62.2501   57.2914  110.6992 H   0  0  0  0  0  0
   61.4794   58.6128  109.5634 H   0  0  0  0  0  0
   62.2307   59.5288  109.2191 H   0  0  0  0  0  0
   61.3332   63.6530  111.1067 H   0  0  0  0  0  0
   60.8698   63.6125  114.1829 H   0  0  0  0  0  0
   59.1183   61.9669  112.4330 H   0  0  0  0  0  0
   58.3659   63.8091  111.1984 H   0  0  0  0  0  0
   63.2563   61.2181  113.1827 H   0  0  0  0  0  0
   62.3970   62.5828  113.9738 H   0  0  0  0  0  0
   62.8034   62.6696  112.2262 H   0  0  0  0  0  0
   58.2030   64.7881  113.4509 H   0  0  0  0  0  0
   59.6509   65.5462  114.1963 H   0  0  0  0  0  0
   61.8027   64.8961  112.4176 H   0  0  0  0  0  0
   61.3659   66.6098  112.7322 H   0  0  0  0  0  0
   61.5060   66.0141  111.0433 H   0  0  0  0  0  0
   60.0484   65.1840  109.2086 H   0  0  0  0  0  0
   58.3934   64.4922  109.1130 H   0  0  0  0  0  0
   57.4060   66.4461  110.0721 H   0  0  0  0  0  0
   58.9306   67.2592  109.5812 H   0  0  0  0  0  0
   60.2626   64.7197  116.2132 H   0  0  0  0  0  0
   59.6546   64.0624  117.7705 H   0  0  0  0  0  0
   58.7169   65.3238  116.9008 H   0  0  0  0  0  0
   57.8372   56.8921  113.0310 H   0  0  0  0  0  0
   57.4653   58.5056  112.3347 H   0  0  0  0  0  0
   57.2739   58.2227  114.0982 H   0  0  0  0  0  0
  1  2  1  0  0  0
  1  3  1  0  0  0
  1  4  1  0  0  0
  1 32  1  0  0  0
  2  5  1  0  0  0
  3  8  1  0  0  0
  3 18  1  0  0  0
  3 20  1  0  0  0
  4 30  1  0  0  0
  4 33  1  0  0  0
  4 34  1  0  0  0
  5  6  2  0  0  0
  5  7  1  0  0  0
  7  8  1  0  0  0
  7  9  2  0  0  0
  8 10  2  0  0  0
  9 35  1  0  0  0
  9 36  1  0  0  0
 10 11  1  0  0  0
 10 12  1  0  0  0
 11 13  2  0  0  0
 11 14  1  0  0  0
 12 37  1  0  0  0
 14 18  1  0  0  0
 14 19  1  0  0  0
 14 38  1  0  0  0
 15 16  1  0  0  0
 15 17  1  0  0  0
 16 18  1  0  0  0
 16 21  1  0  0  0
 16 39  1  0  0  0
 17 28  2  0  0  0
 17 29  1  0  0  0
 18 40  1  0  0  0
 19 22  1  0  0  0
 19 25  1  0  0  0
 19 41  1  0  0  0
 20 42  1  0  0  0
 20 43  1  0  0  0
 20 44  1  0  0  0
 21 22  1  0  0  0
 21 45  1  0  0  0
 21 46  1  0  0  0
 22 23  1  0  0  0
 22 24  1  0  0  0
 23 47  1  0  0  0
 23 48  1  0  0  0
 23 49  1  0  0  0
 24 26  1  0  0  0
 24 27  2  0  0  0
 25 26  1  0  0  0
 25 50  1  0  0  0
 25 51  1  0  0  0
 26 52  1  0  0  0
 26 53  1  0  0  0
 29 54  1  0  0  0
 29 55  1  0  0  0
 29 56  1  0  0  0
 30 31  1  0  0  0
 31 57  1  0  0  0
 31 58  1  0  0  0
 31 59  1  0  0  0
M  END
> <s_m_source_file>
../3hhm_ligand.sdf

> <i_m_source_file_index>
1

> <s_epik_input>
W0NIM11PW0NIMl1bQ0BIXTFPQyg9TylDKD1bQ0gyXSlDKFtDQF0xMltDSDNdKT1DKFtPSF0pQyg9TylbQ0BASF0zW0NAQEhdMltDQEhdKE9DKD1PKVtDSDNdKVtDSDJdW0NAQF00KFtDSDNdKVtDQEhdM1tDSDJdW0NIMl1DND1P

> <s_epik_cmdline>
J2VwaWtfYXBwJywgJy1pbWFlJywgJ2xpZ2FuZF9wcm8ubWFlJywgJy1vbWFlJywgJ2xpZ2FuZF9wcmVwLm1hZScsICctbXMnLCAnMScsICctcGgnLCAnNycsICctcGh0JywgJzAuNScsICctbnQn

> <r_lp_tautomer_probability>
0.99995

> <r_epik_Ionization_Penalty>
  0.1030

> <r_epik_Ionization_Penalty_Charging>
  0.0000

> <r_epik_Ionization_Penalty_Neutral>
  0.1030

> <r_epik_State_Penalty>
  0.0929

> <r_epik_Charging_Adjusted_Penalty>
0.0929394832296526

> <i_epik_Tot_Q>
0

> <i_epik_Tot_abs_Q>
0

> <s_epik_Chemistry_Notes>
This compound has an ester and may undergo hydrolysis at high or low pH.

$$$$
