3hig_ligand
                    3D
 Schrodinger Suite 2020-3.
 38 39  0  0  1  0            999 V2000
  -29.1450  -11.3280   77.5840 C   0  0  0  0  0  0
  -30.1170  -10.4880   77.0350 C   0  0  0  0  0  0
  -30.7170   -9.5070   77.8210 C   0  0  0  0  0  0
  -30.4400   -9.4270   79.1830 C   0  0  0  0  0  0
  -29.4720  -10.2650   79.7430 C   0  0  0  0  0  0
  -28.8270  -11.2070   78.9410 C   0  0  0  0  0  0
  -31.1530   -8.4080   80.0180 C   0  0  0  0  0  0
  -32.3130   -8.0370   79.7110 N   0  3  0  0  0  0
  -30.5470   -7.8040   81.0280 N   0  0  0  0  0  0
  -28.4990  -12.2580   76.8390 N   0  0  0  0  0  0
  -28.8090  -12.5200   75.5710 N   0  0  0  0  0  0
  -28.1610  -13.3860   74.9300 N   0  0  0  0  0  0
  -28.4730  -13.6650   73.5900 C   0  0  0  0  0  0
  -29.8160  -13.6940   73.2480 C   0  0  0  0  0  0
  -30.2050  -13.9800   71.9550 C   0  0  0  0  0  0
  -29.2720  -14.2330   70.9610 C   0  0  0  0  0  0
  -27.9180  -14.2090   71.2870 C   0  0  0  0  0  0
  -27.5230  -13.9350   72.6050 C   0  0  0  0  0  0
  -29.8050  -14.5440   69.5940 C   0  0  0  0  0  0
  -30.9020  -15.1790   69.5270 N   0  3  0  0  0  0
  -29.1250  -14.2530   68.4860 N   0  0  0  0  0  0
  -30.4062  -10.6005   75.9901 H   0  0  0  0  0  0
  -31.4081   -8.7971   77.3666 H   0  0  0  0  0  0
  -29.2222  -10.1831   80.8008 H   0  0  0  0  0  0
  -28.0670  -11.8558   79.3765 H   0  0  0  0  0  0
  -32.8421   -8.5201   78.8763 H   0  0  0  0  0  0
  -29.5308   -8.1071   81.3203 H   0  0  0  0  0  0
  -31.0596   -6.9990   81.5750 H   0  0  0  0  0  0
  -27.3412  -13.9329   75.4188 H   0  0  0  0  0  0
  -30.5713  -13.4892   74.0067 H   0  0  0  0  0  0
  -31.2668  -14.0075   71.7104 H   0  0  0  0  0  0
  -27.1676  -14.4025   70.5204 H   0  0  0  0  0  0
  -26.4637  -13.9331   72.8617 H   0  0  0  0  0  0
  -31.4576  -15.4155   70.4464 H   0  0  0  0  0  0
  -28.1750  -13.7024   68.5523 H   0  0  0  0  0  0
  -29.5135  -14.5633   67.5048 H   0  0  0  0  0  0
  -32.7998   -7.2290   80.2768 H   0  0  0  0  0  0
  -31.2971  -15.4928   68.5495 H   0  0  0  0  0  0
  1  2  2  0  0  0
  1  6  1  0  0  0
  1 10  1  0  0  0
  2  3  1  0  0  0
  2 22  1  0  0  0
  3  4  2  0  0  0
  3 23  1  0  0  0
  4  5  1  0  0  0
  4  7  1  0  0  0
  5  6  2  0  0  0
  5 24  1  0  0  0
  6 25  1  0  0  0
  7  8  2  0  0  0
  7  9  1  0  0  0
  8 26  1  0  0  0
  8 37  1  0  0  0
  9 27  1  0  0  0
  9 28  1  0  0  0
 10 11  2  0  0  0
 11 12  1  0  0  0
 12 13  1  0  0  0
 12 29  1  0  0  0
 13 14  2  0  0  0
 13 18  1  0  0  0
 14 15  1  0  0  0
 14 30  1  0  0  0
 15 16  2  0  0  0
 15 31  1  0  0  0
 16 17  1  0  0  0
 16 19  1  0  0  0
 17 18  2  0  0  0
 17 32  1  0  0  0
 18 33  1  0  0  0
 19 20  2  0  0  0
 19 21  1  0  0  0
 20 34  1  0  0  0
 20 38  1  0  0  0
 21 35  1  0  0  0
 21 36  1  0  0  0
M  CHG  2   8   1  20   1
M  END
> <s_m_source_file>
../3hig_ligand.sdf

> <i_m_source_file_index>
1

> <s_epik_input>
W0hdXE49QyhbTkgyXSlcYyhbY0hdW2NIXTEpW2NIXVtjSF1jMS9OPU4vW05IXWMyW2NIXVtjSF1jKFtjSF1bY0hdMikvQyg9TlxbSF0pW05IMl0=

> <s_epik_cmdline>
J2VwaWtfYXBwJywgJy1pbWFlJywgJ2xpZ2FuZF9wcm8ubWFlJywgJy1vbWFlJywgJ2xpZ2FuZF9wcmVwLm1hZScsICctbXMnLCAnMScsICctcGgnLCAnNycsICctcGh0JywgJzAuNScsICctbnQn

> <r_lp_tautomer_probability>
1

> <r_epik_Ionization_Penalty>
  0.0006

> <r_epik_Ionization_Penalty_Charging>
  0.0006

> <r_epik_Ionization_Penalty_Neutral>
  0.0000

> <r_epik_State_Penalty>
 -0.0000

> <r_epik_Charging_Adjusted_Penalty>
0.0006231946369672

> <i_epik_Tot_Q>
2

> <i_epik_Tot_abs_Q>
2

> <s_epik_Chemistry_Notes>
This compound has an imine and may undergo hydrolysis.

$$$$
