3hii_ligand
                    3D
 Schrodinger Suite 2020-3.
 51 52  0  0  1  0            999 V2000
  -28.3070  -13.4570   73.1330 C   0  0  0  0  0  0
  -27.3080  -13.6030   72.1840 C   0  0  0  0  0  0
  -27.6270  -13.8790   70.8610 C   0  0  0  0  0  0
  -28.9540  -14.0140   70.4850 C   0  0  0  0  0  0
  -29.9570  -13.8850   71.4380 C   0  0  0  0  0  0
  -29.6320  -13.6100   72.7570 C   0  0  0  0  0  0
  -28.3350  -12.1160   75.2200 C   0  0  0  0  0  0
  -29.6970  -12.3080   75.8240 C   0  0  0  0  0  0
  -29.3220  -14.3200   69.0770 C   0  0  0  0  0  0
  -30.7090  -11.4320   75.1000 C   0  0  0  0  0  0
  -34.1200   -9.6500   73.9860 C   0  0  0  0  0  0
  -35.1620  -10.5300   73.6920 C   0  0  0  0  0  0
  -36.2790  -10.0830   72.9950 C   0  0  0  0  0  0
  -36.3690   -8.7560   72.5940 C   0  0  0  0  0  0
  -35.3330   -7.8730   72.8910 C   0  0  0  0  0  0
  -34.2100   -8.3160   73.5820 C   0  0  0  0  0  0
  -31.9200   -9.2880   75.0050 C   0  0  0  0  0  0
  -30.9000  -10.0920   75.7860 C   0  0  0  0  0  0
  -37.5800   -8.2700   71.8560 C   0  0  0  0  0  0
  -27.9580  -13.2270   74.4360 O   0  0  0  0  0  0
  -33.0300  -10.1240   74.6720 O   0  0  0  0  0  0
  -28.6640  -13.8820   68.0960 N   0  3  0  0  0  0
  -30.3680  -15.1110   68.8550 N   0  0  0  0  0  0
  -38.0680   -8.9750   70.9310 N   0  3  0  0  0  0
  -38.1400   -7.1010   72.1840 N   0  0  0  0  0  0
  -26.2635  -13.5004   72.4783 H   0  0  0  0  0  0
  -26.8354  -13.9892   70.1199 H   0  0  0  0  0  0
  -31.0013  -14.0003   71.1477 H   0  0  0  0  0  0
  -30.4220  -13.5137   73.5018 H   0  0  0  0  0  0
  -28.3410  -11.2223   74.5787 H   0  0  0  0  0  0
  -27.5931  -11.9869   76.0219 H   0  0  0  0  0  0
  -29.9947  -13.3627   75.7293 H   0  0  0  0  0  0
  -29.6691  -12.0290   76.8877 H   0  0  0  0  0  0
  -30.3630  -11.2442   74.0729 H   0  0  0  0  0  0
  -31.6825  -11.9434   75.0712 H   0  0  0  0  0  0
  -35.1002  -11.5709   74.0096 H   0  0  0  0  0  0
  -37.0871  -10.7765   72.7623 H   0  0  0  0  0  0
  -35.4028   -6.8305   72.5805 H   0  0  0  0  0  0
  -33.4003   -7.6222   73.8082 H   0  0  0  0  0  0
  -32.2676   -8.4429   75.6174 H   0  0  0  0  0  0
  -31.4579   -8.9066   74.0825 H   0  0  0  0  0  0
  -31.2586  -10.2538   76.8132 H   0  0  0  0  0  0
  -29.9410   -9.5539   75.8130 H   0  0  0  0  0  0
  -27.7965  -13.2268   68.2640 H   0  0  0  0  0  0
  -30.9521  -15.5011   69.7016 H   0  0  0  0  0  0
  -30.6490  -15.3751   67.8248 H   0  0  0  0  0  0
  -37.6015   -9.9356   70.6671 H   0  0  0  0  0  0
  -37.7085   -6.4919   72.9919 H   0  0  0  0  0  0
  -39.0323   -6.7484   71.6459 H   0  0  0  0  0  0
  -28.9570  -14.1547   67.0714 H   0  0  0  0  0  0
  -38.9601   -8.6293   70.3882 H   0  0  0  0  0  0
  1  2  2  0  0  0
  1  6  1  0  0  0
  1 20  1  0  0  0
  2  3  1  0  0  0
  2 26  1  0  0  0
  3  4  2  0  0  0
  3 27  1  0  0  0
  4  5  1  0  0  0
  4  9  1  0  0  0
  5  6  2  0  0  0
  5 28  1  0  0  0
  6 29  1  0  0  0
  7  8  1  0  0  0
  7 20  1  0  0  0
  7 30  1  0  0  0
  7 31  1  0  0  0
  8 10  1  0  0  0
  8 32  1  0  0  0
  8 33  1  0  0  0
  9 22  2  0  0  0
  9 23  1  0  0  0
 10 18  1  0  0  0
 10 34  1  0  0  0
 10 35  1  0  0  0
 11 12  2  0  0  0
 11 16  1  0  0  0
 11 21  1  0  0  0
 12 13  1  0  0  0
 12 36  1  0  0  0
 13 14  2  0  0  0
 13 37  1  0  0  0
 14 15  1  0  0  0
 14 19  1  0  0  0
 15 16  2  0  0  0
 15 38  1  0  0  0
 16 39  1  0  0  0
 17 18  1  0  0  0
 17 21  1  0  0  0
 17 40  1  0  0  0
 17 41  1  0  0  0
 18 42  1  0  0  0
 18 43  1  0  0  0
 19 24  2  0  0  0
 19 25  1  0  0  0
 22 44  1  0  0  0
 22 50  1  0  0  0
 23 45  1  0  0  0
 23 46  1  0  0  0
 24 47  1  0  0  0
 24 51  1  0  0  0
 25 48  1  0  0  0
 25 49  1  0  0  0
M  CHG  2  22   1  24   1
M  END
> <s_m_source_file>
../3hii_ligand.sdf

> <i_m_source_file_index>
1

> <s_epik_input>
W0hdXE49QyhbTkgyXSlcYyhbY0hdW2NIXTEpW2NIXVtjSF1jMU9bQ0gyXVtDSDJdW0NIMl1bQ0gyXVtDSDJdT2MyW2NIXVtjSF1jKFtjSF1bY0hdMikvQyg9TlxbSF0pW05IMl0=

> <s_epik_cmdline>
J2VwaWtfYXBwJywgJy1pbWFlJywgJ2xpZ2FuZF9wcm8ubWFlJywgJy1vbWFlJywgJ2xpZ2FuZF9wcmVwLm1hZScsICctbXMnLCAnMScsICctcGgnLCAnNycsICctcGh0JywgJzAuNScsICctbnQn

> <r_lp_tautomer_probability>
1

> <r_epik_Ionization_Penalty>
  0.0002

> <r_epik_Ionization_Penalty_Charging>
  0.0002

> <r_epik_Ionization_Penalty_Neutral>
  0.0000

> <r_epik_State_Penalty>
 -0.0000

> <r_epik_Charging_Adjusted_Penalty>
0.000150897695684095

> <i_epik_Tot_Q>
2

> <i_epik_Tot_abs_Q>
2

> <s_epik_Chemistry_Notes>
This compound has an imine and may undergo hydrolysis.

$$$$
