3hik_ligand
                    3D
 Schrodinger Suite 2020-3.
 84 85  0  0  1  0            999 V2000
  -13.2100    7.2440   -4.4550 C   0  0  0  0  0  0
  -13.5360    8.4060   -4.8380 O   0  0  0  0  0  0
  -12.6110    7.0330   -3.0930 C   0  0  0  0  0  0
  -13.0530    6.2230   -5.3280 N   0  0  0  0  0  0
  -13.0720    4.8280   -4.9470 C   0  0  2  0  0  0
  -11.7430    4.4610   -4.3080 C   0  0  0  0  0  0
  -10.7050    4.9060   -4.7870 O   0  0  0  0  0  0
  -13.1790    4.1050   -6.3020 C   0  0  0  0  0  0
  -13.8460    5.0630   -7.2210 C   0  0  0  0  0  0
  -13.7620    6.4550   -6.6020 C   0  0  0  0  0  0
  -11.7590    3.5780   -3.3010 N   0  0  0  0  0  0
  -10.5570    3.1890   -2.5970 C   0  0  2  0  0  0
   -9.8790    1.9000   -3.0730 C   0  0  0  0  0  0
   -8.8280    1.5210   -2.5830 O   0  0  0  0  0  0
  -10.8820    3.0730   -1.0940 C   0  0  0  0  0  0
  -11.3190    4.4080   -0.4560 C   0  0  0  0  0  0
  -12.1570    4.1340    0.7940 C   0  0  0  0  0  0
  -10.1310    5.3040   -0.1460 C   0  0  0  0  0  0
  -10.4820    1.2450   -4.0600 N   0  0  0  0  0  0
   -9.8670    0.1120   -4.6890 C   0  0  2  0  0  0
  -10.5180   -0.0670   -6.0260 C   0  0  0  0  0  0
  -11.5680    0.5060   -6.2680 O   0  0  0  0  0  0
   -9.9280   -1.1870   -3.8250 C   0  0  0  0  0  0
  -11.3100   -1.6220   -3.4260 C   0  0  0  0  0  0
  -12.2460   -2.0610   -4.3370 N   0  0  0  0  0  0
  -11.8930   -1.7380   -2.2080 C   0  0  0  0  0  0
  -13.3530   -2.4150   -3.7040 C   0  0  0  0  0  0
  -13.1640   -2.2320   -2.4090 N   0  0  0  0  0  0
   -9.8590   -0.8480   -6.8790 N   0  0  0  0  0  0
  -10.4210   -1.1900   -8.1880 C   0  0  2  0  0  0
  -11.7150   -2.0380   -8.0720 C   0  0  0  0  0  0
  -12.0790   -2.5180   -6.9800 O   0  0  0  0  0  0
   -9.3450   -1.8560   -9.0240 C   0  0  0  0  0  0
   -8.9080   -3.0680   -8.4890 O   0  0  0  0  0  0
  -12.4130   -2.2310   -9.2040 N   0  0  0  0  0  0
  -13.7020   -2.9650   -9.2220 C   0  0  1  0  0  0
  -14.1210   -3.0660  -10.6920 C   0  0  1  0  0  0
  -15.5350   -3.6330  -10.8710 C   0  0  0  0  0  0
  -14.1280   -1.7300  -11.2100 O   0  0  0  0  0  0
  -13.0730   -1.2840  -12.3710 P   0  0  0  0  0  0
  -13.3130   -2.3190  -13.4580 O   0  5  0  0  0  0
  -11.7110   -1.2950  -11.7900 O   0  0  0  0  0  0
  -13.6520    0.0580  -12.6330 O   0  5  0  0  0  0
  -13.5840   -4.3270   -8.6100 C   0  0  0  0  0  0
  -12.7030   -5.1040   -9.0010 O   0  0  0  0  0  0
  -14.3420   -4.6590   -7.6550 O   0  5  0  0  0  0
  -12.7968    7.9199   -2.4693 H   0  0  0  0  0  0
  -11.5270    6.8735   -3.1899 H   0  0  0  0  0  0
  -13.0708    6.1512   -2.6228 H   0  0  0  0  0  0
  -13.8825    4.6288   -4.2305 H   0  0  0  0  0  0
  -12.1717    3.8450   -6.6594 H   0  0  0  0  0  0
  -13.7737    3.1874   -6.1821 H   0  0  0  0  0  0
  -13.3363    5.0514   -8.1957 H   0  0  0  0  0  0
  -14.8983    4.7714   -7.3540 H   0  0  0  0  0  0
  -14.7545    6.8826   -6.3967 H   0  0  0  0  0  0
  -13.1824    7.1548   -7.2220 H   0  0  0  0  0  0
  -12.7287    3.1451   -3.0144 H   0  0  0  0  0  0
   -9.8718    4.0090   -2.8577 H   0  0  0  0  0  0
  -11.7026    2.3546   -0.9507 H   0  0  0  0  0  0
   -9.9906    2.7244   -0.5519 H   0  0  0  0  0  0
  -11.9346    4.9657   -1.1772 H   0  0  0  0  0  0
  -13.0051    3.4844    0.5317 H   0  0  0  0  0  0
  -12.5347    5.0849    1.1979 H   0  0  0  0  0  0
  -11.5338    3.6357    1.5512 H   0  0  0  0  0  0
   -9.5535    5.4786   -1.0658 H   0  0  0  0  0  0
   -9.4895    4.8163    0.6027 H   0  0  0  0  0  0
  -10.4903    6.2655    0.2494 H   0  0  0  0  0  0
  -11.4727    1.5882   -4.3926 H   0  0  0  0  0  0
   -8.8092    0.3870   -4.8134 H   0  0  0  0  0  0
   -9.0535   -1.7738   -3.5073 H   0  0  0  0  0  0
  -11.5424   -1.5203   -1.1883 H   0  0  0  0  0  0
  -14.2632   -2.7923   -4.1702 H   0  0  0  0  0  0
   -8.8738   -1.2385   -6.5844 H   0  0  0  0  0  0
  -10.7000   -0.2393   -8.6658 H   0  0  0  0  0  0
   -9.7366   -2.0586  -10.0318 H   0  0  0  0  0  0
   -8.4725   -1.1901   -9.0967 H   0  0  0  0  0  0
   -8.1282   -3.6476   -9.0048 H   0  0  0  0  0  0
  -11.9988   -1.8239  -10.1382 H   0  0  0  0  0  0
  -14.4325   -2.4260   -8.6009 H   0  0  0  0  0  0
  -13.4033   -3.6892  -11.2457 H   0  0  0  0  0  0
  -15.5693   -4.6618  -10.4833 H   0  0  0  0  0  0
  -15.7967   -3.6349  -11.9394 H   0  0  0  0  0  0
  -16.2529   -3.0089  -10.3187 H   0  0  0  0  0  0
  -12.0050   -2.0743   -5.4102 H   0  0  0  0  0  0
  1  2  2  0  0  0
  1  3  1  0  0  0
  1  4  1  0  0  0
  3 47  1  0  0  0
  3 48  1  0  0  0
  3 49  1  0  0  0
  4  5  1  0  0  0
  4 10  1  0  0  0
  5  6  1  0  0  0
  5  8  1  0  0  0
  5 50  1  0  0  0
  6  7  2  0  0  0
  6 11  1  0  0  0
  8  9  1  0  0  0
  8 51  1  0  0  0
  8 52  1  0  0  0
  9 10  1  0  0  0
  9 53  1  0  0  0
  9 54  1  0  0  0
 10 55  1  0  0  0
 10 56  1  0  0  0
 11 12  1  0  0  0
 11 57  1  0  0  0
 12 13  1  0  0  0
 12 15  1  0  0  0
 12 58  1  0  0  0
 13 14  2  0  0  0
 13 19  1  0  0  0
 15 16  1  0  0  0
 15 59  1  0  0  0
 15 60  1  0  0  0
 16 17  1  0  0  0
 16 18  1  0  0  0
 16 61  1  0  0  0
 17 62  1  0  0  0
 17 63  1  0  0  0
 17 64  1  0  0  0
 18 65  1  0  0  0
 18 66  1  0  0  0
 18 67  1  0  0  0
 19 20  1  0  0  0
 19 68  1  0  0  0
 20 21  1  0  0  0
 20 23  1  0  0  0
 20 69  1  0  0  0
 21 22  2  0  0  0
 21 29  1  0  0  0
 23 24  2  0  0  0
 23 70  1  0  0  0
 24 25  1  0  0  0
 24 26  1  0  0  0
 25 27  1  0  0  0
 25 84  1  0  0  0
 26 28  2  0  0  0
 26 71  1  0  0  0
 27 28  1  0  0  0
 27 72  1  0  0  0
 29 30  1  0  0  0
 29 73  1  0  0  0
 30 31  1  0  0  0
 30 33  1  0  0  0
 30 74  1  0  0  0
 31 32  2  0  0  0
 31 35  1  0  0  0
 33 34  1  0  0  0
 33 75  1  0  0  0
 33 76  1  0  0  0
 34 77  1  0  0  0
 35 36  1  0  0  0
 35 78  1  0  0  0
 36 37  1  0  0  0
 36 44  1  0  0  0
 36 79  1  0  0  0
 37 38  1  0  0  0
 37 39  1  0  0  0
 37 80  1  0  0  0
 38 81  1  0  0  0
 38 82  1  0  0  0
 38 83  1  0  0  0
 39 40  1  0  0  0
 40 41  1  0  0  0
 40 42  2  0  0  0
 40 43  1  0  0  0
 44 45  2  0  0  0
 44 46  1  0  0  0
M  CHG  3  41  -1  43  -1  46  -1
M  END
> <s_m_source_file>
../3hik_ligand.sdf

> <i_m_source_file_index>
1

> <s_epik_input>
Tz1DKFtDSDNdKU4xW0NAQEhdKFtDSDJdW0NIMl1bQ0gyXTEpQyg9TylbTkhdW0NAQEhdKFtDSDJdW0NIXShbQ0gzXSlbQ0gzXSlDKD1PKVtOSF1bQ0BASF0oW0NIMl1DMj1OW0NIMl1OPVtDSF0yKUMoPU8pW05IXVtDQEBIXShbQ0gyXVtPSF0pQyg9TylbTkhdW0NASF0oQyg9TylbT0hdKVtDQEBIXShbQ0gzXSlPUCg9TykoW09IXSlbT0hd

> <s_epik_cmdline>
J2VwaWtfYXBwJywgJy1pbWFlJywgJ2xpZ2FuZF9wcm8ubWFlJywgJy1vbWFlJywgJ2xpZ2FuZF9wcmVwLm1hZScsICctbXMnLCAnMScsICctcGgnLCAnNycsICctcGh0JywgJzAuNScsICctbnQn

> <r_epik_Ionization_Penalty>
  0.1284

> <r_epik_Ionization_Penalty_Charging>
  0.1284

> <r_epik_Ionization_Penalty_Neutral>
  0.0000

> <r_epik_State_Penalty>
  0.1178

> <r_epik_Charging_Adjusted_Penalty>
0.246230915905576

> <i_epik_Tot_Q>
-3

> <i_epik_Tot_abs_Q>
3

> <s_epik_Chemistry_Notes>
This compound has an imine and may undergo hydrolysis.

$$$$
