3hio_ligand
                    3D
 Schrodinger Suite 2020-3.
177189  0  0  1  0            999 V2000
  -30.9430    2.5110    6.4610 O   0  0  0  0  0  0
  -30.4120    3.0700    7.4340 C   0  0  0  0  0  0
  -28.9560    3.0680    7.6150 C   0  0  0  0  0  0
  -27.9160    2.5820    6.9330 N   0  0  0  0  0  0
  -26.8010    2.9090    7.6110 C   0  0  0  0  0  0
  -31.1470    3.6810    8.3410 N   0  0  0  0  0  0
  -30.6280    4.2920    9.4100 C   0  0  0  0  0  0
  -31.5120    4.8680   10.2560 N   0  0  0  0  0  0
  -29.2950    4.3400    9.6630 N   0  0  0  0  0  0
  -28.4270    3.7460    8.8060 C   0  0  0  0  0  0
  -27.1050    3.5960    8.7290 N   0  0  0  0  0  0
  -26.1150    4.1080    9.7000 C   0  0  1  0  0  0
  -25.8780    3.1450   10.8480 C   0  0  2  0  0  0
  -26.8500    3.3200   11.8700 O   0  0  0  0  0  0
  -27.9000    2.3590   11.7680 C   0  0  0  0  0  0
  -24.5410    3.6480   11.3270 C   0  0  2  0  0  0
  -24.8260    4.9280   11.8480 O   0  0  0  0  0  0
  -24.7650    5.3770   13.3770 P   0  0  2  0  0  0
  -23.6130    4.6820   14.0710 O   0  0  0  0  0  0
  -26.1640    5.2570   13.9460 O   0  0  0  0  0  0
  -24.4970    6.9560   13.2020 O   0  0  0  0  0  0
  -23.2750    7.5820   12.8330 C   0  0  0  0  0  0
  -23.0470    7.7680   11.3270 C   0  0  1  0  0  0
  -23.6340    8.9960   10.6300 C   0  0  0  0  0  0
  -22.5060    9.4430    9.7850 N   0  3  3  0  0  0
  -22.4530   10.6020    8.8860 C   0  0  0  0  0  0
  -23.3040   10.2240    7.7060 C   0  0  0  0  0  0
  -22.9520    9.5090    6.5620 C   0  0  0  0  0  0
  -24.0750    9.3550    5.7880 N   0  0  0  0  0  0
  -25.1540    9.9130    6.3720 C   0  0  0  0  0  0
  -26.4940   10.0670    6.0380 C   0  0  0  0  0  0
  -26.9860    9.5610    4.8840 N   0  0  0  0  0  0
  -27.3240   10.7140    6.8860 N   0  0  0  0  0  0
  -26.8720   11.2250    8.0310 C   0  0  0  0  0  0
  -25.5880   11.1020    8.3920 N   0  0  0  0  0  0
  -24.7430   10.4800    7.5440 C   0  0  0  0  0  0
  -21.3160    8.6180    9.8670 C   0  0  0  0  0  0
  -21.5770    8.0590   11.2480 C   0  0  2  0  0  0
  -20.9650    6.8220   11.4790 O   0  0  0  0  0  0
  -19.8070    6.7310   12.5790 P   0  0  1  0  0  0
  -18.5300    6.6590   11.7710 O   0  0  0  0  0  0
  -19.9910    7.7660   13.6490 O   0  0  0  0  0  0
  -20.1340    5.3130   13.2090 O   0  0  0  0  0  0
  -21.2820    4.6050   12.7970 C   0  0  0  0  0  0
  -20.8540    3.1610   12.9150 C   0  0  1  0  0  0
  -20.5630    2.6470   11.6170 O   0  0  0  0  0  0
  -19.4410    1.7580   11.6740 C   0  0  1  0  0  0
  -18.3770    2.2840   10.7760 N   0  0  0  0  0  0
  -18.4650    2.4250    9.4470 C   0  0  0  0  0  0
  -19.4120    2.1750    8.5010 N   0  0  0  0  0  0
  -19.1750    2.4350    7.1850 C   0  0  0  0  0  0
  -20.1380    2.1730    6.2700 N   0  0  0  0  0  0
  -18.0180    2.9450    6.7340 N   0  0  0  0  0  0
  -17.0010    3.2360    7.5510 C   0  0  0  0  0  0
  -15.9370    3.7090    7.0920 O   0  0  0  0  0  0
  -17.1760    2.9830    9.0050 C   0  0  0  0  0  0
  -16.4240    3.1310   10.1120 N   0  0  0  0  0  0
  -17.1640    2.7100   11.1700 C   0  0  0  0  0  0
  -18.9870    1.7350   13.1280 C   0  0  2  0  0  0
  -19.6240    0.6330   13.7820 O   0  0  0  0  0  0
  -18.8970   -0.5930   13.6700 C   0  0  0  0  0  0
  -19.5450    3.0350   13.6840 C   0  0  2  0  0  0
  -19.7640    3.0250   15.0970 O   0  0  0  0  0  0
  -24.8380    4.2350    9.0810 O   0  0  0  0  0  0
  -23.8070    3.9590   10.0360 C   0  0  2  0  0  0
  -23.0300    2.7440    9.5810 C   0  0  0  0  0  0
  -23.9820    1.6870    9.5710 O   0  0  0  0  0  0
  -23.5030    0.1620    9.7270 P   0  0  1  0  0  0
  -24.7410   -0.7020    9.8110 O   0  0  0  0  0  0
  -22.4700   -0.0830    8.6510 O   0  0  0  0  0  0
  -22.7880    0.1430   11.1770 O   0  0  0  0  0  0
  -23.4820   -0.2790   12.3570 C   0  0  0  0  0  0
  -22.7530    0.2320   13.6050 C   0  0  0  0  0  0
  -21.7640   -0.7900   14.1800 C   0  0  0  0  0  0
  -21.3190   -0.4010   15.5940 C   0  0  0  0  0  0
  -19.9270   -0.9380   15.9330 C   0  0  0  0  0  0
  -19.8090   -1.3270   17.4100 C   0  0  0  0  0  0
  -18.5470   -0.9220   17.9660 O   0  0  0  0  0  0
  -18.1200   -1.4380   19.2520 N   0  3  0  0  0  0
  -17.8190   -0.6070   20.3970 O   0  0  0  0  0  0
  -16.3790    0.1040   20.5670 P   0  0  1  0  0  0
  -16.5760    1.5580   20.9280 O   0  0  0  0  0  0
  -15.5030   -0.7610   21.4410 O   0  0  0  0  0  0
  -15.7760    0.0330   19.0720 O   0  0  0  0  0  0
  -16.1110    0.9680   18.0490 C   0  0  2  0  0  0
  -16.3480    0.1880   16.7620 C   0  0  1  0  0  0
  -17.2210    1.0050   15.8120 C   0  0  0  0  0  0
  -18.0920    1.8200   16.5960 O   0  0  0  0  0  0
  -18.5850    3.3120   16.1770 P   0  0  1  0  0  0
  -17.4490    4.0480   15.5200 O   0  0  0  0  0  0
  -19.2550    3.8710   17.4090 O   0  0  0  0  0  0
  -14.8360    1.6940   17.7350 C   0  0  1  0  0  0
  -14.1670    2.2090   18.8810 O   0  0  0  0  0  0
  -13.8010    3.5770   18.6990 C   0  0  0  0  0  0
  -14.1200    0.4810   17.2060 C   0  0  1  0  0  0
  -15.0340   -0.0010   16.2120 O   0  0  0  0  0  0
  -12.7480    0.8230   16.7680 N   0  0  0  0  0  0
  -12.2130    2.0500   16.7800 C   0  0  0  0  0  0
  -10.9120    1.9340   16.3210 C   0  0  0  0  0  0
  -10.6870    0.6280   16.0560 N   0  0  0  0  0  0
  -11.8230   -0.0490   16.3400 C   0  0  0  0  0  0
  -12.6930    3.2740   17.1240 N   0  0  0  0  0  0
  -11.9070    4.3600   17.0160 C   0  0  0  0  0  0
  -10.6440    4.2710   16.5710 N   0  0  0  0  0  0
  -10.1260    3.0730   16.2190 C   0  0  0  0  0  0
   -8.8530    2.9730   15.7720 N   0  0  0  0  0  0
  -25.7888    2.6527    7.2980 H   0  0  0  0  0  0
  -32.5117    4.8201   10.0593 H   0  0  0  0  0  0
  -28.9236    4.8586   10.5591 H   0  0  0  0  0  0
  -26.4961    5.0885   10.0215 H   0  0  0  0  0  0
  -25.9616    2.0727   10.6173 H   0  0  0  0  0  0
  -28.6300    2.5267   12.5736 H   0  0  0  0  0  0
  -27.4802    1.3463   11.8585 H   0  0  0  0  0  0
  -28.3991    2.4633   10.7933 H   0  0  0  0  0  0
  -24.0213    3.0112   12.0580 H   0  0  0  0  0  0
  -26.5879    4.2645   14.1590 H   0  0  0  0  0  0
  -23.2295    8.5875   13.2768 H   0  0  0  0  0  0
  -22.4298    6.9809   13.1994 H   0  0  0  0  0  0
  -23.4824    6.8820   10.8418 H   0  0  0  0  0  0
  -24.5173    8.6987   10.0457 H   0  0  0  0  0  0
  -23.9272    9.7407   11.3846 H   0  0  0  0  0  0
  -22.8777    8.8191    8.9588 H   0  0  0  0  0  0
  -22.8507   11.4868    9.4046 H   0  0  0  0  0  0
  -21.4103   10.7887    8.5895 H   0  0  0  0  0  0
  -21.9559    9.1363    6.3233 H   0  0  0  0  0  0
  -26.3192    9.0326    4.1867 H   0  0  0  0  0  0
  -28.0529    9.6779    4.6429 H   0  0  0  0  0  0
  -27.5622   11.7545    8.6878 H   0  0  0  0  0  0
  -21.3245    7.8802    9.0512 H   0  0  0  0  0  0
  -20.4225    9.2533    9.7775 H   0  0  0  0  0  0
  -21.1568    8.7410   12.0018 H   0  0  0  0  0  0
  -18.1509    7.5565   11.2604 H   0  0  0  0  0  0
  -22.1230    4.8516   13.4617 H   0  0  0  0  0  0
  -21.5358    4.8870   11.7645 H   0  0  0  0  0  0
  -21.6796    2.5947   13.3707 H   0  0  0  0  0  0
  -19.7255    0.7578   11.3154 H   0  0  0  0  0  0
  -20.3860    1.7568    8.7949 H   0  0  0  0  0  0
  -19.9686    2.3637    5.2824 H   0  0  0  0  0  0
  -16.8195    2.7166   12.2041 H   0  0  0  0  0  0
  -17.9083    1.5904   13.2876 H   0  0  0  0  0  0
  -19.4427   -1.3920   14.1932 H   0  0  0  0  0  0
  -17.9017   -0.4717   14.1224 H   0  0  0  0  0  0
  -18.7872   -0.8585   12.6082 H   0  0  0  0  0  0
  -18.8490    3.8845   13.6209 H   0  0  0  0  0  0
  -23.1268    4.8196   10.1179 H   0  0  0  0  0  0
  -22.6148    2.9283    8.5792 H   0  0  0  0  0  0
  -22.2099    2.5475   10.2873 H   0  0  0  0  0  0
  -25.3835   -0.8298    8.9273 H   0  0  0  0  0  0
  -24.5051    0.1248   12.3448 H   0  0  0  0  0  0
  -23.5219   -1.3779   12.3857 H   0  0  0  0  0  0
  -22.1865    1.1405   13.3525 H   0  0  0  0  0  0
  -23.4881    0.4645   14.3896 H   0  0  0  0  0  0
  -22.2431   -1.7792   14.2241 H   0  0  0  0  0  0
  -20.8742   -0.8420   13.5354 H   0  0  0  0  0  0
  -21.2917    0.6952   15.6812 H   0  0  0  0  0  0
  -22.0296   -0.8096   16.3275 H   0  0  0  0  0  0
  -19.7200   -1.8304   15.3241 H   0  0  0  0  0  0
  -19.1738   -0.1654   15.7190 H   0  0  0  0  0  0
  -20.6123   -0.8403   17.9826 H   0  0  0  0  0  0
  -19.8973   -2.4189   17.5098 H   0  0  0  0  0  0
  -18.8963   -2.1047   19.6556 H   0  0  0  0  0  0
  -17.1822   -1.9996   19.1287 H   0  0  0  0  0  0
  -16.9816    1.8299   21.9137 H   0  0  0  0  0  0
  -16.9556    1.5764   18.4046 H   0  0  0  0  0  0
  -16.8209   -0.7940   16.9106 H   0  0  0  0  0  0
  -16.5814    1.6366   15.1780 H   0  0  0  0  0  0
  -17.8087    0.3250   15.1778 H   0  0  0  0  0  0
  -20.0846    3.3235   17.8802 H   0  0  0  0  0  0
  -14.9070    2.6128   17.1343 H   0  0  0  0  0  0
  -13.2876    3.9423   19.6007 H   0  0  0  0  0  0
  -14.7052    4.1782   18.5229 H   0  0  0  0  0  0
  -13.1282    3.6645   17.8332 H   0  0  0  0  0  0
  -13.9210   -0.3467   17.9026 H   0  0  0  0  0  0
  -11.9635   -1.1251   16.2380 H   0  0  0  0  0  0
  -12.3051    5.3352   17.2964 H   0  0  0  0  0  0
   -8.4449    1.9914   15.4891 H   0  0  0  0  0  0
   -8.2261    3.8732   15.6914 H   0  0  0  0  0  0
  1  2  2  0  0  0
  2  3  1  0  0  0
  2  6  1  0  0  0
  3  4  1  0  0  0
  3 10  2  0  0  0
  4  5  2  0  0  0
  5 11  1  0  0  0
  5107  1  0  0  0
  6  7  1  0  0  0
  7  8  2  0  0  0
  7  9  1  0  0  0
  8108  1  0  0  0
  9 10  1  0  0  0
  9109  1  0  0  0
 10 11  1  0  0  0
 11 12  1  0  0  0
 12 13  1  0  0  0
 12 64  1  0  0  0
 12110  1  0  0  0
 13 14  1  0  0  0
 13 16  1  0  0  0
 13111  1  0  0  0
 14 15  1  0  0  0
 15112  1  0  0  0
 15113  1  0  0  0
 15114  1  0  0  0
 16 17  1  0  0  0
 16 65  1  0  0  0
 16115  1  0  0  0
 17 18  1  0  0  0
 18 19  2  0  0  0
 18 20  1  0  0  0
 18 21  1  0  0  0
 20116  1  0  0  0
 21 22  1  0  0  0
 22 23  1  0  0  0
 22117  1  0  0  0
 22118  1  0  0  0
 23 24  1  0  0  0
 23 38  1  0  0  0
 23119  1  0  0  0
 24 25  1  0  0  0
 24120  1  0  0  0
 24121  1  0  0  0
 25 26  1  0  0  0
 25 37  1  0  0  0
 25122  1  0  0  0
 26 27  1  0  0  0
 26123  1  0  0  0
 26124  1  0  0  0
 27 28  2  0  0  0
 27 36  1  0  0  0
 28 29  1  0  0  0
 28125  1  0  0  0
 29 30  1  0  0  0
 30 31  1  0  0  0
 30 36  2  0  0  0
 31 32  1  0  0  0
 31 33  2  0  0  0
 32126  1  0  0  0
 32127  1  0  0  0
 33 34  1  0  0  0
 34 35  2  0  0  0
 34128  1  0  0  0
 35 36  1  0  0  0
 37 38  1  0  0  0
 37129  1  0  0  0
 37130  1  0  0  0
 38 39  1  0  0  0
 38131  1  0  0  0
 39 40  1  0  0  0
 40 41  1  0  0  0
 40 42  2  0  0  0
 40 43  1  0  0  0
 41132  1  0  0  0
 43 44  1  0  0  0
 44 45  1  0  0  0
 44133  1  0  0  0
 44134  1  0  0  0
 45 46  1  0  0  0
 45 62  1  0  0  0
 45135  1  0  0  0
 46 47  1  0  0  0
 47 48  1  0  0  0
 47 59  1  0  0  0
 47136  1  0  0  0
 48 49  1  0  0  0
 48 58  1  0  0  0
 49 50  1  0  0  0
 49 56  2  0  0  0
 50 51  1  0  0  0
 50137  1  0  0  0
 51 52  2  0  0  0
 51 53  1  0  0  0
 52138  1  0  0  0
 53 54  1  0  0  0
 54 55  2  0  0  0
 54 56  1  0  0  0
 56 57  1  0  0  0
 57 58  2  0  0  0
 58139  1  0  0  0
 59 60  1  0  0  0
 59 62  1  0  0  0
 59140  1  0  0  0
 60 61  1  0  0  0
 61141  1  0  0  0
 61142  1  0  0  0
 61143  1  0  0  0
 62 63  1  0  0  0
 62144  1  0  0  0
 63 89  1  0  0  0
 64 65  1  0  0  0
 65 66  1  0  0  0
 65145  1  0  0  0
 66 67  1  0  0  0
 66146  1  0  0  0
 66147  1  0  0  0
 67 68  1  0  0  0
 68 69  1  0  0  0
 68 70  2  0  0  0
 68 71  1  0  0  0
 69148  1  0  0  0
 71 72  1  0  0  0
 72 73  1  0  0  0
 72149  1  0  0  0
 72150  1  0  0  0
 73 74  1  0  0  0
 73151  1  0  0  0
 73152  1  0  0  0
 74 75  1  0  0  0
 74153  1  0  0  0
 74154  1  0  0  0
 75 76  1  0  0  0
 75155  1  0  0  0
 75156  1  0  0  0
 76 77  1  0  0  0
 76157  1  0  0  0
 76158  1  0  0  0
 77 78  1  0  0  0
 77159  1  0  0  0
 77160  1  0  0  0
 78 79  1  0  0  0
 79 80  1  0  0  0
 79161  1  0  0  0
 79162  1  0  0  0
 80 81  1  0  0  0
 81 82  1  0  0  0
 81 83  2  0  0  0
 81 84  1  0  0  0
 82163  1  0  0  0
 84 85  1  0  0  0
 85 86  1  0  0  0
 85 92  1  0  0  0
 85164  1  0  0  0
 86 87  1  0  0  0
 86 96  1  0  0  0
 86165  1  0  0  0
 87 88  1  0  0  0
 87166  1  0  0  0
 87167  1  0  0  0
 88 89  1  0  0  0
 89 90  2  0  0  0
 89 91  1  0  0  0
 91168  1  0  0  0
 92 93  1  0  0  0
 92 95  1  0  0  0
 92169  1  0  0  0
 93 94  1  0  0  0
 94170  1  0  0  0
 94171  1  0  0  0
 94172  1  0  0  0
 95 96  1  0  0  0
 95 97  1  0  0  0
 95173  1  0  0  0
 97 98  1  0  0  0
 97101  1  0  0  0
 98 99  2  0  0  0
 98102  1  0  0  0
 99100  1  0  0  0
 99105  1  0  0  0
100101  2  0  0  0
101174  1  0  0  0
102103  2  0  0  0
103104  1  0  0  0
103175  1  0  0  0
104105  2  0  0  0
105106  1  0  0  0
106176  1  0  0  0
106177  1  0  0  0
M  CHG  2  25   1  79   1
M  END
> <s_m_source_file>
../3hio_ligand.sdf

> <i_m_source_file_index>
1

> <s_epik_input>
Tz1jMVtuSF0vYyg9TlxbSF0pW25IXWMoYzEyKW4oW2NIXW4yKVtDQEBIXShbQ0BASF0zT1tDSDNdKU9bQ0BASF0oW0NASF0zNClbQ0gyXU9bUEBdKD1PKShbT0hdKU9bQ0gyXVtDSDJdW0NIMl1bQ0gyXVtDSDJdW0NIMl1PW05IMitdT1tQQF0oPU8pKFtPSF0pT1tDQEBIXTVbQ0BIXShPW0NASF0oW0NAQEhdNU9bQ0gzXSluNltjSF1uYyhjNjcpYyhbTkgyXSluW2NIXW43KVtDSDJdT1tQQF0oPU8pKFtPSF0pT1tDQEBIXThbQ0BIXShPW0NASF0oW0NAQEhdOE9bQ0gzXSluOVtjSF1uYyhjMTkpYyg9TylbbkhdYyhcW25IXTEpPU4vW0hdKVtDSDJdT1tQQEBdKD1PKShbT0hdKU9bQ0BASF0xW0NAQEhdKFtDSDJdT1tQQEBdKE80KSg9TylbT0hdKVtDSDJdW05IK10oW0NIMl0xKVtDSDJdYyhbY0hdW25IXTEpYyhjMTIpbltjSF1uYzJbTkgyXQ==

> <s_epik_cmdline>
J2VwaWtfYXBwJywgJy1pbWFlJywgJ2xpZ2FuZF9wcm8ubWFlJywgJy1vbWFlJywgJ2xpZ2FuZF9wcmVwLm1hZScsICctbXMnLCAnMScsICctcGgnLCAnNycsICctcGh0JywgJzAuNScsICctbnQn

> <s_epik_pKa_notes>
Molecule size exceeds maximum supported for generating protonation states

> <s_epik_Chemistry_Notes>
This compound contains an acetal/aminal-like group ( X-CH(R)-Y where X, Y are N, S, or O) that may be acid/base labile, releasing an aldehyde. This compound has a N-S or N-O group and may undergo hydrolysis at high or low pH.

$$$$
