3hj0_ligand
                    3D
 Schrodinger Suite 2020-3.
 35 36  0  0  1  0            999 V2000
   -0.5720   -0.6270   -0.3170 C   0  0  0  0  0  0
    0.4340   -0.2830    0.2950 O   0  0  0  0  0  0
   -1.0610    0.1990   -1.4830 C   0  0  0  0  0  0
   -1.9230    1.2100   -1.0880 C   0  0  0  0  0  0
   -2.4660    2.0610   -2.0210 C   0  0  0  0  0  0
   -2.1330    1.9090   -3.3580 C   0  0  0  0  0  0
   -1.2750    0.9120   -3.7990 C   0  0  0  0  0  0
   -0.7170    0.0420   -2.8510 C   0  0  0  0  0  0
   -1.0450    0.9010   -5.2840 C   0  0  0  0  0  0
   -0.4260   -0.0550   -5.9790 C   0  0  0  0  0  0
   -0.2840   -0.0130   -7.4720 C   0  0  0  0  0  0
    0.1110   -1.1630   -8.1650 C   0  0  0  0  0  0
    0.2300   -1.1780   -9.5660 C   0  0  0  0  0  0
    0.6480   -2.4220  -10.3170 C   0  0  0  0  0  0
   -0.0360    0.0050  -10.2590 C   0  0  0  0  0  0
    0.0700    0.0250  -11.6290 O   0  0  0  0  0  0
   -0.4130    1.1760   -9.5980 C   0  0  0  0  0  0
   -0.7140    2.4340  -10.3870 C   0  0  0  0  0  0
   -0.5320    1.1540   -8.2000 C   0  0  0  0  0  0
   -1.1153   -1.5349   -0.0161 H   0  0  0  0  0  0
   -2.1712    1.3307   -0.0335 H   0  0  0  0  0  0
   -3.1529    2.8489   -1.7120 H   0  0  0  0  0  0
   -2.5600    2.5966   -4.0881 H   0  0  0  0  0  0
   -0.0284   -0.7442   -3.1607 H   0  0  0  0  0  0
   -1.4432    1.7865   -5.8009 H   0  0  0  0  0  0
    0.0071   -0.9213   -5.4575 H   0  0  0  0  0  0
    0.3322   -2.0709   -7.6039 H   0  0  0  0  0  0
    0.8110   -3.2434   -9.6038 H   0  0  0  0  0  0
    1.5800   -2.2229  -10.8663 H   0  0  0  0  0  0
   -0.1430   -2.7046  -11.0273 H   0  0  0  0  0  0
    0.3654   -0.8854  -12.1711 H   0  0  0  0  0  0
   -0.5605    2.2401  -11.4588 H   0  0  0  0  0  0
   -0.0419    3.2412  -10.0604 H   0  0  0  0  0  0
   -1.7582    2.7339  -10.2145 H   0  0  0  0  0  0
   -0.8228    2.0626   -7.6728 H   0  0  0  0  0  0
  1  2  2  0  0  0
  1  3  1  0  0  0
  1 20  1  0  0  0
  3  4  2  0  0  0
  3  8  1  0  0  0
  4  5  1  0  0  0
  4 21  1  0  0  0
  5  6  2  0  0  0
  5 22  1  0  0  0
  6  7  1  0  0  0
  6 23  1  0  0  0
  7  8  2  0  0  0
  7  9  1  0  0  0
  8 24  1  0  0  0
  9 10  2  0  0  0
  9 25  1  0  0  0
 10 11  1  0  0  0
 10 26  1  0  0  0
 11 12  2  0  0  0
 11 19  1  0  0  0
 12 13  1  0  0  0
 12 27  1  0  0  0
 13 14  1  0  0  0
 13 15  2  0  0  0
 14 28  1  0  0  0
 14 29  1  0  0  0
 14 30  1  0  0  0
 15 16  1  0  0  0
 15 17  1  0  0  0
 16 31  1  0  0  0
 17 18  1  0  0  0
 17 19  2  0  0  0
 18 32  1  0  0  0
 18 33  1  0  0  0
 18 34  1  0  0  0
 19 35  1  0  0  0
M  END
> <s_m_source_file>
../3hj0_ligand.sdf

> <i_m_source_file_index>
1

> <s_epik_input>
Tz1bQ0hdYzFbY0hdW2NIXVtjSF1jKFtjSF0xKS9bQ0hdPVtDSF0vYzJbY0hdYyhbQ0gzXSljKFtPSF0pYyhbQ0gzXSlbY0hdMg==

> <s_epik_cmdline>
J2VwaWtfYXBwJywgJy1pbWFlJywgJ2xpZ2FuZF9wcm8ubWFlJywgJy1vbWFlJywgJ2xpZ2FuZF9wcmVwLm1hZScsICctbXMnLCAnMScsICctcGgnLCAnNycsICctcGh0JywgJzAuNScsICctbnQn

> <r_lp_tautomer_probability>
1

> <r_epik_Ionization_Penalty>
  0.0001

> <r_epik_Ionization_Penalty_Charging>
  0.0000

> <r_epik_Ionization_Penalty_Neutral>
  0.0001

> <r_epik_State_Penalty>
 -0.0000

> <r_epik_Charging_Adjusted_Penalty>
0

> <i_epik_Tot_Q>
0

> <i_epik_Tot_abs_Q>
0

$$$$
