3hjo_ligand
                    3D
 Schrodinger Suite 2020-3.
 30 30  0  0  1  0            999 V2000
    8.7300    3.4890   31.5240 C   0  0  0  0  0  0
    8.3210    3.4020   32.8350 O   0  0  0  0  0  0
    9.3440    2.3060   30.8770 C   0  0  0  0  0  0
    9.5760    0.7520   31.7470 Cl  0  0  0  0  0  0
    9.7780    2.4150   29.4690 C   0  0  0  0  0  0
   10.5200    0.9610   28.7560 Cl  0  0  0  0  0  0
    9.5920    3.6940   28.7250 C   0  0  0  0  0  0
    8.9980    4.7460   29.4300 C   0  0  0  0  0  0
    8.5810    4.6550   30.7690 C   0  0  0  0  0  0
    9.9990    3.9080   27.2730 C   0  0  0  0  0  0
    9.5400    4.8630   26.6660 O   0  0  0  0  0  0
   10.9280    3.0550   26.5200 C   0  0  0  0  0  0
   11.0190    3.1740   25.0050 C   0  0  0  0  0  0
   12.1810    2.3660   24.4430 C   0  0  0  0  0  0
   11.7120    2.1930   27.1420 C   0  0  0  0  0  0
    8.3060    4.5530   33.6850 C   0  0  0  0  0  0
    6.8900    4.9940   33.9570 C   0  0  0  0  0  0
    6.0190    4.8080   33.0780 O   0  5  0  0  0  0
    6.6390    5.5310   35.0560 O   0  0  0  0  0  0
    8.8498    5.6924   28.9100 H   0  0  0  0  0  0
    8.1240    5.5273   31.2362 H   0  0  0  0  0  0
   10.0885    2.8020   24.5515 H   0  0  0  0  0  0
   11.1658    4.2284   24.7282 H   0  0  0  0  0  0
   12.2110    2.4789   23.3492 H   0  0  0  0  0  0
   12.0470    1.3045   24.6985 H   0  0  0  0  0  0
   13.1244    2.7310   24.8753 H   0  0  0  0  0  0
   11.6605    2.0930   28.2362 H   0  0  0  0  0  0
   12.4164    1.5751   26.5658 H   0  0  0  0  0  0
    8.7930    4.3093   34.6408 H   0  0  0  0  0  0
    8.8479    5.3764   33.1968 H   0  0  0  0  0  0
  1  2  1  0  0  0
  1  3  2  0  0  0
  1  9  1  0  0  0
  2 16  1  0  0  0
  3  4  1  0  0  0
  3  5  1  0  0  0
  5  6  1  0  0  0
  5  7  2  0  0  0
  7  8  1  0  0  0
  7 10  1  0  0  0
  8  9  2  0  0  0
  8 20  1  0  0  0
  9 21  1  0  0  0
 10 11  2  0  0  0
 10 12  1  0  0  0
 12 13  1  0  0  0
 12 15  2  0  0  0
 13 14  1  0  0  0
 13 22  1  0  0  0
 13 23  1  0  0  0
 14 24  1  0  0  0
 14 25  1  0  0  0
 14 26  1  0  0  0
 15 27  1  0  0  0
 15 28  1  0  0  0
 16 17  1  0  0  0
 16 29  1  0  0  0
 16 30  1  0  0  0
 17 18  1  0  0  0
 17 19  2  0  0  0
M  CHG  1  18  -1
M  END
> <s_m_source_file>
../3hjo_ligand.sdf

> <i_m_source_file_index>
1

> <s_epik_input>
W09IXUMoPU8pW0NIMl1PYzFjKENsKWMoQ2wpYyhbY0hdW2NIXTEpQyg9TylDKD1bQ0gyXSlbQ0gyXVtDSDNd

> <s_epik_cmdline>
J2VwaWtfYXBwJywgJy1pbWFlJywgJ2xpZ2FuZF9wcm8ubWFlJywgJy1vbWFlJywgJ2xpZ2FuZF9wcmVwLm1hZScsICctbXMnLCAnMScsICctcGgnLCAnNycsICctcGh0JywgJzAuNScsICctbnQn

> <r_lp_tautomer_probability>
1

> <r_epik_Ionization_Penalty>
  0.0000

> <r_epik_Ionization_Penalty_Charging>
  0.0000

> <r_epik_Ionization_Penalty_Neutral>
  0.0000

> <r_epik_State_Penalty>
 -0.0000

> <r_epik_Charging_Adjusted_Penalty>
3.6670866336443e-05

> <i_epik_Tot_Q>
-1

> <i_epik_Tot_abs_Q>
1

$$$$
