3hk1_ligand
                    3D
 Schrodinger Suite 2020-3.
 34 35  0  0  1  0            999 V2000
   10.2870   19.4680   -2.7600 C   0  0  0  0  0  0
   11.5380   18.6230   -2.7280 C   0  0  0  0  0  0
   11.9650   18.1150   -4.0930 C   0  0  0  0  0  0
   10.3950   20.5690   -2.2000 O   0  0  0  0  0  0
    9.2250   19.0740   -3.3220 O   0  5  0  0  0  0
   11.3120   20.2010   -5.3400 O   0  0  0  0  0  0
   12.8070   18.7190   -6.2890 N   0  0  0  0  0  0
   12.9560   19.3520   -7.4870 C   0  0  0  0  0  0
   13.9350   18.7420   -8.3870 C   0  0  0  0  0  0
   13.9610   19.6590   -9.8820 S   0  0  0  0  0  0
   12.6220   20.6750   -9.3110 C   0  0  0  0  0  0
   12.1850   20.4130   -8.0030 C   0  0  0  0  0  0
   14.8620   17.6370   -8.1270 C   0  0  0  0  0  0
   15.7540   17.2440   -9.1790 O   0  0  0  0  0  0
   16.6570   16.1790   -8.8820 C   0  0  0  0  0  0
   14.9240   17.1030   -7.0200 O   0  0  0  0  0  0
   12.1090   21.7390  -10.2140 C   0  0  0  0  0  0
   11.1580   22.7110   -9.9010 C   0  0  0  0  0  0
   10.9470   23.5530  -11.0240 C   0  0  0  0  0  0
   11.7010   23.2960  -12.1910 C   0  0  0  0  0  0
   12.6660   21.8290  -11.8870 S   0  0  0  0  0  0
   12.0340   19.1870   -5.2510 C   0  0  0  0  0  0
   12.3712   19.2166   -2.3238 H   0  0  0  0  0  0
   11.3703   17.7437   -2.0887 H   0  0  0  0  0  0
   12.9733   17.6807   -4.0236 H   0  0  0  0  0  0
   11.2573   17.3459   -4.4359 H   0  0  0  0  0  0
   13.3246   17.7665   -6.1021 H   0  0  0  0  0  0
   11.3878   20.9388   -7.4776 H   0  0  0  0  0  0
   17.2831   15.9728   -9.7626 H   0  0  0  0  0  0
   16.0857   15.2766   -8.6188 H   0  0  0  0  0  0
   17.2980   16.4670   -8.0357 H   0  0  0  0  0  0
   10.6536   22.8088   -8.9397 H   0  0  0  0  0  0
   10.2272   24.3707  -10.9874 H   0  0  0  0  0  0
   11.6938   23.8859  -13.1076 H   0  0  0  0  0  0
  1  2  1  0  0  0
  1  4  2  0  0  0
  1  5  1  0  0  0
  2  3  1  0  0  0
  2 23  1  0  0  0
  2 24  1  0  0  0
  3 22  1  0  0  0
  3 25  1  0  0  0
  3 26  1  0  0  0
  6 22  2  0  0  0
  7  8  1  0  0  0
  7 22  1  0  0  0
  7 27  1  0  0  0
  8  9  2  0  0  0
  8 12  1  0  0  0
  9 10  1  0  0  0
  9 13  1  0  0  0
 10 11  1  0  0  0
 11 12  2  0  0  0
 11 17  1  0  0  0
 12 28  1  0  0  0
 13 14  1  0  0  0
 13 16  2  0  0  0
 14 15  1  0  0  0
 15 29  1  0  0  0
 15 30  1  0  0  0
 15 31  1  0  0  0
 17 18  2  0  0  0
 17 21  1  0  0  0
 18 19  1  0  0  0
 18 32  1  0  0  0
 19 20  2  0  0  0
 19 33  1  0  0  0
 20 21  1  0  0  0
 20 34  1  0  0  0
M  CHG  1   5  -1
M  END
> <s_m_source_file>
../3hk1_ligand.sdf

> <i_m_source_file_index>
1

> <s_epik_input>
Tz1DKFtPSF0pW0NIMl1bQ0gyXUMoPU8pW05IXWMxYyhDKD1PKU9bQ0gzXSlzYyhbY0hdMSktYzJbY0hdW2NIXVtjSF1zMg==

> <s_epik_cmdline>
J2VwaWtfYXBwJywgJy1pbWFlJywgJ2xpZ2FuZF9wcm8ubWFlJywgJy1vbWFlJywgJ2xpZ2FuZF9wcmVwLm1hZScsICctbXMnLCAnMScsICctcGgnLCAnNycsICctcGh0JywgJzAuNScsICctbnQn

> <r_lp_tautomer_probability>
1

> <r_epik_Ionization_Penalty>
  0.0047

> <r_epik_Ionization_Penalty_Charging>
  0.0046

> <r_epik_Ionization_Penalty_Neutral>
  0.0001

> <r_epik_State_Penalty>
 -0.0000

> <r_epik_Charging_Adjusted_Penalty>
0.00460879820548076

> <i_epik_Tot_Q>
-1

> <i_epik_Tot_abs_Q>
1

> <s_epik_Chemistry_Notes>
This compound has an ester and may undergo hydrolysis at high or low pH.

$$$$
