3hkn_ligand
                    3D
 Schrodinger Suite 2020-3.
 84 85  0  0  1  0            999 V2000
   16.1140    4.1460   13.8670 C   0  0  1  0  0  0
   16.7560    5.2000   12.9790 C   0  0  2  0  0  0
   16.8800    7.6600   12.8930 O   0  0  0  0  0  0
   18.2170    8.1770   12.9870 C   0  0  1  0  0  0
   18.5910    8.8240   11.6630 C   0  0  1  0  0  0
   20.0350    9.2900   11.7170 C   0  0  2  0  0  0
   20.1830   10.2950   12.8430 C   0  0  2  0  0  0
   19.6660    9.6260   14.1030 C   0  0  1  0  0  0
   19.8580   10.5680   15.2820 C   0  0  0  0  0  0
   18.4550    2.7420   13.1300 C   0  0  0  0  0  0
   17.0580    2.1950   12.8370 C   0  0  0  0  0  0
   16.9900    4.9010   10.7230 C   0  0  0  0  0  0
   17.3260    6.3910   15.0350 C   0  0  2  0  0  0
   17.1910    7.6790   15.8260 C   0  0  0  0  0  0
   20.1780    6.5920   11.9110 C   0  0  0  0  0  0
   19.3000    6.8340   10.6800 C   0  0  0  0  0  0
   19.3660    6.0600    9.7260 O   0  0  0  0  0  0
   18.4810    7.9120   10.5640 O   0  0  0  0  0  0
   20.4680    9.8620   10.4740 O   0  0  0  0  0  0
   21.8170    9.7510   10.3300 C   0  0  0  0  0  0
   22.6600    9.0310   11.3850 C   0  0  0  0  0  0
   22.3660   10.2140    9.3310 O   0  0  0  0  0  0
   19.4250   11.4810   12.5680 O   0  0  0  0  0  0
   20.2800   12.5030   12.0340 C   0  0  0  0  0  0
   20.4480   13.8280   12.7820 C   0  0  0  0  0  0
   20.9790   12.2980   10.8040 O   0  0  0  0  0  0
   20.4520   11.8090   14.8700 O   0  0  0  0  0  0
   21.7840   11.8660   15.1530 C   0  0  0  0  0  0
   22.4490   10.7100   15.8870 C   0  0  0  0  0  0
   22.4480   12.8540   14.8390 O   0  0  0  0  0  0
   18.2890    9.2550   13.9330 O   0  0  0  0  0  0
   16.5870    6.5170   13.7150 C   0  0  2  0  0  0
   16.1230    5.2930   11.6960 O   0  0  0  0  0  0
   18.3310    4.2610   11.0840 C   0  0  0  0  0  0
   16.6690    5.0160    9.5420 O   0  0  0  0  0  0
   15.9400    2.8770   13.2130 O   0  0  0  0  0  0
   16.9380    1.1150   12.2610 O   0  0  0  0  0  0
   16.7910    4.0310   15.2240 C   0  0  2  0  0  0
   15.8970    2.8870   16.3430 S   0  0  0  0  0  0
   16.3410    3.1340   17.7550 O   0  0  0  0  0  0
   14.4190    3.1270   16.2540 O   0  0  0  0  0  0
   16.2250    1.3400   15.9480 N   0  0  0  0  0  0
   16.7730    5.3320   15.8320 O   0  0  0  0  0  0
   16.0530    8.3940   15.3250 O   0  0  0  0  0  0
   14.8540    7.9220   15.7630 C   0  0  0  0  0  0
   14.7630    6.7640   16.7600 C   0  0  0  0  0  0
   13.8310    8.4670   15.3540 O   0  0  0  0  0  0
   15.0695    4.4470   14.0358 H   0  0  0  0  0  0
   17.7970    4.9434   12.7332 H   0  0  0  0  0  0
   18.8399    7.3325   13.3170 H   0  0  0  0  0  0
   17.8781    9.6357   11.4558 H   0  0  0  0  0  0
   20.7049    8.4276   11.8497 H   0  0  0  0  0  0
   21.2190   10.6503   12.9457 H   0  0  0  0  0  0
   20.1796    8.6726   14.2960 H   0  0  0  0  0  0
   18.8822   10.7838   15.7416 H   0  0  0  0  0  0
   20.5169   10.0955   16.0253 H   0  0  0  0  0  0
   18.3691    3.7097   13.6459 H   0  0  0  0  0  0
   19.0013    2.8775   12.1849 H   0  0  0  0  0  0
   18.9998    2.0324   13.7700 H   0  0  0  0  0  0
   18.3762    6.1297   14.8378 H   0  0  0  0  0  0
   17.0504    7.4422   16.8910 H   0  0  0  0  0  0
   18.1021    8.2828   15.7018 H   0  0  0  0  0  0
   20.7496    5.6618   11.7765 H   0  0  0  0  0  0
   19.5416    6.5055   12.8040 H   0  0  0  0  0  0
   20.8735    7.4349   12.0367 H   0  0  0  0  0  0
   22.0088    8.6855   12.2014 H   0  0  0  0  0  0
   23.4149    9.7233   11.7861 H   0  0  0  0  0  0
   23.1622    8.1667   10.9258 H   0  0  0  0  0  0
   19.8420   13.8103   13.6999 H   0  0  0  0  0  0
   20.1158   14.6566   12.1393 H   0  0  0  0  0  0
   21.5069   13.9692   13.0443 H   0  0  0  0  0  0
   21.7053    9.9234   16.0823 H   0  0  0  0  0  0
   22.8611   11.0701   16.8412 H   0  0  0  0  0  0
   23.2611   10.3012   15.2678 H   0  0  0  0  0  0
   15.5390    6.7788   13.9227 H   0  0  0  0  0  0
   18.4461    4.2432   12.1778 H   0  0  0  0  0  0
   19.1486    4.8469   10.6388 H   0  0  0  0  0  0
   18.3629    3.2325   10.6951 H   0  0  0  0  0  0
   17.8478    3.8501   14.9779 H   0  0  0  0  0  0
   15.6826    0.6654   16.6267 H   0  0  0  0  0  0
   17.3063    1.1598   16.0387 H   0  0  0  0  0  0
   15.7755    6.4109   17.0052 H   0  0  0  0  0  0
   14.1855    5.9408   16.3141 H   0  0  0  0  0  0
   14.2626    7.1082   17.6771 H   0  0  0  0  0  0
  1  2  1  0  0  0
  1 36  1  0  0  0
  1 38  1  0  0  0
  1 48  1  0  0  0
  2 32  1  0  0  0
  2 33  1  0  0  0
  2 49  1  0  0  0
  3  4  1  0  0  0
  3 32  1  0  0  0
  4  5  1  0  0  0
  4 31  1  0  0  0
  4 50  1  0  0  0
  5  6  1  0  0  0
  5 18  1  0  0  0
  5 51  1  0  0  0
  6  7  1  0  0  0
  6 19  1  0  0  0
  6 52  1  0  0  0
  7  8  1  0  0  0
  7 23  1  0  0  0
  7 53  1  0  0  0
  8  9  1  0  0  0
  8 31  1  0  0  0
  8 54  1  0  0  0
  9 27  1  0  0  0
  9 55  1  0  0  0
  9 56  1  0  0  0
 10 11  1  0  0  0
 10 57  1  0  0  0
 10 58  1  0  0  0
 10 59  1  0  0  0
 11 36  1  0  0  0
 11 37  2  0  0  0
 12 33  1  0  0  0
 12 34  1  0  0  0
 12 35  2  0  0  0
 13 14  1  0  0  0
 13 32  1  0  0  0
 13 43  1  0  0  0
 13 60  1  0  0  0
 14 44  1  0  0  0
 14 61  1  0  0  0
 14 62  1  0  0  0
 15 16  1  0  0  0
 15 63  1  0  0  0
 15 64  1  0  0  0
 15 65  1  0  0  0
 16 17  2  0  0  0
 16 18  1  0  0  0
 19 20  1  0  0  0
 20 21  1  0  0  0
 20 22  2  0  0  0
 21 66  1  0  0  0
 21 67  1  0  0  0
 21 68  1  0  0  0
 23 24  1  0  0  0
 24 25  1  0  0  0
 24 26  2  0  0  0
 25 69  1  0  0  0
 25 70  1  0  0  0
 25 71  1  0  0  0
 27 28  1  0  0  0
 28 29  1  0  0  0
 28 30  2  0  0  0
 29 72  1  0  0  0
 29 73  1  0  0  0
 29 74  1  0  0  0
 32 75  1  0  0  0
 34 76  1  0  0  0
 34 77  1  0  0  0
 34 78  1  0  0  0
 38 39  1  0  0  0
 38 43  1  0  0  0
 38 79  1  0  0  0
 39 40  2  0  0  0
 39 41  2  0  0  0
 39 42  1  0  0  0
 42 80  1  0  0  0
 42 81  1  0  0  0
 44 45  1  0  0  0
 45 46  1  0  0  0
 45 47  2  0  0  0
 46 82  1  0  0  0
 46 83  1  0  0  0
 46 84  1  0  0  0
M  END
> <s_m_source_file>
../3hkn_ligand.sdf

> <i_m_source_file_index>
1

> <s_epik_input>
W0NIM11DKD1PKU9bQ0BASF0xW0NAQEhdKE9DKD1PKVtDSDNdKVtDQEBIXShbQ0BASF0oW0NIMl1PQyg9TylbQ0gzXSlPW0NASF0xUyg9TykoPU8pW05IMl0pT1tDQEhdMltDQEhdKE9DKD1PKVtDSDNdKVtDQEBIXShPQyg9TylbQ0gzXSlbQ0BASF0oT0MoPU8pW0NIM10pW0NASF0oTzIpW0NIMl1PQyg9TylbQ0gzXQ==

> <s_epik_cmdline>
J2VwaWtfYXBwJywgJy1pbWFlJywgJ2xpZ2FuZF9wcm8ubWFlJywgJy1vbWFlJywgJ2xpZ2FuZF9wcmVwLm1hZScsICctbXMnLCAnMScsICctcGgnLCAnNycsICctcGh0JywgJzAuNScsICctbnQn

> <r_epik_Ionization_Penalty>
  0.0244

> <r_epik_Ionization_Penalty_Charging>
  0.0000

> <r_epik_Ionization_Penalty_Neutral>
  0.0244

> <r_epik_State_Penalty>
  0.0198

> <r_epik_Charging_Adjusted_Penalty>
0.0198339409508746

> <i_epik_Tot_Q>
0

> <i_epik_Tot_abs_Q>
0

> <s_epik_Chemistry_Notes>
This compound has an ester and may undergo hydrolysis at high or low pH. This compound contains an acetal/aminal-like group ( X-CH(R)-Y where X, Y are N, S, or O) that may be acid/base labile, releasing an aldehyde.

$$$$
