3hkq_ligand
                    3D
 Schrodinger Suite 2020-3.
 28 28  0  0  1  0            999 V2000
   17.0460    2.1500   13.8140 O   0  0  0  0  0  0
   16.5600    3.4770   14.0360 C   0  0  2  0  0  0
   17.2540    4.4430   13.0750 C   0  0  1  0  0  0
   16.8650    4.1410   11.7320 O   0  0  0  0  0  0
   16.8400    5.8770   13.4070 C   0  0  1  0  0  0
   15.4430    6.0370   13.1470 O   0  0  0  0  0  0
   17.1130    6.1610   14.8850 C   0  0  1  0  0  0
   16.6930    7.5940   15.2180 C   0  0  0  0  0  0
   15.2970    7.7540   14.9570 O   0  0  0  0  0  0
   16.3620    5.2370   15.6880 O   0  0  0  0  0  0
   16.8230    3.8910   15.4860 C   0  0  1  0  0  0
   15.9190    2.7790   16.6260 S   0  0  0  0  0  0
   16.3670    3.0430   18.0330 O   0  0  0  0  0  0
   14.4450    3.0350   16.5230 O   0  0  0  0  0  0
   16.2440    1.2300   16.2370 N   0  0  0  0  0  0
   16.9420    1.6849   12.8226 H   0  0  0  0  0  0
   15.4791    3.4373   13.8360 H   0  0  0  0  0  0
   18.3467    4.3218   13.1115 H   0  0  0  0  0  0
   17.0785    3.1490   11.3074 H   0  0  0  0  0  0
   17.3585    6.5999   12.7600 H   0  0  0  0  0  0
   15.0502    5.8740   12.1325 H   0  0  0  0  0  0
   18.1713    5.9961   15.1356 H   0  0  0  0  0  0
   16.8931    7.7972   16.2804 H   0  0  0  0  0  0
   17.2654    8.2978   14.5959 H   0  0  0  0  0  0
   14.8113    8.7242   15.1380 H   0  0  0  0  0  0
   17.9140    4.0116   15.5584 H   0  0  0  0  0  0
   15.7024    0.5591   16.9200 H   0  0  0  0  0  0
   17.3253    1.0488   16.3259 H   0  0  0  0  0  0
  1  2  1  0  0  0
  1 16  1  0  0  0
  2  3  1  0  0  0
  2 11  1  0  0  0
  2 17  1  0  0  0
  3  4  1  0  0  0
  3  5  1  0  0  0
  3 18  1  0  0  0
  4 19  1  0  0  0
  5  6  1  0  0  0
  5  7  1  0  0  0
  5 20  1  0  0  0
  6 21  1  0  0  0
  7  8  1  0  0  0
  7 10  1  0  0  0
  7 22  1  0  0  0
  8  9  1  0  0  0
  8 23  1  0  0  0
  8 24  1  0  0  0
  9 25  1  0  0  0
 10 11  1  0  0  0
 11 12  1  0  0  0
 11 26  1  0  0  0
 12 13  2  0  0  0
 12 14  2  0  0  0
 12 15  1  0  0  0
 15 27  1  0  0  0
 15 28  1  0  0  0
M  END
> <s_m_source_file>
../3hkq_ligand.sdf

> <i_m_source_file_index>
1

> <s_epik_input>
W09IXVtDQEBIXTFbQ0BASF0oW09IXSlbQ0BASF0oW09IXSlbQ0BASF0oW0NIMl1bT0hdKU9bQ0BIXTFTKD1PKSg9TylbTkgyXQ==

> <s_epik_cmdline>
J2VwaWtfYXBwJywgJy1pbWFlJywgJ2xpZ2FuZF9wcm8ubWFlJywgJy1vbWFlJywgJ2xpZ2FuZF9wcmVwLm1hZScsICctbXMnLCAnMScsICctcGgnLCAnNycsICctcGh0JywgJzAuNScsICctbnQn

> <r_lp_tautomer_probability>
1

> <r_epik_Ionization_Penalty>
  0.0035

> <r_epik_Ionization_Penalty_Charging>
  0.0000

> <r_epik_Ionization_Penalty_Neutral>
  0.0035

> <r_epik_State_Penalty>
 -0.0000

> <r_epik_Charging_Adjusted_Penalty>
0

> <i_epik_Tot_Q>
0

> <i_epik_Tot_abs_Q>
0

$$$$
