3hku_ligand
                    3D
 Schrodinger Suite 2020-3.
 43 45  0  0  1  0            999 V2000
   17.1660    7.9240   13.3690 C   0  0  0  0  0  0
   16.4080    6.6220   13.6940 C   0  0  0  0  0  0
   15.2040    6.8900   14.6100 C   0  0  0  0  0  0
   17.3610    5.6750   14.3050 O   0  0  0  0  0  0
   15.9650    6.0270   12.4750 O   0  0  0  0  0  0
   15.9590    4.5870   12.7530 C   0  0  1  0  0  0
   16.1250    3.8180   11.4060 C   0  0  2  0  0  0
   16.0700    2.4320   11.7090 O   0  0  0  0  0  0
   16.8590    1.7650   10.7100 C   0  0  0  0  0  0
   16.0510    1.4790    9.4210 C   0  0  0  0  0  0
   17.4250    0.4790   11.3180 C   0  0  0  0  0  0
   17.9560    2.6640   10.4220 O   0  0  0  0  0  0
   17.5010    4.0000   10.7580 C   0  0  2  0  0  0
   18.5360    4.5920   11.7150 C   0  0  0  0  0  0
   18.3500    4.0350   13.0500 O   0  0  0  0  0  0
   17.1570    4.4160   13.7190 C   0  0  1  0  0  0
   16.9260    3.3700   14.8380 C   0  0  0  0  0  0
   15.7080    3.5690   15.5330 O   0  0  0  0  0  0
   15.3430    2.7600   16.7370 S   0  0  0  0  0  0
   16.1920    3.2560   17.8520 O   0  0  0  0  0  0
   13.8850    2.9840   16.8950 O   0  0  0  0  0  0
   15.7010    1.2370   16.4040 N   0  0  0  0  0  0
   17.5116    8.3901   14.3035 H   0  0  0  0  0  0
   16.4949    8.6167   12.8401 H   0  0  0  0  0  0
   18.0325    7.6944   12.7315 H   0  0  0  0  0  0
   15.5515    7.3484   15.5476 H   0  0  0  0  0  0
   14.6943    5.9410   14.8327 H   0  0  0  0  0  0
   14.5042    7.5725   14.1055 H   0  0  0  0  0  0
   15.0173    4.2433   13.2060 H   0  0  0  0  0  0
   15.3258    4.1190   10.7127 H   0  0  0  0  0  0
   15.2210    0.7953    9.6527 H   0  0  0  0  0  0
   16.7090    1.0159    8.6710 H   0  0  0  0  0  0
   15.6489    2.4225    9.0234 H   0  0  0  0  0  0
   16.6009   -0.2143   11.5421 H   0  0  0  0  0  0
   17.9650    0.7188   12.2458 H   0  0  0  0  0  0
   18.1158    0.0085   10.6029 H   0  0  0  0  0  0
   17.4214    4.6467    9.8718 H   0  0  0  0  0  0
   19.5474    4.3490   11.3572 H   0  0  0  0  0  0
   18.4144    5.6845   11.7565 H   0  0  0  0  0  0
   16.9008    2.3621   14.3982 H   0  0  0  0  0  0
   17.7443    3.4300   15.5706 H   0  0  0  0  0  0
   15.4473    0.6036   17.2668 H   0  0  0  0  0  0
   16.7766    1.1515   16.1900 H   0  0  0  0  0  0
  1  2  1  0  0  0
  1 23  1  0  0  0
  1 24  1  0  0  0
  1 25  1  0  0  0
  2  3  1  0  0  0
  2  4  1  0  0  0
  2  5  1  0  0  0
  3 26  1  0  0  0
  3 27  1  0  0  0
  3 28  1  0  0  0
  4 16  1  0  0  0
  5  6  1  0  0  0
  6  7  1  0  0  0
  6 16  1  0  0  0
  6 29  1  0  0  0
  7  8  1  0  0  0
  7 13  1  0  0  0
  7 30  1  0  0  0
  8  9  1  0  0  0
  9 10  1  0  0  0
  9 11  1  0  0  0
  9 12  1  0  0  0
 10 31  1  0  0  0
 10 32  1  0  0  0
 10 33  1  0  0  0
 11 34  1  0  0  0
 11 35  1  0  0  0
 11 36  1  0  0  0
 12 13  1  0  0  0
 13 14  1  0  0  0
 13 37  1  0  0  0
 14 15  1  0  0  0
 14 38  1  0  0  0
 14 39  1  0  0  0
 15 16  1  0  0  0
 16 17  1  0  0  0
 17 18  1  0  0  0
 17 40  1  0  0  0
 17 41  1  0  0  0
 18 19  1  0  0  0
 19 20  2  0  0  0
 19 21  2  0  0  0
 19 22  1  0  0  0
 22 42  1  0  0  0
 22 43  1  0  0  0
M  END
> <s_m_source_file>
../3hku_ligand.sdf

> <i_m_source_file_index>
1

> <s_epik_input>
Tz1TKD1PKShbTkgyXSlPW0NIMl1bQ0BAXTEyW0NAQEhdKE9DKE8xKShbQ0gzXSlbQ0gzXSlbQ0BIXTNbQ0BASF0oW0NIMl1PMilPQyhPMykoW0NIM10pW0NIM10=

> <s_epik_cmdline>
J2VwaWtfYXBwJywgJy1pbWFlJywgJ2xpZ2FuZF9wcm8ubWFlJywgJy1vbWFlJywgJ2xpZ2FuZF9wcmVwLm1hZScsICctbXMnLCAnMScsICctcGgnLCAnNycsICctcGh0JywgJzAuNScsICctbnQn

> <r_epik_Ionization_Penalty>
  0.0143

> <r_epik_Ionization_Penalty_Charging>
  0.0000

> <r_epik_Ionization_Penalty_Neutral>
  0.0143

> <r_epik_State_Penalty>
  0.0112

> <r_epik_Charging_Adjusted_Penalty>
0.0111872457789687

> <i_epik_Tot_Q>
0

> <i_epik_Tot_abs_Q>
0

$$$$
