3hkw_ligand
                    3D
 Schrodinger Suite 2020-3.
 73 77  0  0  1  0            999 V2000
   39.3060    3.7770  -19.0200 C   0  0  0  0  0  0
   38.9410    3.7620  -17.6850 C   0  0  0  0  0  0
   37.9060    2.9560  -17.2530 C   0  0  0  0  0  0
   37.2210    2.1300  -18.1640 C   0  0  0  0  0  0
   37.5700    2.2010  -19.5170 C   0  0  0  0  0  0
   38.6280    2.9950  -19.9380 C   0  0  0  0  0  0
   34.8280    1.5540  -18.4160 C   0  0  2  0  0  0
   35.6700   -0.0290  -21.9410 C   0  0  0  0  0  0
   34.4350    3.6330  -19.9240 C   0  0  0  0  0  0
   34.5810    3.0560  -18.6660 C   0  0  0  0  0  0
   34.2130    4.9910  -20.0530 C   0  0  0  0  0  0
   34.1600    5.8140  -18.9290 C   0  0  0  0  0  0
   34.5210    3.8840  -17.5450 C   0  0  0  0  0  0
   33.5260    0.8560  -22.8690 C   0  0  0  0  0  0
   31.3510    7.3290  -20.0280 C   0  0  0  0  0  0
   38.9600    3.0020  -21.2640 O   0  0  0  0  0  0
   36.3170    0.5210  -16.6490 C   0  0  0  0  0  0
   37.6000   -0.0210  -16.1800 C   0  0  0  0  0  0
   38.5520   -0.6740  -16.9170 C   0  0  0  0  0  0
   39.2130   -0.5960  -15.0300 C   0  0  0  0  0  0
   40.1120   -0.7990  -13.8460 C   0  0  0  0  0  0
   38.4980   -0.9830  -18.3950 C   0  0  0  0  0  0
   34.6780    3.3490  -16.3470 F   0  0  0  0  0  0
   34.3150    5.2420  -17.6690 C   0  0  0  0  0  0
   33.9500    7.1650  -19.0120 O   0  0  0  0  0  0
   33.7550    7.8600  -20.2400 C   0  0  0  0  0  0
   32.3960    7.5590  -20.8410 C   0  0  0  0  0  0
   32.2010    7.5490  -22.3440 C   0  0  0  0  0  0
   36.1060    1.3470  -17.7280 N   0  0  0  0  0  0
   38.0360    0.0360  -14.9290 N   0  0  0  0  0  0
   39.4670   -0.9950  -16.1710 O   0  0  0  0  0  0
   35.3030    0.1960  -16.0500 O   0  0  0  0  0  0
   34.8080    0.7460  -19.6880 C   0  0  0  0  0  0
   33.4080   -0.2290  -19.8180 S   0  0  0  0  0  0
   32.2750    0.6440  -19.7740 O   0  0  0  0  0  0
   33.3780   -1.1930  -18.7420 O   0  0  0  0  0  0
   33.5100   -1.1430  -21.3650 C   0  0  0  0  0  0
   34.2840   -0.4060  -22.4590 C   0  0  0  0  0  0
   34.4020   -1.3620  -23.6510 C   0  0  0  0  0  0
   35.7790    0.7400  -20.6270 C   0  0  0  0  0  0
   36.9760    1.4230  -20.5280 N   0  0  0  0  0  0
   40.1315    4.4079  -19.3496 H   0  0  0  0  0  0
   39.4734    4.3899  -16.9705 H   0  0  0  0  0  0
   37.6182    2.9595  -16.2017 H   0  0  0  0  0  0
   34.0326    1.1709  -17.7599 H   0  0  0  0  0  0
   36.2616   -0.9420  -21.7788 H   0  0  0  0  0  0
   36.1764    0.6096  -22.6798 H   0  0  0  0  0  0
   34.4963    3.0085  -20.8153 H   0  0  0  0  0  0
   34.0779    5.4233  -21.0444 H   0  0  0  0  0  0
   33.4479    1.5335  -22.0059 H   0  0  0  0  0  0
   32.5176    0.5825  -23.2129 H   0  0  0  0  0  0
   34.0669    1.3603  -23.6833 H   0  0  0  0  0  0
   31.4910    7.3359  -18.9370 H   0  0  0  0  0  0
   30.3556    7.1338  -20.4535 H   0  0  0  0  0  0
   39.7950    3.6241  -21.6186 H   0  0  0  0  0  0
   39.6516   -0.3482  -12.9545 H   0  0  0  0  0  0
   41.0843   -0.3216  -14.0377 H   0  0  0  0  0  0
   40.2592   -1.8761  -13.6778 H   0  0  0  0  0  0
   37.5669   -0.5800  -18.8201 H   0  0  0  0  0  0
   38.5272   -2.0726  -18.5431 H   0  0  0  0  0  0
   39.3606   -0.5214  -18.8978 H   0  0  0  0  0  0
   34.2734    5.8691  -16.7784 H   0  0  0  0  0  0
   33.8245    8.9435  -20.0631 H   0  0  0  0  0  0
   34.5286    7.5558  -20.9604 H   0  0  0  0  0  0
   31.1524    7.3113  -22.5761 H   0  0  0  0  0  0
   32.8574    6.7895  -22.7938 H   0  0  0  0  0  0
   32.4518    8.5389  -22.7528 H   0  0  0  0  0  0
   34.0189   -2.1026  -21.1911 H   0  0  0  0  0  0
   32.4959   -1.3299  -21.7480 H   0  0  0  0  0  0
   34.9549   -0.8682  -24.4637 H   0  0  0  0  0  0
   33.3962   -1.6338  -24.0040 H   0  0  0  0  0  0
   34.9396   -2.2702  -23.3408 H   0  0  0  0  0  0
   37.5009    1.2672  -21.4820 H   0  0  0  0  0  0
  1  2  2  0  0  0
  1  6  1  0  0  0
  1 42  1  0  0  0
  2  3  1  0  0  0
  2 43  1  0  0  0
  3  4  2  0  0  0
  3 44  1  0  0  0
  4  5  1  0  0  0
  4 29  1  0  0  0
  5  6  2  0  0  0
  5 41  1  0  0  0
  6 16  1  0  0  0
  7 10  1  0  0  0
  7 29  1  0  0  0
  7 33  1  0  0  0
  7 45  1  0  0  0
  8 38  1  0  0  0
  8 40  1  0  0  0
  8 46  1  0  0  0
  8 47  1  0  0  0
  9 10  2  0  0  0
  9 11  1  0  0  0
  9 48  1  0  0  0
 10 13  1  0  0  0
 11 12  2  0  0  0
 11 49  1  0  0  0
 12 24  1  0  0  0
 12 25  1  0  0  0
 13 23  1  0  0  0
 13 24  2  0  0  0
 14 38  1  0  0  0
 14 50  1  0  0  0
 14 51  1  0  0  0
 14 52  1  0  0  0
 15 27  2  0  0  0
 15 53  1  0  0  0
 15 54  1  0  0  0
 16 55  1  0  0  0
 17 18  1  0  0  0
 17 29  1  0  0  0
 17 32  2  0  0  0
 18 19  2  0  0  0
 18 30  1  0  0  0
 19 22  1  0  0  0
 19 31  1  0  0  0
 20 21  1  0  0  0
 20 30  2  0  0  0
 20 31  1  0  0  0
 21 56  1  0  0  0
 21 57  1  0  0  0
 21 58  1  0  0  0
 22 59  1  0  0  0
 22 60  1  0  0  0
 22 61  1  0  0  0
 24 62  1  0  0  0
 25 26  1  0  0  0
 26 27  1  0  0  0
 26 63  1  0  0  0
 26 64  1  0  0  0
 27 28  1  0  0  0
 28 65  1  0  0  0
 28 66  1  0  0  0
 28 67  1  0  0  0
 33 34  1  0  0  0
 33 40  2  0  0  0
 34 35  2  0  0  0
 34 36  2  0  0  0
 34 37  1  0  0  0
 37 38  1  0  0  0
 37 68  1  0  0  0
 37 69  1  0  0  0
 38 39  1  0  0  0
 39 70  1  0  0  0
 39 71  1  0  0  0
 39 72  1  0  0  0
 40 41  1  0  0  0
 41 73  1  0  0  0
M  END
> <s_m_source_file>
../3hkw_ligand.sdf

> <i_m_source_file_index>
1

> <s_epik_input>
W2NIXTFbY0hdW2NIXWMoW09IXSljKGMxMilbTkhdQzM9QyhTKD1PKSg9TylbQ0gyXUMoW0NIMl0zKShbQ0gzXSlbQ0gzXSlbQ0BASF0oTjJDKD1PKWM0YyhbQ0gzXSlvYyhuNClbQ0gzXSljNVtjSF1bY0hdYyhbY0hdYzVGKU9bQ0gyXUMoPVtDSDJdKVtDSDNd

> <s_epik_cmdline>
J2VwaWtfYXBwJywgJy1pbWFlJywgJ2xpZ2FuZF9wcm8ubWFlJywgJy1vbWFlJywgJ2xpZ2FuZF9wcmVwLm1hZScsICctbXMnLCAnMScsICctcGgnLCAnNycsICctcGh0JywgJzAuNScsICctbnQn

> <r_lp_tautomer_probability>
0.000398840862495864

> <r_epik_Ionization_Penalty>
  0.0239

> <r_epik_Ionization_Penalty_Charging>
  0.0000

> <r_epik_Ionization_Penalty_Neutral>
  0.0239

> <r_epik_State_Penalty>
  0.0193

> <r_epik_Charging_Adjusted_Penalty>
0.0193248623105854

> <i_epik_Tot_Q>
0

> <i_epik_Tot_abs_Q>
0

$$$$
