3hl5_ligand
                    3D
 Schrodinger Suite 2020-3.
 76 79  0  0  1  0            999 V2000
    9.7840   12.4600  -19.7000 O   0  0  0  0  0  0
    8.7630   12.3680  -20.3720 C   0  0  0  0  0  0
    8.2410   13.5790  -21.1010 C   0  0  2  0  0  0
    8.7570   13.5560  -22.5550 C   0  0  0  0  0  0
   10.2850   13.6620  -22.6990 C   0  0  0  0  0  0
   10.7280   13.5190  -24.1600 C   0  0  0  0  0  0
    9.9800   14.4840  -25.0840 C   0  0  0  0  0  0
    8.4630   14.3590  -24.9150 C   0  0  0  0  0  0
    8.0540   14.5740  -23.4590 C   0  0  0  0  0  0
    8.6620   14.8220  -20.4610 N   0  0  0  0  0  0
    7.8500   15.8680  -20.3170 C   0  0  0  0  0  0
    6.6960   15.9000  -20.7290 O   0  0  0  0  0  0
    8.4430   17.0640  -19.6330 C   0  0  2  0  0  0
    8.4050   16.8550  -18.1220 C   0  0  0  0  0  0
    7.7540   18.2890  -20.0140 N   0  3  0  0  0  0
    7.9220   18.8070  -21.3610 C   0  0  0  0  0  0
    8.0770   11.2240  -20.5180 N   0  0  0  0  0  0
    6.8450   11.0300  -21.2960 C   0  0  0  0  0  0
    6.2930    9.7010  -20.8050 C   0  0  0  0  0  0
    7.5310    8.9340  -20.4120 C   0  0  2  0  0  0
    7.2650    7.7770  -19.4560 C   0  0  0  0  0  0
    8.4990    9.9800  -19.8640 C   0  0  1  0  0  0
    9.8670    9.4940  -20.2350 C   0  0  0  0  0  0
   10.5250    8.9130  -19.3870 O   0  0  0  0  0  0
   10.2880    9.7190  -21.4890 N   0  0  0  0  0  0
   11.5270    9.2650  -21.9680 C   0  0  0  0  0  0
   12.6520    9.2010  -21.1370 C   0  0  0  0  0  0
   13.8620    8.7140  -21.6220 C   0  0  0  0  0  0
   13.9600    8.2810  -22.9420 C   0  0  0  0  0  0
   12.8420    8.3280  -23.7700 C   0  0  0  0  0  0
   11.6220    8.8150  -23.2890 C   0  0  0  0  0  0
   10.4640    8.8560  -24.2310 C   0  0  0  0  0  0
   10.3960    7.9550  -25.2470 N   0  0  0  0  0  0
    9.3760    7.9750  -26.1190 C   0  0  0  0  0  0
    8.3790    8.9380  -25.9920 C   0  0  0  0  0  0
    8.4630    9.8620  -24.9520 C   0  0  0  0  0  0
    9.5010    9.8070  -24.1000 N   0  0  0  0  0  0
    7.1429   13.5722  -21.0370 H   0  0  0  0  0  0
    8.4862   12.5509  -22.9108 H   0  0  0  0  0  0
   10.6210   14.6422  -22.3297 H   0  0  0  0  0  0
   10.7648   12.8649  -22.1121 H   0  0  0  0  0  0
   11.8041   13.7326  -24.2394 H   0  0  0  0  0  0
   10.5315   12.4928  -24.5040 H   0  0  0  0  0  0
   10.2728   15.5179  -24.8488 H   0  0  0  0  0  0
   10.2336   14.2602  -26.1307 H   0  0  0  0  0  0
    7.9613   15.1147  -25.5373 H   0  0  0  0  0  0
    8.1408   13.3546  -25.2269 H   0  0  0  0  0  0
    6.9644   14.4526  -23.3698 H   0  0  0  0  0  0
    8.3357   15.5923  -23.1529 H   0  0  0  0  0  0
    9.6869   14.9218  -20.0743 H   0  0  0  0  0  0
    9.4765   17.2049  -19.9822 H   0  0  0  0  0  0
    8.9324   15.9239  -17.8673 H   0  0  0  0  0  0
    7.3593   16.7874  -17.7874 H   0  0  0  0  0  0
    8.8959   17.7030  -17.6221 H   0  0  0  0  0  0
    6.6683   18.1470  -19.9087 H   0  0  0  0  0  0
    8.0811   19.1119  -19.3614 H   0  0  0  0  0  0
    7.3353   19.7305  -21.4745 H   0  0  0  0  0  0
    7.5725   18.0589  -22.0878 H   0  0  0  0  0  0
    8.9854   19.0238  -21.5405 H   0  0  0  0  0  0
    6.1520   11.8611  -21.0985 H   0  0  0  0  0  0
    7.0889   11.0029  -22.3683 H   0  0  0  0  0  0
    5.6193    9.8760  -19.9533 H   0  0  0  0  0  0
    5.7365    9.2122  -21.6182 H   0  0  0  0  0  0
    7.9530    8.4175  -21.2867 H   0  0  0  0  0  0
    6.5620    7.0707  -19.9218 H   0  0  0  0  0  0
    6.8307    8.1649  -18.5228 H   0  0  0  0  0  0
    8.2104    7.2605  -19.2335 H   0  0  0  0  0  0
    8.5141   10.1781  -18.7821 H   0  0  0  0  0  0
    9.6530   10.2806  -22.1899 H   0  0  0  0  0  0
   12.5795    9.5353  -20.1021 H   0  0  0  0  0  0
   14.7334    8.6714  -20.9685 H   0  0  0  0  0  0
   14.9091    7.9065  -23.3255 H   0  0  0  0  0  0
   12.9178    7.9827  -24.8011 H   0  0  0  0  0  0
    9.3285    7.2405  -26.9230 H   0  0  0  0  0  0
    7.5461    8.9690  -26.6945 H   0  0  0  0  0  0
    7.6927   10.6235  -24.8305 H   0  0  0  0  0  0
  1  2  2  0  0  0
  2  3  1  0  0  0
  2 17  1  0  0  0
  3  4  1  0  0  0
  3 10  1  0  0  0
  3 38  1  0  0  0
  4  5  1  0  0  0
  4  9  1  0  0  0
  4 39  1  0  0  0
  5  6  1  0  0  0
  5 40  1  0  0  0
  5 41  1  0  0  0
  6  7  1  0  0  0
  6 42  1  0  0  0
  6 43  1  0  0  0
  7  8  1  0  0  0
  7 44  1  0  0  0
  7 45  1  0  0  0
  8  9  1  0  0  0
  8 46  1  0  0  0
  8 47  1  0  0  0
  9 48  1  0  0  0
  9 49  1  0  0  0
 10 11  1  0  0  0
 10 50  1  0  0  0
 11 12  2  0  0  0
 11 13  1  0  0  0
 13 14  1  0  0  0
 13 15  1  0  0  0
 13 51  1  0  0  0
 14 52  1  0  0  0
 14 53  1  0  0  0
 14 54  1  0  0  0
 15 16  1  0  0  0
 15 55  1  0  0  0
 15 56  1  0  0  0
 16 57  1  0  0  0
 16 58  1  0  0  0
 16 59  1  0  0  0
 17 18  1  0  0  0
 17 22  1  0  0  0
 18 19  1  0  0  0
 18 60  1  0  0  0
 18 61  1  0  0  0
 19 20  1  0  0  0
 19 62  1  0  0  0
 19 63  1  0  0  0
 20 21  1  0  0  0
 20 22  1  0  0  0
 20 64  1  0  0  0
 21 65  1  0  0  0
 21 66  1  0  0  0
 21 67  1  0  0  0
 22 23  1  0  0  0
 22 68  1  0  0  0
 23 24  2  0  0  0
 23 25  1  0  0  0
 25 26  1  0  0  0
 25 69  1  0  0  0
 26 27  2  0  0  0
 26 31  1  0  0  0
 27 28  1  0  0  0
 27 70  1  0  0  0
 28 29  2  0  0  0
 28 71  1  0  0  0
 29 30  1  0  0  0
 29 72  1  0  0  0
 30 31  2  0  0  0
 30 73  1  0  0  0
 31 32  1  0  0  0
 32 33  2  0  0  0
 32 37  1  0  0  0
 33 34  1  0  0  0
 34 35  2  0  0  0
 34 74  1  0  0  0
 35 36  1  0  0  0
 35 75  1  0  0  0
 36 37  2  0  0  0
 36 76  1  0  0  0
M  CHG  1  15   1
M  END
> <s_m_source_file>
../3hl5_ligand.sdf

> <i_m_source_file_index>
1

> <s_epik_input>
W0NIMl0xW0NIMl1bQ0gyXVtDSDJdW0NIMl1bQ0hdMVtDQEhdKFtOSF1DKD1PKVtDQEhdKFtDSDNdKVtOSDIrXVtDSDNdKUMoPU8pTjJbQ0gyXVtDSDJdW0NASF0oW0NIM10pW0NASF0yQyg9TylbTkhdYzNbY0hdW2NIXVtjSF1bY0hdYzMtYzRuW2NIXVtjSF1bY0hdbjQ=

> <s_epik_cmdline>
J2VwaWtfYXBwJywgJy1pbWFlJywgJ2xpZ2FuZF9wcm8ubWFlJywgJy1vbWFlJywgJ2xpZ2FuZF9wcmVwLm1hZScsICctbXMnLCAnMScsICctcGgnLCAnNycsICctcGh0JywgJzAuNScsICctbnQn

> <r_lp_tautomer_probability>
1

> <r_epik_Ionization_Penalty>
  0.0823

> <r_epik_Ionization_Penalty_Charging>
  0.0823

> <r_epik_Ionization_Penalty_Neutral>
  0.0000

> <r_epik_State_Penalty>
  0.0730

> <r_epik_Charging_Adjusted_Penalty>
0.155271230921313

> <i_epik_Tot_Q>
1

> <i_epik_Tot_abs_Q>
1

$$$$
