3hl7_ligand
                    3D
 Schrodinger Suite 2020-3.
 48 51  0  0  1  0            999 V2000
   35.5390   35.8440   20.0350 C   0  0  0  0  0  0
   35.0130   34.5920   20.1860 N   0  0  0  0  0  0
   34.3580   34.4200   21.3480 N   0  3  0  0  0  0
   34.4730   35.5890   21.9900 C   0  0  0  0  0  0
   35.2010   36.5220   21.2070 C   0  0  0  0  0  0
   36.2560   36.2100   18.8410 C   0  0  0  0  0  0
   35.4600   37.9150   21.5200 C   0  0  0  0  0  0
   33.8990   35.7960   23.3550 C   0  0  0  0  0  0
   35.7380   35.9390   17.5930 C   0  0  0  0  0  0
   36.4100   36.3400   16.4530 C   0  0  0  0  0  0
   37.6080   37.0090   16.5410 C   0  0  0  0  0  0
   38.1380   37.2580   17.7900 C   0  0  0  0  0  0
   37.4680   36.8610   18.9240 C   0  0  0  0  0  0
   35.7230   38.3440   22.8100 C   0  0  0  0  0  0
   35.8820   39.7000   22.9660 C   0  0  0  0  0  0
   35.7820   40.5970   21.9740 N   0  0  0  0  0  0
   35.5120   40.0750   20.7720 C   0  0  0  0  0  0
   35.3400   38.7720   20.4930 N   0  0  0  0  0  0
   32.5520   35.1500   23.6150 C   0  0  0  0  0  0
   32.0630   35.4080   25.0390 C   0  0  0  0  0  0
   33.0770   35.0640   26.0130 N   0  0  0  0  0  0
   34.4180   35.5740   25.8200 C   0  0  0  0  0  0
   34.9160   35.3600   24.3950 C   0  0  0  0  0  0
   38.4230   37.5510   15.1160 Cl  0  0  0  0  0  0
   32.7620   34.2800   27.1120 C   0  0  0  0  0  0
   32.0050   33.3140   27.0890 O   0  0  0  0  0  0
   33.4530   34.7420   28.3700 C   0  0  0  0  0  0
   32.9420   33.9600   29.4480 O   0  0  0  0  0  0
   33.6947   36.8755   23.4094 H   0  0  0  0  0  0
   34.7920   35.4049   17.5040 H   0  0  0  0  0  0
   35.9850   36.1232   15.4730 H   0  0  0  0  0  0
   39.0945   37.7730   17.8790 H   0  0  0  0  0  0
   37.9022   37.0643   19.9029 H   0  0  0  0  0  0
   35.7990   37.6508   23.6477 H   0  0  0  0  0  0
   36.1050   40.0726   23.9658 H   0  0  0  0  0  0
   35.4231   40.7734   19.9398 H   0  0  0  0  0  0
   31.8081   35.5591   22.9155 H   0  0  0  0  0  0
   32.6327   34.0626   23.4698 H   0  0  0  0  0  0
   31.8142   36.4733   25.1539 H   0  0  0  0  0  0
   31.1681   34.7993   25.2353 H   0  0  0  0  0  0
   34.4331   36.6539   26.0286 H   0  0  0  0  0  0
   35.1083   35.0587   26.5041 H   0  0  0  0  0  0
   35.1338   34.2892   24.2685 H   0  0  0  0  0  0
   35.8420   35.9400   24.2681 H   0  0  0  0  0  0
   34.5383   34.5947   28.2674 H   0  0  0  0  0  0
   33.2417   35.8090   28.5337 H   0  0  0  0  0  0
   33.3091   34.1276   30.4713 H   0  0  0  0  0  0
   33.8800   33.4550   21.5723 H   0  0  0  0  0  0
  1  2  2  0  0  0
  1  5  1  0  0  0
  1  6  1  0  0  0
  2  3  1  0  0  0
  3  4  1  0  0  0
  3 48  1  0  0  0
  4  5  2  0  0  0
  4  8  1  0  0  0
  5  7  1  0  0  0
  6  9  2  0  0  0
  6 13  1  0  0  0
  7 14  2  0  0  0
  7 18  1  0  0  0
  8 19  1  0  0  0
  8 23  1  0  0  0
  8 29  1  0  0  0
  9 10  1  0  0  0
  9 30  1  0  0  0
 10 11  2  0  0  0
 10 31  1  0  0  0
 11 12  1  0  0  0
 11 24  1  0  0  0
 12 13  2  0  0  0
 12 32  1  0  0  0
 13 33  1  0  0  0
 14 15  1  0  0  0
 14 34  1  0  0  0
 15 16  2  0  0  0
 15 35  1  0  0  0
 16 17  1  0  0  0
 17 18  2  0  0  0
 17 36  1  0  0  0
 19 20  1  0  0  0
 19 37  1  0  0  0
 19 38  1  0  0  0
 20 21  1  0  0  0
 20 39  1  0  0  0
 20 40  1  0  0  0
 21 22  1  0  0  0
 21 25  1  0  0  0
 22 23  1  0  0  0
 22 41  1  0  0  0
 22 42  1  0  0  0
 23 43  1  0  0  0
 23 44  1  0  0  0
 25 26  2  0  0  0
 25 27  1  0  0  0
 27 28  1  0  0  0
 27 45  1  0  0  0
 27 46  1  0  0  0
 28 47  1  0  0  0
M  CHG  1   3   1
M  END
> <s_m_source_file>
../3hl7_ligand.sdf

> <i_m_source_file_index>
1

> <s_epik_input>
W2NIXTFbY0hdYyhDbClbY0hdW2NIXWMxLWMybltuSF1jKGMyLWMzW2NIXVtjSF1uW2NIXW4zKVtDSF00W0NIMl1bQ0gyXU4oW0NIMl1bQ0gyXTQpQyg9TylbQ0gyXVtPSF0=

> <s_epik_cmdline>
J2VwaWtfYXBwJywgJy1pbWFlJywgJ2xpZ2FuZF9wcm8ubWFlJywgJy1vbWFlJywgJ2xpZ2FuZF9wcmVwLm1hZScsICctbXMnLCAnMScsICctcGgnLCAnNycsICctcGh0JywgJzAuNScsICctbnQn

> <r_epik_Ionization_Penalty>
  0.0011

> <r_epik_Ionization_Penalty_Charging>
  0.0000

> <r_epik_Ionization_Penalty_Neutral>
  0.0011

> <r_epik_State_Penalty>
  0.4083

> <r_epik_Charging_Adjusted_Penalty>
0.408319964989855

> <i_epik_Tot_Q>
1

> <i_epik_Tot_abs_Q>
1

> <s_epik_Chemistry_Notes>
This compound contains an electron-poor aromatic ring that is susceptible to covalent hydrolysis at low pH, typically resulting in measured values for nitrogen ring protonation that are around two units higher than predicted values. This compound has an imine and may undergo hydrolysis.

$$$$
