3hl8_ligand
                    3D
 Schrodinger Suite 2020-3.
 34 36  0  0  1  0            999 V2000
   28.0820    2.1720   55.2170 Cl  0  0  0  0  0  0
   29.6910    2.5310   55.8600 C   0  0  0  0  0  0
   29.7990    3.7190   56.5620 C   0  0  0  0  0  0
   31.0010    4.0730   57.1410 C   0  0  0  0  0  0
   30.7790    1.6640   55.7570 C   0  0  0  0  0  0
   31.9970    2.0270   56.3490 C   0  0  0  0  0  0
   33.4180    1.0810   56.2740 S   0  0  0  0  0  0
   32.0970    3.2330   57.0410 C   0  0  0  0  0  0
   33.3540    3.3880   57.5390 N   0  0  0  0  0  0
   34.1330    2.3430   57.2330 C   0  0  0  0  0  0
   35.4210    2.3290   57.6600 N   0  0  0  0  0  0
   36.3330    1.3730   57.4340 C   0  0  0  0  0  0
   36.0160    0.1530   56.6810 O   0  0  0  0  0  0
   36.0100    3.3650   58.4330 N   0  0  0  0  0  0
   37.2820    2.8890   58.5740 C   0  0  0  0  0  0
   37.6930    1.5600   58.0040 C   0  0  0  0  0  0
   38.2980    3.6600   59.3770 C   0  0  0  0  0  0
   37.8570    5.1000   59.5810 C   0  0  0  0  0  0
   38.3550    2.9790   60.7400 C   0  0  0  0  0  0
   39.6860    3.5980   58.7580 C   0  0  0  0  0  0
   28.9342    4.3755   56.6577 H   0  0  0  0  0  0
   31.0876    5.0171   57.6788 H   0  0  0  0  0  0
   30.6836    0.7180   55.2240 H   0  0  0  0  0  0
   37.9117    0.7424   58.7066 H   0  0  0  0  0  0
   38.4350    1.5538   57.1919 H   0  0  0  0  0  0
   36.8524    5.1159   60.0289 H   0  0  0  0  0  0
   37.8340    5.6174   58.6106 H   0  0  0  0  0  0
   38.5654    5.6089   60.2512 H   0  0  0  0  0  0
   37.3601    3.0116   61.2080 H   0  0  0  0  0  0
   39.0793    3.5025   61.3814 H   0  0  0  0  0  0
   38.6668    1.9317   60.6138 H   0  0  0  0  0  0
   39.6696    4.0844   57.7715 H   0  0  0  0  0  0
   39.9898    2.5470   58.6436 H   0  0  0  0  0  0
   40.4023    4.1178   59.4112 H   0  0  0  0  0  0
  1  2  1  0  0  0
  2  3  2  0  0  0
  2  5  1  0  0  0
  3  4  1  0  0  0
  3 21  1  0  0  0
  4  8  2  0  0  0
  4 22  1  0  0  0
  5  6  2  0  0  0
  5 23  1  0  0  0
  6  7  1  0  0  0
  6  8  1  0  0  0
  7 10  1  0  0  0
  8  9  1  0  0  0
  9 10  2  0  0  0
 10 11  1  0  0  0
 11 12  1  0  0  0
 11 14  1  0  0  0
 12 13  2  0  0  0
 12 16  1  0  0  0
 14 15  2  0  0  0
 15 16  1  0  0  0
 15 17  1  0  0  0
 16 24  1  0  0  0
 16 25  1  0  0  0
 17 18  1  0  0  0
 17 19  1  0  0  0
 17 20  1  0  0  0
 18 26  1  0  0  0
 18 27  1  0  0  0
 18 28  1  0  0  0
 19 29  1  0  0  0
 19 30  1  0  0  0
 19 31  1  0  0  0
 20 32  1  0  0  0
 20 33  1  0  0  0
 20 34  1  0  0  0
M  END
> <s_m_source_file>
../3hl8_ligand.sdf

> <i_m_source_file_index>
1

> <s_epik_input>
Q2xjKFtjSF0xKVtjSF1bY0hdYyhjMTIpbmMoczIpTjNDKD1PKVtDSDJdQyg9TjMpQyhbQ0gzXSkoW0NIM10pW0NIM10=

> <s_epik_cmdline>
J2VwaWtfYXBwJywgJy1pbWFlJywgJ2xpZ2FuZF9wcm8ubWFlJywgJy1vbWFlJywgJ2xpZ2FuZF9wcmVwLm1hZScsICctbXMnLCAnMScsICctcGgnLCAnNycsICctcGh0JywgJzAuNScsICctbnQn

> <r_lp_tautomer_probability>
1

> <r_epik_Ionization_Penalty>
  0.0000

> <r_epik_Ionization_Penalty_Charging>
  0.0000

> <r_epik_Ionization_Penalty_Neutral>
  0.0000

> <r_epik_State_Penalty>
 -0.0000

> <r_epik_Charging_Adjusted_Penalty>
0

> <i_epik_Tot_Q>
0

> <i_epik_Tot_abs_Q>
0

> <s_epik_Chemistry_Notes>
This compound has an imine and may undergo hydrolysis.

$$$$
