3hlo_ligand
                    3D
 Schrodinger Suite 2020-3.
123122  0  0  1  0            999 V2000
    4.3510   -8.7890   16.4110 C   0  0  0  0  0  0
    3.4550   -8.6740   17.2660 O   0  0  0  0  0  0
    4.1090   -9.5280   15.1240 C   0  0  0  0  0  0
    5.6530   -8.6540   16.7100 N   0  0  0  0  0  0
    6.1430   -7.9820   17.9460 C   0  0  2  0  0  0
    6.7650   -6.5710   17.7690 C   0  0  0  0  0  0
    7.0660   -5.8990   18.7720 O   0  0  0  0  0  0
    7.1780   -8.8290   18.6430 C   0  0  2  0  0  0
    8.3130   -9.0080   17.7910 O   0  0  0  0  0  0
    6.5710  -10.2300   19.0500 C   0  0  0  0  0  0
    6.9430   -6.1320   16.5400 N   0  0  0  0  0  0
    7.4660   -4.7980   16.2490 C   0  0  2  0  0  0
    6.4250   -3.9090   15.5790 C   0  0  0  0  0  0
    6.3450   -3.8160   14.3590 O   0  0  0  0  0  0
    8.7890   -4.8510   15.4280 C   0  0  2  0  0  0
    9.7940   -5.8690   15.9880 C   0  0  0  0  0  0
    9.4750   -3.4830   15.3370 C   0  0  0  0  0  0
   10.3210   -5.5790   17.4260 C   0  0  0  0  0  0
    5.5880   -3.2520   16.3500 N   0  0  0  0  0  0
    4.4610   -2.5470   15.6860 C   0  0  2  0  0  0
    4.6300   -1.0510   15.5490 C   0  0  0  0  0  0
    3.1410   -2.9240   16.3710 C   0  0  0  0  0  0
    2.9190   -4.3970   16.6810 C   0  0  0  0  0  0
    2.9010   -5.3280   15.4520 C   0  0  0  0  0  0
    1.8360   -4.7790   14.5410 C   0  0  0  0  0  0
    5.9060   -0.6480   14.9600 N   0  3  0  0  0  0
    5.9080    0.5220   14.0690 C   0  0  2  0  0  0
    4.8240    0.4230   12.9850 C   0  0  0  0  0  0
    4.5370   -0.6040   12.3480 O   0  0  0  0  0  0
    7.2950    0.7060   13.4600 C   0  0  0  0  0  0
    7.4690    1.8810   12.5170 C   0  0  0  0  0  0
    7.5800    1.3740   11.0870 C   0  0  0  0  0  0
    8.7810    0.4410   10.9390 C   0  0  0  0  0  0
    4.2260    1.5620   12.7160 N   0  0  0  0  0  0
    3.2400    1.6570   11.6160 C   0  0  2  0  0  0
    3.2680    3.0540   11.0210 C   0  0  0  0  0  0
    3.3600    4.0720   11.7100 O   0  0  0  0  0  0
    1.8360    1.2260   12.0720 C   0  0  0  0  0  0
    0.7550    1.4070   10.9890 C   0  0  0  0  0  0
    0.1670    2.7920   10.9440 C   0  0  0  0  0  0
    0.2230    3.5170   11.9240 O   0  0  0  0  0  0
   -0.4140    3.1650    9.8080 N   0  0  0  0  0  0
    3.2440    3.0870    9.7100 N   0  0  0  0  0  0
    2.1830    4.4120    8.0840 C   0  0  0  0  0  0
    1.9130    3.4600    7.3130 O   0  0  0  0  0  0
    4.6960    4.2260    8.2190 C   0  0  0  0  0  0
    5.8630    4.9650    8.9010 C   0  0  0  0  0  0
    6.1830    6.2930    8.1400 C   0  0  0  0  0  0
    5.3600    7.4190    8.6010 N   0  0  0  0  0  0
    5.8130    8.6220    8.9350 C   0  0  0  0  0  0
    7.1040    8.9390    8.8430 N   0  0  0  0  0  0
    4.9570    9.5320    9.3500 N   0  3  0  0  0  0
    1.4690    5.5560    8.0330 N   0  0  0  0  0  0
    3.3073    4.2778    9.0694 C   0  0  2  0  0  0
    3.0268   -9.6019   14.9416 H   0  0  0  0  0  0
    4.5387  -10.5381   15.1948 H   0  0  0  0  0  0
    4.5845   -8.9846   14.2942 H   0  0  0  0  0  0
    6.3715   -9.0698   15.9883 H   0  0  0  0  0  0
    5.2083   -7.8955   18.5195 H   0  0  0  0  0  0
    7.5630   -8.2724   19.5102 H   0  0  0  0  0  0
    8.8597   -8.1320   17.4119 H   0  0  0  0  0  0
    5.7002  -10.0762   19.7042 H   0  0  0  0  0  0
    7.3318  -10.8179   19.5844 H   0  0  0  0  0  0
    6.2585  -10.7711   18.1447 H   0  0  0  0  0  0
    6.6814   -6.8120   15.7159 H   0  0  0  0  0  0
    7.6666   -4.3834   17.2479 H   0  0  0  0  0  0
    8.5000   -5.1675   14.4149 H   0  0  0  0  0  0
    9.3256   -6.8635   16.0264 H   0  0  0  0  0  0
   10.6799   -5.9059   15.3370 H   0  0  0  0  0  0
    8.7660   -2.7432   14.9370 H   0  0  0  0  0  0
   10.3467   -3.5536   14.6698 H   0  0  0  0  0  0
    9.8045   -3.1707   16.3389 H   0  0  0  0  0  0
   11.0291   -6.3667   17.7228 H   0  0  0  0  0  0
    9.4757   -5.5617   18.1297 H   0  0  0  0  0  0
   10.8300   -4.6040   17.4402 H   0  0  0  0  0  0
    5.6949   -3.2100   17.4440 H   0  0  0  0  0  0
    4.4816   -2.9025   14.6452 H   0  0  0  0  0  0
    3.8340   -0.6496   14.9047 H   0  0  0  0  0  0
    4.5688   -0.5826   16.5424 H   0  0  0  0  0  0
    3.0682   -2.4045   17.3379 H   0  0  0  0  0  0
    2.2975   -2.6266   15.7306 H   0  0  0  0  0  0
    3.7239   -4.7589   17.3376 H   0  0  0  0  0  0
    1.9497   -4.5235   17.1853 H   0  0  0  0  0  0
    3.8883   -5.3142   14.9671 H   0  0  0  0  0  0
    2.6640   -6.3533   15.7721 H   0  0  0  0  0  0
    1.7701   -5.4020   13.6368 H   0  0  0  0  0  0
    2.0919   -3.7474   14.2577 H   0  0  0  0  0  0
    0.8677   -4.7865   15.0628 H   0  0  0  0  0  0
    6.6183   -0.4021   15.7613 H   0  0  0  0  0  0
    6.3070   -1.4735   14.3536 H   0  0  0  0  0  0
    5.6685    1.3854   14.7072 H   0  0  0  0  0  0
    8.0316    0.8537   14.2635 H   0  0  0  0  0  0
    7.5616   -0.1886   12.8781 H   0  0  0  0  0  0
    6.6004    2.5507   12.6015 H   0  0  0  0  0  0
    8.3836    2.4316   12.7821 H   0  0  0  0  0  0
    6.6658    0.8229   10.8214 H   0  0  0  0  0  0
    7.7053    2.2272   10.4041 H   0  0  0  0  0  0
    8.8436    0.0859    9.8998 H   0  0  0  0  0  0
    8.6622   -0.4194   11.6139 H   0  0  0  0  0  0
    9.7017    0.9849   11.1968 H   0  0  0  0  0  0
    4.4652    2.4507   13.3185 H   0  0  0  0  0  0
    3.5568    0.9496   10.8355 H   0  0  0  0  0  0
    1.8508    0.1612   12.3475 H   0  0  0  0  0  0
    1.5331    1.8259   12.9429 H   0  0  0  0  0  0
    1.1901    1.2044    9.9992 H   0  0  0  0  0  0
   -0.0724    0.7067   11.1761 H   0  0  0  0  0  0
   -0.4394    2.4758    8.9511 H   0  0  0  0  0  0
   -0.8693    4.1629    9.7249 H   0  0  0  0  0  0
    3.1729    2.1542    9.1313 H   0  0  0  0  0  0
    4.4977    4.6808    7.2373 H   0  0  0  0  0  0
    4.9607    3.1667    8.0856 H   0  0  0  0  0  0
    5.5893    5.2032    9.9394 H   0  0  0  0  0  0
    6.7566    4.3235    8.8953 H   0  0  0  0  0  0
    7.2388    6.5596    8.2959 H   0  0  0  0  0  0
    5.9947    6.1542    7.0652 H   0  0  0  0  0  0
    4.2701    7.3022    8.6930 H   0  0  0  0  0  0
    7.8312    8.1893    8.4978 H   0  0  0  0  0  0
    7.4425    9.9504    9.1122 H   0  0  0  0  0  0
    3.8881    9.2852    9.4311 H   0  0  0  0  0  0
    0.6444    5.6580    7.3122 H   0  0  0  0  0  0
    1.7116    6.3865    8.7122 H   0  0  0  0  0  0
    3.1726    5.0202    9.8699 H   0  0  0  0  0  0
    5.3106   10.5392    9.6156 H   0  0  0  0  0  0
  1  2  2  0  0  0
  1  3  1  0  0  0
  1  4  1  0  0  0
  3 55  1  0  0  0
  3 56  1  0  0  0
  3 57  1  0  0  0
  4  5  1  0  0  0
  4 58  1  0  0  0
  5  6  1  0  0  0
  5  8  1  0  0  0
  5 59  1  0  0  0
  6  7  2  0  0  0
  6 11  1  0  0  0
  8  9  1  0  0  0
  8 10  1  0  0  0
  8 60  1  0  0  0
  9 61  1  0  0  0
 10 62  1  0  0  0
 10 63  1  0  0  0
 10 64  1  0  0  0
 11 12  1  0  0  0
 11 65  1  0  0  0
 12 13  1  0  0  0
 12 15  1  0  0  0
 12 66  1  0  0  0
 13 14  2  0  0  0
 13 19  1  0  0  0
 15 16  1  0  0  0
 15 17  1  0  0  0
 15 67  1  0  0  0
 16 18  1  0  0  0
 16 68  1  0  0  0
 16 69  1  0  0  0
 17 70  1  0  0  0
 17 71  1  0  0  0
 17 72  1  0  0  0
 18 73  1  0  0  0
 18 74  1  0  0  0
 18 75  1  0  0  0
 19 20  1  0  0  0
 19 76  1  0  0  0
 20 21  1  0  0  0
 20 22  1  0  0  0
 20 77  1  0  0  0
 21 26  1  0  0  0
 21 78  1  0  0  0
 21 79  1  0  0  0
 22 23  1  0  0  0
 22 80  1  0  0  0
 22 81  1  0  0  0
 23 24  1  0  0  0
 23 82  1  0  0  0
 23 83  1  0  0  0
 24 25  1  0  0  0
 24 84  1  0  0  0
 24 85  1  0  0  0
 25 86  1  0  0  0
 25 87  1  0  0  0
 25 88  1  0  0  0
 26 27  1  0  0  0
 26 89  1  0  0  0
 26 90  1  0  0  0
 27 28  1  0  0  0
 27 30  1  0  0  0
 27 91  1  0  0  0
 28 29  2  0  0  0
 28 34  1  0  0  0
 30 31  1  0  0  0
 30 92  1  0  0  0
 30 93  1  0  0  0
 31 32  1  0  0  0
 31 94  1  0  0  0
 31 95  1  0  0  0
 32 33  1  0  0  0
 32 96  1  0  0  0
 32 97  1  0  0  0
 33 98  1  0  0  0
 33 99  1  0  0  0
 33100  1  0  0  0
 34 35  1  0  0  0
 34101  1  0  0  0
 35 36  1  0  0  0
 35 38  1  0  0  0
 35102  1  0  0  0
 36 37  2  0  0  0
 36 43  1  0  0  0
 38 39  1  0  0  0
 38103  1  0  0  0
 38104  1  0  0  0
 39 40  1  0  0  0
 39105  1  0  0  0
 39106  1  0  0  0
 40 41  2  0  0  0
 40 42  1  0  0  0
 42107  1  0  0  0
 42108  1  0  0  0
 43 54  1  0  0  0
 43109  1  0  0  0
 44 45  2  0  0  0
 44 53  1  0  0  0
 44 54  1  0  0  0
 46 47  1  0  0  0
 46 54  1  0  0  0
 46110  1  0  0  0
 46111  1  0  0  0
 47 48  1  0  0  0
 47112  1  0  0  0
 47113  1  0  0  0
 48 49  1  0  0  0
 48114  1  0  0  0
 48115  1  0  0  0
 49 50  1  0  0  0
 49116  1  0  0  0
 50 51  1  0  0  0
 50 52  2  0  0  0
 51117  1  0  0  0
 51118  1  0  0  0
 52119  1  0  0  0
 52123  1  0  0  0
 53120  1  0  0  0
 53121  1  0  0  0
 54122  1  0  0  0
M  CHG  2  26   1  52   1
M  END
> <s_m_source_file>
../3hlo_ligand.sdf

> <i_m_source_file_index>
1

> <s_epik_input>
Tz1DKFtDSDNdKVtOSF1bQ0BASF0oW0NASF0oW09IXSlbQ0gzXSlDKD1PKVtOSF1bQ0BASF0oW0NAQEhdKFtDSDNdKVtDSDJdW0NIM10pQyg9TylbTkhdW0NAQEhdKFtDSDJdW0NIMl1bQ0gyXVtDSDNdKVtDSDJdW05IMitdW0NAQEhdKFtDSDJdW0NIMl1bQ0gyXVtDSDNdKUMoPU8pW05IXVtDQEBIXShbQ0gyXVtDSDJdQyg9TylbTkgyXSlDKD1PKVtOSF1bQ0BIXShDKD1PKVtOSDJdKVtDSDJdW0NIMl1bQ0gyXVtOSF0vQyhbTkgyXSk9TlxbSF0=

> <s_epik_cmdline>
J2VwaWtfYXBwJywgJy1pbWFlJywgJ2xpZ2FuZF9wcm8ubWFlJywgJy1vbWFlJywgJ2xpZ2FuZF9wcmVwLm1hZScsICctbXMnLCAnMScsICctcGgnLCAnNycsICctcGh0JywgJzAuNScsICctbnQn

> <r_epik_Ionization_Penalty>
  0.1921

> <r_epik_Ionization_Penalty_Charging>
  0.1921

> <r_epik_Ionization_Penalty_Neutral>
  0.0000

> <r_epik_State_Penalty>
  0.1818

> <r_epik_Charging_Adjusted_Penalty>
0.37396405168134

> <i_epik_Tot_Q>
2

> <i_epik_Tot_abs_Q>
2

> <s_epik_Chemistry_Notes>
This compound has an imine and may undergo hydrolysis.

$$$$
