3hmm_ligand
                    3D
 Schrodinger Suite 2020-3.
 40 43  0  0  1  0            999 V2000
   10.3020   63.9450    5.4270 C   0  0  0  0  0  0
   11.6880   64.0670    4.8800 C   0  0  0  0  0  0
   12.0500   63.4210    3.6830 C   0  0  0  0  0  0
   13.3770   63.5740    3.2040 C   0  0  0  0  0  0
   14.3050   64.3710    3.9220 C   0  0  0  0  0  0
   13.8720   64.9950    5.1220 C   0  0  0  0  0  0
   12.5740   64.8380    5.5860 N   0  0  0  0  0  0
   14.7430   65.8590    5.9240 C   0  0  0  0  0  0
   15.6620   66.5790    5.2540 N   0  0  0  0  0  0
   16.4740   67.4160    5.9310 C   0  0  0  0  0  0
   17.3780   68.5460    3.8100 C   0  0  0  0  0  0
   16.2130   68.4070    2.9780 C   0  0  0  0  0  0
   16.2750   68.8500    1.6470 C   0  0  0  0  0  0
   17.4040   69.4140    1.0990 N   0  3  0  0  0  0
   18.5140   69.5380    1.9100 C   0  0  0  0  0  0
   18.5400   69.1230    3.2500 C   0  0  0  0  0  0
   16.4010   67.5660    7.3360 C   0  0  0  0  0  0
   17.2160   68.4350    8.1520 C   0  0  0  0  0  0
   17.0370   68.4860    9.5570 C   0  0  0  0  0  0
   16.0500   67.6780   10.1650 C   0  0  0  0  0  0
   15.2370   66.8210    9.3670 C   0  0  0  0  0  0
   15.3920   66.7510    7.9650 C   0  0  0  0  0  0
   14.5800   65.9150    7.2720 N   0  0  0  0  0  0
   17.3950   68.1280    5.1530 N   0  0  0  0  0  0
    9.7021   63.3026    4.7656 H   0  0  0  0  0  0
    9.8418   64.9424    5.4855 H   0  0  0  0  0  0
   10.3424   63.5002    6.4323 H   0  0  0  0  0  0
   11.3267   62.8163    3.1358 H   0  0  0  0  0  0
   13.6836   63.0783    2.2829 H   0  0  0  0  0  0
   15.3254   64.5013    3.5616 H   0  0  0  0  0  0
   15.2983   67.9656    3.3737 H   0  0  0  0  0  0
   15.3897   68.7423    1.0203 H   0  0  0  0  0  0
   19.4162   69.9808    1.4880 H   0  0  0  0  0  0
   19.4422   69.2438    3.8496 H   0  0  0  0  0  0
   17.9769   69.0583    7.6824 H   0  0  0  0  0  0
   17.6571   69.1447   10.1650 H   0  0  0  0  0  0
   15.9101   67.7100   11.2455 H   0  0  0  0  0  0
   14.4782   66.2055    9.8501 H   0  0  0  0  0  0
   18.3435   68.4662    5.5956 H   0  0  0  0  0  0
   17.3991   69.7467    0.0505 H   0  0  0  0  0  0
  1  2  1  0  0  0
  1 25  1  0  0  0
  1 26  1  0  0  0
  1 27  1  0  0  0
  2  3  2  0  0  0
  2  7  1  0  0  0
  3  4  1  0  0  0
  3 28  1  0  0  0
  4  5  2  0  0  0
  4 29  1  0  0  0
  5  6  1  0  0  0
  5 30  1  0  0  0
  6  7  2  0  0  0
  6  8  1  0  0  0
  8  9  2  0  0  0
  8 23  1  0  0  0
  9 10  1  0  0  0
 10 17  2  0  0  0
 10 24  1  0  0  0
 11 12  2  0  0  0
 11 16  1  0  0  0
 11 24  1  0  0  0
 12 13  1  0  0  0
 12 31  1  0  0  0
 13 14  2  0  0  0
 13 32  1  0  0  0
 14 15  1  0  0  0
 14 40  1  0  0  0
 15 16  2  0  0  0
 15 33  1  0  0  0
 16 34  1  0  0  0
 17 18  1  0  0  0
 17 22  1  0  0  0
 18 19  2  0  0  0
 18 35  1  0  0  0
 19 20  1  0  0  0
 19 36  1  0  0  0
 20 21  2  0  0  0
 20 37  1  0  0  0
 21 22  1  0  0  0
 21 38  1  0  0  0
 22 23  2  0  0  0
 24 39  1  0  0  0
M  CHG  1  14   1
M  END
> <s_m_source_file>
../3hmm_ligand.sdf

> <i_m_source_file_index>
1

> <s_epik_input>
W0NIM11jMVtjSF1bY0hdW2NIXWMobjEpLWMobmMoYzIzKVtjSF1bY0hdW2NIXVtjSF0zKW5jMltOSF1jNFtjSF1bY0hdbltjSF1bY0hdNA==

> <s_epik_cmdline>
J2VwaWtfYXBwJywgJy1pbWFlJywgJ2xpZ2FuZF9wcm8ubWFlJywgJy1vbWFlJywgJ2xpZ2FuZF9wcmVwLm1hZScsICctbXMnLCAnMScsICctcGgnLCAnNycsICctcGh0JywgJzAuNScsICctbnQn

> <r_lp_tautomer_probability>
0.9999780001788

> <r_epik_Ionization_Penalty>
  0.2895

> <r_epik_Ionization_Penalty_Charging>
  0.2872

> <r_epik_Ionization_Penalty_Neutral>
  0.0023

> <r_epik_State_Penalty>
  0.2801

> <r_epik_Charging_Adjusted_Penalty>
0.567253547794473

> <i_epik_Tot_Q>
1

> <i_epik_Tot_abs_Q>
1

$$$$
