3hmp_ligand
                    3D
 Schrodinger Suite 2020-3.
 28 30  0  0  1  0            999 V2000
  -33.9980  -15.4210   -5.6650 C   0  0  0  0  0  0
  -34.9880  -16.5700   -5.8940 C   0  0  0  0  0  0
  -34.6760  -15.5890   -7.0260 C   0  0  0  0  0  0
  -33.7660  -16.1340   -8.1280 C   0  0  0  0  0  0
  -34.5750  -16.9000   -9.0850 N   0  0  0  0  0  0
  -35.1530  -16.3300  -10.1480 C   0  0  0  0  0  0
  -35.9620  -17.0620  -11.0250 C   0  0  0  0  0  0
  -36.2030  -18.4320  -10.8580 C   0  0  0  0  0  0
  -37.0090  -19.1190  -11.7690 C   0  0  0  0  0  0
  -37.5780  -18.4260  -12.8410 C   0  0  0  0  0  0
  -38.5940  -19.2230  -13.9780 Cl  0  0  0  0  0  0
  -37.3420  -17.0630  -13.0100 C   0  0  0  0  0  0
  -36.5340  -16.3780  -12.1070 C   0  0  0  0  0  0
  -36.3040  -15.0660  -12.2780 N   0  0  0  0  0  0
  -35.5360  -14.4130  -11.4240 C   0  0  0  0  0  0
  -34.9700  -15.0170  -10.3850 N   0  0  0  0  0  0
  -34.3643  -14.7782   -4.8510 H   0  0  0  0  0  0
  -33.0149  -15.8328   -5.3930 H   0  0  0  0  0  0
  -34.4782  -17.5311   -5.7315 H   0  0  0  0  0  0
  -35.8276  -16.4765   -5.1894 H   0  0  0  0  0  0
  -35.2796  -14.9466   -7.6840 H   0  0  0  0  0  0
  -33.2751  -15.2967   -8.6456 H   0  0  0  0  0  0
  -33.0021  -16.7882   -7.6826 H   0  0  0  0  0  0
  -34.7223  -17.9804   -8.9398 H   0  0  0  0  0  0
  -35.7605  -18.9631  -10.0152 H   0  0  0  0  0  0
  -37.1925  -20.1862  -11.6448 H   0  0  0  0  0  0
  -37.7906  -16.5328  -13.8501 H   0  0  0  0  0  0
  -35.3618  -13.3479  -11.5764 H   0  0  0  0  0  0
  1  2  1  0  0  0
  1  3  1  0  0  0
  1 17  1  0  0  0
  1 18  1  0  0  0
  2  3  1  0  0  0
  2 19  1  0  0  0
  2 20  1  0  0  0
  3  4  1  0  0  0
  3 21  1  0  0  0
  4  5  1  0  0  0
  4 22  1  0  0  0
  4 23  1  0  0  0
  5  6  1  0  0  0
  5 24  1  0  0  0
  6  7  2  0  0  0
  6 16  1  0  0  0
  7  8  1  0  0  0
  7 13  1  0  0  0
  8  9  2  0  0  0
  8 25  1  0  0  0
  9 10  1  0  0  0
  9 26  1  0  0  0
 10 11  1  0  0  0
 10 12  2  0  0  0
 12 13  1  0  0  0
 12 27  1  0  0  0
 13 14  2  0  0  0
 14 15  1  0  0  0
 15 16  2  0  0  0
 15 28  1  0  0  0
M  END
> <s_m_source_file>
../3hmp_ligand.sdf

> <i_m_source_file_index>
1

> <s_epik_input>
W0NIMl0xW0NIMl1bQ0hdMVtDSDJdW05IXWMybltjSF1uYyhjMjMpW2NIXWMoQ2wpW2NIXVtjSF0z

> <s_epik_cmdline>
J2VwaWtfYXBwJywgJy1pbWFlJywgJ2xpZ2FuZF9wcm8ubWFlJywgJy1vbWFlJywgJ2xpZ2FuZF9wcmVwLm1hZScsICctbXMnLCAnMScsICctcGgnLCAnNycsICctcGh0JywgJzAuNScsICctbnQn

> <r_lp_tautomer_probability>
1

> <r_epik_Ionization_Penalty>
  0.0022

> <r_epik_Ionization_Penalty_Charging>
  0.0000

> <r_epik_Ionization_Penalty_Neutral>
  0.0022

> <r_epik_State_Penalty>
 -0.0000

> <r_epik_Charging_Adjusted_Penalty>
0

> <i_epik_Tot_Q>
0

> <i_epik_Tot_abs_Q>
0

$$$$
