3hmv_ligand
                    3D
 Schrodinger Suite 2020-3.
 42 44  0  0  1  0            999 V2000
  -12.7450  -24.1940   -2.0670 O   0  5  0  0  0  0
  -12.8960  -24.9860   -2.9700 N   0  3  0  0  0  0
  -12.0970  -25.2350   -3.8460 O   0  0  0  0  0  0
  -14.2260  -25.5790   -3.0080 C   0  0  0  0  0  0
  -15.2070  -24.8730   -2.3150 C   0  0  0  0  0  0
  -16.4960  -25.3380   -2.3460 C   0  0  0  0  0  0
  -16.7920  -26.4970   -3.0600 C   0  0  0  0  0  0
  -15.7900  -27.1810   -3.7540 C   0  0  0  0  0  0
  -14.4690  -26.7130   -3.7470 C   0  0  0  0  0  0
  -13.4050  -27.4540   -4.4580 C   0  0  0  0  0  0
  -12.3460  -27.6900   -3.9010 O   0  0  0  0  0  0
  -13.6740  -27.8790   -5.7220 N   0  0  0  0  0  0
  -12.8290  -28.6540   -6.5280 C   0  0  0  0  0  0
  -13.0270  -28.8700   -7.9140 C   0  0  0  0  0  0
  -14.0970  -28.2810   -8.6440 C   0  0  0  0  0  0
  -13.9610  -28.0210   -9.9490 N   0  0  0  0  0  0
  -15.1430  -27.9790   -8.1010 O   0  0  0  0  0  0
  -11.4630  -29.4540   -5.9120 S   0  0  0  0  0  0
  -11.1590  -30.1250   -7.4240 C   0  0  0  0  0  0
   -9.9550  -31.0290   -7.5870 C   0  0  0  0  0  0
   -9.5630  -31.2310   -9.0790 C   0  0  1  0  0  0
   -8.6830  -32.4940   -9.1930 C   0  0  0  0  0  0
  -10.8030  -31.3360   -9.9880 C   0  0  0  0  0  0
  -11.8520  -30.2130   -9.8360 C   0  0  0  0  0  0
  -12.0250  -29.7480   -8.3960 C   0  0  0  0  0  0
  -14.9547  -23.9696   -1.7597 H   0  0  0  0  0  0
  -17.2845  -24.8043   -1.8153 H   0  0  0  0  0  0
  -17.8146  -26.8739   -3.0776 H   0  0  0  0  0  0
  -16.0384  -28.0874   -4.3061 H   0  0  0  0  0  0
  -14.6296  -27.6159   -6.1990 H   0  0  0  0  0  0
  -13.0268  -28.2826  -10.4675 H   0  0  0  0  0  0
  -14.7834  -27.5456  -10.5037 H   0  0  0  0  0  0
   -9.0924  -30.5883   -7.0658 H   0  0  0  0  0  0
  -10.1774  -32.0169   -7.1574 H   0  0  0  0  0  0
   -8.9982  -30.3553   -9.4312 H   0  0  0  0  0  0
   -7.8075  -32.3914   -8.5350 H   0  0  0  0  0  0
   -8.3475  -32.6144  -10.2337 H   0  0  0  0  0  0
   -9.2669  -33.3761   -8.8915 H   0  0  0  0  0  0
  -10.4877  -31.3182  -11.0417 H   0  0  0  0  0  0
  -11.3319  -32.2777   -9.7794 H   0  0  0  0  0  0
  -11.5452  -29.3415  -10.4330 H   0  0  0  0  0  0
  -12.8292  -30.5738  -10.1893 H   0  0  0  0  0  0
  1  2  1  0  0  0
  2  3  2  0  0  0
  2  4  1  0  0  0
  4  5  2  0  0  0
  4  9  1  0  0  0
  5  6  1  0  0  0
  5 26  1  0  0  0
  6  7  2  0  0  0
  6 27  1  0  0  0
  7  8  1  0  0  0
  7 28  1  0  0  0
  8  9  2  0  0  0
  8 29  1  0  0  0
  9 10  1  0  0  0
 10 11  2  0  0  0
 10 12  1  0  0  0
 12 13  1  0  0  0
 12 30  1  0  0  0
 13 14  2  0  0  0
 13 18  1  0  0  0
 14 15  1  0  0  0
 14 25  1  0  0  0
 15 16  1  0  0  0
 15 17  2  0  0  0
 16 31  1  0  0  0
 16 32  1  0  0  0
 18 19  1  0  0  0
 19 20  1  0  0  0
 19 25  2  0  0  0
 20 21  1  0  0  0
 20 33  1  0  0  0
 20 34  1  0  0  0
 21 22  1  0  0  0
 21 23  1  0  0  0
 21 35  1  0  0  0
 22 36  1  0  0  0
 22 37  1  0  0  0
 22 38  1  0  0  0
 23 24  1  0  0  0
 23 39  1  0  0  0
 23 40  1  0  0  0
 24 25  1  0  0  0
 24 41  1  0  0  0
 24 42  1  0  0  0
M  CHG  2   1  -1   2   1
M  END
> <s_m_source_file>
../3hmv_ligand.sdf

> <i_m_source_file_index>
1

> <s_epik_input>
W08tXVtOK10oPU8pYzFbY0hdW2NIXVtjSF1bY0hdYzFDKD1PKVtOSF1jKHMyKWMoQyg9TylbTkgyXSljKGMyMylbQ0gyXVtDSDJdW0NAQEhdKFtDSDJdMylbQ0gzXQ==

> <s_epik_cmdline>
J2VwaWtfYXBwJywgJy1pbWFlJywgJ2xpZ2FuZF9wcm8ubWFlJywgJy1vbWFlJywgJ2xpZ2FuZF9wcmVwLm1hZScsICctbXMnLCAnMScsICctcGgnLCAnNycsICctcGh0JywgJzAuNScsICctbnQn

> <r_lp_tautomer_probability>
1

> <r_epik_Ionization_Penalty>
  0.0001

> <r_epik_Ionization_Penalty_Charging>
  0.0000

> <r_epik_Ionization_Penalty_Neutral>
  0.0001

> <r_epik_State_Penalty>
 -0.0000

> <r_epik_Charging_Adjusted_Penalty>
0

> <i_epik_Tot_Q>
0

> <i_epik_Tot_abs_Q>
2

$$$$
