3hnb_ligand
                    3D
 Schrodinger Suite 2020-3.
 61 64  0  0  1  0            999 V2000
   -5.2350    5.3340   28.5120 O   0  0  0  0  0  0
   -3.9490    5.1060   29.0890 C   0  0  1  0  0  0
   -3.8450    3.6510   29.5730 C   0  0  0  0  0  0
   -2.5180    3.1310   29.4730 O   0  0  0  0  0  0
   -1.8110    2.5440   30.4990 C   0  0  0  0  0  0
   -2.1260    1.2640   30.9490 C   0  0  0  0  0  0
   -1.3660    0.6830   31.9690 C   0  0  0  0  0  0
   -0.2750    1.3720   32.5290 C   0  0  0  0  0  0
    0.5470    0.7770   33.6380 Cl  0  0  0  0  0  0
    0.0910    2.6510   32.1000 C   0  0  0  0  0  0
   -0.6210    3.2430   31.0870 C   0  0  0  0  0  0
   -0.2090    4.6100   30.6660 Cl  0  0  0  0  0  0
   -2.9740    5.4610   27.9600 C   0  0  0  0  0  0
   -2.8770    6.9220   28.0110 N   0  3  0  0  0  0
   -3.4780    7.8020   27.2950 C   0  0  0  0  0  0
   -4.3080    7.3540   26.3140 N   0  0  0  0  0  0
   -2.1850    7.6060   28.9070 C   0  0  0  0  0  0
   -1.3350    7.2150   29.9240 C   0  0  0  0  0  0
   -0.6910    8.1750   30.6950 C   0  0  0  0  0  0
   -0.8900    9.5400   30.4460 C   0  0  0  0  0  0
   -1.7360    9.9850   29.4260 C   0  0  0  0  0  0
   -2.3930    9.0520   28.6320 C   0  0  0  0  0  0
   -3.2550    9.1050   27.6220 N   0  0  0  0  0  0
   -3.7540   10.3220   27.0010 C   0  0  0  0  0  0
   -4.7130   10.0880   25.8440 C   0  0  0  0  0  0
   -6.0500   10.1050   26.3990 N   0  3  0  0  0  0
   -6.3960    9.3020   27.5640 C   0  0  0  0  0  0
   -6.3980   10.3750   28.6510 C   0  0  0  0  0  0
   -7.2940   11.5670   28.2960 C   0  0  0  0  0  0
   -7.1750   12.0720   26.8410 C   0  0  0  0  0  0
   -7.1190   10.9310   25.8270 C   0  0  0  0  0  0
   -6.1436    5.1574   29.1063 H   0  0  0  0  0  0
   -3.7987    5.7390   29.9760 H   0  0  0  0  0  0
   -4.1514    3.5927   30.6279 H   0  0  0  0  0  0
   -4.5035    3.0141   28.9642 H   0  0  0  0  0  0
   -2.9603    0.7182   30.5085 H   0  0  0  0  0  0
   -1.6212   -0.3122   32.3332 H   0  0  0  0  0  0
    0.9297    3.1706   32.5633 H   0  0  0  0  0  0
   -2.0041    4.9771   28.1475 H   0  0  0  0  0  0
   -3.3801    5.1085   27.0004 H   0  0  0  0  0  0
   -4.4140    6.2740   26.1339 H   0  0  0  0  0  0
   -4.8729    8.0718   25.7012 H   0  0  0  0  0  0
   -1.1701    6.1557   30.1210 H   0  0  0  0  0  0
   -0.0254    7.8640   31.5002 H   0  0  0  0  0  0
   -0.3717   10.2734   31.0637 H   0  0  0  0  0  0
   -1.8790   11.0520   29.2551 H   0  0  0  0  0  0
   -4.2937   10.9208   27.7494 H   0  0  0  0  0  0
   -2.9091   10.9047   26.6051 H   0  0  0  0  0  0
   -4.5896   10.8870   25.0981 H   0  0  0  0  0  0
   -4.4957    9.1153   25.3786 H   0  0  0  0  0  0
   -6.3342    9.2714   25.7400 H   0  0  0  0  0  0
   -7.3768    8.8299   27.4057 H   0  0  0  0  0  0
   -5.6337    8.5229   27.7119 H   0  0  0  0  0  0
   -6.7668    9.9423   29.5927 H   0  0  0  0  0  0
   -5.3747   10.7515   28.7965 H   0  0  0  0  0  0
   -8.3482   11.2905   28.4452 H   0  0  0  0  0  0
   -7.0434   12.4199   28.9439 H   0  0  0  0  0  0
   -8.0462   12.6980   26.5978 H   0  0  0  0  0  0
   -6.2553   12.6657   26.7330 H   0  0  0  0  0  0
   -6.8311   11.2545   24.8158 H   0  0  0  0  0  0
   -8.0475   10.3436   25.7736 H   0  0  0  0  0  0
  1  2  1  0  0  0
  1 32  1  0  0  0
  2  3  1  0  0  0
  2 13  1  0  0  0
  2 33  1  0  0  0
  3  4  1  0  0  0
  3 34  1  0  0  0
  3 35  1  0  0  0
  4  5  1  0  0  0
  5  6  2  0  0  0
  5 11  1  0  0  0
  6  7  1  0  0  0
  6 36  1  0  0  0
  7  8  2  0  0  0
  7 37  1  0  0  0
  8  9  1  0  0  0
  8 10  1  0  0  0
 10 11  2  0  0  0
 10 38  1  0  0  0
 11 12  1  0  0  0
 13 14  1  0  0  0
 13 39  1  0  0  0
 13 40  1  0  0  0
 14 15  2  0  0  0
 14 17  1  0  0  0
 15 16  1  0  0  0
 15 23  1  0  0  0
 16 41  1  0  0  0
 16 42  1  0  0  0
 17 18  2  0  0  0
 17 22  1  0  0  0
 18 19  1  0  0  0
 18 43  1  0  0  0
 19 20  2  0  0  0
 19 44  1  0  0  0
 20 21  1  0  0  0
 20 45  1  0  0  0
 21 22  2  0  0  0
 21 46  1  0  0  0
 22 23  1  0  0  0
 23 24  1  0  0  0
 24 25  1  0  0  0
 24 47  1  0  0  0
 24 48  1  0  0  0
 25 26  1  0  0  0
 25 49  1  0  0  0
 25 50  1  0  0  0
 26 27  1  0  0  0
 26 31  1  0  0  0
 26 51  1  0  0  0
 27 28  1  0  0  0
 27 52  1  0  0  0
 27 53  1  0  0  0
 28 29  1  0  0  0
 28 54  1  0  0  0
 28 55  1  0  0  0
 29 30  1  0  0  0
 29 56  1  0  0  0
 29 57  1  0  0  0
 30 31  1  0  0  0
 30 58  1  0  0  0
 30 59  1  0  0  0
 31 60  1  0  0  0
 31 61  1  0  0  0
M  CHG  2  14   1  26   1
M  END
> <s_m_source_file>
../3hnb_ligand.sdf

> <i_m_source_file_index>
1

> <s_epik_input>
Q2xjMVtjSF1jKENsKVtjSF1bY0hdYzFPW0NIMl1bQ0BIXShbT0hdKVtDSDJdW24rXTJjKFtOSDJdKW4oYyhjMjMpW2NIXVtjSF1bY0hdW2NIXTMpW0NIMl1bQ0gyXVtOSCtdNFtDSDJdW0NIMl1bQ0gyXVtDSDJdW0NIMl00

> <s_epik_cmdline>
J2VwaWtfYXBwJywgJy1pbWFlJywgJ2xpZ2FuZF9wcm8ubWFlJywgJy1vbWFlJywgJ2xpZ2FuZF9wcmVwLm1hZScsICctbXMnLCAnMScsICctcGgnLCAnNycsICctcGh0JywgJzAuNScsICctbnQn

> <r_lp_tautomer_probability>
1

> <r_epik_Ionization_Penalty>
  0.0152

> <r_epik_Ionization_Penalty_Charging>
  0.0152

> <r_epik_Ionization_Penalty_Neutral>
  0.0000

> <r_epik_State_Penalty>
  0.0119

> <r_epik_Charging_Adjusted_Penalty>
0.027077934784237

> <i_epik_Tot_Q>
2

> <i_epik_Tot_abs_Q>
2

$$$$
