3ho2_ligand
                    3D
 Schrodinger Suite 2020-3.
 56 59  0  0  1  0            999 V2000
   62.2730   36.1480   44.6140 C   0  0  1  0  0  0
   57.9300   36.8570   48.2350 O   0  0  0  0  0  0
   55.8590   38.5470   44.7990 O   0  0  0  0  0  0
   57.1360   39.1770   43.0560 N   0  0  0  0  0  0
   56.9580   38.7000   44.2560 C   0  0  0  0  0  0
   58.1590   38.3330   45.0370 C   0  0  0  0  0  0
   58.0990   36.8430   45.3160 C   0  0  0  0  0  0
   59.2370   36.5330   46.2810 C   0  0  2  0  0  0
   59.0260   36.6600   47.7710 C   0  0  0  0  0  0
   60.2240   36.5440   48.6600 C   0  0  0  0  0  0
   61.4800   36.4300   48.1730 C   0  0  0  0  0  0
   61.7460   36.5660   46.7010 C   0  0  1  0  0  0
   60.5780   36.1460   45.7240 C   0  0  2  0  0  0
   60.8720   36.3440   44.2260 C   0  0  0  0  0  0
   63.0150   37.4450   46.2450 C   0  0  0  0  0  0
   63.1470   37.2530   44.7850 C   0  0  0  0  0  0
   63.4150   38.2130   43.9060 C   0  0  0  0  0  0
   58.8220   35.0580   46.3960 C   0  0  0  0  0  0
   62.4610   35.1040   46.5820 C   0  0  0  0  0  0
   62.8250   34.8350   45.0560 C   0  0  0  0  0  0
   56.9120   41.4410   41.7990 O   0  5  0  0  0  0
   55.2250   37.1780   42.1820 O   0  0  0  0  0  0
   53.3860   36.4490   40.4370 O   0  0  0  0  0  0
   52.3660   38.0590   39.3550 O   0  5  0  0  0  0
   53.2730   37.6800   40.1750 C   0  0  0  0  0  0
   54.2230   38.6200   40.6790 C   0  0  0  0  0  0
   55.1840   38.3440   41.6730 C   0  0  0  0  0  0
   56.0970   39.3070   42.0730 C   0  0  0  0  0  0
   56.0570   40.5690   41.4840 C   0  0  0  0  0  0
   55.0850   40.8870   40.5120 C   0  0  0  0  0  0
   54.1680   39.8990   40.1180 C   0  0  0  0  0  0
   62.1517   36.2062   43.5223 H   0  0  0  0  0  0
   58.1349   39.5121   42.7399 H   0  0  0  0  0  0
   59.0617   38.5749   44.4568 H   0  0  0  0  0  0
   58.1684   38.8964   45.9817 H   0  0  0  0  0  0
   57.1262   36.5928   45.7644 H   0  0  0  0  0  0
   58.2221   36.2883   44.3741 H   0  0  0  0  0  0
   60.0543   36.5539   49.7468 H   0  0  0  0  0  0
   62.3195   36.2357   48.8568 H   0  0  0  0  0  0
   60.4466   35.0546   45.6849 H   0  0  0  0  0  0
   60.7537   37.3375   43.7688 H   0  0  0  0  0  0
   60.5805   35.5697   43.5011 H   0  0  0  0  0  0
   62.8359   38.5022   46.4903 H   0  0  0  0  0  0
   63.9136   37.0932   46.7731 H   0  0  0  0  0  0
   63.4942   37.9722   42.8356 H   0  0  0  0  0  0
   63.5576   39.2484   44.2488 H   0  0  0  0  0  0
   57.8033   34.9946   46.8063 H   0  0  0  0  0  0
   59.5197   34.5318   47.0640 H   0  0  0  0  0  0
   58.8458   34.5917   45.4000 H   0  0  0  0  0  0
   63.3766   35.0929   47.1915 H   0  0  0  0  0  0
   61.7706   34.3276   46.9434 H   0  0  0  0  0  0
   62.2851   34.0212   44.5499 H   0  0  0  0  0  0
   63.8933   34.7813   44.7995 H   0  0  0  0  0  0
   54.4591   41.7148   40.8766 H   0  0  0  0  0  0
   55.5841   41.1880   39.5791 H   0  0  0  0  0  0
   53.4035   40.1362   39.3635 H   0  0  0  0  0  0
  1 14  1  0  0  0
  1 16  1  0  0  0
  1 20  1  0  0  0
  1 32  1  0  0  0
  2  9  2  0  0  0
  3  5  2  0  0  0
  4  5  1  0  0  0
  4 28  1  0  0  0
  4 33  1  0  0  0
  5  6  1  0  0  0
  6  7  1  0  0  0
  6 34  1  0  0  0
  6 35  1  0  0  0
  7  8  1  0  0  0
  7 36  1  0  0  0
  7 37  1  0  0  0
  8  9  1  0  0  0
  8 13  1  0  0  0
  8 18  1  0  0  0
  9 10  1  0  0  0
 10 11  2  0  0  0
 10 38  1  0  0  0
 11 12  1  0  0  0
 11 39  1  0  0  0
 12 13  1  0  0  0
 12 15  1  0  0  0
 12 19  1  0  0  0
 13 14  1  0  0  0
 13 40  1  0  0  0
 14 41  1  0  0  0
 14 42  1  0  0  0
 15 16  1  0  0  0
 15 43  1  0  0  0
 15 44  1  0  0  0
 16 17  2  0  0  0
 17 45  1  0  0  0
 17 46  1  0  0  0
 18 47  1  0  0  0
 18 48  1  0  0  0
 18 49  1  0  0  0
 19 20  1  0  0  0
 19 50  1  0  0  0
 19 51  1  0  0  0
 20 52  1  0  0  0
 20 53  1  0  0  0
 21 29  1  0  0  0
 22 27  2  0  0  0
 23 25  2  0  0  0
 24 25  1  0  0  0
 25 26  1  0  0  0
 26 27  1  0  0  0
 26 31  2  0  0  0
 27 28  1  0  0  0
 28 29  2  0  0  0
 29 30  1  0  0  0
 30 31  1  0  0  0
 30 54  1  0  0  0
 30 55  1  0  0  0
 31 56  1  0  0  0
M  CHG  2  21  -1  24  -1
M  END
> <s_m_source_file>
../3ho2_ligand.sdf

> <i_m_source_file_index>
1

> <s_epik_input>
W0NIMl0xQyg9W0NIMl0pW0NAQEhdKFtDSDJdW0NIMl0yKVtDSDJdW0NAQEhdKFtDQF0xMjMpW0NAQF0oW0NIM10pKEMoPU8pW0NIXT1bQ0hdMylbQ0gyXVtDSDJdQyg9TylbTkhdW0NIXShDND1PKUMoPU8pW0NIMl1bQ0hdPUM0Qyg9TylbT0hd

> <s_epik_cmdline>
J2VwaWtfYXBwJywgJy1pbWFlJywgJ2xpZ2FuZF9wcm8ubWFlJywgJy1vbWFlJywgJ2xpZ2FuZF9wcmVwLm1hZScsICctbXMnLCAnMScsICctcGgnLCAnNycsICctcGh0JywgJzAuNScsICctbnQn

> <r_epik_Ionization_Penalty>
  0.0602

> <r_epik_Ionization_Penalty_Charging>
  0.0591

> <r_epik_Ionization_Penalty_Neutral>
  0.0011

> <r_epik_State_Penalty>
  0.0601

> <r_epik_Charging_Adjusted_Penalty>
0.119207373534068

> <i_epik_Tot_Q>
-2

> <i_epik_Tot_abs_Q>
2

$$$$
