3hpt_ligand
                    3D
 Schrodinger Suite 2020-3.
 63 66  0  0  1  0            999 V2000
    4.0830   13.1300   28.3470 O   0  0  0  0  0  0
    4.6360   12.8850   29.4030 C   0  0  0  0  0  0
    5.6120   13.6490   29.8930 N   0  0  0  0  0  0
    6.2800   13.3690   31.1610 C   0  0  0  0  0  0
    7.3100   14.4820   31.3020 C   0  0  0  0  0  0
    6.0970   14.8420   29.2040 C   0  0  0  0  0  0
    7.3380   15.2480   29.9920 C   0  0  0  0  0  0
    4.2180   11.6790   30.2210 C   0  0  0  0  0  0
    3.1820   10.9110   29.5410 N   0  0  0  0  0  0
    3.5190    9.8300   28.8250 C   0  0  0  0  0  0
    4.6790    9.4630   28.7100 O   0  0  0  0  0  0
    1.8160   11.4330   29.7220 C   0  0  0  0  0  0
    1.0340   10.4120   30.5530 C   0  0  0  0  0  0
    0.4480    9.3300   29.6430 C   0  0  0  0  0  0
    1.5260    8.3640   29.1300 C   0  0  0  0  0  0
    2.4460    9.0470   28.1160 C   0  0  2  0  0  0
    3.0790    8.0360   27.2680 N   0  3  2  0  0  0
    2.5220    7.4820   26.1850 C   0  0  3  0  0  0
    1.2760    7.8430   25.8330 N   0  0  3  0  0  0
    0.6940    7.3810   24.8730 C   0  0  0  0  0  0
    0.1270    6.9000   23.9810 N   0  0  0  0  0  0
    3.2160    6.5740   25.4700 N   0  0  0  0  0  0
    4.5290    6.1910   25.8150 C   0  0  0  0  0  0
    4.8310    5.8870   27.1510 C   0  0  0  0  0  0
    5.5300    6.1240   24.8350 C   0  0  0  0  0  0
    6.8190    5.7480   25.2200 C   0  0  0  0  0  0
    7.0730    5.4610   26.5400 C   0  0  0  0  0  0
    6.1150    5.5160   27.5320 C   0  0  0  0  0  0
    8.4240    5.1050   26.6950 O   0  0  0  0  0  0
    8.9490    5.2030   25.4390 C   0  0  0  0  0  0
   10.3940    4.8980   25.1880 C   0  0  0  0  0  0
    8.0380    5.5900   24.4440 C   0  0  0  0  0  0
    5.5417   13.3871   31.9762 H   0  0  0  0  0  0
    6.7517   12.3763   31.1156 H   0  0  0  0  0  0
    7.0206   15.1467   32.1293 H   0  0  0  0  0  0
    8.2969   14.0439   31.5117 H   0  0  0  0  0  0
    6.3341   14.5913   28.1595 H   0  0  0  0  0  0
    5.3198   15.6201   29.2269 H   0  0  0  0  0  0
    7.3282   16.3284   30.1987 H   0  0  0  0  0  0
    8.2509   14.9894   29.4355 H   0  0  0  0  0  0
    5.0884   11.0261   30.3826 H   0  0  0  0  0  0
    3.8250   12.0132   31.1925 H   0  0  0  0  0  0
    1.8592   12.3996   30.2453 H   0  0  0  0  0  0
    1.3422   11.5693   28.7387 H   0  0  0  0  0  0
    1.7075    9.9419   31.2848 H   0  0  0  0  0  0
    0.2148   10.9205   31.0825 H   0  0  0  0  0  0
   -0.2987    8.7463   30.2013 H   0  0  0  0  0  0
   -0.0317    9.8026   28.7732 H   0  0  0  0  0  0
    2.1359    8.0128   29.9754 H   0  0  0  0  0  0
    1.0450    7.5033   28.6424 H   0  0  0  0  0  0
    1.8648    9.7206   27.4690 H   0  0  0  0  0  0
    4.0095    8.4426   26.8451 H   0  0  0  0  0  0
    2.1117    6.6744   26.8091 H   0  0  0  0  0  0
    0.7952    8.5404   26.4012 H   0  0  0  0  0  0
    2.7600    6.1056   24.5853 H   0  0  0  0  0  0
    4.0445    5.9428   27.9036 H   0  0  0  0  0  0
    5.3068    6.3604   23.7946 H   0  0  0  0  0  0
    6.3549    5.2789   28.5685 H   0  0  0  0  0  0
   10.8802    4.6212   26.1351 H   0  0  0  0  0  0
   10.8886    5.7862   24.7678 H   0  0  0  0  0  0
   10.4742    4.0627   24.4768 H   0  0  0  0  0  0
    8.2008    5.7336   23.3758 H   0  0  0  0  0  0
    3.3086    7.1443   27.8697 H   0  0  0  0  0  0
  1  2  2  0  0  0
  2  3  1  0  0  0
  2  8  1  0  0  0
  3  4  1  0  0  0
  3  6  1  0  0  0
  4  5  1  0  0  0
  4 33  1  0  0  0
  4 34  1  0  0  0
  5  7  1  0  0  0
  5 35  1  0  0  0
  5 36  1  0  0  0
  6  7  1  0  0  0
  6 37  1  0  0  0
  6 38  1  0  0  0
  7 39  1  0  0  0
  7 40  1  0  0  0
  8  9  1  0  0  0
  8 41  1  0  0  0
  8 42  1  0  0  0
  9 10  1  0  0  0
  9 12  1  0  0  0
 10 11  2  0  0  0
 10 16  1  0  0  0
 12 13  1  0  0  0
 12 43  1  0  0  0
 12 44  1  0  0  0
 13 14  1  0  0  0
 13 45  1  0  0  0
 13 46  1  0  0  0
 14 15  1  0  0  0
 14 47  1  0  0  0
 14 48  1  0  0  0
 15 16  1  0  0  0
 15 49  1  0  0  0
 15 50  1  0  0  0
 16 17  1  0  0  0
 16 51  1  0  0  0
 17 18  1  0  0  0
 17 52  1  0  0  0
 17 63  1  0  0  0
 18 19  1  0  0  0
 18 22  1  0  0  0
 18 53  1  0  0  0
 19 20  1  0  0  0
 19 54  1  0  0  0
 20 21  3  0  0  0
 22 23  1  0  0  0
 22 55  1  0  0  0
 23 24  2  0  0  0
 23 25  1  0  0  0
 24 28  1  0  0  0
 24 56  1  0  0  0
 25 26  2  0  0  0
 25 57  1  0  0  0
 26 27  1  0  0  0
 26 32  1  0  0  0
 27 28  2  0  0  0
 27 29  1  0  0  0
 28 58  1  0  0  0
 29 30  1  0  0  0
 30 31  1  0  0  0
 30 32  2  0  0  0
 31 59  1  0  0  0
 31 60  1  0  0  0
 31 61  1  0  0  0
 32 62  1  0  0  0
M  CHG  1  17   1
M  END
> <s_m_source_file>
../3hpt_ligand.sdf

> <i_m_source_file_index>
1

> <s_epik_input>
W0NIMl0xW0NIMl1bQ0gyXVtDSDJdTjFDKD1PKVtDSDJdTjJDKD1PKVtDQEhdKFtDSDJdW0NIMl1bQ0gyXVtDSDJdMilbTkhdW0NIXShbTkhdQyNOKVtOSF1jKFtjSF0zKVtjSF1bY0hdYyhjMzQpb2MoW0NIM10pW2NIXTQ=

> <s_epik_cmdline>
J2VwaWtfYXBwJywgJy1pbWFlJywgJ2xpZ2FuZF9wcm8ubWFlJywgJy1vbWFlJywgJ2xpZ2FuZF9wcmVwLm1hZScsICctbXMnLCAnMScsICctcGgnLCAnNycsICctcGh0JywgJzAuNScsICctbnQn

> <r_epik_Ionization_Penalty>
  0.1102

> <r_epik_Ionization_Penalty_Charging>
  0.1102

> <r_epik_Ionization_Penalty_Neutral>
  0.0000

> <r_epik_State_Penalty>
  0.0999

> <r_epik_Charging_Adjusted_Penalty>
0.21008270370421

> <i_epik_Tot_Q>
1

> <i_epik_Tot_abs_Q>
1

> <s_epik_Chemistry_Notes>
This compound contains an acetal/aminal-like group ( X-CH(R)-Y where X, Y are N, S, or O) that may be acid/base labile, releasing an aldehyde.

$$$$
