3hq5_ligand
                    3D
 Schrodinger Suite 2020-3.
 47 49  0  0  1  0            999 V2000
   -1.8590  -11.0890   28.2970 Cl  0  0  0  0  0  0
   -3.4660   -4.1970   21.6290 C   0  0  0  0  0  0
   -3.1340   -4.1110   24.0250 C   0  0  0  0  0  0
   -3.4470   -5.0640   25.1480 C   0  0  0  0  0  0
   -4.0930   -6.2970   24.5670 C   0  0  1  0  0  0
   -4.0830   -6.0750   23.0700 C   0  0  0  0  0  0
   -3.6260  -10.7350   22.3250 C   0  0  0  0  0  0
   -2.7230  -10.8860   21.3260 C   0  0  0  0  0  0
   -3.4280   -9.7670   23.2620 C   0  0  0  0  0  0
   -2.3420   -8.9410   23.2320 C   0  0  0  0  0  0
   -2.1760   -7.8980   24.2740 C   0  0  0  0  0  0
   -3.2040   -4.9400   22.8360 N   0  3  1  0  0  0
   -1.4130   -9.1110   22.2230 C   0  0  0  0  0  0
   -0.1850   -8.2650   22.1000 C   0  0  0  0  0  0
   -3.5570   -8.1090   26.1970 C   0  0  0  0  0  0
   -4.4960   -7.6820   27.0870 C   0  0  0  0  0  0
   -3.3960   -7.5220   24.9300 N   0  0  0  0  0  0
   -4.6450   -8.2630   28.3070 C   0  0  0  0  0  0
   -3.8610   -9.3070   28.7030 C   0  0  0  0  0  0
   -4.0740   -9.8230   29.9950 C   0  0  0  0  0  0
   -4.2480  -10.2450   31.0510 N   0  0  0  0  0  0
   -2.8930   -9.7820   27.8470 C   0  0  0  0  0  0
   -2.7680   -9.1680   26.6150 C   0  0  0  0  0  0
   -1.6290  -10.0860   21.2770 C   0  0  0  0  0  0
    0.4690   -8.0600   23.1780 F   0  0  0  0  0  0
    0.7090   -8.7210   21.2870 F   0  0  0  0  0  0
   -0.3950   -7.0810   21.6910 F   0  0  0  0  0  0
   -2.7504   -3.3655   21.5477 H   0  0  0  0  0  0
   -4.4904   -3.7975   21.6594 H   0  0  0  0  0  0
   -3.3570   -4.8610   20.7588 H   0  0  0  0  0  0
   -3.8793   -3.3021   24.0122 H   0  0  0  0  0  0
   -2.1316   -3.6837   24.1754 H   0  0  0  0  0  0
   -2.5164   -5.3379   25.6666 H   0  0  0  0  0  0
   -4.1340   -4.5807   25.8583 H   0  0  0  0  0  0
   -5.0989   -6.4680   24.9781 H   0  0  0  0  0  0
   -3.7062   -6.9783   22.5679 H   0  0  0  0  0  0
   -5.1053   -5.8626   22.7240 H   0  0  0  0  0  0
   -4.5018  -11.3817   22.3780 H   0  0  0  0  0  0
   -2.8757  -11.6493   20.5630 H   0  0  0  0  0  0
   -4.1598   -9.6481   24.0610 H   0  0  0  0  0  0
   -1.4904   -8.2635   25.0527 H   0  0  0  0  0  0
   -1.7608   -6.9871   23.8181 H   0  0  0  0  0  0
   -2.2028   -5.3485   22.6341 H   0  0  0  0  0  0
   -5.1461   -6.8511   26.8131 H   0  0  0  0  0  0
   -5.4098   -7.8854   28.9857 H   0  0  0  0  0  0
   -2.0036   -9.5389   25.9322 H   0  0  0  0  0  0
   -0.9063  -10.2183   20.4718 H   0  0  0  0  0  0
  1 22  1  0  0  0
  2 12  1  0  0  0
  2 28  1  0  0  0
  2 29  1  0  0  0
  2 30  1  0  0  0
  3  4  1  0  0  0
  3 12  1  0  0  0
  3 31  1  0  0  0
  3 32  1  0  0  0
  4  5  1  0  0  0
  4 33  1  0  0  0
  4 34  1  0  0  0
  5  6  1  0  0  0
  5 17  1  0  0  0
  5 35  1  0  0  0
  6 12  1  0  0  0
  6 36  1  0  0  0
  6 37  1  0  0  0
  7  8  2  0  0  0
  7  9  1  0  0  0
  7 38  1  0  0  0
  8 24  1  0  0  0
  8 39  1  0  0  0
  9 10  2  0  0  0
  9 40  1  0  0  0
 10 11  1  0  0  0
 10 13  1  0  0  0
 11 17  1  0  0  0
 11 41  1  0  0  0
 11 42  1  0  0  0
 12 43  1  0  0  0
 13 14  1  0  0  0
 13 24  2  0  0  0
 14 25  1  0  0  0
 14 26  1  0  0  0
 14 27  1  0  0  0
 15 16  2  0  0  0
 15 17  1  0  0  0
 15 23  1  0  0  0
 16 18  1  0  0  0
 16 44  1  0  0  0
 18 19  2  0  0  0
 18 45  1  0  0  0
 19 20  1  0  0  0
 19 22  1  0  0  0
 20 21  3  0  0  0
 22 23  2  0  0  0
 23 46  1  0  0  0
 24 47  1  0  0  0
M  CHG  1  12   1
M  END
> <s_m_source_file>
../3hq5_ligand.sdf

> <i_m_source_file_index>
1

> <s_epik_input>
Q2xjKFtjSF0xKWMoQyNOKVtjSF1bY0hdYzFOKFtDQEhdMltDSDJdW0NIMl1bTkBIK10oW0NIM10pW0NIMl0yKVtDSDJdYzNbY0hdW2NIXVtjSF1bY0hdYzNDKEYpKEYpRg==

> <s_epik_cmdline>
J2VwaWtfYXBwJywgJy1pbWFlJywgJ2xpZ2FuZF9wcm8ubWFlJywgJy1vbWFlJywgJ2xpZ2FuZF9wcmVwLm1hZScsICctbXMnLCAnMScsICctcGgnLCAnNycsICctcGh0JywgJzAuNScsICctbnQn

> <r_epik_Ionization_Penalty>
  0.0395

> <r_epik_Ionization_Penalty_Charging>
  0.0395

> <r_epik_Ionization_Penalty_Neutral>
  0.0000

> <r_epik_State_Penalty>
  0.0332

> <r_epik_Charging_Adjusted_Penalty>
0.0727365786041467

> <i_epik_Tot_Q>
1

> <i_epik_Tot_abs_Q>
1

$$$$
