3hqh_ligand
                    3D
 Schrodinger Suite 2020-3.
107106  0  0  1  0            999 V2000
  -26.0350   16.9980  -10.5380 N   0  3  0  0  0  0
  -26.0650   17.0170   -9.0440 C   0  0  2  0  0  0
  -25.7430   18.4150   -8.5060 C   0  0  0  0  0  0
  -25.3400   19.3030   -9.2640 O   0  0  0  0  0  0
  -25.0610   15.9990   -8.4960 C   0  0  0  0  0  0
  -25.9210   18.6040   -7.1980 N   0  0  0  0  0  0
  -25.6460   19.8950   -6.5640 C   0  0  2  0  0  0
  -24.2250   19.9600   -6.0250 C   0  0  0  0  0  0
  -23.7930   19.0740   -5.2850 O   0  0  0  0  0  0
  -26.6190   20.1620   -5.4050 C   0  0  0  0  0  0
  -27.9600   20.2520   -5.8490 O   0  0  0  0  0  0
  -23.5070   21.0220   -6.3780 N   0  0  0  0  0  0
  -22.1380   21.1900   -5.9060 C   0  0  2  0  0  0
  -22.1300   21.7170   -4.4730 C   0  0  0  0  0  0
  -23.1040   22.3240   -4.0130 O   0  0  0  0  0  0
  -21.3800   22.1530   -6.8130 C   0  0  0  0  0  0
  -21.0300   21.4620   -3.7720 N   0  0  0  0  0  0
  -20.8510   21.9270   -2.4050 C   0  0  2  0  0  0
  -19.4290   22.4680   -2.2980 C   0  0  0  0  0  0
  -18.5900   22.2100   -3.1690 O   0  0  0  0  0  0
  -21.0770   20.7830   -1.4000 C   0  0  0  0  0  0
  -20.0430   19.6710   -1.5260 C   0  0  0  0  0  0
  -18.9290   19.8220   -0.9780 O   0  0  0  0  0  0
  -20.3430   18.6450   -2.1790 O   0  5  0  0  0  0
  -19.1630   23.2190   -1.2370 N   0  0  0  0  0  0
  -17.8510   23.8080   -1.0230 C   0  0  2  0  0  0
  -17.3470   23.3820    0.3450 C   0  0  0  0  0  0
  -18.1450   23.1660    1.2660 O   0  0  0  0  0  0
  -17.9540   25.3360   -1.0810 C   0  0  0  0  0  0
  -16.6800   25.9480   -0.9930 O   0  0  0  0  0  0
  -16.0270   23.2620    0.4770 N   0  0  0  0  0  0
  -15.4260   22.8750    1.7460 C   0  0  2  0  0  0
  -15.4670   24.0370    2.7280 C   0  0  0  0  0  0
  -15.1660   23.8520    3.9060 O   0  0  0  0  0  0
  -13.9410   22.4500    1.5890 C   0  0  2  0  0  0
  -13.1870   23.5340    1.0270 O   0  0  0  0  0  0
  -13.8220   21.2370    0.6910 C   0  0  0  0  0  0
  -15.8270   25.2290    2.2470 N   0  0  0  0  0  0
  -15.8990   26.4190    3.1080 C   0  0  2  0  0  0
  -17.2310   27.1760    2.9750 C   0  0  0  0  0  0
  -17.8810   27.1470    1.9300 O   0  0  0  0  0  0
  -14.7610   27.4370    2.8000 C   0  0  2  0  0  0
  -14.9070   27.9110    1.4490 O   0  0  0  0  0  0
  -13.3600   26.8030    3.0170 C   0  0  0  0  0  0
  -17.6150   27.8670    4.0450 N   0  0  0  0  0  0
  -18.8570   28.6250    4.0660 C   0  0  2  0  0  0
  -18.5990   30.0670    3.6400 C   0  0  0  0  0  0
  -17.7850   30.7620    4.2470 O   0  0  0  0  0  0
  -19.4580   28.5990    5.4750 C   0  0  0  0  0  0
  -19.8620   27.2170    5.9740 C   0  0  0  0  0  0
  -20.4270   27.2790    7.3810 C   0  0  0  0  0  0
  -21.6660   27.1500    7.5290 O   0  0  0  0  0  0
  -19.6270   27.4790    8.3310 O   0  5  0  0  0  0
  -19.2830   30.5080    2.5860 N   0  0  0  0  0  0
  -19.1150   31.8710    2.1010 C   0  0  0  0  0  0
  -17.7790   32.1790    1.4410 C   0  0  0  0  0  0
  -16.8920   31.2900    1.4070 O   0  0  0  0  0  0
  -26.7571   17.7301  -10.9286 H   0  0  0  0  0  0
  -26.3011   15.9930  -10.8973 H   0  0  0  0  0  0
  -25.0247   17.2569  -10.8878 H   0  0  0  0  0  0
  -27.0857   16.7453   -8.7369 H   0  0  0  0  0  0
  -25.3011   14.9997   -8.8881 H   0  0  0  0  0  0
  -25.1158   15.9848   -7.3975 H   0  0  0  0  0  0
  -24.0449   16.2813   -8.8088 H   0  0  0  0  0  0
  -26.2839   17.7602   -6.5927 H   0  0  0  0  0  0
  -25.7779   20.6261   -7.3752 H   0  0  0  0  0  0
  -26.5532   19.3420   -4.6747 H   0  0  0  0  0  0
  -26.3547   21.1110   -4.9156 H   0  0  0  0  0  0
  -28.7672   20.4410   -5.1260 H   0  0  0  0  0  0
  -23.9591   21.7795   -7.0352 H   0  0  0  0  0  0
  -21.6818   20.1899   -5.9469 H   0  0  0  0  0  0
  -21.3885   21.7693   -7.8439 H   0  0  0  0  0  0
  -20.3408   22.2440   -6.4642 H   0  0  0  0  0  0
  -21.8639   23.1405   -6.7853 H   0  0  0  0  0  0
  -20.2381   20.8764   -4.2619 H   0  0  0  0  0  0
  -21.5985   22.7120   -2.2176 H   0  0  0  0  0  0
  -21.0205   21.1787   -0.3752 H   0  0  0  0  0  0
  -22.0693   20.3386   -1.5673 H   0  0  0  0  0  0
  -19.9687   23.3912   -0.5082 H   0  0  0  0  0  0
  -17.1894   23.4354   -1.8189 H   0  0  0  0  0  0
  -18.4185   25.6363   -2.0318 H   0  0  0  0  0  0
  -18.5698   25.6941   -0.2428 H   0  0  0  0  0  0
  -16.5933   27.0442   -1.0210 H   0  0  0  0  0  0
  -15.3882   23.4615   -0.3960 H   0  0  0  0  0  0
  -16.0553   22.0359    2.0775 H   0  0  0  0  0  0
  -13.4829   22.2285    2.5642 H   0  0  0  0  0  0
  -13.1533   24.5056    1.5417 H   0  0  0  0  0  0
  -14.3994   20.4050    1.1203 H   0  0  0  0  0  0
  -12.7648   20.9450    0.6075 H   0  0  0  0  0  0
  -14.2153   21.4798   -0.3072 H   0  0  0  0  0  0
  -16.0731   25.3080    1.1778 H   0  0  0  0  0  0
  -15.8053   25.9698    4.1077 H   0  0  0  0  0  0
  -14.8502   28.3347    3.4294 H   0  0  0  0  0  0
  -15.8459   28.3885    1.1321 H   0  0  0  0  0  0
  -13.2743   26.4495    4.0551 H   0  0  0  0  0  0
  -12.5824   27.5559    2.8207 H   0  0  0  0  0  0
  -13.2309   25.9545    2.3289 H   0  0  0  0  0  0
  -16.9633   27.8544    4.9311 H   0  0  0  0  0  0
  -19.5288   28.1333    3.3471 H   0  0  0  0  0  0
  -18.7244   28.9928    6.1938 H   0  0  0  0  0  0
  -20.3648   29.2213    5.4984 H   0  0  0  0  0  0
  -20.6300   26.7967    5.3080 H   0  0  0  0  0  0
  -18.9816   26.5576    5.9804 H   0  0  0  0  0  0
  -19.9829   29.8266    2.0802 H   0  0  0  0  0  0
  -19.8872   32.0903    1.3489 H   0  0  0  0  0  0
  -19.2118   32.5739    2.9416 H   0  0  0  0  0  0
  -17.5853   33.1665    0.9968 H   0  0  0  0  0  0
  1  2  1  0  0  0
  1 58  1  0  0  0
  1 59  1  0  0  0
  1 60  1  0  0  0
  2  3  1  0  0  0
  2  5  1  0  0  0
  2 61  1  0  0  0
  3  4  2  0  0  0
  3  6  1  0  0  0
  5 62  1  0  0  0
  5 63  1  0  0  0
  5 64  1  0  0  0
  6  7  1  0  0  0
  6 65  1  0  0  0
  7  8  1  0  0  0
  7 10  1  0  0  0
  7 66  1  0  0  0
  8  9  2  0  0  0
  8 12  1  0  0  0
 10 11  1  0  0  0
 10 67  1  0  0  0
 10 68  1  0  0  0
 11 69  1  0  0  0
 12 13  1  0  0  0
 12 70  1  0  0  0
 13 14  1  0  0  0
 13 16  1  0  0  0
 13 71  1  0  0  0
 14 15  2  0  0  0
 14 17  1  0  0  0
 16 72  1  0  0  0
 16 73  1  0  0  0
 16 74  1  0  0  0
 17 18  1  0  0  0
 17 75  1  0  0  0
 18 19  1  0  0  0
 18 21  1  0  0  0
 18 76  1  0  0  0
 19 20  2  0  0  0
 19 25  1  0  0  0
 21 22  1  0  0  0
 21 77  1  0  0  0
 21 78  1  0  0  0
 22 23  2  0  0  0
 22 24  1  0  0  0
 25 26  1  0  0  0
 25 79  1  0  0  0
 26 27  1  0  0  0
 26 29  1  0  0  0
 26 80  1  0  0  0
 27 28  2  0  0  0
 27 31  1  0  0  0
 29 30  1  0  0  0
 29 81  1  0  0  0
 29 82  1  0  0  0
 30 83  1  0  0  0
 31 32  1  0  0  0
 31 84  1  0  0  0
 32 33  1  0  0  0
 32 35  1  0  0  0
 32 85  1  0  0  0
 33 34  2  0  0  0
 33 38  1  0  0  0
 35 36  1  0  0  0
 35 37  1  0  0  0
 35 86  1  0  0  0
 36 87  1  0  0  0
 37 88  1  0  0  0
 37 89  1  0  0  0
 37 90  1  0  0  0
 38 39  1  0  0  0
 38 91  1  0  0  0
 39 40  1  0  0  0
 39 42  1  0  0  0
 39 92  1  0  0  0
 40 41  2  0  0  0
 40 45  1  0  0  0
 42 43  1  0  0  0
 42 44  1  0  0  0
 42 93  1  0  0  0
 43 94  1  0  0  0
 44 95  1  0  0  0
 44 96  1  0  0  0
 44 97  1  0  0  0
 45 46  1  0  0  0
 45 98  1  0  0  0
 46 47  1  0  0  0
 46 49  1  0  0  0
 46 99  1  0  0  0
 47 48  2  0  0  0
 47 54  1  0  0  0
 49 50  1  0  0  0
 49100  1  0  0  0
 49101  1  0  0  0
 50 51  1  0  0  0
 50102  1  0  0  0
 50103  1  0  0  0
 51 52  2  0  0  0
 51 53  1  0  0  0
 54 55  1  0  0  0
 54104  1  0  0  0
 55 56  1  0  0  0
 55105  1  0  0  0
 55106  1  0  0  0
 56 57  2  0  0  0
 56107  1  0  0  0
M  CHG  3   1   1  24  -1  53  -1
M  END
> <s_m_source_file>
../3hqh_ligand.sdf

> <i_m_source_file_index>
1

> <s_epik_input>
W05IMytdW0NAQEhdKFtDSDNdKUMoPU8pW05IXVtDQEBIXShbQ0gyXVtPSF0pQyg9TylbTkhdW0NAQEhdKFtDSDNdKUMoPU8pW05IXVtDQEBIXShbQ0gyXUMoPU8pW09IXSlDKD1PKVtOSF1bQ0BASF0oW0NIMl1bT0hdKUMoPU8pW05IXVtDQEBIXShbQ0BIXShbT0hdKVtDSDNdKUMoPU8pW05IXVtDQEBIXShbQ0BIXShbT0hdKVtDSDNdKUMoPU8pW05IXVtDQEhdKEMoPU8pW05IXVtDSDJdW0NIXT1PKVtDSDJdW0NIMl1DKD1PKVtPSF0=

> <s_epik_cmdline>
J2VwaWtfYXBwJywgJy1pbWFlJywgJ2xpZ2FuZF9wcm8ubWFlJywgJy1vbWFlJywgJ2xpZ2FuZF9wcmVwLm1hZScsICctbXMnLCAnMScsICctcGgnLCAnNycsICctcGh0JywgJzAuNScsICctbnQn

> <r_lp_tautomer_probability>
0.99990000499975

> <r_epik_Ionization_Penalty>
  0.1379

> <r_epik_Ionization_Penalty_Charging>
  0.1376

> <r_epik_Ionization_Penalty_Neutral>
  0.0003

> <r_epik_State_Penalty>
  0.1240

> <r_epik_Charging_Adjusted_Penalty>
0.261582413165734

> <i_epik_Tot_Q>
-1

> <i_epik_Tot_abs_Q>
3

$$$$
