3hqr_ligand
                    3D
 Schrodinger Suite 2020-3.
 13 12  0  0  1  0            999 V2000
   20.1520   -6.2860   -6.8020 C   0  0  0  0  0  0
   20.1790   -6.2880   -5.3170 C   0  0  0  0  0  0
   19.0940   -6.1970   -3.1380 C   0  0  0  0  0  0
   17.7230   -6.1580   -2.5530 C   0  0  0  0  0  0
   19.1040   -6.2460   -7.4020 O   0  0  0  0  0  0
   21.3110   -6.3190   -7.4660 O   0  5  0  0  0  0
   21.2530   -6.3300   -4.7520 O   0  0  0  0  0  0
   17.5970   -6.1160   -1.2300 O   0  5  0  0  0  0
   19.0350   -6.2330   -4.6060 N   0  0  0  0  0  0
   16.7360   -6.1690   -3.2600 O   0  0  0  0  0  0
   19.6507   -5.3004   -2.8277 H   0  0  0  0  0  0
   19.6190   -7.0959   -2.7824 H   0  0  0  0  0  0
   18.0615   -6.2150   -5.1179 H   0  0  0  0  0  0
  1  2  1  0  0  0
  1  5  2  0  0  0
  1  6  1  0  0  0
  2  7  2  0  0  0
  2  9  1  0  0  0
  3  4  1  0  0  0
  3  9  1  0  0  0
  3 11  1  0  0  0
  3 12  1  0  0  0
  4  8  1  0  0  0
  4 10  2  0  0  0
  9 13  1  0  0  0
M  CHG  2   6  -1   8  -1
M  END
> <s_m_source_file>
../3hqr_ligand.sdf

> <i_m_source_file_index>
1

> <s_epik_input>
Tz1DKFtPSF0pQyg9TylbTkhdW0NIMl1DKD1PKVtPSF0=

> <s_epik_cmdline>
J2VwaWtfYXBwJywgJy1pbWFlJywgJ2xpZ2FuZF9wcm8ubWFlJywgJy1vbWFlJywgJ2xpZ2FuZF9wcmVwLm1hZScsICctbXMnLCAnMScsICctcGgnLCAnNycsICctcGh0JywgJzAuNScsICctbnQn

> <r_lp_tautomer_probability>
1

> <r_epik_Ionization_Penalty>
  0.0005

> <r_epik_Ionization_Penalty_Charging>
  0.0005

> <r_epik_Ionization_Penalty_Neutral>
  0.0000

> <r_epik_State_Penalty>
 -0.0000

> <r_epik_Charging_Adjusted_Penalty>
0.000542553720295976

> <i_epik_Tot_Q>
-2

> <i_epik_Tot_abs_Q>
2

$$$$
