3hqy_ligand
                    3D
 Schrodinger Suite 2020-3.
 49 53  0  0  1  0            999 V2000
   12.5890   16.9420   43.2430 C   0  0  0  0  0  0
   15.4610   15.3580   46.1300 C   0  0  0  0  0  0
   12.1960   18.6640   47.1970 C   0  0  0  0  0  0
   11.4100   17.1080   38.6340 C   0  0  0  0  0  0
   10.2600   17.5710   37.7520 C   0  0  0  0  0  0
   14.0860   15.8910   41.7090 C   0  0  0  0  0  0
   10.9840   18.6680   47.8500 C   0  0  0  0  0  0
    8.1790   18.2860   36.1310 C   0  0  0  0  0  0
    6.5840   16.2100   35.1550 C   0  0  0  0  0  0
    6.3190   17.5380   34.8320 C   0  0  0  0  0  0
    7.0970   18.5580   35.2960 C   0  0  0  0  0  0
    9.0060   19.3080   36.6640 C   0  0  0  0  0  0
   10.0600   18.9320   37.4700 C   0  0  0  0  0  0
    8.4400   16.9290   36.4710 C   0  0  0  0  0  0
    7.6270   15.9020   35.9620 C   0  0  0  0  0  0
    9.4780   16.6420   37.2540 N   0  0  0  0  0  0
   11.2360   17.5770   39.9720 O   0  0  0  0  0  0
   12.1250   17.0710   40.8920 C   0  0  0  0  0  0
   13.2920   16.3320   40.6460 C   0  0  0  0  0  0
   11.8200   17.3630   42.2000 C   0  0  0  0  0  0
   13.7350   16.2110   43.0210 C   0  0  0  0  0  0
   14.5150   15.7250   44.1660 C   0  0  3  0  0  0
   14.6530   16.2490   45.4260 C   0  0  0  0  0  0
   15.7830   14.3500   45.3670 N   0  0  0  0  0  0
   15.1800   14.5370   44.1350 N   0  0  0  0  0  0
   14.1010   17.5500   46.0070 C   0  0  0  0  0  0
   12.7790   17.4750   46.7420 C   0  0  0  0  0  0
   10.3680   17.5240   48.1050 N   0  0  0  0  0  0
   10.8910   16.3610   47.7100 C   0  0  0  0  0  0
   12.1090   16.2900   47.0240 C   0  0  0  0  0  0
   12.2942   17.1862   44.2636 H   0  0  0  0  0  0
   15.7304   15.5682   47.1756 H   0  0  0  0  0  0
   12.7139   19.6085   47.0303 H   0  0  0  0  0  0
   11.4455   16.0086   38.6430 H   0  0  0  0  0  0
   12.3575   17.5022   38.2381 H   0  0  0  0  0  0
   14.9789   15.2974   41.5129 H   0  0  0  0  0  0
   10.5322   19.6114   48.1566 H   0  0  0  0  0  0
    5.9508   15.4167   34.7576 H   0  0  0  0  0  0
    5.4677   17.7688   34.1916 H   0  0  0  0  0  0
    6.8722   19.5864   35.0134 H   0  0  0  0  0  0
    8.8143   20.3581   36.4433 H   0  0  0  0  0  0
   10.7314   19.6841   37.8842 H   0  0  0  0  0  0
    7.8349   14.8625   36.2155 H   0  0  0  0  0  0
   13.5811   16.1005   39.6209 H   0  0  0  0  0  0
   10.9288   17.9540   42.4110 H   0  0  0  0  0  0
   14.8177   17.9602   46.7337 H   0  0  0  0  0  0
   13.9448   18.2766   45.1960 H   0  0  0  0  0  0
   10.3531   15.4385   47.9284 H   0  0  0  0  0  0
   12.5222   15.3288   46.7183 H   0  0  0  0  0  0
  1 20  2  0  0  0
  1 21  1  0  0  0
  1 31  1  0  0  0
  2 23  2  0  0  0
  2 24  1  0  0  0
  2 32  1  0  0  0
  3  7  2  0  0  0
  3 27  1  0  0  0
  3 33  1  0  0  0
  4  5  1  0  0  0
  4 17  1  0  0  0
  4 34  1  0  0  0
  4 35  1  0  0  0
  5 13  2  0  0  0
  5 16  1  0  0  0
  6 19  1  0  0  0
  6 21  2  0  0  0
  6 36  1  0  0  0
  7 28  1  0  0  0
  7 37  1  0  0  0
  8 11  1  0  0  0
  8 12  2  0  0  0
  8 14  1  0  0  0
  9 10  1  0  0  0
  9 15  2  0  0  0
  9 38  1  0  0  0
 10 11  2  0  0  0
 10 39  1  0  0  0
 11 40  1  0  0  0
 12 13  1  0  0  0
 12 41  1  0  0  0
 13 42  1  0  0  0
 14 15  1  0  0  0
 14 16  2  0  0  0
 15 43  1  0  0  0
 17 18  1  0  0  0
 18 19  2  0  0  0
 18 20  1  0  0  0
 19 44  1  0  0  0
 20 45  1  0  0  0
 21 22  1  0  0  0
 22 23  1  0  0  0
 22 25  1  0  0  0
 23 26  1  0  0  0
 24 25  2  0  0  0
 26 27  1  0  0  0
 26 46  1  0  0  0
 26 47  1  0  0  0
 27 30  2  0  0  0
 28 29  2  0  0  0
 29 30  1  0  0  0
 29 48  1  0  0  0
 30 49  1  0  0  0
M  END
> <s_m_source_file>
../3hqy_ligand.sdf

> <i_m_source_file_index>
1

> <s_epik_input>
W2NIXTFbY0hdbltjSF1bY0hdYzFbQ0gyXUMoPVtDSF1OPU4yKVtDSF0yYyhbY0hdW2NIXTMpW2NIXVtjSF1jM09bQ0gyXWMoW2NIXVtjSF00KW5jKGM0NSlbY0hdW2NIXVtjSF1bY0hdNQ==

> <s_epik_cmdline>
J2VwaWtfYXBwJywgJy1pbWFlJywgJ2xpZ2FuZF9wcm8ubWFlJywgJy1vbWFlJywgJ2xpZ2FuZF9wcmVwLm1hZScsICctbXMnLCAnMScsICctcGgnLCAnNycsICctcGh0JywgJzAuNScsICctbnQn

> <r_epik_Ionization_Penalty>
  0.0188

> <r_epik_Ionization_Penalty_Charging>
  0.0000

> <r_epik_Ionization_Penalty_Neutral>
  0.0188

> <r_epik_State_Penalty>
  0.0130

> <r_epik_Charging_Adjusted_Penalty>
0.0129669467054224

> <i_epik_Tot_Q>
0

> <i_epik_Tot_abs_Q>
0

$$$$
