3hrb_ligand
                    3D
 Schrodinger Suite 2020-3.
 40 42  0  0  1  0            999 V2000
    2.2140   29.7770   31.6700 O   0  0  0  0  0  0
    2.7160   30.8430   31.3370 C   0  0  0  0  0  0
    4.1970   30.9400   31.1040 C   0  0  0  0  0  0
    4.9840   31.6400   32.0030 C   0  0  0  0  0  0
    4.4390   32.2310   33.0770 F   0  0  0  0  0  0
    6.3560   31.7360   31.8160 C   0  0  0  0  0  0
    4.7900   30.3370   30.0050 C   0  0  0  0  0  0
    6.1660   30.4330   29.8100 C   0  0  0  0  0  0
    6.9490   31.1350   30.7200 C   0  0  0  0  0  0
    8.2770   31.2680   30.5650 F   0  0  0  0  0  0
    1.8410   32.0540   31.1620 C   0  0  0  0  0  0
    2.3570   33.1390   30.4880 C   0  0  0  0  0  0
    1.5810   34.2710   30.3030 C   0  0  0  0  0  0
    0.3430   34.3180   30.7390 N   0  0  0  0  0  0
   -0.3950   35.5130   30.4990 O   0  0  0  0  0  0
   -0.2170   33.2800   31.3820 C   0  0  0  0  0  0
    0.5170   32.1250   31.6190 C   0  0  0  0  0  0
   -0.0600   31.0810   32.2760 N   0  0  0  0  0  0
   -1.6250   33.3650   31.8760 C   0  0  0  0  0  0
   -2.7070   32.9420   31.1000 C   0  0  0  0  0  0
   -2.5250   32.3920   29.7060 C   0  0  0  0  0  0
   -3.9990   33.0260   31.6120 C   0  0  0  0  0  0
   -4.2110   33.5160   32.8980 C   0  0  0  0  0  0
   -3.1300   33.9380   33.6760 C   0  0  0  0  0  0
   -1.8390   33.8600   33.1590 C   0  0  0  0  0  0
    6.9665   32.2851   32.5329 H   0  0  0  0  0  0
    4.1774   29.7861   29.2914 H   0  0  0  0  0  0
    6.6286   29.9582   28.9448 H   0  0  0  0  0  0
    3.3847   33.1058   30.0972 H   0  0  0  0  0  0
    2.0032   35.1344   29.7888 H   0  0  0  0  0  0
    0.0774   36.3545   29.9711 H   0  0  0  0  0  0
    0.5173   30.1641   32.4661 H   0  0  0  0  0  0
   -1.1033   31.1546   32.6166 H   0  0  0  0  0  0
   -1.4554   32.3905   29.4492 H   0  0  0  0  0  0
   -3.0733   33.0210   28.9892 H   0  0  0  0  0  0
   -2.9137   31.3638   29.6639 H   0  0  0  0  0  0
   -4.8464   32.7075   31.0048 H   0  0  0  0  0  0
   -5.2232   33.5705   33.2988 H   0  0  0  0  0  0
   -3.2958   34.3258   34.6811 H   0  0  0  0  0  0
   -0.9924   34.1882   33.7621 H   0  0  0  0  0  0
  1  2  2  0  0  0
  2  3  1  0  0  0
  2 11  1  0  0  0
  3  4  2  0  0  0
  3  7  1  0  0  0
  4  5  1  0  0  0
  4  6  1  0  0  0
  6  9  2  0  0  0
  6 26  1  0  0  0
  7  8  2  0  0  0
  7 27  1  0  0  0
  8  9  1  0  0  0
  8 28  1  0  0  0
  9 10  1  0  0  0
 11 12  2  0  0  0
 11 17  1  0  0  0
 12 13  1  0  0  0
 12 29  1  0  0  0
 13 14  1  0  0  0
 13 30  1  0  0  0
 14 15  1  0  0  0
 14 16  1  0  0  0
 15 31  1  0  0  0
 16 17  2  0  0  0
 16 19  1  0  0  0
 17 18  1  0  0  0
 18 32  1  0  0  0
 18 33  1  0  0  0
 19 20  2  0  0  0
 19 25  1  0  0  0
 20 21  1  0  0  0
 20 22  1  0  0  0
 21 34  1  0  0  0
 21 35  1  0  0  0
 21 36  1  0  0  0
 22 23  2  0  0  0
 22 37  1  0  0  0
 23 24  1  0  0  0
 23 38  1  0  0  0
 24 25  2  0  0  0
 24 39  1  0  0  0
 25 40  1  0  0  0
M  END
> <s_m_source_file>
../3hrb_ligand.sdf

> <i_m_source_file_index>
1

> <s_epik_input>
W2NIXTFbY0hdYyhGKVtjSF1jKEYpYzFDKD1PKUMyPVtDSF1bQ0gyXU4oW09IXSlDKD1DMltOSDJdKWMzYyhbQ0gzXSlbY0hdW2NIXVtjSF1bY0hdMw==

> <s_epik_cmdline>
J2VwaWtfYXBwJywgJy1pbWFlJywgJ2xpZ2FuZF9wcm8ubWFlJywgJy1vbWFlJywgJ2xpZ2FuZF9wcmVwLm1hZScsICctbXMnLCAnMScsICctcGgnLCAnNycsICctcGh0JywgJzAuNScsICctbnQn

> <r_epik_Ionization_Penalty>
  0.0130

> <r_epik_Ionization_Penalty_Charging>
  0.0000

> <r_epik_Ionization_Penalty_Neutral>
  0.0130

> <r_epik_State_Penalty>
  0.0101

> <r_epik_Charging_Adjusted_Penalty>
0.010067842384253

> <i_epik_Tot_Q>
0

> <i_epik_Tot_abs_Q>
0

> <s_epik_Chemistry_Notes>
This compound has a N-S or N-O group and may undergo hydrolysis at high or low pH.

$$$$
