3hrf_ligand
                    3D
 Schrodinger Suite 2020-3.
 34 35  0  0  1  0            999 V2000
   11.8540   -7.6140  -15.4780 O   0  5  0  0  0  0
   11.4760   -7.0630  -14.4060 C   0  0  0  0  0  0
   10.3800   -7.3030  -13.8390 O   0  0  0  0  0  0
   12.3550   -6.0770  -13.7470 C   0  0  0  0  0  0
   13.6440   -6.2800  -13.4440 C   0  0  0  0  0  0
   14.3420   -7.5800  -13.7330 C   0  0  0  0  0  0
   15.4060   -7.6310  -14.6360 C   0  0  0  0  0  0
   16.0470   -8.8390  -14.9020 C   0  0  0  0  0  0
   15.6030  -10.0010  -14.2720 C   0  0  0  0  0  0
   14.5390   -9.9630  -13.3770 C   0  0  0  0  0  0
   13.9060   -8.7550  -13.1060 C   0  0  0  0  0  0
   14.3370   -5.1290  -12.7450 C   0  0  0  0  0  0
   15.5420   -4.5170  -13.4540 C   0  0  0  0  0  0
   16.6200   -4.4000  -12.3960 C   0  0  0  0  0  0
   17.9230   -4.7950  -12.7050 C   0  0  0  0  0  0
   16.3040   -3.9190  -11.1170 C   0  0  0  0  0  0
   17.3020   -3.8290  -10.1470 C   0  0  0  0  0  0
   18.6030   -4.2290  -10.4720 C   0  0  0  0  0  0
   19.8920   -4.1250   -9.2390 Cl  0  0  0  0  0  0
   18.9210   -4.7140  -11.7420 C   0  0  0  0  0  0
   11.8773   -5.1166  -13.5032 H   0  0  0  0  0  0
   15.7369   -6.7205  -15.1356 H   0  0  0  0  0  0
   16.8871   -8.8754  -15.5956 H   0  0  0  0  0  0
   16.0955  -10.9502  -14.4834 H   0  0  0  0  0  0
   14.2023  -10.8778  -12.8893 H   0  0  0  0  0  0
   13.0710   -8.7220  -12.4062 H   0  0  0  0  0  0
   13.6243   -4.3031  -12.6040 H   0  0  0  0  0  0
   14.7077   -5.4647  -11.7653 H   0  0  0  0  0  0
   15.8571   -5.1759  -14.2765 H   0  0  0  0  0  0
   15.2680   -3.5313  -13.8582 H   0  0  0  0  0  0
   18.1573   -5.1671  -13.7023 H   0  0  0  0  0  0
   15.2833   -3.6170  -10.8822 H   0  0  0  0  0  0
   17.0720   -3.4526   -9.1503 H   0  0  0  0  0  0
   19.9393   -5.0251  -11.9750 H   0  0  0  0  0  0
  1  2  1  0  0  0
  2  3  2  0  0  0
  2  4  1  0  0  0
  4  5  2  0  0  0
  4 21  1  0  0  0
  5  6  1  0  0  0
  5 12  1  0  0  0
  6  7  2  0  0  0
  6 11  1  0  0  0
  7  8  1  0  0  0
  7 22  1  0  0  0
  8  9  2  0  0  0
  8 23  1  0  0  0
  9 10  1  0  0  0
  9 24  1  0  0  0
 10 11  2  0  0  0
 10 25  1  0  0  0
 11 26  1  0  0  0
 12 13  1  0  0  0
 12 27  1  0  0  0
 12 28  1  0  0  0
 13 14  1  0  0  0
 13 29  1  0  0  0
 13 30  1  0  0  0
 14 15  2  0  0  0
 14 16  1  0  0  0
 15 20  1  0  0  0
 15 31  1  0  0  0
 16 17  2  0  0  0
 16 32  1  0  0  0
 17 18  1  0  0  0
 17 33  1  0  0  0
 18 19  1  0  0  0
 18 20  2  0  0  0
 20 34  1  0  0  0
M  CHG  1   1  -1
M  END
> <s_m_source_file>
../3hrf_ligand.sdf

> <i_m_source_file_index>
1

> <s_epik_input>
W2NIXTFbY0hdW2NIXVtjSF1bY0hdYzEvQyg9W0NIXVxDKD1PKVtPSF0pW0NIMl1bQ0gyXWMyW2NIXVtjSF1jKENsKVtjSF1bY0hdMg==

> <s_epik_cmdline>
J2VwaWtfYXBwJywgJy1pbWFlJywgJ2xpZ2FuZF9wcm8ubWFlJywgJy1vbWFlJywgJ2xpZ2FuZF9wcmVwLm1hZScsICctbXMnLCAnMScsICctcGgnLCAnNycsICctcGh0JywgJzAuNScsICctbnQn

> <r_lp_tautomer_probability>
1

> <r_epik_Ionization_Penalty>
  0.0011

> <r_epik_Ionization_Penalty_Charging>
  0.0011

> <r_epik_Ionization_Penalty_Neutral>
  0.0000

> <r_epik_State_Penalty>
 -0.0000

> <r_epik_Charging_Adjusted_Penalty>
0.00107123623041676

> <i_epik_Tot_Q>
-1

> <i_epik_Tot_abs_Q>
1

$$$$
