3hs8_ligand
                    3D
 Schrodinger Suite 2020-3.
185191  0  0  1  0            999 V2000
   61.1150    6.7510  -15.0060 N   0  3  0  0  0  0
   60.1430    6.5030  -13.9440 C   0  0  2  0  0  0
   60.8100    6.4840  -12.5710 C   0  0  0  0  0  0
   61.9790    6.0810  -12.4670 O   0  0  0  0  0  0
   59.6010    5.1140  -14.2920 C   0  0  0  0  0  0
   60.7420    4.4250  -14.9960 C   0  0  0  0  0  0
   61.6000    5.5010  -15.6290 C   0  0  0  0  0  0
   60.0830    6.9170  -11.5330 N   0  0  0  0  0  0
   60.5900    6.8490  -10.1510 C   0  0  2  0  0  0
   59.7610    7.6040   -9.1060 C   0  0  0  0  0  0
   59.3630    7.0260   -8.0920 O   0  0  0  0  0  0
   62.0520    7.3390  -10.0770 C   0  0  0  0  0  0
   62.9120    6.5150   -9.1220 C   0  0  0  0  0  0
   62.4250    5.9710   -8.1230 O   0  0  0  0  0  0
   64.2060    6.4280   -9.4290 N   0  0  0  0  0  0
   59.4940    8.8850   -9.3670 N   0  0  0  0  0  0
   59.1670    9.8410   -8.2960 C   0  0  2  0  0  0
   57.7140    9.9590   -7.7820 C   0  0  0  0  0  0
   56.7390    9.6330   -8.4750 O   0  0  0  0  0  0
   59.7440   11.2320   -8.6220 C   0  0  0  0  0  0
   59.2050   11.8060   -9.9220 C   0  0  0  0  0  0
   58.4100   11.1680  -10.6220 O   0  0  0  0  0  0
   59.6410   13.0210  -10.2530 N   0  0  0  0  0  0
   57.6190   10.4780   -6.5590 N   0  0  0  0  0  0
   56.4390   10.4080   -5.7170 C   0  0  2  0  0  0
   55.7920   11.7740   -5.5350 C   0  0  0  0  0  0
   56.4710   12.7970   -5.6360 O   0  0  0  0  0  0
   56.8830    9.9350   -4.3280 C   0  0  0  0  0  0
   57.3150    8.4990   -4.2340 C   0  0  0  0  0  0
   57.3890    7.5840   -5.2490 C   0  0  0  0  0  0
   57.7640    7.8220   -3.0510 C   0  0  0  0  0  0
   57.8350    6.3790   -4.7670 N   0  0  0  0  0  0
   58.0780    6.4980   -3.4220 C   0  0  0  0  0  0
   57.9270    8.2070   -1.7090 C   0  0  0  0  0  0
   58.5450    5.5540   -2.5000 C   0  0  0  0  0  0
   58.3900    7.2660   -0.7900 C   0  0  0  0  0  0
   58.6930    5.9560   -1.1930 C   0  0  0  0  0  0
   54.4840   11.7900   -5.2560 N   0  0  0  0  0  0
   53.8920   12.9120   -4.5360 C   0  0  2  0  0  0
   54.7870   12.9840   -3.3170 C   0  0  0  0  0  0
   54.8420   12.0290   -2.5180 O   0  0  0  0  0  0
   52.4670   12.6080   -4.1260 C   0  0  0  0  0  0
   55.5550   14.0600   -3.1920 N   0  0  0  0  0  0
   56.5720   14.0370   -2.1440 C   0  0  2  0  0  0
   56.1210   14.7020   -0.8470 C   0  0  0  0  0  0
   55.5400   15.8030   -0.8520 O   0  0  0  0  0  0
   57.9920   14.4130   -2.6550 C   0  0  0  0  0  0
   58.4290   15.8340   -2.2970 C   0  0  0  0  0  0
   59.0320   16.4870   -3.1720 O   0  0  0  0  0  0
   58.2250   16.2910   -1.1490 O   0  0  0  0  0  0
   56.3420   13.9730    0.2430 N   0  0  0  0  0  0
   56.1040   14.4550    1.5910 C   0  0  2  0  0  0
   57.4340   14.2740    2.3070 C   0  0  0  0  0  0
   58.3110   13.5600    1.8060 O   0  0  0  0  0  0
   55.0030   13.6330    2.2870 C   0  0  0  0  0  0
   53.7050   13.5780    1.5380 C   0  0  0  0  0  0
   52.7110   14.5180    1.7750 C   0  0  0  0  0  0
   53.4780   12.5830    0.5870 C   0  0  0  0  0  0
   51.5210   14.4830    1.0730 C   0  0  0  0  0  0
   52.2760   12.5420   -0.1270 C   0  0  0  0  0  0
   51.2990   13.4880    0.1230 C   0  0  0  0  0  0
   57.6000   14.9250    3.4580 N   0  0  0  0  0  0
   58.8690   14.8630    4.2020 C   0  0  2  0  0  0
   58.6420   14.9580    5.7120 C   0  0  0  0  0  0
   57.9200   15.8460    6.1760 O   0  0  0  0  0  0
   59.8070   15.9790    3.7370 C   0  0  0  0  0  0
   61.0650   15.9140    4.3990 O   0  0  0  0  0  0
   59.2470   14.0350    6.4610 N   0  0  0  0  0  0
   59.1910   14.0340    7.9310 C   0  0  2  0  0  0
   60.1630   15.0410    8.5580 C   0  0  0  0  0  0
   60.0900   15.3440    9.7560 O   0  0  0  0  0  0
   59.4780   12.6350    8.4710 C   0  0  0  0  0  0
   58.2950   11.8660    8.4940 O   0  0  0  0  0  0
   61.0780   15.5510    7.7440 N   0  0  0  0  0  0
   62.0370   16.5420    8.2080 C   0  0  2  0  0  0
   61.8960   17.8390    7.3890 C   0  0  0  0  0  0
   60.8640   18.5060    7.4710 O   0  0  0  0  0  0
   63.4830   15.9630    8.2590 C   0  0  2  0  0  0
   63.7470   15.2300    7.0600 O   0  0  0  0  0  0
   63.6520   15.0150    9.4580 C   0  0  0  0  0  0
   62.9140   18.2200    6.6150 N   0  0  0  0  0  0
   62.9020   19.4930    5.8860 C   0  0  2  0  0  0
   62.0490   19.3950    4.6690 C   0  0  0  0  0  0
   61.8600   18.2960    4.1830 O   0  0  0  0  0  0
   64.3090   19.8830    5.4470 C   0  0  0  0  0  0
   65.2220   19.8920    6.5720 C   0  0  0  0  0  0
   66.0780   18.9260    6.9330 C   0  0  0  0  0  0
   65.3210   20.9070    7.5370 C   0  0  0  0  0  0
   66.7230   19.2790    8.0710 N   0  0  0  0  0  0
   66.2770   20.5120    8.4520 C   0  0  0  0  0  0
   64.6910   22.1220    7.7110 C   0  0  0  0  0  0
   66.6040   21.2760    9.5290 C   0  0  0  0  0  0
   65.0320   22.8710    8.7500 C   0  0  0  0  0  0
   65.9840   22.4570    9.6520 C   0  0  0  0  0  0
   61.5220   20.5120    4.1460 N   0  0  0  0  0  0
   61.7730   21.9040    4.5710 C   0  0  2  0  0  0
   63.1760   22.5480    4.8560 C   0  0  0  0  0  0
   63.3100   23.7710    4.6780 O   0  0  0  0  0  0
   60.7770   22.0510    5.6860 C   0  0  0  0  0  0
   59.5620   21.4440    5.0240 C   0  0  0  0  0  0
   60.0610   20.3520    4.0640 C   0  0  0  0  0  0
   64.0950   21.8080    5.2480 O   0  0  0  0  0  0
   60.6506    7.3644  -15.7922 H   0  0  0  0  0  0
   61.9838    7.2830  -14.5910 H   0  0  0  0  0  0
   59.3874    7.3020  -13.9185 H   0  0  0  0  0  0
   59.3144    4.5902  -13.3681 H   0  0  0  0  0  0
   58.7206    5.2166  -14.9435 H   0  0  0  0  0  0
   61.3269    3.8458  -14.2663 H   0  0  0  0  0  0
   60.3428    3.7483  -15.7659 H   0  0  0  0  0  0
   61.4609    5.5565  -16.7188 H   0  0  0  0  0  0
   62.6681    5.3686  -15.4020 H   0  0  0  0  0  0
   59.0838    7.3315  -11.7325 H   0  0  0  0  0  0
   60.4870    5.7752   -9.9359 H   0  0  0  0  0  0
   62.5102    7.2777  -11.0752 H   0  0  0  0  0  0
   62.0720    8.3819   -9.7278 H   0  0  0  0  0  0
   64.5928    6.9293  -10.3285 H   0  0  0  0  0  0
   64.8872    5.8549   -8.7829 H   0  0  0  0  0  0
   59.5228    9.2208  -10.4141 H   0  0  0  0  0  0
   59.6798    9.3245   -7.4712 H   0  0  0  0  0  0
   59.4880   11.9336   -7.8144 H   0  0  0  0  0  0
   60.8379   11.1627   -8.7145 H   0  0  0  0  0  0
   60.3487   13.5490   -9.5969 H   0  0  0  0  0  0
   59.2932   13.4959  -11.1823 H   0  0  0  0  0  0
   58.5234   10.9891   -6.1971 H   0  0  0  0  0  0
   55.7472    9.7261   -6.2332 H   0  0  0  0  0  0
   57.7406   10.5367   -3.9926 H   0  0  0  0  0  0
   56.0518   10.0532   -3.6173 H   0  0  0  0  0  0
   57.1312    7.7834   -6.2891 H   0  0  0  0  0  0
   57.6954    9.2239   -1.3921 H   0  0  0  0  0  0
   58.7831    4.5356   -2.8072 H   0  0  0  0  0  0
   58.5182    7.5512    0.2542 H   0  0  0  0  0  0
   59.0537    5.2412   -0.4534 H   0  0  0  0  0  0
   53.8535   10.9468   -5.5747 H   0  0  0  0  0  0
   53.8502   13.8246   -5.1487 H   0  0  0  0  0  0
   51.8303   12.5591   -5.0217 H   0  0  0  0  0  0
   52.1003   13.4016   -3.4584 H   0  0  0  0  0  0
   52.4349   11.6424   -3.6001 H   0  0  0  0  0  0
   55.4503   14.9445   -3.8375 H   0  0  0  0  0  0
   56.6201   12.9699   -1.8812 H   0  0  0  0  0  0
   58.7325   13.7271   -2.2178 H   0  0  0  0  0  0
   58.0203   14.3325   -3.7517 H   0  0  0  0  0  0
   58.5426   17.3143   -0.8999 H   0  0  0  0  0  0
   56.7255   12.9545    0.0828 H   0  0  0  0  0  0
   55.7743   15.5035    1.5458 H   0  0  0  0  0  0
   55.3449   12.5952    2.4135 H   0  0  0  0  0  0
   54.7866   14.0705    3.2728 H   0  0  0  0  0  0
   52.8712   15.2934    2.5242 H   0  0  0  0  0  0
   54.2441   11.8309    0.3987 H   0  0  0  0  0  0
   50.7550   15.2348    1.2627 H   0  0  0  0  0  0
   52.1103   11.7683   -0.8767 H   0  0  0  0  0  0
   50.3559   13.4555   -0.4226 H   0  0  0  0  0  0
   56.7611   15.5188    3.8499 H   0  0  0  0  0  0
   59.3006   13.8784    3.9692 H   0  0  0  0  0  0
   59.9786   15.8864    2.6544 H   0  0  0  0  0  0
   59.3502   16.9560    3.9536 H   0  0  0  0  0  0
   61.8465   16.6530    4.1687 H   0  0  0  0  0  0
   59.8066   13.2499    5.9314 H   0  0  0  0  0  0
   58.1614   14.3401    8.1682 H   0  0  0  0  0  0
   60.2169   12.1374    7.8258 H   0  0  0  0  0  0
   59.8764   12.7112    9.4935 H   0  0  0  0  0  0
   58.3209   10.8278    8.8565 H   0  0  0  0  0  0
   61.1021   15.2096    6.6986 H   0  0  0  0  0  0
   61.7461   16.7715    9.2437 H   0  0  0  0  0  0
   64.2270   16.7724    8.2965 H   0  0  0  0  0  0
   63.6793   15.7308    6.0830 H   0  0  0  0  0  0
   63.4522   15.5637   10.3902 H   0  0  0  0  0  0
   64.6805   14.6253    9.4751 H   0  0  0  0  0  0
   62.9442   14.1780    9.3662 H   0  0  0  0  0  0
   63.7803   17.5471    6.5325 H   0  0  0  0  0  0
   62.4766   20.2303    6.5827 H   0  0  0  0  0  0
   64.6745   19.1601    4.7028 H   0  0  0  0  0  0
   64.2887   20.8888    5.0020 H   0  0  0  0  0  0
   66.2326   17.9932    6.3907 H   0  0  0  0  0  0
   63.9286   22.4590    7.0086 H   0  0  0  0  0  0
   67.3393   20.9414   10.2608 H   0  0  0  0  0  0
   64.5470   23.8367    8.8927 H   0  0  0  0  0  0
   66.2407   23.1067   10.4887 H   0  0  0  0  0  0
   61.6245   22.4759    3.6432 H   0  0  0  0  0  0
   61.1308   21.4984    6.5689 H   0  0  0  0  0  0
   60.6655   23.1154    5.9401 H   0  0  0  0  0  0
   58.9039   21.0112    5.7919 H   0  0  0  0  0  0
   59.0174   22.2239    4.4715 H   0  0  0  0  0  0
   59.7326   20.5093    3.0260 H   0  0  0  0  0  0
   59.7846   19.3372    4.3862 H   0  0  0  0  0  0
   65.0895   22.2293    5.4562 H   0  0  0  0  0  0
  1  2  1  0  0  0
  1  7  1  0  0  0
  1103  1  0  0  0
  1104  1  0  0  0
  2  3  1  0  0  0
  2  5  1  0  0  0
  2105  1  0  0  0
  3  4  2  0  0  0
  3  8  1  0  0  0
  5  6  1  0  0  0
  5106  1  0  0  0
  5107  1  0  0  0
  6  7  1  0  0  0
  6108  1  0  0  0
  6109  1  0  0  0
  7110  1  0  0  0
  7111  1  0  0  0
  8  9  1  0  0  0
  8112  1  0  0  0
  9 10  1  0  0  0
  9 12  1  0  0  0
  9113  1  0  0  0
 10 11  2  0  0  0
 10 16  1  0  0  0
 12 13  1  0  0  0
 12114  1  0  0  0
 12115  1  0  0  0
 13 14  2  0  0  0
 13 15  1  0  0  0
 15116  1  0  0  0
 15117  1  0  0  0
 16 17  1  0  0  0
 16118  1  0  0  0
 17 18  1  0  0  0
 17 20  1  0  0  0
 17119  1  0  0  0
 18 19  2  0  0  0
 18 24  1  0  0  0
 20 21  1  0  0  0
 20120  1  0  0  0
 20121  1  0  0  0
 21 22  2  0  0  0
 21 23  1  0  0  0
 23122  1  0  0  0
 23123  1  0  0  0
 24 25  1  0  0  0
 24124  1  0  0  0
 25 26  1  0  0  0
 25 28  1  0  0  0
 25125  1  0  0  0
 26 27  2  0  0  0
 26 38  1  0  0  0
 28 29  1  0  0  0
 28126  1  0  0  0
 28127  1  0  0  0
 29 30  2  0  0  0
 29 31  1  0  0  0
 30 32  1  0  0  0
 30128  1  0  0  0
 31 33  2  0  0  0
 31 34  1  0  0  0
 32 33  1  0  0  0
 33 35  1  0  0  0
 34 36  2  0  0  0
 34129  1  0  0  0
 35 37  2  0  0  0
 35130  1  0  0  0
 36 37  1  0  0  0
 36131  1  0  0  0
 37132  1  0  0  0
 38 39  1  0  0  0
 38133  1  0  0  0
 39 40  1  0  0  0
 39 42  1  0  0  0
 39134  1  0  0  0
 40 41  2  0  0  0
 40 43  1  0  0  0
 42135  1  0  0  0
 42136  1  0  0  0
 42137  1  0  0  0
 43 44  1  0  0  0
 43138  1  0  0  0
 44 45  1  0  0  0
 44 47  1  0  0  0
 44139  1  0  0  0
 45 46  2  0  0  0
 45 51  1  0  0  0
 47 48  1  0  0  0
 47140  1  0  0  0
 47141  1  0  0  0
 48 49  2  0  0  0
 48 50  1  0  0  0
 50142  1  0  0  0
 51 52  1  0  0  0
 51143  1  0  0  0
 52 53  1  0  0  0
 52 55  1  0  0  0
 52144  1  0  0  0
 53 54  2  0  0  0
 53 62  1  0  0  0
 55 56  1  0  0  0
 55145  1  0  0  0
 55146  1  0  0  0
 56 57  2  0  0  0
 56 58  1  0  0  0
 57 59  1  0  0  0
 57147  1  0  0  0
 58 60  2  0  0  0
 58148  1  0  0  0
 59 61  2  0  0  0
 59149  1  0  0  0
 60 61  1  0  0  0
 60150  1  0  0  0
 61151  1  0  0  0
 62 63  1  0  0  0
 62152  1  0  0  0
 63 64  1  0  0  0
 63 66  1  0  0  0
 63153  1  0  0  0
 64 65  2  0  0  0
 64 68  1  0  0  0
 66 67  1  0  0  0
 66154  1  0  0  0
 66155  1  0  0  0
 67156  1  0  0  0
 68 69  1  0  0  0
 68157  1  0  0  0
 69 70  1  0  0  0
 69 72  1  0  0  0
 69158  1  0  0  0
 70 71  2  0  0  0
 70 74  1  0  0  0
 72 73  1  0  0  0
 72159  1  0  0  0
 72160  1  0  0  0
 73161  1  0  0  0
 74 75  1  0  0  0
 74162  1  0  0  0
 75 76  1  0  0  0
 75 78  1  0  0  0
 75163  1  0  0  0
 76 77  2  0  0  0
 76 81  1  0  0  0
 78 79  1  0  0  0
 78 80  1  0  0  0
 78164  1  0  0  0
 79165  1  0  0  0
 80166  1  0  0  0
 80167  1  0  0  0
 80168  1  0  0  0
 81 82  1  0  0  0
 81169  1  0  0  0
 82 83  1  0  0  0
 82 85  1  0  0  0
 82170  1  0  0  0
 83 84  2  0  0  0
 83 95  1  0  0  0
 85 86  1  0  0  0
 85171  1  0  0  0
 85172  1  0  0  0
 86 87  2  0  0  0
 86 88  1  0  0  0
 87 89  1  0  0  0
 87173  1  0  0  0
 88 90  2  0  0  0
 88 91  1  0  0  0
 89 90  1  0  0  0
 90 92  1  0  0  0
 91 93  2  0  0  0
 91174  1  0  0  0
 92 94  2  0  0  0
 92175  1  0  0  0
 93 94  1  0  0  0
 93176  1  0  0  0
 94177  1  0  0  0
 95 96  1  0  0  0
 95101  1  0  0  0
 96 97  1  0  0  0
 96 99  1  0  0  0
 96178  1  0  0  0
 97 98  2  0  0  0
 97102  1  0  0  0
 99100  1  0  0  0
 99179  1  0  0  0
 99180  1  0  0  0
100101  1  0  0  0
100181  1  0  0  0
100182  1  0  0  0
101183  1  0  0  0
101184  1  0  0  0
102185  1  0  0  0
M  CHG  1   1   1
M  END
> <s_m_source_file>
../3hs8_ligand.sdf

> <i_m_source_file_index>
1

> <s_epik_input>
W0NIMl0xW0NIMl1bQ0gyXVtOSDIrXVtDQEBIXTFDKD1PKVtOSF1bQ0BASF0oW0NIMl1DKD1PKVtOSDJdKUMoPU8pW05IXVtDQEBIXShbQ0gyXUMoPU8pW05IMl0pQyg9TylbTkhdW0NAQEhdKFtDSDJdYzJbY0hdW25IXWMoYzIzKVtjSF1bY0hdW2NIXVtjSF0zKUMoPU8pW05IXVtDQEBIXShbQ0gzXSlDKD1PKVtOSF1bQ0BASF0oW0NIMl1DKD1PKVtPSF0pQyg9TylbTkhdW0NAQEhdKFtDSDJdYzRbY0hdW2NIXVtjSF1bY0hdW2NIXTQpQyg9TylbTkhdW0NAQEhdKFtDSDJdW09IXSlDKD1PKVtOSF1bQ0BASF0oW0NIMl1bT0hdKUMoPU8pW05IXVtDQEBIXShbQ0BIXShbT0hdKVtDSDNdKUMoPU8pW05IXVtDQEhdKEMoPU8pTjVbQ0BIXShDKD1PKVtPSF0pW0NIMl1bQ0gyXVtDSDJdNSlbQ0gyXWM2W2NIXVtuSF1jKGM2NylbY0hdW2NIXVtjSF1bY0hdNw==

> <s_epik_cmdline>
J2VwaWtfYXBwJywgJy1pbWFlJywgJ2xpZ2FuZF9wcm8ubWFlJywgJy1vbWFlJywgJ2xpZ2FuZF9wcmVwLm1hZScsICctbXMnLCAnMScsICctcGgnLCAnNycsICctcGh0JywgJzAuNScsICctbnQn

> <s_epik_pKa_notes>
Molecule size exceeds maximum supported for generating protonation states

$$$$
