3hu1_ligand
                    3D
 Schrodinger Suite 2020-3.
 44 46  0  0  1  0            999 V2000
    8.4780   44.0810   -4.4480 P   0  0  1  0  0  0
    8.9200   43.5640   -3.1050 O   0  5  0  0  0  0
    9.4320   44.8280   -5.3220 O   0  0  0  0  0  0
    7.9180   42.4450   -5.4620 S   0  0  0  0  0  0
    6.9990   46.4080   -3.7580 P   0  0  2  0  0  0
    8.2250   47.1720   -4.1870 O   0  5  0  0  0  0
    6.6330   46.2880   -2.3050 O   0  0  0  0  0  0
    7.1010   44.9290   -4.3430 O   0  0  0  0  0  0
    5.7210   48.2520   -5.4720 P   0  0  1  0  0  0
    6.0190   49.5150   -4.7240 O   0  5  0  0  0  0
    6.5820   47.9080   -6.6320 O   0  0  0  0  0  0
    5.7040   47.0140   -4.4620 O   0  0  0  0  0  0
    4.1950   48.2680   -5.8510 O   0  0  0  0  0  0
    3.7900   48.2340   -7.1820 C   0  0  0  0  0  0
    2.7040   49.2650   -7.4290 C   0  0  1  0  0  0
    1.5160   48.9430   -6.7090 O   0  0  0  0  0  0
    3.0890   50.6870   -7.0690 C   0  0  1  0  0  0
    3.6150   51.3640   -8.2010 O   0  0  0  0  0  0
    1.7820   51.2970   -6.6590 C   0  0  1  0  0  0
    1.1270   51.8920   -7.7950 O   0  0  0  0  0  0
    0.9470   50.1210   -6.1750 C   0  0  2  0  0  0
    1.0020   50.0130   -4.6990 N   0  0  0  0  0  0
    1.4960   48.9590   -4.0110 C   0  0  0  0  0  0
    1.3580   49.1590   -2.6730 N   0  0  0  0  0  0
    0.7960   50.3580   -2.4920 C   0  0  0  0  0  0
    0.3290   51.1560   -1.3250 C   0  0  0  0  0  0
    0.4850   50.6960   -0.0500 N   0  0  0  0  0  0
   -0.2370   52.3690   -1.5680 N   0  0  0  0  0  0
   -0.4460   52.8230   -2.8200 C   0  0  0  0  0  0
   -0.0610   52.1310   -3.9120 N   0  0  0  0  0  0
    0.5440   50.9130   -3.8170 C   0  0  0  0  0  0
    8.6553   41.6622   -5.6936 H   0  0  0  0  0  0
    4.6492   48.4548   -7.8324 H   0  0  0  0  0  0
    3.3970   47.2346   -7.4203 H   0  0  0  0  0  0
    2.4749   49.2091   -8.5034 H   0  0  0  0  0  0
    3.8924   50.7800   -6.3234 H   0  0  0  0  0  0
    4.5735   51.0450   -8.6363 H   0  0  0  0  0  0
    1.9073   52.1127   -5.9317 H   0  0  0  0  0  0
    1.5756   52.7634   -8.2944 H   0  0  0  0  0  0
   -0.0998   50.1999   -6.5036 H   0  0  0  0  0  0
    1.9419   48.0739   -4.4648 H   0  0  0  0  0  0
    0.9448   49.7126    0.1275 H   0  0  0  0  0  0
    0.1509   51.3085    0.8004 H   0  0  0  0  0  0
   -0.9437   53.7833   -2.9547 H   0  0  0  0  0  0
  1  2  1  0  0  0
  1  3  2  0  0  0
  1  4  1  0  0  0
  1  8  1  0  0  0
  4 32  1  0  0  0
  5  6  1  0  0  0
  5  7  2  0  0  0
  5  8  1  0  0  0
  5 12  1  0  0  0
  9 10  1  0  0  0
  9 11  2  0  0  0
  9 12  1  0  0  0
  9 13  1  0  0  0
 13 14  1  0  0  0
 14 15  1  0  0  0
 14 33  1  0  0  0
 14 34  1  0  0  0
 15 16  1  0  0  0
 15 17  1  0  0  0
 15 35  1  0  0  0
 16 21  1  0  0  0
 17 18  1  0  0  0
 17 19  1  0  0  0
 17 36  1  0  0  0
 18 37  1  0  0  0
 19 20  1  0  0  0
 19 21  1  0  0  0
 19 38  1  0  0  0
 20 39  1  0  0  0
 21 22  1  0  0  0
 21 40  1  0  0  0
 22 23  1  0  0  0
 22 31  1  0  0  0
 23 24  2  0  0  0
 23 41  1  0  0  0
 24 25  1  0  0  0
 25 26  2  0  0  0
 25 31  1  0  0  0
 26 27  1  0  0  0
 26 28  1  0  0  0
 27 42  1  0  0  0
 27 43  1  0  0  0
 28 29  2  0  0  0
 29 30  1  0  0  0
 29 44  1  0  0  0
 30 31  2  0  0  0
M  CHG  3   2  -1   6  -1  10  -1
M  END
> <s_m_source_file>
../3hu1_ligand.sdf

> <i_m_source_file_index>
1

> <s_epik_input>
W09IXVtQQEBdKD1PKShbU0hdKU9bUEBAXSg9TykoW09IXSlPW1BAXSg9TykoW09IXSlPW0NIMl1bQ0BIXTFPW0NASF0oW0NASF0oW09IXSlbQ0BASF0xW09IXSluKFtjSF1uMiljKGMyMyluW2NIXW5jM1tOSDJd

> <s_epik_cmdline>
J2VwaWtfYXBwJywgJy1pbWFlJywgJ2xpZ2FuZF9wcm8ubWFlJywgJy1vbWFlJywgJ2xpZ2FuZF9wcmVwLm1hZScsICctbXMnLCAnMScsICctcGgnLCAnNycsICctcGh0JywgJzAuNScsICctbnQn

> <r_lp_tautomer_probability>
0.999997216410988

> <r_epik_Ionization_Penalty>
  0.0807

> <r_epik_Ionization_Penalty_Charging>
  0.0005

> <r_epik_Ionization_Penalty_Neutral>
  0.0802

> <r_epik_State_Penalty>
  0.0706

> <r_epik_Charging_Adjusted_Penalty>
0.0710841366671861

> <i_epik_Tot_Q>
-3

> <i_epik_Tot_abs_Q>
3

> <s_epik_Chemistry_Notes>
This compound contains an acetal/aminal-like group ( X-CH(R)-Y where X, Y are N, S, or O) that may be acid/base labile, releasing an aldehyde.

$$$$
