3hu2_ligand
                    3D
 Schrodinger Suite 2020-3.
 44 46  0  0  1  0            999 V2000
   -2.5980   44.3660   -4.4330 P   0  0  1  0  0  0
   -2.0500   43.6630   -3.2180 O   0  5  0  0  0  0
   -1.6770   45.1580   -5.3090 O   0  0  0  0  0  0
   -3.5070   42.9940   -5.5860 S   0  0  0  0  0  0
   -3.9400   46.7810   -3.7260 P   0  0  2  0  0  0
   -2.6780   47.4660   -4.1170 O   0  0  0  0  0  0
   -4.4630   46.8470   -2.3280 O   0  5  0  0  0  0
   -3.8670   45.2260   -3.9890 O   0  0  0  0  0  0
   -5.1360   48.7150   -5.3970 P   0  0  1  0  0  0
   -4.7920   49.7050   -4.3340 O   0  5  0  0  0  0
   -4.4450   48.7580   -6.6880 O   0  0  0  0  0  0
   -5.0490   47.2510   -4.7810 O   0  0  0  0  0  0
   -6.6920   48.7770   -5.6740 O   0  0  0  0  0  0
   -7.1800   48.6220   -6.9980 C   0  0  0  0  0  0
   -8.2890   49.6050   -7.3230 C   0  0  1  0  0  0
   -9.4480   49.2760   -6.5890 O   0  0  0  0  0  0
   -7.9490   51.0430   -7.0060 C   0  0  1  0  0  0
   -7.4430   51.6900   -8.1670 O   0  0  0  0  0  0
   -9.2480   51.6410   -6.5600 C   0  0  1  0  0  0
   -9.9410   52.2190   -7.6740 O   0  0  0  0  0  0
  -10.0550   50.4520   -6.0720 C   0  0  2  0  0  0
  -10.0250   50.3460   -4.5990 N   0  0  0  0  0  0
   -9.4860   49.3230   -3.9280 C   0  0  0  0  0  0
   -9.6460   49.4910   -2.5970 N   0  0  0  0  0  0
  -10.2380   50.6580   -2.3940 C   0  0  0  0  0  0
  -10.6910   51.4280   -1.2100 C   0  0  0  0  0  0
  -10.5060   50.9470    0.0370 N   0  0  0  0  0  0
  -11.2900   52.6240   -1.4070 N   0  0  0  0  0  0
  -11.5000   53.1060   -2.6540 C   0  0  0  0  0  0
  -11.1160   52.4460   -3.7710 N   0  0  0  0  0  0
  -10.4990   51.2290   -3.7060 C   0  0  0  0  0  0
   -2.9141   42.2085   -6.0773 H   0  0  0  0  0  0
   -6.3599   48.7860   -7.7126 H   0  0  0  0  0  0
   -7.5791   47.6048   -7.1250 H   0  0  0  0  0  0
   -8.5149   49.5068   -8.3951 H   0  0  0  0  0  0
   -7.1422   51.1804   -6.2711 H   0  0  0  0  0  0
   -6.4931   51.3583   -8.6116 H   0  0  0  0  0  0
   -9.1122   52.4578   -5.8358 H   0  0  0  0  0  0
   -9.5248   53.1008   -8.1832 H   0  0  0  0  0  0
  -11.0995   50.5193   -6.4105 H   0  0  0  0  0  0
   -8.9868   48.4716   -4.3905 H   0  0  0  0  0  0
  -10.0173   49.9725    0.1837 H   0  0  0  0  0  0
  -10.8439   51.5294    0.9069 H   0  0  0  0  0  0
  -12.0004   54.0681   -2.7633 H   0  0  0  0  0  0
  1  2  1  0  0  0
  1  3  2  0  0  0
  1  4  1  0  0  0
  1  8  1  0  0  0
  4 32  1  0  0  0
  5  6  2  0  0  0
  5  7  1  0  0  0
  5  8  1  0  0  0
  5 12  1  0  0  0
  9 10  1  0  0  0
  9 11  2  0  0  0
  9 12  1  0  0  0
  9 13  1  0  0  0
 13 14  1  0  0  0
 14 15  1  0  0  0
 14 33  1  0  0  0
 14 34  1  0  0  0
 15 16  1  0  0  0
 15 17  1  0  0  0
 15 35  1  0  0  0
 16 21  1  0  0  0
 17 18  1  0  0  0
 17 19  1  0  0  0
 17 36  1  0  0  0
 18 37  1  0  0  0
 19 20  1  0  0  0
 19 21  1  0  0  0
 19 38  1  0  0  0
 20 39  1  0  0  0
 21 22  1  0  0  0
 21 40  1  0  0  0
 22 23  1  0  0  0
 22 31  1  0  0  0
 23 24  2  0  0  0
 23 41  1  0  0  0
 24 25  1  0  0  0
 25 26  2  0  0  0
 25 31  1  0  0  0
 26 27  1  0  0  0
 26 28  1  0  0  0
 27 42  1  0  0  0
 27 43  1  0  0  0
 28 29  2  0  0  0
 29 30  1  0  0  0
 29 44  1  0  0  0
 30 31  2  0  0  0
M  CHG  3   2  -1   7  -1  10  -1
M  END
> <s_m_source_file>
../3hu2_ligand.sdf

> <i_m_source_file_index>
1

> <s_epik_input>
W09IXVtQQEBdKD1PKShbU0hdKU9bUEBdKD1PKShbT0hdKU9bUEBdKD1PKShbT0hdKU9bQ0gyXVtDQEhdMU9bQ0BIXShbQ0BIXShbT0hdKVtDQEBIXTFbT0hdKW4oW2NIXW4yKWMoYzIzKW5bY0hdbmMzW05IMl0=

> <s_epik_cmdline>
J2VwaWtfYXBwJywgJy1pbWFlJywgJ2xpZ2FuZF9wcm8ubWFlJywgJy1vbWFlJywgJ2xpZ2FuZF9wcmVwLm1hZScsICctbXMnLCAnMScsICctcGgnLCAnNycsICctcGh0JywgJzAuNScsICctbnQn

> <r_lp_tautomer_probability>
0.999997216410988

> <r_epik_Ionization_Penalty>
  0.0807

> <r_epik_Ionization_Penalty_Charging>
  0.0005

> <r_epik_Ionization_Penalty_Neutral>
  0.0802

> <r_epik_State_Penalty>
  0.0706

> <r_epik_Charging_Adjusted_Penalty>
0.0710841366671861

> <i_epik_Tot_Q>
-3

> <i_epik_Tot_abs_Q>
3

> <s_epik_Chemistry_Notes>
This compound contains an acetal/aminal-like group ( X-CH(R)-Y where X, Y are N, S, or O) that may be acid/base labile, releasing an aldehyde.

$$$$
