3hu3_ligand
                    3D
 Schrodinger Suite 2020-3.
 44 46  0  0  1  0            999 V2000
   18.1600   52.9450  -12.0610 P   0  0  1  0  0  0
   18.9030   54.0020  -12.8750 O   0  5  0  0  0  0
   17.8770   53.3440  -10.6300 O   0  0  0  0  0  0
   16.2960   52.4140  -12.8180 S   0  0  0  0  0  0
   20.4530   51.1770  -11.5060 P   0  0  2  0  0  0
   20.5460   51.7930  -10.1560 O   0  0  0  0  0  0
   21.4500   51.3230  -12.6080 O   0  5  0  0  0  0
   18.9960   51.5670  -12.1330 O   0  0  0  0  0  0
   20.4810   48.7320  -10.0390 P   0  0  1  0  0  0
   21.9230   48.9850   -9.7220 O   0  0  0  0  0  0
   19.3820   49.1120   -9.0830 O   0  5  0  0  0  0
   20.1350   49.5980  -11.3480 O   0  0  0  0  0  0
   20.3070   47.2640  -10.7010 O   0  0  0  0  0  0
   19.1300   46.4650  -10.5460 C   0  0  0  0  0  0
   19.5690   45.0010  -10.4110 C   0  0  1  0  0  0
   20.0870   44.5150  -11.6660 O   0  0  0  0  0  0
   20.7230   44.8520   -9.4300 C   0  0  1  0  0  0
   20.3310   44.7990   -8.0460 O   0  0  0  0  0  0
   21.4530   43.6300   -9.9180 C   0  0  1  0  0  0
   20.7260   42.4710   -9.4840 O   0  0  0  0  0  0
   21.3070   43.7620  -11.4440 C   0  0  2  0  0  0
   22.4900   44.4450  -12.0220 N   0  0  0  0  0  0
   22.4570   45.6450  -12.6100 C   0  0  0  0  0  0
   23.6820   46.0340  -13.0340 N   0  0  0  0  0  0
   24.5540   45.0630  -12.7170 C   0  0  0  0  0  0
   26.0120   44.8480  -12.8820 C   0  0  0  0  0  0
   26.7970   45.7650  -13.5030 N   0  0  0  0  0  0
   26.5420   43.6990  -12.4070 N   0  0  0  0  0  0
   25.7820   42.7760  -11.7990 C   0  0  0  0  0  0
   24.4610   42.9120  -11.6310 N   0  0  0  0  0  0
   23.7790   44.0130  -12.0550 C   0  0  0  0  0  0
   15.4978   53.1672  -12.8925 H   0  0  0  0  0  0
   18.5862   46.7843   -9.6447 H   0  0  0  0  0  0
   18.4838   46.5892  -11.4275 H   0  0  0  0  0  0
   18.6889   44.4093  -10.1191 H   0  0  0  0  0  0
   21.3673   45.7410   -9.3629 H   0  0  0  0  0  0
   19.7915   45.6446   -7.5944 H   0  0  0  0  0  0
   22.4757   43.5056   -9.5326 H   0  0  0  0  0  0
   20.7065   42.2014   -8.4177 H   0  0  0  0  0  0
   21.2269   42.8035  -11.9777 H   0  0  0  0  0  0
   21.5516   46.2393  -12.7333 H   0  0  0  0  0  0
   26.3561   46.6971  -13.8862 H   0  0  0  0  0  0
   27.8740   45.5760  -13.6231 H   0  0  0  0  0  0
   26.2628   41.8725  -11.4240 H   0  0  0  0  0  0
  1  2  1  0  0  0
  1  3  2  0  0  0
  1  4  1  0  0  0
  1  8  1  0  0  0
  4 32  1  0  0  0
  5  6  2  0  0  0
  5  7  1  0  0  0
  5  8  1  0  0  0
  5 12  1  0  0  0
  9 10  2  0  0  0
  9 11  1  0  0  0
  9 12  1  0  0  0
  9 13  1  0  0  0
 13 14  1  0  0  0
 14 15  1  0  0  0
 14 33  1  0  0  0
 14 34  1  0  0  0
 15 16  1  0  0  0
 15 17  1  0  0  0
 15 35  1  0  0  0
 16 21  1  0  0  0
 17 18  1  0  0  0
 17 19  1  0  0  0
 17 36  1  0  0  0
 18 37  1  0  0  0
 19 20  1  0  0  0
 19 21  1  0  0  0
 19 38  1  0  0  0
 20 39  1  0  0  0
 21 22  1  0  0  0
 21 40  1  0  0  0
 22 23  1  0  0  0
 22 31  1  0  0  0
 23 24  2  0  0  0
 23 41  1  0  0  0
 24 25  1  0  0  0
 25 26  2  0  0  0
 25 31  1  0  0  0
 26 27  1  0  0  0
 26 28  1  0  0  0
 27 42  1  0  0  0
 27 43  1  0  0  0
 28 29  2  0  0  0
 29 30  1  0  0  0
 29 44  1  0  0  0
 30 31  2  0  0  0
M  CHG  3   2  -1   7  -1  11  -1
M  END
> <s_m_source_file>
../3hu3_ligand.sdf

> <i_m_source_file_index>
1

> <s_epik_input>
W09IXVtQQEBdKD1PKShbU0hdKU9bUEBdKD1PKShbT0hdKU9bUEBAXSg9TykoW09IXSlPW0NIMl1bQ0BIXTFPW0NASF0oW0NASF0oW09IXSlbQ0BASF0xW09IXSluKFtjSF1uMiljKGMyMyluW2NIXW5jM1tOSDJd

> <s_epik_cmdline>
J2VwaWtfYXBwJywgJy1pbWFlJywgJ2xpZ2FuZF9wcm8ubWFlJywgJy1vbWFlJywgJ2xpZ2FuZF9wcmVwLm1hZScsICctbXMnLCAnMScsICctcGgnLCAnNycsICctcGh0JywgJzAuNScsICctbnQn

> <r_lp_tautomer_probability>
0.999997216410988

> <r_epik_Ionization_Penalty>
  0.0807

> <r_epik_Ionization_Penalty_Charging>
  0.0005

> <r_epik_Ionization_Penalty_Neutral>
  0.0802

> <r_epik_State_Penalty>
  0.0706

> <r_epik_Charging_Adjusted_Penalty>
0.0710841366671861

> <i_epik_Tot_Q>
-3

> <i_epik_Tot_abs_Q>
3

> <s_epik_Chemistry_Notes>
This compound contains an acetal/aminal-like group ( X-CH(R)-Y where X, Y are N, S, or O) that may be acid/base labile, releasing an aldehyde.

$$$$
