3hub_ligand
                    3D
 Schrodinger Suite 2020-3.
 67 70  0  0  1  0            999 V2000
   23.3340    7.5090  -27.9140 C   0  0  0  0  0  0
   22.7820    8.6990  -27.1480 N   0  0  0  0  0  0
   23.3850   10.0280  -27.3800 C   0  0  0  0  0  0
   21.7490    8.5850  -26.2310 C   0  0  0  0  0  0
   21.3040    9.5420  -25.5950 O   0  0  0  0  0  0
   21.1240    7.1880  -25.8850 C   0  0  0  0  0  0
   21.5210    6.2570  -26.5740 O   0  0  0  0  0  0
   19.9110    6.9160  -24.9880 C   0  0  0  0  0  0
   19.4060    5.6500  -24.7460 C   0  0  0  0  0  0
   19.8400    4.3680  -25.0650 C   0  0  0  0  0  0
   19.0510    7.8340  -24.5030 C   0  0  0  0  0  0
   18.0400    7.1880  -23.9040 N   0  0  0  0  0  0
   16.9630    7.8460  -23.1960 C   0  0  0  0  0  0
   18.2150    5.8560  -24.0230 C   0  0  0  0  0  0
   17.4620    4.7540  -23.6110 C   0  0  0  0  0  0
   17.9070    3.4740  -23.9050 C   0  0  0  0  0  0
   16.9030    2.1580  -23.3790 Cl  0  0  0  0  0  0
   19.0930    3.2870  -24.6360 C   0  0  0  0  0  0
   19.6330    1.8900  -24.9520 C   0  0  0  0  0  0
   19.8200    1.5200  -26.0970 O   0  0  0  0  0  0
   19.9810    1.1290  -23.8830 N   0  0  0  0  0  0
   20.5040   -0.2380  -23.9710 C   0  0  1  0  0  0
   21.6810   -0.2880  -23.0430 C   0  0  0  0  0  0
   19.4290   -1.2350  -23.4520 C   0  0  0  0  0  0
   19.7190    1.6610  -22.4870 C   0  0  0  0  0  0
   20.8870    1.5350  -21.5500 C   0  0  2  0  0  0
   21.9300    2.5430  -22.0670 C   0  0  0  0  0  0
   21.2560    0.1040  -21.6760 N   0  3  2  0  0  0
   22.2790   -0.3190  -20.7460 C   0  0  0  0  0  0
   22.7890   -1.7770  -20.8740 C   0  0  0  0  0  0
   24.0910   -2.0300  -21.3830 C   0  0  0  0  0  0
   24.5500   -3.3550  -21.4390 C   0  0  0  0  0  0
   23.7280   -4.4150  -20.9840 C   0  0  0  0  0  0
   24.1680   -5.7040  -21.0340 F   0  0  0  0  0  0
   22.4350   -4.1580  -20.4980 C   0  0  0  0  0  0
   21.9670   -2.8330  -20.4280 C   0  0  0  0  0  0
   24.1438    7.8444  -28.5786 H   0  0  0  0  0  0
   22.5316    7.0550  -28.5140 H   0  0  0  0  0  0
   23.7263    6.7660  -27.2041 H   0  0  0  0  0  0
   24.1840    9.9420  -28.1311 H   0  0  0  0  0  0
   23.8066   10.4088  -26.4381 H   0  0  0  0  0  0
   22.6132   10.7224  -27.7435 H   0  0  0  0  0  0
   20.7522    4.2183  -25.6426 H   0  0  0  0  0  0
   19.1589    8.9156  -24.5839 H   0  0  0  0  0  0
   17.0859    8.9364  -23.2730 H   0  0  0  0  0  0
   16.9846    7.5484  -22.1372 H   0  0  0  0  0  0
   15.9999    7.5533  -23.6396 H   0  0  0  0  0  0
   16.5314    4.8992  -23.0624 H   0  0  0  0  0  0
   20.7892   -0.4548  -25.0110 H   0  0  0  0  0  0
   22.0866   -1.3102  -23.0201 H   0  0  0  0  0  0
   22.4570    0.4065  -23.3972 H   0  0  0  0  0  0
   18.5557   -1.2133  -24.1204 H   0  0  0  0  0  0
   19.1207   -0.9459  -22.4364 H   0  0  0  0  0  0
   19.8503   -2.2509  -23.4321 H   0  0  0  0  0  0
   19.4648    2.7297  -22.5436 H   0  0  0  0  0  0
   18.8820    1.1085  -22.0351 H   0  0  0  0  0  0
   20.7219    1.7359  -20.4812 H   0  0  0  0  0  0
   21.5529    3.5665  -21.9243 H   0  0  0  0  0  0
   22.1125    2.3654  -23.1371 H   0  0  0  0  0  0
   22.8695    2.4172  -21.5089 H   0  0  0  0  0  0
   20.3293   -0.4250  -21.4089 H   0  0  0  0  0  0
   23.1689    0.3164  -20.8659 H   0  0  0  0  0  0
   21.8997   -0.2284  -19.7175 H   0  0  0  0  0  0
   24.7223   -1.2095  -21.7240 H   0  0  0  0  0  0
   25.5430   -3.5693  -21.8342 H   0  0  0  0  0  0
   21.7973   -4.9815  -20.1766 H   0  0  0  0  0  0
   20.9738   -2.6235  -20.0309 H   0  0  0  0  0  0
  1  2  1  0  0  0
  1 37  1  0  0  0
  1 38  1  0  0  0
  1 39  1  0  0  0
  2  3  1  0  0  0
  2  4  1  0  0  0
  3 40  1  0  0  0
  3 41  1  0  0  0
  3 42  1  0  0  0
  4  5  2  0  0  0
  4  6  1  0  0  0
  6  7  2  0  0  0
  6  8  1  0  0  0
  8  9  1  0  0  0
  8 11  2  0  0  0
  9 10  2  0  0  0
  9 14  1  0  0  0
 10 18  1  0  0  0
 10 43  1  0  0  0
 11 12  1  0  0  0
 11 44  1  0  0  0
 12 13  1  0  0  0
 12 14  1  0  0  0
 13 45  1  0  0  0
 13 46  1  0  0  0
 13 47  1  0  0  0
 14 15  2  0  0  0
 15 16  1  0  0  0
 15 48  1  0  0  0
 16 17  1  0  0  0
 16 18  2  0  0  0
 18 19  1  0  0  0
 19 20  2  0  0  0
 19 21  1  0  0  0
 21 22  1  0  0  0
 21 25  1  0  0  0
 22 23  1  0  0  0
 22 24  1  0  0  0
 22 49  1  0  0  0
 23 28  1  0  0  0
 23 50  1  0  0  0
 23 51  1  0  0  0
 24 52  1  0  0  0
 24 53  1  0  0  0
 24 54  1  0  0  0
 25 26  1  0  0  0
 25 55  1  0  0  0
 25 56  1  0  0  0
 26 27  1  0  0  0
 26 28  1  0  0  0
 26 57  1  0  0  0
 27 58  1  0  0  0
 27 59  1  0  0  0
 27 60  1  0  0  0
 28 29  1  0  0  0
 28 61  1  0  0  0
 29 30  1  0  0  0
 29 62  1  0  0  0
 29 63  1  0  0  0
 30 31  2  0  0  0
 30 36  1  0  0  0
 31 32  1  0  0  0
 31 64  1  0  0  0
 32 33  2  0  0  0
 32 65  1  0  0  0
 33 34  1  0  0  0
 33 35  1  0  0  0
 35 36  2  0  0  0
 35 66  1  0  0  0
 36 67  1  0  0  0
M  CHG  1  28   1
M  END
> <s_m_source_file>
../3hub_ligand.sdf

> <i_m_source_file_index>
1

> <s_epik_input>
W0NIM11OKFtDSDNdKUMoPU8pQyg9TyljMVtjSF1uKFtDSDNdKWMoYzEyKVtjSF1jKENsKWMoW2NIXTIpQyg9TylOM1tDQEhdKFtDSDNdKVtDSDJdW05ASCtdKFtDQEhdKFtDSDJdMylbQ0gzXSlbQ0gyXWM0W2NIXVtjSF1jKEYpW2NIXVtjSF00

> <s_epik_cmdline>
J2VwaWtfYXBwJywgJy1pbWFlJywgJ2xpZ2FuZF9wcm8ubWFlJywgJy1vbWFlJywgJ2xpZ2FuZF9wcmVwLm1hZScsICctbXMnLCAnMScsICctcGgnLCAnNycsICctcGh0JywgJzAuNScsICctbnQn

> <r_epik_Ionization_Penalty>
  0.2113

> <r_epik_Ionization_Penalty_Charging>
  0.2113

> <r_epik_Ionization_Penalty_Neutral>
  0.0000

> <r_epik_State_Penalty>
  0.2014

> <r_epik_Charging_Adjusted_Penalty>
0.412727310087105

> <i_epik_Tot_Q>
1

> <i_epik_Tot_abs_Q>
1

$$$$
