3hv3_ligand
                    3D
 Schrodinger Suite 2020-3.
 70 74  0  0  1  0            999 V2000
   -1.3720   -9.2630  -14.9900 C   0  0  0  0  0  0
   -0.8240   -8.5270  -13.7970 C   0  0  0  0  0  0
   -0.2530   -7.2530  -13.9610 C   0  0  0  0  0  0
   -0.9280   -9.1350  -12.5380 C   0  0  0  0  0  0
   -0.4180   -8.4730  -11.4230 C   0  0  0  0  0  0
    0.1300   -7.1870  -11.5820 C   0  0  0  0  0  0
    0.2230   -6.5620  -12.8270 C   0  0  0  0  0  0
    0.8130   -5.3420  -12.8930 N   0  0  0  0  0  0
    1.8900   -5.0520  -12.3070 N   0  0  0  0  0  0
    2.2050   -3.7500  -12.5710 C   0  0  0  0  0  0
    3.4570   -3.0030  -12.0130 C   0  0  0  0  0  0
    4.4680   -3.9750  -11.3900 C   0  0  0  0  0  0
    4.1840   -2.1340  -13.0660 C   0  0  0  0  0  0
    2.9620   -2.0730  -10.8860 C   0  0  0  0  0  0
    1.2300   -3.2410  -13.3600 C   0  0  0  0  0  0
    0.3300   -4.2660  -13.5560 C   0  0  0  0  0  0
   -0.8250   -4.2850  -14.3110 N   0  0  0  0  0  0
   -1.0730   -3.5830  -15.4760 C   0  0  0  0  0  0
   -0.2320   -2.8430  -15.9750 O   0  0  0  0  0  0
   -2.2930   -3.6750  -16.0410 N   0  0  0  0  0  0
   -2.7290   -3.2280  -17.2380 C   0  0  0  0  0  0
   -1.8360   -3.2950  -18.3230 C   0  0  0  0  0  0
   -2.2080   -2.9410  -19.6470 C   0  0  0  0  0  0
   -4.0440   -2.8750  -17.5060 C   0  0  0  0  0  0
   -4.4340   -2.5410  -18.8350 C   0  0  0  0  0  0
   -3.5370   -2.5600  -19.9070 C   0  0  0  0  0  0
   -3.9430   -2.2400  -21.1870 N   0  0  0  0  0  0
   -3.9750   -1.0100  -21.7130 C   0  0  0  0  0  0
   -4.1680   -0.8320  -23.0880 C   0  0  0  0  0  0
   -4.3520   -1.9320  -23.9470 C   0  0  0  0  0  0
   -4.5560   -1.6980  -25.3140 C   0  0  0  0  0  0
   -4.7240   -2.7260  -26.1680 N   0  0  0  0  0  0
   -4.5770   -0.3950  -25.7990 C   0  0  0  0  0  0
   -4.4150    0.6950  -24.9490 C   0  0  0  0  0  0
   -4.2020    0.4840  -23.5910 C   0  0  0  0  0  0
   -4.0510    1.5620  -22.7920 N   0  3  0  0  0  0
   -3.8540    1.4130  -21.4880 C   0  0  0  0  0  0
   -3.8200    0.1360  -20.9250 C   0  0  0  0  0  0
   -1.2156   -8.6598  -15.8965 H   0  0  0  0  0  0
   -2.4484   -9.4403  -14.8487 H   0  0  0  0  0  0
   -0.8525  -10.2267  -15.0966 H   0  0  0  0  0  0
   -0.1790   -6.8047  -14.9518 H   0  0  0  0  0  0
   -1.4010  -10.1114  -12.4329 H   0  0  0  0  0  0
   -0.4433   -8.9451  -10.4409 H   0  0  0  0  0  0
    0.4953   -6.6593  -10.7010 H   0  0  0  0  0  0
    4.8458   -4.6578  -12.1653 H   0  0  0  0  0  0
    3.9761   -4.5570  -10.5967 H   0  0  0  0  0  0
    5.3068   -3.4068  -10.9615 H   0  0  0  0  0  0
    4.5476   -2.7751  -13.8826 H   0  0  0  0  0  0
    5.0359   -1.6225  -12.5942 H   0  0  0  0  0  0
    3.4854   -1.3865  -13.4700 H   0  0  0  0  0  0
    2.4400   -2.6682  -10.1222 H   0  0  0  0  0  0
    2.2713   -1.3259  -11.3040 H   0  0  0  0  0  0
    3.8218   -1.5619  -10.4283 H   0  0  0  0  0  0
    1.1692   -2.2283  -13.7585 H   0  0  0  0  0  0
   -1.6754   -4.9095  -13.9997 H   0  0  0  0  0  0
   -3.1110   -4.1781  -15.5046 H   0  0  0  0  0  0
   -0.8160   -3.6327  -18.1398 H   0  0  0  0  0  0
   -1.4731   -2.9642  -20.4516 H   0  0  0  0  0  0
   -4.7779   -2.8533  -16.7004 H   0  0  0  0  0  0
   -5.4703   -2.2602  -19.0229 H   0  0  0  0  0  0
   -4.2786   -3.0327  -21.8719 H   0  0  0  0  0  0
   -4.3361   -2.9492  -23.5555 H   0  0  0  0  0  0
   -4.7089   -3.7602  -25.7935 H   0  0  0  0  0  0
   -4.8763   -2.5313  -27.2399 H   0  0  0  0  0  0
   -4.7232   -0.2240  -26.8655 H   0  0  0  0  0  0
   -4.4549    1.7094  -25.3458 H   0  0  0  0  0  0
   -3.7184    2.2899  -20.8550 H   0  0  0  0  0  0
   -3.6698    0.0295  -19.8507 H   0  0  0  0  0  0
   -4.0908    2.5742  -23.2207 H   0  0  0  0  0  0
  1  2  1  0  0  0
  1 39  1  0  0  0
  1 40  1  0  0  0
  1 41  1  0  0  0
  2  3  2  0  0  0
  2  4  1  0  0  0
  3  7  1  0  0  0
  3 42  1  0  0  0
  4  5  2  0  0  0
  4 43  1  0  0  0
  5  6  1  0  0  0
  5 44  1  0  0  0
  6  7  2  0  0  0
  6 45  1  0  0  0
  7  8  1  0  0  0
  8  9  1  0  0  0
  8 16  1  0  0  0
  9 10  2  0  0  0
 10 11  1  0  0  0
 10 15  1  0  0  0
 11 12  1  0  0  0
 11 13  1  0  0  0
 11 14  1  0  0  0
 12 46  1  0  0  0
 12 47  1  0  0  0
 12 48  1  0  0  0
 13 49  1  0  0  0
 13 50  1  0  0  0
 13 51  1  0  0  0
 14 52  1  0  0  0
 14 53  1  0  0  0
 14 54  1  0  0  0
 15 16  2  0  0  0
 15 55  1  0  0  0
 16 17  1  0  0  0
 17 18  1  0  0  0
 17 56  1  0  0  0
 18 19  2  0  0  0
 18 20  1  0  0  0
 20 21  1  0  0  0
 20 57  1  0  0  0
 21 22  2  0  0  0
 21 24  1  0  0  0
 22 23  1  0  0  0
 22 58  1  0  0  0
 23 26  2  0  0  0
 23 59  1  0  0  0
 24 25  2  0  0  0
 24 60  1  0  0  0
 25 26  1  0  0  0
 25 61  1  0  0  0
 26 27  1  0  0  0
 27 28  1  0  0  0
 27 62  1  0  0  0
 28 29  2  0  0  0
 28 38  1  0  0  0
 29 30  1  0  0  0
 29 35  1  0  0  0
 30 31  2  0  0  0
 30 63  1  0  0  0
 31 32  1  0  0  0
 31 33  1  0  0  0
 32 64  1  0  0  0
 32 65  1  0  0  0
 33 34  2  0  0  0
 33 66  1  0  0  0
 34 35  1  0  0  0
 34 67  1  0  0  0
 35 36  2  0  0  0
 36 37  1  0  0  0
 36 70  1  0  0  0
 37 38  2  0  0  0
 37 68  1  0  0  0
 38 69  1  0  0  0
M  CHG  1  36   1
M  END
> <s_m_source_file>
../3hv3_ligand.sdf

> <i_m_source_file_index>
1

> <s_epik_input>
W0NIM11jMVtjSF1jKFtjSF1bY0hdW2NIXTEpLW4ybmMoQyhbQ0gzXSkoW0NIM10pW0NIM10pW2NIXWMyW05IXUMoPU8pW05IXWMzW2NIXVtjSF1jKFtjSF1bY0hdMylbTkhdYzRbY0hdW2NIXW5jKGM0NSlbY0hdW2NIXWMoW2NIXTUpW05IMl0=

> <s_epik_cmdline>
J2VwaWtfYXBwJywgJy1pbWFlJywgJ2xpZ2FuZF9wcm8ubWFlJywgJy1vbWFlJywgJ2xpZ2FuZF9wcmVwLm1hZScsICctbXMnLCAnMScsICctcGgnLCAnNycsICctcGh0JywgJzAuNScsICctbnQn

> <r_lp_tautomer_probability>
1

> <r_epik_Ionization_Penalty>
  0.0632

> <r_epik_Ionization_Penalty_Charging>
  0.0631

> <r_epik_Ionization_Penalty_Neutral>
  0.0001

> <r_epik_State_Penalty>
  0.0549

> <r_epik_Charging_Adjusted_Penalty>
0.118026557246361

> <i_epik_Tot_Q>
1

> <i_epik_Tot_abs_Q>
1

$$$$
