3hv6_ligand
                    3D
 Schrodinger Suite 2020-3.
 70 73  0  0  1  0            999 V2000
   -2.0120    1.4640  -23.8270 C   0  0  0  0  0  0
   -2.5000    2.9230  -23.8370 C   0  0  0  0  0  0
   -1.8250    3.6180  -22.7580 O   0  0  0  0  0  0
   -1.9950    3.0320  -21.4490 C   0  0  0  0  0  0
   -2.8370    1.7390  -21.4820 C   0  0  0  0  0  0
   -2.3710    0.8140  -22.5430 N   0  0  0  0  0  0
   -3.3900   -0.1850  -22.8440 C   0  0  0  0  0  0
   -3.1890   -1.3750  -21.9200 C   0  0  0  0  0  0
   -3.8340   -0.9690  -20.6960 O   0  0  0  0  0  0
   -3.3700   -1.6020  -19.5830 C   0  0  0  0  0  0
   -3.8830   -1.1840  -18.3690 C   0  0  0  0  0  0
   -3.4720   -1.7640  -17.1720 C   0  0  0  0  0  0
   -2.4360   -2.6340  -19.6090 C   0  0  0  0  0  0
   -2.0430   -3.2130  -18.4010 C   0  0  0  0  0  0
   -2.5560   -2.7840  -17.1760 C   0  0  0  0  0  0
   -2.1420   -3.3900  -16.0330 N   0  0  0  0  0  0
   -0.9300   -3.2360  -15.5310 C   0  0  0  0  0  0
   -0.1320   -2.4430  -16.0430 O   0  0  0  0  0  0
   -0.6370   -3.9280  -14.4110 N   0  0  0  0  0  0
    0.5380   -3.8750  -13.7500 C   0  0  0  0  0  0
    1.3860   -2.8170  -13.5950 C   0  0  0  0  0  0
    2.3730   -3.2910  -12.8130 C   0  0  0  0  0  0
    3.6330   -2.5570  -12.3120 C   0  0  0  0  0  0
    4.6380   -3.5080  -11.6490 C   0  0  0  0  0  0
    4.3450   -1.8880  -13.4730 C   0  0  0  0  0  0
    3.2070   -1.5190  -11.2450 C   0  0  0  0  0  0
    2.1160   -4.5740  -12.5110 N   0  0  0  0  0  0
    1.0390   -4.9030  -13.0540 N   0  0  0  0  0  0
    0.4970   -6.1460  -12.9340 C   0  0  0  0  0  0
    0.0220   -6.8360  -14.0530 C   0  0  0  0  0  0
   -0.5060   -8.1380  -13.9150 C   0  0  0  0  0  0
   -0.5560   -8.7220  -12.6410 C   0  0  0  0  0  0
   -1.1240  -10.1370  -12.4780 C   0  0  0  0  0  0
   -0.0720   -8.0510  -11.5060 C   0  0  0  0  0  0
    0.4600   -6.7570  -11.6530 C   0  0  0  0  0  0
   -2.4843    0.9137  -24.6541 H   0  0  0  0  0  0
   -0.9190    1.4421  -23.9490 H   0  0  0  0  0  0
   -2.2539    3.3853  -24.8043 H   0  0  0  0  0  0
   -3.5894    2.9463  -23.6861 H   0  0  0  0  0  0
   -1.0098    2.7826  -21.0282 H   0  0  0  0  0  0
   -2.5044    3.7498  -20.7893 H   0  0  0  0  0  0
   -2.7578    1.2250  -20.5127 H   0  0  0  0  0  0
   -3.8895    1.9917  -21.6781 H   0  0  0  0  0  0
   -4.3879    0.2494  -22.6840 H   0  0  0  0  0  0
   -3.2926   -0.5038  -23.8923 H   0  0  0  0  0  0
   -3.6577   -2.2663  -22.3628 H   0  0  0  0  0  0
   -2.1125   -1.5560  -21.7841 H   0  0  0  0  0  0
   -4.6238   -0.3847  -18.3487 H   0  0  0  0  0  0
   -3.8804   -1.4054  -16.2272 H   0  0  0  0  0  0
   -2.0197   -2.9831  -20.5540 H   0  0  0  0  0  0
   -1.3144   -4.0236  -18.4150 H   0  0  0  0  0  0
   -2.8290   -4.0461  -15.4784 H   0  0  0  0  0  0
   -1.3865   -4.6002  -13.9679 H   0  0  0  0  0  0
    1.2862   -1.8144  -14.0108 H   0  0  0  0  0  0
    4.9650   -4.2629  -12.3791 H   0  0  0  0  0  0
    4.1603   -4.0080  -10.7936 H   0  0  0  0  0  0
    5.5092   -2.9348  -11.2990 H   0  0  0  0  0  0
    4.6347   -2.6487  -14.2129 H   0  0  0  0  0  0
    5.2448   -1.3738  -13.1041 H   0  0  0  0  0  0
    3.6716   -1.1565  -13.9436 H   0  0  0  0  0  0
    2.6947   -2.0324  -10.4180 H   0  0  0  0  0  0
    2.5253   -0.7849  -11.6993 H   0  0  0  0  0  0
    4.0984   -1.0023  -10.8598 H   0  0  0  0  0  0
    0.0594   -6.3669  -15.0362 H   0  0  0  0  0  0
   -0.8698   -8.6819  -14.7867 H   0  0  0  0  0  0
   -1.4562  -10.5137  -13.4566 H   0  0  0  0  0  0
   -1.9784  -10.1116  -11.7856 H   0  0  0  0  0  0
   -0.3449  -10.8006  -12.0748 H   0  0  0  0  0  0
   -0.1081   -8.5259  -10.5256 H   0  0  0  0  0  0
    0.8438   -6.2235  -10.7834 H   0  0  0  0  0  0
  1  2  1  0  0  0
  1  6  1  0  0  0
  1 36  1  0  0  0
  1 37  1  0  0  0
  2  3  1  0  0  0
  2 38  1  0  0  0
  2 39  1  0  0  0
  3  4  1  0  0  0
  4  5  1  0  0  0
  4 40  1  0  0  0
  4 41  1  0  0  0
  5  6  1  0  0  0
  5 42  1  0  0  0
  5 43  1  0  0  0
  6  7  1  0  0  0
  7  8  1  0  0  0
  7 44  1  0  0  0
  7 45  1  0  0  0
  8  9  1  0  0  0
  8 46  1  0  0  0
  8 47  1  0  0  0
  9 10  1  0  0  0
 10 11  2  0  0  0
 10 13  1  0  0  0
 11 12  1  0  0  0
 11 48  1  0  0  0
 12 15  2  0  0  0
 12 49  1  0  0  0
 13 14  2  0  0  0
 13 50  1  0  0  0
 14 15  1  0  0  0
 14 51  1  0  0  0
 15 16  1  0  0  0
 16 17  1  0  0  0
 16 52  1  0  0  0
 17 18  2  0  0  0
 17 19  1  0  0  0
 19 20  1  0  0  0
 19 53  1  0  0  0
 20 21  2  0  0  0
 20 28  1  0  0  0
 21 22  1  0  0  0
 21 54  1  0  0  0
 22 23  1  0  0  0
 22 27  2  0  0  0
 23 24  1  0  0  0
 23 25  1  0  0  0
 23 26  1  0  0  0
 24 55  1  0  0  0
 24 56  1  0  0  0
 24 57  1  0  0  0
 25 58  1  0  0  0
 25 59  1  0  0  0
 25 60  1  0  0  0
 26 61  1  0  0  0
 26 62  1  0  0  0
 26 63  1  0  0  0
 27 28  1  0  0  0
 28 29  1  0  0  0
 29 30  2  0  0  0
 29 35  1  0  0  0
 30 31  1  0  0  0
 30 64  1  0  0  0
 31 32  2  0  0  0
 31 65  1  0  0  0
 32 33  1  0  0  0
 32 34  1  0  0  0
 33 66  1  0  0  0
 33 67  1  0  0  0
 33 68  1  0  0  0
 34 35  2  0  0  0
 34 69  1  0  0  0
 35 70  1  0  0  0
M  END
> <s_m_source_file>
../3hv6_ligand.sdf

> <i_m_source_file_index>
1

> <s_epik_input>
W0NIMl0xW0NIMl1PW0NIMl1bQ0gyXVtOSCtdMVtDSDJdW0NIMl1PYzJbY0hdW2NIXWMoW2NIXVtjSF0yKVtOSF1DKD1PKVtOSF1jM1tjSF1jKEMoW0NIM10pKFtDSDNdKVtDSDNdKW5uMy1jNFtjSF1bY0hdYyhbQ0gzXSlbY0hdW2NIXTQ=

> <s_epik_cmdline>
J2VwaWtfYXBwJywgJy1pbWFlJywgJ2xpZ2FuZF9wcm8ubWFlJywgJy1vbWFlJywgJ2xpZ2FuZF9wcmVwLm1hZScsICctbXMnLCAnMScsICctcGgnLCAnNycsICctcGh0JywgJzAuNScsICctbnQn

> <r_lp_tautomer_probability>
1

> <r_epik_Ionization_Penalty>
  0.0642

> <r_epik_Ionization_Penalty_Charging>
  0.0000

> <r_epik_Ionization_Penalty_Neutral>
  0.0642

> <r_epik_State_Penalty>
  0.0558

> <r_epik_Charging_Adjusted_Penalty>
0.0558297731723035

> <i_epik_Tot_Q>
0

> <i_epik_Tot_abs_Q>
0

$$$$
