3hv8_ligand
                    3D
 Schrodinger Suite 2020-3.
 67 73  0  0  1  0            999 V2000
  -27.6550   -1.4580  -15.2170 P   0  0  1  0  0  0
  -28.5730   -0.3880  -14.4650 O   0  5  0  0  0  0
  -27.9830   -1.3500  -16.6530 O   0  0  0  0  0  0
  -26.0930   -1.1470  -15.1600 O   0  0  0  0  0  0
  -25.5750   -0.1740  -16.0880 C   0  0  0  0  0  0
  -24.9600   -0.7960  -17.3600 C   0  0  1  0  0  0
  -24.4100    0.2680  -18.1740 O   0  0  0  0  0  0
  -23.7610   -1.6060  -16.8840 C   0  0  1  0  0  0
  -23.6360   -2.7860  -17.6920 O   0  0  0  0  0  0
  -22.5620   -0.6400  -17.0340 C   0  0  1  0  0  0
  -21.3320   -1.2950  -17.2810 O   0  0  0  0  0  0
  -22.9960    0.1650  -18.2590 C   0  0  2  0  0  0
  -22.4350    1.5050  -18.3410 N   0  0  0  0  0  0
  -21.8560    2.2310  -17.3270 C   0  0  0  0  0  0
  -21.6340    3.4590  -17.7370 N   0  0  0  0  0  0
  -22.0410    3.5650  -19.0360 C   0  0  0  0  0  0
  -22.0380    4.6210  -19.9750 C   0  0  0  0  0  0
  -21.6550    5.7600  -19.7010 O   0  0  0  0  0  0
  -22.5100    4.3400  -21.1980 N   0  3  0  0  0  0
  -22.9690    3.1030  -21.5290 C   0  0  0  0  0  0
  -23.4410    2.8950  -22.7990 N   0  0  0  0  0  0
  -22.9780    2.1130  -20.6670 N   0  0  0  0  0  0
  -22.5320    2.3200  -19.4270 C   0  0  0  0  0  0
  -23.3530   -4.1700  -16.9210 P   0  0  1  0  0  0
  -23.1800   -5.2930  -18.0100 O   0  5  0  0  0  0
  -22.2310   -4.0300  -15.9710 O   0  0  0  0  0  0
  -24.6600   -4.4130  -16.0560 O   0  0  0  0  0  0
  -25.9140   -4.5930  -16.7280 C   0  0  0  0  0  0
  -27.0060   -4.9780  -15.7330 C   0  0  1  0  0  0
  -26.6530   -6.2170  -15.1000 O   0  0  0  0  0  0
  -27.1990   -3.9900  -14.5810 C   0  0  1  0  0  0
  -28.1030   -2.9400  -14.9020 O   0  0  0  0  0  0
  -27.8830   -4.8890  -13.5490 C   0  0  1  0  0  0
  -29.2610   -5.0980  -13.9040 O   0  0  0  0  0  0
  -27.1730   -6.2270  -13.7860 C   0  0  2  0  0  0
  -26.0670   -6.3450  -12.8440 N   0  0  0  0  0  0
  -24.7720   -5.9360  -12.9910 C   0  0  0  0  0  0
  -24.1150   -6.2410  -11.9060 N   0  0  0  0  0  0
  -24.9320   -6.9190  -11.0450 C   0  0  0  0  0  0
  -24.7910   -7.5190   -9.7770 C   0  0  0  0  0  0
  -23.7610   -7.4320   -9.0970 O   0  0  0  0  0  0
  -25.9020   -8.1230   -9.2800 N   0  0  0  0  0  0
  -27.0940   -8.1670   -9.9510 C   0  0  0  0  0  0
  -28.1740   -8.7580   -9.3590 N   0  0  0  0  0  0
  -27.2490   -7.5930  -11.1150 N   0  0  0  0  0  0
  -26.1870   -6.9940  -11.6660 C   0  0  0  0  0  0
  -26.3872    0.4943  -16.4100 H   0  0  0  0  0  0
  -24.7868    0.4166  -15.5982 H   0  0  0  0  0  0
  -25.6893   -1.3594  -17.9607 H   0  0  0  0  0  0
  -23.8493   -2.0268  -15.8715 H   0  0  0  0  0  0
  -22.2858   -0.0807  -16.1279 H   0  0  0  0  0  0
  -20.8752   -1.9201  -16.4997 H   0  0  0  0  0  0
  -22.6772   -0.3204  -19.1932 H   0  0  0  0  0  0
  -21.6178    1.8466  -16.3352 H   0  0  0  0  0  0
  -23.4377    3.7181  -23.5287 H   0  0  0  0  0  0
  -26.2006   -3.6554  -17.2267 H   0  0  0  0  0  0
  -25.8169   -5.3922  -17.4776 H   0  0  0  0  0  0
  -27.9325   -5.0772  -16.3176 H   0  0  0  0  0  0
  -26.2886   -3.4438  -14.2932 H   0  0  0  0  0  0
  -27.8931   -4.4814  -12.5274 H   0  0  0  0  0  0
  -29.9824   -4.2721  -13.8182 H   0  0  0  0  0  0
  -27.8275   -7.1058  -13.6895 H   0  0  0  0  0  0
  -24.3572   -5.4384  -13.8676 H   0  0  0  0  0  0
  -28.0872   -9.1609   -8.4260 H   0  0  0  0  0  0
  -28.2305   -7.6121  -11.6113 H   0  0  0  0  0  0
  -23.8231    1.9049  -23.0885 H   0  0  0  0  0  0
  -22.5345    5.1221  -21.9711 H   0  0  0  0  0  0
  1  2  1  0  0  0
  1  3  2  0  0  0
  1  4  1  0  0  0
  1 32  1  0  0  0
  4  5  1  0  0  0
  5  6  1  0  0  0
  5 47  1  0  0  0
  5 48  1  0  0  0
  6  7  1  0  0  0
  6  8  1  0  0  0
  6 49  1  0  0  0
  7 12  1  0  0  0
  8  9  1  0  0  0
  8 10  1  0  0  0
  8 50  1  0  0  0
  9 24  1  0  0  0
 10 11  1  0  0  0
 10 12  1  0  0  0
 10 51  1  0  0  0
 11 52  1  0  0  0
 12 13  1  0  0  0
 12 53  1  0  0  0
 13 14  1  0  0  0
 13 23  1  0  0  0
 14 15  2  0  0  0
 14 54  1  0  0  0
 15 16  1  0  0  0
 16 17  1  0  0  0
 16 23  2  0  0  0
 17 18  2  0  0  0
 17 19  1  0  0  0
 19 20  1  0  0  0
 19 67  1  0  0  0
 20 21  1  0  0  0
 20 22  2  0  0  0
 21 55  1  0  0  0
 21 66  1  0  0  0
 22 23  1  0  0  0
 24 25  1  0  0  0
 24 26  2  0  0  0
 24 27  1  0  0  0
 27 28  1  0  0  0
 28 29  1  0  0  0
 28 56  1  0  0  0
 28 57  1  0  0  0
 29 30  1  0  0  0
 29 31  1  0  0  0
 29 58  1  0  0  0
 30 35  1  0  0  0
 31 32  1  0  0  0
 31 33  1  0  0  0
 31 59  1  0  0  0
 33 34  1  0  0  0
 33 35  1  0  0  0
 33 60  1  0  0  0
 34 61  1  0  0  0
 35 36  1  0  0  0
 35 62  1  0  0  0
 36 37  1  0  0  0
 36 46  1  0  0  0
 37 38  2  0  0  0
 37 63  1  0  0  0
 38 39  1  0  0  0
 39 40  1  0  0  0
 39 46  2  0  0  0
 40 41  2  0  0  0
 40 42  1  0  0  0
 42 43  1  0  0  0
 43 44  2  0  0  0
 43 45  1  0  0  0
 44 64  1  0  0  0
 45 46  1  0  0  0
 45 65  1  0  0  0
M  CHG  3   2  -1  19   1  25  -1
M  END
> <s_m_source_file>
../3hv8_ligand.sdf

> <i_m_source_file_index>
1

> <s_epik_input>
Tz1jMVtuSF0vYyg9TlxbSF0pW25IXWMoYzEyKW4oW2NIXW4yKVtDQEhdKE8zKVtDQEhdKFtPSF0pW0NASF0oT1tQQEBdKD1PKShbT0hdKU9bQ0gyXTQpW0NASF0zW0NIMl1PW1BAQF0oPU8pKFtPSF0pT1tDQEhdKFtDQEBIXTQ1KVtDQEBIXShbT0hdKVtDQEBIXShPNSluKFtjSF1uNiljKGM2NylbbkhdYyg9TlxbSF0pXFtuSF1jNz1P

> <s_epik_cmdline>
J2VwaWtfYXBwJywgJy1pbWFlJywgJ2xpZ2FuZF9wcm8ubWFlJywgJy1vbWFlJywgJ2xpZ2FuZF9wcmVwLm1hZScsICctbXMnLCAnMScsICctcGgnLCAnNycsICctcGh0JywgJzAuNScsICctbnQn

> <r_epik_Ionization_Penalty>
  3.2341

> <r_epik_Ionization_Penalty_Charging>
  3.2333

> <r_epik_Ionization_Penalty_Neutral>
  0.0007

> <r_epik_State_Penalty>
  0.2212

> <r_epik_Charging_Adjusted_Penalty>
3.45456703105301

> <i_epik_Tot_Q>
-1

> <i_epik_Tot_abs_Q>
3

> <s_epik_Chemistry_Notes>
This compound has an imine and may undergo hydrolysis. This compound contains an acetal/aminal-like group ( X-CH(R)-Y where X, Y are N, S, or O) that may be acid/base labile, releasing an aldehyde.

$$$$
