3hvc_ligand
                    3D
 Schrodinger Suite 2020-3.
 29 31  0  0  1  0            999 V2000
   -3.3020   40.0520   15.6620 C   0  0  0  0  0  0
   -3.1500   41.0850   16.5710 N   0  3  0  0  0  0
   -2.8580   40.7750   17.8920 C   0  0  0  0  0  0
   -2.7000   39.3370   18.3600 C   0  0  0  0  0  0
   -2.8680   38.2750   17.3730 C   0  0  0  0  0  0
   -3.1750   38.6660   16.0010 C   0  0  0  0  0  0
   -2.7270   36.8210   17.7660 C   0  0  0  0  0  0
   -2.0110   35.8860   17.0070 C   0  0  0  0  0  0
   -2.1050   34.7180   17.6560 N   0  3  0  0  0  0
   -2.8270   34.8180   18.7800 N   0  0  0  0  0  0
   -3.2260   36.0750   18.8900 C   0  0  0  0  0  0
   -4.0780   36.5300   20.0860 C   0  0  0  0  0  0
   -3.5970   36.2530   21.4130 C   0  0  0  0  0  0
   -4.3370   36.6620   22.5630 C   0  0  0  0  0  0
   -5.5830   37.3620   22.3940 C   0  0  0  0  0  0
   -6.0850   37.6450   21.0910 C   0  0  0  0  0  0
   -5.3420   37.2350   19.9410 C   0  0  0  0  0  0
   -6.2570   37.7450   23.4600 F   0  0  0  0  0  0
   -3.5318   40.3083   14.6278 H   0  0  0  0  0  0
   -2.7388   41.5838   18.6130 H   0  0  0  0  0  0
   -2.4685   39.1065   19.3999 H   0  0  0  0  0  0
   -3.3077   37.9031   15.2338 H   0  0  0  0  0  0
   -1.5163   36.1972   16.0751 H   0  0  0  0  0  0
   -2.6534   35.7229   21.5423 H   0  0  0  0  0  0
   -3.9608   36.4455   23.5628 H   0  0  0  0  0  0
   -7.0317   38.1720   20.9717 H   0  0  0  0  0  0
   -5.7266   37.4529   18.9447 H   0  0  0  0  0  0
   -1.6704   33.7501   17.3658 H   0  0  0  0  0  0
   -3.2608   42.1285   16.2413 H   0  0  0  0  0  0
  1  2  2  0  0  0
  1  6  1  0  0  0
  1 19  1  0  0  0
  2  3  1  0  0  0
  2 29  1  0  0  0
  3  4  2  0  0  0
  3 20  1  0  0  0
  4  5  1  0  0  0
  4 21  1  0  0  0
  5  6  2  0  0  0
  5  7  1  0  0  0
  6 22  1  0  0  0
  7  8  2  0  0  0
  7 11  1  0  0  0
  8  9  1  0  0  0
  8 23  1  0  0  0
  9 10  1  0  0  0
  9 28  1  0  0  0
 10 11  2  0  0  0
 11 12  1  0  0  0
 12 13  2  0  0  0
 12 17  1  0  0  0
 13 14  1  0  0  0
 13 24  1  0  0  0
 14 15  2  0  0  0
 14 25  1  0  0  0
 15 16  1  0  0  0
 15 18  1  0  0  0
 16 17  2  0  0  0
 16 26  1  0  0  0
 17 27  1  0  0  0
M  CHG  2   2   1   9   1
M  END
> <s_m_source_file>
../3hvc_ligand.sdf

> <i_m_source_file_index>
1

> <s_epik_input>
W2NIXTFbY0hdbltjSF1bY0hdYzEtYzJbY0hdW25IXW5jMi1jM1tjSF1bY0hdYyhGKVtjSF1bY0hdMw==

> <s_epik_cmdline>
J2VwaWtfYXBwJywgJy1pbWFlJywgJ2xpZ2FuZF9wcm8ubWFlJywgJy1vbWFlJywgJ2xpZ2FuZF9wcmVwLm1hZScsICctbXMnLCAnMScsICctcGgnLCAnNycsICctcGh0JywgJzAuNScsICctbnQn

> <r_epik_Ionization_Penalty>
  0.2603

> <r_epik_Ionization_Penalty_Charging>
  0.2603

> <r_epik_Ionization_Penalty_Neutral>
  0.0000

> <r_epik_State_Penalty>
  0.3518

> <r_epik_Charging_Adjusted_Penalty>
0.612118428372837

> <i_epik_Tot_Q>
2

> <i_epik_Tot_abs_Q>
2

> <s_epik_Chemistry_Notes>
This compound has an imine and may undergo hydrolysis.

$$$$
