3hvh_ligand
                    3D
 Schrodinger Suite 2020-3.
 64 68  0  0  1  0            999 V2000
    0.4200    7.1920   17.8970 F   0  0  0  0  0  0
    0.4370    8.3950   17.2250 C   0  0  0  0  0  0
   -0.4320    9.3530   17.6260 C   0  0  0  0  0  0
   -0.4210   10.5620   16.9540 C   0  0  0  0  0  0
    1.3680    8.5560   16.2460 C   0  0  0  0  0  0
    1.3730    9.8150   15.5940 C   0  0  0  0  0  0
    0.5040   10.8360   15.9690 C   0  0  0  0  0  0
    0.5080   12.1470   15.3060 C   0  0  0  0  0  0
   -0.7000   12.8170   15.0070 C   0  0  0  0  0  0
    1.7410   12.6700   14.8020 C   0  0  0  0  0  0
    1.7470   13.9030   14.1440 C   0  0  0  0  0  0
    2.9330   14.4370   13.6730 O   0  0  0  0  0  0
    0.5420   14.5840   13.8960 C   0  0  0  0  0  0
    0.6520   15.7280   13.1470 O   0  0  0  0  0  0
   -0.7000   14.0760   14.3560 C   0  0  0  0  0  0
   -1.9750   14.7040   14.1600 C   0  0  0  0  0  0
   -3.0450   14.1430   14.3680 O   0  0  0  0  0  0
   -1.9440   16.0300   13.8330 N   0  0  0  0  0  0
   -3.1650   16.7910   13.7320 C   0  0  0  0  0  0
   -2.8120   18.2320   13.8430 C   0  0  0  0  0  0
   -3.6030   19.1310   14.3940 C   0  0  0  0  0  0
   -3.2560   20.5670   14.5080 C   0  0  2  0  0  0
   -3.8830   21.1510   15.7700 C   0  0  1  0  0  0
   -3.1280   22.2950   16.2230 O   0  0  0  0  0  0
   -5.2430   21.5670   15.2120 C   0  0  1  0  0  0
   -5.9560   22.5370   15.9990 O   0  0  0  0  0  0
   -3.7730   21.3600   13.4000 O   0  0  0  0  0  0
   -4.9240   22.1330   13.8660 C   0  0  1  0  0  0
   -5.9530   21.9470   12.8430 N   0  0  0  0  0  0
   -6.5730   20.7570   12.4980 C   0  0  0  0  0  0
   -6.3580   22.8760   11.9140 C   0  0  0  0  0  0
   -6.0040   24.1750   11.8440 N   0  0  0  0  0  0
   -6.5530   24.8070   10.8150 C   0  0  0  0  0  0
   -7.4130   24.2760    9.9260 N   0  0  0  0  0  0
   -7.7600   23.0150   10.0500 C   0  0  0  0  0  0
   -7.2250   22.2190   11.0710 C   0  0  0  0  0  0
   -7.3260   20.8860   11.4400 N   0  0  0  0  0  0
   -8.6530   22.5580    9.0920 N   0  0  0  0  0  0
   -9.1370   21.1810    9.0910 C   0  0  0  0  0  0
   -1.1194    9.1768   18.4533 H   0  0  0  0  0  0
   -1.1633   11.3181   17.2100 H   0  0  0  0  0  0
    2.0681    7.7644   15.9789 H   0  0  0  0  0  0
    2.0751    9.9879   14.7784 H   0  0  0  0  0  0
   -1.6491   12.3570   15.2821 H   0  0  0  0  0  0
    2.6680   12.1112   14.9303 H   0  0  0  0  0  0
    3.8834   13.9154   13.8594 H   0  0  0  0  0  0
    1.6418   16.0762   12.8169 H   0  0  0  0  0  0
   -0.9755   16.5168   13.6460 H   0  0  0  0  0  0
   -3.6441   16.5886   12.7627 H   0  0  0  0  0  0
   -3.8463   16.5008   14.5454 H   0  0  0  0  0  0
   -1.8356   18.5340   13.4363 H   0  0  0  0  0  0
   -4.5798   18.8292   14.8000 H   0  0  0  0  0  0
   -2.1573   20.6105   14.4785 H   0  0  0  0  0  0
   -3.8974   20.5119   16.6652 H   0  0  0  0  0  0
   -2.1247   22.1569   16.6522 H   0  0  0  0  0  0
   -5.9614   20.7340   15.2127 H   0  0  0  0  0  0
   -6.2726   22.2891   17.0229 H   0  0  0  0  0  0
   -4.7837   23.2192   13.9679 H   0  0  0  0  0  0
   -6.4467   19.8231   13.0457 H   0  0  0  0  0  0
   -6.2825   25.8538   10.6765 H   0  0  0  0  0  0
   -8.9963   23.2622    8.3199 H   0  0  0  0  0  0
   -9.8309   21.0369    8.2497 H   0  0  0  0  0  0
   -9.6596   20.9754   10.0368 H   0  0  0  0  0  0
   -8.2852   20.4930    8.9857 H   0  0  0  0  0  0
  1  2  1  0  0  0
  2  3  2  0  0  0
  2  5  1  0  0  0
  3  4  1  0  0  0
  3 40  1  0  0  0
  4  7  2  0  0  0
  4 41  1  0  0  0
  5  6  2  0  0  0
  5 42  1  0  0  0
  6  7  1  0  0  0
  6 43  1  0  0  0
  7  8  1  0  0  0
  8  9  2  0  0  0
  8 10  1  0  0  0
  9 15  1  0  0  0
  9 44  1  0  0  0
 10 11  2  0  0  0
 10 45  1  0  0  0
 11 12  1  0  0  0
 11 13  1  0  0  0
 12 46  1  0  0  0
 13 14  1  0  0  0
 13 15  2  0  0  0
 14 47  1  0  0  0
 15 16  1  0  0  0
 16 17  2  0  0  0
 16 18  1  0  0  0
 18 19  1  0  0  0
 18 48  1  0  0  0
 19 20  1  0  0  0
 19 49  1  0  0  0
 19 50  1  0  0  0
 20 21  2  0  0  0
 20 51  1  0  0  0
 21 22  1  0  0  0
 21 52  1  0  0  0
 22 23  1  0  0  0
 22 27  1  0  0  0
 22 53  1  0  0  0
 23 24  1  0  0  0
 23 25  1  0  0  0
 23 54  1  0  0  0
 24 55  1  0  0  0
 25 26  1  0  0  0
 25 28  1  0  0  0
 25 56  1  0  0  0
 26 57  1  0  0  0
 27 28  1  0  0  0
 28 29  1  0  0  0
 28 58  1  0  0  0
 29 30  1  0  0  0
 29 31  1  0  0  0
 30 37  2  0  0  0
 30 59  1  0  0  0
 31 32  1  0  0  0
 31 36  2  0  0  0
 32 33  2  0  0  0
 33 34  1  0  0  0
 33 60  1  0  0  0
 34 35  2  0  0  0
 35 36  1  0  0  0
 35 38  1  0  0  0
 36 37  1  0  0  0
 38 39  1  0  0  0
 38 61  1  0  0  0
 39 62  1  0  0  0
 39 63  1  0  0  0
 39 64  1  0  0  0
M  END
> <s_m_source_file>
../3hvh_ligand.sdf

> <i_m_source_file_index>
1

> <s_epik_input>
RmMxW2NIXVtjSF1jKFtjSF1bY0hdMSktYzJbY0hdYyhjKFtPSF0pYyhbY0hdMilbT0hdKUMoPU8pW05IXVtDSDJdL1tDSF09W0NIXS9bQ0BASF0zW0NAQEhdKFtPSF0pW0NAQEhdKFtPSF0pW0NAQEhdKE8zKW40W2NIXW5jKGM0NSljKG5bY0hdbjUpW05IXVtDSDNd

> <s_epik_cmdline>
J2VwaWtfYXBwJywgJy1pbWFlJywgJ2xpZ2FuZF9wcm8ubWFlJywgJy1vbWFlJywgJ2xpZ2FuZF9wcmVwLm1hZScsICctbXMnLCAnMScsICctcGgnLCAnNycsICctcGh0JywgJzAuNScsICctbnQn

> <r_lp_tautomer_probability>
0.999997216410764

> <r_epik_Ionization_Penalty>
  0.0509

> <r_epik_Ionization_Penalty_Charging>
  0.0000

> <r_epik_Ionization_Penalty_Neutral>
  0.0509

> <r_epik_State_Penalty>
  0.0361

> <r_epik_Charging_Adjusted_Penalty>
0.0360982876608727

> <i_epik_Tot_Q>
0

> <i_epik_Tot_abs_Q>
0

> <s_epik_Chemistry_Notes>
This compound contains an acetal/aminal-like group ( X-CH(R)-Y where X, Y are N, S, or O) that may be acid/base labile, releasing an aldehyde.

$$$$
