3hvi_ligand
                    3D
 Schrodinger Suite 2020-3.
 67 71  0  0  1  0            999 V2000
    0.6320    7.2750   18.2980 F   0  0  0  0  0  0
    0.6360    8.4420   17.6000 C   0  0  0  0  0  0
   -0.2340    9.4700   17.9320 C   0  0  0  0  0  0
   -0.2110   10.6250   17.2020 C   0  0  0  0  0  0
    1.5660    8.5670   16.5680 C   0  0  0  0  0  0
    1.5730    9.7580   15.8500 C   0  0  0  0  0  0
    0.7120   10.8130   16.1750 C   0  0  0  0  0  0
    0.7400   12.0880   15.4140 C   0  0  0  0  0  0
   -0.4330   12.7650   15.1370 C   0  0  0  0  0  0
    1.9610   12.6280   14.9490 C   0  0  0  0  0  0
    1.9890   13.8430   14.2630 C   0  0  0  0  0  0
    3.1590   14.3600   13.8010 O   0  0  0  0  0  0
    0.7850   14.5210   13.9540 C   0  0  0  0  0  0
    0.9130   15.6510   13.2420 O   0  0  0  0  0  0
   -0.4020   13.9780   14.4210 C   0  0  0  0  0  0
   -1.7250   14.6530   14.2200 C   0  0  0  0  0  0
   -2.7880   14.0340   14.3890 O   0  0  0  0  0  0
   -1.7100   15.9160   13.8290 N   0  0  0  0  0  0
   -2.9620   16.6640   13.7430 C   0  0  0  0  0  0
   -2.6470   18.1270   13.9340 C   0  0  0  0  0  0
   -3.4550   18.9640   14.5330 C   0  0  0  0  0  0
   -3.1100   20.4340   14.7060 C   0  0  2  0  0  0
   -3.7450   21.0160   15.9800 C   0  0  1  0  0  0
   -3.0570   22.1290   16.4710 O   0  0  0  0  0  0
   -5.1280   21.3780   15.4300 C   0  0  1  0  0  0
   -5.8910   22.2750   16.2120 O   0  0  0  0  0  0
   -3.6320   21.2100   13.6160 O   0  0  0  0  0  0
   -4.7910   21.9050   14.0440 C   0  0  1  0  0  0
   -5.8360   21.7220   13.0610 N   0  0  0  0  0  0
   -6.3500   20.4760   12.6410 C   0  0  0  0  0  0
   -6.2130   22.6340   12.0970 C   0  0  0  0  0  0
   -5.9180   23.9440   12.0380 N   0  0  0  0  0  0
   -6.3960   24.5940   10.9800 C   0  0  0  0  0  0
   -7.1620   24.0100   10.0300 N   0  0  0  0  0  0
   -7.5000   22.7030   10.1200 C   0  0  0  0  0  0
   -7.0010   21.9220   11.1610 C   0  0  0  0  0  0
   -7.0970   20.6010   11.5510 N   0  0  0  0  0  0
   -8.2840   22.2470    9.1090 N   0  0  0  0  0  0
   -8.9600   20.9470    9.0880 C   0  0  0  0  0  0
  -10.1910   20.9520    9.9410 C   0  0  0  0  0  0
   -0.9277    9.3579   18.7652 H   0  0  0  0  0  0
   -0.9282   11.4142   17.4273 H   0  0  0  0  0  0
    2.2614    7.7612   16.3330 H   0  0  0  0  0  0
    2.2645    9.8727   15.0153 H   0  0  0  0  0  0
   -1.3865   12.3584   15.4741 H   0  0  0  0  0  0
    2.8913   12.0891   15.1284 H   0  0  0  0  0  0
    4.1101   13.8549   14.0253 H   0  0  0  0  0  0
    1.9095   15.9897   12.9223 H   0  0  0  0  0  0
   -0.7590   16.4037   13.5689 H   0  0  0  0  0  0
   -3.4199   16.5003   12.7563 H   0  0  0  0  0  0
   -3.6502   16.3185   14.5285 H   0  0  0  0  0  0
   -1.6827   18.4801   13.5399 H   0  0  0  0  0  0
   -4.4180   18.6102   14.9298 H   0  0  0  0  0  0
   -2.0131   20.5158   14.6980 H   0  0  0  0  0  0
   -3.7039   20.4042   16.8932 H   0  0  0  0  0  0
   -2.0495   22.0094   16.8959 H   0  0  0  0  0  0
   -5.8638   20.5614   15.4715 H   0  0  0  0  0  0
   -6.1916   21.9962   17.2327 H   0  0  0  0  0  0
   -4.6186   22.9912   14.0633 H   0  0  0  0  0  0
   -6.1576   19.5305   13.1480 H   0  0  0  0  0  0
   -6.1580   25.6523   10.8731 H   0  0  0  0  0  0
   -8.3936   22.9377    8.2599 H   0  0  0  0  0  0
   -9.2534   20.7030    8.0563 H   0  0  0  0  0  0
   -8.2774   20.1726    9.4680 H   0  0  0  0  0  0
  -10.6695   19.9624    9.9000 H   0  0  0  0  0  0
  -10.8918   21.7138    9.5689 H   0  0  0  0  0  0
   -9.9158   21.1835   10.9806 H   0  0  0  0  0  0
  1  2  1  0  0  0
  2  3  2  0  0  0
  2  5  1  0  0  0
  3  4  1  0  0  0
  3 41  1  0  0  0
  4  7  2  0  0  0
  4 42  1  0  0  0
  5  6  2  0  0  0
  5 43  1  0  0  0
  6  7  1  0  0  0
  6 44  1  0  0  0
  7  8  1  0  0  0
  8  9  2  0  0  0
  8 10  1  0  0  0
  9 15  1  0  0  0
  9 45  1  0  0  0
 10 11  2  0  0  0
 10 46  1  0  0  0
 11 12  1  0  0  0
 11 13  1  0  0  0
 12 47  1  0  0  0
 13 14  1  0  0  0
 13 15  2  0  0  0
 14 48  1  0  0  0
 15 16  1  0  0  0
 16 17  2  0  0  0
 16 18  1  0  0  0
 18 19  1  0  0  0
 18 49  1  0  0  0
 19 20  1  0  0  0
 19 50  1  0  0  0
 19 51  1  0  0  0
 20 21  2  0  0  0
 20 52  1  0  0  0
 21 22  1  0  0  0
 21 53  1  0  0  0
 22 23  1  0  0  0
 22 27  1  0  0  0
 22 54  1  0  0  0
 23 24  1  0  0  0
 23 25  1  0  0  0
 23 55  1  0  0  0
 24 56  1  0  0  0
 25 26  1  0  0  0
 25 28  1  0  0  0
 25 57  1  0  0  0
 26 58  1  0  0  0
 27 28  1  0  0  0
 28 29  1  0  0  0
 28 59  1  0  0  0
 29 30  1  0  0  0
 29 31  1  0  0  0
 30 37  2  0  0  0
 30 60  1  0  0  0
 31 32  1  0  0  0
 31 36  2  0  0  0
 32 33  2  0  0  0
 33 34  1  0  0  0
 33 61  1  0  0  0
 34 35  2  0  0  0
 35 36  1  0  0  0
 35 38  1  0  0  0
 36 37  1  0  0  0
 38 39  1  0  0  0
 38 62  1  0  0  0
 39 40  1  0  0  0
 39 63  1  0  0  0
 39 64  1  0  0  0
 40 65  1  0  0  0
 40 66  1  0  0  0
 40 67  1  0  0  0
M  END
> <s_m_source_file>
../3hvi_ligand.sdf

> <i_m_source_file_index>
1

> <s_epik_input>
RmMxW2NIXVtjSF1jKFtjSF1bY0hdMSktYzJbY0hdYyhjKFtPSF0pYyhbY0hdMilbT0hdKUMoPU8pW05IXVtDSDJdL1tDSF09W0NIXS9bQ0BASF0zW0NAQEhdKFtPSF0pW0NAQEhdKFtPSF0pW0NAQEhdKE8zKW40W2NIXW5jKGM0NSljKG5bY0hdbjUpW05IXVtDSDJdW0NIM10=

> <s_epik_cmdline>
J2VwaWtfYXBwJywgJy1pbWFlJywgJ2xpZ2FuZF9wcm8ubWFlJywgJy1vbWFlJywgJ2xpZ2FuZF9wcmVwLm1hZScsICctbXMnLCAnMScsICctcGgnLCAnNycsICctcGh0JywgJzAuNScsICctbnQn

> <r_lp_tautomer_probability>
0.999997216410764

> <r_epik_Ionization_Penalty>
  0.0510

> <r_epik_Ionization_Penalty_Charging>
  0.0000

> <r_epik_Ionization_Penalty_Neutral>
  0.0510

> <r_epik_State_Penalty>
  0.0361

> <r_epik_Charging_Adjusted_Penalty>
0.0360982876608727

> <i_epik_Tot_Q>
0

> <i_epik_Tot_abs_Q>
0

> <s_epik_Chemistry_Notes>
This compound contains an acetal/aminal-like group ( X-CH(R)-Y where X, Y are N, S, or O) that may be acid/base labile, releasing an aldehyde.

$$$$
