3hvj_ligand
                    3D
 Schrodinger Suite 2020-3.
 70 74  0  0  1  0            999 V2000
   -3.1930   12.2160  -37.1560 F   0  0  0  0  0  0
   -4.2890   11.9670  -36.4110 C   0  0  0  0  0  0
   -5.5420   12.2800  -36.9540 C   0  0  0  0  0  0
   -6.7220   12.0200  -36.2060 C   0  0  0  0  0  0
   -4.1200   11.4120  -35.1380 C   0  0  0  0  0  0
   -5.2800   11.1820  -34.4010 C   0  0  0  0  0  0
   -6.5850   11.4800  -34.9120 C   0  0  0  0  0  0
   -7.7440   11.1680  -34.0810 C   0  0  0  0  0  0
   -8.8520   12.0190  -34.0520 C   0  0  0  0  0  0
   -7.7340    9.9820  -33.2790 C   0  0  0  0  0  0
   -8.8440    9.7040  -32.4760 C   0  0  0  0  0  0
   -8.8940    8.5470  -31.7090 O   0  0  0  0  0  0
   -9.9390   10.5770  -32.4620 C   0  0  0  0  0  0
  -10.9680   10.2610  -31.6370 O   0  0  0  0  0  0
   -9.9360   11.7510  -33.2260 C   0  0  0  0  0  0
  -11.0430   12.7150  -33.2990 C   0  0  0  0  0  0
  -10.9420   13.8490  -33.7980 O   0  0  0  0  0  0
  -12.2630   12.3460  -32.8470 N   0  0  0  0  0  0
  -13.4190   13.2690  -32.8910 C   0  0  0  0  0  0
  -14.6310   12.3950  -32.7800 C   0  0  0  0  0  0
  -15.8180   12.7370  -33.3040 C   0  0  0  0  0  0
  -17.0090   11.8370  -33.2080 C   0  0  2  0  0  0
  -17.7770   11.9090  -34.5350 C   0  0  1  0  0  0
  -18.6050   10.7430  -34.6530 O   0  0  0  0  0  0
  -18.5530   13.2320  -34.3330 C   0  0  1  0  0  0
  -19.7300   13.2620  -35.0950 O   0  0  0  0  0  0
  -17.8930   12.3770  -32.2250 O   0  0  0  0  0  0
  -18.9550   13.1150  -32.8890 C   0  0  1  0  0  0
  -19.0650   14.3670  -32.1380 N   0  0  0  0  0  0
  -18.1100   15.3980  -32.0640 C   0  0  0  0  0  0
  -20.0580   14.7340  -31.2310 C   0  0  0  0  0  0
  -21.1920   14.0570  -30.9220 N   0  0  0  0  0  0
  -21.9820   14.6420  -30.0200 C   0  0  0  0  0  0
  -21.7040   15.8230  -29.4320 N   0  0  0  0  0  0
  -20.5760   16.4760  -29.7420 C   0  0  0  0  0  0
  -19.6870   15.9360  -30.7070 C   0  0  0  0  0  0
  -18.4960   16.3330  -31.2320 N   0  0  0  0  0  0
  -20.4080   17.6870  -29.1050 N   0  0  0  0  0  0
  -19.3090   18.5880  -29.4830 C   0  0  0  0  0  0
  -19.9650   19.4490  -30.5890 C   0  0  0  0  0  0
  -19.2310   20.8090  -30.6630 C   0  0  0  0  0  0
   -5.6116   12.7219  -37.9480 H   0  0  0  0  0  0
   -7.7067   12.2327  -36.6223 H   0  0  0  0  0  0
   -3.1327   11.1721  -34.7433 H   0  0  0  0  0  0
   -5.1914   10.7602  -33.3998 H   0  0  0  0  0  0
   -8.8658   12.9053  -34.6863 H   0  0  0  0  0  0
   -6.8771    9.3086  -33.2943 H   0  0  0  0  0  0
   -8.0427    7.8503  -31.7084 H   0  0  0  0  0  0
  -10.9375    9.3304  -31.0512 H   0  0  0  0  0  0
  -12.3843   11.3316  -32.4392 H   0  0  0  0  0  0
  -13.3551   13.9769  -32.0515 H   0  0  0  0  0  0
  -13.4089   13.8243  -33.8405 H   0  0  0  0  0  0
  -14.5208   11.4407  -32.2441 H   0  0  0  0  0  0
  -15.9339   13.7012  -33.8207 H   0  0  0  0  0  0
  -16.6999   10.8234  -32.9130 H   0  0  0  0  0  0
  -17.2170   11.8521  -35.4801 H   0  0  0  0  0  0
  -18.1452    9.7544  -34.7992 H   0  0  0  0  0  0
  -18.0310   14.1486  -34.6450 H   0  0  0  0  0  0
  -19.6740   13.3451  -36.1904 H   0  0  0  0  0  0
  -19.9519   12.6504  -32.8676 H   0  0  0  0  0  0
  -17.1749   15.4160  -32.6238 H   0  0  0  0  0  0
  -22.9063   14.1355  -29.7422 H   0  0  0  0  0  0
  -21.1067   17.9767  -28.3063 H   0  0  0  0  0  0
  -18.9987   19.1757  -28.6064 H   0  0  0  0  0  0
  -18.4572   17.9948  -29.8469 H   0  0  0  0  0  0
  -19.8843   18.9288  -31.5549 H   0  0  0  0  0  0
  -21.0258   19.6106  -30.3471 H   0  0  0  0  0  0
  -19.6889   21.4306  -31.4466 H   0  0  0  0  0  0
  -18.1704   20.6407  -30.9014 H   0  0  0  0  0  0
  -19.3119   21.3225  -29.6936 H   0  0  0  0  0  0
  1  2  1  0  0  0
  2  3  2  0  0  0
  2  5  1  0  0  0
  3  4  1  0  0  0
  3 42  1  0  0  0
  4  7  2  0  0  0
  4 43  1  0  0  0
  5  6  2  0  0  0
  5 44  1  0  0  0
  6  7  1  0  0  0
  6 45  1  0  0  0
  7  8  1  0  0  0
  8  9  2  0  0  0
  8 10  1  0  0  0
  9 15  1  0  0  0
  9 46  1  0  0  0
 10 11  2  0  0  0
 10 47  1  0  0  0
 11 12  1  0  0  0
 11 13  1  0  0  0
 12 48  1  0  0  0
 13 14  1  0  0  0
 13 15  2  0  0  0
 14 49  1  0  0  0
 15 16  1  0  0  0
 16 17  2  0  0  0
 16 18  1  0  0  0
 18 19  1  0  0  0
 18 50  1  0  0  0
 19 20  1  0  0  0
 19 51  1  0  0  0
 19 52  1  0  0  0
 20 21  2  0  0  0
 20 53  1  0  0  0
 21 22  1  0  0  0
 21 54  1  0  0  0
 22 23  1  0  0  0
 22 27  1  0  0  0
 22 55  1  0  0  0
 23 24  1  0  0  0
 23 25  1  0  0  0
 23 56  1  0  0  0
 24 57  1  0  0  0
 25 26  1  0  0  0
 25 28  1  0  0  0
 25 58  1  0  0  0
 26 59  1  0  0  0
 27 28  1  0  0  0
 28 29  1  0  0  0
 28 60  1  0  0  0
 29 30  1  0  0  0
 29 31  1  0  0  0
 30 37  2  0  0  0
 30 61  1  0  0  0
 31 32  1  0  0  0
 31 36  2  0  0  0
 32 33  2  0  0  0
 33 34  1  0  0  0
 33 62  1  0  0  0
 34 35  2  0  0  0
 35 36  1  0  0  0
 35 38  1  0  0  0
 36 37  1  0  0  0
 38 39  1  0  0  0
 38 63  1  0  0  0
 39 40  1  0  0  0
 39 64  1  0  0  0
 39 65  1  0  0  0
 40 41  1  0  0  0
 40 66  1  0  0  0
 40 67  1  0  0  0
 41 68  1  0  0  0
 41 69  1  0  0  0
 41 70  1  0  0  0
M  END
> <s_m_source_file>
../3hvj_ligand.sdf

> <i_m_source_file_index>
1

> <s_epik_input>
RmMxW2NIXVtjSF1jKFtjSF1bY0hdMSktYzJbY0hdYyhjKFtPSF0pYyhbY0hdMilbT0hdKUMoPU8pW05IXVtDSDJdL1tDSF09W0NIXS9bQ0BASF0zW0NAQEhdKFtPSF0pW0NAQEhdKFtPSF0pW0NAQEhdKE8zKW40W2NIXW5jKGM0NSljKG5bY0hdbjUpW05IXVtDSDJdW0NIMl1bQ0gzXQ==

> <s_epik_cmdline>
J2VwaWtfYXBwJywgJy1pbWFlJywgJ2xpZ2FuZF9wcm8ubWFlJywgJy1vbWFlJywgJ2xpZ2FuZF9wcmVwLm1hZScsICctbXMnLCAnMScsICctcGgnLCAnNycsICctcGh0JywgJzAuNScsICctbnQn

> <r_lp_tautomer_probability>
0.999997216410764

> <r_epik_Ionization_Penalty>
  0.0510

> <r_epik_Ionization_Penalty_Charging>
  0.0000

> <r_epik_Ionization_Penalty_Neutral>
  0.0510

> <r_epik_State_Penalty>
  0.0361

> <r_epik_Charging_Adjusted_Penalty>
0.0360982876608727

> <i_epik_Tot_Q>
0

> <i_epik_Tot_abs_Q>
0

> <s_epik_Chemistry_Notes>
This compound contains an acetal/aminal-like group ( X-CH(R)-Y where X, Y are N, S, or O) that may be acid/base labile, releasing an aldehyde.

$$$$
