3hvk_ligand
                    3D
 Schrodinger Suite 2020-3.
 65 69  0  0  1  0            999 V2000
   -5.7990   21.6500   12.8170 N   0  0  0  0  0  0
   -4.7620   21.8080   13.8170 C   0  0  1  0  0  0
   -6.1870   22.5890   11.8910 C   0  0  0  0  0  0
   -7.0560   21.9490   11.0440 C   0  0  0  0  0  0
   -7.2440   20.6490   11.4360 N   0  0  0  0  0  0
   -5.1190   21.2230   15.1750 C   0  0  1  0  0  0
   -0.4730   13.9040   14.3510 C   0  0  0  0  0  0
   -6.4750   20.4790   12.4790 C   0  0  0  0  0  0
   -3.6530   21.0220   13.3530 O   0  0  0  0  0  0
   -3.7400   20.8630   15.7380 C   0  0  1  0  0  0
    0.7520   14.4490   13.8250 C   0  0  0  0  0  0
   -0.4610   12.7300   15.0470 C   0  0  0  0  0  0
   -3.1320   20.2690   14.4850 C   0  0  1  0  0  0
   -1.7510   14.5650   14.1870 C   0  0  0  0  0  0
   -5.7790   23.8410   11.7910 N   0  0  0  0  0  0
    0.7400   12.0060   15.3010 C   0  0  0  0  0  0
    1.9770   13.7300   14.0990 C   0  0  0  0  0  0
    1.9380   12.5040   14.8410 C   0  0  0  0  0  0
   -7.5590   22.7350   10.0010 C   0  0  0  0  0  0
   -7.1620   23.9880    9.8710 N   0  0  0  0  0  0
   -6.2880   24.5100   10.7730 C   0  0  0  0  0  0
    0.6970   10.7710   16.0690 C   0  0  0  0  0  0
   -3.5080   18.8290   14.3730 C   0  0  0  0  0  0
   -2.8190   13.9860   14.4690 O   0  5  0  0  0  0
   -5.8510   22.1920   15.9300 O   0  0  0  0  0  0
   -1.8060   15.8040   13.6620 N   0  0  0  0  0  0
   -2.7610   17.9590   13.7490 C   0  0  0  0  0  0
    1.5330    9.6890   15.7390 C   0  0  0  0  0  0
   -0.2330   10.6430   17.1200 C   0  0  0  0  0  0
   -2.9660   21.9620   16.1770 O   0  0  0  0  0  0
    0.8430   15.4950   13.0890 O   0  0  0  0  0  0
    3.0620   14.2400   13.6320 O   0  0  0  0  0  0
    0.5820    8.4480   17.4990 C   0  0  0  0  0  0
    1.5060    8.5270   16.4960 C   0  0  0  0  0  0
   -0.2680    9.4690   17.8630 C   0  0  0  0  0  0
    0.6080    7.2940   18.2360 F   0  0  0  0  0  0
   -3.0820   16.5250   13.6010 C   0  0  0  0  0  0
   -8.4850   22.3070    9.0560 N   0  0  0  0  0  0
   -9.1510   21.0030    9.0860 C   0  0  0  0  0  0
  -10.1970   20.9310   10.1770 C   0  0  0  0  0  0
  -11.3510   21.6530    9.8050 O   0  0  0  0  0  0
   -4.5609   22.8869   13.8918 H   0  0  0  0  0  0
   -5.8267   20.3814   15.2032 H   0  0  0  0  0  0
   -6.3747   19.5371   13.0183 H   0  0  0  0  0  0
   -3.7420   20.2779   16.6695 H   0  0  0  0  0  0
   -1.4013   12.3106   15.4343 H   0  0  0  0  0  0
   -2.0341   20.3368   14.4784 H   0  0  0  0  0  0
    2.8730   11.9606   15.0421 H   0  0  0  0  0  0
   -5.9878   25.5502   10.6469 H   0  0  0  0  0  0
   -4.4516   18.5096   14.8394 H   0  0  0  0  0  0
   -6.8505   22.5082   15.5968 H   0  0  0  0  0  0
   -1.8154   18.2777   13.2860 H   0  0  0  0  0  0
    2.2053    9.7640   14.8843 H   0  0  0  0  0  0
   -0.9195   11.4583   17.3484 H   0  0  0  0  0  0
   -3.2618   22.5177   17.0790 H   0  0  0  0  0  0
    2.1965    7.7072   16.2979 H   0  0  0  0  0  0
   -0.9475    9.3595   18.7082 H   0  0  0  0  0  0
   -3.5681   16.3288   12.6340 H   0  0  0  0  0  0
   -3.7361   16.1824   14.4164 H   0  0  0  0  0  0
   -8.7074   23.0197    8.2481 H   0  0  0  0  0  0
   -9.6461   20.8219    8.1206 H   0  0  0  0  0  0
   -8.4059   20.2149    9.2695 H   0  0  0  0  0  0
  -10.4737   19.8807   10.3509 H   0  0  0  0  0  0
   -9.7902   21.3613   11.1040 H   0  0  0  0  0  0
  -12.2121   21.7034   10.4876 H   0  0  0  0  0  0
  1  2  1  0  0  0
  1  3  1  0  0  0
  1  8  1  0  0  0
  2  6  1  0  0  0
  2  9  1  0  0  0
  2 42  1  0  0  0
  3  4  2  0  0  0
  3 15  1  0  0  0
  4  5  1  0  0  0
  4 19  1  0  0  0
  5  8  2  0  0  0
  6 10  1  0  0  0
  6 25  1  0  0  0
  6 43  1  0  0  0
  7 11  1  0  0  0
  7 12  2  0  0  0
  7 14  1  0  0  0
  8 44  1  0  0  0
  9 13  1  0  0  0
 10 13  1  0  0  0
 10 30  1  0  0  0
 10 45  1  0  0  0
 11 17  1  0  0  0
 11 31  2  0  0  0
 12 16  1  0  0  0
 12 46  1  0  0  0
 13 23  1  0  0  0
 13 47  1  0  0  0
 14 24  1  0  0  0
 14 26  2  0  0  0
 15 21  2  0  0  0
 16 18  2  0  0  0
 16 22  1  0  0  0
 17 18  1  0  0  0
 17 32  2  0  0  0
 18 48  1  0  0  0
 19 20  2  0  0  0
 19 38  1  0  0  0
 20 21  1  0  0  0
 21 49  1  0  0  0
 22 28  2  0  0  0
 22 29  1  0  0  0
 23 27  2  0  0  0
 23 50  1  0  0  0
 25 51  1  0  0  0
 26 37  1  0  0  0
 27 37  1  0  0  0
 27 52  1  0  0  0
 28 34  1  0  0  0
 28 53  1  0  0  0
 29 35  2  0  0  0
 29 54  1  0  0  0
 30 55  1  0  0  0
 33 34  2  0  0  0
 33 35  1  0  0  0
 33 36  1  0  0  0
 34 56  1  0  0  0
 35 57  1  0  0  0
 37 58  1  0  0  0
 37 59  1  0  0  0
 38 39  1  0  0  0
 38 60  1  0  0  0
 39 40  1  0  0  0
 39 61  1  0  0  0
 39 62  1  0  0  0
 40 41  1  0  0  0
 40 63  1  0  0  0
 40 64  1  0  0  0
 41 65  1  0  0  0
M  CHG  1  24  -1
M  END
> <s_m_source_file>
../3hvk_ligand.sdf

> <i_m_source_file_index>
1

> <s_epik_input>
W09IXVtDSDJdW0NIMl1bTkhdYyhuW2NIXW4xKWMoYzEyKW5bY0hdbjJbQ0BIXTNbQ0BIXShbT0hdKVtDQEhdKFtPSF0pW0NASF0oTzMpL1tDSF09W0NIXS9bQ0gyXVtOSF1DKD1PKUM0PVtDSF1DKD1bQ0hdQyg9TylDND1PKWM1W2NIXVtjSF1jKEYpW2NIXVtjSF01

> <s_epik_cmdline>
J2VwaWtfYXBwJywgJy1pbWFlJywgJ2xpZ2FuZF9wcm8ubWFlJywgJy1vbWFlJywgJ2xpZ2FuZF9wcmVwLm1hZScsICctbXMnLCAnMScsICctcGgnLCAnNycsICctcGh0JywgJzAuNScsICctbnQn

> <r_lp_tautomer_probability>
0.999997216410988

> <r_epik_Ionization_Penalty>
  0.3700

> <r_epik_Ionization_Penalty_Charging>
  0.3686

> <r_epik_Ionization_Penalty_Neutral>
  0.0013

> <r_epik_State_Penalty>
  0.3659

> <r_epik_Charging_Adjusted_Penalty>
0.734522712244272

> <i_epik_Tot_Q>
-1

> <i_epik_Tot_abs_Q>
1

> <s_epik_Chemistry_Notes>
This compound contains an acetal/aminal-like group ( X-CH(R)-Y where X, Y are N, S, or O) that may be acid/base labile, releasing an aldehyde.

$$$$
