3hw1_ligand
                    3D
 Schrodinger Suite 2020-3.
 30 32  0  0  1  0            999 V2000
  -19.6390  -92.7290   10.6900 N   0  0  0  0  0  0
  -18.5200  -92.6780   11.5250 C   0  0  0  0  0  0
  -17.8170  -91.4930   11.4830 N   0  0  0  0  0  0
  -16.7000  -91.3200   12.2620 C   0  0  0  0  0  0
  -16.0200  -90.1190   12.1940 C   0  0  0  0  0  0
  -14.8900  -89.9270   12.9690 C   0  0  0  0  0  0
  -18.1230  -93.7270   12.3570 C   0  0  0  0  0  0
  -16.9860  -93.5480   13.1450 N   0  0  0  0  0  0
  -16.2740  -92.3510   13.0960 C   0  0  0  0  0  0
  -15.1400  -92.1540   13.8760 C   0  0  0  0  0  0
  -14.4530  -90.9420   13.8070 C   0  0  0  0  0  0
  -18.8410  -94.9560   12.4300 N   0  0  0  0  0  0
  -20.3000  -95.0270   12.6800 C   0  0  0  0  0  0
  -20.5420  -96.0200   13.8000 C   0  0  0  0  0  0
  -19.1930  -96.5850   14.1440 C   0  0  0  0  0  0
  -18.3000  -96.2260   12.9630 C   0  0  0  0  0  0
  -19.8946  -91.8647   10.0595 H   0  0  0  0  0  0
  -20.2644  -93.6335   10.6631 H   0  0  0  0  0  0
  -16.3720  -89.3269   11.5332 H   0  0  0  0  0  0
  -14.3464  -88.9834   12.9212 H   0  0  0  0  0  0
  -14.7889  -92.9443   14.5395 H   0  0  0  0  0  0
  -13.5632  -90.7910   14.4182 H   0  0  0  0  0  0
  -20.6711  -94.0329   12.9699 H   0  0  0  0  0  0
  -20.8132  -95.3574   11.7649 H   0  0  0  0  0  0
  -20.9885  -95.5004   14.6606 H   0  0  0  0  0  0
  -21.2271  -96.8066   13.4509 H   0  0  0  0  0  0
  -18.8322  -96.1297   15.0781 H   0  0  0  0  0  0
  -19.2741  -97.6742   14.2744 H   0  0  0  0  0  0
  -18.3390  -96.9982   12.1806 H   0  0  0  0  0  0
  -17.2570  -96.0764   13.2789 H   0  0  0  0  0  0
  1  2  1  0  0  0
  1 17  1  0  0  0
  1 18  1  0  0  0
  2  3  2  0  0  0
  2  7  1  0  0  0
  3  4  1  0  0  0
  4  5  2  0  0  0
  4  9  1  0  0  0
  5  6  1  0  0  0
  5 19  1  0  0  0
  6 11  2  0  0  0
  6 20  1  0  0  0
  7  8  2  0  0  0
  7 12  1  0  0  0
  8  9  1  0  0  0
  9 10  2  0  0  0
 10 11  1  0  0  0
 10 21  1  0  0  0
 11 22  1  0  0  0
 12 13  1  0  0  0
 12 16  1  0  0  0
 13 14  1  0  0  0
 13 23  1  0  0  0
 13 24  1  0  0  0
 14 15  1  0  0  0
 14 25  1  0  0  0
 14 26  1  0  0  0
 15 16  1  0  0  0
 15 27  1  0  0  0
 15 28  1  0  0  0
 16 29  1  0  0  0
 16 30  1  0  0  0
M  END
> <s_m_source_file>
../3hw1_ligand.sdf

> <i_m_source_file_index>
1

> <s_epik_input>
W0NIMl0xW0NIMl1bQ0gyXVtDSDJdTjFjKGMobjIpW05IMl0pbmMoYzIzKVtjSF1bY0hdW2NIXVtjSF0z

> <s_epik_cmdline>
J2VwaWtfYXBwJywgJy1pbWFlJywgJ2xpZ2FuZF9wcm8ubWFlJywgJy1vbWFlJywgJ2xpZ2FuZF9wcmVwLm1hZScsICctbXMnLCAnMScsICctcGgnLCAnNycsICctcGh0JywgJzAuNScsICctbnQn

> <r_lp_tautomer_probability>
1

> <r_epik_Ionization_Penalty>
  0.0008

> <r_epik_Ionization_Penalty_Charging>
  0.0000

> <r_epik_Ionization_Penalty_Neutral>
  0.0008

> <r_epik_State_Penalty>
 -0.0000

> <r_epik_Charging_Adjusted_Penalty>
0

> <i_epik_Tot_Q>
0

> <i_epik_Tot_abs_Q>
0

$$$$
