3hwn_ligand
                    3D
 Schrodinger Suite 2020-3.
 65 67  0  0  1  0            999 V2000
   31.3450  -25.7520  -13.7640 C   0  0  0  0  0  0
   31.1810  -25.8080  -15.1490 C   0  0  0  0  0  0
   30.3370  -25.2050  -12.9660 C   0  0  0  0  0  0
   30.0290  -25.3140  -15.7470 C   0  0  0  0  0  0
   29.1810  -24.7060  -13.5680 C   0  0  0  0  0  0
   29.0300  -24.7610  -14.9630 C   0  0  0  0  0  0
   28.0680  -24.1430  -12.7970 C   0  0  0  0  0  0
   24.8050  -23.2110  -13.0440 C   0  0  0  0  0  0
   24.2370  -21.9040  -12.6790 N   0  3  0  0  0  0
   32.8530  -27.7910  -13.4980 C   0  0  1  0  0  0
   31.0350  -29.3410  -14.1770 C   0  0  0  0  0  0
   29.9000  -30.2100  -13.7660 C   0  0  0  0  0  0
   35.2790  -28.0690  -13.0850 N   0  0  0  0  0  0
   36.5090  -28.5360  -12.4410 C   0  0  0  0  0  0
   37.3020  -27.3270  -11.9130 C   0  0  0  0  0  0
   28.6370  -30.2850  -15.9370 C   0  0  0  0  0  0
   27.8580  -32.2760  -11.4760 C   0  0  0  0  0  0
   28.4750  -32.1100  -10.0770 C   0  0  0  0  0  0
   27.9060  -33.7500  -11.8760 C   0  0  0  0  0  0
   26.3810  -31.8790  -11.4050 C   0  0  0  0  0  0
   38.5990  -27.4860  -11.7650 N   0  0  0  0  0  0
   33.9920  -28.3770  -12.7000 C   0  0  0  0  0  0
   33.7640  -29.1090  -11.7570 O   0  0  0  0  0  0
   31.7140  -28.6630  -13.2110 N   0  0  0  0  0  0
   31.3790  -29.2020  -15.3320 O   0  0  0  0  0  0
   29.7080  -30.7400  -12.5100 C   0  0  0  0  0  0
   28.5350  -31.4520  -12.5720 C   0  0  0  0  0  0
   28.0650  -31.3440  -13.8410 N   0  0  0  0  0  0
   28.8490  -30.6180  -14.5190 N   0  0  0  0  0  0
   32.6070  -26.3130  -13.1180 C   0  0  0  0  0  0
   27.0240  -23.9530  -13.3570 O   0  0  0  0  0  0
   26.2240  -23.5140  -12.5680 C   0  0  0  0  0  0
   26.7950  -23.3890  -11.3450 N   0  0  0  0  0  0
   27.9840  -23.8110  -11.4920 N   0  0  0  0  0  0
   31.9653  -26.2440  -15.7677 H   0  0  0  0  0  0
   30.4525  -25.1683  -11.8828 H   0  0  0  0  0  0
   29.9114  -25.3613  -16.8296 H   0  0  0  0  0  0
   28.1263  -24.3684  -15.4290 H   0  0  0  0  0  0
   24.1782  -24.0127  -12.6264 H   0  0  0  0  0  0
   24.8372  -23.3038  -14.1396 H   0  0  0  0  0  0
   23.2177  -21.8212  -13.0841 H   0  0  0  0  0  0
   24.8638  -21.1023  -13.0966 H   0  0  0  0  0  0
   24.2048  -21.8113  -11.5834 H   0  0  0  0  0  0
   33.0351  -27.8058  -14.5827 H   0  0  0  0  0  0
   35.3344  -27.4080  -13.9625 H   0  0  0  0  0  0
   36.9007  -29.5543  -12.3009 H   0  0  0  0  0  0
   36.7807  -26.3870  -11.6790 H   0  0  0  0  0  0
   29.4577  -29.6431  -16.2895 H   0  0  0  0  0  0
   27.6809  -29.7528  -16.0497 H   0  0  0  0  0  0
   28.6139  -31.2103  -16.5314 H   0  0  0  0  0  0
   27.9267  -32.7362   -9.3578 H   0  0  0  0  0  0
   28.4092  -31.0558   -9.7700 H   0  0  0  0  0  0
   29.5303  -32.4193  -10.1027 H   0  0  0  0  0  0
   27.4223  -34.3573  -11.0968 H   0  0  0  0  0  0
   28.9538  -34.0653  -11.9890 H   0  0  0  0  0  0
   27.3765  -33.8884  -12.8302 H   0  0  0  0  0  0
   25.8812  -32.4649  -10.6196 H   0  0  0  0  0  0
   25.9004  -32.0796  -12.3739 H   0  0  0  0  0  0
   26.3003  -30.8073  -11.1705 H   0  0  0  0  0  0
   39.0671  -28.4495  -12.0151 H   0  0  0  0  0  0
   31.3695  -28.7947  -12.1747 H   0  0  0  0  0  0
   30.3559  -30.6191  -11.6418 H   0  0  0  0  0  0
   33.4783  -25.7273  -13.4462 H   0  0  0  0  0  0
   32.5163  -26.2532  -12.0234 H   0  0  0  0  0  0
   39.2158  -26.6555  -11.3911 H   0  0  0  0  0  0
  1  2  2  0  0  0
  1  3  1  0  0  0
  1 30  1  0  0  0
  2  4  1  0  0  0
  2 35  1  0  0  0
  3  5  2  0  0  0
  3 36  1  0  0  0
  4  6  2  0  0  0
  4 37  1  0  0  0
  5  6  1  0  0  0
  5  7  1  0  0  0
  6 38  1  0  0  0
  7 31  1  0  0  0
  7 34  2  0  0  0
  8  9  1  0  0  0
  8 32  1  0  0  0
  8 39  1  0  0  0
  8 40  1  0  0  0
  9 41  1  0  0  0
  9 42  1  0  0  0
  9 43  1  0  0  0
 10 22  1  0  0  0
 10 24  1  0  0  0
 10 30  1  0  0  0
 10 44  1  0  0  0
 11 12  1  0  0  0
 11 24  1  0  0  0
 11 25  2  0  0  0
 12 26  2  0  0  0
 12 29  1  0  0  0
 13 14  1  0  0  0
 13 22  1  0  0  0
 13 45  1  0  0  0
 14 15  2  0  0  0
 14 46  1  0  0  0
 15 21  1  0  0  0
 15 47  1  0  0  0
 16 29  1  0  0  0
 16 48  1  0  0  0
 16 49  1  0  0  0
 16 50  1  0  0  0
 17 18  1  0  0  0
 17 19  1  0  0  0
 17 20  1  0  0  0
 17 27  1  0  0  0
 18 51  1  0  0  0
 18 52  1  0  0  0
 18 53  1  0  0  0
 19 54  1  0  0  0
 19 55  1  0  0  0
 19 56  1  0  0  0
 20 57  1  0  0  0
 20 58  1  0  0  0
 20 59  1  0  0  0
 21 60  1  0  0  0
 21 65  1  0  0  0
 22 23  2  0  0  0
 24 61  1  0  0  0
 26 27  1  0  0  0
 26 62  1  0  0  0
 27 28  2  0  0  0
 28 29  1  0  0  0
 30 63  1  0  0  0
 30 64  1  0  0  0
 31 32  1  0  0  0
 32 33  2  0  0  0
 33 34  1  0  0  0
M  CHG  1   9   1
M  END
> <s_m_source_file>
../3hwn_ligand.sdf

> <i_m_source_file_index>
1

> <s_epik_input>
W05IMytdW0NIMl1jKG5uMSlvYzEtYyhbY0hdMilbY0hdW2NIXVtjSF1jMltDSDJdW0NAQEhdKEMoPU8pW05IXVtDSDJdL1tDSF09TlxbSF0pW05IXUMoPU8pYzNbY0hdYyhDKFtDSDNdKShbQ0gzXSlbQ0gzXSlubjNbQ0gzXQ==

> <s_epik_cmdline>
J2VwaWtfYXBwJywgJy1pbWFlJywgJ2xpZ2FuZF9wcm8ubWFlJywgJy1vbWFlJywgJ2xpZ2FuZF9wcmVwLm1hZScsICctbXMnLCAnMScsICctcGgnLCAnNycsICctcGh0JywgJzAuNScsICctbnQn

> <r_lp_tautomer_probability>
1

> <r_epik_Ionization_Penalty>
  0.0050

> <r_epik_Ionization_Penalty_Charging>
  0.0050

> <r_epik_Ionization_Penalty_Neutral>
  0.0000

> <r_epik_State_Penalty>
 -0.0000

> <r_epik_Charging_Adjusted_Penalty>
0.00499709878638927

> <i_epik_Tot_Q>
1

> <i_epik_Tot_abs_Q>
1

> <s_epik_Chemistry_Notes>
This compound has an imine and may undergo hydrolysis.

$$$$
