3hww_ligand
                    3D
 Schrodinger Suite 2020-3.
 14 13  0  0  1  0            999 V2000
  -42.7770    3.0060   10.4000 C   0  0  0  0  0  0
  -42.3110    1.9630    9.9750 O   0  0  0  0  0  0
  -43.2280    3.9740    9.6790 O   0  5  0  0  0  0
  -42.9000    3.3130   11.7530 C   0  0  0  0  0  0
  -42.9340    4.4170   12.4520 O   0  0  0  0  0  0
  -42.7950    2.6900   12.9590 C   0  0  0  0  0  0
  -44.1440    2.3660   13.5110 C   0  0  0  0  0  0
  -43.8340    1.5140   14.7050 C   0  0  0  0  0  0
  -43.9490    2.0130   15.8380 O   0  5  0  0  0  0
  -43.4570    0.3410   14.5400 O   0  0  0  0  0  0
  -42.2277    1.7550   12.8405 H   0  0  0  0  0  0
  -42.2720    3.3489   13.6678 H   0  0  0  0  0  0
  -44.6622    3.2974   13.7830 H   0  0  0  0  0  0
  -44.7311    1.8279   12.7522 H   0  0  0  0  0  0
  1  2  2  0  0  0
  1  3  1  0  0  0
  1  4  1  0  0  0
  4  5  2  0  0  0
  4  6  1  0  0  0
  6  7  1  0  0  0
  6 11  1  0  0  0
  6 12  1  0  0  0
  7  8  1  0  0  0
  7 13  1  0  0  0
  7 14  1  0  0  0
  8  9  1  0  0  0
  8 10  2  0  0  0
M  CHG  2   3  -1   9  -1
M  END
> <s_m_source_file>
../3hww_ligand.sdf

> <i_m_source_file_index>
1

> <s_epik_input>
Tz1DKFtPSF0pQyg9TylbQ0gyXVtDSDJdQyg9TylbT0hd

> <s_epik_cmdline>
J2VwaWtfYXBwJywgJy1pbWFlJywgJ2xpZ2FuZF9wcm8ubWFlJywgJy1vbWFlJywgJ2xpZ2FuZF9wcmVwLm1hZScsICctbXMnLCAnMScsICctcGgnLCAnNycsICctcGh0JywgJzAuNScsICctbnQn

> <r_lp_tautomer_probability>
1

> <r_epik_Ionization_Penalty>
  0.0013

> <r_epik_Ionization_Penalty_Charging>
  0.0013

> <r_epik_Ionization_Penalty_Neutral>
  0.0000

> <r_epik_State_Penalty>
 -0.0000

> <r_epik_Charging_Adjusted_Penalty>
0.00129329390835398

> <i_epik_Tot_Q>
-2

> <i_epik_Tot_abs_Q>
2

$$$$
