3hwx_ligand
                    3D
 Schrodinger Suite 2020-3.
 43 44  0  0  1  0            999 V2000
   10.7240    0.5480   -0.9940 N   0  0  0  0  0  0
   10.1430    1.7670   -1.2600 C   0  0  0  0  0  0
    8.6640    1.8990   -1.2260 C   0  0  0  0  0  0
   10.9100    2.8670   -1.5800 N   0  0  0  0  0  0
   12.2890    2.7780   -1.6430 C   0  0  0  0  0  0
   13.0200    3.8590   -1.9780 N   0  0  0  0  0  0
   12.8850    1.5530   -1.3500 C   0  0  0  0  0  0
   12.0980    0.4540   -1.0040 C   0  0  0  0  0  0
   14.3750    1.4030   -1.3500 C   0  0  0  0  0  0
   14.9950    1.3120   -2.6360 N   0  0  0  0  0  0
   15.6120    2.3830   -3.2140 C   0  0  0  0  0  0
   16.2680    2.0330   -4.6140 S   0  0  0  0  0  0
   15.8060    0.4940   -4.5560 C   0  0  0  0  0  0
   15.1090    0.1890   -3.3980 C   0  0  0  0  0  0
   14.5400   -1.1680   -3.0720 C   0  0  0  0  0  0
   16.2050   -0.3690   -5.7260 C   0  0  0  0  0  0
   15.2130   -0.3860   -6.8830 C   0  0  0  0  0  0
   15.6480   -1.3440   -7.8430 O   0  0  0  0  0  0
   15.4130   -1.1490   -9.4340 P   0  0  2  0  0  0
   13.9410   -0.8660   -9.6670 O   0  0  0  0  0  0
   15.8850   -2.2750  -10.3390 O   0  5  0  0  0  0
   16.3320    0.1300   -9.6970 O   0  0  0  0  0  0
   17.9360   -0.0330   -9.8010 P   0  0  0  0  0  0
   18.5360    1.2320  -10.3940 O   0  0  0  0  0  0
   18.3760   -0.1130   -8.3290 O   0  5  0  0  0  0
   18.3690   -1.2790  -10.5970 O   0  5  0  0  0  0
    8.2157    0.9317   -0.9550 H   0  0  0  0  0  0
    8.3005    2.2067   -2.2175 H   0  0  0  0  0  0
    8.3805    2.6563   -0.4802 H   0  0  0  0  0  0
   12.5202    4.8125   -2.2039 H   0  0  0  0  0  0
   14.1167    3.7881   -2.0256 H   0  0  0  0  0  0
   12.5758   -0.4891   -0.7388 H   0  0  0  0  0  0
   14.8309    2.2711   -0.8514 H   0  0  0  0  0  0
   14.6511    0.4843   -0.8117 H   0  0  0  0  0  0
   14.8770    3.1847   -3.3787 H   0  0  0  0  0  0
   16.4103    2.7480   -2.5511 H   0  0  0  0  0  0
   14.0381   -1.1298   -2.0939 H   0  0  0  0  0  0
   15.3531   -1.9080   -3.0382 H   0  0  0  0  0  0
   13.8135   -1.4565   -3.8460 H   0  0  0  0  0  0
   17.1609   -0.0113   -6.1363 H   0  0  0  0  0  0
   16.3165   -1.4111   -5.3918 H   0  0  0  0  0  0
   14.2161   -0.6596   -6.5072 H   0  0  0  0  0  0
   15.1700    0.6119   -7.3438 H   0  0  0  0  0  0
  1  2  2  0  0  0
  1  8  1  0  0  0
  2  3  1  0  0  0
  2  4  1  0  0  0
  3 27  1  0  0  0
  3 28  1  0  0  0
  3 29  1  0  0  0
  4  5  2  0  0  0
  5  6  1  0  0  0
  5  7  1  0  0  0
  6 30  1  0  0  0
  6 31  1  0  0  0
  7  8  2  0  0  0
  7  9  1  0  0  0
  8 32  1  0  0  0
  9 10  1  0  0  0
  9 33  1  0  0  0
  9 34  1  0  0  0
 10 11  1  0  0  0
 10 14  1  0  0  0
 11 12  1  0  0  0
 11 35  1  0  0  0
 11 36  1  0  0  0
 12 13  1  0  0  0
 13 14  2  0  0  0
 13 16  1  0  0  0
 14 15  1  0  0  0
 15 37  1  0  0  0
 15 38  1  0  0  0
 15 39  1  0  0  0
 16 17  1  0  0  0
 16 40  1  0  0  0
 16 41  1  0  0  0
 17 18  1  0  0  0
 17 42  1  0  0  0
 17 43  1  0  0  0
 18 19  1  0  0  0
 19 20  2  0  0  0
 19 21  1  0  0  0
 19 22  1  0  0  0
 22 23  1  0  0  0
 23 24  2  0  0  0
 23 25  1  0  0  0
 23 26  1  0  0  0
M  CHG  3  21  -1  25  -1  26  -1
M  END
> <s_m_source_file>
../3hwx_ligand.sdf

> <i_m_source_file_index>
1

> <s_epik_input>
W0NIM11jMW5bY0hdYyhjKG4xKVtOSDJdKVtDSDJdTjJbQ0gyXVNDKD1DMltDSDNdKVtDSDJdW0NIMl1PW1BAXSg9TykoW09IXSlPUCg9TykoW09IXSlbT0hd

> <s_epik_cmdline>
J2VwaWtfYXBwJywgJy1pbWFlJywgJ2xpZ2FuZF9wcm8ubWFlJywgJy1vbWFlJywgJ2xpZ2FuZF9wcmVwLm1hZScsICctbXMnLCAnMScsICctcGgnLCAnNycsICctcGh0JywgJzAuNScsICctbnQn

> <r_lp_tautomer_probability>
1

> <r_epik_Ionization_Penalty>
  0.1402

> <r_epik_Ionization_Penalty_Charging>
  0.0851

> <r_epik_Ionization_Penalty_Neutral>
  0.0551

> <r_epik_State_Penalty>
 -0.0000

> <r_epik_Charging_Adjusted_Penalty>
0.0850591488400577

> <i_epik_Tot_Q>
-3

> <i_epik_Tot_abs_Q>
3

> <s_epik_Chemistry_Notes>
This compound has an imine and may undergo hydrolysis. This compound contains an acetal/aminal-like group ( X-CH(R)-Y where X, Y are N, S, or O) that may be acid/base labile, releasing an aldehyde.

$$$$
