3hx3_ligand
                    3D
 Schrodinger Suite 2020-3.
 49 49  0  0  1  0            999 V2000
    5.0550    7.8800   12.2630 C   0  0  0  0  0  0
    5.3860    9.1320   11.4850 C   0  0  0  0  0  0
    6.6590    9.6150   12.1620 C   0  0  0  0  0  0
    7.7560    8.5460   12.1040 C   0  0  0  0  0  0
    7.2980    7.0920   12.0190 C   0  0  0  0  0  0
    6.0090    6.7310   12.0610 C   0  0  0  0  0  0
    5.6480    5.2870   11.9920 C   0  0  0  0  0  0
    4.7620    4.7110   12.8010 C   0  0  0  0  0  0
    4.4140    3.2710   12.7440 C   0  0  0  0  0  0
    3.2770    2.8240   13.3080 C   0  0  0  0  0  0
    2.9840    1.3960   13.2360 C   0  0  0  0  0  0
    1.8980    0.8250   13.7650 C   0  0  0  0  0  0
    0.8320    1.5810   14.4480 C   0  0  0  0  0  0
    1.1340    2.4390   15.4270 C   0  0  0  0  0  0
    0.0760    3.1750   16.1140 C   0  0  0  0  0  0
    0.3870    4.0610   16.8960 O   0  0  0  0  0  0
    3.8590    7.7860   13.2050 C   0  0  0  0  0  0
    4.1540    7.4260   11.1140 C   0  0  0  0  0  0
    8.3410    6.0290   11.8460 C   0  0  0  0  0  0
    5.3220    2.2700   12.0840 C   0  0  0  0  0  0
   -0.6010    1.3440   14.0750 C   0  0  0  0  0  0
    5.5369    8.8763   10.4258 H   0  0  0  0  0  0
    4.5569    9.8493   11.5745 H   0  0  0  0  0  0
    7.0234   10.5203   11.6544 H   0  0  0  0  0  0
    6.4486    9.8456   13.2168 H   0  0  0  0  0  0
    8.3834    8.7123   11.2159 H   0  0  0  0  0  0
    8.3778    8.6092   13.0092 H   0  0  0  0  0  0
    6.1577    4.6907   11.2208 H   0  0  0  0  0  0
    4.2431    5.3099   13.5639 H   0  0  0  0  0  0
    2.5962    3.5295   13.8068 H   0  0  0  0  0  0
    3.7256    0.7809   12.7053 H   0  0  0  0  0  0
    1.7644   -0.2651   13.7032 H   0  0  0  0  0  0
    2.1833    2.5935   15.7187 H   0  0  0  0  0  0
   -0.9850    2.9441   15.9381 H   0  0  0  0  0  0
    4.1695    8.0703   14.2212 H   0  0  0  0  0  0
    3.4788    6.7538   13.2130 H   0  0  0  0  0  0
    3.0662    8.4661   12.8600 H   0  0  0  0  0  0
    4.7413    7.3761   10.1853 H   0  0  0  0  0  0
    3.3300    8.1438   10.9886 H   0  0  0  0  0  0
    3.7426    6.4315   11.3416 H   0  0  0  0  0  0
    9.3384    6.4927   11.8324 H   0  0  0  0  0  0
    8.1702    5.4987   10.8975 H   0  0  0  0  0  0
    8.2796    5.3157   12.6811 H   0  0  0  0  0  0
    6.2018    2.7875   11.6740 H   0  0  0  0  0  0
    4.7811    1.7652   11.2699 H   0  0  0  0  0  0
    5.6471    1.5252   12.8253 H   0  0  0  0  0  0
   -0.6503    0.6119   13.2555 H   0  0  0  0  0  0
   -1.0564    2.2907   13.7488 H   0  0  0  0  0  0
   -1.1474    0.9556   14.9471 H   0  0  0  0  0  0
  1  2  1  0  0  0
  1  6  1  0  0  0
  1 17  1  0  0  0
  1 18  1  0  0  0
  2  3  1  0  0  0
  2 22  1  0  0  0
  2 23  1  0  0  0
  3  4  1  0  0  0
  3 24  1  0  0  0
  3 25  1  0  0  0
  4  5  1  0  0  0
  4 26  1  0  0  0
  4 27  1  0  0  0
  5  6  2  0  0  0
  5 19  1  0  0  0
  6  7  1  0  0  0
  7  8  2  0  0  0
  7 28  1  0  0  0
  8  9  1  0  0  0
  8 29  1  0  0  0
  9 10  2  0  0  0
  9 20  1  0  0  0
 10 11  1  0  0  0
 10 30  1  0  0  0
 11 12  2  0  0  0
 11 31  1  0  0  0
 12 13  1  0  0  0
 12 32  1  0  0  0
 13 14  2  0  0  0
 13 21  1  0  0  0
 14 15  1  0  0  0
 14 33  1  0  0  0
 15 16  2  0  0  0
 15 34  1  0  0  0
 17 35  1  0  0  0
 17 36  1  0  0  0
 17 37  1  0  0  0
 18 38  1  0  0  0
 18 39  1  0  0  0
 18 40  1  0  0  0
 19 41  1  0  0  0
 19 42  1  0  0  0
 19 43  1  0  0  0
 20 44  1  0  0  0
 20 45  1  0  0  0
 20 46  1  0  0  0
 21 47  1  0  0  0
 21 48  1  0  0  0
 21 49  1  0  0  0
M  END
> <s_m_source_file>
../3hx3_ligand.sdf

> <i_m_source_file_index>
1

> <s_epik_input>
W0NIM11DMShbQ0gzXSlbQ0gyXVtDSDJdW0NIMl1DKFtDSDNdKT1DMS9bQ0hdPVtDSF0vQyhbQ0gzXSk9W0NIXS9bQ0hdPVtDSF1cQyhbQ0gzXSk9W0NIXVxbQ0hdPU8=

> <s_epik_cmdline>
J2VwaWtfYXBwJywgJy1pbWFlJywgJ2xpZ2FuZF9wcm8ubWFlJywgJy1vbWFlJywgJ2xpZ2FuZF9wcmVwLm1hZScsICctbXMnLCAnMScsICctcGgnLCAnNycsICctcGh0JywgJzAuNScsICctbnQn

> <r_lp_tautomer_probability>
1

> <r_epik_Ionization_Penalty>
  0.0000

> <r_epik_Ionization_Penalty_Charging>
  0.0000

> <r_epik_Ionization_Penalty_Neutral>
  0.0000

> <r_epik_State_Penalty>
 -0.0000

> <r_epik_Charging_Adjusted_Penalty>
0

> <i_epik_Tot_Q>
0

> <i_epik_Tot_abs_Q>
0

$$$$
