3hxb_ligand
                    3D
 Schrodinger Suite 2020-3.
 80 83  0  0  1  0            999 V2000
    5.8440   18.8800   27.3910 C   0  0  0  0  0  0
    5.3500   20.1850   27.3650 C   0  0  0  0  0  0
    3.9850   20.4190   27.2060 C   0  0  0  0  0  0
    3.5070   21.6930   27.1790 O   0  0  0  0  0  0
    3.1140   19.3400   27.0740 C   0  0  0  0  0  0
    3.6000   18.0320   27.1010 C   0  0  0  0  0  0
    4.9690   17.7970   27.2510 C   0  0  0  0  0  0
    5.4970   16.3530   27.2920 C   0  0  0  0  0  0
    5.8820   15.6930   25.9360 C   0  0  1  0  0  0
    4.9030   14.5580   25.5460 C   0  0  0  0  0  0
    4.3140   14.6490   24.4380 O   0  5  0  0  0  0
    4.7770   13.6110   26.3510 O   0  0  0  0  0  0
    5.9310   16.5960   24.7690 N   0  0  0  0  0  0
    7.0500   16.8510   24.0990 C   0  0  0  0  0  0
    8.1470   16.3680   24.3780 O   0  0  0  0  0  0
    6.8340   17.7590   22.8680 C   0  0  2  0  0  0
    7.6600   17.2060   21.6390 C   0  0  0  0  0  0
    7.9100   18.2140   20.4910 C   0  0  0  0  0  0
    9.0910   18.1580   19.7700 C   0  0  0  0  0  0
    9.3110   19.0790   18.7560 C   0  0  0  0  0  0
    8.3840   20.0590   18.4330 C   0  0  0  0  0  0
    7.1990   20.1250   19.1360 C   0  0  0  0  0  0
    6.9860   19.2000   20.1470 C   0  0  0  0  0  0
    6.8770   19.2400   23.0430 N   0  0  0  0  0  0
    5.8170   19.9180   23.5320 C   0  0  0  0  0  0
    4.7650   19.3780   23.9000 O   0  0  0  0  0  0
    5.8900   21.4810   23.5400 C   0  0  1  0  0  0
    5.8220   22.2450   24.9140 C   0  0  0  0  0  0
    6.2430   23.7240   24.7350 C   0  0  0  0  0  0
    7.1330   24.2750   25.6670 C   0  0  0  0  0  0
    7.5480   25.5970   25.5250 C   0  0  0  0  0  0
    7.0950   26.3670   24.4510 C   0  0  0  0  0  0
    7.5250   27.6350   24.3460 O   0  0  0  0  0  0
    6.2270   25.8350   23.4990 C   0  0  0  0  0  0
    5.8010   24.5100   23.6470 C   0  0  0  0  0  0
    6.8200   22.0390   22.4720 N   0  0  0  0  0  0
    8.1370   22.3610   22.4730 C   0  0  0  0  0  0
    8.9520   22.2170   23.3840 O   0  0  0  0  0  0
    8.6060   22.8660   21.2840 O   0  0  0  0  0  0
    8.5880   24.2820   21.0430 C   0  0  0  0  0  0
    7.7360   24.8560   20.1190 C   0  0  0  0  0  0
    6.7380   24.0740   19.5180 C   0  0  0  0  0  0
    5.8540   24.6200   18.5860 C   0  0  0  0  0  0
    5.9860   25.9710   18.2730 C   0  0  0  0  0  0
    6.9850   26.7490   18.8800 C   0  0  0  0  0  0
    7.8800   26.2120   19.8100 C   0  0  0  0  0  0
    6.9119   18.7043   27.5204 H   0  0  0  0  0  0
    6.0354   21.0261   27.4696 H   0  0  0  0  0  0
    4.1984   22.5422   27.2836 H   0  0  0  0  0  0
    2.0460   19.5184   26.9488 H   0  0  0  0  0  0
    2.9108   17.1930   27.0050 H   0  0  0  0  0  0
    6.4093   16.3135   27.9053 H   0  0  0  0  0  0
    4.7319   15.6951   27.7300 H   0  0  0  0  0  0
    6.9171   15.3561   26.0942 H   0  0  0  0  0  0
    5.0139   17.0922   24.4186 H   0  0  0  0  0  0
    5.7485   17.7390   22.6909 H   0  0  0  0  0  0
    8.6519   16.8770   21.9822 H   0  0  0  0  0  0
    7.1259   16.3549   21.1914 H   0  0  0  0  0  0
    9.8395   17.3987   19.9966 H   0  0  0  0  0  0
   10.2438   19.0309   18.1942 H   0  0  0  0  0  0
    8.5897   20.7693   17.6323 H   0  0  0  0  0  0
    6.4510   20.8830   18.9034 H   0  0  0  0  0  0
    6.0484   19.2461   20.7010 H   0  0  0  0  0  0
    7.7842   19.7998   22.7717 H   0  0  0  0  0  0
    4.9006   21.7832   23.1663 H   0  0  0  0  0  0
    4.7931   22.2113   25.3017 H   0  0  0  0  0  0
    6.5011   21.7654   25.6343 H   0  0  0  0  0  0
    7.4984   23.6723   26.4984 H   0  0  0  0  0  0
    8.2296   26.0329   26.2555 H   0  0  0  0  0  0
    8.2100   28.0478   25.1013 H   0  0  0  0  0  0
    5.8871   26.4381   22.6571 H   0  0  0  0  0  0
    5.1196   24.0789   22.9136 H   0  0  0  0  0  0
    6.4338   22.2560   21.4652 H   0  0  0  0  0  0
    8.3322   24.8091   21.9739 H   0  0  0  0  0  0
    9.5803   24.6079   20.6980 H   0  0  0  0  0  0
    6.6514   23.0205   19.7839 H   0  0  0  0  0  0
    5.0836   24.0078   18.1172 H   0  0  0  0  0  0
    5.3086   26.4277   17.5514 H   0  0  0  0  0  0
    7.0651   27.8040   18.6180 H   0  0  0  0  0  0
    8.6550   26.8227   20.2732 H   0  0  0  0  0  0
  1  2  2  0  0  0
  1  7  1  0  0  0
  1 47  1  0  0  0
  2  3  1  0  0  0
  2 48  1  0  0  0
  3  4  1  0  0  0
  3  5  2  0  0  0
  4 49  1  0  0  0
  5  6  1  0  0  0
  5 50  1  0  0  0
  6  7  2  0  0  0
  6 51  1  0  0  0
  7  8  1  0  0  0
  8  9  1  0  0  0
  8 52  1  0  0  0
  8 53  1  0  0  0
  9 10  1  0  0  0
  9 13  1  0  0  0
  9 54  1  0  0  0
 10 11  1  0  0  0
 10 12  2  0  0  0
 13 14  1  0  0  0
 13 55  1  0  0  0
 14 15  2  0  0  0
 14 16  1  0  0  0
 16 17  1  0  0  0
 16 24  1  0  0  0
 16 56  1  0  0  0
 17 18  1  0  0  0
 17 57  1  0  0  0
 17 58  1  0  0  0
 18 19  2  0  0  0
 18 23  1  0  0  0
 19 20  1  0  0  0
 19 59  1  0  0  0
 20 21  2  0  0  0
 20 60  1  0  0  0
 21 22  1  0  0  0
 21 61  1  0  0  0
 22 23  2  0  0  0
 22 62  1  0  0  0
 23 63  1  0  0  0
 24 25  1  0  0  0
 24 64  1  0  0  0
 25 26  2  0  0  0
 25 27  1  0  0  0
 27 28  1  0  0  0
 27 36  1  0  0  0
 27 65  1  0  0  0
 28 29  1  0  0  0
 28 66  1  0  0  0
 28 67  1  0  0  0
 29 30  2  0  0  0
 29 35  1  0  0  0
 30 31  1  0  0  0
 30 68  1  0  0  0
 31 32  2  0  0  0
 31 69  1  0  0  0
 32 33  1  0  0  0
 32 34  1  0  0  0
 33 70  1  0  0  0
 34 35  2  0  0  0
 34 71  1  0  0  0
 35 72  1  0  0  0
 36 37  1  0  0  0
 36 73  1  0  0  0
 37 38  2  0  0  0
 37 39  1  0  0  0
 39 40  1  0  0  0
 40 41  1  0  0  0
 40 74  1  0  0  0
 40 75  1  0  0  0
 41 42  2  0  0  0
 41 46  1  0  0  0
 42 43  1  0  0  0
 42 76  1  0  0  0
 43 44  2  0  0  0
 43 77  1  0  0  0
 44 45  1  0  0  0
 44 78  1  0  0  0
 45 46  2  0  0  0
 45 79  1  0  0  0
 46 80  1  0  0  0
M  CHG  1  11  -1
M  END
> <s_m_source_file>
../3hxb_ligand.sdf

> <i_m_source_file_index>
1

> <s_epik_input>
W09IXWMxW2NIXVtjSF1jKFtjSF1bY0hdMSlbQ0gyXVtDQEBIXShDKD1PKVtPSF0pW05IXUMoPU8pW0NASF0oW0NIMl1jMltjSF1bY0hdW2NIXVtjSF1bY0hdMilbTkhdQyg9TylbQ0BASF0oW0NIMl1jM1tjSF1bY0hdYyhbT0hdKVtjSF1bY0hdMylbTkhdQyg9TylPW0NIMl1jNFtjSF1bY0hdW2NIXVtjSF1bY0hdNA==

> <s_epik_cmdline>
J2VwaWtfYXBwJywgJy1pbWFlJywgJ2xpZ2FuZF9wcm8ubWFlJywgJy1vbWFlJywgJ2xpZ2FuZF9wcmVwLm1hZScsICctbXMnLCAnMScsICctcGgnLCAnNycsICctcGh0JywgJzAuNScsICctbnQn

> <r_lp_tautomer_probability>
1

> <r_epik_Ionization_Penalty>
  0.0015

> <r_epik_Ionization_Penalty_Charging>
  0.0002

> <r_epik_Ionization_Penalty_Neutral>
  0.0012

> <r_epik_State_Penalty>
 -0.0000

> <r_epik_Charging_Adjusted_Penalty>
0.000239746831435977

> <i_epik_Tot_Q>
-1

> <i_epik_Tot_abs_Q>
1

> <s_epik_Chemistry_Notes>
This compound has an ester and may undergo hydrolysis at high or low pH.

$$$$
