3hxc_ligand
                    3D
 Schrodinger Suite 2020-3.
 86 90  0  0  1  0            999 V2000
    6.6300   25.4020   19.6280 C   0  0  0  0  0  0
    5.2980   25.7610   19.4510 C   0  0  0  0  0  0
    4.9520   26.7920   18.5930 C   0  0  0  0  0  0
    5.9480   27.4610   17.9000 C   0  0  0  0  0  0
    7.2810   27.0980   18.0730 C   0  0  0  0  0  0
    7.6260   26.0700   18.9380 C   0  0  0  0  0  0
    8.7890   25.5310   19.2860 N   0  3  0  0  0  0
    8.5660   24.5530   20.1690 C   0  0  0  0  0  0
    7.2600   24.4520   20.4080 C   0  0  0  0  0  0
    6.5630   23.4590   21.3480 C   0  0  0  0  0  0
    6.2560   24.0400   22.7400 C   0  0  1  0  0  0
    5.2200   25.1800   22.6530 C   0  0  0  0  0  0
    4.0300   24.9760   22.3930 O   0  0  0  0  0  0
    5.7290   26.3860   22.8760 N   0  0  0  0  0  0
    4.9520   27.5060   22.8400 O   0  0  0  0  0  0
    5.7270   22.9670   23.6190 N   0  0  0  0  0  0
    5.6260   23.0660   24.9530 C   0  0  0  0  0  0
    5.9710   24.0530   25.6030 O   0  0  0  0  0  0
    5.0400   21.8250   25.6540 C   0  0  2  0  0  0
    4.2310   22.2710   26.8890 C   0  0  0  0  0  0
    3.6480   21.1100   27.6980 C   0  0  0  0  0  0
    4.3820   20.5570   28.7430 C   0  0  0  0  0  0
    3.8580   19.5060   29.4880 C   0  0  0  0  0  0
    2.5940   19.0020   29.1840 C   0  0  0  0  0  0
    1.8580   19.5540   28.1350 C   0  0  0  0  0  0
    2.3870   20.6110   27.3970 C   0  0  0  0  0  0
    6.1420   20.9010   26.0420 N   0  0  0  0  0  0
    7.4480   21.3800   26.5610 C   0  0  0  0  0  0
    6.0360   19.5580   25.9620 C   0  0  0  0  0  0
    6.9580   18.7990   26.2650 O   0  0  0  0  0  0
    4.7310   18.9590   25.4100 C   0  0  2  0  0  0
    4.1720   17.8580   26.3090 C   0  0  0  0  0  0
    2.8170   17.3110   25.8220 C   0  0  0  0  0  0
    2.1650   17.5990   24.6920 C   0  0  0  0  0  0
    1.0330   16.9000   24.6740 N   0  3  0  0  0  0
    0.9720   16.1810   25.7880 C   0  0  0  0  0  0
    2.0710   16.4340   26.4950 N   0  3  0  0  0  0
    5.1950   18.3990   24.1570 N   0  0  0  0  0  0
    5.1290   19.1150   23.0560 C   0  0  0  0  0  0
    4.6240   20.2390   23.0150 O   0  0  0  0  0  0
    5.6300   18.5710   21.9160 O   0  0  0  0  0  0
    6.0110   19.6720   21.0140 C   0  0  0  0  0  0
    7.0700   19.6450   20.1500 C   0  0  0  0  0  0
    7.9490   18.5640   20.1550 C   0  0  0  0  0  0
    9.0140   18.5660   19.2800 C   0  0  0  0  0  0
    9.1780   19.6520   18.4280 C   0  0  0  0  0  0
    8.3000   20.7260   18.4290 C   0  0  0  0  0  0
    7.2330   20.7360   19.2980 C   0  0  0  0  0  0
    4.5184   25.2256   19.9930 H   0  0  0  0  0  0
    3.9070   27.0741   18.4644 H   0  0  0  0  0  0
    5.6879   28.2716   17.2193 H   0  0  0  0  0  0
    8.0604   27.6263   17.5238 H   0  0  0  0  0  0
    9.2719   23.8800   20.6777 H   0  0  0  0  0  0
    5.6065   23.1445   20.9051 H   0  0  0  0  0  0
    7.2065   22.5789   21.4940 H   0  0  0  0  0  0
    7.1875   24.4206   23.1843 H   0  0  0  0  0  0
    6.8040   26.4692   23.0937 H   0  0  0  0  0  0
    5.4002   28.4927   23.0286 H   0  0  0  0  0  0
    5.3869   22.0162   23.1826 H   0  0  0  0  0  0
    4.3888   21.2598   24.9710 H   0  0  0  0  0  0
    4.8810   22.8459   27.5650 H   0  0  0  0  0  0
    3.3881   22.9004   26.5675 H   0  0  0  0  0  0
    5.3714   20.9491   28.9785 H   0  0  0  0  0  0
    4.4342   19.0772   30.3078 H   0  0  0  0  0  0
    2.1812   18.1775   29.7653 H   0  0  0  0  0  0
    0.8712   19.1592   27.8933 H   0  0  0  0  0  0
    1.8100   21.0473   26.5816 H   0  0  0  0  0  0
    7.4487   22.4795   26.5932 H   0  0  0  0  0  0
    8.2552   21.0320   25.8998 H   0  0  0  0  0  0
    7.6075   20.9833   27.5745 H   0  0  0  0  0  0
    3.9104   19.6792   25.2757 H   0  0  0  0  0  0
    4.8794   17.0162   26.3408 H   0  0  0  0  0  0
    4.0263   18.2531   27.3252 H   0  0  0  0  0  0
    2.5966   18.3123   23.9745 H   0  0  0  0  0  0
    0.2201   15.4766   26.1734 H   0  0  0  0  0  0
    5.6013   17.3772   24.1282 H   0  0  0  0  0  0
    5.1789   19.8885   20.3279 H   0  0  0  0  0  0
    6.2401   20.5695   21.6073 H   0  0  0  0  0  0
    7.7969   17.7299   20.8400 H   0  0  0  0  0  0
    9.7147   17.7314   19.2566 H   0  0  0  0  0  0
   10.0220   19.6599   17.7383 H   0  0  0  0  0  0
    8.4548   21.5593   17.7436 H   0  0  0  0  0  0
    6.5353   21.5732   19.3194 H   0  0  0  0  0  0
    9.7243   25.9123   18.8502 H   0  0  0  0  0  0
    2.2275   15.9385   27.4645 H   0  0  0  0  0  0
    0.3447   16.9897   23.8207 H   0  0  0  0  0  0
  1  2  2  0  0  0
  1  6  1  0  0  0
  1  9  1  0  0  0
  2  3  1  0  0  0
  2 49  1  0  0  0
  3  4  2  0  0  0
  3 50  1  0  0  0
  4  5  1  0  0  0
  4 51  1  0  0  0
  5  6  2  0  0  0
  5 52  1  0  0  0
  6  7  1  0  0  0
  7  8  1  0  0  0
  7 84  1  0  0  0
  8  9  2  0  0  0
  8 53  1  0  0  0
  9 10  1  0  0  0
 10 11  1  0  0  0
 10 54  1  0  0  0
 10 55  1  0  0  0
 11 12  1  0  0  0
 11 16  1  0  0  0
 11 56  1  0  0  0
 12 13  2  0  0  0
 12 14  1  0  0  0
 14 15  1  0  0  0
 14 57  1  0  0  0
 15 58  1  0  0  0
 16 17  1  0  0  0
 16 59  1  0  0  0
 17 18  2  0  0  0
 17 19  1  0  0  0
 19 20  1  0  0  0
 19 27  1  0  0  0
 19 60  1  0  0  0
 20 21  1  0  0  0
 20 61  1  0  0  0
 20 62  1  0  0  0
 21 22  2  0  0  0
 21 26  1  0  0  0
 22 23  1  0  0  0
 22 63  1  0  0  0
 23 24  2  0  0  0
 23 64  1  0  0  0
 24 25  1  0  0  0
 24 65  1  0  0  0
 25 26  2  0  0  0
 25 66  1  0  0  0
 26 67  1  0  0  0
 27 28  1  0  0  0
 27 29  1  0  0  0
 28 68  1  0  0  0
 28 69  1  0  0  0
 28 70  1  0  0  0
 29 30  2  0  0  0
 29 31  1  0  0  0
 31 32  1  0  0  0
 31 38  1  0  0  0
 31 71  1  0  0  0
 32 33  1  0  0  0
 32 72  1  0  0  0
 32 73  1  0  0  0
 33 34  2  0  0  0
 33 37  1  0  0  0
 34 35  1  0  0  0
 34 74  1  0  0  0
 35 36  1  0  0  0
 35 86  1  0  0  0
 36 37  2  0  0  0
 36 75  1  0  0  0
 37 85  1  0  0  0
 38 39  1  0  0  0
 38 76  1  0  0  0
 39 40  2  0  0  0
 39 41  1  0  0  0
 41 42  1  0  0  0
 42 43  1  0  0  0
 42 77  1  0  0  0
 42 78  1  0  0  0
 43 44  2  0  0  0
 43 48  1  0  0  0
 44 45  1  0  0  0
 44 79  1  0  0  0
 45 46  2  0  0  0
 45 80  1  0  0  0
 46 47  1  0  0  0
 46 81  1  0  0  0
 47 48  2  0  0  0
 47 82  1  0  0  0
 48 83  1  0  0  0
M  CHG  3   7   1  35   1  37   1
M  END
> <s_m_source_file>
../3hxc_ligand.sdf

> <i_m_source_file_index>
1

> <s_epik_input>
W2NIXTFbY0hdW2NIXVtjSF1jKGMxMilbbkhdW2NIXWMyW0NIMl1bQ0BASF0oQyg9TylbTkhdW09IXSlbTkhdQyg9TylbQ0BIXShbQ0gyXWMzW2NIXVtjSF1bY0hdW2NIXVtjSF0zKU4oW0NIM10pQyg9TylbQ0BIXShbQ0gyXWM0W2NIXVtuSF1bY0hdbjQpW05IXUMoPU8pT1tDSDJdYzVbY0hdW2NIXVtjSF1bY0hdW2NIXTU=

> <s_epik_cmdline>
J2VwaWtfYXBwJywgJy1pbWFlJywgJ2xpZ2FuZF9wcm8ubWFlJywgJy1vbWFlJywgJ2xpZ2FuZF9wcmVwLm1hZScsICctbXMnLCAnMScsICctcGgnLCAnNycsICctcGh0JywgJzAuNScsICctbnQn

> <r_lp_tautomer_probability>
1

> <r_epik_Ionization_Penalty>
 18.9847

> <r_epik_Ionization_Penalty_Charging>
 18.9734

> <r_epik_Ionization_Penalty_Neutral>
  0.0114

> <r_epik_State_Penalty>
 -0.0000

> <r_epik_Charging_Adjusted_Penalty>
18.9733699892507

> <i_epik_Tot_Q>
3

> <i_epik_Tot_abs_Q>
3

> <s_epik_Chemistry_Notes>
This compound has an ester and may undergo hydrolysis at high or low pH. This compound has an imine and may undergo hydrolysis. This compound has a N-S or N-O group and may undergo hydrolysis at high or low pH.

$$$$
