3hxe_ligand
                    3D
 Schrodinger Suite 2020-3.
112115  0  0  1  0            999 V2000
   -0.3340   28.1110   31.4690 C   0  0  0  0  0  0
   -0.3340   26.8650   30.5830 C   0  0  0  0  0  0
    0.1120   25.6170   31.3420 C   0  0  0  0  0  0
   -0.0130   24.3490   30.4590 C   0  0  0  0  0  0
    0.1110   23.1010   31.3240 C   0  0  0  0  0  0
    1.3110   22.2400   30.9080 C   0  0  0  0  0  0
    1.1240   21.6560   29.5100 C   0  0  0  0  0  0
    2.2040   22.2170   28.6090 C   0  0  0  0  0  0
    3.3630   21.2430   28.4950 C   0  0  0  0  0  0
    3.2160   20.5850   27.1470 C   0  0  0  0  0  0
    4.4630   19.8260   26.8120 C   0  0  0  0  0  0
    5.5970   20.2790   27.0510 O   0  0  0  0  0  0
    4.1340   18.6750   26.2540 N   0  0  0  0  0  0
    5.0630   17.6260   25.7840 C   0  0  1  0  0  0
    4.3720   16.5230   24.8890 C   0  0  0  0  0  0
    2.8490   16.4810   24.9200 C   0  0  0  0  0  0
    2.0300   16.7180   23.9100 C   0  0  0  0  0  0
    0.7990   16.5830   24.3820 N   0  0  0  0  0  0
    0.8450   16.2500   25.6660 C   0  0  0  0  0  0
    2.1220   16.1970   25.9900 N   0  3  0  0  0  0
    6.1140   18.1850   24.8400 C   0  0  0  0  0  0
    7.2380   17.6810   24.7870 O   0  0  0  0  0  0
    5.6740   19.1600   24.0610 N   0  0  0  0  0  0
    6.5780   19.7190   23.0460 C   0  0  1  0  0  0
    6.4680   18.6980   21.8620 C   0  0  0  0  0  0
    7.2220   19.2350   20.6120 C   0  0  0  0  0  0
    6.5900   20.1660   19.7740 C   0  0  0  0  0  0
    7.3230   20.6430   18.6580 C   0  0  0  0  0  0
    8.6480   20.2230   18.4580 C   0  0  0  0  0  0
    9.2580   19.3010   19.3090 C   0  0  0  0  0  0
    8.5650   18.8030   20.4190 C   0  0  0  0  0  0
    6.1030   21.0640   22.5170 C   0  0  0  0  0  0
    4.9110   21.3150   22.3450 O   0  0  0  0  0  0
    7.0790   21.9110   22.2370 N   0  0  0  0  0  0
    6.8160   23.2310   21.6240 C   0  0  1  0  0  0
    5.9800   24.1900   22.4720 C   0  0  0  0  0  0
    6.6490   24.4200   23.7890 C   0  0  0  0  0  0
    6.3900   23.5090   24.8490 C   0  0  0  0  0  0
    6.9700   23.7500   26.0900 C   0  0  0  0  0  0
    7.7990   24.8660   26.2470 C   0  0  0  0  0  0
    8.4290   25.0300   27.4500 O   0  0  0  0  0  0
    8.0300   25.7830   25.1830 C   0  0  0  0  0  0
    7.4490   25.5740   23.9270 C   0  0  0  0  0  0
    8.1680   23.8260   21.1220 C   0  0  0  0  0  0
    9.2020   23.4560   21.7140 O   0  0  0  0  0  0
    8.1520   24.6570   20.0550 N   0  0  0  0  0  0
    9.4510   25.1700   19.6100 C   0  0  0  0  0  0
    6.9440   25.0830   19.3240 C   0  0  0  0  0  0
    6.8890   26.6240   19.2890 C   0  0  0  0  0  0
    5.4960   26.9920   18.8320 C   0  0  0  0  0  0
    5.2930   27.7160   17.6740 C   0  0  0  0  0  0
    3.9910   28.0160   17.2820 C   0  0  0  0  0  0
    2.9260   27.5850   18.0680 C   0  0  0  0  0  0
    3.1860   26.8780   19.2250 C   0  0  0  0  0  0
    4.4430   26.6010   19.5660 N   0  0  0  0  0  0
   -0.6611   28.9801   30.8794 H   0  0  0  0  0  0
    0.6819   28.2888   31.8516 H   0  0  0  0  0  0
   -1.0227   27.9605   32.3134 H   0  0  0  0  0  0
   -1.3499   26.6872   30.2004 H   0  0  0  0  0  0
    0.3547   27.0155   29.7386 H   0  0  0  0  0  0
    1.1627   25.7296   31.6474 H   0  0  0  0  0  0
   -0.5173   25.4863   32.2347 H   0  0  0  0  0  0
   -0.9917   24.3469   29.9569 H   0  0  0  0  0  0
    0.7866   24.3479   29.7036 H   0  0  0  0  0  0
    0.2438   23.3954   32.3755 H   0  0  0  0  0  0
   -0.8013   22.4944   31.2255 H   0  0  0  0  0  0
    2.2221   22.8563   30.9084 H   0  0  0  0  0  0
    1.4301   21.4091   31.6189 H   0  0  0  0  0  0
    1.2048   20.5600   29.5567 H   0  0  0  0  0  0
    0.1315   21.9345   29.1260 H   0  0  0  0  0  0
    1.7886   22.3959   27.6063 H   0  0  0  0  0  0
    2.5744   23.1647   29.0269 H   0  0  0  0  0  0
    4.3128   21.7930   28.5689 H   0  0  0  0  0  0
    3.3027   20.5045   29.3080 H   0  0  0  0  0  0
    2.3633   19.8905   27.1691 H   0  0  0  0  0  0
    3.0424   21.3545   26.3803 H   0  0  0  0  0  0
    3.0479   18.5335   26.1526 H   0  0  0  0  0  0
    5.4626   17.2713   26.7455 H   0  0  0  0  0  0
    4.6477   16.6799   23.8357 H   0  0  0  0  0  0
    4.7075   15.5262   25.2113 H   0  0  0  0  0  0
    2.3119   16.9743   22.8888 H   0  0  0  0  0  0
   -0.0041   16.0584   26.3221 H   0  0  0  0  0  0
    4.6515   19.5526   24.1629 H   0  0  0  0  0  0
    7.5640   19.8746   23.5082 H   0  0  0  0  0  0
    6.9121   17.7378   22.1634 H   0  0  0  0  0  0
    5.4091   18.5476   21.6047 H   0  0  0  0  0  0
    5.5748   20.5093   19.9732 H   0  0  0  0  0  0
    6.8584   21.3352   17.9558 H   0  0  0  0  0  0
    9.2132   20.6269   17.6181 H   0  0  0  0  0  0
   10.2764   18.9676   19.1093 H   0  0  0  0  0  0
    9.0379   18.1076   21.1125 H   0  0  0  0  0  0
    8.1103   21.6099   22.4730 H   0  0  0  0  0  0
    6.1346   23.0263   20.7851 H   0  0  0  0  0  0
    5.8764   25.1501   21.9452 H   0  0  0  0  0  0
    4.9838   23.7557   22.6421 H   0  0  0  0  0  0
    5.7506   22.6402   24.6926 H   0  0  0  0  0  0
    6.7814   23.0791   26.9281 H   0  0  0  0  0  0
    8.2462   24.3179   28.2682 H   0  0  0  0  0  0
    8.6640   26.6542   25.3477 H   0  0  0  0  0  0
    7.6062   26.2659   23.0995 H   0  0  0  0  0  0
   10.2457   24.7625   20.2522 H   0  0  0  0  0  0
    9.4535   26.2680   19.6755 H   0  0  0  0  0  0
    9.6286   24.8644   18.5683 H   0  0  0  0  0  0
    6.9800   24.6916   18.2966 H   0  0  0  0  0  0
    6.0505   24.6933   19.8337 H   0  0  0  0  0  0
    7.0910   27.0210   20.2948 H   0  0  0  0  0  0
    7.6464   27.0021   18.5866 H   0  0  0  0  0  0
    6.1406   28.0483   17.0747 H   0  0  0  0  0  0
    3.8076   28.5825   16.3690 H   0  0  0  0  0  0
    1.8994   27.8030   17.7736 H   0  0  0  0  0  0
    2.3632   26.5469   19.8586 H   0  0  0  0  0  0
    2.6161   15.9685   26.9458 H   0  0  0  0  0  0
  1  2  1  0  0  0
  1 56  1  0  0  0
  1 57  1  0  0  0
  1 58  1  0  0  0
  2  3  1  0  0  0
  2 59  1  0  0  0
  2 60  1  0  0  0
  3  4  1  0  0  0
  3 61  1  0  0  0
  3 62  1  0  0  0
  4  5  1  0  0  0
  4 63  1  0  0  0
  4 64  1  0  0  0
  5  6  1  0  0  0
  5 65  1  0  0  0
  5 66  1  0  0  0
  6  7  1  0  0  0
  6 67  1  0  0  0
  6 68  1  0  0  0
  7  8  1  0  0  0
  7 69  1  0  0  0
  7 70  1  0  0  0
  8  9  1  0  0  0
  8 71  1  0  0  0
  8 72  1  0  0  0
  9 10  1  0  0  0
  9 73  1  0  0  0
  9 74  1  0  0  0
 10 11  1  0  0  0
 10 75  1  0  0  0
 10 76  1  0  0  0
 11 12  2  0  0  0
 11 13  1  0  0  0
 13 14  1  0  0  0
 13 77  1  0  0  0
 14 15  1  0  0  0
 14 21  1  0  0  0
 14 78  1  0  0  0
 15 16  1  0  0  0
 15 79  1  0  0  0
 15 80  1  0  0  0
 16 17  2  0  0  0
 16 20  1  0  0  0
 17 18  1  0  0  0
 17 81  1  0  0  0
 18 19  1  0  0  0
 19 20  2  0  0  0
 19 82  1  0  0  0
 20112  1  0  0  0
 21 22  2  0  0  0
 21 23  1  0  0  0
 23 24  1  0  0  0
 23 83  1  0  0  0
 24 25  1  0  0  0
 24 32  1  0  0  0
 24 84  1  0  0  0
 25 26  1  0  0  0
 25 85  1  0  0  0
 25 86  1  0  0  0
 26 27  2  0  0  0
 26 31  1  0  0  0
 27 28  1  0  0  0
 27 87  1  0  0  0
 28 29  2  0  0  0
 28 88  1  0  0  0
 29 30  1  0  0  0
 29 89  1  0  0  0
 30 31  2  0  0  0
 30 90  1  0  0  0
 31 91  1  0  0  0
 32 33  2  0  0  0
 32 34  1  0  0  0
 34 35  1  0  0  0
 34 92  1  0  0  0
 35 36  1  0  0  0
 35 44  1  0  0  0
 35 93  1  0  0  0
 36 37  1  0  0  0
 36 94  1  0  0  0
 36 95  1  0  0  0
 37 38  2  0  0  0
 37 43  1  0  0  0
 38 39  1  0  0  0
 38 96  1  0  0  0
 39 40  2  0  0  0
 39 97  1  0  0  0
 40 41  1  0  0  0
 40 42  1  0  0  0
 41 98  1  0  0  0
 42 43  2  0  0  0
 42 99  1  0  0  0
 43100  1  0  0  0
 44 45  2  0  0  0
 44 46  1  0  0  0
 46 47  1  0  0  0
 46 48  1  0  0  0
 47101  1  0  0  0
 47102  1  0  0  0
 47103  1  0  0  0
 48 49  1  0  0  0
 48104  1  0  0  0
 48105  1  0  0  0
 49 50  1  0  0  0
 49106  1  0  0  0
 49107  1  0  0  0
 50 51  2  0  0  0
 50 55  1  0  0  0
 51 52  1  0  0  0
 51108  1  0  0  0
 52 53  2  0  0  0
 52109  1  0  0  0
 53 54  1  0  0  0
 53110  1  0  0  0
 54 55  2  0  0  0
 54111  1  0  0  0
M  CHG  1  20   1
M  END
> <s_m_source_file>
../3hxe_ligand.sdf

> <i_m_source_file_index>
1

> <s_epik_input>
W0NIM11bQ0gyXVtDSDJdW0NIMl1bQ0gyXVtDSDJdW0NIMl1bQ0gyXVtDSDJdW0NIMl1DKD1PKVtOSF1bQ0BASF0oW0NIMl1jMVtjSF1bbkhdW2NIXW4xKUMoPU8pW05IXVtDQEBIXShbQ0gyXWMyW2NIXVtjSF1bY0hdW2NIXVtjSF0yKUMoPU8pW05IXVtDQEBIXShbQ0gyXWMzW2NIXVtjSF1jKFtPSF0pW2NIXVtjSF0zKUMoPU8pTihbQ0gzXSlbQ0gyXVtDSDJdYzRbY0hdW2NIXVtjSF1bY0hdbjQ=

> <s_epik_cmdline>
J2VwaWtfYXBwJywgJy1pbWFlJywgJ2xpZ2FuZF9wcm8ubWFlJywgJy1vbWFlJywgJ2xpZ2FuZF9wcmVwLm1hZScsICctbXMnLCAnMScsICctcGgnLCAnNycsICctcGh0JywgJzAuNScsICctbnQn

> <r_epik_Ionization_Penalty>
  0.5457

> <r_epik_Ionization_Penalty_Charging>
  0.0000

> <r_epik_Ionization_Penalty_Neutral>
  0.5457

> <r_epik_State_Penalty>
  0.0002

> <r_epik_Charging_Adjusted_Penalty>
0.00015991245714795

> <i_epik_Tot_Q>
1

> <i_epik_Tot_abs_Q>
1

$$$$
