3hxf_ligand
                    3D
 Schrodinger Suite 2020-3.
109112  0  0  1  0            999 V2000
    2.8970   26.9640   18.8130 C   0  0  0  0  0  0
    3.6960   27.9520   17.9640 C   0  0  0  0  0  0
    5.2210   27.7460   17.8900 C   0  0  0  0  0  0
    5.9090   26.9850   19.0190 C   0  0  0  0  0  0
    7.0470   26.1560   18.4470 C   0  0  0  0  0  0
    8.1550   25.8360   19.4540 C   0  0  0  0  0  0
    8.3420   24.3310   19.6690 C   0  0  0  0  0  0
    7.1730   23.4610   19.2500 C   0  0  0  0  0  0
    7.4760   22.0300   19.5710 C   0  0  0  0  0  0
    6.7990   21.0000   18.6930 C   0  0  0  0  0  0
    6.4830   19.8710   19.6820 C   0  0  0  0  0  0
    7.4220   19.3920   20.3200 O   0  0  0  0  0  0
    5.2080   19.4950   19.7660 N   0  0  0  0  0  0
    4.6480   18.5100   20.6890 C   0  0  1  0  0  0
    5.0300   17.0380   20.5230 C   0  0  0  0  0  0
    4.3120   16.0890   21.5210 C   0  0  0  0  0  0
    3.0030   15.9700   21.7050 C   0  0  0  0  0  0
    2.7980   15.0560   22.6460 N   0  3  0  0  0  0
    3.9600   14.6010   23.0810 C   0  0  0  0  0  0
    4.9010   15.2380   22.3870 N   0  0  0  0  0  0
    4.7710   19.2120   22.0920 C   0  0  0  0  0  0
    4.6590   20.4310   22.0510 O   0  0  0  0  0  0
    4.9860   18.5690   23.2620 N   0  0  0  0  0  0
    4.9870   19.3410   24.5450 C   0  0  1  0  0  0
    4.7640   18.3880   25.7240 C   0  0  0  0  0  0
    3.4210   17.6440   25.5500 C   0  0  0  0  0  0
    2.4760   17.8340   24.6350 C   0  0  0  0  0  0
    1.4720   16.9400   24.8370 N   0  0  0  0  0  0
    1.7780   16.2080   25.8820 C   0  0  0  0  0  0
    2.9770   16.6310   26.3070 N   0  3  0  0  0  0
    6.2630   20.1650   24.7620 C   0  0  0  0  0  0
    7.3520   19.5960   24.6350 O   0  0  0  0  0  0
    6.0540   21.4650   25.0400 N   0  0  0  0  0  0
    7.1460   22.4270   25.3000 C   0  0  1  0  0  0
    7.5200   23.1910   24.0220 C   0  0  0  0  0  0
    6.6350   24.3710   23.5600 C   0  0  0  0  0  0
    5.5280   24.1130   22.7630 C   0  0  0  0  0  0
    4.7300   25.1650   22.3150 C   0  0  0  0  0  0
    5.0490   26.4870   22.6370 C   0  0  0  0  0  0
    4.2680   27.4980   22.1840 O   0  0  0  0  0  0
    6.1800   26.7440   23.4250 C   0  0  0  0  0  0
    6.9660   25.6920   23.8770 C   0  0  0  0  0  0
    6.6710   23.4820   26.2640 C   0  0  0  0  0  0
    5.4790   23.6710   26.2690 O   0  0  0  0  0  0
    7.5480   24.1490   27.0470 N   0  0  0  0  0  0
    6.9560   25.1650   27.9560 C   0  0  0  0  0  0
    9.0040   23.8820   27.0950 C   0  0  0  0  0  0
    9.3750   23.2370   28.4820 C   0  0  0  0  0  0
    8.6160   21.9370   28.6570 C   0  0  0  0  0  0
    8.9020   20.8830   27.8420 C   0  0  0  0  0  0
    8.1870   19.6780   27.9700 C   0  0  0  0  0  0
    7.1560   19.6280   28.9240 C   0  0  0  0  0  0
    6.9010   20.7240   29.7340 C   0  0  0  0  0  0
    7.6140   21.8400   29.5720 N   0  0  0  0  0  0
    1.8298   27.2282   18.7761 H   0  0  0  0  0  0
    3.2495   27.0065   19.8541 H   0  0  0  0  0  0
    3.0366   25.9462   18.4199 H   0  0  0  0  0  0
    3.3435   27.9095   16.9229 H   0  0  0  0  0  0
    3.5564   28.9698   18.3571 H   0  0  0  0  0  0
    5.4711   27.1827   16.9789 H   0  0  0  0  0  0
    5.7225   28.7247   17.8652 H   0  0  0  0  0  0
    6.3080   27.7002   19.7534 H   0  0  0  0  0  0
    5.1819   26.3219   19.5106 H   0  0  0  0  0  0
    6.6537   25.1955   18.0825 H   0  0  0  0  0  0
    7.5146   26.7008   17.6136 H   0  0  0  0  0  0
    9.1094   26.2456   19.0915 H   0  0  0  0  0  0
    7.9082   26.2871   20.4264 H   0  0  0  0  0  0
    9.2104   23.9831   19.0903 H   0  0  0  0  0  0
    8.5096   24.1313   20.7376 H   0  0  0  0  0  0
    6.2692   23.7752   19.7925 H   0  0  0  0  0  0
    7.0065   23.5669   18.1678 H   0  0  0  0  0  0
    8.5574   21.8534   19.4737 H   0  0  0  0  0  0
    7.1600   21.8105   20.6015 H   0  0  0  0  0  0
    5.8953   21.4380   18.2441 H   0  0  0  0  0  0
    7.4894   20.6868   17.8960 H   0  0  0  0  0  0
    4.5537   20.0082   19.0459 H   0  0  0  0  0  0
    3.6121   18.3009   20.3836 H   0  0  0  0  0  0
    4.7687   16.7036   19.5082 H   0  0  0  0  0  0
    6.1122   16.9200   20.6806 H   0  0  0  0  0  0
    2.3066   16.5829   21.1140 H   0  0  0  0  0  0
    4.2449   13.8601   23.8425 H   0  0  0  0  0  0
    5.1597   17.4829   23.2735 H   0  0  0  0  0  0
    4.1543   20.0542   24.4556 H   0  0  0  0  0  0
    5.5832   17.6549   25.7629 H   0  0  0  0  0  0
    4.7420   18.9632   26.6614 H   0  0  0  0  0  0
    2.5019   18.5872   23.8475 H   0  0  0  0  0  0
    1.1753   15.4118   26.3190 H   0  0  0  0  0  0
    5.0069   21.8007   25.0685 H   0  0  0  0  0  0
    7.9781   21.8292   25.7004 H   0  0  0  0  0  0
    8.5219   23.6302   24.1373 H   0  0  0  0  0  0
    7.5194   22.4985   23.1673 H   0  0  0  0  0  0
    5.2825   23.0874   22.4873 H   0  0  0  0  0  0
    3.8494   24.9544   21.7081 H   0  0  0  0  0  0
    3.3847   27.2766   21.5670 H   0  0  0  0  0  0
    6.4424   27.7700   23.6829 H   0  0  0  0  0  0
    7.8479   25.8978   24.4837 H   0  0  0  0  0  0
    5.8719   25.2269   27.7802 H   0  0  0  0  0  0
    7.4159   26.1448   27.7598 H   0  0  0  0  0  0
    7.1421   24.8751   29.0007 H   0  0  0  0  0  0
    9.2768   23.1900   26.2846 H   0  0  0  0  0  0
    9.5543   24.8264   26.9714 H   0  0  0  0  0  0
   10.4561   23.0366   28.5157 H   0  0  0  0  0  0
    9.1051   23.9299   29.2926 H   0  0  0  0  0  0
    9.6857   20.9736   27.0899 H   0  0  0  0  0  0
    8.4244   18.8130   27.3507 H   0  0  0  0  0  0
    6.5549   18.7246   29.0274 H   0  0  0  0  0  0
    6.1242   20.6743   30.4971 H   0  0  0  0  0  0
    3.5863   16.2629   27.1456 H   0  0  0  0  0  0
    1.7720   14.7926   22.9427 H   0  0  0  0  0  0
  1  2  1  0  0  0
  1 55  1  0  0  0
  1 56  1  0  0  0
  1 57  1  0  0  0
  2  3  1  0  0  0
  2 58  1  0  0  0
  2 59  1  0  0  0
  3  4  1  0  0  0
  3 60  1  0  0  0
  3 61  1  0  0  0
  4  5  1  0  0  0
  4 62  1  0  0  0
  4 63  1  0  0  0
  5  6  1  0  0  0
  5 64  1  0  0  0
  5 65  1  0  0  0
  6  7  1  0  0  0
  6 66  1  0  0  0
  6 67  1  0  0  0
  7  8  1  0  0  0
  7 68  1  0  0  0
  7 69  1  0  0  0
  8  9  1  0  0  0
  8 70  1  0  0  0
  8 71  1  0  0  0
  9 10  1  0  0  0
  9 72  1  0  0  0
  9 73  1  0  0  0
 10 11  1  0  0  0
 10 74  1  0  0  0
 10 75  1  0  0  0
 11 12  2  0  0  0
 11 13  1  0  0  0
 13 14  1  0  0  0
 13 76  1  0  0  0
 14 15  1  0  0  0
 14 21  1  0  0  0
 14 77  1  0  0  0
 15 16  1  0  0  0
 15 78  1  0  0  0
 15 79  1  0  0  0
 16 17  2  0  0  0
 16 20  1  0  0  0
 17 18  1  0  0  0
 17 80  1  0  0  0
 18 19  1  0  0  0
 18109  1  0  0  0
 19 20  2  0  0  0
 19 81  1  0  0  0
 21 22  2  0  0  0
 21 23  1  0  0  0
 23 24  1  0  0  0
 23 82  1  0  0  0
 24 25  1  0  0  0
 24 31  1  0  0  0
 24 83  1  0  0  0
 25 26  1  0  0  0
 25 84  1  0  0  0
 25 85  1  0  0  0
 26 27  2  0  0  0
 26 30  1  0  0  0
 27 28  1  0  0  0
 27 86  1  0  0  0
 28 29  1  0  0  0
 29 30  2  0  0  0
 29 87  1  0  0  0
 30108  1  0  0  0
 31 32  2  0  0  0
 31 33  1  0  0  0
 33 34  1  0  0  0
 33 88  1  0  0  0
 34 35  1  0  0  0
 34 43  1  0  0  0
 34 89  1  0  0  0
 35 36  1  0  0  0
 35 90  1  0  0  0
 35 91  1  0  0  0
 36 37  2  0  0  0
 36 42  1  0  0  0
 37 38  1  0  0  0
 37 92  1  0  0  0
 38 39  2  0  0  0
 38 93  1  0  0  0
 39 40  1  0  0  0
 39 41  1  0  0  0
 40 94  1  0  0  0
 41 42  2  0  0  0
 41 95  1  0  0  0
 42 96  1  0  0  0
 43 44  2  0  0  0
 43 45  1  0  0  0
 45 46  1  0  0  0
 45 47  1  0  0  0
 46 97  1  0  0  0
 46 98  1  0  0  0
 46 99  1  0  0  0
 47 48  1  0  0  0
 47100  1  0  0  0
 47101  1  0  0  0
 48 49  1  0  0  0
 48102  1  0  0  0
 48103  1  0  0  0
 49 50  2  0  0  0
 49 54  1  0  0  0
 50 51  1  0  0  0
 50104  1  0  0  0
 51 52  2  0  0  0
 51105  1  0  0  0
 52 53  1  0  0  0
 52106  1  0  0  0
 53 54  2  0  0  0
 53107  1  0  0  0
M  CHG  2  18   1  30   1
M  END
> <s_m_source_file>
../3hxf_ligand.sdf

> <i_m_source_file_index>
1

> <s_epik_input>
W0NIM11bQ0gyXVtDSDJdW0NIMl1bQ0gyXVtDSDJdW0NIMl1bQ0gyXVtDSDJdW0NIMl1DKD1PKVtOSF1bQ0BASF0oW0NIMl1jMVtjSF1bbkhdW2NIXW4xKUMoPU8pW05IXVtDQEBIXShbQ0gyXWMyW2NIXVtuSF1bY0hdbjIpQyg9TylbTkhdW0NAQEhdKFtDSDJdYzNbY0hdW2NIXWMoW09IXSlbY0hdW2NIXTMpQyg9TylOKFtDSDNdKVtDSDJdW0NIMl1jNFtjSF1bY0hdW2NIXVtjSF1uNA==

> <s_epik_cmdline>
J2VwaWtfYXBwJywgJy1pbWFlJywgJ2xpZ2FuZF9wcm8ubWFlJywgJy1vbWFlJywgJ2xpZ2FuZF9wcmVwLm1hZScsICctbXMnLCAnMScsICctcGgnLCAnNycsICctcGh0JywgJzAuNScsICctbnQn

> <r_epik_Ionization_Penalty>
  0.4870

> <r_epik_Ionization_Penalty_Charging>
  0.0033

> <r_epik_Ionization_Penalty_Neutral>
  0.4837

> <r_epik_State_Penalty>
  0.2317

> <r_epik_Charging_Adjusted_Penalty>
0.234971135980891

> <i_epik_Tot_Q>
2

> <i_epik_Tot_abs_Q>
2

> <s_epik_Chemistry_Notes>
This compound has an imine and may undergo hydrolysis.

$$$$
