3hxi_ligand
                    3D
 Schrodinger Suite 2020-3.
 78 83  0  0  1  0            999 V2000
   35.0610   18.6070    3.4120 P   0  0  1  0  0  0
   34.7370   17.9350    2.1050 O   0  0  0  0  0  0
   33.9850   18.9630    4.4150 O   0  5  0  0  0  0
   36.2170   17.8450    4.2250 O   0  0  0  0  0  0
   36.8330   16.3960    3.9980 P   0  0  2  0  0  0
   35.7560   15.3400    3.9600 O   0  0  0  0  0  0
   37.9630   16.2800    5.0160 O   0  5  0  0  0  0
   37.5250   16.5920    2.5600 O   0  0  0  0  0  0
   34.9000   23.7060    1.7710 N   0  3  0  0  0  0
   33.9860   22.9410    2.3770 C   0  0  0  0  0  0
   32.8760   23.6820    2.5940 N   0  0  0  0  0  0
   31.6510   23.1560    3.2460 C   0  0  0  0  0  0
   33.1140   24.9070    2.1190 C   0  0  0  0  0  0
   32.3180   26.0580    2.0850 C   0  0  0  0  0  0
   31.1520   26.0960    2.5420 O   0  0  0  0  0  0
   32.8550   27.1810    1.5460 N   0  0  0  0  0  0
   34.1260   27.1600    1.0330 C   0  0  0  0  0  0
   34.6790   28.2580    0.4870 N   0  0  0  0  0  0
   34.8870   26.0430    1.0650 N   0  0  0  0  0  0
   34.3840   24.9160    1.5980 C   0  0  0  0  0  0
   35.7630   19.9760    3.0360 O   0  0  0  0  0  0
   36.9330   19.9520    2.2250 C   0  0  0  0  0  0
   37.3410   21.3710    1.8980 C   0  0  1  0  0  0
   36.3480   21.9440    1.0590 O   0  0  0  0  0  0
   37.4250   22.2830    3.1050 C   0  0  1  0  0  0
   38.6700   22.1330    3.7840 O   0  0  0  0  0  0
   37.2560   23.6410    2.4670 C   0  0  1  0  0  0
   38.5040   24.0730    1.9040 O   0  0  0  0  0  0
   36.2720   23.3410    1.3420 C   0  0  2  0  0  0
   38.1790   15.4550    1.6320 P   0  0  2  0  0  0
   37.6950   14.0770    1.9540 O   0  0  0  0  0  0
   39.6710   15.7240    1.5410 O   0  5  0  0  0  0
   37.5480   15.8920    0.2200 O   0  0  0  0  0  0
   36.1680   15.6560   -0.0530 C   0  0  0  0  0  0
   35.8480   16.0650   -1.4760 C   0  0  1  0  0  0
   36.0570   17.4740   -1.6080 O   0  0  0  0  0  0
   36.7610   15.4160   -2.5000 C   0  0  1  0  0  0
   36.0190   15.3310   -3.7280 O   0  0  0  0  0  0
   37.8860   16.4220   -2.6970 C   0  0  1  0  0  0
   38.5200   16.3110   -3.9820 O   0  0  0  0  0  0
   37.1070   17.7230   -2.5630 C   0  0  2  0  0  0
   37.8390   18.9090   -2.0760 N   0  0  0  0  0  0
   38.4110   18.7640   -0.7580 C   0  0  0  0  0  0
   38.9960   20.0870   -0.5640 N   0  0  0  0  0  0
   38.7120   20.8490   -1.6630 C   0  0  0  0  0  0
   39.0210   22.2410   -2.0350 C   0  0  0  0  0  0
   39.6780   22.9370   -1.2150 O   0  0  0  0  0  0
   38.5950   22.6900   -3.2500 N   0  3  0  0  0  0
   37.8800   21.8910   -4.1150 C   0  0  0  0  0  0
   37.4550   22.3570   -5.3160 N   0  0  0  0  0  0
   37.5610   20.6050   -3.8290 N   0  0  0  0  0  0
   37.9370   20.0740   -2.6480 C   0  0  0  0  0  0
   34.1144   21.8938    2.6507 H   0  0  0  0  0  0
   31.8026   22.0998    3.5132 H   0  0  0  0  0  0
   30.8014   23.2405    2.5524 H   0  0  0  0  0  0
   31.4411   23.7379    4.1556 H   0  0  0  0  0  0
   34.1508   29.1297    0.4486 H   0  0  0  0  0  0
   35.9084   26.0615    0.6571 H   0  0  0  0  0  0
   37.7464   19.4504    2.7697 H   0  0  0  0  0  0
   36.7229   19.4047    1.2943 H   0  0  0  0  0  0
   38.3129   21.3223    1.3851 H   0  0  0  0  0  0
   36.7252   22.0742    3.9276 H   0  0  0  0  0  0
   38.9102   21.1860    4.2896 H   0  0  0  0  0  0
   36.9710   24.4479    3.1581 H   0  0  0  0  0  0
   39.3433   24.3366    2.5643 H   0  0  0  0  0  0
   36.5009   23.8780    0.4096 H   0  0  0  0  0  0
   35.9464   14.5863    0.0761 H   0  0  0  0  0  0
   35.5509   16.2447    0.6417 H   0  0  0  0  0  0
   34.7961   15.8090   -1.6708 H   0  0  0  0  0  0
   37.1030   14.4030   -2.2413 H   0  0  0  0  0  0
   35.1548   14.6545   -3.8027 H   0  0  0  0  0  0
   38.7597   16.2954   -2.0407 H   0  0  0  0  0  0
   39.1198   15.4214   -4.2243 H   0  0  0  0  0  0
   36.7533   18.0023   -3.5665 H   0  0  0  0  0  0
   38.4070   17.9022   -0.0906 H   0  0  0  0  0  0
   37.6780   23.3919   -5.6146 H   0  0  0  0  0  0
   36.8873   21.6999   -5.9913 H   0  0  0  0  0  0
   38.8202   23.7194   -3.5658 H   0  0  0  0  0  0
  1  2  2  0  0  0
  1  3  1  0  0  0
  1  4  1  0  0  0
  1 21  1  0  0  0
  4  5  1  0  0  0
  5  6  2  0  0  0
  5  7  1  0  0  0
  5  8  1  0  0  0
  8 30  1  0  0  0
  9 10  2  0  0  0
  9 20  1  0  0  0
  9 29  1  0  0  0
 10 11  1  0  0  0
 10 53  1  0  0  0
 11 12  1  0  0  0
 11 13  1  0  0  0
 12 54  1  0  0  0
 12 55  1  0  0  0
 12 56  1  0  0  0
 13 14  1  0  0  0
 13 20  2  0  0  0
 14 15  2  0  0  0
 14 16  1  0  0  0
 16 17  1  0  0  0
 17 18  2  0  0  0
 17 19  1  0  0  0
 18 57  1  0  0  0
 19 20  1  0  0  0
 19 58  1  0  0  0
 21 22  1  0  0  0
 22 23  1  0  0  0
 22 59  1  0  0  0
 22 60  1  0  0  0
 23 24  1  0  0  0
 23 25  1  0  0  0
 23 61  1  0  0  0
 24 29  1  0  0  0
 25 26  1  0  0  0
 25 27  1  0  0  0
 25 62  1  0  0  0
 26 63  1  0  0  0
 27 28  1  0  0  0
 27 29  1  0  0  0
 27 64  1  0  0  0
 28 65  1  0  0  0
 29 66  1  0  0  0
 30 31  2  0  0  0
 30 32  1  0  0  0
 30 33  1  0  0  0
 33 34  1  0  0  0
 34 35  1  0  0  0
 34 67  1  0  0  0
 34 68  1  0  0  0
 35 36  1  0  0  0
 35 37  1  0  0  0
 35 69  1  0  0  0
 36 41  1  0  0  0
 37 38  1  0  0  0
 37 39  1  0  0  0
 37 70  1  0  0  0
 38 71  1  0  0  0
 39 40  1  0  0  0
 39 41  1  0  0  0
 39 72  1  0  0  0
 40 73  1  0  0  0
 41 42  1  0  0  0
 41 74  1  0  0  0
 42 43  1  0  0  0
 42 52  1  0  0  0
 43 44  2  0  0  0
 43 75  1  0  0  0
 44 45  1  0  0  0
 45 46  1  0  0  0
 45 52  2  0  0  0
 46 47  2  0  0  0
 46 48  1  0  0  0
 48 49  1  0  0  0
 48 78  1  0  0  0
 49 50  1  0  0  0
 49 51  2  0  0  0
 50 76  1  0  0  0
 50 77  1  0  0  0
 51 52  1  0  0  0
M  CHG  5   3  -1   7  -1   9   1  32  -1  48   1
M  END
> <s_m_source_file>
../3hxi_ligand.sdf

> <i_m_source_file_index>
1

> <s_epik_input>
Tz1jMVtuSF0vYyg9TlxbSF0pW25IXWMoYzEyKVtuK10oW2NIXW4yW0NIM10pW0NAQEhdKFtDQEhdKFtPSF0pW0NAQEhdM1tPSF0pT1tDQEBIXTNbQ0gyXU9bUEBdKD1PKShbT0hdKU9bUEBdKD1PKShbT0hdKU9bUEBdKD1PKShbT0hdKU9bQ0gyXVtDQEhdNE9bQ0BIXShbQ0BIXShbT0hdKVtDQEBIXTRbT0hdKW4oW2NIXW41KWMoYzU2KVtuSF1jKD1OXFtIXSlcW25IXWM2PU8=

> <s_epik_cmdline>
J2VwaWtfYXBwJywgJy1pbWFlJywgJ2xpZ2FuZF9wcm8ubWFlJywgJy1vbWFlJywgJ2xpZ2FuZF9wcmVwLm1hZScsICctbXMnLCAnMScsICctcGgnLCAnNycsICctcGh0JywgJzAuNScsICctbnQn

> <r_lp_tautomer_probability>
1

> <r_epik_Ionization_Penalty>
  2.8460

> <r_epik_Ionization_Penalty_Charging>
  2.8460

> <r_epik_Ionization_Penalty_Neutral>
  0.0000

> <r_epik_State_Penalty>
 -0.0000

> <r_epik_Charging_Adjusted_Penalty>
2.8459675258544

> <i_epik_Tot_Q>
-1

> <i_epik_Tot_abs_Q>
5

> <s_epik_Chemistry_Notes>
This compound has an imine and may undergo hydrolysis. This compound contains an acetal/aminal-like group ( X-CH(R)-Y where X, Y are N, S, or O) that may be acid/base labile, releasing an aldehyde.

$$$$
