3hy5_ligand
                    3D
 Schrodinger Suite 2020-3.
 57 57  0  0  1  0            999 V2000
   -5.3210   14.8860   12.8330 C   0  0  0  0  0  0
   -6.4820   14.9370   13.8120 C   0  0  0  0  0  0
   -7.4520   15.9090   13.4660 C   0  0  0  0  0  0
   -8.2320   15.4570   12.3120 C   0  0  0  0  0  0
   -7.3920   15.0400   11.0940 C   0  0  2  0  0  0
   -5.7830   15.0690   11.2950 C   0  0  2  0  0  0
   -4.8220   14.8580   10.0910 C   0  0  0  0  0  0
   -3.9720   15.8480    9.6900 C   0  0  0  0  0  0
   -3.1220   15.8190    8.3820 C   0  0  1  0  0  0
   -1.6310   15.7370    8.6980 C   0  0  0  0  0  0
   -0.6450   16.0950    7.5900 C   0  0  0  0  0  0
    0.3840   16.9220    7.7660 C   0  0  0  0  0  0
    0.8540   17.2610    9.1950 C   0  0  2  0  0  0
    0.2960   18.5850    9.7530 C   0  0  0  0  0  0
    0.7030   19.0380   11.1500 C   0  0  0  0  0  0
    0.0510   20.1420   11.7130 O   0  0  0  0  0  0
   -4.2710   15.9460   13.1500 C   0  0  0  0  0  0
   -4.6020   13.5700   13.0510 C   0  0  0  0  0  0
   -7.9840   15.1900    9.6700 C   0  0  0  0  0  0
   -3.5220   14.6900    7.4380 C   0  0  0  0  0  0
    2.3260   16.9720    9.5040 C   0  0  0  0  0  0
   -6.9830   13.9581   13.8379 H   0  0  0  0  0  0
   -6.1048   15.1825   14.8157 H   0  0  0  0  0  0
   -8.1295   16.0702   14.3175 H   0  0  0  0  0  0
   -6.9498   16.8544   13.2130 H   0  0  0  0  0  0
   -8.8354   14.5825   12.5971 H   0  0  0  0  0  0
   -8.8963   16.2677   11.9781 H   0  0  0  0  0  0
   -7.7051   13.9856   11.1028 H   0  0  0  0  0  0
   -5.3575   16.0367   10.9907 H   0  0  0  0  0  0
   -4.8335   13.8945    9.5603 H   0  0  0  0  0  0
   -3.8486   16.7503   10.3069 H   0  0  0  0  0  0
   -3.3134   16.7579    7.8418 H   0  0  0  0  0  0
   -1.3933   16.4219    9.5253 H   0  0  0  0  0  0
   -1.3739   14.7078    8.9887 H   0  0  0  0  0  0
   -0.8169   15.6323    6.6069 H   0  0  0  0  0  0
    0.8936   17.3591    6.8946 H   0  0  0  0  0  0
    0.3650   16.4944    9.8140 H   0  0  0  0  0  0
    0.5993   19.4155    9.0986 H   0  0  0  0  0  0
   -0.8020   18.5322    9.7933 H   0  0  0  0  0  0
    0.5344   18.2190   11.8647 H   0  0  0  0  0  0
    1.7684   19.3118   11.1508 H   0  0  0  0  0  0
    0.3264   20.4888   12.7199 H   0  0  0  0  0  0
   -4.7084   16.9465   13.0173 H   0  0  0  0  0  0
   -3.4138   15.8275   12.4709 H   0  0  0  0  0  0
   -3.9337   15.8283   14.1904 H   0  0  0  0  0  0
   -5.2902   12.7374   12.8433 H   0  0  0  0  0  0
   -4.2569   13.5091   14.0937 H   0  0  0  0  0  0
   -3.7370   13.5083   12.3743 H   0  0  0  0  0  0
   -9.0819   15.1476    9.7230 H   0  0  0  0  0  0
   -7.6159   14.3731    9.0320 H   0  0  0  0  0  0
   -7.6745   16.1558    9.2441 H   0  0  0  0  0  0
   -4.5975   14.7598    7.2180 H   0  0  0  0  0  0
   -3.3070   13.7214    7.9130 H   0  0  0  0  0  0
   -2.9500   14.7745    6.5022 H   0  0  0  0  0  0
    2.6116   16.0075    9.0589 H   0  0  0  0  0  0
    2.4705   16.9301   10.5937 H   0  0  0  0  0  0
    2.9531   17.7709    9.0814 H   0  0  0  0  0  0
  1  2  1  0  0  0
  1  6  1  0  0  0
  1 17  1  0  0  0
  1 18  1  0  0  0
  2  3  1  0  0  0
  2 22  1  0  0  0
  2 23  1  0  0  0
  3  4  1  0  0  0
  3 24  1  0  0  0
  3 25  1  0  0  0
  4  5  1  0  0  0
  4 26  1  0  0  0
  4 27  1  0  0  0
  5  6  1  0  0  0
  5 19  1  0  0  0
  5 28  1  0  0  0
  6  7  1  0  0  0
  6 29  1  0  0  0
  7  8  2  0  0  0
  7 30  1  0  0  0
  8  9  1  0  0  0
  8 31  1  0  0  0
  9 10  1  0  0  0
  9 20  1  0  0  0
  9 32  1  0  0  0
 10 11  1  0  0  0
 10 33  1  0  0  0
 10 34  1  0  0  0
 11 12  2  0  0  0
 11 35  1  0  0  0
 12 13  1  0  0  0
 12 36  1  0  0  0
 13 14  1  0  0  0
 13 21  1  0  0  0
 13 37  1  0  0  0
 14 15  1  0  0  0
 14 38  1  0  0  0
 14 39  1  0  0  0
 15 16  1  0  0  0
 15 40  1  0  0  0
 15 41  1  0  0  0
 16 42  1  0  0  0
 17 43  1  0  0  0
 17 44  1  0  0  0
 17 45  1  0  0  0
 18 46  1  0  0  0
 18 47  1  0  0  0
 18 48  1  0  0  0
 19 49  1  0  0  0
 19 50  1  0  0  0
 19 51  1  0  0  0
 20 52  1  0  0  0
 20 53  1  0  0  0
 20 54  1  0  0  0
 21 55  1  0  0  0
 21 56  1  0  0  0
 21 57  1  0  0  0
M  END
> <s_m_source_file>
../3hy5_ligand.sdf

> <i_m_source_file_index>
1

> <s_epik_input>
W0NIM11DMShbQ0gzXSlbQ0gyXVtDSDJdW0NIMl1bQ0BASF0oW0NIM10pW0NAQEhdMS9bQ0hdPVtDSF0vW0NASF0oW0NIM10pW0NIMl0vW0NIXT1bQ0hdXFtDQEBIXShbQ0gzXSlbQ0gyXVtDSDJdW09IXQ==

> <s_epik_cmdline>
J2VwaWtfYXBwJywgJy1pbWFlJywgJ2xpZ2FuZF9wcm8ubWFlJywgJy1vbWFlJywgJ2xpZ2FuZF9wcmVwLm1hZScsICctbXMnLCAnMScsICctcGgnLCAnNycsICctcGh0JywgJzAuNScsICctbnQn

> <r_lp_tautomer_probability>
1

> <r_epik_Ionization_Penalty>
  0.0000

> <r_epik_Ionization_Penalty_Charging>
  0.0000

> <r_epik_Ionization_Penalty_Neutral>
  0.0000

> <r_epik_State_Penalty>
 -0.0000

> <r_epik_Charging_Adjusted_Penalty>
0

> <i_epik_Tot_Q>
0

> <i_epik_Tot_abs_Q>
0

$$$$
