3hyf_ligand
                    3D
 Schrodinger Suite 2020-3.
 27 28  0  0  1  0            999 V2000
    3.7860   49.4070   34.6460 C   0  0  0  0  0  0
    3.4260   49.1450   29.9340 N   0  0  0  0  0  0
    3.1800   52.3620   28.0190 O   0  0  0  0  0  0
    7.4790   50.0230   36.3950 Cl  0  0  0  0  0  0
    4.7910   49.7230   35.6210 C   0  0  0  0  0  0
    2.8670   50.9440   31.3950 N   0  0  0  0  0  0
    2.6200   53.0850   30.5990 O   0  0  0  0  0  0
    4.2440   50.1640   37.1910 Cl  0  0  0  0  0  0
    6.2210   49.6590   35.2690 C   0  0  0  0  0  0
    3.9870   48.0770   27.5900 O   0  5  0  0  0  0
    6.6110   49.2780   33.9340 C   0  0  0  0  0  0
    3.8320   49.9300   26.4760 O   0  0  0  0  0  0
    5.6020   48.9620   32.9650 C   0  0  0  0  0  0
    4.1900   49.0230   33.3090 C   0  0  0  0  0  0
    3.1300   48.6850   32.2810 C   0  0  0  0  0  0
    3.1390   49.6520   31.1350 C   0  0  0  0  0  0
    3.4530   49.9980   28.8340 C   0  0  0  0  0  0
    3.1790   51.4200   28.9990 C   0  0  0  0  0  0
    2.8870   51.8220   30.3330 C   0  0  0  0  0  0
    3.7780   49.3100   27.5430 C   0  0  0  0  0  0
    2.7293   49.4555   34.9091 H   0  0  0  0  0  0
    3.4028   52.0752   26.9807 H   0  0  0  0  0  0
    2.6405   51.2622   32.4233 H   0  0  0  0  0  0
    7.6657   49.2305   33.6631 H   0  0  0  0  0  0
    5.8974   48.6721   31.9566 H   0  0  0  0  0  0
    3.3134   47.6759   31.8834 H   0  0  0  0  0  0
    2.1372   48.7180   32.7535 H   0  0  0  0  0  0
  1  5  2  0  0  0
  1 14  1  0  0  0
  1 21  1  0  0  0
  2 16  2  0  0  0
  2 17  1  0  0  0
  3 18  1  0  0  0
  3 22  1  0  0  0
  4  9  1  0  0  0
  5  8  1  0  0  0
  5  9  1  0  0  0
  6 16  1  0  0  0
  6 19  1  0  0  0
  6 23  1  0  0  0
  7 19  2  0  0  0
  9 11  2  0  0  0
 10 20  1  0  0  0
 11 13  1  0  0  0
 11 24  1  0  0  0
 12 20  2  0  0  0
 13 14  2  0  0  0
 13 25  1  0  0  0
 14 15  1  0  0  0
 15 16  1  0  0  0
 15 26  1  0  0  0
 15 27  1  0  0  0
 17 18  2  0  0  0
 17 20  1  0  0  0
 18 19  1  0  0  0
M  CHG  1  10  -1
M  END
> <s_m_source_file>
../3hyf_ligand.sdf

> <i_m_source_file_index>
1

> <s_epik_input>
Q2xjMVtjSF1bY0hdYyhbY0hdYzFDbClbQ0gyXWMybmMoQyg9TylbT0hdKWMoW09IXSljKD1PKVtuSF0y

> <s_epik_cmdline>
J2VwaWtfYXBwJywgJy1pbWFlJywgJ2xpZ2FuZF9wcm8ubWFlJywgJy1vbWFlJywgJ2xpZ2FuZF9wcmVwLm1hZScsICctbXMnLCAnMScsICctcGgnLCAnNycsICctcGh0JywgJzAuNScsICctbnQn

> <r_lp_tautomer_probability>
1

> <r_epik_Ionization_Penalty>
  0.0078

> <r_epik_Ionization_Penalty_Charging>
  0.0078

> <r_epik_Ionization_Penalty_Neutral>
  0.0000

> <r_epik_State_Penalty>
 -0.0000

> <r_epik_Charging_Adjusted_Penalty>
0.00776904340319065

> <i_epik_Tot_Q>
-1

> <i_epik_Tot_abs_Q>
1

$$$$
