3hzk_ligand
                    3D
 Schrodinger Suite 2020-3.
 62 63  0  0  1  0            999 V2000
    6.8310   -0.8740   -6.3720 C   0  0  0  0  0  0
    7.2790   -1.9590   -6.7900 O   0  0  0  0  0  0
    5.6330   -0.5320   -6.4740 O   0  5  0  0  0  0
    7.8110    0.0350   -5.5780 C   0  0  1  0  0  0
    7.4950   -0.1860   -4.0810 C   0  0  0  0  0  0
    8.4950    0.5140   -3.1460 C   0  0  1  0  0  0
    8.1050    0.2540   -1.7660 O   0  0  0  0  0  0
    9.9030    0.0260   -3.5080 C   0  0  1  0  0  0
    9.9560   -1.3940   -3.3870 O   0  0  0  0  0  0
   10.1820    0.3620   -4.9650 C   0  0  2  0  0  0
    9.1950   -0.3110   -5.8070 O   0  0  0  0  0  0
   11.6630    0.3000   -5.4340 C   0  0  2  0  0  0
   12.5840    0.6980   -4.4000 O   0  0  0  0  0  0
   11.8620    1.1440   -6.6980 C   0  0  0  0  0  0
   11.0150    0.6780   -7.7390 O   0  0  0  0  0  0
    7.7580    1.4670   -5.8480 O   0  0  0  0  0  0
    6.4120    1.9070   -6.1590 C   0  0  0  0  0  0
    5.3060    1.7180   -5.3300 C   0  0  0  0  0  0
    4.0630    2.1870   -5.7400 C   0  0  0  0  0  0
   10.2380   -0.1880   -0.5000 C   0  0  0  0  0  0
   10.1640   -1.3840   -0.8620 O   0  0  0  0  0  0
   11.2330    0.3650    0.0250 O   0  5  0  0  0  0
    8.9990    0.6940   -0.7020 C   0  0  2  0  0  0
    8.1780    0.6800    0.6040 C   0  0  0  0  0  0
    6.9870    1.6470    0.4530 C   0  0  1  0  0  0
    6.2340    1.7190    1.6730 O   0  0  0  0  0  0
    7.5860    3.0230    0.1900 C   0  0  1  0  0  0
    8.4050    3.3920    1.2860 O   0  0  0  0  0  0
    8.4270    3.0010   -1.0880 C   0  0  2  0  0  0
    9.4720    2.0330   -0.9950 O   0  0  0  0  0  0
    9.0750    4.3540   -1.4180 C   0  0  2  0  0  0
    8.1620    5.4440   -1.2920 O   0  0  0  0  0  0
    9.6960    4.2580   -2.8260 C   0  0  0  0  0  0
   10.3460    5.4730   -3.1970 O   0  0  0  0  0  0
    6.4936    0.2095   -3.8554 H   0  0  0  0  0  0
    7.5236   -1.2622   -3.8552 H   0  0  0  0  0  0
    8.4813    1.6121   -3.2089 H   0  0  0  0  0  0
   10.6574    0.4439   -2.8251 H   0  0  0  0  0  0
    9.7827   -1.8696   -2.4104 H   0  0  0  0  0  0
    9.9674    1.4310   -5.1107 H   0  0  0  0  0  0
   11.9520   -0.7440   -5.6253 H   0  0  0  0  0  0
   12.5707    0.1880   -3.4255 H   0  0  0  0  0  0
   11.6188    2.1943   -6.4796 H   0  0  0  0  0  0
   12.9092    1.0709   -7.0267 H   0  0  0  0  0  0
   11.0285    1.1720   -8.7217 H   0  0  0  0  0  0
    6.4041    2.9993   -6.2889 H   0  0  0  0  0  0
    6.0741    1.4248   -7.0882 H   0  0  0  0  0  0
    5.4085    1.2050   -4.3623 H   0  0  0  0  0  0
    3.9605    2.7000   -6.7077 H   0  0  0  0  0  0
    3.1821    2.0451   -5.0967 H   0  0  0  0  0  0
    7.8090   -0.3387    0.7942 H   0  0  0  0  0  0
    8.8151    1.0015    1.4411 H   0  0  0  0  0  0
    6.2705    1.3146   -0.3126 H   0  0  0  0  0  0
    5.7134    0.8269    2.0515 H   0  0  0  0  0  0
    6.7975    3.7877    0.1298 H   0  0  0  0  0  0
    7.9739    3.4624    2.2956 H   0  0  0  0  0  0
    7.7602    2.6824   -1.9028 H   0  0  0  0  0  0
    9.8215    4.6391   -0.6620 H   0  0  0  0  0  0
    7.6491    5.6241   -0.3357 H   0  0  0  0  0  0
   10.4389    3.4470   -2.8445 H   0  0  0  0  0  0
    8.9057    4.0482   -3.5618 H   0  0  0  0  0  0
   10.8375    5.5566   -4.1775 H   0  0  0  0  0  0
  1  2  2  0  0  0
  1  3  1  0  0  0
  1  4  1  0  0  0
  4  5  1  0  0  0
  4 11  1  0  0  0
  4 16  1  0  0  0
  5  6  1  0  0  0
  5 35  1  0  0  0
  5 36  1  0  0  0
  6  7  1  0  0  0
  6  8  1  0  0  0
  6 37  1  0  0  0
  7 23  1  0  0  0
  8  9  1  0  0  0
  8 10  1  0  0  0
  8 38  1  0  0  0
  9 39  1  0  0  0
 10 11  1  0  0  0
 10 12  1  0  0  0
 10 40  1  0  0  0
 12 13  1  0  0  0
 12 14  1  0  0  0
 12 41  1  0  0  0
 13 42  1  0  0  0
 14 15  1  0  0  0
 14 43  1  0  0  0
 14 44  1  0  0  0
 15 45  1  0  0  0
 16 17  1  0  0  0
 17 18  1  0  0  0
 17 46  1  0  0  0
 17 47  1  0  0  0
 18 19  2  0  0  0
 18 48  1  0  0  0
 19 49  1  0  0  0
 19 50  1  0  0  0
 20 21  2  0  0  0
 20 22  1  0  0  0
 20 23  1  0  0  0
 23 24  1  0  0  0
 23 30  1  0  0  0
 24 25  1  0  0  0
 24 51  1  0  0  0
 24 52  1  0  0  0
 25 26  1  0  0  0
 25 27  1  0  0  0
 25 53  1  0  0  0
 26 54  1  0  0  0
 27 28  1  0  0  0
 27 29  1  0  0  0
 27 55  1  0  0  0
 28 56  1  0  0  0
 29 30  1  0  0  0
 29 31  1  0  0  0
 29 57  1  0  0  0
 31 32  1  0  0  0
 31 33  1  0  0  0
 31 58  1  0  0  0
 32 59  1  0  0  0
 33 34  1  0  0  0
 33 60  1  0  0  0
 33 61  1  0  0  0
 34 62  1  0  0  0
M  CHG  2   3  -1  22  -1
M  END
> <s_m_source_file>
../3hzk_ligand.sdf

> <i_m_source_file_index>
1

> <s_epik_input>
W0NIMl09W0NIXVtDSDJdT1tDQF0xKEMoPU8pW09IXSlbQ0gyXVtDQEhdKFtDQEBIXShbT0hdKVtDQEhdKE8xKVtDQEhdKFtPSF0pW0NIMl1bT0hdKU9bQ0BdMihDKD1PKVtPSF0pW0NIMl1bQ0BASF0oW09IXSlbQ0BASF0oW09IXSlbQ0BIXShPMilbQ0BIXShbT0hdKVtDSDJdW09IXQ==

> <s_epik_cmdline>
J2VwaWtfYXBwJywgJy1pbWFlJywgJ2xpZ2FuZF9wcm8ubWFlJywgJy1vbWFlJywgJ2xpZ2FuZF9wcmVwLm1hZScsICctbXMnLCAnMScsICctcGgnLCAnNycsICctcGh0JywgJzAuNScsICctbnQn

> <r_lp_tautomer_probability>
1

> <r_epik_Ionization_Penalty>
  0.0000

> <r_epik_Ionization_Penalty_Charging>
  0.0000

> <r_epik_Ionization_Penalty_Neutral>
  0.0000

> <r_epik_State_Penalty>
 -0.0000

> <r_epik_Charging_Adjusted_Penalty>
2.98272241269516e-05

> <i_epik_Tot_Q>
-2

> <i_epik_Tot_abs_Q>
2

$$$$
