3hzv_ligand
                    3D
 Schrodinger Suite 2020-3.
 64 65  0  0  1  0            999 V2000
   -5.8980   -0.3640    6.1960 C   0  0  0  0  0  0
   -6.3440   -1.4660    6.5930 O   0  5  0  0  0  0
   -4.7320    0.0400    6.3340 O   0  0  0  0  0  0
   -6.8730    0.5460    5.4430 C   0  0  1  0  0  0
   -6.7460    0.2570    3.9520 C   0  0  0  0  0  0
   -7.7800    1.0310    3.1750 C   0  0  1  0  0  0
   -7.5950    0.7230    1.7850 O   0  0  0  0  0  0
   -9.1830    0.6510    3.6900 C   0  0  1  0  0  0
   -9.4300   -0.7620    3.5430 O   0  0  0  0  0  0
   -9.2350    1.0250    5.1690 C   0  0  2  0  0  0
   -8.2180    0.3000    5.8810 O   0  0  0  0  0  0
  -10.5720    0.7080    5.8370 C   0  0  2  0  0  0
  -11.6590    1.3740    5.1900 O   0  0  0  0  0  0
  -10.4750    1.1780    7.2950 C   0  0  0  0  0  0
  -11.6980    0.9140    7.9900 O   0  0  0  0  0  0
   -6.6560    1.9800    5.6360 O   0  0  0  0  0  0
   -6.9570    2.5550    6.9420 C   0  0  0  0  0  0
   -6.2780    1.8200    8.0970 C   0  0  0  0  0  0
   -6.9240    2.0490    9.4700 C   0  0  0  0  0  0
   -9.7360    0.2300    0.5980 C   0  0  0  0  0  0
  -10.7680    0.7970    0.1820 O   0  5  0  0  0  0
   -9.6210   -0.9790    0.8880 O   0  0  0  0  0  0
   -8.5040    1.1230    0.7290 C   0  0  2  0  0  0
   -7.7140    1.0530   -0.5890 C   0  0  0  0  0  0
   -6.5240    2.0290   -0.5220 C   0  0  1  0  0  0
   -5.8120    2.0120   -1.7550 O   0  0  0  0  0  0
   -7.1580    3.4070   -0.3120 C   0  0  1  0  0  0
   -7.9940    3.7550   -1.4260 O   0  0  0  0  0  0
   -7.9700    3.4260    0.9740 C   0  0  2  0  0  0
   -8.9950    2.4440    0.9390 O   0  0  0  0  0  0
   -8.6310    4.7890    1.1920 C   0  0  2  0  0  0
   -7.6840    5.8570    1.0900 O   0  0  0  0  0  0
   -9.3770    4.8270    2.5360 C   0  0  0  0  0  0
  -10.1430    6.0300    2.5510 O   0  0  0  0  0  0
   -5.7443    0.5511    3.6055 H   0  0  0  0  0  0
   -6.8949   -0.8181    3.7729 H   0  0  0  0  0  0
   -7.6429    2.1200    3.2480 H   0  0  0  0  0  0
   -9.9802    1.1269    3.1000 H   0  0  0  0  0  0
   -9.4322   -1.2188    2.5423 H   0  0  0  0  0  0
   -9.0309    2.1033    5.2444 H   0  0  0  0  0  0
  -10.8263   -0.3570    5.7322 H   0  0  0  0  0  0
  -11.8833    1.1627    4.1341 H   0  0  0  0  0  0
   -9.6557    0.6440    7.7986 H   0  0  0  0  0  0
  -10.2770    2.2598    7.3192 H   0  0  0  0  0  0
  -11.7988    1.1899    9.0501 H   0  0  0  0  0  0
   -6.6170    3.6008    6.9693 H   0  0  0  0  0  0
   -8.0422    2.5175    7.1178 H   0  0  0  0  0  0
   -6.3058    0.7365    7.9090 H   0  0  0  0  0  0
   -5.2322    2.1513    8.1782 H   0  0  0  0  0  0
   -6.3707    1.4837   10.2344 H   0  0  0  0  0  0
   -7.9690    1.7063    9.4453 H   0  0  0  0  0  0
   -6.8954    3.1211    9.7144 H   0  0  0  0  0  0
   -7.3421    0.0288   -0.7396 H   0  0  0  0  0  0
   -8.3715    1.3311   -1.4259 H   0  0  0  0  0  0
   -5.7614    1.7650    0.2255 H   0  0  0  0  0  0
   -5.2884    1.0992   -2.0752 H   0  0  0  0  0  0
   -6.3793    4.1834   -0.2828 H   0  0  0  0  0  0
   -7.5710    3.7916   -2.4408 H   0  0  0  0  0  0
   -7.3084    3.1520    1.8090 H   0  0  0  0  0  0
   -9.3267    4.9964    0.3656 H   0  0  0  0  0  0
   -7.0707    5.9635    0.1831 H   0  0  0  0  0  0
  -10.0320    3.9470    2.6168 H   0  0  0  0  0  0
   -8.6485    4.8187    3.3601 H   0  0  0  0  0  0
  -10.7660    6.2745    3.4240 H   0  0  0  0  0  0
  1  2  1  0  0  0
  1  3  2  0  0  0
  1  4  1  0  0  0
  4  5  1  0  0  0
  4 11  1  0  0  0
  4 16  1  0  0  0
  5  6  1  0  0  0
  5 35  1  0  0  0
  5 36  1  0  0  0
  6  7  1  0  0  0
  6  8  1  0  0  0
  6 37  1  0  0  0
  7 23  1  0  0  0
  8  9  1  0  0  0
  8 10  1  0  0  0
  8 38  1  0  0  0
  9 39  1  0  0  0
 10 11  1  0  0  0
 10 12  1  0  0  0
 10 40  1  0  0  0
 12 13  1  0  0  0
 12 14  1  0  0  0
 12 41  1  0  0  0
 13 42  1  0  0  0
 14 15  1  0  0  0
 14 43  1  0  0  0
 14 44  1  0  0  0
 15 45  1  0  0  0
 16 17  1  0  0  0
 17 18  1  0  0  0
 17 46  1  0  0  0
 17 47  1  0  0  0
 18 19  1  0  0  0
 18 48  1  0  0  0
 18 49  1  0  0  0
 19 50  1  0  0  0
 19 51  1  0  0  0
 19 52  1  0  0  0
 20 21  1  0  0  0
 20 22  2  0  0  0
 20 23  1  0  0  0
 23 24  1  0  0  0
 23 30  1  0  0  0
 24 25  1  0  0  0
 24 53  1  0  0  0
 24 54  1  0  0  0
 25 26  1  0  0  0
 25 27  1  0  0  0
 25 55  1  0  0  0
 26 56  1  0  0  0
 27 28  1  0  0  0
 27 29  1  0  0  0
 27 57  1  0  0  0
 28 58  1  0  0  0
 29 30  1  0  0  0
 29 31  1  0  0  0
 29 59  1  0  0  0
 31 32  1  0  0  0
 31 33  1  0  0  0
 31 60  1  0  0  0
 32 61  1  0  0  0
 33 34  1  0  0  0
 33 62  1  0  0  0
 33 63  1  0  0  0
 34 64  1  0  0  0
M  CHG  2   2  -1  21  -1
M  END
> <s_m_source_file>
../3hzv_ligand.sdf

> <i_m_source_file_index>
1

> <s_epik_input>
W0NIM11bQ0gyXVtDSDJdT1tDQF0xKEMoPU8pW09IXSlbQ0gyXVtDQEhdKFtDQEBIXShbT0hdKVtDQEhdKE8xKVtDQEhdKFtPSF0pW0NIMl1bT0hdKU9bQ0BdMihDKD1PKVtPSF0pW0NIMl1bQ0BASF0oW09IXSlbQ0BASF0oW09IXSlbQ0BIXShPMilbQ0BIXShbT0hdKVtDSDJdW09IXQ==

> <s_epik_cmdline>
J2VwaWtfYXBwJywgJy1pbWFlJywgJ2xpZ2FuZF9wcm8ubWFlJywgJy1vbWFlJywgJ2xpZ2FuZF9wcmVwLm1hZScsICctbXMnLCAnMScsICctcGgnLCAnNycsICctcGh0JywgJzAuNScsICctbnQn

> <r_lp_tautomer_probability>
1

> <r_epik_Ionization_Penalty>
  0.0000

> <r_epik_Ionization_Penalty_Charging>
  0.0000

> <r_epik_Ionization_Penalty_Neutral>
  0.0000

> <r_epik_State_Penalty>
 -0.0000

> <r_epik_Charging_Adjusted_Penalty>
2.97994209025896e-05

> <i_epik_Tot_Q>
-2

> <i_epik_Tot_abs_Q>
2

$$$$
