3hzy_ligand
                    3D
 Schrodinger Suite 2020-3.
 61 62  0  0  1  0            999 V2000
   -6.3490    7.0370    8.1520 C   0  0  0  0  0  0
   -5.3650    7.5870    8.6770 O   0  0  0  0  0  0
   -7.2590    7.6500    7.5230 O   0  5  0  0  0  0
   -6.4380    5.5040    8.3120 C   0  0  1  0  0  0
   -5.9680    4.7620    7.0260 C   0  0  0  0  0  0
   -5.7470    3.2510    7.2740 C   0  0  2  0  0  0
   -4.8800    3.0180    8.5110 C   0  0  1  0  0  0
   -3.5620    3.4840    8.1880 O   0  0  0  0  0  0
   -5.4140    3.7770    9.7400 C   0  0  2  0  0  0
   -5.5220    5.1850    9.3920 O   0  0  0  0  0  0
   -4.4980    3.5520   10.9520 C   0  0  2  0  0  0
   -4.1230    2.1770   11.0480 O   0  0  0  0  0  0
   -5.1830    3.9550   12.2700 C   0  0  0  0  0  0
   -5.4000    5.3770   12.3100 O   0  0  0  0  0  0
   -7.7300    4.9920    8.7460 O   0  0  0  0  0  0
   -8.8940    5.6520    9.0400 C   0  0  0  0  0  0
   -9.1670    6.5420   10.0840 C   0  0  0  0  0  0
  -10.4390    7.0930   10.1970 C   0  0  0  0  0  0
   -4.8320    0.6170    6.4570 C   0  0  0  0  0  0
   -3.6610    1.0330    6.5460 O   0  0  0  0  0  0
   -5.2410   -0.4840    6.9110 O   0  5  0  0  0  0
   -5.8690    1.4740    5.7020 C   0  0  1  0  0  0
   -5.8280    2.9230    5.8800 O   0  0  0  0  0  0
   -5.8020    1.1010    4.2000 C   0  0  0  0  0  0
   -7.0280    1.7010    3.5010 C   0  0  0  0  0  0
   -8.3490    1.2270    4.1050 C   0  0  1  0  0  0
   -8.4880   -0.1840    3.8990 O   0  0  0  0  0  0
   -8.3660    1.5640    5.6100 C   0  0  2  0  0  0
   -7.1550    1.0490    6.2360 O   0  0  0  0  0  0
   -9.6340    0.9940    6.2480 C   0  0  2  0  0  0
  -10.7430    1.7610    5.7950 O   0  0  0  0  0  0
   -9.5880    1.0670    7.7820 C   0  0  0  0  0  0
   -9.2120    2.3970    8.1960 O   0  0  0  0  0  0
   -6.7296    4.8724    6.2400 H   0  0  0  0  0  0
   -5.0180    5.1948    6.6794 H   0  0  0  0  0  0
   -6.2750    2.3633    7.6524 H   0  0  0  0  0  0
   -4.8190    1.9469    8.7542 H   0  0  0  0  0  0
   -3.0202    3.0526    7.3334 H   0  0  0  0  0  0
   -6.4293    3.4562   10.0161 H   0  0  0  0  0  0
   -3.5678    4.1188   10.7987 H   0  0  0  0  0  0
   -3.6144    1.6855   10.2055 H   0  0  0  0  0  0
   -6.1531    3.4428   12.3506 H   0  0  0  0  0  0
   -4.5446    3.6667   13.1181 H   0  0  0  0  0  0
   -5.8819    5.8354   13.1862 H   0  0  0  0  0  0
   -9.6798    5.3996    8.3128 H   0  0  0  0  0  0
   -8.3790    6.8005   10.8066 H   0  0  0  0  0  0
  -10.4718    7.7641   11.0679 H   0  0  0  0  0  0
  -11.1772    6.2878   10.3265 H   0  0  0  0  0  0
  -10.6740    7.6628    9.2859 H   0  0  0  0  0  0
   -4.8796    1.5097    3.7615 H   0  0  0  0  0  0
   -5.8048    0.0062    4.0936 H   0  0  0  0  0  0
   -6.9968    2.7975    3.5831 H   0  0  0  0  0  0
   -7.0227    1.4125    2.4395 H   0  0  0  0  0  0
   -9.2129    1.6719    3.5896 H   0  0  0  0  0  0
   -8.4951   -0.5927    2.8778 H   0  0  0  0  0  0
   -8.3355    2.6481    5.7937 H   0  0  0  0  0  0
   -9.7851   -0.0455    5.9214 H   0  0  0  0  0  0
  -10.9548    1.8390    4.7184 H   0  0  0  0  0  0
  -10.5804    0.8255    8.1905 H   0  0  0  0  0  0
   -8.8497    0.3452    8.1615 H   0  0  0  0  0  0
   -9.1275    2.6366    9.2663 H   0  0  0  0  0  0
  1  2  2  0  0  0
  1  3  1  0  0  0
  1  4  1  0  0  0
  4  5  1  0  0  0
  4 10  1  0  0  0
  4 15  1  0  0  0
  5  6  1  0  0  0
  5 34  1  0  0  0
  5 35  1  0  0  0
  6  7  1  0  0  0
  6 23  1  0  0  0
  6 36  1  0  0  0
  7  8  1  0  0  0
  7  9  1  0  0  0
  7 37  1  0  0  0
  8 38  1  0  0  0
  9 10  1  0  0  0
  9 11  1  0  0  0
  9 39  1  0  0  0
 11 12  1  0  0  0
 11 13  1  0  0  0
 11 40  1  0  0  0
 12 41  1  0  0  0
 13 14  1  0  0  0
 13 42  1  0  0  0
 13 43  1  0  0  0
 14 44  1  0  0  0
 15 16  1  0  0  0
 16 17  2  0  0  0
 16 45  1  0  0  0
 17 18  1  0  0  0
 17 46  1  0  0  0
 18 47  1  0  0  0
 18 48  1  0  0  0
 18 49  1  0  0  0
 19 20  2  0  0  0
 19 21  1  0  0  0
 19 22  1  0  0  0
 22 23  1  0  0  0
 22 24  1  0  0  0
 22 29  1  0  0  0
 24 25  1  0  0  0
 24 50  1  0  0  0
 24 51  1  0  0  0
 25 26  1  0  0  0
 25 52  1  0  0  0
 25 53  1  0  0  0
 26 27  1  0  0  0
 26 28  1  0  0  0
 26 54  1  0  0  0
 27 55  1  0  0  0
 28 29  1  0  0  0
 28 30  1  0  0  0
 28 56  1  0  0  0
 30 31  1  0  0  0
 30 32  1  0  0  0
 30 57  1  0  0  0
 31 58  1  0  0  0
 32 33  1  0  0  0
 32 59  1  0  0  0
 32 60  1  0  0  0
 33 61  1  0  0  0
M  CHG  2   3  -1  21  -1
M  END
> <s_m_source_file>
../3hzy_ligand.sdf

> <i_m_source_file_index>
1

> <s_epik_input>
W0NIM11cW0NIXT1bQ0hdXE9bQ0BdMShDKD1PKVtPSF0pW0NIMl1bQ0BIXShbQ0BASF0oW09IXSlbQ0BIXShPMSlbQ0BIXShbT0hdKVtDSDJdW09IXSlPW0NAXTIoQyg9TylbT0hdKVtDSDJdW0NIMl1bQ0BASF0oW09IXSlbQ0BIXShPMilbQ0BIXShbT0hdKVtDSDJdW09IXQ==

> <s_epik_cmdline>
J2VwaWtfYXBwJywgJy1pbWFlJywgJ2xpZ2FuZF9wcm8ubWFlJywgJy1vbWFlJywgJ2xpZ2FuZF9wcmVwLm1hZScsICctbXMnLCAnMScsICctcGgnLCAnNycsICctcGh0JywgJzAuNScsICctbnQn

> <r_lp_tautomer_probability>
1

> <r_epik_Ionization_Penalty>
  0.0000

> <r_epik_Ionization_Penalty_Charging>
  0.0000

> <r_epik_Ionization_Penalty_Neutral>
  0.0000

> <r_epik_State_Penalty>
 -0.0000

> <r_epik_Charging_Adjusted_Penalty>
2.9193623595746e-05

> <i_epik_Tot_Q>
-2

> <i_epik_Tot_abs_Q>
2

$$$$
