3i02_ligand
                    3D
 Schrodinger Suite 2020-3.
 61 62  0  0  1  0            999 V2000
   49.4920   24.8080   53.7240 C   0  0  0  0  0  0
   50.2600   23.8260   53.7920 O   0  0  0  0  0  0
   48.9410   25.2080   52.6750 O   0  5  0  0  0  0
   49.0700   25.4790   55.0510 C   0  0  1  0  0  0
   47.5940   25.1120   55.2190 C   0  0  0  0  0  0
   47.0450   25.5540   56.5690 C   0  0  2  0  0  0
   47.9180   24.9970   57.6830 C   0  0  1  0  0  0
   47.8720   23.5720   57.6200 O   0  0  0  0  0  0
   49.3620   25.4980   57.5080 C   0  0  2  0  0  0
   49.8060   25.0130   56.2000 O   0  0  0  0  0  0
   50.4580   25.2460   58.5610 C   0  0  2  0  0  0
   49.9980   25.6280   59.8620 O   0  0  0  0  0  0
   51.7280   26.0420   58.2280 C   0  0  0  0  0  0
   52.2490   25.6970   56.9420 O   0  0  0  0  0  0
   49.2880   26.9200   55.1510 O   0  0  0  0  0  0
   49.1370   27.8980   54.2170 C   0  0  0  0  0  0
   48.7470   27.7460   52.8990 C   0  0  0  0  0  0
   48.6610   28.8980   52.1220 C   0  0  0  0  0  0
   45.0700   25.1680   59.0510 C   0  0  0  0  0  0
   45.4760   24.0110   59.2940 O   0  0  0  0  0  0
   44.8810   26.0690   59.9020 O   0  5  0  0  0  0
   44.6870   25.4990   57.6050 C   0  0  1  0  0  0
   45.6620   25.1500   56.6120 O   0  0  0  0  0  0
   43.4100   24.7180   57.2810 C   0  0  0  0  0  0
   42.9090   25.0950   55.9040 C   0  0  0  0  0  0
   42.7640   26.6250   55.8370 C   0  0  1  0  0  0
   41.7690   27.0710   56.7600 O   0  0  0  0  0  0
   44.1060   27.2900   56.1440 C   0  0  2  0  0  0
   44.5370   26.9100   57.4760 O   0  0  0  0  0  0
   43.9530   28.8090   56.1050 C   0  0  2  0  0  0
   43.6130   29.2080   54.7720 O   0  0  0  0  0  0
   45.2460   29.5190   56.5250 C   0  0  0  0  0  0
   46.3320   29.1700   55.6630 O   0  0  0  0  0  0
   47.0025   25.6015   54.4313 H   0  0  0  0  0  0
   47.4763   24.0211   55.1414 H   0  0  0  0  0  0
   47.0147   26.6433   56.7189 H   0  0  0  0  0  0
   47.5320   25.2668   58.6771 H   0  0  0  0  0  0
   46.9111   23.0475   57.7272 H   0  0  0  0  0  0
   49.2771   26.5924   57.5787 H   0  0  0  0  0  0
   50.6734   24.1692   58.6250 H   0  0  0  0  0  0
   49.0932   25.1654   60.2832 H   0  0  0  0  0  0
   51.4976   27.1176   58.2300 H   0  0  0  0  0  0
   52.5010   25.8312   58.9816 H   0  0  0  0  0  0
   53.1592   26.1882   56.5675 H   0  0  0  0  0  0
   49.3641   28.8994   54.6114 H   0  0  0  0  0  0
   48.5195   26.7446   52.5047 H   0  0  0  0  0  0
   48.3423   28.6305   51.1037 H   0  0  0  0  0  0
   49.6454   29.3873   52.0815 H   0  0  0  0  0  0
   47.9274   29.5864   52.5669 H   0  0  0  0  0  0
   43.6237   23.6392   57.3058 H   0  0  0  0  0  0
   42.6360   24.9556   58.0256 H   0  0  0  0  0  0
   43.6289   24.7533   55.1457 H   0  0  0  0  0  0
   41.9340   24.6181   55.7252 H   0  0  0  0  0  0
   42.3905   26.9431   54.8524 H   0  0  0  0  0  0
   40.7393   26.6915   56.6846 H   0  0  0  0  0  0
   44.8729   26.9483   55.4333 H   0  0  0  0  0  0
   43.1243   29.1162   56.7599 H   0  0  0  0  0  0
   42.7109   28.8032   54.2899 H   0  0  0  0  0  0
   45.0979   30.6080   56.4789 H   0  0  0  0  0  0
   45.5070   29.2277   57.5531 H   0  0  0  0  0  0
   47.3302   29.5992   55.8345 H   0  0  0  0  0  0
  1  2  2  0  0  0
  1  3  1  0  0  0
  1  4  1  0  0  0
  4  5  1  0  0  0
  4 10  1  0  0  0
  4 15  1  0  0  0
  5  6  1  0  0  0
  5 34  1  0  0  0
  5 35  1  0  0  0
  6  7  1  0  0  0
  6 23  1  0  0  0
  6 36  1  0  0  0
  7  8  1  0  0  0
  7  9  1  0  0  0
  7 37  1  0  0  0
  8 38  1  0  0  0
  9 10  1  0  0  0
  9 11  1  0  0  0
  9 39  1  0  0  0
 11 12  1  0  0  0
 11 13  1  0  0  0
 11 40  1  0  0  0
 12 41  1  0  0  0
 13 14  1  0  0  0
 13 42  1  0  0  0
 13 43  1  0  0  0
 14 44  1  0  0  0
 15 16  1  0  0  0
 16 17  2  0  0  0
 16 45  1  0  0  0
 17 18  1  0  0  0
 17 46  1  0  0  0
 18 47  1  0  0  0
 18 48  1  0  0  0
 18 49  1  0  0  0
 19 20  2  0  0  0
 19 21  1  0  0  0
 19 22  1  0  0  0
 22 23  1  0  0  0
 22 24  1  0  0  0
 22 29  1  0  0  0
 24 25  1  0  0  0
 24 50  1  0  0  0
 24 51  1  0  0  0
 25 26  1  0  0  0
 25 52  1  0  0  0
 25 53  1  0  0  0
 26 27  1  0  0  0
 26 28  1  0  0  0
 26 54  1  0  0  0
 27 55  1  0  0  0
 28 29  1  0  0  0
 28 30  1  0  0  0
 28 56  1  0  0  0
 30 31  1  0  0  0
 30 32  1  0  0  0
 30 57  1  0  0  0
 31 58  1  0  0  0
 32 33  1  0  0  0
 32 59  1  0  0  0
 32 60  1  0  0  0
 33 61  1  0  0  0
M  CHG  2   3  -1  21  -1
M  END
> <s_m_source_file>
../3i02_ligand.sdf

> <i_m_source_file_index>
1

> <s_epik_input>
W0NIM11cW0NIXT1bQ0hdXE9bQ0BdMShDKD1PKVtPSF0pW0NIMl1bQ0BIXShbQ0BASF0oW09IXSlbQ0BIXShPMSlbQ0BIXShbT0hdKVtDSDJdW09IXSlPW0NAXTIoQyg9TylbT0hdKVtDSDJdW0NIMl1bQ0BASF0oW09IXSlbQ0BIXShPMilbQ0BIXShbT0hdKVtDSDJdW09IXQ==

> <s_epik_cmdline>
J2VwaWtfYXBwJywgJy1pbWFlJywgJ2xpZ2FuZF9wcm8ubWFlJywgJy1vbWFlJywgJ2xpZ2FuZF9wcmVwLm1hZScsICctbXMnLCAnMScsICctcGgnLCAnNycsICctcGh0JywgJzAuNScsICctbnQn

> <r_lp_tautomer_probability>
1

> <r_epik_Ionization_Penalty>
  0.0000

> <r_epik_Ionization_Penalty_Charging>
  0.0000

> <r_epik_Ionization_Penalty_Neutral>
  0.0000

> <r_epik_State_Penalty>
 -0.0000

> <r_epik_Charging_Adjusted_Penalty>
2.9193623595746e-05

> <i_epik_Tot_Q>
-2

> <i_epik_Tot_abs_Q>
2

$$$$
