3i06_ligand
                    3D
 Schrodinger Suite 2020-3.
 34 36  0  0  1  0            999 V2000
   -5.4360  -35.1470    1.8850 N   0  0  0  0  0  0
   -6.4800  -34.2970    1.7580 C   0  0  0  0  0  0
   -7.0230  -32.0840    0.9880 N   0  0  0  0  0  0
   -7.7120  -34.5110    2.1720 N   0  0  0  0  0  0
   -7.8550  -35.7160    2.7680 C   0  0  0  0  0  0
   -6.8820  -36.6780    2.9520 C   0  0  0  0  0  0
   -5.5900  -36.3140    2.5120 C   0  0  0  0  0  0
   -4.5510  -37.1740    2.6870 N   0  0  0  0  0  0
   -7.4020  -37.7750    3.5810 N   0  0  0  0  0  0
   -8.6930  -37.4620    3.7570 C   0  0  0  0  0  0
   -9.0060  -36.2400    3.2720 N   0  0  0  0  0  0
  -11.1980  -36.2890    2.3640 C   0  0  0  0  0  0
   -1.1410  -35.4060   -0.1660 F   0  0  0  0  0  0
   -0.0640  -38.6240    3.0450 F   0  0  0  0  0  0
   -0.5610  -36.9960    1.4400 C   0  0  0  0  0  0
   -2.8190  -36.2160    1.2210 C   0  0  0  0  0  0
   -2.2730  -37.8560    2.8830 C   0  0  0  0  0  0
  -10.3640  -35.5780    3.3470 C   0  0  0  0  0  0
   -6.1790  -33.0410    1.0800 C   0  0  0  0  0  0
   -1.5250  -36.2280    0.8130 C   0  0  0  0  0  0
   -0.9740  -37.8040    2.4420 C   0  0  0  0  0  0
   -3.2260  -37.0680    2.2440 C   0  0  0  0  0  0
   -8.0243  -32.1893    1.4310 H   0  0  0  0  0  0
   -4.6992  -38.1087    3.2477 H   0  0  0  0  0  0
   -9.4135  -38.1223    4.2397 H   0  0  0  0  0  0
  -12.2102  -35.8583    2.3621 H   0  0  0  0  0  0
  -11.2533  -37.3543    2.6324 H   0  0  0  0  0  0
  -10.7536  -36.1856    1.3631 H   0  0  0  0  0  0
    0.4858  -36.9518    1.1395 H   0  0  0  0  0  0
   -3.5358  -35.5431    0.7504 H   0  0  0  0  0  0
   -2.5523  -38.5009    3.7162 H   0  0  0  0  0  0
  -10.7659  -35.6801    4.3658 H   0  0  0  0  0  0
  -10.2663  -34.5113    3.0966 H   0  0  0  0  0  0
   -5.1777  -32.9357    0.6370 H   0  0  0  0  0  0
  1  2  1  0  0  0
  1  7  2  0  0  0
  2  4  2  0  0  0
  2 19  1  0  0  0
  3 19  2  0  0  0
  3 23  1  0  0  0
  4  5  1  0  0  0
  5  6  2  0  0  0
  5 11  1  0  0  0
  6  7  1  0  0  0
  6  9  1  0  0  0
  7  8  1  0  0  0
  8 22  1  0  0  0
  8 24  1  0  0  0
  9 10  2  0  0  0
 10 11  1  0  0  0
 10 25  1  0  0  0
 11 18  1  0  0  0
 12 18  1  0  0  0
 12 26  1  0  0  0
 12 27  1  0  0  0
 12 28  1  0  0  0
 13 20  1  0  0  0
 14 21  1  0  0  0
 15 20  2  0  0  0
 15 21  1  0  0  0
 15 29  1  0  0  0
 16 20  1  0  0  0
 16 22  2  0  0  0
 16 30  1  0  0  0
 17 21  2  0  0  0
 17 22  1  0  0  0
 17 31  1  0  0  0
 18 32  1  0  0  0
 18 33  1  0  0  0
 19 34  1  0  0  0
M  END
> <s_m_source_file>
../3i06_ligand.sdf

> <i_m_source_file_index>
1

> <s_epik_input>
W0NIM11bQ0gyXW4xW2NIXW5jKGMxMiljKG5jKG4yKS9bQ0hdPU5cW0hdKVtOSF1jKFtjSF0zKVtjSF1jKEYpW2NIXWMzRg==

> <s_epik_cmdline>
J2VwaWtfYXBwJywgJy1pbWFlJywgJ2xpZ2FuZF9wcm8ubWFlJywgJy1vbWFlJywgJ2xpZ2FuZF9wcmVwLm1hZScsICctbXMnLCAnMScsICctcGgnLCAnNycsICctcGh0JywgJzAuNScsICctbnQn

> <r_lp_tautomer_probability>
1

> <r_epik_Ionization_Penalty>
  0.0000

> <r_epik_Ionization_Penalty_Charging>
  0.0000

> <r_epik_Ionization_Penalty_Neutral>
  0.0000

> <r_epik_State_Penalty>
 -0.0000

> <r_epik_Charging_Adjusted_Penalty>
0

> <i_epik_Tot_Q>
0

> <i_epik_Tot_abs_Q>
0

> <s_epik_Chemistry_Notes>
This compound has an imine and may undergo hydrolysis.

$$$$
