3i0r_ligand
                    3D
 Schrodinger Suite 2020-3.
 49 51  0  0  1  0            999 V2000
    8.2530    4.7270   14.0780 O   0  0  0  0  0  0
    6.8620    4.9410   13.7840 S   0  0  0  0  0  0
    6.0660    4.2760   14.7800 O   0  0  0  0  0  0
    6.5360    4.3900   12.3100 N   0  0  0  0  0  0
    6.6060    6.5250   13.8310 C   0  0  0  0  0  0
    6.4210    7.1350   15.0630 C   0  0  0  0  0  0
    6.2070    8.4990   15.1400 C   0  0  0  0  0  0
    5.9710    9.2100   16.7590 Cl  0  0  0  0  0  0
    6.5820    7.2970   12.6630 C   0  0  0  0  0  0
    6.3690    8.6770   12.6920 C   0  0  0  0  0  0
    6.1780    9.3280   13.9050 C   0  0  0  0  0  0
    5.9700   10.6740   13.9580 N   0  0  0  0  0  0
    6.5300   11.5190   13.0840 C   0  0  0  0  0  0
    5.9060   12.1290   12.2340 O   0  0  0  0  0  0
    8.0190   11.7290   13.1630 C   0  0  0  0  0  0
    8.3700   13.1350   14.1740 S   0  0  0  0  0  0
    9.3080   12.6630   15.4720 C   0  0  0  0  0  0
    8.8640   11.8220   16.2320 O   0  0  0  0  0  0
   10.4570   13.2820   15.6930 N   0  0  0  0  0  0
   11.4260   13.6800   14.6800 C   0  0  0  0  0  0
   10.6450   13.6160   17.0300 C   0  0  0  0  0  0
    9.6870   13.2440   17.9570 C   0  0  0  0  0  0
   11.8230   14.3560   17.4820 C   0  0  0  0  0  0
   12.8510   14.7580   16.4590 C   0  0  0  0  0  0
   12.7920   13.7110   15.3570 C   0  0  0  0  0  0
   11.9320   14.6460   18.8350 C   0  0  0  0  0  0
   10.9430   14.2490   19.7280 C   0  0  0  0  0  0
   11.0550   14.5570   21.1910 C   0  0  0  0  0  0
    9.8360   13.5550   19.2960 C   0  0  0  0  0  0
    6.7113    3.3045   12.2773 H   0  0  0  0  0  0
    7.1893    4.8891   11.5792 H   0  0  0  0  0  0
    6.4444    6.5369   15.9739 H   0  0  0  0  0  0
    6.7342    6.8059   11.7019 H   0  0  0  0  0  0
    6.3525    9.2445   11.7616 H   0  0  0  0  0  0
    5.3227   11.1002   14.7386 H   0  0  0  0  0  0
    8.4922   10.8379   13.6011 H   0  0  0  0  0  0
    8.4197   11.8976   12.1525 H   0  0  0  0  0  0
   11.4167   12.9503   13.8570 H   0  0  0  0  0  0
   11.1624   14.6746   14.2911 H   0  0  0  0  0  0
    8.8030   12.6984   17.6270 H   0  0  0  0  0  0
   12.6074   15.7566   16.0673 H   0  0  0  0  0  0
   13.8457   14.7808   16.9281 H   0  0  0  0  0  0
   13.0028   12.7276   15.8026 H   0  0  0  0  0  0
   13.5653   13.9492   14.6118 H   0  0  0  0  0  0
   12.8022   15.1907   19.2013 H   0  0  0  0  0  0
   11.9863   15.1114   21.3787 H   0  0  0  0  0  0
   11.0656   13.6179   21.7636 H   0  0  0  0  0  0
   10.1953   15.1677   21.5040 H   0  0  0  0  0  0
    9.0735   13.2492   20.0123 H   0  0  0  0  0  0
  1  2  2  0  0  0
  2  3  2  0  0  0
  2  4  1  0  0  0
  2  5  1  0  0  0
  4 30  1  0  0  0
  4 31  1  0  0  0
  5  6  2  0  0  0
  5  9  1  0  0  0
  6  7  1  0  0  0
  6 32  1  0  0  0
  7  8  1  0  0  0
  7 11  2  0  0  0
  9 10  2  0  0  0
  9 33  1  0  0  0
 10 11  1  0  0  0
 10 34  1  0  0  0
 11 12  1  0  0  0
 12 13  1  0  0  0
 12 35  1  0  0  0
 13 14  2  0  0  0
 13 15  1  0  0  0
 15 16  1  0  0  0
 15 36  1  0  0  0
 15 37  1  0  0  0
 16 17  1  0  0  0
 17 18  2  0  0  0
 17 19  1  0  0  0
 19 20  1  0  0  0
 19 21  1  0  0  0
 20 25  1  0  0  0
 20 38  1  0  0  0
 20 39  1  0  0  0
 21 22  2  0  0  0
 21 23  1  0  0  0
 22 29  1  0  0  0
 22 40  1  0  0  0
 23 24  1  0  0  0
 23 26  2  0  0  0
 24 25  1  0  0  0
 24 41  1  0  0  0
 24 42  1  0  0  0
 25 43  1  0  0  0
 25 44  1  0  0  0
 26 27  1  0  0  0
 26 45  1  0  0  0
 27 28  1  0  0  0
 27 29  2  0  0  0
 28 46  1  0  0  0
 28 47  1  0  0  0
 28 48  1  0  0  0
 29 49  1  0  0  0
M  END
> <s_m_source_file>
../3i0r_ligand.sdf

> <i_m_source_file_index>
1

> <s_epik_input>
Tz1TKD1PKShbTkgyXSljMVtjSF1jKENsKWMoW2NIXVtjSF0xKVtOSF1DKD1PKVtDSDJdU0MoPU8pTjJbQ0gyXVtDSDJdW0NIMl1jKGMyMylbY0hdYyhbQ0gzXSlbY0hdW2NIXTM=

> <s_epik_cmdline>
J2VwaWtfYXBwJywgJy1pbWFlJywgJ2xpZ2FuZF9wcm8ubWFlJywgJy1vbWFlJywgJ2xpZ2FuZF9wcmVwLm1hZScsICctbXMnLCAnMScsICctcGgnLCAnNycsICctcGh0JywgJzAuNScsICctbnQn

> <r_lp_tautomer_probability>
1

> <r_epik_Ionization_Penalty>
  0.0011

> <r_epik_Ionization_Penalty_Charging>
  0.0000

> <r_epik_Ionization_Penalty_Neutral>
  0.0011

> <r_epik_State_Penalty>
 -0.0000

> <r_epik_Charging_Adjusted_Penalty>
0

> <i_epik_Tot_Q>
0

> <i_epik_Tot_abs_Q>
0

$$$$
