3i0s_ligand
                    3D
 Schrodinger Suite 2020-3.
 46 48  0  0  1  0            999 V2000
   10.5160   15.3650   21.2760 Cl  0  0  0  0  0  0
   10.6470   14.6320   19.6740 C   0  0  0  0  0  0
    9.8870   13.5080   19.4560 C   0  0  0  0  0  0
    9.9180   12.8690   18.2410 C   0  0  0  0  0  0
    8.8740   11.4100   18.0630 Cl  0  0  0  0  0  0
   11.4710   15.2130   18.7330 C   0  0  0  0  0  0
   11.5770   14.6570   17.4780 C   0  0  0  0  0  0
   12.4950   15.3050   16.4620 C   0  0  0  0  0  0
   12.5600   14.4690   15.1860 C   0  0  0  0  0  0
   12.2690   12.9810   15.3960 C   0  0  0  0  0  0
   10.9150   12.9020   15.9160 N   0  0  0  0  0  0
   10.7830   13.4430   17.1810 C   0  0  0  0  0  0
    9.8720   12.3890   15.2450 C   0  0  0  0  0  0
   10.0720   11.4910   14.4430 O   0  0  0  0  0  0
    8.2880   12.9400   15.4580 S   0  0  0  0  0  0
    7.1410   12.7580   14.1170 C   0  0  0  0  0  0
    6.7370   11.3340   13.8050 C   0  0  0  0  0  0
    6.8040   10.9770   12.6450 O   0  0  0  0  0  0
    6.3000   10.5430   14.7950 N   0  0  0  0  0  0
    6.3580    9.1860   14.7200 C   0  0  0  0  0  0
    6.1570    8.3410   15.9200 C   0  0  0  0  0  0
    5.8130    9.1040   17.5030 Cl  0  0  0  0  0  0
    6.2290    6.9550   15.8080 C   0  0  0  0  0  0
    6.4840    6.3500   14.5720 C   0  0  0  0  0  0
    6.5950    4.7310   14.4300 S   0  0  0  0  0  0
    8.0940    4.3270   14.8360 N   0  0  0  0  0  0
    5.6300    4.1020   15.2970 O   0  0  0  0  0  0
    6.3960    4.3210   13.0560 O   0  0  0  0  0  0
    6.6740    7.1640   13.4520 C   0  0  0  0  0  0
    6.6120    8.5490   13.5180 C   0  0  0  0  0  0
    9.2542   13.1204   20.2544 H   0  0  0  0  0  0
   12.0371   16.1105   18.9824 H   0  0  0  0  0  0
   12.1164   16.3072   16.2124 H   0  0  0  0  0  0
   13.5072   15.3901   16.8841 H   0  0  0  0  0  0
   11.8198   14.8440   14.4639 H   0  0  0  0  0  0
   13.5673   14.5427   14.7503 H   0  0  0  0  0  0
   12.3555   12.4514   14.4358 H   0  0  0  0  0  0
   12.9925   12.5633   16.1115 H   0  0  0  0  0  0
    6.2143   13.3027   14.3507 H   0  0  0  0  0  0
    7.5845   13.1667   13.1971 H   0  0  0  0  0  0
    5.8765   10.9874   15.7078 H   0  0  0  0  0  0
    6.0852    6.3345   16.6925 H   0  0  0  0  0  0
    8.2148    3.2367   14.7542 H   0  0  0  0  0  0
    8.2906    4.6410   15.8717 H   0  0  0  0  0  0
    6.8786    6.6934   12.4903 H   0  0  0  0  0  0
    6.7647    9.1402   12.6151 H   0  0  0  0  0  0
  1  2  1  0  0  0
  2  3  2  0  0  0
  2  6  1  0  0  0
  3  4  1  0  0  0
  3 31  1  0  0  0
  4  5  1  0  0  0
  4 12  2  0  0  0
  6  7  2  0  0  0
  6 32  1  0  0  0
  7  8  1  0  0  0
  7 12  1  0  0  0
  8  9  1  0  0  0
  8 33  1  0  0  0
  8 34  1  0  0  0
  9 10  1  0  0  0
  9 35  1  0  0  0
  9 36  1  0  0  0
 10 11  1  0  0  0
 10 37  1  0  0  0
 10 38  1  0  0  0
 11 12  1  0  0  0
 11 13  1  0  0  0
 13 14  2  0  0  0
 13 15  1  0  0  0
 15 16  1  0  0  0
 16 17  1  0  0  0
 16 39  1  0  0  0
 16 40  1  0  0  0
 17 18  2  0  0  0
 17 19  1  0  0  0
 19 20  1  0  0  0
 19 41  1  0  0  0
 20 21  2  0  0  0
 20 30  1  0  0  0
 21 22  1  0  0  0
 21 23  1  0  0  0
 23 24  2  0  0  0
 23 42  1  0  0  0
 24 25  1  0  0  0
 24 29  1  0  0  0
 25 26  1  0  0  0
 25 27  2  0  0  0
 25 28  2  0  0  0
 26 43  1  0  0  0
 26 44  1  0  0  0
 29 30  2  0  0  0
 29 45  1  0  0  0
 30 46  1  0  0  0
M  END
> <s_m_source_file>
../3i0s_ligand.sdf

> <i_m_source_file_index>
1

> <s_epik_input>
Q2xjKFtjSF0xKVtjSF1jKENsKWMoYzEyKU4oW0NIMl1bQ0gyXVtDSDJdMilDKD1PKVNbQ0gyXUMoPU8pW05IXWMzYyhDbClbY0hdYyhTKD1PKSg9TylbTkgyXSlbY0hdW2NIXTM=

> <s_epik_cmdline>
J2VwaWtfYXBwJywgJy1pbWFlJywgJ2xpZ2FuZF9wcm8ubWFlJywgJy1vbWFlJywgJ2xpZ2FuZF9wcmVwLm1hZScsICctbXMnLCAnMScsICctcGgnLCAnNycsICctcGh0JywgJzAuNScsICctbnQn

> <r_lp_tautomer_probability>
1

> <r_epik_Ionization_Penalty>
  0.0011

> <r_epik_Ionization_Penalty_Charging>
  0.0000

> <r_epik_Ionization_Penalty_Neutral>
  0.0011

> <r_epik_State_Penalty>
 -0.0000

> <r_epik_Charging_Adjusted_Penalty>
0

> <i_epik_Tot_Q>
0

> <i_epik_Tot_abs_Q>
0

$$$$
