3i25_ligand
                    3D
 Schrodinger Suite 2020-3.
118121  0  0  1  0            999 V2000
    1.9640   19.6660   28.1170 O   0  0  0  0  0  0
    1.1050   19.1480   28.7640 C   0  0  0  0  0  0
   -0.1700   19.1880   28.4050 N   0  0  0  0  0  0
   -0.6730   19.8340   27.2040 C   0  0  1  0  0  0
   -0.9300   18.7710   26.1540 C   0  0  0  0  0  0
   -0.2570   18.8160   24.9220 C   0  0  0  0  0  0
   -0.4660   17.8550   23.9060 C   0  0  0  0  0  0
   -1.3420   16.8000   24.1480 C   0  0  0  0  0  0
   -2.0000   16.7160   25.3860 C   0  0  0  0  0  0
   -1.7840   17.6790   26.3760 C   0  0  0  0  0  0
   -1.9410   20.5980   27.5960 C   0  0  0  0  0  0
    1.4920   18.3930   29.9880 C   0  0  0  0  0  0
    2.7160   17.7420   30.0250 C   0  0  0  0  0  0
    3.0660   16.9710   31.1380 C   0  0  0  0  0  0
    4.2930   16.2730   31.2400 N   0  0  0  0  0  0
    5.0780   15.6170   30.0290 S   0  0  0  0  0  0
    5.8330   14.5300   30.4760 O   0  0  0  0  0  0
    6.2800   16.6890   29.5700 C   0  0  0  0  0  0
    4.2050   15.3090   28.9690 O   0  0  0  0  0  0
    4.9180   16.1950   32.5870 C   0  0  0  0  0  0
    2.1730   16.9390   32.2180 C   0  0  0  0  0  0
    0.5970   18.3460   31.0500 C   0  0  0  0  0  0
    0.9400   17.5880   32.1580 C   0  0  0  0  0  0
   -0.0190   17.5770   33.2970 C   0  0  0  0  0  0
    0.4030   17.7810   34.4230 O   0  0  0  0  0  0
   -1.3050   17.3810   33.0330 N   0  0  0  0  0  0
   -2.3860   17.4200   34.0160 C   0  0  1  0  0  0
   -3.5490   18.0530   33.2280 C   0  0  0  0  0  0
   -3.2690   19.1660   32.3940 O   0  0  0  0  0  0
   -2.4180   20.2240   32.6500 C   0  0  0  0  0  0
   -1.9850   20.9610   31.5560 C   0  0  0  0  0  0
   -1.1190   22.0270   31.7500 C   0  0  0  0  0  0
   -0.7270   22.7090   30.6830 F   0  0  0  0  0  0
   -0.6530   22.3900   33.0200 C   0  0  0  0  0  0
   -1.0920   21.6640   34.1020 C   0  0  0  0  0  0
   -0.6590   21.9850   35.3260 F   0  0  0  0  0  0
   -1.9840   20.5920   33.9360 C   0  0  0  0  0  0
   -2.8150   16.0140   34.4450 C   0  0  1  0  0  0
   -3.2920   15.2790   33.3120 O   0  0  0  0  0  0
   -1.6230   15.2930   35.0190 C   0  0  0  0  0  0
   -2.0500   14.3690   36.1300 C   0  0  1  0  0  0
   -0.9580   13.4600   36.1870 O   0  0  0  0  0  0
   -1.2740   12.2260   36.8180 C   0  0  0  0  0  0
    0.0130   11.4120   36.7380 C   0  0  0  0  0  0
    0.3250   10.9840   38.0430 O   0  0  0  0  0  0
    0.7040   12.0560   38.9400 C   0  0  0  0  0  0
   -2.1490   15.0960   37.4490 C   0  0  0  0  0  0
   -1.1780   15.6960   37.8400 O   0  0  0  0  0  0
   -3.2930   15.0500   38.1270 N   0  0  0  0  0  0
   -3.3510   15.6930   39.4230 C   0  0  1  0  0  0
   -4.6600   15.5050   40.2170 C   0  0  0  0  0  0
   -5.3540   16.8330   40.4880 C   0  0  0  0  0  0
   -5.5840   14.3330   39.9030 C   0  0  0  0  0  0
   -2.4350   14.9710   40.3680 C   0  0  0  0  0  0
   -2.3000   13.7480   40.2920 O   0  0  0  0  0  0
   -1.8320   15.7110   41.2930 N   0  0  0  0  0  0
   -0.9330   15.2190   42.3350 C   0  0  0  0  0  0
    0.3550   15.9660   42.2180 C   0  0  0  0  0  0
    1.1960   15.7030   41.1490 C   0  0  0  0  0  0
    2.3960   16.3930   41.0460 C   0  0  0  0  0  0
    0.6950   16.9150   43.1970 C   0  0  0  0  0  0
    1.8900   17.6230   43.0980 C   0  0  0  0  0  0
    2.7330   17.3520   42.0160 C   0  0  0  0  0  0
   -0.8666   18.6847   29.0916 H   0  0  0  0  0  0
    0.0794   20.5297   26.8042 H   0  0  0  0  0  0
    0.4537   19.6227   24.7422 H   0  0  0  0  0  0
    0.0499   17.9386   22.9495 H   0  0  0  0  0  0
   -1.5159   16.0445   23.3818 H   0  0  0  0  0  0
   -2.6864   15.8911   25.5769 H   0  0  0  0  0  0
   -2.2877   17.5803   27.3376 H   0  0  0  0  0  0
   -1.6938   21.3525   28.3574 H   0  0  0  0  0  0
   -2.6817   19.8944   28.0039 H   0  0  0  0  0  0
   -2.3582   21.0959   26.7083 H   0  0  0  0  0  0
    3.4058   17.8314   29.1858 H   0  0  0  0  0  0
    6.9336   16.8972   30.4300 H   0  0  0  0  0  0
    5.8218   17.6266   29.2222 H   0  0  0  0  0  0
    6.8741   16.2473   28.7564 H   0  0  0  0  0  0
    4.2658   16.6881   33.3229 H   0  0  0  0  0  0
    5.8955   16.6991   32.5674 H   0  0  0  0  0  0
    5.0550   15.1401   32.8671 H   0  0  0  0  0  0
    2.4476   16.3962   33.1225 H   0  0  0  0  0  0
   -0.3471   18.8895   31.0125 H   0  0  0  0  0  0
   -1.5299   17.1758   31.9760 H   0  0  0  0  0  0
   -2.0453   17.9614   34.9108 H   0  0  0  0  0  0
   -3.9897   17.3008   32.5573 H   0  0  0  0  0  0
   -4.3156   18.4118   33.9306 H   0  0  0  0  0  0
   -2.3230   20.7039   30.5522 H   0  0  0  0  0  0
    0.0376   23.2237   33.1469 H   0  0  0  0  0  0
   -2.3413   20.0431   34.8073 H   0  0  0  0  0  0
   -3.6471   16.0504   35.1636 H   0  0  0  0  0  0
   -4.1636   15.6425   32.7478 H   0  0  0  0  0  0
   -1.1370   14.7014   34.2291 H   0  0  0  0  0  0
   -0.9084   16.0271   35.4195 H   0  0  0  0  0  0
   -3.0119   13.8664   35.9505 H   0  0  0  0  0  0
   -1.5757   12.4133   37.8591 H   0  0  0  0  0  0
   -2.1001   11.7394   36.2788 H   0  0  0  0  0  0
   -0.1409   10.5469   36.0762 H   0  0  0  0  0  0
    0.8207   12.0416   36.3366 H   0  0  0  0  0  0
    0.9306   11.6404   39.9329 H   0  0  0  0  0  0
   -0.1248   12.7744   39.0236 H   0  0  0  0  0  0
    1.5941   12.5674   38.5447 H   0  0  0  0  0  0
   -4.1812   14.5399   37.7259 H   0  0  0  0  0  0
   -3.1276   16.7288   39.1275 H   0  0  0  0  0  0
   -4.3045   15.1093   41.1798 H   0  0  0  0  0  0
   -4.5993   17.6042   40.7018 H   0  0  0  0  0  0
   -6.0246   16.7264   41.3534 H   0  0  0  0  0  0
   -5.9394   17.1277   39.6046 H   0  0  0  0  0  0
   -4.9825   13.4294   39.7249 H   0  0  0  0  0  0
   -6.1754   14.5629   39.0044 H   0  0  0  0  0  0
   -6.2605   14.1615   40.7532 H   0  0  0  0  0  0
   -2.0619   16.7847   41.2268 H   0  0  0  0  0  0
   -1.3862   15.3925   43.3222 H   0  0  0  0  0  0
   -0.7631   14.1414   42.1939 H   0  0  0  0  0  0
    0.9188   14.9633   40.3980 H   0  0  0  0  0  0
    3.0738   16.1918   40.2164 H   0  0  0  0  0  0
    0.0223   17.0972   44.0351 H   0  0  0  0  0  0
    2.1612   18.3692   43.8448 H   0  0  0  0  0  0
    3.6725   17.8968   41.9229 H   0  0  0  0  0  0
  1  2  2  0  0  0
  2  3  1  0  0  0
  2 12  1  0  0  0
  3  4  1  0  0  0
  3 64  1  0  0  0
  4  5  1  0  0  0
  4 11  1  0  0  0
  4 65  1  0  0  0
  5  6  2  0  0  0
  5 10  1  0  0  0
  6  7  1  0  0  0
  6 66  1  0  0  0
  7  8  2  0  0  0
  7 67  1  0  0  0
  8  9  1  0  0  0
  8 68  1  0  0  0
  9 10  2  0  0  0
  9 69  1  0  0  0
 10 70  1  0  0  0
 11 71  1  0  0  0
 11 72  1  0  0  0
 11 73  1  0  0  0
 12 13  2  0  0  0
 12 22  1  0  0  0
 13 14  1  0  0  0
 13 74  1  0  0  0
 14 15  1  0  0  0
 14 21  2  0  0  0
 15 16  1  0  0  0
 15 20  1  0  0  0
 16 17  2  0  0  0
 16 18  1  0  0  0
 16 19  2  0  0  0
 18 75  1  0  0  0
 18 76  1  0  0  0
 18 77  1  0  0  0
 20 78  1  0  0  0
 20 79  1  0  0  0
 20 80  1  0  0  0
 21 23  1  0  0  0
 21 81  1  0  0  0
 22 23  2  0  0  0
 22 82  1  0  0  0
 23 24  1  0  0  0
 24 25  2  0  0  0
 24 26  1  0  0  0
 26 27  1  0  0  0
 26 83  1  0  0  0
 27 28  1  0  0  0
 27 38  1  0  0  0
 27 84  1  0  0  0
 28 29  1  0  0  0
 28 85  1  0  0  0
 28 86  1  0  0  0
 29 30  1  0  0  0
 30 31  2  0  0  0
 30 37  1  0  0  0
 31 32  1  0  0  0
 31 87  1  0  0  0
 32 33  1  0  0  0
 32 34  2  0  0  0
 34 35  1  0  0  0
 34 88  1  0  0  0
 35 36  1  0  0  0
 35 37  2  0  0  0
 37 89  1  0  0  0
 38 39  1  0  0  0
 38 40  1  0  0  0
 38 90  1  0  0  0
 39 91  1  0  0  0
 40 41  1  0  0  0
 40 92  1  0  0  0
 40 93  1  0  0  0
 41 42  1  0  0  0
 41 47  1  0  0  0
 41 94  1  0  0  0
 42 43  1  0  0  0
 43 44  1  0  0  0
 43 95  1  0  0  0
 43 96  1  0  0  0
 44 45  1  0  0  0
 44 97  1  0  0  0
 44 98  1  0  0  0
 45 46  1  0  0  0
 46 99  1  0  0  0
 46100  1  0  0  0
 46101  1  0  0  0
 47 48  2  0  0  0
 47 49  1  0  0  0
 49 50  1  0  0  0
 49102  1  0  0  0
 50 51  1  0  0  0
 50 54  1  0  0  0
 50103  1  0  0  0
 51 52  1  0  0  0
 51 53  1  0  0  0
 51104  1  0  0  0
 52105  1  0  0  0
 52106  1  0  0  0
 52107  1  0  0  0
 53108  1  0  0  0
 53109  1  0  0  0
 53110  1  0  0  0
 54 55  2  0  0  0
 54 56  1  0  0  0
 56 57  1  0  0  0
 56111  1  0  0  0
 57 58  1  0  0  0
 57112  1  0  0  0
 57113  1  0  0  0
 58 59  2  0  0  0
 58 61  1  0  0  0
 59 60  1  0  0  0
 59114  1  0  0  0
 60 63  2  0  0  0
 60115  1  0  0  0
 61 62  2  0  0  0
 61116  1  0  0  0
 62 63  1  0  0  0
 62117  1  0  0  0
 63118  1  0  0  0
M  END
> <s_m_source_file>
../3i25_ligand.sdf

> <i_m_source_file_index>
1

> <s_epik_input>
W2NIXTFbY0hdW2NIXVtjSF1bY0hdYzFbQ0BASF0oW0NIM10pW05IXUMoPU8pYzJbY0hdYyhOKFtDSDNdKVMoPU8pKD1PKVtDSDNdKVtjSF1jKFtjSF0yKUMoPU8pW05IXVtDQEBIXShbQ0gyXU9jM1tjSF1jKEYpW2NIXWMoRilbY0hdMylbQ0BASF0oW09IXSlbQ0gyXVtDQEBIXShPW0NIMl1bQ0gyXU9bQ0gzXSlDKD1PKVtOSF1bQ0BASF0oW0NIXShbQ0gzXSlbQ0gzXSlDKD1PKVtOSF1bQ0gyXWM0W2NIXVtjSF1bY0hdW2NIXVtjSF00

> <s_epik_cmdline>
J2VwaWtfYXBwJywgJy1pbWFlJywgJ2xpZ2FuZF9wcm8ubWFlJywgJy1vbWFlJywgJ2xpZ2FuZF9wcmVwLm1hZScsICctbXMnLCAnMScsICctcGgnLCAnNycsICctcGh0JywgJzAuNScsICctbnQn

> <r_lp_tautomer_probability>
1

> <r_epik_Ionization_Penalty>
  0.0000

> <r_epik_Ionization_Penalty_Charging>
  0.0000

> <r_epik_Ionization_Penalty_Neutral>
  0.0000

> <r_epik_State_Penalty>
 -0.0000

> <r_epik_Charging_Adjusted_Penalty>
0

> <i_epik_Tot_Q>
0

> <i_epik_Tot_abs_Q>
0

$$$$
