3i28_ligand
                    3D
 Schrodinger Suite 2020-3.
 52 54  0  0  1  0            999 V2000
   76.5500   -8.5710   72.6420 C   0  0  0  0  0  0
   76.6930   -7.8800   71.4490 C   0  0  0  0  0  0
   76.0050   -8.3230   70.3220 C   0  0  0  0  0  0
   75.1870   -9.4530   70.3820 C   0  0  0  0  0  0
   75.7320   -9.6900   72.7060 C   0  0  0  0  0  0
   73.9330   -9.7370   66.7590 C   0  0  0  0  0  0
   74.9540   -8.8750   64.7200 C   0  0  0  0  0  0
   75.0330   -7.8340   63.6640 C   0  0  0  0  0  0
   75.1940   -5.8980   61.6940 C   0  0  0  0  0  0
   76.1900   -6.8620   61.8210 C   0  0  0  0  0  0
   76.1140   -7.8180   62.7930 C   0  0  0  0  0  0
   75.7920  -12.0230   68.7710 C   0  0  0  0  0  0
   74.7470  -14.1770   68.7210 C   0  0  0  0  0  0
   74.8200  -15.5240   68.5920 F   0  0  0  0  0  0
   75.8900  -13.3950   68.6360 C   0  0  0  0  0  0
   73.5130  -13.5840   68.9290 C   0  0  0  0  0  0
   73.4130  -12.2210   69.0740 C   0  0  0  0  0  0
   74.5550  -11.4390   68.9890 C   0  0  0  0  0  0
   74.4000   -9.9500   69.1710 C   0  0  2  0  0  0
   75.0480  -10.1260   71.5820 C   0  0  0  0  0  0
   77.4080   -8.0520   74.0940 S   0  0  0  0  0  0
   76.5430   -8.3950   75.1650 O   0  0  0  0  0  0
   77.7600   -6.6840   73.8950 O   0  0  0  0  0  0
   78.8760   -9.1170   74.0300 C   0  0  0  0  0  0
   74.7890   -9.1980   67.9040 C   0  0  0  0  0  0
   74.0290   -8.7360   65.6970 N   0  0  0  0  0  0
   75.7140   -9.8260   64.7080 O   0  0  0  0  0  0
   75.3380   -4.9110   60.6680 C   0  0  0  0  0  0
   75.4190   -4.1130   59.8640 N   0  0  0  0  0  0
   74.0990   -5.8850   62.5700 C   0  0  0  0  0  0
   74.0230   -6.8640   63.5540 C   0  0  0  0  0  0
   77.3356   -7.0013   71.3936 H   0  0  0  0  0  0
   76.1063   -7.7810   69.3817 H   0  0  0  0  0  0
   75.6265  -10.2300   73.6469 H   0  0  0  0  0  0
   74.3287  -10.7099   66.4319 H   0  0  0  0  0  0
   72.8955   -9.8601   67.1033 H   0  0  0  0  0  0
   77.0392   -6.8537   61.1377 H   0  0  0  0  0  0
   76.9005   -8.5671   62.8849 H   0  0  0  0  0  0
   76.6856  -11.4022   68.7061 H   0  0  0  0  0  0
   76.8604  -13.8604   68.4636 H   0  0  0  0  0  0
   72.6162  -14.2016   68.9780 H   0  0  0  0  0  0
   72.4429  -11.7580   69.2545 H   0  0  0  0  0  0
   73.3338   -9.7578   69.3616 H   0  0  0  0  0  0
   74.3999  -11.0002   71.6441 H   0  0  0  0  0  0
   78.5766  -10.1639   74.1861 H   0  0  0  0  0  0
   79.5819   -8.8161   74.8182 H   0  0  0  0  0  0
   79.3593   -9.0165   73.0470 H   0  0  0  0  0  0
   75.8525   -9.3610   67.6749 H   0  0  0  0  0  0
   74.6013   -8.1211   68.0267 H   0  0  0  0  0  0
   73.3493   -7.8711   65.6933 H   0  0  0  0  0  0
   73.3241   -5.1236   62.4812 H   0  0  0  0  0  0
   73.1776   -6.8790   64.2419 H   0  0  0  0  0  0
  1  2  2  0  0  0
  1  5  1  0  0  0
  1 21  1  0  0  0
  2  3  1  0  0  0
  2 32  1  0  0  0
  3  4  2  0  0  0
  3 33  1  0  0  0
  4 19  1  0  0  0
  4 20  1  0  0  0
  5 20  2  0  0  0
  5 34  1  0  0  0
  6 25  1  0  0  0
  6 26  1  0  0  0
  6 35  1  0  0  0
  6 36  1  0  0  0
  7  8  1  0  0  0
  7 26  1  0  0  0
  7 27  2  0  0  0
  8 11  2  0  0  0
  8 31  1  0  0  0
  9 10  2  0  0  0
  9 28  1  0  0  0
  9 30  1  0  0  0
 10 11  1  0  0  0
 10 37  1  0  0  0
 11 38  1  0  0  0
 12 15  2  0  0  0
 12 18  1  0  0  0
 12 39  1  0  0  0
 13 14  1  0  0  0
 13 15  1  0  0  0
 13 16  2  0  0  0
 15 40  1  0  0  0
 16 17  1  0  0  0
 16 41  1  0  0  0
 17 18  2  0  0  0
 17 42  1  0  0  0
 18 19  1  0  0  0
 19 25  1  0  0  0
 19 43  1  0  0  0
 20 44  1  0  0  0
 21 22  2  0  0  0
 21 23  2  0  0  0
 21 24  1  0  0  0
 24 45  1  0  0  0
 24 46  1  0  0  0
 24 47  1  0  0  0
 25 48  1  0  0  0
 25 49  1  0  0  0
 26 50  1  0  0  0
 28 29  3  0  0  0
 30 31  2  0  0  0
 30 51  1  0  0  0
 31 52  1  0  0  0
M  END
> <s_m_source_file>
../3i28_ligand.sdf

> <i_m_source_file_index>
1

> <s_epik_input>
Tz1TKD1PKShbQ0gzXSljMVtjSF1bY0hdYyhbY0hdW2NIXTEpW0NASF0oYyhbY0hdW2NIXTIpW2NIXVtjSF1jMkYpW0NIMl1bQ0gyXVtOSF1DKD1PKWMzW2NIXVtjSF1jKEMjTilbY0hdW2NIXTM=

> <s_epik_cmdline>
J2VwaWtfYXBwJywgJy1pbWFlJywgJ2xpZ2FuZF9wcm8ubWFlJywgJy1vbWFlJywgJ2xpZ2FuZF9wcmVwLm1hZScsICctbXMnLCAnMScsICctcGgnLCAnNycsICctcGh0JywgJzAuNScsICctbnQn

> <r_lp_tautomer_probability>
1

> <r_epik_Ionization_Penalty>
  0.0000

> <r_epik_Ionization_Penalty_Charging>
  0.0000

> <r_epik_Ionization_Penalty_Neutral>
  0.0000

> <r_epik_State_Penalty>
 -0.0000

> <r_epik_Charging_Adjusted_Penalty>
0

> <i_epik_Tot_Q>
0

> <i_epik_Tot_abs_Q>
0

$$$$
