3i4a_ligand
                    3D
 Schrodinger Suite 2020-3.
 33 32  0  0  1  0            999 V2000
    2.3860  -22.0780  -14.3500 C   0  0  0  0  0  0
    1.5290  -21.9290  -15.5970 C   0  0  0  0  0  0
    1.1390  -20.4980  -15.9080 C   0  0  1  0  0  0
    1.4420  -19.6690  -14.7960 N   0  0  0  0  0  0
    2.0190  -19.8850  -16.8990 N   0  3  0  0  0  0
    2.0480  -20.4620  -18.2570 C   0  0  0  0  0  0
    2.8750  -19.5520  -19.1900 C   0  0  0  0  0  0
    2.8780  -20.0750  -20.6560 C   0  0  0  0  0  0
    3.6250  -19.1460  -21.6260 C   0  0  1  0  0  0
    5.1280  -19.1450  -21.3400 C   0  0  0  0  0  0
    5.8340  -19.9250  -22.0180 O   0  5  0  0  0  0
    5.5410  -18.3460  -20.4710 O   0  0  0  0  0  0
    3.4170  -19.5880  -23.0140 N   0  3  0  0  0  0
    2.6251  -23.1403  -14.1942 H   0  0  0  0  0  0
    1.8351  -21.6945  -13.4785 H   0  0  0  0  0  0
    3.3178  -21.5070  -14.4751 H   0  0  0  0  0  0
    2.0799  -22.3125  -16.4685 H   0  0  0  0  0  0
    0.5972  -22.5000  -15.4719 H   0  0  0  0  0  0
    0.0783  -20.5054  -16.1993 H   0  0  0  0  0  0
    2.5190  -19.7252  -14.5795 H   0  0  0  0  0  0
    1.1685  -18.6292  -15.0285 H   0  0  0  0  0  0
    1.7318  -18.8330  -17.0435 H   0  0  0  0  0  0
    3.0598  -19.9359  -16.5466 H   0  0  0  0  0  0
    2.5066  -21.4612  -18.2211 H   0  0  0  0  0  0
    1.0211  -20.5435  -18.6428 H   0  0  0  0  0  0
    2.4479  -18.5383  -19.1864 H   0  0  0  0  0  0
    3.9157  -19.5127  -18.8358 H   0  0  0  0  0  0
    3.3681  -21.0591  -20.6932 H   0  0  0  0  0  0
    1.8422  -20.1675  -21.0144 H   0  0  0  0  0  0
    3.2181  -18.1287  -21.5280 H   0  0  0  0  0  0
    2.3403  -19.5953  -23.2390 H   0  0  0  0  0  0
    3.8251  -20.6016  -23.1411 H   0  0  0  0  0  0
    3.9302  -18.8975  -23.6995 H   0  0  0  0  0  0
  1  2  1  0  0  0
  1 14  1  0  0  0
  1 15  1  0  0  0
  1 16  1  0  0  0
  2  3  1  0  0  0
  2 17  1  0  0  0
  2 18  1  0  0  0
  3  4  1  0  0  0
  3  5  1  0  0  0
  3 19  1  0  0  0
  4 20  1  0  0  0
  4 21  1  0  0  0
  5  6  1  0  0  0
  5 22  1  0  0  0
  5 23  1  0  0  0
  6  7  1  0  0  0
  6 24  1  0  0  0
  6 25  1  0  0  0
  7  8  1  0  0  0
  7 26  1  0  0  0
  7 27  1  0  0  0
  8  9  1  0  0  0
  8 28  1  0  0  0
  8 29  1  0  0  0
  9 10  1  0  0  0
  9 13  1  0  0  0
  9 30  1  0  0  0
 10 11  1  0  0  0
 10 12  2  0  0  0
 13 31  1  0  0  0
 13 32  1  0  0  0
 13 33  1  0  0  0
M  CHG  3   5   1  11  -1  13   1
M  END
> <s_m_source_file>
../3i4a_ligand.sdf

> <i_m_source_file_index>
1

> <s_epik_input>
W0NIM11bQ0gyXVtDQEBIXShbTkgzK10pW05IMitdW0NIMl1bQ0gyXVtDSDJdW0NASF0oW05IMytdKUMoPU8pW09IXQ==

> <s_epik_cmdline>
J2VwaWtfYXBwJywgJy1pbWFlJywgJ2xpZ2FuZF9wcm8ubWFlJywgJy1vbWFlJywgJ2xpZ2FuZF9wcmVwLm1hZScsICctbXMnLCAnMScsICctcGgnLCAnNycsICctcGh0JywgJzAuNScsICctbnQn

> <r_epik_Ionization_Penalty>
  0.0034

> <r_epik_Ionization_Penalty_Charging>
  0.0033

> <r_epik_Ionization_Penalty_Neutral>
  0.0001

> <r_epik_State_Penalty>
  0.2961

> <r_epik_Charging_Adjusted_Penalty>
0.299413521415083

> <i_epik_Tot_Q>
1

> <i_epik_Tot_abs_Q>
3

> <s_epik_Chemistry_Notes>
This compound contains an acetal/aminal-like group ( X-CH(R)-Y where X, Y are N, S, or O) that may be acid/base labile, releasing an aldehyde.

$$$$
