3i5r_ligand
                    3D
 Schrodinger Suite 2020-3.
154157  0  0  1  0            999 V2000
   -7.4700   31.2800   18.0240 N   0  3  0  0  0  0
   -6.6630   30.2320   17.4030 C   0  0  2  0  0  0
   -6.0300   29.3170   18.4530 C   0  0  0  0  0  0
   -5.6010   29.7690   19.5160 O   0  0  0  0  0  0
   -5.5700   30.8450   16.5260 C   0  0  0  0  0  0
   -6.0570   31.9420   15.5940 C   0  0  0  0  0  0
   -4.9970   33.0280   15.4210 C   0  0  0  0  0  0
   -3.7520   32.5110   14.7100 C   0  0  0  0  0  0
   -3.9440   32.4110   13.2400 N   0  3  0  0  0  0
   -5.9870   28.0240   18.1510 N   0  0  0  0  0  0
   -5.2820   27.0640   18.9840 C   0  0  2  0  0  0
   -3.8100   27.4450   19.0810 C   0  0  0  0  0  0
   -3.1680   27.6960   18.0680 O   0  0  0  0  0  0
   -5.4080   25.6730   18.3720 C   0  0  0  0  0  0
   -4.6670   24.5960   19.1250 C   0  0  0  0  0  0
   -4.8180   23.2740   18.4060 C   0  0  0  0  0  0
   -4.0690   22.2140   19.0770 N   0  0  0  0  0  0
   -3.8710   21.0100   18.5570 C   0  0  0  0  0  0
   -4.3640   20.7200   17.3540 N   0  0  0  0  0  0
   -3.1860   20.0940   19.2340 N   0  0  0  0  0  0
   -3.2710   27.5080   20.3090 N   0  0  0  0  0  0
   -1.8660   27.8710   20.4830 C   0  0  2  0  0  0
   -0.9360   26.8650   19.8110 C   0  0  0  0  0  0
   -1.2080   25.6700   19.8200 O   0  0  0  0  0  0
   -1.6790   27.8230   22.0090 C   0  0  0  0  0  0
   -2.8550   27.0350   22.5170 C   0  0  0  0  0  0
   -3.9650   27.4110   21.6020 C   0  0  0  0  0  0
    0.1560   27.3550   19.2420 N   0  0  0  0  0  0
    1.1680   26.4710   18.6660 C   0  0  2  0  0  0
    2.0740   25.9610   19.7610 C   0  0  0  0  0  0
    2.3770   26.6970   20.7070 O   0  0  0  0  0  0
    2.0320   27.2450   17.6990 C   0  0  0  0  0  0
    1.3390   27.5760   16.3830 C   0  0  0  0  0  0
    2.0890   28.6720   15.6640 C   0  0  0  0  0  0
    1.2680   26.3170   15.5430 C   0  0  0  0  0  0
    2.5420   24.7130   19.6320 N   0  0  0  0  0  0
    3.5360   24.2550   20.5990 C   0  0  2  0  0  0
    4.8800   24.8860   20.2450 C   0  0  0  0  0  0
    5.1050   25.2260   19.0900 O   0  0  0  0  0  0
    3.5530   22.7470   20.3590 C   0  0  0  0  0  0
    3.3550   22.6480   18.8860 C   0  0  0  0  0  0
    2.2580   23.6760   18.6210 C   0  0  0  0  0  0
    5.7570   25.0770   21.2380 N   0  0  0  0  0  0
    7.1130   25.5110   20.9230 C   0  0  2  0  0  0
    7.8280   24.4230   20.1210 C   0  0  0  0  0  0
    7.4410   23.2390   20.1790 O   0  0  0  0  0  0
    7.7610   25.6530   22.3070 C   0  0  0  0  0  0
    6.9630   24.7050   23.1650 C   0  0  0  0  0  0
    5.5620   24.9110   22.6870 C   0  0  0  0  0  0
    8.8370   24.8230   19.3530 N   0  0  0  0  0  0
    9.6830   23.8470   18.6810 C   0  0  2  0  0  0
   10.3790   22.9730   19.7130 C   0  0  0  0  0  0
   10.7020   23.4340   20.8130 O   0  0  0  0  0  0
   10.7250   24.5350   17.7990 C   0  0  0  0  0  0
   10.2160   25.3210   16.5980 C   0  0  0  0  0  0
   11.4180   25.9200   15.8670 C   0  0  0  0  0  0
    9.3590   24.4640   15.6780 C   0  0  0  0  0  0
   10.6040   21.6970   19.3710 N   0  0  0  0  0  0
   11.2830   20.7940   20.3060 C   0  0  2  0  0  0
   12.7700   21.1010   20.3310 C   0  0  0  0  0  0
   13.2490   21.8560   19.4760 O   0  0  0  0  0  0
   11.0500   19.4100   19.6870 C   0  0  0  0  0  0
   10.8400   19.6960   18.2300 C   0  0  0  0  0  0
   10.0460   20.9670   18.2230 C   0  0  0  0  0  0
   13.4740   20.4990   21.2850 N   0  0  0  0  0  0
   14.8960   20.7430   21.5130 C   0  0  2  0  0  0
   15.0840   21.9400   22.4380 C   0  0  0  0  0  0
   15.9190   21.9120   23.3360 O   0  0  0  0  0  0
   15.6520   20.9480   20.1950 C   0  0  0  0  0  0
   17.0010   21.3250   20.4220 O   0  0  0  0  0  0
   14.4030   22.9510   22.3000 O   0  0  0  0  0  0
   -8.2493   30.8204   18.6497 H   0  0  0  0  0  0
   -7.9419   31.8918   17.2410 H   0  0  0  0  0  0
   -6.8263   31.9167   18.6487 H   0  0  0  0  0  0
   -7.3722   29.6563   16.7902 H   0  0  0  0  0  0
   -4.7924   31.2882   17.1655 H   0  0  0  0  0  0
   -5.1238   30.0620   15.8953 H   0  0  0  0  0  0
   -6.2833   31.5113   14.6075 H   0  0  0  0  0  0
   -6.9656   32.4008   16.0110 H   0  0  0  0  0  0
   -5.4122   33.8539   14.8248 H   0  0  0  0  0  0
   -4.6939   33.4052   16.4088 H   0  0  0  0  0  0
   -2.9115   33.1951   14.8984 H   0  0  0  0  0  0
   -3.5019   31.5095   15.0902 H   0  0  0  0  0  0
   -3.0211   32.0348   12.7745 H   0  0  0  0  0  0
   -4.1813   33.4049   12.8328 H   0  0  0  0  0  0
   -4.7717   31.7193   13.0246 H   0  0  0  0  0  0
   -6.5050   27.6868   17.2411 H   0  0  0  0  0  0
   -5.7541   27.1008   19.9768 H   0  0  0  0  0  0
   -6.4674   25.3781   18.3468 H   0  0  0  0  0  0
   -5.0063   25.6851   17.3480 H   0  0  0  0  0  0
   -3.6004   24.8583   19.1851 H   0  0  0  0  0  0
   -5.0806   24.5077   20.1404 H   0  0  0  0  0  0
   -5.8802   22.9892   18.3815 H   0  0  0  0  0  0
   -4.4405   23.3708   17.3773 H   0  0  0  0  0  0
   -3.6322   22.3934   20.0705 H   0  0  0  0  0  0
   -4.9308   21.4787   16.7944 H   0  0  0  0  0  0
   -4.2043   19.7218   16.9202 H   0  0  0  0  0  0
   -2.7792   20.3343   20.2274 H   0  0  0  0  0  0
   -1.6677   28.8465   20.0149 H   0  0  0  0  0  0
   -0.7250   27.3294   22.2461 H   0  0  0  0  0  0
   -1.6714   28.8473   22.4099 H   0  0  0  0  0  0
   -2.6248   25.9604   22.4685 H   0  0  0  0  0  0
   -3.0638   27.3186   23.5591 H   0  0  0  0  0  0
   -4.4181   28.3825   21.8487 H   0  0  0  0  0  0
   -4.7518   26.6448   21.5393 H   0  0  0  0  0  0
    0.2944   28.4457   19.2073 H   0  0  0  0  0  0
    0.6284   25.6538   18.1649 H   0  0  0  0  0  0
    2.3326   28.1984   18.1581 H   0  0  0  0  0  0
    2.9288   26.6561   17.4562 H   0  0  0  0  0  0
    0.3181   27.9436   16.5638 H   0  0  0  0  0  0
    2.1230   29.5701   16.2983 H   0  0  0  0  0  0
    1.5762   28.9089   14.7201 H   0  0  0  0  0  0
    3.1141   28.3353   15.4499 H   0  0  0  0  0  0
    0.7171   25.5398   16.0930 H   0  0  0  0  0  0
    2.2866   25.9618   15.3280 H   0  0  0  0  0  0
    0.7487   26.5354   14.5982 H   0  0  0  0  0  0
    3.2924   24.5331   21.6350 H   0  0  0  0  0  0
    4.5184   22.3344   20.6871 H   0  0  0  0  0  0
    2.7397   22.2756   20.9302 H   0  0  0  0  0  0
    4.2968   22.8910   18.3723 H   0  0  0  0  0  0
    3.0487   21.6242   18.6252 H   0  0  0  0  0  0
    1.2472   23.2733   18.7827 H   0  0  0  0  0  0
    2.3202   24.1175   17.6154 H   0  0  0  0  0  0
    7.1083   26.4333   20.3235 H   0  0  0  0  0  0
    8.8224   25.3709   22.2456 H   0  0  0  0  0  0
    7.6779   26.6963   22.6455 H   0  0  0  0  0  0
    7.3171   23.6764   23.0019 H   0  0  0  0  0  0
    7.0907   24.9731   24.2242 H   0  0  0  0  0  0
    5.0936   25.8166   23.1000 H   0  0  0  0  0  0
    4.9107   24.0442   22.8724 H   0  0  0  0  0  0
    9.0309   25.8984   19.2268 H   0  0  0  0  0  0
    9.0052   23.2467   18.0564 H   0  0  0  0  0  0
   11.2951   25.2580   18.4009 H   0  0  0  0  0  0
   11.4107   23.7809   17.3853 H   0  0  0  0  0  0
    9.5553   26.1287   16.9461 H   0  0  0  0  0  0
   12.0070   26.5295   16.5681 H   0  0  0  0  0  0
   11.0656   26.5518   15.0384 H   0  0  0  0  0  0
   12.0460   25.1095   15.4687 H   0  0  0  0  0  0
    8.5091   24.0552   16.2441 H   0  0  0  0  0  0
    9.9644   23.6375   15.2775 H   0  0  0  0  0  0
    8.9840   25.0798   14.8473 H   0  0  0  0  0  0
   10.8980   20.9105   21.3298 H   0  0  0  0  0  0
   11.9321   18.7767   19.8624 H   0  0  0  0  0  0
   10.1670   18.9452   20.1499 H   0  0  0  0  0  0
   11.8154   19.8131   17.7350 H   0  0  0  0  0  0
   10.2921   18.8616   17.7678 H   0  0  0  0  0  0
    8.9706   20.7995   18.3826 H   0  0  0  0  0  0
   10.1931   21.5573   17.3065 H   0  0  0  0  0  0
   12.9297   19.7847   21.9203 H   0  0  0  0  0  0
   15.2720   19.8320   22.0015 H   0  0  0  0  0  0
   15.6448   20.0111   19.6187 H   0  0  0  0  0  0
   15.1625   21.7414   19.6111 H   0  0  0  0  0  0
   17.6717   21.5083   19.5696 H   0  0  0  0  0  0
   14.5482   23.8082   22.9739 H   0  0  0  0  0  0
  1  2  1  0  0  0
  1 72  1  0  0  0
  1 73  1  0  0  0
  1 74  1  0  0  0
  2  3  1  0  0  0
  2  5  1  0  0  0
  2 75  1  0  0  0
  3  4  2  0  0  0
  3 10  1  0  0  0
  5  6  1  0  0  0
  5 76  1  0  0  0
  5 77  1  0  0  0
  6  7  1  0  0  0
  6 78  1  0  0  0
  6 79  1  0  0  0
  7  8  1  0  0  0
  7 80  1  0  0  0
  7 81  1  0  0  0
  8  9  1  0  0  0
  8 82  1  0  0  0
  8 83  1  0  0  0
  9 84  1  0  0  0
  9 85  1  0  0  0
  9 86  1  0  0  0
 10 11  1  0  0  0
 10 87  1  0  0  0
 11 12  1  0  0  0
 11 14  1  0  0  0
 11 88  1  0  0  0
 12 13  2  0  0  0
 12 21  1  0  0  0
 14 15  1  0  0  0
 14 89  1  0  0  0
 14 90  1  0  0  0
 15 16  1  0  0  0
 15 91  1  0  0  0
 15 92  1  0  0  0
 16 17  1  0  0  0
 16 93  1  0  0  0
 16 94  1  0  0  0
 17 18  1  0  0  0
 17 95  1  0  0  0
 18 19  1  0  0  0
 18 20  2  0  0  0
 19 96  1  0  0  0
 19 97  1  0  0  0
 20 98  1  0  0  0
 21 22  1  0  0  0
 21 27  1  0  0  0
 22 23  1  0  0  0
 22 25  1  0  0  0
 22 99  1  0  0  0
 23 24  2  0  0  0
 23 28  1  0  0  0
 25 26  1  0  0  0
 25100  1  0  0  0
 25101  1  0  0  0
 26 27  1  0  0  0
 26102  1  0  0  0
 26103  1  0  0  0
 27104  1  0  0  0
 27105  1  0  0  0
 28 29  1  0  0  0
 28106  1  0  0  0
 29 30  1  0  0  0
 29 32  1  0  0  0
 29107  1  0  0  0
 30 31  2  0  0  0
 30 36  1  0  0  0
 32 33  1  0  0  0
 32108  1  0  0  0
 32109  1  0  0  0
 33 34  1  0  0  0
 33 35  1  0  0  0
 33110  1  0  0  0
 34111  1  0  0  0
 34112  1  0  0  0
 34113  1  0  0  0
 35114  1  0  0  0
 35115  1  0  0  0
 35116  1  0  0  0
 36 37  1  0  0  0
 36 42  1  0  0  0
 37 38  1  0  0  0
 37 40  1  0  0  0
 37117  1  0  0  0
 38 39  2  0  0  0
 38 43  1  0  0  0
 40 41  1  0  0  0
 40118  1  0  0  0
 40119  1  0  0  0
 41 42  1  0  0  0
 41120  1  0  0  0
 41121  1  0  0  0
 42122  1  0  0  0
 42123  1  0  0  0
 43 44  1  0  0  0
 43 49  1  0  0  0
 44 45  1  0  0  0
 44 47  1  0  0  0
 44124  1  0  0  0
 45 46  2  0  0  0
 45 50  1  0  0  0
 47 48  1  0  0  0
 47125  1  0  0  0
 47126  1  0  0  0
 48 49  1  0  0  0
 48127  1  0  0  0
 48128  1  0  0  0
 49129  1  0  0  0
 49130  1  0  0  0
 50 51  1  0  0  0
 50131  1  0  0  0
 51 52  1  0  0  0
 51 54  1  0  0  0
 51132  1  0  0  0
 52 53  2  0  0  0
 52 58  1  0  0  0
 54 55  1  0  0  0
 54133  1  0  0  0
 54134  1  0  0  0
 55 56  1  0  0  0
 55 57  1  0  0  0
 55135  1  0  0  0
 56136  1  0  0  0
 56137  1  0  0  0
 56138  1  0  0  0
 57139  1  0  0  0
 57140  1  0  0  0
 57141  1  0  0  0
 58 59  1  0  0  0
 58 64  1  0  0  0
 59 60  1  0  0  0
 59 62  1  0  0  0
 59142  1  0  0  0
 60 61  2  0  0  0
 60 65  1  0  0  0
 62 63  1  0  0  0
 62143  1  0  0  0
 62144  1  0  0  0
 63 64  1  0  0  0
 63145  1  0  0  0
 63146  1  0  0  0
 64147  1  0  0  0
 64148  1  0  0  0
 65 66  1  0  0  0
 65149  1  0  0  0
 66 67  1  0  0  0
 66 69  1  0  0  0
 66150  1  0  0  0
 67 68  2  0  0  0
 67 71  1  0  0  0
 69 70  1  0  0  0
 69151  1  0  0  0
 69152  1  0  0  0
 70153  1  0  0  0
 71154  1  0  0  0
M  CHG  2   1   1   9   1
M  END
> <s_m_source_file>
../3i5r_ligand.sdf

> <i_m_source_file_index>
1

> <s_epik_input>
W05IMytdW0NIMl1bQ0gyXVtDSDJdW0NIMl1bQ0BIXShbTkgzK10pQyg9TylbTkhdW0NAQEhdKFtDSDJdW0NIMl1bQ0gyXVtOSF0vQyhbTkgyXSk9TlxbSF0pQyg9TylOMVtDQEBIXShbQ0gyXVtDSDJdW0NIMl0xKUMoPU8pW05IXVtDQEBIXShbQ0gyXVtDSF0oW0NIM10pW0NIM10pQyg9TylOMltDQEBIXShbQ0gyXVtDSDJdW0NIMl0yKUMoPU8pTjNbQ0BASF0oW0NIMl1bQ0gyXVtDSDJdMylDKD1PKVtOSF1bQ0BASF0oW0NIMl1bQ0hdKFtDSDNdKVtDSDNdKUMoPU8pTjRbQ0BASF0oW0NIMl1bQ0gyXVtDSDJdNClDKD1PKVtOSF1bQ0BIXShDKD1PKVtPSF0pW0NIMl1bT0hd

> <s_epik_cmdline>
J2VwaWtfYXBwJywgJy1pbWFlJywgJ2xpZ2FuZF9wcm8ubWFlJywgJy1vbWFlJywgJ2xpZ2FuZF9wcmVwLm1hZScsICctbXMnLCAnMScsICctcGgnLCAnNycsICctcGh0JywgJzAuNScsICctbnQn

> <s_epik_pKa_notes>
Molecule size exceeds maximum supported for generating protonation states

> <s_epik_Chemistry_Notes>
This compound has an imine and may undergo hydrolysis.

$$$$
