3i60_ligand
                    3D
 Schrodinger Suite 2020-3.
 55 58  0  0  1  0            999 V2000
    7.0410   -0.6920   47.4130 C   0  0  0  0  0  0
    5.9310   -1.1330   46.4940 C   0  0  0  0  0  0
    4.6510   -0.6730   46.7690 C   0  0  0  0  0  0
    3.6330   -1.0390   45.9970 N   0  3  0  0  0  0
    3.8310   -1.8330   44.9620 C   0  0  0  0  0  0
    2.7540   -2.1640   44.1740 N   0  0  0  0  0  0
    2.8520   -2.9310   43.0000 C   0  0  0  0  0  0
    3.8770   -2.7500   42.0660 C   0  0  0  0  0  0
    3.9140   -3.5340   40.9260 C   0  0  0  0  0  0
    2.9260   -4.4890   40.6920 C   0  0  0  0  0  0
    1.8950   -4.6610   41.6030 C   0  0  0  0  0  0
    1.8620   -3.8810   42.7510 C   0  0  0  0  0  0
    0.5960   -4.0790   43.9120 Cl  0  0  0  0  0  0
    5.0320   -2.2850   44.6570 N   0  0  0  0  0  0
    6.1070   -1.9940   45.3900 C   0  0  0  0  0  0
    7.4120   -2.5310   44.9300 C   0  0  0  0  0  0
    7.6370   -3.0000   43.6490 C   0  0  0  0  0  0
    8.9330   -3.3750   43.5510 N   0  3  0  0  0  0
    9.5560   -3.1650   44.7570 C   0  0  0  0  0  0
    8.6420   -2.6200   45.6260 C   0  0  0  0  0  0
   10.9690   -3.4540   44.9920 C   0  0  0  0  0  0
   11.6000   -2.7650   45.7830 O   0  0  0  0  0  0
   11.5670   -4.4470   44.2960 N   0  0  0  0  0  0
   13.0060   -4.7450   44.4460 C   0  0  2  0  0  0
   13.5200   -5.1550   43.0600 C   0  0  0  0  0  0
   13.0100   -4.2790   42.0450 O   0  0  0  0  0  0
   13.3300   -5.8530   45.4230 C   0  0  0  0  0  0
   12.3250   -6.6200   45.9940 C   0  0  0  0  0  0
   12.6550   -7.6210   46.8900 C   0  0  0  0  0  0
   13.9840   -7.8650   47.2030 C   0  0  0  0  0  0
   14.9990   -7.1120   46.6320 C   0  0  0  0  0  0
   14.6620   -6.1010   45.7440 C   0  0  0  0  0  0
    6.6330   -0.0257   48.1873 H   0  0  0  0  0  0
    7.8057   -0.1548   46.8328 H   0  0  0  0  0  0
    7.4944   -1.5736   47.8896 H   0  0  0  0  0  0
    4.4805   -0.0114   47.6183 H   0  0  0  0  0  0
    1.7450   -1.8245   44.4508 H   0  0  0  0  0  0
    4.6440   -1.9942   42.2352 H   0  0  0  0  0  0
    4.7218   -3.4037   40.2058 H   0  0  0  0  0  0
    2.9640   -5.1017   39.7913 H   0  0  0  0  0  0
    1.1172   -5.4022   41.4194 H   0  0  0  0  0  0
    6.8160   -3.0162   42.9171 H   0  0  0  0  0  0
    8.9478   -2.3491   46.6473 H   0  0  0  0  0  0
   10.9518   -5.0400   43.6033 H   0  0  0  0  0  0
   13.4556   -3.8323   44.8642 H   0  0  0  0  0  0
   14.6189   -5.1081   43.0479 H   0  0  0  0  0  0
   13.1943   -6.1818   42.8371 H   0  0  0  0  0  0
   13.2856   -4.4380   40.9920 H   0  0  0  0  0  0
   11.2817   -6.4351   45.7382 H   0  0  0  0  0  0
   11.8690   -8.2192   47.3509 H   0  0  0  0  0  0
   14.2339   -8.6589   47.9069 H   0  0  0  0  0  0
   16.0424   -7.3109   46.8765 H   0  0  0  0  0  0
   15.4476   -5.4948   45.2931 H   0  0  0  0  0  0
    9.3200   -3.7735   42.6016 H   0  0  0  0  0  0
    2.6173   -0.6797   46.2191 H   0  0  0  0  0  0
  1  2  1  0  0  0
  1 33  1  0  0  0
  1 34  1  0  0  0
  1 35  1  0  0  0
  2  3  2  0  0  0
  2 15  1  0  0  0
  3  4  1  0  0  0
  3 36  1  0  0  0
  4  5  2  0  0  0
  4 55  1  0  0  0
  5  6  1  0  0  0
  5 14  1  0  0  0
  6  7  1  0  0  0
  6 37  1  0  0  0
  7  8  2  0  0  0
  7 12  1  0  0  0
  8  9  1  0  0  0
  8 38  1  0  0  0
  9 10  2  0  0  0
  9 39  1  0  0  0
 10 11  1  0  0  0
 10 40  1  0  0  0
 11 12  2  0  0  0
 11 41  1  0  0  0
 12 13  1  0  0  0
 14 15  2  0  0  0
 15 16  1  0  0  0
 16 17  2  0  0  0
 16 20  1  0  0  0
 17 18  1  0  0  0
 17 42  1  0  0  0
 18 19  1  0  0  0
 18 54  1  0  0  0
 19 20  2  0  0  0
 19 21  1  0  0  0
 20 43  1  0  0  0
 21 22  2  0  0  0
 21 23  1  0  0  0
 23 24  1  0  0  0
 23 44  1  0  0  0
 24 25  1  0  0  0
 24 27  1  0  0  0
 24 45  1  0  0  0
 25 26  1  0  0  0
 25 46  1  0  0  0
 25 47  1  0  0  0
 26 48  1  0  0  0
 27 28  2  0  0  0
 27 32  1  0  0  0
 28 29  1  0  0  0
 28 49  1  0  0  0
 29 30  2  0  0  0
 29 50  1  0  0  0
 30 31  1  0  0  0
 30 51  1  0  0  0
 31 32  2  0  0  0
 31 52  1  0  0  0
 32 53  1  0  0  0
M  CHG  2   4   1  18   1
M  END
> <s_m_source_file>
../3i60_ligand.sdf

> <i_m_source_file_index>
1

> <s_epik_input>
Q2xjMVtjSF1bY0hdW2NIXVtjSF1jMVtOSF1jKG5bY0hdYzJbQ0gzXSluYzItYzNbY0hdW25IXWMoW2NIXTMpQyg9TylbTkhdW0NASF0oW0NIMl1bT0hdKWM0W2NIXVtjSF1bY0hdW2NIXVtjSF00

> <s_epik_cmdline>
J2VwaWtfYXBwJywgJy1pbWFlJywgJ2xpZ2FuZF9wcm8ubWFlJywgJy1vbWFlJywgJ2xpZ2FuZF9wcmVwLm1hZScsICctbXMnLCAnMScsICctcGgnLCAnNycsICctcGh0JywgJzAuNScsICctbnQn

> <r_lp_tautomer_probability>
1

> <r_epik_Ionization_Penalty>
  0.0729

> <r_epik_Ionization_Penalty_Charging>
  0.0590

> <r_epik_Ionization_Penalty_Neutral>
  0.0139

> <r_epik_State_Penalty>
 -0.0000

> <r_epik_Charging_Adjusted_Penalty>
0.058967046982133

> <i_epik_Tot_Q>
2

> <i_epik_Tot_abs_Q>
2

$$$$
