3i6m_ligand
                    3D
 Schrodinger Suite 2020-3.
 65 69  0  0  1  0            999 V2000
    2.5760   68.0970   63.2320 C   0  0  0  0  0  0
    2.7350   68.5370   61.9470 C   0  0  0  0  0  0
    4.1020   68.5730   61.2700 C   0  0  1  0  0  0
    5.1840   68.8450   62.3430 C   0  0  0  0  0  0
    5.4180   66.4380   62.9160 O   0  0  0  0  0  0
    4.7220   64.1510   63.7200 C   0  0  0  0  0  0
    3.7750   63.4550   64.5180 C   0  0  0  0  0  0
    2.7550   64.1640   65.1940 C   0  0  0  0  0  0
    1.4690   66.2790   65.7830 C   0  0  0  0  0  0
    1.8830   67.3520   66.7520 N   0  3  1  0  0  0
    2.3970   68.6250   66.1400 C   0  0  0  0  0  0
    3.7720   68.4980   65.4610 C   0  0  0  0  0  0
    4.6330   65.5580   63.6060 C   0  0  0  0  0  0
    3.6240   66.2330   64.2900 C   0  0  0  0  0  0
    2.6630   65.5720   65.0880 C   0  0  0  0  0  0
    5.4870   62.1210   62.7380 C   0  0  0  0  0  0
    5.7690   63.4940   63.0770 O   0  0  0  0  0  0
    4.3090   67.3090   60.6060 O   0  0  0  0  0  0
    0.7920   67.6620   67.7080 C   0  0  0  0  0  0
    0.6320   66.6180   68.8170 C   0  0  0  0  0  0
    1.8410   66.5920   69.7480 C   0  0  0  0  0  0
    2.9890   65.9680   69.0730 N   0  3  0  0  0  0
    3.1530   64.5320   69.4200 C   0  0  0  0  0  0
    4.2150   63.9100   68.5060 C   0  0  0  0  0  0
    5.5220   64.7140   68.5980 C   0  0  0  0  0  0
    5.2840   66.1830   68.2300 C   0  0  0  0  0  0
    4.2200   66.7890   69.1470 C   0  0  0  0  0  0
    5.1390   67.7630   63.4890 C   0  0  2  0  0  0
    3.7170   67.6190   64.1980 C   0  0  1  0  0  0
    1.5716   68.0549   63.6786 H   0  0  0  0  0  0
    1.8625   68.8784   61.3706 H   0  0  0  0  0  0
    4.1593   69.3282   60.4722 H   0  0  0  0  0  0
    6.1792   68.8181   61.8752 H   0  0  0  0  0  0
    5.0159   69.8357   62.7904 H   0  0  0  0  0  0
    3.8347   62.3705   64.6096 H   0  0  0  0  0  0
    2.0325   63.6204   65.8028 H   0  0  0  0  0  0
    0.8953   65.5059   66.3151 H   0  0  0  0  0  0
    0.8443   66.7201   64.9924 H   0  0  0  0  0  0
    2.7361   66.9130   67.2900 H   0  0  0  0  0  0
    1.6918   68.9728   65.3708 H   0  0  0  0  0  0
    2.4961   69.3934   66.9209 H   0  0  0  0  0  0
    4.1297   69.4960   65.1677 H   0  0  0  0  0  0
    4.4870   68.0439   66.1628 H   0  0  0  0  0  0
    6.3613   61.6801   62.2367 H   0  0  0  0  0  0
    4.6187   62.0807   62.0638 H   0  0  0  0  0  0
    5.2659   61.5549   63.6549 H   0  0  0  0  0  0
    3.6154   66.9819   59.8173 H   0  0  0  0  0  0
    0.9936   68.6281   68.1937 H   0  0  0  0  0  0
   -0.1647   67.7158   67.1677 H   0  0  0  0  0  0
   -0.2604   66.8529   69.4157 H   0  0  0  0  0  0
    0.5200   65.6201   68.3678 H   0  0  0  0  0  0
    2.1066   67.6207   70.0328 H   0  0  0  0  0  0
    1.5962   66.0132   70.6508 H   0  0  0  0  0  0
    2.7472   65.9592   67.9999 H   0  0  0  0  0  0
    3.4709   64.4423   70.4692 H   0  0  0  0  0  0
    2.1950   64.0095   69.2812 H   0  0  0  0  0  0
    4.4051   62.8724   68.8180 H   0  0  0  0  0  0
    3.8556   63.9203   67.4664 H   0  0  0  0  0  0
    5.9115   64.6643   69.6256 H   0  0  0  0  0  0
    6.2629   64.2901   67.9042 H   0  0  0  0  0  0
    6.2220   66.7462   68.3441 H   0  0  0  0  0  0
    4.9414   66.2488   67.1868 H   0  0  0  0  0  0
    3.9956   67.8162   68.8239 H   0  0  0  0  0  0
    4.5897   66.8030   70.1829 H   0  0  0  0  0  0
    5.9226   68.0392   64.2098 H   0  0  0  0  0  0
  1  2  2  0  0  0
  1 29  1  0  0  0
  1 30  1  0  0  0
  2  3  1  0  0  0
  2 31  1  0  0  0
  3  4  1  0  0  0
  3 18  1  0  0  0
  3 32  1  0  0  0
  4 28  1  0  0  0
  4 33  1  0  0  0
  4 34  1  0  0  0
  5 13  1  0  0  0
  5 28  1  0  0  0
  6  7  2  0  0  0
  6 13  1  0  0  0
  6 17  1  0  0  0
  7  8  1  0  0  0
  7 35  1  0  0  0
  8 15  2  0  0  0
  8 36  1  0  0  0
  9 10  1  0  0  0
  9 15  1  0  0  0
  9 37  1  0  0  0
  9 38  1  0  0  0
 10 11  1  0  0  0
 10 19  1  0  0  0
 10 39  1  0  0  0
 11 12  1  0  0  0
 11 40  1  0  0  0
 11 41  1  0  0  0
 12 29  1  0  0  0
 12 42  1  0  0  0
 12 43  1  0  0  0
 13 14  2  0  0  0
 14 15  1  0  0  0
 14 29  1  0  0  0
 16 17  1  0  0  0
 16 44  1  0  0  0
 16 45  1  0  0  0
 16 46  1  0  0  0
 18 47  1  0  0  0
 19 20  1  0  0  0
 19 48  1  0  0  0
 19 49  1  0  0  0
 20 21  1  0  0  0
 20 50  1  0  0  0
 20 51  1  0  0  0
 21 22  1  0  0  0
 21 52  1  0  0  0
 21 53  1  0  0  0
 22 23  1  0  0  0
 22 27  1  0  0  0
 22 54  1  0  0  0
 23 24  1  0  0  0
 23 55  1  0  0  0
 23 56  1  0  0  0
 24 25  1  0  0  0
 24 57  1  0  0  0
 24 58  1  0  0  0
 25 26  1  0  0  0
 25 59  1  0  0  0
 25 60  1  0  0  0
 26 27  1  0  0  0
 26 61  1  0  0  0
 26 62  1  0  0  0
 27 63  1  0  0  0
 27 64  1  0  0  0
 28 29  1  0  0  0
 28 65  1  0  0  0
M  CHG  2  10   1  22   1
M  END
> <s_m_source_file>
../3i6m_ligand.sdf

> <i_m_source_file_index>
1

> <s_epik_input>
W0NIXTE9W0NIXVtDQEhdKFtPSF0pW0NIMl1bQ0BASF0yT2MoYzNbQ0BdMTI0KWMoT1tDSDNdKVtjSF1bY0hdYzNbQ0gyXVtOQEBIK10oW0NIMl1bQ0gyXTQpW0NIMl1bQ0gyXVtDSDJdW05IK101W0NIMl1bQ0gyXVtDSDJdW0NIMl1bQ0gyXTU=

> <s_epik_cmdline>
J2VwaWtfYXBwJywgJy1pbWFlJywgJ2xpZ2FuZF9wcm8ubWFlJywgJy1vbWFlJywgJ2xpZ2FuZF9wcmVwLm1hZScsICctbXMnLCAnMScsICctcGgnLCAnNycsICctcGh0JywgJzAuNScsICctbnQn

> <r_lp_tautomer_probability>
1

> <r_epik_Ionization_Penalty>
  0.0524

> <r_epik_Ionization_Penalty_Charging>
  0.0524

> <r_epik_Ionization_Penalty_Neutral>
  0.0000

> <r_epik_State_Penalty>
  0.0398

> <r_epik_Charging_Adjusted_Penalty>
0.0921761764119016

> <i_epik_Tot_Q>
2

> <i_epik_Tot_abs_Q>
2

$$$$
