3i6z_ligand
                    3D
 Schrodinger Suite 2020-3.
 73 78  0  0  1  0            999 V2000
    2.5230   67.7400   63.3090 C   0  0  0  0  0  0
    2.6200   68.1660   62.0160 C   0  0  0  0  0  0
    3.9640   68.2530   61.2790 C   0  0  1  0  0  0
    5.1150   68.4910   62.2850 C   0  0  0  0  0  0
    5.2730   66.0890   62.8530 O   0  0  0  0  0  0
    4.6560   63.8350   63.7980 C   0  0  0  0  0  0
    3.8050   63.1620   64.7150 C   0  0  0  0  0  0
    2.8860   63.8900   65.4950 C   0  0  0  0  0  0
    1.8310   66.0100   66.3560 C   0  0  0  0  0  0
    2.4810   67.1560   67.0720 N   0  3  2  0  0  0
    2.5860   68.4070   66.2960 C   0  0  0  0  0  0
    3.8440   68.3840   65.3740 C   0  0  0  0  0  0
    4.5620   65.2380   63.6580 C   0  0  0  0  0  0
    3.6490   65.9490   64.4410 C   0  0  0  0  0  0
    2.7970   65.2990   65.3830 C   0  0  0  0  0  0
    5.3650   61.7930   62.8200 C   0  0  0  0  0  0
    5.6510   63.1650   63.0930 O   0  0  0  0  0  0
    4.1500   67.0410   60.5370 O   0  0  0  0  0  0
    3.7330   66.8650   67.8520 C   0  0  0  0  0  0
    3.5370   65.9070   69.0410 C   0  0  0  0  0  0
    3.8700   64.4840   68.6240 C   0  0  0  0  0  0
    4.3160   63.6070   69.8040 C   0  0  0  0  0  0
    3.1820   63.1870   70.7470 C   0  0  0  0  0  0
    2.1540   62.3040   70.0470 C   0  0  0  0  0  0
    1.2460   61.7050   71.0480 N   0  0  0  0  0  0
    1.3910   60.4150   71.4670 C   0  0  0  0  0  0
    0.2910   60.0140   72.3070 C   0  0  0  0  0  0
    0.0440   58.7670   72.9240 C   0  0  0  0  0  0
   -1.1600   58.5260   73.6190 C   0  0  0  0  0  0
   -2.1370   59.5350   73.7070 C   0  0  0  0  0  0
   -1.9000   60.7820   73.1010 C   0  0  0  0  0  0
   -0.6960   61.0160   72.4140 C   0  0  0  0  0  0
   -0.0280   62.4600   71.6350 S   0  0  0  0  0  0
    2.3270   59.6800   71.1400 O   0  0  0  0  0  0
   -0.8090   63.1790   70.5690 O   0  0  0  0  0  0
    0.4370   63.4670   72.6510 O   0  0  0  0  0  0
    5.1070   67.4230   63.4460 C   0  0  2  0  0  0
    3.7270   67.3420   64.2330 C   0  0  1  0  0  0
    1.5360   67.6525   63.7867 H   0  0  0  0  0  0
    1.7151   68.4619   61.4651 H   0  0  0  0  0  0
    3.9693   69.0531   60.5241 H   0  0  0  0  0  0
    6.0798   68.4245   61.7608 H   0  0  0  0  0  0
    5.0094   69.4899   62.7334 H   0  0  0  0  0  0
    3.8636   62.0782   64.8152 H   0  0  0  0  0  0
    2.2356   63.3630   66.1931 H   0  0  0  0  0  0
    1.4827   65.2689   67.0905 H   0  0  0  0  0  0
    0.9742   66.3799   65.7738 H   0  0  0  0  0  0
    1.7189   67.3565   67.8395 H   0  0  0  0  0  0
    1.6897   68.5261   65.6695 H   0  0  0  0  0  0
    2.6676   69.2603   66.9853 H   0  0  0  0  0  0
    3.9801   69.3742   64.9146 H   0  0  0  0  0  0
    4.7323   68.1320   65.9719 H   0  0  0  0  0  0
    6.2024   61.3478   62.2627 H   0  0  0  0  0  0
    4.4461   61.7225   62.2194 H   0  0  0  0  0  0
    5.2262   61.2518   63.7676 H   0  0  0  0  0  0
    3.4092   66.7392   59.7820 H   0  0  0  0  0  0
    4.4790   66.4028   67.1888 H   0  0  0  0  0  0
    4.1368   67.8031   68.2606 H   0  0  0  0  0  0
    4.2000   66.2063   69.8662 H   0  0  0  0  0  0
    2.4906   65.9495   69.3775 H   0  0  0  0  0  0
    2.9816   64.0162   68.1746 H   0  0  0  0  0  0
    4.6879   64.4993   67.8887 H   0  0  0  0  0  0
    4.7734   62.6826   69.4215 H   0  0  0  0  0  0
    5.0510   64.1556   70.4114 H   0  0  0  0  0  0
    3.5995   62.6227   71.5939 H   0  0  0  0  0  0
    2.6662   64.0832   71.1222 H   0  0  0  0  0  0
    1.5683   62.9117   69.3416 H   0  0  0  0  0  0
    2.6713   61.5028   69.4989 H   0  0  0  0  0  0
    0.7949   57.9794   72.8621 H   0  0  0  0  0  0
   -1.3335   57.5575   74.0881 H   0  0  0  0  0  0
   -3.0697   59.3517   74.2404 H   0  0  0  0  0  0
   -2.6517   61.5688   73.1642 H   0  0  0  0  0  0
    5.9444   67.6639   64.1174 H   0  0  0  0  0  0
  1  2  2  0  0  0
  1 38  1  0  0  0
  1 39  1  0  0  0
  2  3  1  0  0  0
  2 40  1  0  0  0
  3  4  1  0  0  0
  3 18  1  0  0  0
  3 41  1  0  0  0
  4 37  1  0  0  0
  4 42  1  0  0  0
  4 43  1  0  0  0
  5 13  1  0  0  0
  5 37  1  0  0  0
  6  7  2  0  0  0
  6 13  1  0  0  0
  6 17  1  0  0  0
  7  8  1  0  0  0
  7 44  1  0  0  0
  8 15  2  0  0  0
  8 45  1  0  0  0
  9 10  1  0  0  0
  9 15  1  0  0  0
  9 46  1  0  0  0
  9 47  1  0  0  0
 10 11  1  0  0  0
 10 19  1  0  0  0
 10 48  1  0  0  0
 11 12  1  0  0  0
 11 49  1  0  0  0
 11 50  1  0  0  0
 12 38  1  0  0  0
 12 51  1  0  0  0
 12 52  1  0  0  0
 13 14  2  0  0  0
 14 15  1  0  0  0
 14 38  1  0  0  0
 16 17  1  0  0  0
 16 53  1  0  0  0
 16 54  1  0  0  0
 16 55  1  0  0  0
 18 56  1  0  0  0
 19 20  1  0  0  0
 19 57  1  0  0  0
 19 58  1  0  0  0
 20 21  1  0  0  0
 20 59  1  0  0  0
 20 60  1  0  0  0
 21 22  1  0  0  0
 21 61  1  0  0  0
 21 62  1  0  0  0
 22 23  1  0  0  0
 22 63  1  0  0  0
 22 64  1  0  0  0
 23 24  1  0  0  0
 23 65  1  0  0  0
 23 66  1  0  0  0
 24 25  1  0  0  0
 24 67  1  0  0  0
 24 68  1  0  0  0
 25 26  1  0  0  0
 25 33  1  0  0  0
 26 27  1  0  0  0
 26 34  2  0  0  0
 27 28  2  0  0  0
 27 32  1  0  0  0
 28 29  1  0  0  0
 28 69  1  0  0  0
 29 30  2  0  0  0
 29 70  1  0  0  0
 30 31  1  0  0  0
 30 71  1  0  0  0
 31 32  2  0  0  0
 31 72  1  0  0  0
 32 33  1  0  0  0
 33 35  2  0  0  0
 33 36  2  0  0  0
 37 38  1  0  0  0
 37 73  1  0  0  0
M  CHG  1  10   1
M  END
> <s_m_source_file>
../3i6z_ligand.sdf

> <i_m_source_file_index>
1

> <s_epik_input>
W0NIXTE9W0NIXVtDQEhdKFtPSF0pW0NIMl1bQ0BASF0yT2MoYzNbQ0BdMTI0KWMoT1tDSDNdKVtjSF1bY0hdYzNbQ0gyXVtOQEgrXShbQ0gyXVtDSDJdNClbQ0gyXVtDSDJdW0NIMl1bQ0gyXVtDSDJdW0NIMl1OKEM1PU8pUyg9TykoPU8pYyhjNTYpW2NIXVtjSF1bY0hdW2NIXTY=

> <s_epik_cmdline>
J2VwaWtfYXBwJywgJy1pbWFlJywgJ2xpZ2FuZF9wcm8ubWFlJywgJy1vbWFlJywgJ2xpZ2FuZF9wcmVwLm1hZScsICctbXMnLCAnMScsICctcGgnLCAnNycsICctcGh0JywgJzAuNScsICctbnQn

> <r_lp_tautomer_probability>
1

> <r_epik_Ionization_Penalty>
  0.0123

> <r_epik_Ionization_Penalty_Charging>
  0.0123

> <r_epik_Ionization_Penalty_Neutral>
  0.0000

> <r_epik_State_Penalty>
  0.0095

> <r_epik_Charging_Adjusted_Penalty>
0.0217659671109682

> <i_epik_Tot_Q>
1

> <i_epik_Tot_abs_Q>
1

$$$$
