3i73_ligand
                    3D
 Schrodinger Suite 2020-3.
 39 41  0  0  1  0            999 V2000
  -40.1940    6.9430    0.1730 P   0  0  0  0  0  0
  -39.0540    6.6400    1.1210 O   0  5  0  0  0  0
  -39.7350    7.6590   -1.0740 O   0  0  0  0  0  0
  -41.1420    5.7910   -0.0790 O   0  5  0  0  0  0
  -42.6700    7.6110    1.1530 P   0  0  2  0  0  0
  -42.6860    6.4740    2.1450 O   0  5  0  0  0  0
  -43.2300    7.3770   -0.2280 O   0  0  0  0  0  0
  -41.1190    8.0000    0.9580 O   0  0  0  0  0  0
  -43.3800    8.9400    1.7910 O   0  0  0  0  0  0
  -44.7530    9.0130    2.2170 C   0  0  0  0  0  0
  -45.2650   10.4670    2.1740 C   0  0  1  0  0  0
  -46.6120   10.6470    1.6660 O   0  0  0  0  0  0
  -45.2470   11.2640    3.4700 C   0  0  1  0  0  0
  -44.0400   11.9760    3.5970 O   0  0  0  0  0  0
  -46.3540   12.2640    3.2680 C   0  0  1  0  0  0
  -45.9710   13.5610    2.8460 O   0  0  0  0  0  0
  -46.8960   12.0330    1.8890 C   0  0  2  0  0  0
  -48.2560   12.4410    2.2090 N   0  0  0  0  0  0
  -49.4350   12.1460    1.6740 C   0  0  0  0  0  0
  -50.4320   12.7640    2.3330 N   0  0  0  0  0  0
  -49.8710   13.4640    3.3110 C   0  0  0  0  0  0
  -50.3250   14.3380    4.3840 C   0  0  0  0  0  0
  -51.6280   14.5690    4.5100 N   0  0  0  0  0  0
  -49.3980   14.8830    5.2040 N   0  0  0  0  0  0
  -48.0820   14.6500    5.0490 C   0  0  0  0  0  0
  -47.5820   13.8520    4.0970 N   0  0  0  0  0  0
  -48.4280   13.2480    3.2250 C   0  0  0  0  0  0
  -45.3766    8.3984    1.5512 H   0  0  0  0  0  0
  -44.8375    8.6384    3.2478 H   0  0  0  0  0  0
  -44.5513   10.8837    1.4481 H   0  0  0  0  0  0
  -45.3017   10.6541    4.3838 H   0  0  0  0  0  0
  -43.0956   11.4341    3.7532 H   0  0  0  0  0  0
  -46.9146   12.2250    4.2136 H   0  0  0  0  0  0
  -45.4687   14.2421    3.5487 H   0  0  0  0  0  0
  -46.5581   12.5057    0.9550 H   0  0  0  0  0  0
  -49.5763   11.4902    0.8149 H   0  0  0  0  0  0
  -52.3396   14.0994    3.8149 H   0  0  0  0  0  0
  -51.9947   15.2297    5.3094 H   0  0  0  0  0  0
  -47.3869   15.1359    5.7337 H   0  0  0  0  0  0
  1  2  1  0  0  0
  1  3  2  0  0  0
  1  4  1  0  0  0
  1  8  1  0  0  0
  5  6  1  0  0  0
  5  7  2  0  0  0
  5  8  1  0  0  0
  5  9  1  0  0  0
  9 10  1  0  0  0
 10 11  1  0  0  0
 10 28  1  0  0  0
 10 29  1  0  0  0
 11 12  1  0  0  0
 11 13  1  0  0  0
 11 30  1  0  0  0
 12 17  1  0  0  0
 13 14  1  0  0  0
 13 15  1  0  0  0
 13 31  1  0  0  0
 14 32  1  0  0  0
 15 16  1  0  0  0
 15 17  1  0  0  0
 15 33  1  0  0  0
 16 34  1  0  0  0
 17 18  1  0  0  0
 17 35  1  0  0  0
 18 19  1  0  0  0
 18 27  1  0  0  0
 19 20  2  0  0  0
 19 36  1  0  0  0
 20 21  1  0  0  0
 21 22  2  0  0  0
 21 27  1  0  0  0
 22 23  1  0  0  0
 22 24  1  0  0  0
 23 37  1  0  0  0
 23 38  1  0  0  0
 24 25  2  0  0  0
 25 26  1  0  0  0
 25 39  1  0  0  0
 26 27  2  0  0  0
M  CHG  3   2  -1   4  -1   6  -1
M  END
> <s_m_source_file>
../3i73_ligand.sdf

> <i_m_source_file_index>
1

> <s_epik_input>
W09IXVAoPU8pKFtPSF0pT1tQQEBdKD1PKShbT0hdKU9bQ0gyXVtDQEhdMU9bQ0BIXShbQ0BIXShbT0hdKVtDQEBIXTFbT0hdKW4oW2NIXW4yKWMoYzIzKW5bY0hdbmMzW05IMl0=

> <s_epik_cmdline>
J2VwaWtfYXBwJywgJy1pbWFlJywgJ2xpZ2FuZF9wcm8ubWFlJywgJy1vbWFlJywgJ2xpZ2FuZF9wcmVwLm1hZScsICctbXMnLCAnMScsICctcGgnLCAnNycsICctcGh0JywgJzAuNScsICctbnQn

> <r_lp_tautomer_probability>
0.999997216410988

> <r_epik_Ionization_Penalty>
  0.1037

> <r_epik_Ionization_Penalty_Charging>
  0.1033

> <r_epik_Ionization_Penalty_Neutral>
  0.0004

> <r_epik_State_Penalty>
  0.0922

> <r_epik_Charging_Adjusted_Penalty>
0.19546844050481

> <i_epik_Tot_Q>
-3

> <i_epik_Tot_abs_Q>
3

> <s_epik_Chemistry_Notes>
This compound contains an acetal/aminal-like group ( X-CH(R)-Y where X, Y are N, S, or O) that may be acid/base labile, releasing an aldehyde.

$$$$
