3i7b_ligand
                    3D
 Schrodinger Suite 2020-3.
 43 46  0  0  1  0            999 V2000
   21.8880   12.4890   63.5140 N   0  0  0  0  0  0
   23.0590   13.1110   63.4270 C   0  0  0  0  0  0
   23.1440   14.4290   63.3120 N   0  0  0  0  0  0
   22.0270   15.1760   63.2720 C   0  0  0  0  0  0
   20.7860   14.5740   63.3540 C   0  0  0  0  0  0
   20.7330   13.1780   63.4830 C   0  0  0  0  0  0
   22.5170   18.8080   63.6770 C   0  0  0  0  0  0
   23.2560   17.6370   61.5630 C   0  0  0  0  0  0
   19.5870   12.5050   63.5730 N   0  0  0  0  0  0
   13.5470   15.7260   65.2410 C   0  0  0  0  0  0
   14.1250   16.0490   64.0170 C   0  0  0  0  0  0
   17.8730   14.4990   66.9560 C   0  0  0  0  0  0
   18.4550   14.8200   65.7290 C   0  0  0  0  0  0
   14.3470   15.2550   66.2780 C   0  0  0  0  0  0
   16.5060   14.6380   67.1410 C   0  0  0  0  0  0
   15.4970   15.9070   63.8290 C   0  0  0  0  0  0
   18.3500   15.6310   63.3220 C   0  0  0  0  0  0
   20.6110   16.7540   63.1760 N   0  0  0  0  0  0
   17.6840   15.2950   64.6640 C   0  0  0  0  0  0
   19.8850   15.6390   63.2970 C   0  0  0  0  0  0
   15.7200   15.1090   66.0910 C   0  0  0  0  0  0
   16.3060   15.4340   64.8640 C   0  0  0  0  0  0
   22.9030   17.4670   63.0450 C   0  0  0  0  0  0
   21.8140   16.4800   63.1660 N   0  0  0  0  0  0
   23.9753   12.5211   63.4509 H   0  0  0  0  0  0
   23.3503   19.5178   63.5686 H   0  0  0  0  0  0
   22.2976   18.6605   64.7447 H   0  0  0  0  0  0
   21.6260   19.2086   63.1715 H   0  0  0  0  0  0
   24.0682   18.3719   61.4615 H   0  0  0  0  0  0
   22.3710   17.9903   61.0135 H   0  0  0  0  0  0
   23.5821   16.6708   61.1506 H   0  0  0  0  0  0
   19.5988   11.4096   63.6729 H   0  0  0  0  0  0
   18.6288   13.0446   63.5474 H   0  0  0  0  0  0
   12.4730   15.8413   65.3869 H   0  0  0  0  0  0
   13.5007   16.4148   63.2018 H   0  0  0  0  0  0
   18.4965   14.1370   67.7735 H   0  0  0  0  0  0
   19.5303   14.6982   65.5986 H   0  0  0  0  0  0
   13.8986   14.9999   67.2382 H   0  0  0  0  0  0
   16.0508   14.3816   68.0976 H   0  0  0  0  0  0
   15.9422   16.1665   62.8685 H   0  0  0  0  0  0
   18.0428   14.8939   62.5655 H   0  0  0  0  0  0
   18.0408   16.6366   63.0008 H   0  0  0  0  0  0
   23.7619   17.0659   63.6030 H   0  0  0  0  0  0
  1  2  1  0  0  0
  1  6  2  0  0  0
  2  3  2  0  0  0
  2 25  1  0  0  0
  3  4  1  0  0  0
  4  5  2  0  0  0
  4 24  1  0  0  0
  5  6  1  0  0  0
  5 20  1  0  0  0
  6  9  1  0  0  0
  7 23  1  0  0  0
  7 26  1  0  0  0
  7 27  1  0  0  0
  7 28  1  0  0  0
  8 23  1  0  0  0
  8 29  1  0  0  0
  8 30  1  0  0  0
  8 31  1  0  0  0
  9 32  1  0  0  0
  9 33  1  0  0  0
 10 11  2  0  0  0
 10 14  1  0  0  0
 10 34  1  0  0  0
 11 16  1  0  0  0
 11 35  1  0  0  0
 12 13  1  0  0  0
 12 15  2  0  0  0
 12 36  1  0  0  0
 13 19  2  0  0  0
 13 37  1  0  0  0
 14 21  2  0  0  0
 14 38  1  0  0  0
 15 21  1  0  0  0
 15 39  1  0  0  0
 16 22  2  0  0  0
 16 40  1  0  0  0
 17 19  1  0  0  0
 17 20  1  0  0  0
 17 41  1  0  0  0
 17 42  1  0  0  0
 18 20  2  0  0  0
 18 24  1  0  0  0
 19 22  1  0  0  0
 21 22  1  0  0  0
 23 24  1  0  0  0
 23 43  1  0  0  0
M  END
> <s_m_source_file>
../3i7b_ligand.sdf

> <i_m_source_file_index>
1

> <s_epik_input>
bjFbY0hdbmMoW05IMl0pYyhjMTIpYyhubjJbQ0hdKFtDSDNdKVtDSDNdKVtDSDJdYyhbY0hdW2NIXVtjSF0zKWMoYzM0KVtjSF1bY0hdW2NIXVtjSF00

> <s_epik_cmdline>
J2VwaWtfYXBwJywgJy1pbWFlJywgJ2xpZ2FuZF9wcm8ubWFlJywgJy1vbWFlJywgJ2xpZ2FuZF9wcmVwLm1hZScsICctbXMnLCAnMScsICctcGgnLCAnNycsICctcGh0JywgJzAuNScsICctbnQn

> <r_lp_tautomer_probability>
1

> <r_epik_Ionization_Penalty>
  0.0013

> <r_epik_Ionization_Penalty_Charging>
  0.0000

> <r_epik_Ionization_Penalty_Neutral>
  0.0013

> <r_epik_State_Penalty>
 -0.0000

> <r_epik_Charging_Adjusted_Penalty>
0

> <i_epik_Tot_Q>
0

> <i_epik_Tot_abs_Q>
0

$$$$
