3i7c_ligand
                    3D
 Schrodinger Suite 2020-3.
 43 46  0  0  1  0            999 V2000
   16.6060   11.6710   62.8010 N   0  0  0  0  0  0
   17.7100   12.2850   62.3630 C   0  0  0  0  0  0
   17.7650   13.6030   62.1870 N   0  0  0  0  0  0
   16.6960   14.3720   62.4450 C   0  0  0  0  0  0
   15.5260   13.7820   62.9080 C   0  0  0  0  0  0
   15.5020   12.3940   63.0800 C   0  0  0  0  0  0
   16.7600   18.0930   61.9030 C   0  0  0  0  0  0
   18.6610   16.7270   62.8320 C   0  0  0  0  0  0
   17.8690   16.3850   60.4740 C   0  0  0  0  0  0
   14.4220   11.7620   63.5050 N   0  0  0  0  0  0
    8.9110   14.4790   65.8550 C   0  0  0  0  0  0
    9.8370   13.7940   66.6360 C   0  0  0  0  0  0
   12.4010   15.5520   62.7740 C   0  0  0  0  0  0
    9.3360   15.0990   64.6860 C   0  0  0  0  0  0
   11.1790   13.7060   66.2680 C   0  0  0  0  0  0
   11.0770   15.6250   63.1640 C   0  0  0  0  0  0
   12.9410   14.2490   64.7210 C   0  0  0  0  0  0
   15.3100   15.9630   62.7210 N   0  0  0  0  0  0
   13.3390   14.8520   63.5260 C   0  0  0  0  0  0
   14.6540   14.8630   63.0770 C   0  0  0  0  0  0
   10.6700   15.0140   64.3240 C   0  0  0  0  0  0
   11.6050   14.3260   65.1100 C   0  0  0  0  0  0
   16.4640   15.6890   62.3740 N   0  0  0  0  0  0
   17.4460   16.7230   61.9080 C   0  0  0  0  0  0
   18.5940   11.6864   62.1429 H   0  0  0  0  0  0
   17.4726   18.8586   61.5624 H   0  0  0  0  0  0
   16.4190   18.3360   62.9202 H   0  0  0  0  0  0
   15.8959   18.0679   61.2228 H   0  0  0  0  0  0
   19.3800   17.4856   62.4890 H   0  0  0  0  0  0
   19.1377   15.7358   62.8151 H   0  0  0  0  0  0
   18.3408   16.9625   63.8577 H   0  0  0  0  0  0
   18.5901   17.1355   60.1179 H   0  0  0  0  0  0
   16.9842   16.3876   59.8205 H   0  0  0  0  0  0
   18.3362   15.3894   60.4546 H   0  0  0  0  0  0
   14.4374   10.6692   63.6293 H   0  0  0  0  0  0
   13.5076   12.3288   63.7345 H   0  0  0  0  0  0
    7.8647   14.5287   66.1565 H   0  0  0  0  0  0
    9.5053   13.3149   67.5572 H   0  0  0  0  0  0
   12.7165   16.0530   61.8588 H   0  0  0  0  0  0
    8.6284   15.6451   64.0621 H   0  0  0  0  0  0
   11.8848   13.1534   66.8882 H   0  0  0  0  0  0
   10.3568   16.1671   62.5512 H   0  0  0  0  0  0
   13.6668   13.7242   65.3422 H   0  0  0  0  0  0
  1  2  1  0  0  0
  1  6  2  0  0  0
  2  3  2  0  0  0
  2 25  1  0  0  0
  3  4  1  0  0  0
  4  5  2  0  0  0
  4 23  1  0  0  0
  5  6  1  0  0  0
  5 20  1  0  0  0
  6 10  1  0  0  0
  7 24  1  0  0  0
  7 26  1  0  0  0
  7 27  1  0  0  0
  7 28  1  0  0  0
  8 24  1  0  0  0
  8 29  1  0  0  0
  8 30  1  0  0  0
  8 31  1  0  0  0
  9 24  1  0  0  0
  9 32  1  0  0  0
  9 33  1  0  0  0
  9 34  1  0  0  0
 10 35  1  0  0  0
 10 36  1  0  0  0
 11 12  2  0  0  0
 11 14  1  0  0  0
 11 37  1  0  0  0
 12 15  1  0  0  0
 12 38  1  0  0  0
 13 16  2  0  0  0
 13 19  1  0  0  0
 13 39  1  0  0  0
 14 21  2  0  0  0
 14 40  1  0  0  0
 15 22  2  0  0  0
 15 41  1  0  0  0
 16 21  1  0  0  0
 16 42  1  0  0  0
 17 19  2  0  0  0
 17 22  1  0  0  0
 17 43  1  0  0  0
 18 20  2  0  0  0
 18 23  1  0  0  0
 19 20  1  0  0  0
 21 22  1  0  0  0
 23 24  1  0  0  0
M  END
> <s_m_source_file>
../3i7c_ligand.sdf

> <i_m_source_file_index>
1

> <s_epik_input>
bjFbY0hdbmMoW05IMl0pYyhjMTIpYyhubjJDKFtDSDNdKShbQ0gzXSlbQ0gzXSktYyhbY0hdW2NIXTMpW2NIXWMoYzM0KVtjSF1bY0hdW2NIXVtjSF00

> <s_epik_cmdline>
J2VwaWtfYXBwJywgJy1pbWFlJywgJ2xpZ2FuZF9wcm8ubWFlJywgJy1vbWFlJywgJ2xpZ2FuZF9wcmVwLm1hZScsICctbXMnLCAnMScsICctcGgnLCAnNycsICctcGh0JywgJzAuNScsICctbnQn

> <r_lp_tautomer_probability>
1

> <r_epik_Ionization_Penalty>
  0.0009

> <r_epik_Ionization_Penalty_Charging>
  0.0000

> <r_epik_Ionization_Penalty_Neutral>
  0.0009

> <r_epik_State_Penalty>
 -0.0000

> <r_epik_Charging_Adjusted_Penalty>
0

> <i_epik_Tot_Q>
0

> <i_epik_Tot_abs_Q>
0

$$$$
