3i81_ligand
                    3D
 Schrodinger Suite 2020-3.
 55 60  0  0  1  0            999 V2000
  -18.3780    3.4520   13.7700 N   0  0  0  0  0  0
  -17.6390    3.7730   12.6790 C   0  0  0  0  0  0
  -17.2040    2.5050   12.1730 C   0  0  0  0  0  0
  -17.7180    1.4640   13.0040 C   0  0  0  0  0  0
  -18.4220    2.1130   13.9560 N   0  0  0  0  0  0
  -17.4110    5.1500   12.2280 N   0  0  0  0  0  0
  -17.5350   -0.0710   12.8850 C   0  0  0  0  0  0
  -18.6680   -0.1660   11.9120 C   0  0  0  0  0  0
  -17.2610   -0.2710   11.4390 C   0  0  0  0  0  0
  -15.8040    8.8640   10.0900 C   0  0  0  0  0  0
  -16.5430    9.2850   11.2170 C   0  0  0  0  0  0
  -17.0310    8.1530   11.8650 C   0  0  0  0  0  0
  -16.5550    7.0380   11.0830 C   0  0  0  0  0  0
  -15.8110    7.5010   10.0080 N   0  0  0  0  0  0
  -16.6790    5.6400   11.1720 C   0  0  0  0  0  0
  -16.1060    4.7940   10.2630 N   0  0  0  0  0  0
  -15.2490    6.6110    9.1110 N   0  0  0  0  0  0
  -15.3930    5.2770    9.2330 C   0  0  0  0  0  0
  -13.8850    4.9180    7.3560 C   0  0  0  0  0  0
  -13.2930    3.6710    6.7320 C   0  0  0  0  0  0
  -14.3100    2.5760    7.0490 C   0  0  0  0  0  0
  -15.1380    3.0050    8.2610 C   0  0  2  0  0  0
  -14.8300    4.4390    8.3370 N   0  0  0  0  0  0
  -14.6090    2.0970    9.4260 C   0  0  0  0  0  0
  -13.5470    2.6210   10.1150 N   0  0  0  0  0  0
  -15.1490    1.0140    9.6510 O   0  0  0  0  0  0
  -16.6560    2.8120    8.0030 C   0  0  0  0  0  0
  -12.8020    1.9700   11.0410 C   0  0  0  0  0  0
  -11.3870    2.0410   11.0840 C   0  0  0  0  0  0
  -10.6260    1.3750   12.0340 C   0  0  0  0  0  0
  -11.3330    0.6180   12.9630 C   0  0  0  0  0  0
  -12.7050    0.5260   12.9520 N   0  0  0  0  0  0
  -13.4300    1.1870   12.0130 C   0  0  0  0  0  0
  -10.5700   -0.0180   13.8730 F   0  0  0  0  0  0
  -16.5790    2.3582   11.2922 H   0  0  0  0  0  0
  -17.8675    5.9898   12.7724 H   0  0  0  0  0  0
  -17.1275   -0.5559   13.7844 H   0  0  0  0  0  0
  -19.4969   -0.2365   11.1923 H   0  0  0  0  0  0
  -17.0498   -0.4192   10.3697 H   0  0  0  0  0  0
  -15.3015    9.5296    9.3882 H   0  0  0  0  0  0
  -16.7038   10.3177   11.5264 H   0  0  0  0  0  0
  -17.6407    8.1172   12.7678 H   0  0  0  0  0  0
  -13.0839    5.5104    7.8222 H   0  0  0  0  0  0
  -14.3795    5.5181    6.5779 H   0  0  0  0  0  0
  -13.1743    3.8238    5.6491 H   0  0  0  0  0  0
  -12.3109    3.4660    7.1832 H   0  0  0  0  0  0
  -14.9700    2.4264    6.1818 H   0  0  0  0  0  0
  -13.7810    1.6380    7.2732 H   0  0  0  0  0  0
  -13.2330    3.6597    9.9347 H   0  0  0  0  0  0
  -16.9745    3.4689    7.1801 H   0  0  0  0  0  0
  -17.2180    3.0664    8.9138 H   0  0  0  0  0  0
  -16.8515    1.7639    7.7322 H   0  0  0  0  0  0
  -10.8734    2.6462   10.3369 H   0  0  0  0  0  0
   -9.5381    1.4410   12.0515 H   0  0  0  0  0  0
  -14.5169    1.1056   12.0177 H   0  0  0  0  0  0
  1  2  2  0  0  0
  1  5  1  0  0  0
  2  3  1  0  0  0
  2  6  1  0  0  0
  3  4  1  0  0  0
  3 35  1  0  0  0
  4  5  2  0  0  0
  4  7  1  0  0  0
  6 15  1  0  0  0
  6 36  1  0  0  0
  7  8  1  0  0  0
  7  9  1  0  0  0
  7 37  1  0  0  0
  8  9  2  0  0  0
  8 38  1  0  0  0
  9 39  1  0  0  0
 10 11  2  0  0  0
 10 14  1  0  0  0
 10 40  1  0  0  0
 11 12  1  0  0  0
 11 41  1  0  0  0
 12 13  2  0  0  0
 12 42  1  0  0  0
 13 14  1  0  0  0
 13 15  1  0  0  0
 14 17  1  0  0  0
 15 16  2  0  0  0
 16 18  1  0  0  0
 17 18  2  0  0  0
 18 23  1  0  0  0
 19 20  1  0  0  0
 19 23  1  0  0  0
 19 43  1  0  0  0
 19 44  1  0  0  0
 20 21  1  0  0  0
 20 45  1  0  0  0
 20 46  1  0  0  0
 21 22  1  0  0  0
 21 47  1  0  0  0
 21 48  1  0  0  0
 22 23  1  0  0  0
 22 24  1  0  0  0
 22 27  1  0  0  0
 24 25  1  0  0  0
 24 26  2  0  0  0
 25 28  1  0  0  0
 25 49  1  0  0  0
 27 50  1  0  0  0
 27 51  1  0  0  0
 27 52  1  0  0  0
 28 29  2  0  0  0
 28 33  1  0  0  0
 29 30  1  0  0  0
 29 53  1  0  0  0
 30 31  2  0  0  0
 30 54  1  0  0  0
 31 32  1  0  0  0
 31 34  1  0  0  0
 32 33  2  0  0  0
 33 55  1  0  0  0
M  END
> <s_m_source_file>
../3i81_ligand.sdf

> <i_m_source_file_index>
1

> <s_epik_input>
W0NIXTE9W0NIXVtDSF0xQyhbQ0gyXTIpPU5OPUMyW05IXWMzbmMobm4oYzM0KVtjSF1bY0hdW2NIXTQpTjVbQ0gyXVtDSDJdW0NIMl1bQ0BAXTUoW0NIM10pQyg9TylbTkhdYzZbY0hdW2NIXWMoRiluW2NIXTY=

> <s_epik_cmdline>
J2VwaWtfYXBwJywgJy1pbWFlJywgJ2xpZ2FuZF9wcm8ubWFlJywgJy1vbWFlJywgJ2xpZ2FuZF9wcmVwLm1hZScsICctbXMnLCAnMScsICctcGgnLCAnNycsICctcGh0JywgJzAuNScsICctbnQn

> <r_lp_tautomer_probability>
1

> <r_epik_Ionization_Penalty>
  0.0056

> <r_epik_Ionization_Penalty_Charging>
  0.0000

> <r_epik_Ionization_Penalty_Neutral>
  0.0056

> <r_epik_State_Penalty>
 -0.0000

> <r_epik_Charging_Adjusted_Penalty>
0

> <i_epik_Tot_Q>
0

> <i_epik_Tot_abs_Q>
0

> <s_epik_Chemistry_Notes>
This compound has an imine and may undergo hydrolysis.

$$$$
