3i8t_ligand
                    3D
 Schrodinger Suite 2020-3.
 45 46  0  0  1  0            999 V2000
   -1.0970   75.1660   21.3100 C   0  0  2  0  0  0
   -0.1650   75.9540   20.3790 C   0  0  1  0  0  0
   -0.1630   75.2540   19.0070 C   0  0  2  0  0  0
    0.1020   73.7560   19.1530 C   0  0  2  0  0  0
   -0.9200   73.1400   20.0960 C   0  0  1  0  0  0
   -0.8120   71.5940   20.2170 C   0  0  0  0  0  0
   -1.0060   75.6920   22.6070 O   0  0  0  0  0  0
   -0.5990   77.3000   20.2360 O   0  0  0  0  0  0
    0.8090   75.8110   18.1590 O   0  0  0  0  0  0
    1.3860   73.5060   19.6730 O   0  0  0  0  0  0
   -0.7440   73.7710   21.3470 O   0  0  0  0  0  0
   -1.6520   71.1550   21.2660 O   0  0  0  0  0  0
   -3.2190   75.5210   26.1340 C   0  0  1  0  0  0
   -2.0890   74.5100   25.9460 C   0  0  1  0  0  0
   -1.1290   74.9400   24.8430 C   0  0  2  0  0  0
   -1.9130   75.2320   23.5750 C   0  0  1  0  0  0
   -3.0630   76.2430   23.8410 C   0  0  1  0  0  0
   -3.9840   76.4580   22.6260 C   0  0  0  0  0  0
   -2.6860   76.7170   26.6810 O   0  0  0  0  0  0
   -1.4010   74.4110   27.1660 O   0  0  0  0  0  0
   -0.1840   73.9230   24.6490 O   0  0  0  0  0  0
   -3.8820   75.7820   24.9080 O   0  0  0  0  0  0
   -4.6870   75.2570   22.2790 O   0  0  0  0  0  0
   -2.1510   75.2280   21.0013 H   0  0  0  0  0  0
    0.8416   76.0588   20.8100 H   0  0  0  0  0  0
   -1.1160   75.4400   18.4900 H   0  0  0  0  0  0
    0.1043   73.2801   18.1613 H   0  0  0  0  0  0
   -1.9412   73.3738   19.7606 H   0  0  0  0  0  0
   -1.1263   71.1293   19.2708 H   0  0  0  0  0  0
    0.2296   71.3151   20.4343 H   0  0  0  0  0  0
   -0.6627   77.9540   21.1182 H   0  0  0  0  0  0
    0.7873   76.8865   17.9292 H   0  0  0  0  0  0
    2.2761   73.8700   19.1390 H   0  0  0  0  0  0
   -1.7141   70.0841   21.5094 H   0  0  0  0  0  0
   -4.0066   75.1697   26.8169 H   0  0  0  0  0  0
   -2.4765   73.5061   25.7178 H   0  0  0  0  0  0
   -0.5227   75.8165   25.1154 H   0  0  0  0  0  0
   -2.3335   74.3157   23.1351 H   0  0  0  0  0  0
   -2.6151   77.1973   24.1553 H   0  0  0  0  0  0
   -4.7232   77.2384   22.8598 H   0  0  0  0  0  0
   -3.3819   76.7709   21.7602 H   0  0  0  0  0  0
   -2.1385   76.6894   27.6347 H   0  0  0  0  0  0
   -1.9383   74.1107   28.0777 H   0  0  0  0  0  0
    0.4591   73.6036   25.4823 H   0  0  0  0  0  0
   -5.3849   75.2544   21.4287 H   0  0  0  0  0  0
  1  2  1  0  0  0
  1  7  1  0  0  0
  1 11  1  0  0  0
  1 24  1  0  0  0
  2  3  1  0  0  0
  2  8  1  0  0  0
  2 25  1  0  0  0
  3  4  1  0  0  0
  3  9  1  0  0  0
  3 26  1  0  0  0
  4  5  1  0  0  0
  4 10  1  0  0  0
  4 27  1  0  0  0
  5  6  1  0  0  0
  5 11  1  0  0  0
  5 28  1  0  0  0
  6 12  1  0  0  0
  6 29  1  0  0  0
  6 30  1  0  0  0
  7 16  1  0  0  0
  8 31  1  0  0  0
  9 32  1  0  0  0
 10 33  1  0  0  0
 12 34  1  0  0  0
 13 14  1  0  0  0
 13 19  1  0  0  0
 13 22  1  0  0  0
 13 35  1  0  0  0
 14 15  1  0  0  0
 14 20  1  0  0  0
 14 36  1  0  0  0
 15 16  1  0  0  0
 15 21  1  0  0  0
 15 37  1  0  0  0
 16 17  1  0  0  0
 16 38  1  0  0  0
 17 18  1  0  0  0
 17 22  1  0  0  0
 17 39  1  0  0  0
 18 23  1  0  0  0
 18 40  1  0  0  0
 18 41  1  0  0  0
 19 42  1  0  0  0
 20 43  1  0  0  0
 21 44  1  0  0  0
 23 45  1  0  0  0
M  END
> <s_m_source_file>
../3i8t_ligand.sdf

> <i_m_source_file_index>
1

> <s_epik_input>
W09IXVtDQEBIXTFbQ0BIXShbT0hdKVtDQEBIXShbT0hdKVtDQEBIXShbQ0BIXShPMSlbQ0gyXVtPSF0pT1tDQEhdMltDQEhdKFtPSF0pW0NAQEhdKFtPSF0pW0NAQEhdKFtPSF0pW0NASF0oTzIpW0NIMl1bT0hd

> <s_epik_cmdline>
J2VwaWtfYXBwJywgJy1pbWFlJywgJ2xpZ2FuZF9wcm8ubWFlJywgJy1vbWFlJywgJ2xpZ2FuZF9wcmVwLm1hZScsICctbXMnLCAnMScsICctcGgnLCAnNycsICctcGh0JywgJzAuNScsICctbnQn

> <r_lp_tautomer_probability>
1

> <r_epik_Ionization_Penalty>
  0.0000

> <r_epik_Ionization_Penalty_Charging>
  0.0000

> <r_epik_Ionization_Penalty_Neutral>
  0.0000

> <r_epik_State_Penalty>
 -0.0000

> <r_epik_Charging_Adjusted_Penalty>
0

> <i_epik_Tot_Q>
0

> <i_epik_Tot_abs_Q>
0

> <s_epik_Chemistry_Notes>
This compound contains an acetal/aminal-like group ( X-CH(R)-Y where X, Y are N, S, or O) that may be acid/base labile, releasing an aldehyde.

$$$$
