3ia6_ligand
                    3D
 Schrodinger Suite 2020-3.
 54 57  0  0  1  0            999 V2000
   20.1120   63.1870   20.2090 O   0  5  0  0  0  0
   18.9330   63.4150   19.8110 C   0  0  0  0  0  0
   17.8920   63.5780   20.5050 O   0  0  0  0  0  0
   18.7030   63.5170   18.3010 C   0  0  1  0  0  0
   19.8650   64.1860   17.7290 N   0  0  0  0  0  0
   19.8420   65.5210   17.5970 N   0  0  0  0  0  0
   21.0370   65.7440   17.0510 C   0  0  0  0  0  0
   21.7190   64.5160   16.8840 C   0  0  0  0  0  0
   20.9550   63.5160   17.3230 N   0  0  0  0  0  0
   18.6030   62.0530   17.8940 C   0  0  0  0  0  0
   18.2670   61.9260   16.4370 C   0  0  0  0  0  0
   16.9700   62.0320   15.9730 C   0  0  0  0  0  0
   16.6920   61.9110   14.6290 C   0  0  0  0  0  0
   17.7190   61.6840   13.7330 C   0  0  0  0  0  0
   19.0100   61.5750   14.1940 C   0  0  0  0  0  0
   19.2810   61.6940   15.5330 C   0  0  0  0  0  0
   17.5050   61.5320   12.2670 C   0  0  0  0  0  0
   16.5400   62.5180   11.6710 C   0  0  0  0  0  0
   16.7020   62.4240   10.1710 C   0  0  0  0  0  0
   17.2150   63.6770    9.6000 C   0  0  0  0  0  0
   16.4230   64.7950    9.5350 N   0  0  0  0  0  0
   17.2020   65.6960    8.9790 C   0  0  0  0  0  0
   18.4500   65.2560    8.6670 O   0  0  0  0  0  0
   18.4520   63.9600    9.0690 C   0  0  0  0  0  0
   19.6910   63.1950    8.8590 C   0  0  0  0  0  0
   16.9140   67.0690    8.6560 C   0  0  0  0  0  0
   17.8920   67.8860    8.1270 C   0  0  0  0  0  0
   17.6060   69.1990    7.8220 C   0  0  0  0  0  0
   16.3430   69.7010    8.0460 C   0  0  0  0  0  0
   15.3640   68.8890    8.5740 C   0  0  0  0  0  0
   15.6520   67.5770    8.8790 C   0  0  0  0  0  0
   17.8469   64.1114   17.9491 H   0  0  0  0  0  0
   21.4290   66.7230   16.7752 H   0  0  0  0  0  0
   22.7173   64.4045   16.4608 H   0  0  0  0  0  0
   19.5654   61.5541   18.0804 H   0  0  0  0  0  0
   17.8150   61.5615   18.4835 H   0  0  0  0  0  0
   16.1583   62.2132   16.6775 H   0  0  0  0  0  0
   15.6649   61.9941   14.2736 H   0  0  0  0  0  0
   19.8228   61.3929   13.4909 H   0  0  0  0  0  0
   20.3084   61.6042   15.8858 H   0  0  0  0  0  0
   18.4621   61.6642   11.7411 H   0  0  0  0  0  0
   17.1067   60.5285   12.0567 H   0  0  0  0  0  0
   15.5151   62.2563   11.9729 H   0  0  0  0  0  0
   16.7809   63.5296   12.0298 H   0  0  0  0  0  0
   17.4099   61.6178    9.9285 H   0  0  0  0  0  0
   15.7272   62.2070    9.7098 H   0  0  0  0  0  0
   19.5545   62.1676    9.2276 H   0  0  0  0  0  0
   20.5154   63.6747    9.4070 H   0  0  0  0  0  0
   19.9294   63.1708    7.7854 H   0  0  0  0  0  0
   18.8928   67.4920    7.9500 H   0  0  0  0  0  0
   18.3804   69.8414    7.4028 H   0  0  0  0  0  0
   16.1186   70.7402    7.8055 H   0  0  0  0  0  0
   14.3634   69.2837    8.7502 H   0  0  0  0  0  0
   14.8769   66.9362    9.2995 H   0  0  0  0  0  0
  1  2  1  0  0  0
  2  3  2  0  0  0
  2  4  1  0  0  0
  4  5  1  0  0  0
  4 10  1  0  0  0
  4 32  1  0  0  0
  5  6  1  0  0  0
  5  9  1  0  0  0
  6  7  2  0  0  0
  7  8  1  0  0  0
  7 33  1  0  0  0
  8  9  2  0  0  0
  8 34  1  0  0  0
 10 11  1  0  0  0
 10 35  1  0  0  0
 10 36  1  0  0  0
 11 12  2  0  0  0
 11 16  1  0  0  0
 12 13  1  0  0  0
 12 37  1  0  0  0
 13 14  2  0  0  0
 13 38  1  0  0  0
 14 15  1  0  0  0
 14 17  1  0  0  0
 15 16  2  0  0  0
 15 39  1  0  0  0
 16 40  1  0  0  0
 17 18  1  0  0  0
 17 41  1  0  0  0
 17 42  1  0  0  0
 18 19  1  0  0  0
 18 43  1  0  0  0
 18 44  1  0  0  0
 19 20  1  0  0  0
 19 45  1  0  0  0
 19 46  1  0  0  0
 20 21  1  0  0  0
 20 24  2  0  0  0
 21 22  2  0  0  0
 22 23  1  0  0  0
 22 26  1  0  0  0
 23 24  1  0  0  0
 24 25  1  0  0  0
 25 47  1  0  0  0
 25 48  1  0  0  0
 25 49  1  0  0  0
 26 27  2  0  0  0
 26 31  1  0  0  0
 27 28  1  0  0  0
 27 50  1  0  0  0
 28 29  2  0  0  0
 28 51  1  0  0  0
 29 30  1  0  0  0
 29 52  1  0  0  0
 30 31  2  0  0  0
 30 53  1  0  0  0
 31 54  1  0  0  0
M  CHG  1   1  -1
M  END
> <s_m_source_file>
../3ia6_ligand.sdf

> <i_m_source_file_index>
1

> <s_epik_input>
bjFbY0hdW2NIXW5uMVtDQEhdKEMoPU8pW09IXSlbQ0gyXWMyW2NIXVtjSF1jKFtjSF1bY0hdMilbQ0gyXVtDSDJdW0NIMl1jM25jKG9jM1tDSDNdKS1jNFtjSF1bY0hdW2NIXVtjSF1bY0hdNA==

> <s_epik_cmdline>
J2VwaWtfYXBwJywgJy1pbWFlJywgJ2xpZ2FuZF9wcm8ubWFlJywgJy1vbWFlJywgJ2xpZ2FuZF9wcmVwLm1hZScsICctbXMnLCAnMScsICctcGgnLCAnNycsICctcGh0JywgJzAuNScsICctbnQn

> <r_lp_tautomer_probability>
1

> <r_epik_Ionization_Penalty>
  0.0011

> <r_epik_Ionization_Penalty_Charging>
  0.0011

> <r_epik_Ionization_Penalty_Neutral>
  0.0000

> <r_epik_State_Penalty>
 -0.0000

> <r_epik_Charging_Adjusted_Penalty>
0.00110423783099219

> <i_epik_Tot_Q>
-1

> <i_epik_Tot_abs_Q>
1

$$$$
