3iad_ligand
                    3D
 Schrodinger Suite 2020-3.
 47 49  0  0  1  0            999 V2000
   22.7280   -6.9260   32.5510 C   0  0  0  0  0  0
   23.7980   -7.6260   32.0000 C   0  0  0  0  0  0
   24.0620   -8.9420   32.3790 C   0  0  0  0  0  0
   23.2290   -9.5510   33.3150 C   0  0  0  0  0  0
   22.1500   -8.8520   33.8610 C   0  0  0  0  0  0
   21.8910   -7.5420   33.4750 C   0  0  0  0  0  0
   21.9200   -2.9210   31.0500 C   0  0  0  0  0  0
   21.9750   -3.9730   30.1330 C   0  0  0  0  0  0
   22.2490   -5.3420   30.6390 C   0  0  0  0  0  0
   22.4640   -5.5410   32.0890 C   0  0  0  0  0  0
   22.3830   -4.3650   32.9880 C   0  0  0  0  0  0
   22.1160   -3.1070   32.4250 C   0  0  0  0  0  0
   21.7650   -3.7260   28.6470 C   0  0  0  0  0  0
   20.6390   -4.5900   28.1350 C   0  0  0  0  0  0
   20.8920   -5.7970   27.4800 C   0  0  0  0  0  0
   19.8420   -6.5970   27.0240 C   0  0  0  0  0  0
   18.5120   -6.1960   27.2040 C   0  0  0  0  0  0
   18.2840   -4.9860   27.8660 C   0  0  0  0  0  0
   19.3260   -4.1850   28.3270 C   0  0  0  0  0  0
   22.8380   -3.4540   35.2200 C   0  0  0  0  0  0
   22.5770   -4.5430   34.3370 O   0  0  0  0  0  0
   25.1590   -9.6290   31.8220 N   0  3  0  0  0  0
   25.3700  -10.8050   32.0950 O   0  0  0  0  0  0
   17.3810   -6.8720   26.8370 N   0  0  0  0  0  0
   26.0270   -8.9730   30.9450 O   0  5  0  0  0  0
   17.2050   -8.1250   26.3590 C   0  0  0  0  0  0
   18.1480   -9.0010   25.9820 N   0  0  0  0  0  0
   16.0460   -8.5010   26.2890 O   0  0  0  0  0  0
   22.3170   -6.4070   29.8180 F   0  0  0  0  0  0
   24.4373   -7.1395   31.2633 H   0  0  0  0  0  0
   23.4204  -10.5789   33.6230 H   0  0  0  0  0  0
   21.5065   -9.3372   34.5949 H   0  0  0  0  0  0
   21.0404   -7.0030   33.8924 H   0  0  0  0  0  0
   21.7166   -1.9155   30.6816 H   0  0  0  0  0  0
   22.0589   -2.2404   33.0837 H   0  0  0  0  0  0
   21.5128   -2.6679   28.4832 H   0  0  0  0  0  0
   22.6874   -3.9719   28.1005 H   0  0  0  0  0  0
   21.9215   -6.1187   27.3227 H   0  0  0  0  0  0
   20.0592   -7.5409   26.5241 H   0  0  0  0  0  0
   17.2568   -4.6586   28.0267 H   0  0  0  0  0  0
   19.1111   -3.2453   28.8357 H   0  0  0  0  0  0
   22.9582   -3.8340   36.2453 H   0  0  0  0  0  0
   21.9968   -2.7460   35.1876 H   0  0  0  0  0  0
   23.7603   -2.9421   34.9082 H   0  0  0  0  0  0
   16.3987   -6.3827   26.9130 H   0  0  0  0  0  0
   19.2101   -8.7177   26.0237 H   0  0  0  0  0  0
   17.8594  -10.0028   25.6311 H   0  0  0  0  0  0
  1  2  2  0  0  0
  1  6  1  0  0  0
  1 10  1  0  0  0
  2  3  1  0  0  0
  2 30  1  0  0  0
  3  4  2  0  0  0
  3 22  1  0  0  0
  4  5  1  0  0  0
  4 31  1  0  0  0
  5  6  2  0  0  0
  5 32  1  0  0  0
  6 33  1  0  0  0
  7  8  2  0  0  0
  7 12  1  0  0  0
  7 34  1  0  0  0
  8  9  1  0  0  0
  8 13  1  0  0  0
  9 10  2  0  0  0
  9 29  1  0  0  0
 10 11  1  0  0  0
 11 12  2  0  0  0
 11 21  1  0  0  0
 12 35  1  0  0  0
 13 14  1  0  0  0
 13 36  1  0  0  0
 13 37  1  0  0  0
 14 15  2  0  0  0
 14 19  1  0  0  0
 15 16  1  0  0  0
 15 38  1  0  0  0
 16 17  2  0  0  0
 16 39  1  0  0  0
 17 18  1  0  0  0
 17 24  1  0  0  0
 18 19  2  0  0  0
 18 40  1  0  0  0
 19 41  1  0  0  0
 20 21  1  0  0  0
 20 42  1  0  0  0
 20 43  1  0  0  0
 20 44  1  0  0  0
 22 23  2  0  0  0
 22 25  1  0  0  0
 24 26  1  0  0  0
 24 45  1  0  0  0
 26 27  1  0  0  0
 26 28  2  0  0  0
 27 46  1  0  0  0
 27 47  1  0  0  0
M  CHG  2  22   1  25  -1
M  END
> <s_m_source_file>
../3iad_ligand.sdf

> <i_m_source_file_index>
1

> <s_epik_input>
W2NIXTFbY0hdW2NIXWMoW04rXSg9TylbTy1dKVtjSF1jMS1jKGMyRiljKE9bQ0gzXSlbY0hdW2NIXWMyW0NIMl1jM1tjSF1bY0hdYyhbY0hdW2NIXTMpW05IXUMoPU8pW05IMl0=

> <s_epik_cmdline>
J2VwaWtfYXBwJywgJy1pbWFlJywgJ2xpZ2FuZF9wcm8ubWFlJywgJy1vbWFlJywgJ2xpZ2FuZF9wcmVwLm1hZScsICctbXMnLCAnMScsICctcGgnLCAnNycsICctcGh0JywgJzAuNScsICctbnQn

> <r_lp_tautomer_probability>
1

> <r_epik_Ionization_Penalty>
  0.0000

> <r_epik_Ionization_Penalty_Charging>
  0.0000

> <r_epik_Ionization_Penalty_Neutral>
  0.0000

> <r_epik_State_Penalty>
 -0.0000

> <r_epik_Charging_Adjusted_Penalty>
0

> <i_epik_Tot_Q>
0

> <i_epik_Tot_abs_Q>
2

$$$$
