3iae_ligand
                    3D
 Schrodinger Suite 2020-3.
 77 79  0  0  1  0            999 V2000
   -2.9350  -50.0030  -29.7900 P   0  0  2  0  0  0
   -3.4690  -50.3920  -31.2990 O   0  5  0  0  0  0
   -2.1510  -51.1960  -29.3770 O   0  0  0  0  0  0
   -6.5320  -49.3790  -28.0370 O   0  5  0  0  0  0
   -5.2280  -48.6220  -28.7190 P   0  0  0  0  0  0
   -5.3710  -48.1810  -30.3110 O   0  5  0  0  0  0
   -4.7880  -47.4280  -27.9440 O   0  0  0  0  0  0
   -4.0870  -49.8160  -28.6440 O   0  0  0  0  0  0
   -2.1400  -48.5730  -29.8520 O   0  0  0  0  0  0
   -1.3480  -48.1590  -28.7760 C   0  0  0  0  0  0
   -1.0560  -46.6940  -29.0850 C   0  0  0  0  0  0
    0.0210  -46.0960  -28.1720 C   0  0  1  0  0  0
    1.5350  -45.9340  -28.5530 C   0  0  3  0  0  0
    2.1690  -46.3630  -29.8810 C   0  0  0  0  0  0
   -0.2430  -45.5120  -26.6440 S   0  0  0  0  0  0
    1.4000  -45.0210  -26.2400 C   0  0  1  0  0  0
    2.3460  -45.2760  -27.4010 N   0  0  3  0  0  0
    3.7810  -45.0010  -27.4720 C   0  0  0  0  0  0
    4.6090  -46.2880  -27.4480 C   0  0  0  0  0  0
    5.5100  -46.6180  -28.5840 C   0  0  0  0  0  0
    4.5560  -47.1930  -26.2470 C   0  0  1  0  0  0
    3.7200  -46.9170  -25.1240 N   0  3  0  0  0  0
    5.3490  -48.3900  -26.1750 N   0  0  1  0  0  0
    6.2510  -48.7460  -27.2810 C   0  0  2  0  0  0
    6.3070  -47.8450  -28.4850 N   0  0  0  0  0  0
    7.0560  -50.0310  -27.1810 C   0  0  0  0  0  0
    2.8270  -42.2120  -26.5240 O   0  5  0  0  0  0
    1.6620  -42.3300  -25.3850 P   0  0  2  0  0  0
    0.3650  -41.8580  -25.9190 O   0  0  0  0  0  0
    2.0310  -41.4840  -23.9720 O   0  0  0  0  0  0
    1.0330  -40.8810  -23.1800 C   0  0  0  0  0  0
    1.6530  -44.1680  -24.9640 C   0  0  2  0  0  0
    2.9620  -44.4340  -24.4670 O   0  0  0  0  0  0
    0.5300  -44.5120  -23.9190 C   0  0  0  0  0  0
    0.7560  -45.6130  -22.8370 C   0  0  0  0  0  0
   -0.3190  -45.9570  -21.8040 C   0  0  0  0  0  0
   -1.6820  -45.2160  -21.8230 C   0  0  0  0  0  0
   -1.9280  -44.1240  -22.8780 C   0  0  0  0  0  0
   -0.8340  -43.7810  -23.9220 C   0  0  0  0  0  0
   -1.9094  -48.2835  -27.8383 H   0  0  0  0  0  0
   -0.4326  -48.7678  -28.7389 H   0  0  0  0  0  0
   -0.7049  -46.6012  -30.1233 H   0  0  0  0  0  0
   -1.9736  -46.1016  -28.9539 H   0  0  0  0  0  0
    0.2306  -47.0959  -27.7643 H   0  0  0  0  0  0
    1.7476  -46.9272  -28.1307 H   0  0  0  0  0  0
    1.3972  -46.8004  -30.5314 H   0  0  0  0  0  0
    2.9529  -47.1103  -29.6885 H   0  0  0  0  0  0
    2.6118  -45.4862  -30.3760 H   0  0  0  0  0  0
    2.3037  -45.2388  -25.6518 H   0  0  0  0  0  0
    4.0056  -44.4636  -28.4051 H   0  0  0  0  0  0
    4.0789  -44.3830  -26.6122 H   0  0  0  0  0  0
    5.5609  -45.9511  -29.4573 H   0  0  0  0  0  0
    5.3717  -46.6214  -25.7803 H   0  0  0  0  0  0
    3.1682  -45.9816  -25.2988 H   0  0  0  0  0  0
    4.3405  -46.8136  -24.2216 H   0  0  0  0  0  0
    3.0069  -47.7431  -24.9860 H   0  0  0  0  0  0
    6.0124  -48.3382  -25.2991 H   0  0  0  0  0  0
    7.1586  -48.1261  -27.3253 H   0  0  0  0  0  0
    6.9626  -48.0980  -29.3313 H   0  0  0  0  0  0
    6.8526  -50.5168  -26.2153 H   0  0  0  0  0  0
    8.1285  -49.7985  -27.2558 H   0  0  0  0  0  0
    6.7695  -50.7078  -27.9995 H   0  0  0  0  0  0
    1.4998  -40.3884  -22.3143 H   0  0  0  0  0  0
    0.3292  -41.6500  -22.8289 H   0  0  0  0  0  0
    0.4912  -40.1341  -23.7788 H   0  0  0  0  0  0
    3.8407  -44.2371  -25.0988 H   0  0  0  0  0  0
    0.1236  -45.2697  -24.6051 H   0  0  0  0  0  0
    0.9453  -46.5780  -23.3298 H   0  0  0  0  0  0
    1.6219  -45.3431  -22.2145 H   0  0  0  0  0  0
   -0.5932  -47.0180  -21.8996 H   0  0  0  0  0  0
    0.0706  -45.7686  -20.7927 H   0  0  0  0  0  0
   -2.4919  -45.9422  -21.9867 H   0  0  0  0  0  0
   -1.8357  -44.7062  -20.8604 H   0  0  0  0  0  0
   -2.7992  -44.3967  -23.4917 H   0  0  0  0  0  0
   -2.1197  -43.1647  -22.3750 H   0  0  0  0  0  0
   -0.6724  -42.7026  -23.7770 H   0  0  0  0  0  0
   -1.3385  -43.9500  -24.8848 H   0  0  0  0  0  0
  1  2  1  0  0  0
  1  3  2  0  0  0
  1  8  1  0  0  0
  1  9  1  0  0  0
  4  5  1  0  0  0
  5  6  1  0  0  0
  5  7  2  0  0  0
  5  8  1  0  0  0
  9 10  1  0  0  0
 10 11  1  0  0  0
 10 40  1  0  0  0
 10 41  1  0  0  0
 11 12  1  0  0  0
 11 42  1  0  0  0
 11 43  1  0  0  0
 12 13  1  0  0  0
 12 15  1  0  0  0
 12 44  1  0  0  0
 13 14  1  0  0  0
 13 17  1  0  0  0
 13 45  1  0  0  0
 14 46  1  0  0  0
 14 47  1  0  0  0
 14 48  1  0  0  0
 15 16  1  0  0  0
 16 17  1  0  0  0
 16 32  1  0  0  0
 16 49  1  0  0  0
 17 18  1  0  0  0
 18 19  1  0  0  0
 18 50  1  0  0  0
 18 51  1  0  0  0
 19 20  2  0  0  0
 19 21  1  0  0  0
 20 25  1  0  0  0
 20 52  1  0  0  0
 21 22  1  0  0  0
 21 23  1  0  0  0
 21 53  1  0  0  0
 22 54  1  0  0  0
 22 55  1  0  0  0
 22 56  1  0  0  0
 23 24  1  0  0  0
 23 57  1  0  0  0
 24 25  1  0  0  0
 24 26  1  0  0  0
 24 58  1  0  0  0
 25 59  1  0  0  0
 26 60  1  0  0  0
 26 61  1  0  0  0
 26 62  1  0  0  0
 27 28  1  0  0  0
 28 29  2  0  0  0
 28 30  1  0  0  0
 28 32  1  0  0  0
 30 31  1  0  0  0
 31 63  1  0  0  0
 31 64  1  0  0  0
 31 65  1  0  0  0
 32 33  1  0  0  0
 32 34  1  0  0  0
 33 66  1  0  0  0
 34 35  1  0  0  0
 34 39  1  0  0  0
 34 67  1  0  0  0
 35 36  1  0  0  0
 35 68  1  0  0  0
 35 69  1  0  0  0
 36 37  1  0  0  0
 36 70  1  0  0  0
 36 71  1  0  0  0
 37 38  1  0  0  0
 37 72  1  0  0  0
 37 73  1  0  0  0
 38 39  1  0  0  0
 38 74  1  0  0  0
 38 75  1  0  0  0
 39 76  1  0  0  0
 39 77  1  0  0  0
M  CHG  5   2  -1   4  -1   6  -1  22   1  27  -1
M  END
> <s_m_source_file>
../3iae_ligand.sdf

> <i_m_source_file_index>
1

> <s_epik_input>
W09IXVAoPU8pKFtPSF0pT1tQQEBdKD1PKShbT0hdKU9bQ0gyXVtDSDJdW0NIXTFbQ0hdKFtDSDNdKVtOSCtdKFtDQEhdKFMxKVtDQEBdKFtPSF0pKFtQQF0oPU8pKFtPSF0pT1tDSDNdKVtDSF0yW0NIMl1bQ0gyXVtDSDJdW0NIMl1bQ0gyXTIpW0NIMl1DMz1bQ0hdW05IXVtDQEhdKFtDSDNdKVtOSDIrXVtDSF0zW05IMytd

> <s_epik_cmdline>
J2VwaWtfYXBwJywgJy1pbWFlJywgJ2xpZ2FuZF9wcm8ubWFlJywgJy1vbWFlJywgJ2xpZ2FuZF9wcmVwLm1hZScsICctbXMnLCAnMScsICctcGgnLCAnNycsICctcGh0JywgJzAuNScsICctbnQn

> <r_lp_tautomer_probability>
1.4e-05

> <r_epik_Ionization_Penalty>
  0.1117

> <r_epik_Ionization_Penalty_Charging>
  0.1117

> <r_epik_Ionization_Penalty_Neutral>
  0.0000

> <r_epik_State_Penalty>
  0.0965

> <r_epik_Charging_Adjusted_Penalty>
0.208224825745265

> <i_epik_Tot_Q>
-3

> <i_epik_Tot_abs_Q>
5

> <s_epik_Chemistry_Notes>
This compound has an imine and may undergo hydrolysis. This compound contains an acetal/aminal-like group ( X-CH(R)-Y where X, Y are N, S, or O) that may be acid/base labile, releasing an aldehyde.

$$$$
