3iaf_ligand
                    3D
 Schrodinger Suite 2020-3.
 42 43  0  0  1  0            999 V2000
   39.2110  -27.5420   -5.3240 N   0  0  0  0  0  0
   39.4600  -28.2390   -6.4910 C   0  0  0  0  0  0
   39.8490  -29.6910   -6.4800 C   0  0  0  0  0  0
   39.3120  -27.6210   -7.7150 N   0  0  0  0  0  0
   38.9120  -26.3010   -7.7880 C   0  0  0  0  0  0
   38.7770  -25.7250   -8.9800 N   0  0  0  0  0  0
   38.6690  -25.5810   -6.6180 C   0  0  0  0  0  0
   38.8070  -26.2200   -5.3870 C   0  0  0  0  0  0
   38.2010  -24.1360   -6.6580 C   0  0  0  0  0  0
   39.2070  -23.0980   -6.6700 N   0  3  0  0  0  0
   39.4110  -22.2830   -7.7600 C   0  0  0  0  0  0
   40.5530  -21.1970   -7.5340 S   0  0  0  0  0  0
   40.8350  -21.6980   -6.0490 C   0  0  0  0  0  0
   40.0300  -22.7560   -5.6460 C   0  0  0  0  0  0
   40.0830  -23.4080   -4.2910 C   0  0  0  0  0  0
   41.9210  -20.9260   -5.3480 C   0  0  0  0  0  0
   43.1990  -21.7590   -5.2480 C   0  0  0  0  0  0
   44.3280  -20.9160   -5.2880 O   0  0  0  0  0  0
   45.5380  -20.9910   -4.2220 P   0  0  2  0  0  0
   46.1760  -22.3550   -4.2270 O   0  0  0  0  0  0
   45.1170  -20.6300   -2.8210 O   0  5  0  0  0  0
   46.5720  -19.9090   -4.8060 O   0  0  0  0  0  0
   46.0390  -18.4820   -5.3270 P   0  0  0  0  0  0
   45.4230  -17.7500   -4.1630 O   0  0  0  0  0  0
   45.0070  -18.6640   -6.4110 O   0  5  0  0  0  0
   47.1950  -17.6780   -5.8680 O   0  5  0  0  0  0
   39.9280  -30.0416   -5.4403 H   0  0  0  0  0  0
   40.8193  -29.8145   -6.9833 H   0  0  0  0  0  0
   39.0844  -30.2794   -7.0083 H   0  0  0  0  0  0
   38.9714  -26.3031   -9.8954 H   0  0  0  0  0  0
   38.4710  -24.6707   -9.0499 H   0  0  0  0  0  0
   38.5952  -25.6745   -4.4674 H   0  0  0  0  0  0
   37.6060  -23.9684   -7.5679 H   0  0  0  0  0  0
   37.5836  -23.9259   -5.7722 H   0  0  0  0  0  0
   38.8458  -22.3723   -8.6877 H   0  0  0  0  0  0
   39.3385  -24.2164   -4.2437 H   0  0  0  0  0  0
   39.8618  -22.6601   -3.5153 H   0  0  0  0  0  0
   41.0874  -23.8241   -4.1234 H   0  0  0  0  0  0
   42.1394  -20.0067   -5.9113 H   0  0  0  0  0  0
   41.5877  -20.6637   -4.3331 H   0  0  0  0  0  0
   43.1986  -22.3188   -4.3011 H   0  0  0  0  0  0
   43.2439  -22.4643   -6.0909 H   0  0  0  0  0  0
  1  2  2  0  0  0
  1  8  1  0  0  0
  2  3  1  0  0  0
  2  4  1  0  0  0
  3 27  1  0  0  0
  3 28  1  0  0  0
  3 29  1  0  0  0
  4  5  2  0  0  0
  5  6  1  0  0  0
  5  7  1  0  0  0
  6 30  1  0  0  0
  6 31  1  0  0  0
  7  8  2  0  0  0
  7  9  1  0  0  0
  8 32  1  0  0  0
  9 10  1  0  0  0
  9 33  1  0  0  0
  9 34  1  0  0  0
 10 11  2  0  0  0
 10 14  1  0  0  0
 11 12  1  0  0  0
 11 35  1  0  0  0
 12 13  1  0  0  0
 13 14  2  0  0  0
 13 16  1  0  0  0
 14 15  1  0  0  0
 15 36  1  0  0  0
 15 37  1  0  0  0
 15 38  1  0  0  0
 16 17  1  0  0  0
 16 39  1  0  0  0
 16 40  1  0  0  0
 17 18  1  0  0  0
 17 41  1  0  0  0
 17 42  1  0  0  0
 18 19  1  0  0  0
 19 20  2  0  0  0
 19 21  1  0  0  0
 19 22  1  0  0  0
 22 23  1  0  0  0
 23 24  2  0  0  0
 23 25  1  0  0  0
 23 26  1  0  0  0
M  CHG  4  10   1  21  -1  25  -1  26  -1
M  END
> <s_m_source_file>
../3iaf_ligand.sdf

> <i_m_source_file_index>
1

> <s_epik_input>
W0NIM11jMW5bY0hdYyhjKG4xKVtOSDJdKVtDSDJdW24rXTJbY0hdc2MoYzJbQ0gzXSlbQ0gyXVtDSDJdT1tQQF0oPU8pKFtPSF0pT1AoPU8pKFtPSF0pW09IXQ==

> <s_epik_cmdline>
J2VwaWtfYXBwJywgJy1pbWFlJywgJ2xpZ2FuZF9wcm8ubWFlJywgJy1vbWFlJywgJ2xpZ2FuZF9wcmVwLm1hZScsICctbXMnLCAnMScsICctcGgnLCAnNycsICctcGh0JywgJzAuNScsICctbnQn

> <r_lp_tautomer_probability>
1

> <r_epik_Ionization_Penalty>
  0.1081

> <r_epik_Ionization_Penalty_Charging>
  0.0846

> <r_epik_Ionization_Penalty_Neutral>
  0.0235

> <r_epik_State_Penalty>
 -0.0000

> <r_epik_Charging_Adjusted_Penalty>
0.0846133443195182

> <i_epik_Tot_Q>
-2

> <i_epik_Tot_abs_Q>
4

$$$$
