3iaw_ligand
                    3D
 Schrodinger Suite 2020-3.
125124  0  0  1  0            999 V2000
    6.3610    4.0060    7.8700 C   0  0  0  0  0  0
    7.1490    4.4330    8.7040 O   0  0  0  0  0  0
    6.8310    3.3070    6.6270 C   0  0  0  0  0  0
    5.0490    3.9520    8.0950 N   0  0  0  0  0  0
    4.3950    4.7810    9.1130 C   0  0  2  0  0  0
    4.0020    4.0510   10.3950 C   0  0  0  0  0  0
    3.7380    4.6900   11.4230 O   0  0  0  0  0  0
    3.1100    5.3850    8.5450 C   0  0  2  0  0  0
    2.3380    4.3570    7.9130 O   0  0  0  0  0  0
    3.4630    6.4560    7.5450 C   0  0  0  0  0  0
    3.9140    2.7330   10.3330 N   0  0  0  0  0  0
    3.4130    1.9640   11.4680 C   0  0  2  0  0  0
    4.4340    0.9570   12.0330 C   0  0  0  0  0  0
    4.7860   -0.0430   11.3960 O   0  0  0  0  0  0
    2.1160    1.2180   11.1120 C   0  0  2  0  0  0
    1.1040    2.1540   10.4410 C   0  0  0  0  0  0
    1.5060    0.6180   12.3570 C   0  0  0  0  0  0
    0.7760    3.4480   11.2220 C   0  0  0  0  0  0
    5.1750    1.6830   12.8580 N   0  0  0  0  0  0
    6.1750    0.8670   13.5130 C   0  0  2  0  0  0
    5.6570    0.5180   14.8890 C   0  0  0  0  0  0
    7.4920    1.6360   13.6130 C   0  0  0  0  0  0
    8.0470    2.0450   12.2380 C   0  0  0  0  0  0
    7.6880    1.0500   11.1340 C   0  0  0  0  0  0
    8.8150    0.0920   10.8090 C   0  0  0  0  0  0
    4.7950   -0.6440   14.7860 N   0  3  0  0  0  0
    4.6970   -1.9480   15.4030 C   0  0  2  0  0  0
    6.0400   -2.6600   15.3530 C   0  0  2  0  0  0
    6.5350   -3.0180   14.2840 O   0  5  0  0  0  0
    3.6390   -2.7360   14.6580 C   0  0  0  0  0  0
    3.1260   -3.8260   15.5850 C   0  0  0  0  0  0
    3.5130   -5.1960   15.0340 C   0  0  0  0  0  0
    2.5410   -5.6150   13.9500 C   0  0  0  0  0  0
    6.3490   -3.7610   16.0460 N   0  3  0  0  0  0
    7.4110   -4.7610   15.9100 C   0  0  2  0  0  0
    7.3040   -5.8120   17.0130 C   0  0  0  0  0  0
    7.2050   -5.4800   18.2020 O   0  0  0  0  0  0
    8.7920   -4.0850   15.9220 C   0  0  0  0  0  0
   10.0010   -5.0230   15.7200 C   0  0  0  0  0  0
   10.4650   -5.6570   17.0100 C   0  0  0  0  0  0
   10.3160   -5.0640   18.0710 O   0  0  0  0  0  0
   11.0270   -6.8660   16.9320 N   0  0  0  0  0  0
    7.3100   -7.0770   16.6120 N   0  0  0  0  0  0
    7.2960   -8.1900   17.5410 C   0  0  2  0  0  0
    8.6530   -8.8720   17.4260 C   0  0  0  0  0  0
    9.0490   -9.2840   16.3270 O   0  0  0  0  0  0
    6.1970   -9.2070   17.1890 C   0  0  0  0  0  0
    4.7390   -8.7120   17.2320 C   0  0  0  0  0  0
    3.9790   -9.0300   15.9120 C   0  0  0  0  0  0
    2.9370  -10.0710   15.9360 N   0  0  0  0  0  0
    3.0680  -11.3320   16.3600 C   0  0  0  0  0  0
    4.2010  -11.7880   16.8760 N   0  3  0  0  0  0
    2.0280  -12.1530   16.2830 N   0  0  0  0  0  0
    9.4720   -8.8680   18.4790 N   0  0  0  0  0  0
    7.9223    3.4123    6.5375 H   0  0  0  0  0  0
    6.3460    3.7564    5.7480 H   0  0  0  0  0  0
    6.5691    2.2402    6.6850 H   0  0  0  0  0  0
    4.4530    3.2559    7.4865 H   0  0  0  0  0  0
    5.1811    5.5142    9.3464 H   0  0  0  0  0  0
    2.4673    5.8014    9.3347 H   0  0  0  0  0  0
    1.9918    3.4915    8.4970 H   0  0  0  0  0  0
    4.0551    7.2395    8.0405 H   0  0  0  0  0  0
    2.5406    6.8958    7.1378 H   0  0  0  0  0  0
    4.0509    6.0143    6.7269 H   0  0  0  0  0  0
    4.2236    2.2166    9.4124 H   0  0  0  0  0  0
    3.2323    2.7542   12.2116 H   0  0  0  0  0  0
    2.3603    0.4046   10.4129 H   0  0  0  0  0  0
    1.4918    2.4719    9.4619 H   0  0  0  0  0  0
    0.1499    1.6242   10.3030 H   0  0  0  0  0  0
    2.2347   -0.0528   12.8356 H   0  0  0  0  0  0
    0.6055    0.0475   12.0857 H   0  0  0  0  0  0
    1.2337    1.4224   13.0561 H   0  0  0  0  0  0
    0.0448    4.0430   10.6552 H   0  0  0  0  0  0
    1.6959    4.0345   11.3626 H   0  0  0  0  0  0
    0.3541    3.1868   12.2037 H   0  0  0  0  0  0
    5.1124    2.7588   13.0785 H   0  0  0  0  0  0
    6.3227   -0.0410   12.9099 H   0  0  0  0  0  0
    6.5043    0.2945   15.5539 H   0  0  0  0  0  0
    5.0881    1.3683   15.2932 H   0  0  0  0  0  0
    7.3373    2.5533   14.2001 H   0  0  0  0  0  0
    8.2471    1.0072   14.1074 H   0  0  0  0  0  0
    7.6362    3.0249   11.9535 H   0  0  0  0  0  0
    9.1440    2.1082   12.2894 H   0  0  0  0  0  0
    6.8210    0.4504   11.4485 H   0  0  0  0  0  0
    7.4401    1.5979   10.2129 H   0  0  0  0  0  0
    8.4944   -0.5941   10.0112 H   0  0  0  0  0  0
    9.0750   -0.4866   11.7077 H   0  0  0  0  0  0
    9.6941    0.6609   10.4721 H   0  0  0  0  0  0
    3.7617   -0.3569   15.0308 H   0  0  0  0  0  0
    4.4116   -1.8019   16.4552 H   0  0  0  0  0  0
    6.6468   -1.8191   15.7200 H   0  0  0  0  0  0
    2.8169   -2.0645   14.3696 H   0  0  0  0  0  0
    4.0818   -3.1822   13.7553 H   0  0  0  0  0  0
    3.5690   -3.6966   16.5835 H   0  0  0  0  0  0
    2.0305   -3.7592   15.6585 H   0  0  0  0  0  0
    4.5270   -5.1477   14.6105 H   0  0  0  0  0  0
    3.4897   -5.9377   15.8460 H   0  0  0  0  0  0
    2.8294   -6.6026   13.5607 H   0  0  0  0  0  0
    2.5627   -4.8783   13.1334 H   0  0  0  0  0  0
    1.5253   -5.6683   14.3689 H   0  0  0  0  0  0
    6.5596   -3.4895   17.0909 H   0  0  0  0  0  0
    7.2461   -5.2471   14.9371 H   0  0  0  0  0  0
    8.8427   -3.3402   15.1141 H   0  0  0  0  0  0
    8.9480   -3.5869   16.8903 H   0  0  0  0  0  0
    9.7263   -5.8310   15.0259 H   0  0  0  0  0  0
   10.8429   -4.4513   15.3024 H   0  0  0  0  0  0
   11.1389   -7.3585   15.9548 H   0  0  0  0  0  0
   11.3780   -7.3693   17.8450 H   0  0  0  0  0  0
    7.3263   -7.2653   15.5284 H   0  0  0  0  0  0
    7.1015   -7.7710   18.5393 H   0  0  0  0  0  0
    6.3521   -9.5742   16.1638 H   0  0  0  0  0  0
    6.2408  -10.0521   17.8917 H   0  0  0  0  0  0
    4.2093   -9.2035   18.0614 H   0  0  0  0  0  0
    4.7260   -7.6225   17.3830 H   0  0  0  0  0  0
    3.4642   -8.1246   15.5581 H   0  0  0  0  0  0
    4.6955   -9.3666   15.1483 H   0  0  0  0  0  0
    1.9224   -9.8419   15.5781 H   0  0  0  0  0  0
    5.0769  -11.1267   16.9505 H   0  0  0  0  0  0
    1.0772  -11.7979   15.8588 H   0  0  0  0  0  0
    2.1169  -13.1885   16.6434 H   0  0  0  0  0  0
    9.1146   -8.5009   19.4524 H   0  0  0  0  0  0
   10.5048   -9.2318   18.3739 H   0  0  0  0  0  0
    4.2651  -12.8276   17.2296 H   0  0  0  0  0  0
    5.5038   -4.4642   16.0132 H   0  0  0  0  0  0
    4.8326   -1.0387   13.7599 H   0  0  0  0  0  0
  1  2  2  0  0  0
  1  3  1  0  0  0
  1  4  1  0  0  0
  3 55  1  0  0  0
  3 56  1  0  0  0
  3 57  1  0  0  0
  4  5  1  0  0  0
  4 58  1  0  0  0
  5  6  1  0  0  0
  5  8  1  0  0  0
  5 59  1  0  0  0
  6  7  2  0  0  0
  6 11  1  0  0  0
  8  9  1  0  0  0
  8 10  1  0  0  0
  8 60  1  0  0  0
  9 61  1  0  0  0
 10 62  1  0  0  0
 10 63  1  0  0  0
 10 64  1  0  0  0
 11 12  1  0  0  0
 11 65  1  0  0  0
 12 13  1  0  0  0
 12 15  1  0  0  0
 12 66  1  0  0  0
 13 14  2  0  0  0
 13 19  1  0  0  0
 15 16  1  0  0  0
 15 17  1  0  0  0
 15 67  1  0  0  0
 16 18  1  0  0  0
 16 68  1  0  0  0
 16 69  1  0  0  0
 17 70  1  0  0  0
 17 71  1  0  0  0
 17 72  1  0  0  0
 18 73  1  0  0  0
 18 74  1  0  0  0
 18 75  1  0  0  0
 19 20  1  0  0  0
 19 76  1  0  0  0
 20 21  1  0  0  0
 20 22  1  0  0  0
 20 77  1  0  0  0
 21 26  1  0  0  0
 21 78  1  0  0  0
 21 79  1  0  0  0
 22 23  1  0  0  0
 22 80  1  0  0  0
 22 81  1  0  0  0
 23 24  1  0  0  0
 23 82  1  0  0  0
 23 83  1  0  0  0
 24 25  1  0  0  0
 24 84  1  0  0  0
 24 85  1  0  0  0
 25 86  1  0  0  0
 25 87  1  0  0  0
 25 88  1  0  0  0
 26 27  1  0  0  0
 26 89  1  0  0  0
 26125  1  0  0  0
 27 28  1  0  0  0
 27 30  1  0  0  0
 27 90  1  0  0  0
 28 29  1  0  0  0
 28 34  1  0  0  0
 28 91  1  0  0  0
 30 31  1  0  0  0
 30 92  1  0  0  0
 30 93  1  0  0  0
 31 32  1  0  0  0
 31 94  1  0  0  0
 31 95  1  0  0  0
 32 33  1  0  0  0
 32 96  1  0  0  0
 32 97  1  0  0  0
 33 98  1  0  0  0
 33 99  1  0  0  0
 33100  1  0  0  0
 34 35  1  0  0  0
 34101  1  0  0  0
 34124  1  0  0  0
 35 36  1  0  0  0
 35 38  1  0  0  0
 35102  1  0  0  0
 36 37  2  0  0  0
 36 43  1  0  0  0
 38 39  1  0  0  0
 38103  1  0  0  0
 38104  1  0  0  0
 39 40  1  0  0  0
 39105  1  0  0  0
 39106  1  0  0  0
 40 41  2  0  0  0
 40 42  1  0  0  0
 42107  1  0  0  0
 42108  1  0  0  0
 43 44  1  0  0  0
 43109  1  0  0  0
 44 45  1  0  0  0
 44 47  1  0  0  0
 44110  1  0  0  0
 45 46  2  0  0  0
 45 54  1  0  0  0
 47 48  1  0  0  0
 47111  1  0  0  0
 47112  1  0  0  0
 48 49  1  0  0  0
 48113  1  0  0  0
 48114  1  0  0  0
 49 50  1  0  0  0
 49115  1  0  0  0
 49116  1  0  0  0
 50 51  1  0  0  0
 50117  1  0  0  0
 51 52  2  0  0  0
 51 53  1  0  0  0
 52118  1  0  0  0
 52123  1  0  0  0
 53119  1  0  0  0
 53120  1  0  0  0
 54121  1  0  0  0
 54122  1  0  0  0
M  CHG  4  26   1  29  -1  34   1  52   1
M  END
> <s_m_source_file>
../3iaw_ligand.sdf

> <i_m_source_file_index>
1

> <s_epik_input>
Tz1DKFtDSDNdKVtOSF1bQ0BASF0oW0NASF0oW09IXSlbQ0gzXSlDKD1PKVtOSF1bQ0BASF0oW0NAQEhdKFtDSDNdKVtDSDJdW0NIM10pQyg9TylbTkhdW0NAQEhdKFtDSDJdW0NIMl1bQ0gyXVtDSDNdKVtDSDJdW05IMitdW0NAQEhdKFtDSDJdW0NIMl1bQ0gyXVtDSDNdKVtDQEhdKFtPSF0pW05IMitdW0NAQEhdKFtDSDJdW0NIMl1DKD1PKVtOSDJdKUMoPU8pW05IXVtDQEhdKEMoPU8pW05IMl0pW0NIMl1bQ0gyXVtDSDJdW05IXS9DKD1OXFtIXSlbTkgyXQ==

> <s_epik_cmdline>
J2VwaWtfYXBwJywgJy1pbWFlJywgJ2xpZ2FuZF9wcm8ubWFlJywgJy1vbWFlJywgJ2xpZ2FuZF9wcmVwLm1hZScsICctbXMnLCAnMScsICctcGgnLCAnNycsICctcGh0JywgJzAuNScsICctbnQn

> <r_epik_Ionization_Penalty>
  0.1244

> <r_epik_Ionization_Penalty_Charging>
  0.1244

> <r_epik_Ionization_Penalty_Neutral>
  0.0000

> <r_epik_State_Penalty>
  0.3355

> <r_epik_Charging_Adjusted_Penalty>
0.459830439048563

> <i_epik_Tot_Q>
2

> <i_epik_Tot_abs_Q>
4

> <s_epik_Chemistry_Notes>
This compound has an imine and may undergo hydrolysis. This compound contains an acetal/aminal-like group ( X-CH(R)-Y where X, Y are N, S, or O) that may be acid/base labile, releasing an aldehyde.

$$$$
