3ibc_ligand
                    3D
 Schrodinger Suite 2020-3.
 68 68  0  0  1  0            999 V2000
   58.3130  -29.6500   -1.3870 C   0  0  0  0  0  0
   59.2820  -29.1560   -0.8530 O   0  0  0  0  0  0
   58.5140  -30.7860   -2.3560 C   0  0  0  0  0  0
   57.0460  -29.5540   -0.8340 N   0  0  0  0  0  0
   56.4850  -28.2810   -0.3460 C   0  0  2  0  0  0
   56.5200  -27.0970   -1.3130 C   0  0  0  0  0  0
   57.5780  -26.5600   -1.6330 O   0  0  0  0  0  0
   57.2550  -28.0170    0.9510 C   0  0  0  0  0  0
   56.9040  -28.9940    2.0510 C   0  0  0  0  0  0
   57.8730  -29.4500    2.9430 C   0  0  0  0  0  0
   55.5920  -29.4520    2.2110 C   0  0  0  0  0  0
   57.5480  -30.3390    3.9720 C   0  0  0  0  0  0
   55.2540  -30.3370    3.2340 C   0  0  0  0  0  0
   56.2350  -30.7770    4.1130 C   0  0  0  0  0  0
   55.8990  -31.6340    5.1410 O   0  0  0  0  0  0
   55.3350  -26.7030   -1.7660 N   0  0  0  0  0  0
   55.1660  -25.5960   -2.6970 C   0  0  2  0  0  0
   54.0210  -24.7380   -2.1580 C   0  0  0  0  0  0
   53.4160  -25.0850   -1.1490 O   0  0  0  0  0  0
   54.7920  -26.1240   -4.1040 C   0  0  0  0  0  0
   54.8320  -24.9980   -5.1220 C   0  0  0  0  0  0
   55.7310  -27.2490   -4.4990 C   0  0  0  0  0  0
   53.7280  -23.6220   -2.8220 N   0  0  0  0  0  0
   52.6420  -22.7400   -2.3930 C   0  0  2  0  0  0
   51.5800  -22.6350   -3.4940 C   0  0  0  0  0  0
   51.8940  -22.7570   -4.6800 O   0  0  0  0  0  0
   53.1940  -21.3560   -2.0460 C   0  0  0  0  0  0
   50.3240  -22.4230   -3.0980 N   0  0  0  0  0  0
   49.2140  -22.3090   -4.0540 C   0  0  2  0  0  0
   48.5600  -20.9310   -4.0420 C   0  0  0  0  0  0
   48.6870  -20.2960   -5.3290 O   0  0  0  0  0  0
   48.1180  -23.3380   -3.7480 C   0  0  0  0  0  0
   48.3740  -24.6780   -4.3980 C   0  0  0  0  0  0
   47.9020  -25.6950   -3.8470 O   0  0  0  0  0  0
   49.0440  -24.7140   -5.4540 O   0  5  0  0  0  0
   59.5476  -30.7687   -2.7319 H   0  0  0  0  0  0
   57.8154  -30.6770   -3.1987 H   0  0  0  0  0  0
   58.3257  -31.7416   -1.8448 H   0  0  0  0  0  0
   56.4531  -30.4781   -0.7667 H   0  0  0  0  0  0
   55.4010  -28.4199   -0.2206 H   0  0  0  0  0  0
   58.3350  -28.1007    0.7597 H   0  0  0  0  0  0
   57.0244  -27.0048    1.3148 H   0  0  0  0  0  0
   58.9023  -29.1075    2.8365 H   0  0  0  0  0  0
   54.8190  -29.1104    1.5226 H   0  0  0  0  0  0
   58.3188  -30.6869    4.6597 H   0  0  0  0  0  0
   54.2257  -30.6815    3.3432 H   0  0  0  0  0  0
   56.6728  -31.9850    5.8396 H   0  0  0  0  0  0
   54.4560  -27.2567   -1.4045 H   0  0  0  0  0  0
   56.1186  -25.0477   -2.7415 H   0  0  0  0  0  0
   53.7675  -26.5246   -4.0995 H   0  0  0  0  0  0
   54.1437  -24.1982   -4.8113 H   0  0  0  0  0  0
   54.5267  -25.3826   -6.1063 H   0  0  0  0  0  0
   55.8545  -24.5976   -5.1858 H   0  0  0  0  0  0
   55.6819  -28.0491   -3.7457 H   0  0  0  0  0  0
   56.7597  -26.8641   -4.5585 H   0  0  0  0  0  0
   55.4319  -27.6491   -5.4790 H   0  0  0  0  0  0
   54.3234  -23.3687   -3.7116 H   0  0  0  0  0  0
   52.2047  -23.2008   -1.4950 H   0  0  0  0  0  0
   53.9532  -21.4516   -1.2557 H   0  0  0  0  0  0
   52.3749  -20.7128   -1.6918 H   0  0  0  0  0  0
   53.6508  -20.9085   -2.9410 H   0  0  0  0  0  0
   50.1317  -22.3333   -2.0187 H   0  0  0  0  0  0
   49.7012  -22.4879   -5.0239 H   0  0  0  0  0  0
   47.4919  -21.0342   -3.8003 H   0  0  0  0  0  0
   49.0480  -20.3001   -3.2845 H   0  0  0  0  0  0
   48.2672  -19.2922   -5.4909 H   0  0  0  0  0  0
   48.0583  -23.4979   -2.6613 H   0  0  0  0  0  0
   47.1513  -22.9649   -4.1173 H   0  0  0  0  0  0
  1  2  2  0  0  0
  1  3  1  0  0  0
  1  4  1  0  0  0
  3 36  1  0  0  0
  3 37  1  0  0  0
  3 38  1  0  0  0
  4  5  1  0  0  0
  4 39  1  0  0  0
  5  6  1  0  0  0
  5  8  1  0  0  0
  5 40  1  0  0  0
  6  7  2  0  0  0
  6 16  1  0  0  0
  8  9  1  0  0  0
  8 41  1  0  0  0
  8 42  1  0  0  0
  9 10  2  0  0  0
  9 11  1  0  0  0
 10 12  1  0  0  0
 10 43  1  0  0  0
 11 13  2  0  0  0
 11 44  1  0  0  0
 12 14  2  0  0  0
 12 45  1  0  0  0
 13 14  1  0  0  0
 13 46  1  0  0  0
 14 15  1  0  0  0
 15 47  1  0  0  0
 16 17  1  0  0  0
 16 48  1  0  0  0
 17 18  1  0  0  0
 17 20  1  0  0  0
 17 49  1  0  0  0
 18 19  2  0  0  0
 18 23  1  0  0  0
 20 21  1  0  0  0
 20 22  1  0  0  0
 20 50  1  0  0  0
 21 51  1  0  0  0
 21 52  1  0  0  0
 21 53  1  0  0  0
 22 54  1  0  0  0
 22 55  1  0  0  0
 22 56  1  0  0  0
 23 24  1  0  0  0
 23 57  1  0  0  0
 24 25  1  0  0  0
 24 27  1  0  0  0
 24 58  1  0  0  0
 25 26  2  0  0  0
 25 28  1  0  0  0
 27 59  1  0  0  0
 27 60  1  0  0  0
 27 61  1  0  0  0
 28 29  1  0  0  0
 28 62  1  0  0  0
 29 30  1  0  0  0
 29 32  1  0  0  0
 29 63  1  0  0  0
 30 31  1  0  0  0
 30 64  1  0  0  0
 30 65  1  0  0  0
 31 66  1  0  0  0
 32 33  1  0  0  0
 32 67  1  0  0  0
 32 68  1  0  0  0
 33 34  2  0  0  0
 33 35  1  0  0  0
M  CHG  1  35  -1
M  END
> <s_m_source_file>
../3ibc_ligand.sdf

> <i_m_source_file_index>
1

> <s_epik_input>
W2NIXTFbY0hdYyhbT0hdKVtjSF1bY0hdYzFbQ0gyXVtDQEhdKFtOSF1DKD1PKVtDSDNdKUMoPU8pW05IXVtDQEBIXShbQ0hdKFtDSDNdKVtDSDNdKUMoPU8pW05IXVtDQEBIXShbQ0gzXSlDKD1PKVtOSF1bQ0BIXShbQ0gyXVtPSF0pW0NIMl1DKD1PKVtPSF0=

> <s_epik_cmdline>
J2VwaWtfYXBwJywgJy1pbWFlJywgJ2xpZ2FuZF9wcm8ubWFlJywgJy1vbWFlJywgJ2xpZ2FuZF9wcmVwLm1hZScsICctbXMnLCAnMScsICctcGgnLCAnNycsICctcGh0JywgJzAuNScsICctbnQn

> <r_lp_tautomer_probability>
1

> <r_epik_Ionization_Penalty>
  0.0023

> <r_epik_Ionization_Penalty_Charging>
  0.0014

> <r_epik_Ionization_Penalty_Neutral>
  0.0009

> <r_epik_State_Penalty>
 -0.0000

> <r_epik_Charging_Adjusted_Penalty>
0.00138333863358647

> <i_epik_Tot_Q>
-1

> <i_epik_Tot_abs_Q>
1

$$$$
