3ibi_ligand
                    3D
 Schrodinger Suite 2020-3.
 32 31  0  0  1  0            999 V2000
   -4.6580    1.9510   14.4930 C   0  0  0  0  0  0
   -5.2710   -0.5540   16.0610 N   0  0  0  0  0  0
   -7.0460    1.1170   16.2820 O   0  0  0  0  0  0
   -5.7060    0.8470   16.6520 S   0  0  0  0  0  0
   -5.3980    3.1770   13.9770 C   0  0  0  0  0  0
   -5.3650    0.8830   18.0280 O   0  0  0  0  0  0
   -4.8030    4.4940   14.4150 C   0  0  0  0  0  0
   -4.7890    1.9390   15.9590 O   0  0  0  0  0  0
   -3.6880    4.9990   13.5300 C   0  0  0  0  0  0
   -2.8810    6.1030   14.1580 C   0  0  0  0  0  0
   -2.1790    6.9960   13.1630 C   0  0  0  0  0  0
   -1.0890    7.8710   13.7560 C   0  0  0  0  0  0
   -1.5530    8.8460   14.8090 C   0  0  0  0  0  0
   -5.1047    1.0439   14.0599 H   0  0  0  0  0  0
   -3.5989    2.0127   14.2024 H   0  0  0  0  0  0
   -5.8822   -1.3487   16.5138 H   0  0  0  0  0  0
   -4.2096   -0.7338   16.2873 H   0  0  0  0  0  0
   -5.3929    3.1723   12.8770 H   0  0  0  0  0  0
   -6.4366    3.1577   14.3389 H   0  0  0  0  0  0
   -5.5856    5.2670   14.4181 H   0  0  0  0  0  0
   -4.3868    4.3896   15.4279 H   0  0  0  0  0  0
   -2.9978    4.1732   13.3026 H   0  0  0  0  0  0
   -4.1119    5.3909   12.5937 H   0  0  0  0  0  0
   -3.5425    6.7447   14.7585 H   0  0  0  0  0  0
   -2.1057    5.6677   14.8056 H   0  0  0  0  0  0
   -1.7040    6.3779   12.3869 H   0  0  0  0  0  0
   -2.9110    7.6717   12.6965 H   0  0  0  0  0  0
   -0.3265    7.2358   14.2305 H   0  0  0  0  0  0
   -0.6238    8.4685   12.9581 H   0  0  0  0  0  0
   -0.6940    9.4289   15.1730 H   0  0  0  0  0  0
   -2.0030    8.2938   15.6472 H   0  0  0  0  0  0
   -2.3003    9.5264   14.3748 H   0  0  0  0  0  0
  1  5  1  0  0  0
  1  8  1  0  0  0
  1 14  1  0  0  0
  1 15  1  0  0  0
  2  4  1  0  0  0
  2 16  1  0  0  0
  2 17  1  0  0  0
  3  4  2  0  0  0
  4  6  2  0  0  0
  4  8  1  0  0  0
  5  7  1  0  0  0
  5 18  1  0  0  0
  5 19  1  0  0  0
  7  9  1  0  0  0
  7 20  1  0  0  0
  7 21  1  0  0  0
  9 10  1  0  0  0
  9 22  1  0  0  0
  9 23  1  0  0  0
 10 11  1  0  0  0
 10 24  1  0  0  0
 10 25  1  0  0  0
 11 12  1  0  0  0
 11 26  1  0  0  0
 11 27  1  0  0  0
 12 13  1  0  0  0
 12 28  1  0  0  0
 12 29  1  0  0  0
 13 30  1  0  0  0
 13 31  1  0  0  0
 13 32  1  0  0  0
M  END
> <s_m_source_file>
../3ibi_ligand.sdf

> <i_m_source_file_index>
1

> <s_epik_input>
W05IMl1TKD1PKSg9TylPW0NIMl1bQ0gyXVtDSDJdW0NIMl1bQ0gyXVtDSDJdW0NIMl1bQ0gzXQ==

> <s_epik_cmdline>
J2VwaWtfYXBwJywgJy1pbWFlJywgJ2xpZ2FuZF9wcm8ubWFlJywgJy1vbWFlJywgJ2xpZ2FuZF9wcmVwLm1hZScsICctbXMnLCAnMScsICctcGgnLCAnNycsICctcGh0JywgJzAuNScsICctbnQn

> <r_lp_tautomer_probability>
1

> <r_epik_Ionization_Penalty>
  0.0024

> <r_epik_Ionization_Penalty_Charging>
  0.0000

> <r_epik_Ionization_Penalty_Neutral>
  0.0024

> <r_epik_State_Penalty>
 -0.0000

> <r_epik_Charging_Adjusted_Penalty>
0

> <i_epik_Tot_Q>
0

> <i_epik_Tot_abs_Q>
0

$$$$
