3ibl_ligand
                    3D
 Schrodinger Suite 2020-3.
 38 37  0  0  1  0            999 V2000
   -4.7710    1.9230   14.5970 C   0  0  0  0  0  0
   -5.3700   -0.4660   16.2230 N   0  0  0  0  0  0
   -7.1920    1.1550   16.3950 O   0  0  0  0  0  0
   -5.8350    0.9300   16.7690 S   0  0  0  0  0  0
   -4.1010    3.1800   14.1260 C   0  0  0  0  0  0
   -0.9460   11.6960   11.9910 N   0  0  0  0  0  0
   -5.4500    1.0310   18.1450 O   0  0  0  0  0  0
   -1.6330   11.7780   13.4050 S   0  0  0  0  0  0
   -4.9880    4.3970   14.1490 C   0  0  0  0  0  0
   -5.0200    2.0690   16.0500 O   0  0  0  0  0  0
   -4.3700    5.6210   13.5210 C   0  0  0  0  0  0
   -1.9850   10.3210   13.9010 O   0  0  0  0  0  0
   -3.2310    6.2150   14.3050 C   0  0  0  0  0  0
   -0.6810   12.2730   14.3520 O   0  0  0  0  0  0
   -2.4360    7.2380   13.5510 C   0  0  0  0  0  0
   -2.9000   12.4200   13.2530 O   0  0  0  0  0  0
   -1.5010    8.0300   14.4230 C   0  0  0  0  0  0
   -0.9550    9.2670   13.7690 C   0  0  0  0  0  0
   -5.7193    1.7882   14.0561 H   0  0  0  0  0  0
   -4.1134    1.0626   14.4042 H   0  0  0  0  0  0
   -5.9383   -1.2635   16.7241 H   0  0  0  0  0  0
   -4.2966   -0.5991   16.4235 H   0  0  0  0  0  0
   -3.2364    3.3981   14.7701 H   0  0  0  0  0  0
   -3.7610    3.0476   13.0883 H   0  0  0  0  0  0
   -0.6999   12.7103   11.6436 H   0  0  0  0  0  0
   -1.6337   11.2203   11.2763 H   0  0  0  0  0  0
   -5.9164    4.1845   13.5987 H   0  0  0  0  0  0
   -5.2300    4.6547   15.1906 H   0  0  0  0  0  0
   -3.9751    5.3635   12.5272 H   0  0  0  0  0  0
   -5.1335    6.4064   13.4199 H   0  0  0  0  0  0
   -3.6243    6.7102   15.2051 H   0  0  0  0  0  0
   -2.5338    5.4171   14.6005 H   0  0  0  0  0  0
   -1.8272    6.7369   12.7840 H   0  0  0  0  0  0
   -3.1203    7.9510   13.0678 H   0  0  0  0  0  0
   -2.0308    8.3507   15.3321 H   0  0  0  0  0  0
   -0.6406    7.4038   14.7017 H   0  0  0  0  0  0
   -0.7517    9.0844   12.7035 H   0  0  0  0  0  0
   -0.0305    9.5932   14.2680 H   0  0  0  0  0  0
  1  5  1  0  0  0
  1 10  1  0  0  0
  1 19  1  0  0  0
  1 20  1  0  0  0
  2  4  1  0  0  0
  2 21  1  0  0  0
  2 22  1  0  0  0
  3  4  2  0  0  0
  4  7  2  0  0  0
  4 10  1  0  0  0
  5  9  1  0  0  0
  5 23  1  0  0  0
  5 24  1  0  0  0
  6  8  1  0  0  0
  6 25  1  0  0  0
  6 26  1  0  0  0
  8 12  1  0  0  0
  8 14  2  0  0  0
  8 16  2  0  0  0
  9 11  1  0  0  0
  9 27  1  0  0  0
  9 28  1  0  0  0
 11 13  1  0  0  0
 11 29  1  0  0  0
 11 30  1  0  0  0
 12 18  1  0  0  0
 13 15  1  0  0  0
 13 31  1  0  0  0
 13 32  1  0  0  0
 15 17  1  0  0  0
 15 33  1  0  0  0
 15 34  1  0  0  0
 17 18  1  0  0  0
 17 35  1  0  0  0
 17 36  1  0  0  0
 18 37  1  0  0  0
 18 38  1  0  0  0
M  END
> <s_m_source_file>
../3ibl_ligand.sdf

> <i_m_source_file_index>
1

> <s_epik_input>
W05IMl1TKD1PKSg9TylPW0NIMl1bQ0gyXVtDSDJdW0NIMl1bQ0gyXVtDSDJdW0NIMl1bQ0gyXU9TKD1PKSg9TylbTkgyXQ==

> <s_epik_cmdline>
J2VwaWtfYXBwJywgJy1pbWFlJywgJ2xpZ2FuZF9wcm8ubWFlJywgJy1vbWFlJywgJ2xpZ2FuZF9wcmVwLm1hZScsICctbXMnLCAnMScsICctcGgnLCAnNycsICctcGh0JywgJzAuNScsICctbnQn

> <r_lp_tautomer_probability>
1

> <r_epik_Ionization_Penalty>
  0.0048

> <r_epik_Ionization_Penalty_Charging>
  0.0000

> <r_epik_Ionization_Penalty_Neutral>
  0.0048

> <r_epik_State_Penalty>
 -0.0000

> <r_epik_Charging_Adjusted_Penalty>
0

> <i_epik_Tot_Q>
0

> <i_epik_Tot_abs_Q>
0

$$$$
