3ibn_ligand
                    3D
 Schrodinger Suite 2020-3.
 44 43  0  0  1  0            999 V2000
   -4.9460    1.8050   14.4600 C   0  0  0  0  0  0
   -5.3180   -0.5460   16.0850 N   0  0  0  0  0  0
   -7.1370    1.0470   16.4420 O   0  0  0  0  0  0
   -5.7620    0.8380   16.7080 S   0  0  0  0  0  0
   -4.3150    3.0270   13.9130 C   0  0  0  0  0  0
   -2.0740   12.5430   10.5550 N   0  0  0  0  0  0
   -5.2890    0.8990   18.0460 O   0  0  0  0  0  0
   -2.4700   13.1470   11.9690 S   0  0  0  0  0  0
   -5.1070    4.2790   14.1520 C   0  0  0  0  0  0
   -4.9990    1.9510   15.9130 O   0  0  0  0  0  0
   -4.4740    5.5070   13.5580 C   0  0  0  0  0  0
   -2.4550   11.9550   12.9930 O   0  0  0  0  0  0
   -3.1600    5.8790   14.1790 C   0  0  0  0  0  0
   -1.4450   14.0450   12.3870 O   0  0  0  0  0  0
   -2.5190    7.0420   13.5440 C   0  0  0  0  0  0
   -3.8210   13.5980   11.9070 O   0  0  0  0  0  0
   -1.2880    7.5110   14.2610 C   0  0  0  0  0  0
   -0.7140    8.7900   13.7140 C   0  0  0  0  0  0
   -1.6160    9.9720   13.8960 C   0  0  0  0  0  0
   -1.2730   11.1070   13.0280 C   0  0  0  0  0  0
   -5.9601    1.6997   14.0470 H   0  0  0  0  0  0
   -4.3444    0.9265   14.1836 H   0  0  0  0  0  0
   -5.8288   -1.3658   16.6114 H   0  0  0  0  0  0
   -4.2295   -0.6637   16.1917 H   0  0  0  0  0  0
   -3.3294    3.1711   14.3797 H   0  0  0  0  0  0
   -4.1935    2.9213   12.8249 H   0  0  0  0  0  0
   -2.0711   13.3446    9.8017 H   0  0  0  0  0  0
   -2.8047   11.7725   10.2678 H   0  0  0  0  0  0
   -6.1059    4.1721   13.7040 H   0  0  0  0  0  0
   -5.2068    4.4488   15.2342 H   0  0  0  0  0  0
   -4.2908    5.3430   12.4858 H   0  0  0  0  0  0
   -5.1484    6.3663   13.6875 H   0  0  0  0  0  0
   -3.3127    6.1257   15.2401 H   0  0  0  0  0  0
   -2.4625    5.0325   14.0961 H   0  0  0  0  0  0
   -2.2234    6.7823   12.5168 H   0  0  0  0  0  0
   -3.2272    7.8834   13.5200 H   0  0  0  0  0  0
   -1.5256    7.6877   15.3204 H   0  0  0  0  0  0
   -0.5040    6.7432   14.1842 H   0  0  0  0  0  0
    0.2332    9.0152   14.2259 H   0  0  0  0  0  0
   -0.5301    8.6776   12.6353 H   0  0  0  0  0  0
   -2.6518    9.6816   13.6661 H   0  0  0  0  0  0
   -1.5558   10.3223   14.9370 H   0  0  0  0  0  0
   -1.0331   10.7701   12.0087 H   0  0  0  0  0  0
   -0.4247   11.6770   13.4349 H   0  0  0  0  0  0
  1  5  1  0  0  0
  1 10  1  0  0  0
  1 21  1  0  0  0
  1 22  1  0  0  0
  2  4  1  0  0  0
  2 23  1  0  0  0
  2 24  1  0  0  0
  3  4  2  0  0  0
  4  7  2  0  0  0
  4 10  1  0  0  0
  5  9  1  0  0  0
  5 25  1  0  0  0
  5 26  1  0  0  0
  6  8  1  0  0  0
  6 27  1  0  0  0
  6 28  1  0  0  0
  8 12  1  0  0  0
  8 14  2  0  0  0
  8 16  2  0  0  0
  9 11  1  0  0  0
  9 29  1  0  0  0
  9 30  1  0  0  0
 11 13  1  0  0  0
 11 31  1  0  0  0
 11 32  1  0  0  0
 12 20  1  0  0  0
 13 15  1  0  0  0
 13 33  1  0  0  0
 13 34  1  0  0  0
 15 17  1  0  0  0
 15 35  1  0  0  0
 15 36  1  0  0  0
 17 18  1  0  0  0
 17 37  1  0  0  0
 17 38  1  0  0  0
 18 19  1  0  0  0
 18 39  1  0  0  0
 18 40  1  0  0  0
 19 20  1  0  0  0
 19 41  1  0  0  0
 19 42  1  0  0  0
 20 43  1  0  0  0
 20 44  1  0  0  0
M  END
> <s_m_source_file>
../3ibn_ligand.sdf

> <i_m_source_file_index>
1

> <s_epik_input>
W05IMl1TKD1PKSg9TylPW0NIMl1bQ0gyXVtDSDJdW0NIMl1bQ0gyXVtDSDJdW0NIMl1bQ0gyXVtDSDJdW0NIMl1PUyg9TykoPU8pW05IMl0=

> <s_epik_cmdline>
J2VwaWtfYXBwJywgJy1pbWFlJywgJ2xpZ2FuZF9wcm8ubWFlJywgJy1vbWFlJywgJ2xpZ2FuZF9wcmVwLm1hZScsICctbXMnLCAnMScsICctcGgnLCAnNycsICctcGh0JywgJzAuNScsICctbnQn

> <r_lp_tautomer_probability>
1

> <r_epik_Ionization_Penalty>
  0.0048

> <r_epik_Ionization_Penalty_Charging>
  0.0000

> <r_epik_Ionization_Penalty_Neutral>
  0.0048

> <r_epik_State_Penalty>
 -0.0000

> <r_epik_Charging_Adjusted_Penalty>
0

> <i_epik_Tot_Q>
0

> <i_epik_Tot_abs_Q>
0

$$$$
