3ie3_ligand
                    3D
 Schrodinger Suite 2020-3.
 35 36  0  0  1  0            999 V2000
    1.6910    5.4340   32.3440 O   0  0  0  0  0  0
    2.0640    4.2940   31.5600 C   0  0  0  0  0  0
    3.5340    3.9620   31.8000 C   0  0  0  0  0  0
    4.2550    3.6830   30.4850 C   0  0  0  0  0  0
    5.6860    3.2160   30.7300 C   0  0  0  0  0  0
    6.1090    2.1530   29.7210 C   0  0  0  0  0  0
    7.0730    2.7230   28.6840 C   0  0  0  0  0  0
    7.0010    1.7510   27.2140 S   0  0  0  0  0  0
    7.6530    2.6200   25.9120 C   0  0  0  0  0  0
    6.8460    3.6610   25.2130 C   0  0  0  0  0  0
    5.5910    4.1260   25.3930 N   0  0  0  0  0  0
    5.4430    5.1250   24.3820 O   0  0  0  0  0  0
    6.6040    5.2890   23.5670 N   0  0  0  0  0  0
    7.4780    4.3920   24.0700 C   0  0  0  0  0  0
    8.9520    2.3480   25.4850 C   0  0  0  0  0  0
    9.5360    3.0270   24.4090 C   0  0  0  0  0  0
    8.8720    4.0290   23.6960 C   0  0  0  0  0  0
    9.4990    4.6910   22.6320 N   0  3  0  0  0  0
    8.7810    5.5900   21.8500 O   0  0  0  0  0  0
   10.8430    4.4710   22.3510 O   0  5  0  0  0  0
    0.6619    5.8198   32.2987 H   0  0  0  0  0  0
    1.4442    3.4321   31.8482 H   0  0  0  0  0  0
    1.9101    4.5161   30.4937 H   0  0  0  0  0  0
    4.0252    4.8112   32.2975 H   0  0  0  0  0  0
    3.6088    3.0696   32.4388 H   0  0  0  0  0  0
    3.7189    2.8973   29.9324 H   0  0  0  0  0  0
    4.2840    4.6016   29.8806 H   0  0  0  0  0  0
    6.3713    4.0719   30.6412 H   0  0  0  0  0  0
    5.7639    2.7872   31.7400 H   0  0  0  0  0  0
    6.6101    1.3270   30.2470 H   0  0  0  0  0  0
    5.2204    1.7694   29.1983 H   0  0  0  0  0  0
    6.7898    3.7601   28.4512 H   0  0  0  0  0  0
    8.0969    2.7038   29.0856 H   0  0  0  0  0  0
    9.5302    1.5838   26.0045 H   0  0  0  0  0  0
   10.5518    2.7630   24.1148 H   0  0  0  0  0  0
  1  2  1  0  0  0
  1 21  1  0  0  0
  2  3  1  0  0  0
  2 22  1  0  0  0
  2 23  1  0  0  0
  3  4  1  0  0  0
  3 24  1  0  0  0
  3 25  1  0  0  0
  4  5  1  0  0  0
  4 26  1  0  0  0
  4 27  1  0  0  0
  5  6  1  0  0  0
  5 28  1  0  0  0
  5 29  1  0  0  0
  6  7  1  0  0  0
  6 30  1  0  0  0
  6 31  1  0  0  0
  7  8  1  0  0  0
  7 32  1  0  0  0
  7 33  1  0  0  0
  8  9  1  0  0  0
  9 10  1  0  0  0
  9 15  2  0  0  0
 10 11  2  0  0  0
 10 14  1  0  0  0
 11 12  1  0  0  0
 12 13  1  0  0  0
 13 14  2  0  0  0
 14 17  1  0  0  0
 15 16  1  0  0  0
 15 34  1  0  0  0
 16 17  2  0  0  0
 16 35  1  0  0  0
 17 18  1  0  0  0
 18 19  2  0  0  0
 18 20  1  0  0  0
M  CHG  2  18   1  20  -1
M  END
> <s_m_source_file>
../3ie3_ligand.sdf

> <i_m_source_file_index>
1

> <s_epik_input>
W09IXVtDSDJdW0NIMl1bQ0gyXVtDSDJdW0NIMl1bQ0gyXVNjMVtjSF1bY0hdYyhbTitdKD1PKVtPLV0pYyhjMTIpbm9uMg==

> <s_epik_cmdline>
J2VwaWtfYXBwJywgJy1pbWFlJywgJ2xpZ2FuZF9wcm8ubWFlJywgJy1vbWFlJywgJ2xpZ2FuZF9wcmVwLm1hZScsICctbXMnLCAnMScsICctcGgnLCAnNycsICctcGh0JywgJzAuNScsICctbnQn

> <r_lp_tautomer_probability>
1

> <r_epik_Ionization_Penalty>
  0.0000

> <r_epik_Ionization_Penalty_Charging>
  0.0000

> <r_epik_Ionization_Penalty_Neutral>
  0.0000

> <r_epik_State_Penalty>
 -0.0000

> <r_epik_Charging_Adjusted_Penalty>
0

> <i_epik_Tot_Q>
0

> <i_epik_Tot_abs_Q>
2

$$$$
