3iej_ligand
                    3D
 Schrodinger Suite 2020-3.
 69 73  0  0  1  0            999 V2000
   -5.1660  -22.1770    8.8400 C   0  0  0  0  0  0
   -4.9770  -21.3910    7.6340 N   0  3  0  0  0  0
   -6.1370  -20.6820    7.0940 C   0  0  0  0  0  0
   -6.5570  -19.7320    8.2340 C   0  0  0  0  0  0
   -6.6950  -20.4170    9.4980 O   0  0  0  0  0  0
   -5.5600  -21.1750    9.9310 C   0  0  0  0  0  0
   -3.6530  -21.2560    7.0430 C   0  0  0  0  0  0
   -3.5080  -22.2970    5.9520 C   0  0  0  0  0  0
   -2.1600  -22.1560    5.2430 C   0  0  0  0  0  0
   -1.3020  -23.2720    5.6430 N   0  0  0  0  0  0
   -0.4110  -22.9710    6.6630 N   0  0  0  0  0  0
    0.2870  -24.0990    6.9070 C   0  0  0  0  0  0
   -0.1870  -25.1060    6.0780 C   0  0  0  0  0  0
   -1.1890  -24.5610    5.2870 C   0  0  0  0  0  0
   -1.9300  -25.3460    4.2330 C   0  0  0  0  0  0
   -1.5950  -26.8350    4.3500 C   0  0  0  0  0  0
   -0.1430  -26.9390    4.5710 N   0  0  0  0  0  0
    0.2610  -26.5510    5.9380 C   0  0  0  0  0  0
    1.3300  -24.1640    7.9480 C   0  0  0  0  0  0
    2.2520  -23.1200    8.0180 C   0  0  0  0  0  0
    3.2290  -23.1230    8.9990 C   0  0  0  0  0  0
    3.2630  -24.1680    9.9250 C   0  0  0  0  0  0
    2.3400  -25.2100    9.8640 C   0  0  0  0  0  0
    1.3550  -25.2110    8.8720 C   0  0  0  0  0  0
    2.3660  -26.1530   10.7410 C   0  0  0  0  0  0
    2.4790  -26.8770   11.6820 C   0  0  0  0  0  0
    2.4340  -27.6420   12.7210 C   0  0  0  0  0  0
    1.6180  -28.7780   12.7190 C   0  0  0  0  0  0
    1.5870  -29.6230   13.8320 C   0  0  0  0  0  0
    2.3820  -29.3360   14.9450 C   0  0  0  0  0  0
    3.2090  -28.2040   14.9350 C   0  0  0  0  0  0
    3.2260  -27.3550   13.8250 C   0  0  0  0  0  0
    0.7440  -27.3020    3.6440 C   0  0  0  0  0  0
    0.3280  -27.4090    2.1890 C   0  0  0  0  0  0
    1.5010  -27.4360    1.3560 O   0  0  0  0  0  0
    1.8950  -27.5290    3.9310 O   0  0  0  0  0  0
    4.5270  -24.1460   11.1880 Cl  0  0  0  0  0  0
    2.3300  -30.4130   16.3840 Cl  0  0  0  0  0  0
   -5.9604  -22.9194    8.6731 H   0  0  0  0  0  0
   -4.2281  -22.6939    9.0916 H   0  0  0  0  0  0
   -4.6965  -22.0417    6.7926 H   0  0  0  0  0  0
   -5.8425  -20.1353    6.1860 H   0  0  0  0  0  0
   -6.9267  -21.4064    6.8459 H   0  0  0  0  0  0
   -5.7973  -18.9457    8.3547 H   0  0  0  0  0  0
   -7.5256  -19.2715    7.9895 H   0  0  0  0  0  0
   -5.8129  -21.7181   10.8536 H   0  0  0  0  0  0
   -4.7179  -20.4945   10.1253 H   0  0  0  0  0  0
   -3.5423  -20.2475    6.6180 H   0  0  0  0  0  0
   -2.8879  -21.4135    7.8175 H   0  0  0  0  0  0
   -3.5731  -23.3024    6.3935 H   0  0  0  0  0  0
   -4.3126  -22.1683    5.2131 H   0  0  0  0  0  0
   -2.3147  -22.1747    4.1541 H   0  0  0  0  0  0
   -1.6924  -21.2028    5.5306 H   0  0  0  0  0  0
   -3.0131  -25.2089    4.3676 H   0  0  0  0  0  0
   -1.6363  -24.9882    3.2351 H   0  0  0  0  0  0
   -2.1472  -27.2696    5.1963 H   0  0  0  0  0  0
   -1.8827  -27.3497    3.4214 H   0  0  0  0  0  0
    1.3508  -26.6118    6.0743 H   0  0  0  0  0  0
   -0.2388  -27.1655    6.7013 H   0  0  0  0  0  0
    2.2034  -22.3013    7.3001 H   0  0  0  0  0  0
    3.9633  -22.3189    9.0481 H   0  0  0  0  0  0
    0.6199  -26.0142    8.8206 H   0  0  0  0  0  0
    1.0046  -29.0050   11.8471 H   0  0  0  0  0  0
    0.9445  -30.5035   13.8319 H   0  0  0  0  0  0
    3.8408  -27.9853   15.7958 H   0  0  0  0  0  0
    3.8602  -26.4685   13.8258 H   0  0  0  0  0  0
   -0.2493  -28.3334    2.0397 H   0  0  0  0  0  0
   -0.2928  -26.5416    1.9204 H   0  0  0  0  0  0
    1.3981  -27.5113    0.2634 H   0  0  0  0  0  0
  1  2  1  0  0  0
  1  6  1  0  0  0
  1 39  1  0  0  0
  1 40  1  0  0  0
  2  3  1  0  0  0
  2  7  1  0  0  0
  2 41  1  0  0  0
  3  4  1  0  0  0
  3 42  1  0  0  0
  3 43  1  0  0  0
  4  5  1  0  0  0
  4 44  1  0  0  0
  4 45  1  0  0  0
  5  6  1  0  0  0
  6 46  1  0  0  0
  6 47  1  0  0  0
  7  8  1  0  0  0
  7 48  1  0  0  0
  7 49  1  0  0  0
  8  9  1  0  0  0
  8 50  1  0  0  0
  8 51  1  0  0  0
  9 10  1  0  0  0
  9 52  1  0  0  0
  9 53  1  0  0  0
 10 11  1  0  0  0
 10 14  1  0  0  0
 11 12  2  0  0  0
 12 13  1  0  0  0
 12 19  1  0  0  0
 13 14  2  0  0  0
 13 18  1  0  0  0
 14 15  1  0  0  0
 15 16  1  0  0  0
 15 54  1  0  0  0
 15 55  1  0  0  0
 16 17  1  0  0  0
 16 56  1  0  0  0
 16 57  1  0  0  0
 17 18  1  0  0  0
 17 33  1  0  0  0
 18 58  1  0  0  0
 18 59  1  0  0  0
 19 20  2  0  0  0
 19 24  1  0  0  0
 20 21  1  0  0  0
 20 60  1  0  0  0
 21 22  2  0  0  0
 21 61  1  0  0  0
 22 23  1  0  0  0
 22 37  1  0  0  0
 23 24  2  0  0  0
 23 25  1  0  0  0
 24 62  1  0  0  0
 25 26  3  0  0  0
 26 27  1  0  0  0
 27 28  2  0  0  0
 27 32  1  0  0  0
 28 29  1  0  0  0
 28 63  1  0  0  0
 29 30  2  0  0  0
 29 64  1  0  0  0
 30 31  1  0  0  0
 30 38  1  0  0  0
 31 32  2  0  0  0
 31 65  1  0  0  0
 32 66  1  0  0  0
 33 34  1  0  0  0
 33 36  2  0  0  0
 34 35  1  0  0  0
 34 67  1  0  0  0
 34 68  1  0  0  0
 35 69  1  0  0  0
M  CHG  1   2   1
M  END
> <s_m_source_file>
../3iej_ligand.sdf

> <i_m_source_file_index>
1

> <s_epik_input>
W0NIMl0xW0NIMl1PW0NIMl1bQ0gyXVtOSCtdMVtDSDJdW0NIMl1bQ0gyXW4oYyhjMjMpW0NIMl1bQ0gyXU4oW0NIMl0zKUMoPU8pW0NIMl1bT0hdKW5jMi1jNFtjSF1bY0hdYyhDbCljKFtjSF00KUMjQ2M1W2NIXVtjSF1jKENsKVtjSF1bY0hdNQ==

> <s_epik_cmdline>
J2VwaWtfYXBwJywgJy1pbWFlJywgJ2xpZ2FuZF9wcm8ubWFlJywgJy1vbWFlJywgJ2xpZ2FuZF9wcmVwLm1hZScsICctbXMnLCAnMScsICctcGgnLCAnNycsICctcGh0JywgJzAuNScsICctbnQn

> <r_lp_tautomer_probability>
1

> <r_epik_Ionization_Penalty>
  0.3997

> <r_epik_Ionization_Penalty_Charging>
  0.3983

> <r_epik_Ionization_Penalty_Neutral>
  0.0014

> <r_epik_State_Penalty>
  0.3975

> <r_epik_Charging_Adjusted_Penalty>
0.795854327780166

> <i_epik_Tot_Q>
1

> <i_epik_Tot_abs_Q>
1

$$$$
