3ieo_ligand
                    3D
 Schrodinger Suite 2020-3.
 36 36  0  0  1  0            999 V2000
   -5.7070    8.1990   12.0880 C   0  0  0  0  0  0
   -5.1340    6.0750   13.1670 N   0  0  0  0  0  0
   -6.2950    9.1100   12.6680 O   0  0  0  0  0  0
   -4.6100    7.3960   12.7910 C   0  0  1  0  0  0
   -3.4180    7.2240   11.8470 C   0  0  0  0  0  0
   -3.6230    4.9190   11.4990 C   0  0  0  0  0  0
   -7.0550    7.2340   14.0610 C   0  0  0  0  0  0
   -6.7780    4.8430   14.1110 O   0  0  0  0  0  0
   -5.0600   10.9920    7.0690 C   0  0  0  0  0  0
   -6.0070   11.5360    7.9290 C   0  0  0  0  0  0
   -4.7320    9.6450    7.1590 C   0  0  0  0  0  0
   -6.6250   10.7320    8.8790 C   0  0  0  0  0  0
   -5.3500    8.8410    8.1090 C   0  0  0  0  0  0
   -6.9780    8.4990   10.0150 C   0  0  0  0  0  0
   -5.9550    7.8320   10.8340 N   0  0  0  0  0  0
   -2.8090    5.9440   12.0740 O   0  0  0  0  0  0
   -6.3050    5.9300   13.7810 C   0  0  0  0  0  0
   -6.2970    9.3840    8.9690 C   0  0  0  0  0  0
   -4.5533    5.1684   12.9414 H   0  0  0  0  0  0
   -4.2972    7.8991   13.7178 H   0  0  0  0  0  0
   -3.7639    7.2859   10.8046 H   0  0  0  0  0  0
   -2.6821    8.0192   12.0370 H   0  0  0  0  0  0
   -3.1556    3.9386   11.6734 H   0  0  0  0  0  0
   -3.7201    5.0917   10.4170 H   0  0  0  0  0  0
   -4.6196    4.9381   11.9642 H   0  0  0  0  0  0
   -6.4639    8.0840   13.6894 H   0  0  0  0  0  0
   -7.2112    7.3417   15.1445 H   0  0  0  0  0  0
   -8.0291    7.2136   13.5503 H   0  0  0  0  0  0
   -4.5747   11.6224    6.3239 H   0  0  0  0  0  0
   -6.2647   12.5927    7.8582 H   0  0  0  0  0  0
   -3.9897    9.2187    6.4842 H   0  0  0  0  0  0
   -7.3672   11.1583    9.5539 H   0  0  0  0  0  0
   -5.0920    7.7843    8.1797 H   0  0  0  0  0  0
   -7.5940    7.7411    9.5089 H   0  0  0  0  0  0
   -7.6170    9.1196   10.6603 H   0  0  0  0  0  0
   -5.3679    7.0027   10.4127 H   0  0  0  0  0  0
  1  3  2  0  0  0
  1  4  1  0  0  0
  1 15  1  0  0  0
  2  4  1  0  0  0
  2 17  1  0  0  0
  2 19  1  0  0  0
  4  5  1  0  0  0
  4 20  1  0  0  0
  5 16  1  0  0  0
  5 21  1  0  0  0
  5 22  1  0  0  0
  6 16  1  0  0  0
  6 23  1  0  0  0
  6 24  1  0  0  0
  6 25  1  0  0  0
  7 17  1  0  0  0
  7 26  1  0  0  0
  7 27  1  0  0  0
  7 28  1  0  0  0
  8 17  2  0  0  0
  9 10  2  0  0  0
  9 11  1  0  0  0
  9 29  1  0  0  0
 10 12  1  0  0  0
 10 30  1  0  0  0
 11 13  2  0  0  0
 11 31  1  0  0  0
 12 18  2  0  0  0
 12 32  1  0  0  0
 13 18  1  0  0  0
 13 33  1  0  0  0
 14 15  1  0  0  0
 14 18  1  0  0  0
 14 34  1  0  0  0
 14 35  1  0  0  0
 15 36  1  0  0  0
M  END
> <s_m_source_file>
../3ieo_ligand.sdf

> <i_m_source_file_index>
1

> <s_epik_input>
W0NIM11PW0NIMl1bQ0BIXShbTkhdQyg9TylbQ0gzXSlDKD1PKVtOSF1bQ0gyXWMxW2NIXVtjSF1bY0hdW2NIXVtjSF0x

> <s_epik_cmdline>
J2VwaWtfYXBwJywgJy1pbWFlJywgJ2xpZ2FuZF9wcm8ubWFlJywgJy1vbWFlJywgJ2xpZ2FuZF9wcmVwLm1hZScsICctbXMnLCAnMScsICctcGgnLCAnNycsICctcGh0JywgJzAuNScsICctbnQn

> <r_lp_tautomer_probability>
1

> <r_epik_Ionization_Penalty>
  0.0000

> <r_epik_Ionization_Penalty_Charging>
  0.0000

> <r_epik_Ionization_Penalty_Neutral>
  0.0000

> <r_epik_State_Penalty>
 -0.0000

> <r_epik_Charging_Adjusted_Penalty>
0

> <i_epik_Tot_Q>
0

> <i_epik_Tot_abs_Q>
0

$$$$
