3ies_ligand
                    3D
 Schrodinger Suite 2020-3.
 63 68  0  0  1  0            999 V2000
  -29.9490   11.6760   -8.2560 P   0  0  1  0  0  0
  -30.5710    6.5980  -16.9790 N   0  0  0  0  0  0
  -30.8850    7.8810  -17.2360 C   0  0  0  0  0  0
  -30.9680    8.8080  -16.2720 N   0  0  0  0  0  0
  -30.7600    8.4780  -14.9700 C   0  0  0  0  0  0
  -30.4320    7.1890  -14.6300 C   0  0  0  0  0  0
  -30.3230    6.1970  -15.7140 C   0  0  0  0  0  0
  -30.0150    4.8960  -15.4330 N   0  0  0  0  0  0
  -30.2800    7.1350  -13.2780 N   0  0  0  0  0  0
  -30.4860    8.3880  -12.8200 C   0  0  0  0  0  0
  -30.7910    9.1840  -13.8450 N   0  0  0  0  0  0
  -31.0760   10.6270  -13.7640 C   0  0  1  0  0  0
  -28.5000   12.1110   -8.0910 O   0  5  0  0  0  0
  -32.5700   10.9110  -13.8360 C   0  0  2  0  0  0
  -32.7170   12.1550  -14.5040 O   0  0  0  0  0  0
  -29.3110    9.0710   -8.7260 C   0  0  0  0  0  0
  -28.7160    9.3800   -9.7440 O   0  0  0  0  0  0
  -29.3490    7.6750   -8.1350 C   0  0  0  0  0  0
  -29.8300    7.5370   -6.8320 C   0  0  0  0  0  0
  -29.9080    6.2970   -6.2210 C   0  0  0  0  0  0
  -29.4780    5.1740   -6.8950 C   0  0  0  0  0  0
  -30.0290   10.0780   -8.0060 O   0  0  0  0  0  0
  -32.9830   11.1000  -12.3980 C   0  0  2  0  0  0
  -34.1040   11.9960  -12.3110 O   0  0  0  0  0  0
  -29.0160    5.3030   -8.1840 C   0  0  0  0  0  0
  -28.9310    6.5500   -8.8140 C   0  0  0  0  0  0
  -28.5770    4.0720   -8.8740 C   0  0  0  0  0  0
  -28.1660    4.0820  -10.1370 N   0  0  0  0  0  0
  -27.8380    2.8190  -10.4220 O   0  0  0  0  0  0
  -28.0300    2.0150   -9.3780 C   0  0  0  0  0  0
  -28.4910    2.7990   -8.3740 N   0  0  0  0  0  0
  -27.8070    0.5730   -9.4060 C   0  0  0  0  0  0
  -27.2860   -0.0490  -10.5170 C   0  0  0  0  0  0
  -27.1230   -1.4290  -10.4870 C   0  0  0  0  0  0
  -31.0030   12.1060   -7.2900 O   0  0  0  0  0  0
  -31.7240   11.6650  -11.7510 C   0  0  2  0  0  0
  -30.6180   11.1190  -12.5050 O   0  0  0  0  0  0
  -27.5140   -2.1450   -9.3600 C   0  0  0  0  0  0
  -28.0770   -1.4940   -8.2690 C   0  0  0  0  0  0
  -28.2190   -0.1240   -8.3000 C   0  0  0  0  0  0
  -28.7410    0.5880   -7.2920 F   0  0  0  0  0  0
  -31.6050   11.2750  -10.2860 C   0  0  0  0  0  0
  -30.3700   11.8180   -9.8030 O   0  0  0  0  0  0
  -31.0791    8.1773  -18.2669 H   0  0  0  0  0  0
  -29.9354    4.1613  -16.2478 H   0  0  0  0  0  0
  -29.8466    4.5832  -14.3920 H   0  0  0  0  0  0
  -30.4144    8.6994  -11.7779 H   0  0  0  0  0  0
  -30.5231   11.1181  -14.5783 H   0  0  0  0  0  0
  -33.1732   10.1690  -14.3797 H   0  0  0  0  0  0
  -32.4673   12.2387  -15.5720 H   0  0  0  0  0  0
  -30.1507    8.4233   -6.2845 H   0  0  0  0  0  0
  -30.3079    6.2091   -5.2108 H   0  0  0  0  0  0
  -29.5038    4.1968   -6.4128 H   0  0  0  0  0  0
  -33.3728   10.2000  -11.8999 H   0  0  0  0  0  0
  -35.0743   11.7063  -12.7406 H   0  0  0  0  0  0
  -28.5395    6.6307   -9.8281 H   0  0  0  0  0  0
  -27.0077    0.5267  -11.3997 H   0  0  0  0  0  0
  -26.6908   -1.9479  -11.3426 H   0  0  0  0  0  0
  -31.6991   12.7637  -11.7978 H   0  0  0  0  0  0
  -27.3775   -3.2261   -9.3326 H   0  0  0  0  0  0
  -28.4030   -2.0616   -7.3974 H   0  0  0  0  0  0
  -32.4559   11.6899   -9.7258 H   0  0  0  0  0  0
  -31.6071   10.1786  -10.1971 H   0  0  0  0  0  0
  1 13  1  0  0  0
  1 22  1  0  0  0
  1 35  2  0  0  0
  1 43  1  0  0  0
  2  3  1  0  0  0
  2  7  2  0  0  0
  3  4  2  0  0  0
  3 44  1  0  0  0
  4  5  1  0  0  0
  5  6  2  0  0  0
  5 11  1  0  0  0
  6  7  1  0  0  0
  6  9  1  0  0  0
  7  8  1  0  0  0
  8 45  1  0  0  0
  8 46  1  0  0  0
  9 10  2  0  0  0
 10 11  1  0  0  0
 10 47  1  0  0  0
 11 12  1  0  0  0
 12 14  1  0  0  0
 12 37  1  0  0  0
 12 48  1  0  0  0
 14 15  1  0  0  0
 14 23  1  0  0  0
 14 49  1  0  0  0
 15 50  1  0  0  0
 16 17  2  0  0  0
 16 18  1  0  0  0
 16 22  1  0  0  0
 18 19  2  0  0  0
 18 26  1  0  0  0
 19 20  1  0  0  0
 19 51  1  0  0  0
 20 21  2  0  0  0
 20 52  1  0  0  0
 21 25  1  0  0  0
 21 53  1  0  0  0
 23 24  1  0  0  0
 23 36  1  0  0  0
 23 54  1  0  0  0
 24 55  1  0  0  0
 25 26  2  0  0  0
 25 27  1  0  0  0
 26 56  1  0  0  0
 27 28  2  0  0  0
 27 31  1  0  0  0
 28 29  1  0  0  0
 29 30  1  0  0  0
 30 31  2  0  0  0
 30 32  1  0  0  0
 32 33  2  0  0  0
 32 40  1  0  0  0
 33 34  1  0  0  0
 33 57  1  0  0  0
 34 38  2  0  0  0
 34 58  1  0  0  0
 36 37  1  0  0  0
 36 42  1  0  0  0
 36 59  1  0  0  0
 38 39  1  0  0  0
 38 60  1  0  0  0
 39 40  2  0  0  0
 39 61  1  0  0  0
 40 41  1  0  0  0
 42 43  1  0  0  0
 42 62  1  0  0  0
 42 63  1  0  0  0
M  CHG  1  13  -1
M  END
> <s_m_source_file>
../3ies_ligand.sdf

> <i_m_source_file_index>
1

> <s_epik_input>
bjFbY0hdbmMoW05IMl0pYyhjMTIpbltjSF1uMltDQEhdM1tDQEhdKFtPSF0pW0NASF0oW09IXSlbQ0BIXShPMylbQ0gyXU9bUEBdKD1PKShbT0hdKU9DKD1PKWM0W2NIXVtjSF1bY0hdYyhbY0hdNCktYzVub2MobjUpLWM2W2NIXVtjSF1bY0hdW2NIXWM2Rg==

> <s_epik_cmdline>
J2VwaWtfYXBwJywgJy1pbWFlJywgJ2xpZ2FuZF9wcm8ubWFlJywgJy1vbWFlJywgJ2xpZ2FuZF9wcmVwLm1hZScsICctbXMnLCAnMScsICctcGgnLCAnNycsICctcGh0JywgJzAuNScsICctbnQn

> <r_lp_tautomer_probability>
1

> <r_epik_Ionization_Penalty>
  0.0007

> <r_epik_Ionization_Penalty_Charging>
  0.0001

> <r_epik_Ionization_Penalty_Neutral>
  0.0006

> <r_epik_State_Penalty>
 -0.0000

> <r_epik_Charging_Adjusted_Penalty>
7.10918271263047e-05

> <i_epik_Tot_Q>
-1

> <i_epik_Tot_abs_Q>
1

> <s_epik_Chemistry_Notes>
This compound contains an acetal/aminal-like group ( X-CH(R)-Y where X, Y are N, S, or O) that may be acid/base labile, releasing an aldehyde.

$$$$
