3iet_ligand
                    3D
 Schrodinger Suite 2020-3.
172174  0  0  1  0            999 V2000
    0.1840    1.0960    6.1160 N   0  3  0  0  0  0
   -0.0430    1.7270    7.4060 C   0  0  0  0  0  0
   -1.1890    1.1150    8.1950 C   0  0  0  0  0  0
   -2.0710    0.4750    7.6250 O   0  0  0  0  0  0
   -3.3680    1.6710   10.4870 C   0  0  0  0  0  0
   -1.1750    1.3310    9.5080 N   0  0  0  0  0  0
   -3.3070    2.8230   10.0530 O   0  0  0  0  0  0
   -1.8870    2.6690   13.1720 C   0  0  2  0  0  0
   -1.2450    3.9970   13.4910 C   0  0  2  0  0  0
   -0.9480    4.6960   12.2490 N   0  0  0  0  0  0
    0.0840    3.7710   14.2130 C   0  0  1  0  0  0
    0.7440    5.0040   14.4530 O   0  0  0  0  0  0
   -0.1960    3.0380   15.5040 C   0  0  1  0  0  0
   -1.0530    3.8650   16.3100 O   0  0  0  0  0  0
   -0.9090    1.7360   15.1570 C   0  0  2  0  0  0
   -2.1320    1.9460   14.4070 O   0  0  0  0  0  0
   -1.2270    0.9440   16.4250 C   0  0  0  0  0  0
   -0.0050    0.6630   17.1070 O   0  0  0  0  0  0
   -1.4870    5.8960   12.0770 C   0  0  0  0  0  0
   -2.1890    6.4490   12.9240 O   0  0  0  0  0  0
   -1.1620    6.5640   10.7430 C   0  0  0  0  0  0
   -2.1600    0.7490   10.4350 C   0  0  1  0  0  0
   -1.4490    0.6300   11.8010 C   0  0  2  0  0  0
   -0.9840    1.8860   12.3760 O   0  0  0  0  0  0
   -0.2150   -0.2740   11.7130 C   0  0  0  0  0  0
   -4.4680    1.1530   11.0150 N   0  0  0  0  0  0
   -5.6780    1.9500   11.1610 C   0  0  2  0  0  0
   -5.4030    3.1700   12.0370 C   0  0  0  0  0  0
   -4.9340    3.0330   13.1640 O   0  0  0  0  0  0
   -6.8080    1.1000   11.7520 C   0  0  0  0  0  0
   -8.1040    1.8590   11.9980 C   0  0  0  0  0  0
   -9.1700    0.9570   12.6220 C   0  0  0  0  0  0
  -10.2620    0.5840   11.6040 C   0  0  0  0  0  0
   -9.8200   -0.4430   10.5930 N   0  3  0  0  0  0
   -5.6810    4.3740   11.5090 N   0  0  0  0  0  0
   -5.4780    5.6380   12.2250 C   0  0  2  0  0  0
   -6.6940    5.9510   13.0970 C   0  0  0  0  0  0
   -7.7200    5.2970   12.9490 O   0  0  0  0  0  0
   -5.3840    6.6730   11.0930 C   0  0  0  0  0  0
   -5.6490    5.9180    9.7990 C   0  0  0  0  0  0
   -6.2370    4.5970   10.1680 C   0  0  0  0  0  0
   -6.5900    6.9400   13.9940 N   0  0  0  0  0  0
   -7.7750    7.2880   14.7920 C   0  0  2  0  0  0
   -8.8260    7.9500   13.9170 C   0  0  0  0  0  0
   -8.5080    8.4340   12.8250 O   0  0  0  0  0  0
   -7.2320    8.2810   15.8280 C   0  0  0  0  0  0
   -5.7420    8.0610   15.8370 C   0  0  0  0  0  0
   -5.4010    7.6890   14.4170 C   0  0  0  0  0  0
  -10.0670    7.9730   14.3950 N   0  0  0  0  0  0
  -11.1960    8.4180   13.5700 C   0  0  2  0  0  0
  -11.0640    9.8360   13.0020 C   0  0  0  0  0  0
  -11.6690   10.1640   11.9740 O   0  0  0  0  0  0
  -12.5410    8.2370   14.2940 C   0  0  0  0  0  0
  -12.7680    8.9660   15.6200 C   0  0  0  0  0  0
  -12.9060   10.4630   15.4090 C   0  0  0  0  0  0
  -13.9960    8.4160   16.3260 C   0  0  0  0  0  0
  -10.2730   10.6710   13.6610 N   0  0  0  0  0  0
  -10.0770   12.0310   13.1750 C   0  0  2  0  0  0
   -9.0520   12.1060   12.0280 C   0  0  0  0  0  0
   -8.8100   13.1810   11.4710 O   0  0  0  0  0  0
   -9.7520   13.0070   14.3200 C   0  0  0  0  0  0
   -8.8050   12.4880   15.3970 C   0  0  0  0  0  0
   -9.5260   11.7840   16.5490 C   0  0  0  0  0  0
  -10.1980   12.4440   17.3750 O   0  0  0  0  0  0
   -9.4040   10.5510   16.6350 O   0  0  0  0  0  0
   -8.4770   10.9570   11.6710 N   0  0  0  0  0  0
   -7.5480   10.8560   10.5400 C   0  0  2  0  0  0
   -8.0710    9.9100    9.4580 C   0  0  0  0  0  0
   -7.3940    9.6670    8.4570 O   0  0  0  0  0  0
   -6.1670   10.3710   10.9970 C   0  0  0  0  0  0
   -5.5470   11.1840   12.1190 C   0  0  0  0  0  0
   -4.8330   12.4360   11.6250 C   0  0  0  0  0  0
   -4.6890   13.3910   12.4170 O   0  0  0  0  0  0
   -4.4200   12.4710   10.4450 O   0  0  0  0  0  0
   -9.2630    9.3600    9.6700 N   0  0  0  0  0  0
   -9.9010    8.5120    8.6670 C   0  0  2  0  0  0
  -10.2520    9.3320    7.4270 C   0  0  0  0  0  0
   -9.5180    9.3390    6.4350 O   0  0  0  0  0  0
  -11.1640    7.8600    9.2380 C   0  0  0  0  0  0
  -11.0140    6.5110    9.9460 C   0  0  0  0  0  0
   -9.5990    6.3010   10.4730 C   0  0  0  0  0  0
  -12.0420    6.3840   11.0580 C   0  0  0  0  0  0
  -11.3112   10.0143    7.4168 O   0  0  0  0  0  0
    1.0244    1.5918    5.6082 H   0  0  0  0  0  0
   -0.7222    1.1865    5.4990 H   0  0  0  0  0  0
    0.4215    0.0323    6.2649 H   0  0  0  0  0  0
    0.8632    1.6365    8.0230 H   0  0  0  0  0  0
   -0.2805    2.7907    7.2572 H   0  0  0  0  0  0
   -0.3755    1.9815    9.8923 H   0  0  0  0  0  0
   -2.8307    2.7982   12.6218 H   0  0  0  0  0  0
   -1.9432    4.6037   14.0863 H   0  0  0  0  0  0
   -0.2982    4.2268   11.4956 H   0  0  0  0  0  0
    0.8074    3.2176   13.5963 H   0  0  0  0  0  0
    1.0166    5.6553   13.6095 H   0  0  0  0  0  0
    0.7156    2.8557   16.0920 H   0  0  0  0  0  0
   -0.7017    4.8484   16.6558 H   0  0  0  0  0  0
   -0.2571    1.1692   14.4760 H   0  0  0  0  0  0
   -1.8883    1.5386   17.0725 H   0  0  0  0  0  0
   -1.7285    0.0033   16.1537 H   0  0  0  0  0  0
   -0.0191    0.0971   18.0501 H   0  0  0  0  0  0
   -0.5253    5.8963   10.1441 H   0  0  0  0  0  0
   -0.6312    7.5098   10.9263 H   0  0  0  0  0  0
   -2.0954    6.7671   10.1976 H   0  0  0  0  0  0
   -2.5067   -0.2349   10.0862 H   0  0  0  0  0  0
   -2.2232    0.2609   12.4898 H   0  0  0  0  0  0
   -0.5019   -1.2452   11.2835 H   0  0  0  0  0  0
    0.2002   -0.4267   12.7201 H   0  0  0  0  0  0
    0.5425    0.2010   11.0722 H   0  0  0  0  0  0
   -4.4573    0.1038   11.3452 H   0  0  0  0  0  0
   -5.9505    2.2778   10.1470 H   0  0  0  0  0  0
   -7.0452    0.2756   11.0635 H   0  0  0  0  0  0
   -6.4889    0.6883   12.7208 H   0  0  0  0  0  0
   -7.9130    2.6984   12.6828 H   0  0  0  0  0  0
   -8.4896    2.2454   11.0430 H   0  0  0  0  0  0
   -8.7004    0.0301   12.9831 H   0  0  0  0  0  0
   -9.6450    1.4799   13.4652 H   0  0  0  0  0  0
  -11.1316    0.1690   12.1346 H   0  0  0  0  0  0
  -10.5667    1.4825   11.0473 H   0  0  0  0  0  0
  -10.6488   -0.6581    9.9025 H   0  0  0  0  0  0
   -9.5268   -1.3669   11.1130 H   0  0  0  0  0  0
   -8.9619   -0.0534   10.0257 H   0  0  0  0  0  0
   -4.5935    5.5819   12.8765 H   0  0  0  0  0  0
   -6.1365    7.4594   11.2518 H   0  0  0  0  0  0
   -4.3798    7.1219   11.0890 H   0  0  0  0  0  0
   -6.3508    6.4924    9.1765 H   0  0  0  0  0  0
   -4.7033    5.7808    9.2542 H   0  0  0  0  0  0
   -5.9191    3.7835    9.4993 H   0  0  0  0  0  0
   -7.3353    4.6166   10.2250 H   0  0  0  0  0  0
   -8.2393    6.3916   15.2289 H   0  0  0  0  0  0
   -7.4888    9.3062   15.5230 H   0  0  0  0  0  0
   -7.6794    8.0677   16.8100 H   0  0  0  0  0  0
   -5.2366    8.9868   16.1491 H   0  0  0  0  0  0
   -5.4949    7.2530   16.5413 H   0  0  0  0  0  0
   -4.5149    7.0412   14.3453 H   0  0  0  0  0  0
   -5.2684    8.5651   13.7652 H   0  0  0  0  0  0
  -10.2378    7.6491   15.4323 H   0  0  0  0  0  0
  -11.1229    7.7285   12.7160 H   0  0  0  0  0  0
  -13.3573    8.5834   13.6431 H   0  0  0  0  0  0
  -12.6887    7.1734   14.5328 H   0  0  0  0  0  0
  -11.8898    8.7979   16.2607 H   0  0  0  0  0  0
  -12.0103   10.8453   14.8976 H   0  0  0  0  0  0
  -13.0131   10.9623   16.3833 H   0  0  0  0  0  0
  -13.7946   10.6661   14.7933 H   0  0  0  0  0  0
  -13.8806    7.3318   16.4712 H   0  0  0  0  0  0
  -14.8889    8.6110   15.7139 H   0  0  0  0  0  0
  -14.1074    8.9071   17.3039 H   0  0  0  0  0  0
   -9.7640   10.3354   14.5766 H   0  0  0  0  0  0
  -11.0618   12.2947   12.7620 H   0  0  0  0  0  0
   -9.2783   13.9104   13.9084 H   0  0  0  0  0  0
  -10.6808   13.2845   14.8400 H   0  0  0  0  0  0
   -8.1056   11.7646   14.9526 H   0  0  0  0  0  0
   -8.2398   13.3292   15.8247 H   0  0  0  0  0  0
  -10.7133   11.9306   18.2002 H   0  0  0  0  0  0
   -8.7234   10.0625   12.2619 H   0  0  0  0  0  0
   -7.4932   11.8828   10.1493 H   0  0  0  0  0  0
   -6.2438    9.3356   11.3603 H   0  0  0  0  0  0
   -5.4655   10.4115   10.1506 H   0  0  0  0  0  0
   -6.3336   11.5029   12.8186 H   0  0  0  0  0  0
   -4.8087   10.5681   12.6534 H   0  0  0  0  0  0
   -3.9022   13.3660   10.0699 H   0  0  0  0  0  0
   -9.7691    9.5562   10.6267 H   0  0  0  0  0  0
   -9.1595    7.7401    8.4133 H   0  0  0  0  0  0
  -11.6157    8.5285    9.9857 H   0  0  0  0  0  0
  -11.8831    7.6798    8.4253 H   0  0  0  0  0  0
  -11.2008    5.7132    9.2121 H   0  0  0  0  0  0
   -8.8811    6.3993    9.6453 H   0  0  0  0  0  0
   -9.5168    5.2959   10.9123 H   0  0  0  0  0  0
   -9.3781    7.0563   11.2416 H   0  0  0  0  0  0
  -13.0496    6.5405   10.6454 H   0  0  0  0  0  0
  -11.8409    7.1400   11.8313 H   0  0  0  0  0  0
  -11.9795    5.3796   11.5021 H   0  0  0  0  0  0
  -11.5741   10.6086    6.5293 H   0  0  0  0  0  0
  1  2  1  0  0  0
  1 84  1  0  0  0
  1 85  1  0  0  0
  1 86  1  0  0  0
  2  3  1  0  0  0
  2 87  1  0  0  0
  2 88  1  0  0  0
  3  4  2  0  0  0
  3  6  1  0  0  0
  5  7  2  0  0  0
  5 22  1  0  0  0
  5 26  1  0  0  0
  6 22  1  0  0  0
  6 89  1  0  0  0
  8  9  1  0  0  0
  8 16  1  0  0  0
  8 24  1  0  0  0
  8 90  1  0  0  0
  9 10  1  0  0  0
  9 11  1  0  0  0
  9 91  1  0  0  0
 10 19  1  0  0  0
 10 92  1  0  0  0
 11 12  1  0  0  0
 11 13  1  0  0  0
 11 93  1  0  0  0
 12 94  1  0  0  0
 13 14  1  0  0  0
 13 15  1  0  0  0
 13 95  1  0  0  0
 14 96  1  0  0  0
 15 16  1  0  0  0
 15 17  1  0  0  0
 15 97  1  0  0  0
 17 18  1  0  0  0
 17 98  1  0  0  0
 17 99  1  0  0  0
 18100  1  0  0  0
 19 20  2  0  0  0
 19 21  1  0  0  0
 21101  1  0  0  0
 21102  1  0  0  0
 21103  1  0  0  0
 22 23  1  0  0  0
 22104  1  0  0  0
 23 24  1  0  0  0
 23 25  1  0  0  0
 23105  1  0  0  0
 25106  1  0  0  0
 25107  1  0  0  0
 25108  1  0  0  0
 26 27  1  0  0  0
 26109  1  0  0  0
 27 28  1  0  0  0
 27 30  1  0  0  0
 27110  1  0  0  0
 28 29  2  0  0  0
 28 35  1  0  0  0
 30 31  1  0  0  0
 30111  1  0  0  0
 30112  1  0  0  0
 31 32  1  0  0  0
 31113  1  0  0  0
 31114  1  0  0  0
 32 33  1  0  0  0
 32115  1  0  0  0
 32116  1  0  0  0
 33 34  1  0  0  0
 33117  1  0  0  0
 33118  1  0  0  0
 34119  1  0  0  0
 34120  1  0  0  0
 34121  1  0  0  0
 35 36  1  0  0  0
 35 41  1  0  0  0
 36 37  1  0  0  0
 36 39  1  0  0  0
 36122  1  0  0  0
 37 38  2  0  0  0
 37 42  1  0  0  0
 39 40  1  0  0  0
 39123  1  0  0  0
 39124  1  0  0  0
 40 41  1  0  0  0
 40125  1  0  0  0
 40126  1  0  0  0
 41127  1  0  0  0
 41128  1  0  0  0
 42 43  1  0  0  0
 42 48  1  0  0  0
 43 44  1  0  0  0
 43 46  1  0  0  0
 43129  1  0  0  0
 44 45  2  0  0  0
 44 49  1  0  0  0
 46 47  1  0  0  0
 46130  1  0  0  0
 46131  1  0  0  0
 47 48  1  0  0  0
 47132  1  0  0  0
 47133  1  0  0  0
 48134  1  0  0  0
 48135  1  0  0  0
 49 50  1  0  0  0
 49136  1  0  0  0
 50 51  1  0  0  0
 50 53  1  0  0  0
 50137  1  0  0  0
 51 52  2  0  0  0
 51 57  1  0  0  0
 53 54  1  0  0  0
 53138  1  0  0  0
 53139  1  0  0  0
 54 55  1  0  0  0
 54 56  1  0  0  0
 54140  1  0  0  0
 55141  1  0  0  0
 55142  1  0  0  0
 55143  1  0  0  0
 56144  1  0  0  0
 56145  1  0  0  0
 56146  1  0  0  0
 57 58  1  0  0  0
 57147  1  0  0  0
 58 59  1  0  0  0
 58 61  1  0  0  0
 58148  1  0  0  0
 59 60  2  0  0  0
 59 66  1  0  0  0
 61 62  1  0  0  0
 61149  1  0  0  0
 61150  1  0  0  0
 62 63  1  0  0  0
 62151  1  0  0  0
 62152  1  0  0  0
 63 64  1  0  0  0
 63 65  2  0  0  0
 64153  1  0  0  0
 66 67  1  0  0  0
 66154  1  0  0  0
 67 68  1  0  0  0
 67 70  1  0  0  0
 67155  1  0  0  0
 68 69  2  0  0  0
 68 75  1  0  0  0
 70 71  1  0  0  0
 70156  1  0  0  0
 70157  1  0  0  0
 71 72  1  0  0  0
 71158  1  0  0  0
 71159  1  0  0  0
 72 73  2  0  0  0
 72 74  1  0  0  0
 74160  1  0  0  0
 75 76  1  0  0  0
 75161  1  0  0  0
 76 77  1  0  0  0
 76 79  1  0  0  0
 76162  1  0  0  0
 77 78  2  0  0  0
 77 83  1  0  0  0
 79 80  1  0  0  0
 79163  1  0  0  0
 79164  1  0  0  0
 80 81  1  0  0  0
 80 82  1  0  0  0
 80165  1  0  0  0
 81166  1  0  0  0
 81167  1  0  0  0
 81168  1  0  0  0
 82169  1  0  0  0
 82170  1  0  0  0
 82171  1  0  0  0
 83172  1  0  0  0
M  CHG  2   1   1  34   1
M  END
> <s_m_source_file>
../3iet_ligand.sdf

> <i_m_source_file_index>
1

> <s_epik_input>
W09IXVtDSDJdW0NAQEhdKE8xKVtDQEhdKFtPSF0pW0NASF0oW09IXSlbQ0BASF0oW05IXUMoPU8pW0NIM10pW0NASF0xT1tDQEhdKFtDSDNdKVtDQEhdKFtOSF1DKD1PKVtDSDJdW05IMytdKUMoPU8pW05IXVtDQEBIXShbQ0gyXVtDSDJdW0NIMl1bQ0gyXVtOSDMrXSlDKD1PKU4yW0NAQEhdKFtDSDJdW0NIMl1bQ0gyXTIpQyg9TylOM1tDQEBIXShbQ0gyXVtDSDJdW0NIMl0zKUMoPU8pW05IXVtDQEBIXShbQ0gyXVtDSF0oW0NIM10pW0NIM10pQyg9TylbTkhdW0NAQEhdKFtDSDJdW0NIMl1DKD1PKVtPSF0pQyg9TylbTkhdW0NAQEhdKFtDSDJdW0NIMl1DKD1PKVtPSF0pQyg9TylbTkhdW0NASF0oQyg9TylbT0hdKVtDSDJdW0NIXShbQ0gzXSlbQ0gzXQ==

> <s_epik_cmdline>
J2VwaWtfYXBwJywgJy1pbWFlJywgJ2xpZ2FuZF9wcm8ubWFlJywgJy1vbWFlJywgJ2xpZ2FuZF9wcmVwLm1hZScsICctbXMnLCAnMScsICctcGgnLCAnNycsICctcGh0JywgJzAuNScsICctbnQn

> <s_epik_pKa_notes>
Molecule size exceeds maximum supported for generating protonation states

> <s_epik_Chemistry_Notes>
This compound contains an acetal/aminal-like group ( X-CH(R)-Y where X, Y are N, S, or O) that may be acid/base labile, releasing an aldehyde.

$$$$
