3if7_ligand
                    3D
 Schrodinger Suite 2020-3.
 72 71  0  0  1  0            999 V2000
  -28.7180    7.4870  -17.4100 C   0  0  0  0  0  0
  -27.9110    8.4660  -18.2570 C   0  0  0  0  0  0
  -28.3630    9.9100  -18.0700 C   0  0  0  0  0  0
  -27.3330   10.6690  -17.2620 C   0  0  0  0  0  0
  -26.9880   12.0470  -17.8150 C   0  0  0  0  0  0
  -26.3380   12.8970  -16.7370 C   0  0  0  0  0  0
  -26.2720   14.3490  -17.1190 C   0  0  0  0  0  0
  -25.2780   15.1080  -16.2540 C   0  0  0  0  0  0
  -24.7140   16.2820  -17.0170 C   0  0  0  0  0  0
  -23.8930   15.7440  -18.1900 C   0  0  0  0  0  0
  -22.5380   16.3700  -18.1420 C   0  0  0  0  0  0
  -21.9260   16.8160  -19.2330 C   0  0  0  0  0  0
  -20.5670   17.4460  -19.0700 C   0  0  1  0  0  0
  -20.2360   18.0080  -20.3210 O   0  0  0  0  0  0
  -20.6320   18.5790  -18.0500 C   0  0  1  0  0  0
  -22.0170   19.0060  -17.8770 N   0  3  0  0  0  0
  -20.1180   18.2440  -16.6640 C   0  0  0  0  0  0
  -20.9330   19.0080  -15.7900 O   0  0  0  0  0  0
  -20.7970   18.8170  -14.2230 P   0  0  1  0  0  0
  -21.6830   17.6320  -13.8520 O   0  5  0  0  0  0
  -19.2970   18.8330  -13.9630 O   0  0  0  0  0  0
  -21.4530   20.1310  -13.5410 O   0  0  0  0  0  0
  -21.3630   20.3190  -12.1210 C   0  0  0  0  0  0
  -21.2980   21.8150  -11.7760 C   0  0  0  0  0  0
  -19.9290   22.3520  -11.7450 N   0  3  0  0  0  0
  -19.1860   21.8430  -12.8930 C   0  0  0  0  0  0
  -19.9380   23.8340  -11.7920 C   0  0  0  0  0  0
  -19.2160   21.8760  -10.5540 C   0  0  0  0  0  0
  -28.3517    6.4643  -17.5828 H   0  0  0  0  0  0
  -29.7799    7.5485  -17.6904 H   0  0  0  0  0  0
  -28.6043    7.7424  -16.3461 H   0  0  0  0  0  0
  -26.8491    8.4045  -17.9766 H   0  0  0  0  0  0
  -28.0247    8.2106  -19.3209 H   0  0  0  0  0  0
  -28.4781   10.3885  -19.0538 H   0  0  0  0  0  0
  -29.3262    9.9269  -17.5391 H   0  0  0  0  0  0
  -27.7076   10.8190  -16.2387 H   0  0  0  0  0  0
  -26.3962   10.0934  -17.2288 H   0  0  0  0  0  0
  -26.2900   11.9394  -18.6584 H   0  0  0  0  0  0
  -27.9065   12.5440  -18.1604 H   0  0  0  0  0  0
  -26.9184   12.8155  -15.8061 H   0  0  0  0  0  0
  -25.3112   12.5438  -16.5610 H   0  0  0  0  0  0
  -25.9583   14.4378  -18.1696 H   0  0  0  0  0  0
  -27.2642   14.8069  -16.9927 H   0  0  0  0  0  0
  -25.7849   15.4760  -15.3498 H   0  0  0  0  0  0
  -24.4554   14.4369  -15.9658 H   0  0  0  0  0  0
  -25.5386   16.9074  -17.3896 H   0  0  0  0  0  0
  -24.0734   16.8786  -16.3509 H   0  0  0  0  0  0
  -23.8060   14.6507  -18.1058 H   0  0  0  0  0  0
  -24.3931   16.0003  -19.1357 H   0  0  0  0  0  0
  -22.0465   16.4558  -17.1617 H   0  0  0  0  0  0
  -22.4124   16.7193  -20.2149 H   0  0  0  0  0  0
  -19.8042   16.7027  -18.7950 H   0  0  0  0  0  0
  -20.1364   17.3615  -21.2054 H   0  0  0  0  0  0
  -20.0088   19.3839  -18.4668 H   0  0  0  0  0  0
  -22.4462   19.2641  -18.8564 H   0  0  0  0  0  0
  -22.0496   19.8867  -17.2188 H   0  0  0  0  0  0
  -22.5989   18.1890  -17.4255 H   0  0  0  0  0  0
  -20.2238   17.1639  -16.4849 H   0  0  0  0  0  0
  -19.0575   18.5261  -16.5881 H   0  0  0  0  0  0
  -22.2474   19.8798  -11.6362 H   0  0  0  0  0  0
  -20.4551   19.8265  -11.7427 H   0  0  0  0  0  0
  -21.8596   22.3893  -12.5275 H   0  0  0  0  0  0
  -21.7392   21.9816  -10.7822 H   0  0  0  0  0  0
  -19.6767   22.1700  -13.8216 H   0  0  0  0  0  0
  -19.1639   20.7438  -12.8574 H   0  0  0  0  0  0
  -18.1573   22.2315  -12.8654 H   0  0  0  0  0  0
  -20.4764   24.1691  -12.6908 H   0  0  0  0  0  0
  -18.9033   24.2061  -11.8243 H   0  0  0  0  0  0
  -20.4409   24.2262  -10.8958 H   0  0  0  0  0  0
  -19.2212   20.7761  -10.5387 H   0  0  0  0  0  0
  -19.7150   22.2576   -9.6510 H   0  0  0  0  0  0
  -18.1774   22.2375  -10.5795 H   0  0  0  0  0  0
  1  2  1  0  0  0
  1 29  1  0  0  0
  1 30  1  0  0  0
  1 31  1  0  0  0
  2  3  1  0  0  0
  2 32  1  0  0  0
  2 33  1  0  0  0
  3  4  1  0  0  0
  3 34  1  0  0  0
  3 35  1  0  0  0
  4  5  1  0  0  0
  4 36  1  0  0  0
  4 37  1  0  0  0
  5  6  1  0  0  0
  5 38  1  0  0  0
  5 39  1  0  0  0
  6  7  1  0  0  0
  6 40  1  0  0  0
  6 41  1  0  0  0
  7  8  1  0  0  0
  7 42  1  0  0  0
  7 43  1  0  0  0
  8  9  1  0  0  0
  8 44  1  0  0  0
  8 45  1  0  0  0
  9 10  1  0  0  0
  9 46  1  0  0  0
  9 47  1  0  0  0
 10 11  1  0  0  0
 10 48  1  0  0  0
 10 49  1  0  0  0
 11 12  2  0  0  0
 11 50  1  0  0  0
 12 13  1  0  0  0
 12 51  1  0  0  0
 13 14  1  0  0  0
 13 15  1  0  0  0
 13 52  1  0  0  0
 14 53  1  0  0  0
 15 16  1  0  0  0
 15 17  1  0  0  0
 15 54  1  0  0  0
 16 55  1  0  0  0
 16 56  1  0  0  0
 16 57  1  0  0  0
 17 18  1  0  0  0
 17 58  1  0  0  0
 17 59  1  0  0  0
 18 19  1  0  0  0
 19 20  1  0  0  0
 19 21  2  0  0  0
 19 22  1  0  0  0
 22 23  1  0  0  0
 23 24  1  0  0  0
 23 60  1  0  0  0
 23 61  1  0  0  0
 24 25  1  0  0  0
 24 62  1  0  0  0
 24 63  1  0  0  0
 25 26  1  0  0  0
 25 27  1  0  0  0
 25 28  1  0  0  0
 26 64  1  0  0  0
 26 65  1  0  0  0
 26 66  1  0  0  0
 27 67  1  0  0  0
 27 68  1  0  0  0
 27 69  1  0  0  0
 28 70  1  0  0  0
 28 71  1  0  0  0
 28 72  1  0  0  0
M  CHG  3  16   1  20  -1  25   1
M  END
> <s_m_source_file>
../3if7_ligand.sdf

> <i_m_source_file_index>
1

> <s_epik_input>
W0NIM11bQ0gyXVtDSDJdW0NIMl1bQ0gyXVtDSDJdW0NIMl1bQ0gyXVtDSDJdW0NIMl0vW0NIXT1bQ0hdL1tDQEBIXShbT0hdKVtDQEBIXShbTkgzK10pW0NIMl1PW1BAXSg9TykoW09IXSlPW0NIMl1bQ0gyXVtOK10oW0NIM10pKFtDSDNdKVtDSDNd

> <s_epik_cmdline>
J2VwaWtfYXBwJywgJy1pbWFlJywgJ2xpZ2FuZF9wcm8ubWFlJywgJy1vbWFlJywgJ2xpZ2FuZF9wcmVwLm1hZScsICctbXMnLCAnMScsICctcGgnLCAnNycsICctcGh0JywgJzAuNScsICctbnQn

> <r_epik_Ionization_Penalty>
  0.0660

> <r_epik_Ionization_Penalty_Charging>
  0.0660

> <r_epik_Ionization_Penalty_Neutral>
  0.0000

> <r_epik_State_Penalty>
  0.0575

> <r_epik_Charging_Adjusted_Penalty>
0.123574346219306

> <i_epik_Tot_Q>
1

> <i_epik_Tot_abs_Q>
3

$$$$
