3ifl_ligand
                    3D
 Schrodinger Suite 2020-3.
110111  0  0  1  0            999 V2000
    8.8210  -18.0450   14.5720 N   0  3  0  0  0  0
    8.3700  -16.9020   13.7260 C   0  0  2  0  0  0
    6.8780  -16.5910   13.8640 C   0  0  0  0  0  0
    6.2430  -16.1410   12.9060 O   0  0  0  0  0  0
    8.7420  -17.1400   12.2520 C   0  0  0  0  0  0
    8.0690  -18.3740   11.6520 C   0  0  0  0  0  0
    7.0800  -18.8850   12.2210 O   0  5  0  0  0  0
    8.5280  -18.8380   10.5860 O   0  0  0  0  0  0
    6.3260  -16.8110   15.0570 N   0  0  0  0  0  0
    4.8920  -16.6230   15.2770 C   0  0  2  0  0  0
    4.4130  -15.1950   14.9760 C   0  0  0  0  0  0
    4.9240  -14.2300   15.5390 O   0  0  0  0  0  0
    4.5270  -17.0320   16.7000 C   0  0  0  0  0  0
    3.4470  -15.0670   14.0720 N   0  0  0  0  0  0
    2.8100  -13.7860   13.7760 C   0  0  2  0  0  0
    1.6260  -13.5000   14.6980 C   0  0  0  0  0  0
    0.9000  -14.4060   15.1030 O   0  0  0  0  0  0
    2.2770  -13.7770   12.3460 C   0  0  0  0  0  0
    3.2920  -13.5100   11.2580 C   0  0  0  0  0  0
    2.6030  -13.2500    9.9330 C   0  0  0  0  0  0
    1.5350  -13.8480    9.6680 O   0  5  0  0  0  0
    3.1130  -12.4210    9.1600 O   0  0  0  0  0  0
    1.4070  -12.2250   15.0100 N   0  0  0  0  0  0
    0.2510  -11.8300   15.8170 C   0  0  2  0  0  0
   -0.9570  -11.7470   14.8940 C   0  0  0  0  0  0
   -0.8150  -11.5760   13.6890 O   0  0  0  0  0  0
    0.5080  -10.4910   16.5320 C   0  0  0  0  0  0
   -0.5780  -10.0970   17.4960 C   0  0  0  0  0  0
   -1.2430   -8.8900   17.3630 C   0  0  0  0  0  0
   -0.9300  -10.9390   18.5410 C   0  0  0  0  0  0
   -2.2450   -8.5140   18.2490 C   0  0  0  0  0  0
   -1.9210  -10.5740   19.4310 C   0  0  0  0  0  0
   -2.5880   -9.3700   19.2880 C   0  0  0  0  0  0
   -2.1500  -11.8680   15.4640 N   0  0  0  0  0  0
   -3.3850  -11.8830   14.6820 C   0  0  2  0  0  0
   -3.8780  -10.4840   14.3000 C   0  0  0  0  0  0
   -3.9070   -9.5850   15.1370 O   0  0  0  0  0  0
   -4.4490  -12.6350   15.4900 C   0  0  0  0  0  0
   -5.8210  -12.6630   14.8510 C   0  0  0  0  0  0
   -6.7250  -13.5500   15.6870 C   0  0  0  0  0  0
   -8.1140  -13.4400   15.2580 N   0  0  0  0  0  0
   -9.1320  -13.9550   15.9400 C   0  0  0  0  0  0
   -8.8980  -14.6140   17.0660 N   0  3  0  0  0  0
  -10.3750  -13.8150   15.4970 N   0  0  0  0  0  0
   -4.2850  -10.3090   13.0420 N   0  0  0  0  0  0
   -4.7680   -9.0160   12.5590 C   0  0  2  0  0  0
   -6.0360   -9.0830   11.7030 C   0  0  0  0  0  0
   -6.3370   -8.1550   10.9450 O   0  0  0  0  0  0
   -3.6460   -8.2780   11.8250 C   0  0  0  0  0  0
   -2.5660   -7.7990   12.7400 C   0  0  0  0  0  0
   -2.6880   -6.6460   13.4860 N   0  0  0  0  0  0
   -1.3600   -8.3280   13.0520 C   0  0  0  0  0  0
   -1.5960   -6.4820   14.2120 C   0  0  0  0  0  0
   -0.7800   -7.4920   13.9720 N   0  0  0  0  0  0
   -6.7970  -10.1590   11.8590 N   0  0  0  0  0  0
   -8.0370  -10.3400   11.1120 C   0  0  2  0  0  0
   -8.9680  -11.2260   11.9200 C   0  0  0  0  0  0
   -8.4910  -11.9600   12.7840 O   0  0  0  0  0  0
   -7.7680  -10.9930    9.7570 C   0  0  0  0  0  0
  -10.1830  -11.2220   11.7190 O   0  5  0  0  0  0
    8.5462  -17.8561   15.6202 H   0  0  0  0  0  0
    9.9130  -18.1514   14.4926 H   0  0  0  0  0  0
    8.3363  -18.9702   14.2269 H   0  0  0  0  0  0
    8.9136  -16.0325   14.1242 H   0  0  0  0  0  0
    8.4363  -16.2704   11.6517 H   0  0  0  0  0  0
    9.8296  -17.2806   12.1664 H   0  0  0  0  0  0
    6.9710  -17.1401   15.8851 H   0  0  0  0  0  0
    4.4151  -17.2946   14.5480 H   0  0  0  0  0  0
    4.8806  -18.0563   16.8892 H   0  0  0  0  0  0
    3.4347  -16.9923   16.8241 H   0  0  0  0  0  0
    5.0024  -16.3424   17.4131 H   0  0  0  0  0  0
    3.1307  -15.9750   13.5377 H   0  0  0  0  0  0
    3.6140  -13.0520   13.9338 H   0  0  0  0  0  0
    1.8334  -14.7565   12.1139 H   0  0  0  0  0  0
    1.5107  -12.9943   12.2452 H   0  0  0  0  0  0
    3.8924  -12.6278   11.5251 H   0  0  0  0  0  0
    3.9518  -14.3834   11.1497 H   0  0  0  0  0  0
    2.1131  -11.4621   14.6502 H   0  0  0  0  0  0
    0.0964  -12.6046   16.5826 H   0  0  0  0  0  0
    1.4447  -10.5553   17.1051 H   0  0  0  0  0  0
    0.5890   -9.6866   15.7861 H   0  0  0  0  0  0
   -0.9748   -8.2204   16.5458 H   0  0  0  0  0  0
   -0.4208  -11.8953   18.6604 H   0  0  0  0  0  0
   -2.7560   -7.5586   18.1303 H   0  0  0  0  0  0
   -2.1801  -11.2405   20.2537 H   0  0  0  0  0  0
   -3.3781   -9.0948   19.9867 H   0  0  0  0  0  0
   -2.1915  -11.9587   16.5595 H   0  0  0  0  0  0
   -3.1346  -12.3978   13.7427 H   0  0  0  0  0  0
   -4.1371  -13.6815   15.6225 H   0  0  0  0  0  0
   -4.5653  -12.1596   16.4751 H   0  0  0  0  0  0
   -6.2286  -11.6420   14.8129 H   0  0  0  0  0  0
   -5.7418  -13.0645   13.8300 H   0  0  0  0  0  0
   -6.4076  -14.5981   15.5836 H   0  0  0  0  0  0
   -6.6589  -13.2494   16.7431 H   0  0  0  0  0  0
   -8.3616  -12.9095   14.3268 H   0  0  0  0  0  0
   -7.8670  -14.7291   17.4318 H   0  0  0  0  0  0
  -10.5674  -13.2678   14.5624 H   0  0  0  0  0  0
  -11.2129  -14.2461   16.0644 H   0  0  0  0  0  0
   -4.2499  -11.1723   12.3612 H   0  0  0  0  0  0
   -5.0502   -8.4952   13.4859 H   0  0  0  0  0  0
   -3.5771   -8.0849   10.7443 H   0  0  0  0  0  0
   -0.8282   -9.2307   12.7169 H   0  0  0  0  0  0
   -1.4019   -5.6536   14.8933 H   0  0  0  0  0  0
   -6.4695  -10.9267   12.5756 H   0  0  0  0  0  0
   -8.4639   -9.3370   10.9643 H   0  0  0  0  0  0
   -7.0935  -10.3531    9.1691 H   0  0  0  0  0  0
   -8.7174  -11.1196    9.2161 H   0  0  0  0  0  0
   -7.2995  -11.9763    9.9104 H   0  0  0  0  0  0
   -9.7348  -15.0458   17.6346 H   0  0  0  0  0  0
   -3.5992   -6.0346   13.4085 H   0  0  0  0  0  0
  1  2  1  0  0  0
  1 61  1  0  0  0
  1 62  1  0  0  0
  1 63  1  0  0  0
  2  3  1  0  0  0
  2  5  1  0  0  0
  2 64  1  0  0  0
  3  4  2  0  0  0
  3  9  1  0  0  0
  5  6  1  0  0  0
  5 65  1  0  0  0
  5 66  1  0  0  0
  6  7  1  0  0  0
  6  8  2  0  0  0
  9 10  1  0  0  0
  9 67  1  0  0  0
 10 11  1  0  0  0
 10 13  1  0  0  0
 10 68  1  0  0  0
 11 12  2  0  0  0
 11 14  1  0  0  0
 13 69  1  0  0  0
 13 70  1  0  0  0
 13 71  1  0  0  0
 14 15  1  0  0  0
 14 72  1  0  0  0
 15 16  1  0  0  0
 15 18  1  0  0  0
 15 73  1  0  0  0
 16 17  2  0  0  0
 16 23  1  0  0  0
 18 19  1  0  0  0
 18 74  1  0  0  0
 18 75  1  0  0  0
 19 20  1  0  0  0
 19 76  1  0  0  0
 19 77  1  0  0  0
 20 21  1  0  0  0
 20 22  2  0  0  0
 23 24  1  0  0  0
 23 78  1  0  0  0
 24 25  1  0  0  0
 24 27  1  0  0  0
 24 79  1  0  0  0
 25 26  2  0  0  0
 25 34  1  0  0  0
 27 28  1  0  0  0
 27 80  1  0  0  0
 27 81  1  0  0  0
 28 29  2  0  0  0
 28 30  1  0  0  0
 29 31  1  0  0  0
 29 82  1  0  0  0
 30 32  2  0  0  0
 30 83  1  0  0  0
 31 33  2  0  0  0
 31 84  1  0  0  0
 32 33  1  0  0  0
 32 85  1  0  0  0
 33 86  1  0  0  0
 34 35  1  0  0  0
 34 87  1  0  0  0
 35 36  1  0  0  0
 35 38  1  0  0  0
 35 88  1  0  0  0
 36 37  2  0  0  0
 36 45  1  0  0  0
 38 39  1  0  0  0
 38 89  1  0  0  0
 38 90  1  0  0  0
 39 40  1  0  0  0
 39 91  1  0  0  0
 39 92  1  0  0  0
 40 41  1  0  0  0
 40 93  1  0  0  0
 40 94  1  0  0  0
 41 42  1  0  0  0
 41 95  1  0  0  0
 42 43  2  0  0  0
 42 44  1  0  0  0
 43 96  1  0  0  0
 43109  1  0  0  0
 44 97  1  0  0  0
 44 98  1  0  0  0
 45 46  1  0  0  0
 45 99  1  0  0  0
 46 47  1  0  0  0
 46 49  1  0  0  0
 46100  1  0  0  0
 47 48  2  0  0  0
 47 55  1  0  0  0
 49 50  2  0  0  0
 49101  1  0  0  0
 50 51  1  0  0  0
 50 52  1  0  0  0
 51 53  1  0  0  0
 51110  1  0  0  0
 52 54  2  0  0  0
 52102  1  0  0  0
 53 54  1  0  0  0
 53103  1  0  0  0
 55 56  1  0  0  0
 55104  1  0  0  0
 56 57  1  0  0  0
 56 59  1  0  0  0
 56105  1  0  0  0
 57 58  2  0  0  0
 57 60  1  0  0  0
 59106  1  0  0  0
 59107  1  0  0  0
 59108  1  0  0  0
M  CHG  5   1   1   7  -1  21  -1  43   1  60  -1
M  END
> <s_m_source_file>
../3ifl_ligand.sdf

> <i_m_source_file_index>
1

> <s_epik_input>
W09IXUMoPU8pW0NIMl1bQ0BIXShbTkgzK10pQyg9TylbTkhdW0NAQEhdKFtDSDNdKUMoPU8pW05IXVtDQEBIXShbQ0gyXVtDSDJdQyg9TylbT0hdKUMoPU8pW05IXVtDQEBIXShbQ0gyXWMxW2NIXVtjSF1bY0hdW2NIXVtjSF0xKUMoPU8pW05IXVtDQEBIXShbQ0gyXVtDSDJdW0NIMl1bTkhdL0MoPU5cW0hdKVtOSDJdKUMoPU8pW05IXVtDQEhdKEMoPU8pW05IXVtDQEBIXShbQ0gzXSlDKD1PKVtPSF0pW0NIMl1DMj1OW0NIMl1OPVtDSF0y

> <s_epik_cmdline>
J2VwaWtfYXBwJywgJy1pbWFlJywgJ2xpZ2FuZF9wcm8ubWFlJywgJy1vbWFlJywgJ2xpZ2FuZF9wcmVwLm1hZScsICctbXMnLCAnMScsICctcGgnLCAnNycsICctcGh0JywgJzAuNScsICctbnQn

> <r_lp_tautomer_probability>
1

> <r_epik_Ionization_Penalty>
  0.0221

> <r_epik_Ionization_Penalty_Charging>
  0.0221

> <r_epik_Ionization_Penalty_Neutral>
  0.0000

> <r_epik_State_Penalty>
 -0.0000

> <r_epik_Charging_Adjusted_Penalty>
0.022078842904228

> <i_epik_Tot_Q>
-1

> <i_epik_Tot_abs_Q>
5

> <s_epik_Chemistry_Notes>
This compound has an imine and may undergo hydrolysis.

$$$$
