3ifo_ligand
                    3D
 Schrodinger Suite 2020-3.
100101  0  0  1  0            999 V2000
  -13.7490   27.2190    9.7310 N   0  3  0  0  0  0
  -15.1050   26.7420    9.4560 C   0  0  2  0  0  0
  -16.0220   26.8010   10.6870 C   0  0  0  0  0  0
  -15.6920   26.2790   11.7510 O   0  0  0  0  0  0
  -15.0620   25.3330    8.8880 C   0  0  0  0  0  0
  -17.1780   27.4380   10.5310 N   0  0  0  0  0  0
  -18.1110   27.6130   11.6370 C   0  0  2  0  0  0
  -19.0710   26.4430   11.7480 C   0  0  0  0  0  0
  -19.4440   25.8410   10.7410 O   0  0  0  0  0  0
  -18.9060   28.9080   11.4790 C   0  0  0  0  0  0
  -18.0900   30.1680   11.7320 C   0  0  0  0  0  0
  -18.9630   31.3930   11.8980 C   0  0  0  0  0  0
  -19.9050   31.5600   11.0940 O   0  0  0  0  0  0
  -18.7090   32.1850   12.8310 O   0  5  0  0  0  0
  -19.4510   26.1210   12.9810 N   0  0  0  0  0  0
  -20.4480   25.0900   13.2320 C   0  0  2  0  0  0
  -21.7680   25.6250   12.7350 C   0  0  0  0  0  0
  -22.0530   26.8170   12.8730 O   0  0  0  0  0  0
  -20.5270   24.7780   14.7290 C   0  0  0  0  0  0
  -21.3420   23.5450   15.0740 C   0  0  0  0  0  0
  -20.8680   22.2670   14.7780 C   0  0  0  0  0  0
  -22.5620   23.6660   15.7380 C   0  0  0  0  0  0
  -21.6100   21.1310   15.1190 C   0  0  0  0  0  0
  -23.3180   22.5360   16.0930 C   0  0  0  0  0  0
  -22.8370   21.2610   15.7830 C   0  0  0  0  0  0
  -22.5710   24.7500   12.1400 N   0  0  0  0  0  0
  -23.8700   25.1550   11.6230 C   0  0  2  0  0  0
  -24.8650   25.3430   12.7680 C   0  0  0  0  0  0
  -25.0880   24.4260   13.5650 O   0  0  0  0  0  0
  -24.3990   24.1180   10.6170 C   0  0  0  0  0  0
  -25.8520   24.3450   10.2010 C   0  0  0  0  0  0
  -26.3910   23.1980    9.3380 C   0  0  0  0  0  0
  -27.8340   23.3000    9.1320 N   0  0  0  0  0  0
  -28.6140   22.2860    8.7630 C   0  0  0  0  0  0
  -28.1000   21.0740    8.5650 N   0  0  0  0  0  0
  -29.9140   22.4800    8.6170 N   0  3  0  0  0  0
  -25.4750   26.5230   12.8360 N   0  0  0  0  0  0
  -26.4390   26.8320   13.8940 C   0  0  2  0  0  0
  -27.8150   27.2710   13.3750 C   0  0  0  0  0  0
  -28.7190   27.5760   14.1610 O   0  0  0  0  0  0
  -25.8800   27.8980   14.8200 C   0  0  0  0  0  0
  -24.8810   27.3790   15.8020 C   0  0  0  0  0  0
  -25.2490   26.8130   17.0030 N   0  0  0  0  0  0
  -23.5280   27.3600   15.7730 C   0  0  0  0  0  0
  -24.1650   26.4590   17.6700 C   0  0  0  0  0  0
  -23.1060   26.7850   16.9480 N   0  0  0  0  0  0
  -27.9720   27.3030   12.0560 N   0  0  0  0  0  0
  -29.3020   27.4280   11.4610 C   0  0  2  0  0  0
  -29.5320   26.3680   10.3660 C   0  0  0  0  0  0
  -28.6360   26.0100    9.5930 O   0  5  0  0  0  0
  -29.5130   28.8440   10.9230 C   0  0  0  0  0  0
  -29.9120   29.8360   12.0150 C   0  0  0  0  0  0
  -29.0340   30.5690   12.5300 O   0  5  0  0  0  0
  -31.1120   29.8810   12.3560 O   0  0  0  0  0  0
  -30.6230   25.8170   10.2210 O   0  0  0  0  0  0
  -13.7951   28.2386   10.1411 H   0  0  0  0  0  0
  -13.1662   27.2250    8.7981 H   0  0  0  0  0  0
  -13.2665   26.5518   10.4605 H   0  0  0  0  0  0
  -15.4923   27.4434    8.7023 H   0  0  0  0  0  0
  -14.4012   25.3121    8.0088 H   0  0  0  0  0  0
  -16.0759   25.0259    8.5920 H   0  0  0  0  0  0
  -14.6777   24.6412    9.6521 H   0  0  0  0  0  0
  -17.4232   27.8379    9.5360 H   0  0  0  0  0  0
  -17.4728   27.6518   12.5321 H   0  0  0  0  0  0
  -19.2980   28.9747   10.4534 H   0  0  0  0  0  0
  -19.7431   28.9138   12.1926 H   0  0  0  0  0  0
  -17.4988   30.0436   12.6513 H   0  0  0  0  0  0
  -17.4139   30.3438   10.8823 H   0  0  0  0  0  0
  -18.9902   26.6573   13.8237 H   0  0  0  0  0  0
  -20.1561   24.1795   12.6882 H   0  0  0  0  0  0
  -19.5135   24.6114   15.1228 H   0  0  0  0  0  0
  -20.9905   25.6249   15.2561 H   0  0  0  0  0  0
  -19.9079   22.1520   14.2749 H   0  0  0  0  0  0
  -22.9374   24.6585   15.9871 H   0  0  0  0  0  0
  -21.2319   20.1402   14.8670 H   0  0  0  0  0  0
  -24.2724   22.6530   16.6063 H   0  0  0  0  0  0
  -23.4113   20.3755   16.0554 H   0  0  0  0  0  0
  -22.2410   23.7054   12.0409 H   0  0  0  0  0  0
  -23.6973   26.1176   11.1194 H   0  0  0  0  0  0
  -23.7893   24.1506    9.7020 H   0  0  0  0  0  0
  -24.3404   23.1133   11.0610 H   0  0  0  0  0  0
  -26.4825   24.4234   11.0990 H   0  0  0  0  0  0
  -25.9257   25.2754    9.6189 H   0  0  0  0  0  0
  -25.9010   23.2185    8.3534 H   0  0  0  0  0  0
  -26.1814   22.2377    9.8319 H   0  0  0  0  0  0
  -28.3444   24.2628    9.2825 H   0  0  0  0  0  0
  -27.0192   20.9085    8.6854 H   0  0  0  0  0  0
  -28.7561   20.2380    8.2810 H   0  0  0  0  0  0
  -30.3426   23.4799    8.7797 H   0  0  0  0  0  0
  -25.2387   27.2763   12.0701 H   0  0  0  0  0  0
  -26.5571   25.8714   14.4169 H   0  0  0  0  0  0
  -26.1452   28.9655   14.8173 H   0  0  0  0  0  0
  -22.7905   27.6989   15.0306 H   0  0  0  0  0  0
  -24.1466   25.9798   18.6488 H   0  0  0  0  0  0
  -27.0846   27.2340   11.4097 H   0  0  0  0  0  0
  -30.0075   27.2447   12.2848 H   0  0  0  0  0  0
  -28.5805   29.2047   10.4643 H   0  0  0  0  0  0
  -30.3130   28.8340   10.1681 H   0  0  0  0  0  0
  -30.5667   21.6414    8.3329 H   0  0  0  0  0  0
  -26.3135   26.7203   17.2641 H   0  0  0  0  0  0
  1  2  1  0  0  0
  1 56  1  0  0  0
  1 57  1  0  0  0
  1 58  1  0  0  0
  2  3  1  0  0  0
  2  5  1  0  0  0
  2 59  1  0  0  0
  3  4  2  0  0  0
  3  6  1  0  0  0
  5 60  1  0  0  0
  5 61  1  0  0  0
  5 62  1  0  0  0
  6  7  1  0  0  0
  6 63  1  0  0  0
  7  8  1  0  0  0
  7 10  1  0  0  0
  7 64  1  0  0  0
  8  9  2  0  0  0
  8 15  1  0  0  0
 10 11  1  0  0  0
 10 65  1  0  0  0
 10 66  1  0  0  0
 11 12  1  0  0  0
 11 67  1  0  0  0
 11 68  1  0  0  0
 12 13  2  0  0  0
 12 14  1  0  0  0
 15 16  1  0  0  0
 15 69  1  0  0  0
 16 17  1  0  0  0
 16 19  1  0  0  0
 16 70  1  0  0  0
 17 18  2  0  0  0
 17 26  1  0  0  0
 19 20  1  0  0  0
 19 71  1  0  0  0
 19 72  1  0  0  0
 20 21  2  0  0  0
 20 22  1  0  0  0
 21 23  1  0  0  0
 21 73  1  0  0  0
 22 24  2  0  0  0
 22 74  1  0  0  0
 23 25  2  0  0  0
 23 75  1  0  0  0
 24 25  1  0  0  0
 24 76  1  0  0  0
 25 77  1  0  0  0
 26 27  1  0  0  0
 26 78  1  0  0  0
 27 28  1  0  0  0
 27 30  1  0  0  0
 27 79  1  0  0  0
 28 29  2  0  0  0
 28 37  1  0  0  0
 30 31  1  0  0  0
 30 80  1  0  0  0
 30 81  1  0  0  0
 31 32  1  0  0  0
 31 82  1  0  0  0
 31 83  1  0  0  0
 32 33  1  0  0  0
 32 84  1  0  0  0
 32 85  1  0  0  0
 33 34  1  0  0  0
 33 86  1  0  0  0
 34 35  1  0  0  0
 34 36  2  0  0  0
 35 87  1  0  0  0
 35 88  1  0  0  0
 36 89  1  0  0  0
 36 99  1  0  0  0
 37 38  1  0  0  0
 37 90  1  0  0  0
 38 39  1  0  0  0
 38 41  1  0  0  0
 38 91  1  0  0  0
 39 40  2  0  0  0
 39 47  1  0  0  0
 41 42  2  0  0  0
 41 92  1  0  0  0
 42 43  1  0  0  0
 42 44  1  0  0  0
 43 45  1  0  0  0
 43100  1  0  0  0
 44 46  2  0  0  0
 44 93  1  0  0  0
 45 46  1  0  0  0
 45 94  1  0  0  0
 47 48  1  0  0  0
 47 95  1  0  0  0
 48 49  1  0  0  0
 48 51  1  0  0  0
 48 96  1  0  0  0
 49 50  1  0  0  0
 49 55  2  0  0  0
 51 52  1  0  0  0
 51 97  1  0  0  0
 51 98  1  0  0  0
 52 53  1  0  0  0
 52 54  2  0  0  0
M  CHG  5   1   1  14  -1  36   1  50  -1  53  -1
M  END
> <s_m_source_file>
../3ifo_ligand.sdf

> <i_m_source_file_index>
1

> <s_epik_input>
W05IMytdW0NAQEhdKFtDSDNdKUMoPU8pW05IXVtDQEBIXShbQ0gyXVtDSDJdQyg9TylbT0hdKUMoPU8pW05IXVtDQEBIXShbQ0gyXWMxW2NIXVtjSF1bY0hdW2NIXVtjSF0xKUMoPU8pW05IXVtDQEBIXShbQ0gyXVtDSDJdW0NIMl1bTkhdL0MoW05IMl0pPU5cW0hdKUMoPU8pW05IXVtDQEhdKEMoPU8pW05IXVtDQEhdKEMoPU8pW09IXSlbQ0gyXUMoPU8pW09IXSlbQ0gyXUMyPU5bQ0gyXU49W0NIXTI=

> <s_epik_cmdline>
J2VwaWtfYXBwJywgJy1pbWFlJywgJ2xpZ2FuZF9wcm8ubWFlJywgJy1vbWFlJywgJ2xpZ2FuZF9wcmVwLm1hZScsICctbXMnLCAnMScsICctcGgnLCAnNycsICctcGh0JywgJzAuNScsICctbnQn

> <r_lp_tautomer_probability>
1

> <r_epik_Ionization_Penalty>
  0.1210

> <r_epik_Ionization_Penalty_Charging>
  0.1210

> <r_epik_Ionization_Penalty_Neutral>
  0.0000

> <r_epik_State_Penalty>
 -0.0000

> <r_epik_Charging_Adjusted_Penalty>
0.120971414006397

> <i_epik_Tot_Q>
-1

> <i_epik_Tot_abs_Q>
5

> <s_epik_Chemistry_Notes>
This compound has an imine and may undergo hydrolysis.

$$$$
