3ifp_ligand
                    3D
 Schrodinger Suite 2020-3.
100101  0  0  1  0            999 V2000
   65.5580  -10.8290   47.4070 N   0  3  0  0  0  0
   66.5840  -11.8030   47.7700 C   0  0  2  0  0  0
   68.0060  -11.2520   47.6580 C   0  0  0  0  0  0
   68.2270  -10.0860   47.3060 O   0  0  0  0  0  0
   66.4470  -13.0840   46.9370 C   0  0  0  0  0  0
   68.9670  -12.1150   47.9700 N   0  0  0  0  0  0
   70.3760  -11.7560   47.9280 C   0  0  2  0  0  0
   70.9230  -11.8870   46.5260 C   0  0  0  0  0  0
   70.3850  -12.6200   45.7000 O   0  0  0  0  0  0
   71.1930  -12.6720   48.8260 C   0  0  0  0  0  0
   71.1970  -12.3080   50.2850 C   0  0  0  0  0  0
   71.7300  -13.4510   51.1320 C   0  0  0  0  0  0
   72.0350  -14.5300   50.5570 O   0  5  0  0  0  0
   71.8270  -13.2720   52.3680 O   0  0  0  0  0  0
   72.0110  -11.1730   46.2750 N   0  0  0  0  0  0
   72.7710  -11.3050   45.0450 C   0  0  2  0  0  0
   73.4960  -12.6540   45.0840 C   0  0  0  0  0  0
   74.0170  -13.0560   46.1290 O   0  0  0  0  0  0
   73.7650  -10.1430   44.9430 C   0  0  0  0  0  0
   74.5560  -10.1330   43.6830 C   0  0  0  0  0  0
   74.0800   -9.4910   42.5590 C   0  0  0  0  0  0
   75.7840  -10.7620   43.6230 C   0  0  0  0  0  0
   74.8140   -9.4820   41.3980 C   0  0  0  0  0  0
   76.5170  -10.7580   42.4690 C   0  0  0  0  0  0
   76.0310  -10.1170   41.3520 C   0  0  0  0  0  0
   73.5190  -13.3700   43.9660 N   0  0  0  0  0  0
   74.1650  -14.6790   43.9570 C   0  0  2  0  0  0
   75.6890  -14.5500   44.0170 C   0  0  0  0  0  0
   76.2890  -13.8470   43.2130 O   0  0  0  0  0  0
   73.7420  -15.4770   42.7290 C   0  0  0  0  0  0
   74.5430  -16.7300   42.4970 C   0  0  0  0  0  0
   73.9640  -17.5050   41.3470 C   0  0  0  0  0  0
   74.8280  -18.5840   40.8770 N   0  0  0  0  0  0
   75.2770  -18.6850   39.6280 C   0  0  0  0  0  0
   74.9440  -17.7700   38.7240 N   0  0  0  0  0  0
   76.0500  -19.7010   39.2790 N   0  3  0  0  0  0
   76.3100  -15.2280   44.9760 N   0  0  0  0  0  0
   77.7590  -15.1650   45.1240 C   0  0  2  0  0  0
   78.4460  -16.5210   44.9600 C   0  0  0  0  0  0
   79.6690  -16.6040   44.9280 O   0  0  0  0  0  0
   78.1460  -14.5190   46.4580 C   0  0  0  0  0  0
   78.0950  -13.0210   46.4420 C   0  0  0  0  0  0
   79.0170  -12.2510   45.7680 N   0  0  0  0  0  0
   77.2370  -12.1500   47.0210 C   0  0  0  0  0  0
   78.7290  -10.9730   45.9300 C   0  0  0  0  0  0
   77.6520  -10.8850   46.6850 N   0  0  0  0  0  0
   77.6610  -17.5890   44.8650 N   0  0  0  0  0  0
   78.2010  -18.9150   44.5290 C   0  0  2  0  0  0
   77.1540  -19.8970   43.9890 C   0  0  0  0  0  0
   76.2080  -19.5050   43.2910 O   0  0  0  0  0  0
   78.9880  -19.5490   45.6870 C   0  0  0  0  0  0
   78.8480  -18.7920   46.9970 C   0  0  0  0  0  0
   77.6980  -18.4680   47.4110 O   0  5  0  0  0  0
   79.9090  -18.5450   47.6210 O   0  0  0  0  0  0
   77.2450  -21.1110   44.2230 O   0  5  0  0  0  0
   65.6800   -9.9228   48.0184 H   0  0  0  0  0  0
   64.5624  -11.2611   47.5864 H   0  0  0  0  0  0
   65.6588  -10.5696   46.3428 H   0  0  0  0  0  0
   66.3738  -12.0010   48.8314 H   0  0  0  0  0  0
   65.4210  -13.4707   47.0252 H   0  0  0  0  0  0
   67.1565  -13.8391   47.3063 H   0  0  0  0  0  0
   66.6652  -12.8606   45.8823 H   0  0  0  0  0  0
   68.6668  -13.1305   48.2677 H   0  0  0  0  0  0
   70.4094  -10.7115   48.2712 H   0  0  0  0  0  0
   70.7976  -13.6965   48.7617 H   0  0  0  0  0  0
   72.2436  -12.6634   48.5000 H   0  0  0  0  0  0
   71.8361  -11.4265   50.4412 H   0  0  0  0  0  0
   70.1709  -12.0789   50.6086 H   0  0  0  0  0  0
   72.3322  -10.4570   47.0458 H   0  0  0  0  0  0
   72.0731  -11.2650   44.1957 H   0  0  0  0  0  0
   73.2199   -9.1888   44.9919 H   0  0  0  0  0  0
   74.4814  -10.1991   45.7758 H   0  0  0  0  0  0
   73.1141   -8.9870   42.5922 H   0  0  0  0  0  0
   76.1735  -11.2678   44.5065 H   0  0  0  0  0  0
   74.4311   -8.9715   40.5143 H   0  0  0  0  0  0
   77.4834  -11.2609   42.4335 H   0  0  0  0  0  0
   76.6125  -10.1134   40.4301 H   0  0  0  0  0  0
   73.0535  -12.9801   43.0488 H   0  0  0  0  0  0
   73.8075  -15.1819   44.8677 H   0  0  0  0  0  0
   72.6907  -15.7828   42.8347 H   0  0  0  0  0  0
   73.8538  -14.8532   41.8299 H   0  0  0  0  0  0
   75.5842  -16.4618   42.2648 H   0  0  0  0  0  0
   74.5183  -17.3539   43.4026 H   0  0  0  0  0  0
   73.0095  -17.9578   41.6536 H   0  0  0  0  0  0
   73.7923  -16.8274   40.4976 H   0  0  0  0  0  0
   75.1452  -19.3765   41.5708 H   0  0  0  0  0  0
   74.3018  -16.9236   39.0089 H   0  0  0  0  0  0
   75.3105  -17.8589   37.6907 H   0  0  0  0  0  0
   76.3286  -20.4612   40.0236 H   0  0  0  0  0  0
   75.7131  -15.8440   45.6646 H   0  0  0  0  0  0
   78.0680  -14.5281   44.2820 H   0  0  0  0  0  0
   78.4420  -15.0495   47.3750 H   0  0  0  0  0  0
   76.3486  -12.2871   47.6550 H   0  0  0  0  0  0
   79.2859  -10.1347   45.5115 H   0  0  0  0  0  0
   76.5830  -17.4635   45.0446 H   0  0  0  0  0  0
   78.8894  -18.6655   43.7081 H   0  0  0  0  0  0
   78.6273  -20.5741   45.8575 H   0  0  0  0  0  0
   80.0579  -19.5743   45.4327 H   0  0  0  0  0  0
   76.4139  -19.7852   38.2443 H   0  0  0  0  0  0
   79.8326  -12.7330   45.2090 H   0  0  0  0  0  0
  1  2  1  0  0  0
  1 56  1  0  0  0
  1 57  1  0  0  0
  1 58  1  0  0  0
  2  3  1  0  0  0
  2  5  1  0  0  0
  2 59  1  0  0  0
  3  4  2  0  0  0
  3  6  1  0  0  0
  5 60  1  0  0  0
  5 61  1  0  0  0
  5 62  1  0  0  0
  6  7  1  0  0  0
  6 63  1  0  0  0
  7  8  1  0  0  0
  7 10  1  0  0  0
  7 64  1  0  0  0
  8  9  2  0  0  0
  8 15  1  0  0  0
 10 11  1  0  0  0
 10 65  1  0  0  0
 10 66  1  0  0  0
 11 12  1  0  0  0
 11 67  1  0  0  0
 11 68  1  0  0  0
 12 13  1  0  0  0
 12 14  2  0  0  0
 15 16  1  0  0  0
 15 69  1  0  0  0
 16 17  1  0  0  0
 16 19  1  0  0  0
 16 70  1  0  0  0
 17 18  2  0  0  0
 17 26  1  0  0  0
 19 20  1  0  0  0
 19 71  1  0  0  0
 19 72  1  0  0  0
 20 21  2  0  0  0
 20 22  1  0  0  0
 21 23  1  0  0  0
 21 73  1  0  0  0
 22 24  2  0  0  0
 22 74  1  0  0  0
 23 25  2  0  0  0
 23 75  1  0  0  0
 24 25  1  0  0  0
 24 76  1  0  0  0
 25 77  1  0  0  0
 26 27  1  0  0  0
 26 78  1  0  0  0
 27 28  1  0  0  0
 27 30  1  0  0  0
 27 79  1  0  0  0
 28 29  2  0  0  0
 28 37  1  0  0  0
 30 31  1  0  0  0
 30 80  1  0  0  0
 30 81  1  0  0  0
 31 32  1  0  0  0
 31 82  1  0  0  0
 31 83  1  0  0  0
 32 33  1  0  0  0
 32 84  1  0  0  0
 32 85  1  0  0  0
 33 34  1  0  0  0
 33 86  1  0  0  0
 34 35  1  0  0  0
 34 36  2  0  0  0
 35 87  1  0  0  0
 35 88  1  0  0  0
 36 89  1  0  0  0
 36 99  1  0  0  0
 37 38  1  0  0  0
 37 90  1  0  0  0
 38 39  1  0  0  0
 38 41  1  0  0  0
 38 91  1  0  0  0
 39 40  2  0  0  0
 39 47  1  0  0  0
 41 42  2  0  0  0
 41 92  1  0  0  0
 42 43  1  0  0  0
 42 44  1  0  0  0
 43 45  1  0  0  0
 43100  1  0  0  0
 44 46  2  0  0  0
 44 93  1  0  0  0
 45 46  1  0  0  0
 45 94  1  0  0  0
 47 48  1  0  0  0
 47 95  1  0  0  0
 48 49  1  0  0  0
 48 51  1  0  0  0
 48 96  1  0  0  0
 49 50  2  0  0  0
 49 55  1  0  0  0
 51 52  1  0  0  0
 51 97  1  0  0  0
 51 98  1  0  0  0
 52 53  1  0  0  0
 52 54  2  0  0  0
M  CHG  5   1   1  13  -1  36   1  53  -1  55  -1
M  END
> <s_m_source_file>
../3ifp_ligand.sdf

> <i_m_source_file_index>
1

> <s_epik_input>
W05IMytdW0NAQEhdKFtDSDNdKUMoPU8pW05IXVtDQEBIXShbQ0gyXVtDSDJdQyg9TylbT0hdKUMoPU8pW05IXVtDQEBIXShbQ0gyXWMxW2NIXVtjSF1bY0hdW2NIXVtjSF0xKUMoPU8pW05IXVtDQEBIXShbQ0gyXVtDSDJdW0NIMl1bTkhdL0MoW05IMl0pPU5cW0hdKUMoPU8pW05IXVtDQEhdKEMoPU8pW05IXVtDQEhdKEMoPU8pW09IXSlbQ0gyXUMoPU8pW09IXSlbQ0gyXUMyPU5bQ0gyXU49W0NIXTI=

> <s_epik_cmdline>
J2VwaWtfYXBwJywgJy1pbWFlJywgJ2xpZ2FuZF9wcm8ubWFlJywgJy1vbWFlJywgJ2xpZ2FuZF9wcmVwLm1hZScsICctbXMnLCAnMScsICctcGgnLCAnNycsICctcGh0JywgJzAuNScsICctbnQn

> <r_lp_tautomer_probability>
1

> <r_epik_Ionization_Penalty>
  0.1210

> <r_epik_Ionization_Penalty_Charging>
  0.1210

> <r_epik_Ionization_Penalty_Neutral>
  0.0000

> <r_epik_State_Penalty>
 -0.0000

> <r_epik_Charging_Adjusted_Penalty>
0.120971414006397

> <i_epik_Tot_Q>
-1

> <i_epik_Tot_abs_Q>
5

> <s_epik_Chemistry_Notes>
This compound has an imine and may undergo hydrolysis.

$$$$
