3ig1_ligand
                    3D
 Schrodinger Suite 2020-3.
 24 24  0  0  1  0            999 V2000
   11.3800   19.4830   12.6820 C   0  0  0  0  0  0
   10.8000   18.8820   11.7170 O   0  0  0  0  0  0
   10.8460   20.8520   13.0200 C   0  0  0  0  0  0
    9.8560   21.1600   12.2170 O   0  0  0  0  0  0
   11.1990   21.7520   13.9610 C   0  0  0  0  0  0
   12.2270   21.7600   14.9990 C   0  0  0  0  0  0
   13.1180   20.7280   15.2360 C   0  0  0  0  0  0
   13.2390   19.4250   14.5280 C   0  0  0  0  0  0
   12.5440   18.8570   13.4610 C   0  0  3  0  0  0
   12.8780   17.6110   12.9990 O   0  5  0  0  0  0
   12.3090   24.4030   15.0000 C   0  0  0  0  0  0
   12.2300   23.0630   15.8470 C   0  0  0  0  0  0
   10.9470   23.1410   16.7770 C   0  0  0  0  0  0
   10.5260   22.6146   13.8468 H   0  0  0  0  0  0
   13.7963   20.9667   16.0684 H   0  0  0  0  0  0
   14.0036   18.6984   14.8402 H   0  0  0  0  0  0
   13.2581   19.3076   12.7560 H   0  0  0  0  0  0
   13.1929   24.3718   14.3460 H   0  0  0  0  0  0
   12.3870   25.2632   15.6811 H   0  0  0  0  0  0
   11.4018   24.5026   14.3859 H   0  0  0  0  0  0
   13.1561   22.9748   16.4340 H   0  0  0  0  0  0
   10.8712   22.2209   17.3750 H   0  0  0  0  0  0
   10.0476   23.2478   16.1527 H   0  0  0  0  0  0
   11.0327   24.0084   17.4480 H   0  0  0  0  0  0
  1  2  2  0  0  0
  1  3  1  0  0  0
  1  9  1  0  0  0
  3  4  2  0  0  0
  3  5  1  0  0  0
  5  6  2  0  0  0
  5 14  1  0  0  0
  6  7  1  0  0  0
  6 12  1  0  0  0
  7  8  2  0  0  0
  7 15  1  0  0  0
  8  9  1  0  0  0
  8 16  1  0  0  0
  9 10  1  0  0  0
  9 17  1  0  0  0
 11 12  1  0  0  0
 11 18  1  0  0  0
 11 19  1  0  0  0
 11 20  1  0  0  0
 12 13  1  0  0  0
 12 21  1  0  0  0
 13 22  1  0  0  0
 13 23  1  0  0  0
 13 24  1  0  0  0
M  CHG  1  10  -1
M  END
> <s_m_source_file>
../3ig1_ligand.sdf

> <i_m_source_file_index>
1

> <s_epik_input>
Tz1DMUMoPU8pW0NIXT1DKFtDSF0oW0NIM10pW0NIM10pW0NIXT1bQ0hdW0NIXTFbT0hd

> <s_epik_cmdline>
J2VwaWtfYXBwJywgJy1pbWFlJywgJ2xpZ2FuZF9wcm8ubWFlJywgJy1vbWFlJywgJ2xpZ2FuZF9wcmVwLm1hZScsICctbXMnLCAnMScsICctcGgnLCAnNycsICctcGh0JywgJzAuNScsICctbnQn

> <r_lp_tautomer_probability>
1

> <r_epik_Ionization_Penalty>
  0.0011

> <r_epik_Ionization_Penalty_Charging>
  0.0011

> <r_epik_Ionization_Penalty_Neutral>
  0.0000

> <r_epik_State_Penalty>
 -0.0000

> <r_epik_Charging_Adjusted_Penalty>
0.00114855394830459

> <i_epik_Tot_Q>
-1

> <i_epik_Tot_abs_Q>
1

$$$$
