3ig7_ligand
                    3D
 Schrodinger Suite 2020-3.
 47 49  0  0  1  0            999 V2000
   -1.4630   31.0240    8.4320 C   0  0  2  0  0  0
   -0.1160   30.9430    7.9000 N   0  0  0  0  0  0
    0.6890   29.8230    8.0140 C   0  0  0  0  0  0
    1.8520   30.1660    7.3230 C   0  0  0  0  0  0
    3.0190   29.4310    7.2010 N   0  0  0  0  0  0
    3.3100   28.1670    7.6870 C   0  0  0  0  0  0
    4.7450   27.7230    7.4290 C   0  0  0  0  0  0
    4.7800   26.6560    6.3800 C   0  0  0  0  0  0
    5.0960   27.0780    5.0820 C   0  0  0  0  0  0
    5.1210   26.1810    4.0270 C   0  0  0  0  0  0
    4.8450   24.8300    4.2640 C   0  0  0  0  0  0
    4.8660   23.9010    3.2590 O   0  0  0  0  0  0
    6.1550   23.6860    2.6690 C   0  0  0  0  0  0
    4.5510   24.4030    5.5570 C   0  0  0  0  0  0
    4.4940   25.3150    6.6330 C   0  0  0  0  0  0
    2.5770   27.3580    8.2740 O   0  0  0  0  0  0
    1.7530   31.4700    6.8750 N   0  0  0  0  0  0
    0.5540   31.9080    7.2260 C   0  0  0  0  0  0
   -1.4680   30.7480    9.9510 C   0  0  0  0  0  0
   -2.8580   30.0560    9.7250 C   0  0  2  0  0  0
   -2.9220   28.7610   10.4620 N   0  0  0  0  0  0
   -3.7890   28.6780   11.5390 C   0  0  0  0  0  0
   -4.0620   27.2620   12.0070 C   0  0  0  0  0  0
   -4.2600   29.6800   12.0900 O   0  0  0  0  0  0
   -2.4350   29.8440    8.2320 C   0  0  0  0  0  0
   -1.6935   31.9814    7.9418 H   0  0  0  0  0  0
    0.4657   28.8871    8.5263 H   0  0  0  0  0  0
    3.8771   29.8482    6.6537 H   0  0  0  0  0  0
    5.3387   28.5829    7.0854 H   0  0  0  0  0  0
    5.1787   27.3259    8.3586 H   0  0  0  0  0  0
    5.3256   28.1278    4.8997 H   0  0  0  0  0  0
    5.3540   26.5251    3.0193 H   0  0  0  0  0  0
    6.0735   22.9278    1.8762 H   0  0  0  0  0  0
    6.8574   23.3364    3.4400 H   0  0  0  0  0  0
    6.5229   24.6289    2.2382 H   0  0  0  0  0  0
    4.3615   23.3455    5.7412 H   0  0  0  0  0  0
    4.2329   24.9792    7.6366 H   0  0  0  0  0  0
    0.1628   32.9010    7.0047 H   0  0  0  0  0  0
   -0.5953   30.1325   10.2147 H   0  0  0  0  0  0
   -1.4225   31.7018   10.4971 H   0  0  0  0  0  0
   -3.8195   30.5040   10.0163 H   0  0  0  0  0  0
   -2.2942   27.9156   10.1440 H   0  0  0  0  0  0
   -3.5317   26.5519   11.3555 H   0  0  0  0  0  0
   -5.1430   27.0632   11.9628 H   0  0  0  0  0  0
   -3.7094   27.1436   13.0422 H   0  0  0  0  0  0
   -3.1477   30.0879    7.4304 H   0  0  0  0  0  0
   -1.8667   28.9436    7.9558 H   0  0  0  0  0  0
  1  2  1  0  0  0
  1 19  1  0  0  0
  1 25  1  0  0  0
  1 26  1  0  0  0
  2  3  1  0  0  0
  2 18  1  0  0  0
  3  4  2  0  0  0
  3 27  1  0  0  0
  4  5  1  0  0  0
  4 17  1  0  0  0
  5  6  1  0  0  0
  5 28  1  0  0  0
  6  7  1  0  0  0
  6 16  2  0  0  0
  7  8  1  0  0  0
  7 29  1  0  0  0
  7 30  1  0  0  0
  8  9  2  0  0  0
  8 15  1  0  0  0
  9 10  1  0  0  0
  9 31  1  0  0  0
 10 11  2  0  0  0
 10 32  1  0  0  0
 11 12  1  0  0  0
 11 14  1  0  0  0
 12 13  1  0  0  0
 13 33  1  0  0  0
 13 34  1  0  0  0
 13 35  1  0  0  0
 14 15  2  0  0  0
 14 36  1  0  0  0
 15 37  1  0  0  0
 17 18  2  0  0  0
 18 38  1  0  0  0
 19 20  1  0  0  0
 19 39  1  0  0  0
 19 40  1  0  0  0
 20 21  1  0  0  0
 20 25  1  0  0  0
 20 41  1  0  0  0
 21 22  1  0  0  0
 21 42  1  0  0  0
 22 23  1  0  0  0
 22 24  2  0  0  0
 23 43  1  0  0  0
 23 44  1  0  0  0
 23 45  1  0  0  0
 25 46  1  0  0  0
 25 47  1  0  0  0
M  END
> <s_m_source_file>
../3ig7_ligand.sdf

> <i_m_source_file_index>
1

> <s_epik_input>
W0NIM11DKD1PKVtOSF1bQ0BIXShbQ0gyXTEpW0NIMl1bQ0BIXTFuMltjSF1jKG5bY0hdMilbTkhdQyg9TylbQ0gyXWMzW2NIXVtjSF1jKE9bQ0gzXSlbY0hdW2NIXTM=

> <s_epik_cmdline>
J2VwaWtfYXBwJywgJy1pbWFlJywgJ2xpZ2FuZF9wcm8ubWFlJywgJy1vbWFlJywgJ2xpZ2FuZF9wcmVwLm1hZScsICctbXMnLCAnMScsICctcGgnLCAnNycsICctcGh0JywgJzAuNScsICctbnQn

> <r_lp_tautomer_probability>
1

> <r_epik_Ionization_Penalty>
  0.0030

> <r_epik_Ionization_Penalty_Charging>
  0.0030

> <r_epik_Ionization_Penalty_Neutral>
  0.0000

> <r_epik_State_Penalty>
 -0.0000

> <r_epik_Charging_Adjusted_Penalty>
0.00299658245600233

> <i_epik_Tot_Q>
0

> <i_epik_Tot_abs_Q>
0

$$$$
