3igb_ligand
                    3D
 Schrodinger Suite 2020-3.
 41 44  0  0  1  0            999 V2000
    9.9100   -7.7440   16.0740 C   0  0  0  0  0  0
   14.1760   -6.1000   18.6390 N   0  3  0  0  0  0
   10.6400   -8.6090   16.8850 C   0  0  0  0  0  0
   15.3640   -5.3080   16.7130 N   0  0  0  0  0  0
   12.0270   -8.4660   16.9910 C   0  0  0  0  0  0
   14.8410   -6.8160   15.1370 N   0  0  0  0  0  0
   12.7170   -7.4550   16.2860 C   0  0  0  0  0  0
   16.3620   -5.0820   14.5680 N   0  0  0  0  0  0
   11.9570   -6.5950   15.4750 C   0  0  0  0  0  0
   10.5720   -6.7420   15.3720 C   0  0  0  0  0  0
   14.2430   -7.3390   16.4470 C   0  0  0  0  0  0
   14.6700   -6.2290   17.4510 C   0  0  0  0  0  0
   14.5390   -4.8500   19.3420 C   0  0  0  0  0  0
   15.8130   -4.1930   18.7830 C   0  0  0  0  0  0
   15.6600   -4.0060   17.2780 C   0  0  0  0  0  0
   15.5330   -5.7400   15.4240 C   0  0  0  0  0  0
   14.9280   -8.6750   16.7790 C   0  0  0  0  0  0
   14.8620   -9.7420   15.8680 C   0  0  0  0  0  0
   15.4770  -10.9650   16.1360 C   0  0  0  0  0  0
   16.1650  -11.1410   17.3310 C   0  0  0  0  0  0
   16.2470  -10.0950   18.2440 C   0  0  0  0  0  0
   15.6300   -8.8720   17.9730 C   0  0  0  0  0  0
    8.8285   -7.8511   15.9899 H   0  0  0  0  0  0
   10.1300   -9.3981   17.4376 H   0  0  0  0  0  0
   12.5869   -9.1484   17.6305 H   0  0  0  0  0  0
   16.9008   -4.1843   14.9053 H   0  0  0  0  0  0
   12.4558   -5.8017   14.9182 H   0  0  0  0  0  0
   10.0037   -6.0644   14.7348 H   0  0  0  0  0  0
   13.7188   -4.1234   19.2452 H   0  0  0  0  0  0
   14.7141   -5.0655   20.4064 H   0  0  0  0  0  0
   15.9623   -3.2149   19.2637 H   0  0  0  0  0  0
   16.6793   -4.8388   18.9890 H   0  0  0  0  0  0
   16.5915   -3.6191   16.8392 H   0  0  0  0  0  0
   14.8347   -3.3136   17.0557 H   0  0  0  0  0  0
   14.3188   -9.6116   14.9320 H   0  0  0  0  0  0
   15.4184  -11.7781   15.4124 H   0  0  0  0  0  0
   16.6394  -12.0971   17.5521 H   0  0  0  0  0  0
   16.7958  -10.2306   19.1760 H   0  0  0  0  0  0
   15.6960   -8.0621   18.6995 H   0  0  0  0  0  0
   16.4931   -5.4480   13.5390 H   0  0  0  0  0  0
   13.5354   -6.8905   19.0571 H   0  0  0  0  0  0
  1  3  2  0  0  0
  1 10  1  0  0  0
  1 23  1  0  0  0
  2 12  2  0  0  0
  2 13  1  0  0  0
  2 41  1  0  0  0
  3  5  1  0  0  0
  3 24  1  0  0  0
  4 12  1  0  0  0
  4 15  1  0  0  0
  4 16  1  0  0  0
  5  7  2  0  0  0
  5 25  1  0  0  0
  6 11  1  0  0  0
  6 16  2  0  0  0
  7  9  1  0  0  0
  7 11  1  0  0  0
  8 16  1  0  0  0
  8 26  1  0  0  0
  8 40  1  0  0  0
  9 10  2  0  0  0
  9 27  1  0  0  0
 10 28  1  0  0  0
 11 12  1  0  0  0
 11 17  1  0  0  0
 13 14  1  0  0  0
 13 29  1  0  0  0
 13 30  1  0  0  0
 14 15  1  0  0  0
 14 31  1  0  0  0
 14 32  1  0  0  0
 15 33  1  0  0  0
 15 34  1  0  0  0
 17 18  2  0  0  0
 17 22  1  0  0  0
 18 19  1  0  0  0
 18 35  1  0  0  0
 19 20  2  0  0  0
 19 36  1  0  0  0
 20 21  1  0  0  0
 20 37  1  0  0  0
 21 22  2  0  0  0
 21 38  1  0  0  0
 22 39  1  0  0  0
M  CHG  1   2   1
M  END
> <s_m_source_file>
../3igb_ligand.sdf

> <i_m_source_file_index>
1

> <s_epik_input>
W2NIXTFbY0hdW2NIXVtjSF1bY0hdYzFDKFtOSF1DLzI9TlxbSF0pKEMoTjIzKT1OW0NIMl1bQ0gyXVtDSDJdMyljNFtjSF1bY0hdW2NIXVtjSF1bY0hdNA==

> <s_epik_cmdline>
J2VwaWtfYXBwJywgJy1pbWFlJywgJ2xpZ2FuZF9wcm8ubWFlJywgJy1vbWFlJywgJ2xpZ2FuZF9wcmVwLm1hZScsICctbXMnLCAnMScsICctcGgnLCAnNycsICctcGh0JywgJzAuNScsICctbnQn

> <r_lp_tautomer_probability>
1

> <r_epik_Ionization_Penalty>
  0.2072

> <r_epik_Ionization_Penalty_Charging>
  0.2064

> <r_epik_Ionization_Penalty_Neutral>
  0.0008

> <r_epik_State_Penalty>
 -0.0000

> <r_epik_Charging_Adjusted_Penalty>
0.206363831306165

> <i_epik_Tot_Q>
1

> <i_epik_Tot_abs_Q>
1

> <s_epik_Chemistry_Notes>
This compound has an imine and may undergo hydrolysis.

$$$$
