3igg_ligand
                    3D
 Schrodinger Suite 2020-3.
 41 43  0  0  1  0            999 V2000
   -1.4530   31.8920    8.6890 C   0  0  1  0  0  0
   -0.1600   31.6100    8.1410 N   0  0  0  0  0  0
   -3.1600   30.3130   11.1490 O   0  0  0  0  0  0
    0.6210   30.5100    8.1670 C   0  0  0  0  0  0
    1.6810   32.1370    7.0490 N   0  0  0  0  0  0
    2.4330   28.2990    8.5350 O   0  0  0  0  0  0
    0.5010   32.5740    7.4750 C   0  0  0  0  0  0
    2.9960   30.0580    7.1750 N   0  0  0  0  0  0
    4.4810   24.6730    3.2720 O   0  0  0  0  0  0
   -2.4830   30.7350    8.7410 C   0  0  0  0  0  0
   -1.4590   31.8270   10.2650 C   0  0  0  0  0  0
    1.7950   30.8520    7.4630 C   0  0  0  0  0  0
   -2.9160   31.2770   10.1230 C   0  0  2  0  0  0
    3.2290   28.8950    7.8150 C   0  0  0  0  0  0
    4.6330   28.3980    7.5700 C   0  0  0  0  0  0
    4.5950   27.4500    6.4140 C   0  0  0  0  0  0
    4.3850   26.1020    6.6270 C   0  0  0  0  0  0
    4.7770   27.9140    5.1070 C   0  0  0  0  0  0
    4.3690   25.1890    5.5890 C   0  0  0  0  0  0
    4.7620   26.9930    4.0720 C   0  0  0  0  0  0
    4.5260   25.6380    4.2890 C   0  0  0  0  0  0
    5.6580   24.7400    2.4610 C   0  0  0  0  0  0
   -1.6042   32.7770    8.0535 H   0  0  0  0  0  0
   -4.1375   29.8124   11.2122 H   0  0  0  0  0  0
    0.3919   29.5531    8.6359 H   0  0  0  0  0  0
    0.1188   33.5809    7.3071 H   0  0  0  0  0  0
    3.7218   30.4101    6.4272 H   0  0  0  0  0  0
   -3.1760   30.8226    7.8912 H   0  0  0  0  0  0
   -1.9552   29.7715    8.6859 H   0  0  0  0  0  0
   -0.6560   31.1577   10.6074 H   0  0  0  0  0  0
   -1.2956   32.8349   10.6742 H   0  0  0  0  0  0
   -3.8612   31.8260   10.2459 H   0  0  0  0  0  0
    5.2888   29.2506    7.3396 H   0  0  0  0  0  0
    5.0023   27.8840    8.4697 H   0  0  0  0  0  0
    4.2269   25.7467    7.6453 H   0  0  0  0  0  0
    4.9271   28.9750    4.9075 H   0  0  0  0  0  0
    4.2342   24.1266    5.7921 H   0  0  0  0  0  0
    4.9408   27.3406    3.0545 H   0  0  0  0  0  0
    5.6029   23.9765    1.6710 H   0  0  0  0  0  0
    6.5447   24.5577    3.0859 H   0  0  0  0  0  0
    5.7312   25.7373    2.0027 H   0  0  0  0  0  0
  1  2  1  0  0  0
  1 10  1  0  0  0
  1 11  1  0  0  0
  1 23  1  0  0  0
  2  4  1  0  0  0
  2  7  1  0  0  0
  3 13  1  0  0  0
  3 24  1  0  0  0
  4 12  2  0  0  0
  4 25  1  0  0  0
  5  7  2  0  0  0
  5 12  1  0  0  0
  6 14  2  0  0  0
  7 26  1  0  0  0
  8 12  1  0  0  0
  8 14  1  0  0  0
  8 27  1  0  0  0
  9 21  1  0  0  0
  9 22  1  0  0  0
 10 13  1  0  0  0
 10 28  1  0  0  0
 10 29  1  0  0  0
 11 13  1  0  0  0
 11 30  1  0  0  0
 11 31  1  0  0  0
 13 32  1  0  0  0
 14 15  1  0  0  0
 15 16  1  0  0  0
 15 33  1  0  0  0
 15 34  1  0  0  0
 16 17  2  0  0  0
 16 18  1  0  0  0
 17 19  1  0  0  0
 17 35  1  0  0  0
 18 20  2  0  0  0
 18 36  1  0  0  0
 19 21  2  0  0  0
 19 37  1  0  0  0
 20 21  1  0  0  0
 20 38  1  0  0  0
 22 39  1  0  0  0
 22 40  1  0  0  0
 22 41  1  0  0  0
M  END
> <s_m_source_file>
../3igg_ligand.sdf

> <i_m_source_file_index>
1

> <s_epik_input>
W09IXVtDQEBIXShbQ0gyXTEpW0NIMl1bQ0BASF0xbjJbY0hdYyhuW2NIXTIpW05IXUMoPU8pW0NIMl1jM1tjSF1bY0hdYyhPW0NIM10pW2NIXVtjSF0z

> <s_epik_cmdline>
J2VwaWtfYXBwJywgJy1pbWFlJywgJ2xpZ2FuZF9wcm8ubWFlJywgJy1vbWFlJywgJ2xpZ2FuZF9wcmVwLm1hZScsICctbXMnLCAnMScsICctcGgnLCAnNycsICctcGh0JywgJzAuNScsICctbnQn

> <r_lp_tautomer_probability>
1

> <r_epik_Ionization_Penalty>
  0.0031

> <r_epik_Ionization_Penalty_Charging>
  0.0031

> <r_epik_Ionization_Penalty_Neutral>
  0.0000

> <r_epik_State_Penalty>
 -0.0000

> <r_epik_Charging_Adjusted_Penalty>
0.00309970432668318

> <i_epik_Tot_Q>
0

> <i_epik_Tot_abs_Q>
0

$$$$
