3igp_ligand
                    3D
 Schrodinger Suite 2020-3.
 34 35  0  0  1  0            999 V2000
   -4.0610    7.2340   11.1240 C   0  0  0  0  0  0
   -0.2620    4.3570   12.5330 C   0  0  0  0  0  0
   -5.2910   -0.4010   16.1810 N   0  0  0  0  0  0
   -5.2360    1.2140   18.0710 O   0  0  0  0  0  0
   -7.3450    0.9480   16.7030 O   0  0  0  0  0  0
   -4.7030    5.5210   13.2720 C   0  0  0  0  0  0
   -2.5690    3.8940   13.9890 C   0  0  0  0  0  0
   -6.3290    4.0080   14.2810 C   0  0  0  0  0  0
   -6.4400    3.2210   15.5690 C   0  0  0  0  0  0
   -3.1710    7.0700   12.2540 O   0  0  0  0  0  0
   -1.0760    5.4600   12.9630 O   0  0  0  0  0  0
   -4.9130    4.3290   13.9690 C   0  0  0  0  0  0
   -3.4100    5.8970   12.9320 C   0  0  0  0  0  0
   -2.3460    5.0820   13.2960 C   0  0  0  0  0  0
   -3.8470    3.5110   14.3320 C   0  0  0  0  0  0
   -4.1050    2.1750   15.0780 C   0  0  0  0  0  0
   -5.3080    2.3140   15.9320 N   0  0  2  0  0  0
   -5.8520    0.9620   16.7650 S   0  0  0  0  0  0
   -3.8346    8.1817   10.6135 H   0  0  0  0  0  0
   -5.1028    7.2472   11.4767 H   0  0  0  0  0  0
   -3.9217    6.3976   10.4232 H   0  0  0  0  0  0
    0.7446    4.7211   12.2795 H   0  0  0  0  0  0
   -0.7166    3.8892   11.6473 H   0  0  0  0  0  0
   -0.1907    3.6162   13.3430 H   0  0  0  0  0  0
   -5.6849   -1.2421   16.7704 H   0  0  0  0  0  0
   -4.1923   -0.3983   16.2347 H   0  0  0  0  0  0
   -5.5482    6.1519   12.9968 H   0  0  0  0  0  0
   -1.7242    3.2617   14.2623 H   0  0  0  0  0  0
   -6.7456    3.4162   13.4526 H   0  0  0  0  0  0
   -6.8896    4.9496   14.3771 H   0  0  0  0  0  0
   -6.5348    3.9160   16.4163 H   0  0  0  0  0  0
   -7.3267    2.5715   15.5266 H   0  0  0  0  0  0
   -4.2653    1.3707   14.3449 H   0  0  0  0  0  0
   -3.2348    1.9313   15.7052 H   0  0  0  0  0  0
  1 10  1  0  0  0
  1 19  1  0  0  0
  1 20  1  0  0  0
  1 21  1  0  0  0
  2 11  1  0  0  0
  2 22  1  0  0  0
  2 23  1  0  0  0
  2 24  1  0  0  0
  3 18  1  0  0  0
  3 25  1  0  0  0
  3 26  1  0  0  0
  4 18  2  0  0  0
  5 18  2  0  0  0
  6 12  2  0  0  0
  6 13  1  0  0  0
  6 27  1  0  0  0
  7 14  1  0  0  0
  7 15  2  0  0  0
  7 28  1  0  0  0
  8  9  1  0  0  0
  8 12  1  0  0  0
  8 29  1  0  0  0
  8 30  1  0  0  0
  9 17  1  0  0  0
  9 31  1  0  0  0
  9 32  1  0  0  0
 10 13  1  0  0  0
 11 14  1  0  0  0
 12 15  1  0  0  0
 13 14  2  0  0  0
 15 16  1  0  0  0
 16 17  1  0  0  0
 16 33  1  0  0  0
 16 34  1  0  0  0
 17 18  1  0  0  0
M  END
> <s_m_source_file>
../3igp_ligand.sdf

> <i_m_source_file_index>
1

> <s_epik_input>
W0NIM11PYyhbY0hdMSljKE9bQ0gzXSlbY0hdYyhjMTIpW0NIMl1OKFtDSDJdW0NIMl0yKVMoPU8pKD1PKVtOSDJd

> <s_epik_cmdline>
J2VwaWtfYXBwJywgJy1pbWFlJywgJ2xpZ2FuZF9wcm8ubWFlJywgJy1vbWFlJywgJ2xpZ2FuZF9wcmVwLm1hZScsICctbXMnLCAnMScsICctcGgnLCAnNycsICctcGh0JywgJzAuNScsICctbnQn

> <r_lp_tautomer_probability>
1

> <r_epik_Ionization_Penalty>
  0.0098

> <r_epik_Ionization_Penalty_Charging>
  0.0000

> <r_epik_Ionization_Penalty_Neutral>
  0.0098

> <r_epik_State_Penalty>
  0.0075

> <r_epik_Charging_Adjusted_Penalty>
0.00746841778180114

> <i_epik_Tot_Q>
0

> <i_epik_Tot_abs_Q>
0

$$$$
