3ihz_ligand
                    3D
 Schrodinger Suite 2020-3.
132135  0  0  1  0            999 V2000
   -6.8790   -7.9670  -27.3520 C   0  0  0  0  0  0
   -6.2480   -8.1560  -26.0120 C   0  0  2  0  0  0
   -6.7740   -7.0780  -25.0390 C   0  0  0  0  0  0
   -6.1320   -5.6930  -25.2100 C   0  0  0  0  0  0
   -4.6070   -5.8330  -25.2740 C   0  0  0  0  0  0
   -4.1170   -6.8060  -26.3570 C   0  0  0  0  0  0
   -4.0810   -9.2080  -25.8730 C   0  0  0  0  0  0
   -2.6970   -9.3120  -25.8920 C   0  0  2  0  0  0
   -1.9370   -9.5600  -27.1670 C   0  0  1  0  0  0
   -2.6390  -10.5320  -28.0950 C   0  0  1  0  0  0
   -1.9800  -10.4620  -29.4730 C   0  0  0  0  0  0
   -1.9150   -9.0340  -30.0050 C   0  0  1  0  0  0
   -1.1480   -8.1980  -28.9810 C   0  0  1  0  0  0
   -1.0010   -6.7060  -29.3370 C   0  0  2  0  0  0
   -2.2650   -6.0270  -29.8410 C   0  0  0  0  0  0
   -2.2140   -4.4820  -29.8830 C   0  0  2  0  0  0
   -1.6710   -4.0070  -31.2340 C   0  0  0  0  0  0
   -2.7620   -4.1010  -32.2780 C   0  0  0  0  0  0
   -2.7810   -5.2270  -33.2130 C   0  0  0  0  0  0
   -3.8880   -5.4280  -34.1930 C   0  0  2  0  0  0
   -4.9330   -6.2320  -33.5030 C   0  0  3  0  0  0
   -6.1050   -5.5650  -32.8410 C   0  0  0  0  0  0
   -6.8840   -6.4830  -31.9080 C   0  0  1  0  0  0
   -6.2090   -6.7460  -30.5400 C   0  0  2  0  0  0
   -6.9660   -7.7410  -29.6400 C   0  0  1  0  0  0
   -6.9890   -9.1030  -30.2870 C   0  0  0  0  0  0
   -8.3000   -9.6550  -30.6760 C   0  0  0  0  0  0
   -8.4570  -11.0030  -31.3410 C   0  0  1  0  0  0
   -9.7300  -11.6780  -30.7840 C   0  0  0  0  0  0
   -9.9480  -13.0130  -31.4590 C   0  0  2  0  0  0
  -10.0840  -12.8350  -32.9700 C   0  0  1  0  0  0
   -8.8390  -12.1650  -33.5250 C   0  0  0  0  0  0
   -8.6490  -10.8030  -32.8570 C   0  0  0  0  0  0
   -2.6350  -11.9780  -27.5660 C   0  0  0  0  0  0
   -1.3470   -3.8260  -28.7990 C   0  0  0  0  0  0
   -3.8130   -3.0330  -32.3450 C   0  0  0  0  0  0
   -3.3170   -6.1940  -35.3830 C   0  0  0  0  0  0
   -2.3440   -5.2640  -36.1020 C   0  0  0  0  0  0
   -2.3360   -5.1450  -37.5740 C   0  0  0  0  0  0
   -5.9990   -5.4310  -29.7610 C   0  0  0  0  0  0
   -5.7030   -9.8770  -30.5490 C   0  0  0  0  0  0
   -2.0540   -9.5710  -32.2920 C   0  0  0  0  0  0
    1.3100   -6.6070  -29.6480 C   0  0  0  0  0  0
  -11.0740  -13.9990  -29.6430 C   0  0  0  0  0  0
   -4.7880   -8.1030  -26.1140 N   0  0  0  0  0  0
   -6.2240   -7.9100  -28.4260 O   0  0  0  0  0  0
   -8.2430   -7.8050  -27.3760 O   0  0  0  0  0  0
   -4.7390  -10.3430  -25.5210 O   0  0  0  0  0  0
   -2.0230   -9.2590  -24.7040 O   0  0  0  0  0  0
   -1.8540   -8.2940  -27.7530 O   0  0  0  0  0  0
   -0.6400  -10.0880  -26.8390 O   0  0  0  0  0  0
   -1.2640   -8.9890  -31.2660 O   0  0  0  0  0  0
    0.0360   -6.5130  -30.2830 O   0  0  0  0  0  0
   -4.7670   -7.5910  -33.4660 O   0  0  0  0  0  0
   -8.1490   -5.9050  -31.6850 O   0  0  0  0  0  0
  -11.1650  -13.5830  -31.0060 O   0  0  0  0  0  0
  -10.2540  -14.1230  -33.5650 O   0  0  0  0  0  0
   -6.4806   -9.1691  -25.6520 H   0  0  0  0  0  0
   -7.8563   -6.9478  -25.1863 H   0  0  0  0  0  0
   -6.5803   -7.3931  -24.0031 H   0  0  0  0  0  0
   -6.4947   -5.2332  -26.1411 H   0  0  0  0  0  0
   -6.4035   -5.0550  -24.3560 H   0  0  0  0  0  0
   -4.1575   -4.8524  -25.4895 H   0  0  0  0  0  0
   -4.2320   -6.2041  -24.3088 H   0  0  0  0  0  0
   -4.3814   -6.4130  -27.3498 H   0  0  0  0  0  0
   -3.0248   -6.9152  -26.2848 H   0  0  0  0  0  0
   -3.1401   -8.5055  -25.2893 H   0  0  0  0  0  0
   -3.6922  -10.2203  -28.1560 H   0  0  0  0  0  0
   -0.9531  -10.8510  -29.4085 H   0  0  0  0  0  0
   -2.5574  -11.0679  -30.1868 H   0  0  0  0  0  0
   -2.9146   -8.6299  -30.2229 H   0  0  0  0  0  0
   -0.1403   -8.6236  -28.8655 H   0  0  0  0  0  0
   -0.6874   -6.1861  -28.4197 H   0  0  0  0  0  0
   -2.4756   -6.3602  -30.8679 H   0  0  0  0  0  0
   -3.1095   -6.2936  -29.1886 H   0  0  0  0  0  0
   -3.2533   -4.1654  -29.7109 H   0  0  0  0  0  0
   -1.3354   -2.9630  -31.1477 H   0  0  0  0  0  0
   -0.8231   -4.6413  -31.5319 H   0  0  0  0  0  0
   -1.9607   -5.9599  -33.2081 H   0  0  0  0  0  0
   -4.3279   -4.4766  -34.5266 H   0  0  0  0  0  0
   -5.2937   -7.2678  -33.5862 H   0  0  0  0  0  0
   -5.7516   -4.7125  -32.2423 H   0  0  0  0  0  0
   -6.8059   -5.2077  -33.6098 H   0  0  0  0  0  0
   -7.0314   -7.4447  -32.4212 H   0  0  0  0  0  0
   -5.2414   -7.2076  -30.7863 H   0  0  0  0  0  0
   -7.9774   -7.3737  -29.4118 H   0  0  0  0  0  0
   -9.2178   -9.0797  -30.4844 H   0  0  0  0  0  0
   -7.5576  -11.6033  -31.1389 H   0  0  0  0  0  0
   -9.6178  -11.8351  -29.7011 H   0  0  0  0  0  0
  -10.6001  -11.0319  -30.9725 H   0  0  0  0  0  0
   -9.1291  -13.6934  -31.1827 H   0  0  0  0  0  0
  -10.9759  -12.2487  -33.2359 H   0  0  0  0  0  0
   -7.9616  -12.7969  -33.3230 H   0  0  0  0  0  0
   -8.9497  -12.0275  -34.6107 H   0  0  0  0  0  0
   -9.5366  -10.1781  -33.0349 H   0  0  0  0  0  0
   -7.7614  -10.3071  -33.2768 H   0  0  0  0  0  0
   -3.1125  -12.0074  -26.5755 H   0  0  0  0  0  0
   -1.5980  -12.3355  -27.4839 H   0  0  0  0  0  0
   -3.1917  -12.6241  -28.2607 H   0  0  0  0  0  0
   -1.7017   -4.1398  -27.8062 H   0  0  0  0  0  0
   -1.4183   -2.7317  -28.8849 H   0  0  0  0  0  0
   -0.2998   -4.1366  -28.9293 H   0  0  0  0  0  0
   -3.6232   -2.2823  -31.5637 H   0  0  0  0  0  0
   -4.8041   -3.4835  -32.1877 H   0  0  0  0  0  0
   -3.7824   -2.5499  -33.3328 H   0  0  0  0  0  0
   -2.7953   -7.0934  -35.0239 H   0  0  0  0  0  0
   -4.1355   -6.4891  -36.0560 H   0  0  0  0  0  0
   -2.5108   -4.2294  -35.7677 H   0  0  0  0  0  0
   -1.3113   -5.5626  -35.8689 H   0  0  0  0  0  0
   -1.5621   -4.4255  -37.8795 H   0  0  0  0  0  0
   -3.3198   -4.7938  -37.9188 H   0  0  0  0  0  0
   -2.1202   -6.1271  -38.0201 H   0  0  0  0  0  0
   -5.4588   -4.7119  -30.3943 H   0  0  0  0  0  0
   -5.4123   -5.6326  -28.8526 H   0  0  0  0  0  0
   -6.9762   -5.0109  -29.4806 H   0  0  0  0  0  0
   -4.8438   -9.2941  -30.1858 H   0  0  0  0  0  0
   -5.5955  -10.0544  -31.6293 H   0  0  0  0  0  0
   -5.7414  -10.8413  -30.0210 H   0  0  0  0  0  0
   -1.5128   -9.5146  -33.2480 H   0  0  0  0  0  0
   -3.0053   -9.0253  -32.3764 H   0  0  0  0  0  0
   -2.2559  -10.6241  -32.0465 H   0  0  0  0  0  0
    2.1037   -6.4552  -30.3943 H   0  0  0  0  0  0
    1.4202   -7.6023  -29.1928 H   0  0  0  0  0  0
    1.3883   -5.8360  -28.8673 H   0  0  0  0  0  0
  -12.0336  -14.4347  -29.3278 H   0  0  0  0  0  0
  -10.8398  -13.1308  -29.0095 H   0  0  0  0  0  0
  -10.2786  -14.7520  -29.5418 H   0  0  0  0  0  0
   -2.5717   -9.0781  -23.7679 H   0  0  0  0  0  0
   -0.5522  -11.0794  -26.3705 H   0  0  0  0  0  0
   -3.8991   -8.0527  -33.9596 H   0  0  0  0  0  0
   -8.7912   -5.6411  -32.5382 H   0  0  0  0  0  0
  -11.1093  -14.7526  -33.2786 H   0  0  0  0  0  0
  1  2  1  0  0  0
  1 46  1  0  0  0
  1 47  2  0  0  0
  2  3  1  0  0  0
  2 45  1  0  0  0
  2 58  1  0  0  0
  3  4  1  0  0  0
  3 59  1  0  0  0
  3 60  1  0  0  0
  4  5  1  0  0  0
  4 61  1  0  0  0
  4 62  1  0  0  0
  5  6  1  0  0  0
  5 63  1  0  0  0
  5 64  1  0  0  0
  6 45  1  0  0  0
  6 65  1  0  0  0
  6 66  1  0  0  0
  7  8  1  0  0  0
  7 45  1  0  0  0
  7 48  2  0  0  0
  8  9  1  0  0  0
  8 49  1  0  0  0
  8 67  1  0  0  0
  9 10  1  0  0  0
  9 50  1  0  0  0
  9 51  1  0  0  0
 10 11  1  0  0  0
 10 34  1  0  0  0
 10 68  1  0  0  0
 11 12  1  0  0  0
 11 69  1  0  0  0
 11 70  1  0  0  0
 12 13  1  0  0  0
 12 52  1  0  0  0
 12 71  1  0  0  0
 13 14  1  0  0  0
 13 50  1  0  0  0
 13 72  1  0  0  0
 14 15  1  0  0  0
 14 53  1  0  0  0
 14 73  1  0  0  0
 15 16  1  0  0  0
 15 74  1  0  0  0
 15 75  1  0  0  0
 16 17  1  0  0  0
 16 35  1  0  0  0
 16 76  1  0  0  0
 17 18  1  0  0  0
 17 77  1  0  0  0
 17 78  1  0  0  0
 18 19  2  0  0  0
 18 36  1  0  0  0
 19 20  1  0  0  0
 19 79  1  0  0  0
 20 21  1  0  0  0
 20 37  1  0  0  0
 20 80  1  0  0  0
 21 22  1  0  0  0
 21 54  1  0  0  0
 21 81  1  0  0  0
 22 23  1  0  0  0
 22 82  1  0  0  0
 22 83  1  0  0  0
 23 24  1  0  0  0
 23 55  1  0  0  0
 23 84  1  0  0  0
 24 25  1  0  0  0
 24 40  1  0  0  0
 24 85  1  0  0  0
 25 26  1  0  0  0
 25 46  1  0  0  0
 25 86  1  0  0  0
 26 27  2  0  0  0
 26 41  1  0  0  0
 27 28  1  0  0  0
 27 87  1  0  0  0
 28 29  1  0  0  0
 28 33  1  0  0  0
 28 88  1  0  0  0
 29 30  1  0  0  0
 29 89  1  0  0  0
 29 90  1  0  0  0
 30 31  1  0  0  0
 30 56  1  0  0  0
 30 91  1  0  0  0
 31 32  1  0  0  0
 31 57  1  0  0  0
 31 92  1  0  0  0
 32 33  1  0  0  0
 32 93  1  0  0  0
 32 94  1  0  0  0
 33 95  1  0  0  0
 33 96  1  0  0  0
 34 97  1  0  0  0
 34 98  1  0  0  0
 34 99  1  0  0  0
 35100  1  0  0  0
 35101  1  0  0  0
 35102  1  0  0  0
 36103  1  0  0  0
 36104  1  0  0  0
 36105  1  0  0  0
 37 38  1  0  0  0
 37106  1  0  0  0
 37107  1  0  0  0
 38 39  1  0  0  0
 38108  1  0  0  0
 38109  1  0  0  0
 39110  1  0  0  0
 39111  1  0  0  0
 39112  1  0  0  0
 40113  1  0  0  0
 40114  1  0  0  0
 40115  1  0  0  0
 41116  1  0  0  0
 41117  1  0  0  0
 41118  1  0  0  0
 42 52  1  0  0  0
 42119  1  0  0  0
 42120  1  0  0  0
 42121  1  0  0  0
 43 53  1  0  0  0
 43122  1  0  0  0
 43123  1  0  0  0
 43124  1  0  0  0
 44 56  1  0  0  0
 44125  1  0  0  0
 44126  1  0  0  0
 44127  1  0  0  0
 49128  1  0  0  0
 51129  1  0  0  0
 54130  1  0  0  0
 55131  1  0  0  0
 57132  1  0  0  0
M  END
> <s_m_source_file>
../3ihz_ligand.sdf

> <i_m_source_file_index>
1

> <s_epik_input>
W0NIMl0xW0NIMl1bQ0BASF0oW09IXSlbQ0BIXShPW0NIM10pW0NIMl1bQ0BASF0xXFtDSF09QyhbQ0gzXSlcW0NAQEhdKE9DKD1PKVtDQEhdKFtDSDJdW0NIMl1bQ0gyXVtDSDJdMilOMkMoPU8pW0NAQEhdKFtPSF0pW0NAQF0zNFtPSF0pW0NASF0oW0NIM10pW0NAQEhdKFtPSF0pW0NIMl1bQ0hdKFtPSF0pW0NASF0oW0NIMl1bQ0gyXVtDSDNdKVxbQ0hdPUMoW0NIM10pXFtDSDJdW0NASF0oW0NIM10pW0NIMl1bQ0BIXShPW0NIM10pW0NAQEhdKE80KVtDQEBIXShPW0NIM10pW0NIMl1bQ0BIXTNbQ0gzXQ==

> <s_epik_cmdline>
J2VwaWtfYXBwJywgJy1pbWFlJywgJ2xpZ2FuZF9wcm8ubWFlJywgJy1vbWFlJywgJ2xpZ2FuZF9wcmVwLm1hZScsICctbXMnLCAnMScsICctcGgnLCAnNycsICctcGh0JywgJzAuNScsICctbnQn

> <r_lp_tautomer_probability>
1

> <r_epik_Ionization_Penalty>
  0.0073

> <r_epik_Ionization_Penalty_Charging>
  0.0000

> <r_epik_Ionization_Penalty_Neutral>
  0.0073

> <r_epik_State_Penalty>
 -0.0000

> <r_epik_Charging_Adjusted_Penalty>
0

> <i_epik_Tot_Q>
0

> <i_epik_Tot_abs_Q>
0

> <s_epik_Chemistry_Notes>
This compound has an ester and may undergo hydrolysis at high or low pH.

$$$$
