3iit_ligand
                    3D
 Schrodinger Suite 2020-3.
 57 61  0  0  1  0            999 V2000
   10.4520    8.4490   25.1530 C   0  0  0  0  0  0
   14.0180    7.5680   26.6040 Cl  0  0  0  0  0  0
    9.5760    7.9470   26.1650 C   0  0  0  0  0  0
    8.2060    8.0840   25.9700 C   0  0  0  0  0  0
    7.7600    8.7060   24.7800 C   0  0  0  0  0  0
    8.5920    9.1720   23.8040 N   0  0  0  0  0  0
    9.9130    9.0430   24.0080 C   0  0  0  0  0  0
   10.0790    7.3450   27.3280 C   0  0  0  0  0  0
   11.4720    7.2210   27.5020 C   0  0  0  0  0  0
   12.3150    7.7180   26.4760 C   0  0  0  0  0  0
   11.8280    8.3190   25.3060 C   0  0  0  0  0  0
    6.2860    8.8310   24.5350 C   0  0  0  0  0  0
    5.9570    8.4810   23.2990 N   0  0  0  0  0  0
    4.5950    8.5430   22.7980 C   0  0  2  0  0  0
    5.4500    9.1670   25.3670 O   0  0  0  0  0  0
    4.0160    7.1080   22.8100 C   0  0  1  0  0  0
    2.5940    7.1350   22.2150 C   0  0  0  0  0  0
    2.6240    7.6820   20.7620 C   0  0  0  0  0  0
    3.1720    9.1330   20.7340 C   0  0  0  0  0  0
    4.5650    9.2130   21.3970 C   0  0  0  0  0  0
    4.9090    6.2170   22.0710 N   0  0  0  0  0  0
    4.9270    4.8960   22.1870 C   0  0  0  0  0  0
    5.8190    4.2300   21.2040 C   0  0  0  0  0  0
    4.2640    4.2830   23.0260 O   0  0  0  0  0  0
    6.6590    4.8480   20.3500 N   0  0  0  0  0  0
    7.4150    3.8850   19.6790 C   0  0  0  0  0  0
    7.1700    2.6100   19.9970 C   0  0  0  0  0  0
    5.9520    2.4440   21.1930 S   0  0  0  0  0  0
    8.0040    1.6630   19.2310 C   0  0  0  0  0  0
    8.4870    2.5210   18.1260 N   0  3  1  0  0  0
    8.4650    3.9020   18.6340 C   0  0  0  0  0  0
    9.7600    2.0640   17.6110 C   0  0  0  0  0  0
    7.4955    7.7223   26.7132 H   0  0  0  0  0  0
   10.5961    9.4185   23.2461 H   0  0  0  0  0  0
    9.3962    6.9752   28.0929 H   0  0  0  0  0  0
   11.8880    6.7578   28.3967 H   0  0  0  0  0  0
   12.5115    8.6755   24.5354 H   0  0  0  0  0  0
    6.7687    8.1318   22.6438 H   0  0  0  0  0  0
    4.0150    9.1800   23.4820 H   0  0  0  0  0  0
    3.9784    6.6787   23.8221 H   0  0  0  0  0  0
    2.1813    6.1154   22.2049 H   0  0  0  0  0  0
    1.9521    7.7843   22.8285 H   0  0  0  0  0  0
    3.2732    7.0447   20.1436 H   0  0  0  0  0  0
    1.6050    7.6787   20.3478 H   0  0  0  0  0  0
    3.2582    9.4723   19.6912 H   0  0  0  0  0  0
    2.4838    9.7955   21.2794 H   0  0  0  0  0  0
    4.8345   10.2752   21.4927 H   0  0  0  0  0  0
    5.2851    8.7103   20.7346 H   0  0  0  0  0  0
    5.6340    6.6338   21.3565 H   0  0  0  0  0  0
    8.8130    1.2845   19.8731 H   0  0  0  0  0  0
    7.3835    0.8217   18.8888 H   0  0  0  0  0  0
    7.8573    2.4669   17.2257 H   0  0  0  0  0  0
    8.1925    4.6262   17.8521 H   0  0  0  0  0  0
    9.4257    4.1926   19.0841 H   0  0  0  0  0  0
    9.6624    1.0259   17.2604 H   0  0  0  0  0  0
   10.5166    2.1122   18.4080 H   0  0  0  0  0  0
   10.0685    2.7065   16.7731 H   0  0  0  0  0  0
  1  3  1  0  0  0
  1  7  2  0  0  0
  1 11  1  0  0  0
  2 10  1  0  0  0
  3  4  2  0  0  0
  3  8  1  0  0  0
  4  5  1  0  0  0
  4 33  1  0  0  0
  5  6  2  0  0  0
  5 12  1  0  0  0
  6  7  1  0  0  0
  7 34  1  0  0  0
  8  9  2  0  0  0
  8 35  1  0  0  0
  9 10  1  0  0  0
  9 36  1  0  0  0
 10 11  2  0  0  0
 11 37  1  0  0  0
 12 13  1  0  0  0
 12 15  2  0  0  0
 13 14  1  0  0  0
 13 38  1  0  0  0
 14 16  1  0  0  0
 14 20  1  0  0  0
 14 39  1  0  0  0
 16 17  1  0  0  0
 16 21  1  0  0  0
 16 40  1  0  0  0
 17 18  1  0  0  0
 17 41  1  0  0  0
 17 42  1  0  0  0
 18 19  1  0  0  0
 18 43  1  0  0  0
 18 44  1  0  0  0
 19 20  1  0  0  0
 19 45  1  0  0  0
 19 46  1  0  0  0
 20 47  1  0  0  0
 20 48  1  0  0  0
 21 22  1  0  0  0
 21 49  1  0  0  0
 22 23  1  0  0  0
 22 24  2  0  0  0
 23 25  2  0  0  0
 23 28  1  0  0  0
 25 26  1  0  0  0
 26 27  2  0  0  0
 26 31  1  0  0  0
 27 28  1  0  0  0
 27 29  1  0  0  0
 29 30  1  0  0  0
 29 50  1  0  0  0
 29 51  1  0  0  0
 30 31  1  0  0  0
 30 32  1  0  0  0
 30 52  1  0  0  0
 31 53  1  0  0  0
 31 54  1  0  0  0
 32 55  1  0  0  0
 32 56  1  0  0  0
 32 57  1  0  0  0
M  CHG  1  30   1
M  END
> <s_m_source_file>
../3iit_ligand.sdf

> <i_m_source_file_index>
1

> <s_epik_input>
Q2xjKFtjSF0xKVtjSF1bY0hdYyhjMTIpW2NIXWMobltjSF0yKUMoPU8pW05IXVtDQEBIXTNbQ0BASF0oW0NIMl1bQ0gyXVtDSDJdW0NIMl0zKVtOSF1DKD1PKWMobjQpc2MoYzQ1KVtDSDJdW05AQEgrXShbQ0gyXTUpW0NIM10=

> <s_epik_cmdline>
J2VwaWtfYXBwJywgJy1pbWFlJywgJ2xpZ2FuZF9wcm8ubWFlJywgJy1vbWFlJywgJ2xpZ2FuZF9wcmVwLm1hZScsICctbXMnLCAnMScsICctcGgnLCAnNycsICctcGh0JywgJzAuNScsICctbnQn

> <r_epik_Ionization_Penalty>
  0.0399

> <r_epik_Ionization_Penalty_Charging>
  0.0397

> <r_epik_Ionization_Penalty_Neutral>
  0.0002

> <r_epik_State_Penalty>
  0.0333

> <r_epik_Charging_Adjusted_Penalty>
0.0730169559661799

> <i_epik_Tot_Q>
1

> <i_epik_Tot_abs_Q>
1

$$$$
