3iiw_ligand
                    3D
 Schrodinger Suite 2020-3.
 89 88  0  0  1  0            999 V2000
  -21.1360  -36.2940   25.7300 N   0  3  0  0  0  0
  -19.8020  -35.6730   25.9670 C   0  0  2  0  0  0
  -19.9870  -34.2530   26.4810 C   0  0  0  0  0  0
  -20.7850  -33.4970   25.9460 O   0  0  0  0  0  0
  -18.9960  -35.6660   24.6810 C   0  0  0  0  0  0
  -19.2870  -33.9060   27.5510 N   0  0  0  0  0  0
  -19.3900  -32.5720   28.1270 C   0  0  2  0  0  0
  -18.2000  -31.7130   27.6790 C   0  0  0  0  0  0
  -17.1080  -32.2300   27.4930 O   0  0  0  0  0  0
  -19.4000  -32.6750   29.6470 C   0  0  0  0  0  0
  -19.7460  -31.3610   30.3540 C   0  0  0  0  0  0
  -21.0700  -30.7500   29.8850 C   0  0  0  0  0  0
  -20.9430  -29.3080   29.6630 N   0  0  0  0  0  0
  -21.0370  -28.7150   28.4760 C   0  0  0  0  0  0
  -21.2970  -29.4210   27.3800 N   0  0  0  0  0  0
  -20.8870  -27.3980   28.3920 N   0  3  0  0  0  0
  -18.4120  -30.4070   27.5360 N   0  0  0  0  0  0
  -17.3030  -29.5000   27.2430 C   0  0  1  0  0  0
  -17.8300  -28.3020   26.4520 C   0  0  0  0  0  0
  -16.6770  -27.4400   25.9200 C   0  0  0  0  0  0
  -17.2490  -26.1840   25.2570 C   0  0  0  0  0  0
  -16.1530  -25.3410   24.5820 C   0  0  0  0  0  0
  -16.6070  -24.1390   23.8380 N   0  3  0  0  0  0
  -16.4880  -29.1270   28.4550 C   0  0  0  0  0  0
  -15.3030  -28.8450   28.3330 O   0  0  0  0  0  0
  -15.4110  -23.4000   23.4000 C   0  0  0  0  0  0
  -17.4270  -23.2370   24.6730 C   0  0  0  0  0  0
  -17.3800  -24.4930   22.6340 C   0  0  0  0  0  0
  -17.0720  -29.1600   29.6530 N   0  0  0  0  0  0
  -16.2620  -28.9210   30.8590 C   0  0  2  0  0  0
  -16.4010  -29.9880   31.9500 C   0  0  0  0  0  0
  -17.4440  -30.6200   32.0560 O   0  0  0  0  0  0
  -16.5540  -27.5410   31.4410 C   0  0  0  0  0  0
  -17.9480  -27.3320   31.5570 O   0  0  0  0  0  0
  -15.3770  -30.1370   32.7910 N   0  0  0  0  0  0
  -15.4520  -31.0140   33.9700 C   0  0  2  0  0  0
  -16.1580  -30.3150   35.1260 C   0  0  0  0  0  0
  -17.3410  -30.5600   35.3820 O   0  5  0  0  0  0
  -14.0560  -31.4740   34.4040 C   0  0  0  0  0  0
  -15.6138  -29.5923   35.7322 O   0  0  0  0  0  0
  -21.7120  -36.2943   26.6671 H   0  0  0  0  0  0
  -21.0021  -37.3287   25.3816 H   0  0  0  0  0  0
  -21.6785  -35.7173   24.9664 H   0  0  0  0  0  0
  -19.2703  -36.2740   26.7194 H   0  0  0  0  0  0
  -18.8703  -36.6980   24.3214 H   0  0  0  0  0  0
  -18.0081  -35.2206   24.8699 H   0  0  0  0  0  0
  -19.5255  -35.0744   23.9197 H   0  0  0  0  0  0
  -18.6169  -34.6509   28.0050 H   0  0  0  0  0  0
  -20.3359  -32.1459   27.7613 H   0  0  0  0  0  0
  -20.1468  -33.4199   29.9591 H   0  0  0  0  0  0
  -18.4049  -32.9833   30.0002 H   0  0  0  0  0  0
  -19.8282  -31.5377   31.4366 H   0  0  0  0  0  0
  -18.9542  -30.6219   30.1623 H   0  0  0  0  0  0
  -21.3781  -31.2231   28.9409 H   0  0  0  0  0  0
  -21.8430  -30.9191   30.6492 H   0  0  0  0  0  0
  -20.7565  -28.6350   30.5129 H   0  0  0  0  0  0
  -21.4219  -30.5119   27.4453 H   0  0  0  0  0  0
  -21.3872  -28.9142   26.4079 H   0  0  0  0  0  0
  -20.6718  -26.8102   29.2965 H   0  0  0  0  0  0
  -19.4331  -30.0115   27.6402 H   0  0  0  0  0  0
  -16.5945  -30.0730   26.6268 H   0  0  0  0  0  0
  -18.4248  -28.6592   25.5984 H   0  0  0  0  0  0
  -18.4613  -27.6809   27.1044 H   0  0  0  0  0  0
  -16.0209  -27.1501   26.7540 H   0  0  0  0  0  0
  -16.0992  -28.0156   25.1819 H   0  0  0  0  0  0
  -17.9808  -26.4756   24.4892 H   0  0  0  0  0  0
  -17.7434  -25.5610   26.0169 H   0  0  0  0  0  0
  -15.4500  -24.9750   25.3448 H   0  0  0  0  0  0
  -15.6117  -25.9603   23.8516 H   0  0  0  0  0  0
  -14.8107  -23.1204   24.2783 H   0  0  0  0  0  0
  -15.7182  -22.4914   22.8615 H   0  0  0  0  0  0
  -14.8107  -24.0362   22.7330 H   0  0  0  0  0  0
  -16.8645  -22.9623   25.5775 H   0  0  0  0  0  0
  -18.3572  -23.7486   24.9610 H   0  0  0  0  0  0
  -17.6698  -22.3286   24.1021 H   0  0  0  0  0  0
  -16.7835  -25.1653   21.9999 H   0  0  0  0  0  0
  -17.6230  -23.5789   22.0724 H   0  0  0  0  0  0
  -18.3104  -24.9989   22.9313 H   0  0  0  0  0  0
  -18.1491  -29.3635   29.7453 H   0  0  0  0  0  0
  -15.2341  -28.9823   30.4722 H   0  0  0  0  0  0
  -16.0982  -27.4600   32.4388 H   0  0  0  0  0  0
  -16.1324  -26.7682   30.7815 H   0  0  0  0  0  0
  -18.3301  -26.3829   31.9610 H   0  0  0  0  0  0
  -14.4539  -29.5774   32.5796 H   0  0  0  0  0  0
  -16.0471  -31.8821   33.6503 H   0  0  0  0  0  0
  -13.5573  -31.9764   33.5620 H   0  0  0  0  0  0
  -14.1465  -32.1744   35.2474 H   0  0  0  0  0  0
  -13.4623  -30.6014   34.7141 H   0  0  0  0  0  0
  -20.9780  -26.8951   27.4179 H   0  0  0  0  0  0
  1  2  1  0  0  0
  1 41  1  0  0  0
  1 42  1  0  0  0
  1 43  1  0  0  0
  2  3  1  0  0  0
  2  5  1  0  0  0
  2 44  1  0  0  0
  3  4  2  0  0  0
  3  6  1  0  0  0
  5 45  1  0  0  0
  5 46  1  0  0  0
  5 47  1  0  0  0
  6  7  1  0  0  0
  6 48  1  0  0  0
  7  8  1  0  0  0
  7 10  1  0  0  0
  7 49  1  0  0  0
  8  9  2  0  0  0
  8 17  1  0  0  0
 10 11  1  0  0  0
 10 50  1  0  0  0
 10 51  1  0  0  0
 11 12  1  0  0  0
 11 52  1  0  0  0
 11 53  1  0  0  0
 12 13  1  0  0  0
 12 54  1  0  0  0
 12 55  1  0  0  0
 13 14  1  0  0  0
 13 56  1  0  0  0
 14 15  1  0  0  0
 14 16  2  0  0  0
 15 57  1  0  0  0
 15 58  1  0  0  0
 16 59  1  0  0  0
 16 89  1  0  0  0
 17 18  1  0  0  0
 17 60  1  0  0  0
 18 19  1  0  0  0
 18 24  1  0  0  0
 18 61  1  0  0  0
 19 20  1  0  0  0
 19 62  1  0  0  0
 19 63  1  0  0  0
 20 21  1  0  0  0
 20 64  1  0  0  0
 20 65  1  0  0  0
 21 22  1  0  0  0
 21 66  1  0  0  0
 21 67  1  0  0  0
 22 23  1  0  0  0
 22 68  1  0  0  0
 22 69  1  0  0  0
 23 26  1  0  0  0
 23 27  1  0  0  0
 23 28  1  0  0  0
 24 25  2  0  0  0
 24 29  1  0  0  0
 26 70  1  0  0  0
 26 71  1  0  0  0
 26 72  1  0  0  0
 27 73  1  0  0  0
 27 74  1  0  0  0
 27 75  1  0  0  0
 28 76  1  0  0  0
 28 77  1  0  0  0
 28 78  1  0  0  0
 29 30  1  0  0  0
 29 79  1  0  0  0
 30 31  1  0  0  0
 30 33  1  0  0  0
 30 80  1  0  0  0
 31 32  2  0  0  0
 31 35  1  0  0  0
 33 34  1  0  0  0
 33 81  1  0  0  0
 33 82  1  0  0  0
 34 83  1  0  0  0
 35 36  1  0  0  0
 35 84  1  0  0  0
 36 37  1  0  0  0
 36 39  1  0  0  0
 36 85  1  0  0  0
 37 38  1  0  0  0
 37 40  2  0  0  0
 39 86  1  0  0  0
 39 87  1  0  0  0
 39 88  1  0  0  0
M  CHG  4   1   1  16   1  23   1  38  -1
M  END
> <s_m_source_file>
../3iiw_ligand.sdf

> <i_m_source_file_index>
1

> <s_epik_input>
W0hdL049QyhbTkgyXSlcW05IXVtDSDJdW0NIMl1bQ0gyXVtDQEhdKFtOSF1DKD1PKVtDQEBIXShbTkgzK10pW0NIM10pQyg9TylbTkhdW0NAQEhdKFtDSDJdW0NIMl1bQ0gyXVtDSDJdW04rXShbQ0gzXSkoW0NIM10pW0NIM10pQyg9TylbTkhdW0NAQEhdKFtDSDJdW09IXSlDKD1PKVtOSF1bQ0BASF0oW0NIM10pQyg9TylbT0hd

> <s_epik_cmdline>
J2VwaWtfYXBwJywgJy1pbWFlJywgJ2xpZ2FuZF9wcm8ubWFlJywgJy1vbWFlJywgJ2xpZ2FuZF9wcmVwLm1hZScsICctbXMnLCAnMScsICctcGgnLCAnNycsICctcGh0JywgJzAuNScsICctbnQn

> <r_epik_Ionization_Penalty>
  0.1252

> <r_epik_Ionization_Penalty_Charging>
  0.1252

> <r_epik_Ionization_Penalty_Neutral>
  0.0000

> <r_epik_State_Penalty>
  0.1145

> <r_epik_Charging_Adjusted_Penalty>
0.239739400350025

> <i_epik_Tot_Q>
2

> <i_epik_Tot_abs_Q>
4

> <s_epik_Chemistry_Notes>
This compound has an imine and may undergo hydrolysis.

$$$$
