3iiy_ligand
                    3D
 Schrodinger Suite 2020-3.
116115  0  0  1  0            999 V2000
   20.9730    5.8700   19.0550 N   0  3  0  0  0  0
   19.7750    6.6830   19.4210 C   0  0  2  0  0  0
   19.9990    8.1490   19.0810 C   0  0  0  0  0  0
   20.7590    8.8340   19.7500 O   0  0  0  0  0  0
   19.4400    6.5220   20.8970 C   0  0  0  0  0  0
   19.3270    8.6170   18.0330 N   0  0  0  0  0  0
   19.4660    9.9870   17.5380 C   0  0  2  0  0  0
   18.2440   10.8470   17.8650 C   0  0  0  0  0  0
   17.1410   10.3240   18.0320 O   0  0  0  0  0  0
   19.7110    9.9670   16.0280 C   0  0  0  0  0  0
   20.8950    9.0960   15.6100 C   0  0  0  0  0  0
   22.2420    9.7050   16.0480 C   0  0  0  0  0  0
   23.1720    8.6930   16.5550 N   0  0  0  0  0  0
   23.9130    7.8860   15.7940 C   0  0  0  0  0  0
   23.8480    7.9450   14.4640 N   0  0  0  0  0  0
   24.7200    7.0070   16.3680 N   0  3  0  0  0  0
   18.4450   12.1580   17.9710 N   0  0  0  0  0  0
   17.3440   13.0900   18.2330 C   0  0  1  0  0  0
   17.8540   14.4380   18.7420 C   0  0  0  0  0  0
   16.8340   15.1060   19.6590 C   0  0  0  0  0  0
   17.3700   16.3890   20.2800 C   0  0  0  0  0  0
   16.3350   17.0470   21.1980 C   0  0  0  0  0  0
   16.7180   18.3780   21.7330 N   0  3  0  0  0  0
   16.4820   13.2570   17.0100 C   0  0  0  0  0  0
   15.2780   13.5060   17.1250 O   0  0  0  0  0  0
   15.4980   19.1340   22.0140 C   0  0  0  0  0  0
   17.5070   19.1560   20.7730 C   0  0  0  0  0  0
   17.4700   18.2540   22.9920 C   0  0  0  0  0  0
   17.1070   13.1200   15.8350 N   0  0  0  0  0  0
   16.4320   13.1280   14.5240 C   0  0  2  0  0  0
   17.1950   12.2850   13.4900 C   0  0  0  0  0  0
   18.3360   11.8770   13.7320 O   0  0  0  0  0  0
   16.2580   14.5610   14.0030 C   0  0  0  0  0  0
   17.5010   15.2340   13.9520 O   0  0  0  0  0  0
   16.5570   12.0460   12.3420 N   0  0  0  0  0  0
   17.1040   11.2220   11.2440 C   0  0  2  0  0  0
   18.6050   11.4140   10.9750 C   0  0  0  0  0  0
   19.0020   12.3750   10.2990 O   0  0  0  0  0  0
   16.2900   11.4470    9.9490 C   0  0  0  0  0  0
   19.4230   10.4930   11.4980 N   0  0  0  0  0  0
   20.8890   10.5700   11.3880 C   0  0  0  0  0  0
   21.4820   11.8470   11.9790 C   0  0  0  0  0  0
   21.7690   12.8000   11.2500 O   0  0  0  0  0  0
   21.6630   11.8720   13.2990 N   0  0  0  0  0  0
   22.1590   13.0740   13.9850 C   0  0  2  0  0  0
   23.5790   12.8830   14.5540 C   0  0  0  0  0  0
   24.5430   12.8080   13.7840 O   0  0  0  0  0  0
   21.1560   13.5530   15.0640 C   0  0  0  0  0  0
   23.7070   12.8120   15.8830 N   0  0  0  0  0  0
   25.0050   12.6320   16.5540 C   0  0  2  0  0  0
   24.8290   12.1560   17.9970 C   0  0  0  0  0  0
   24.0620   12.7420   18.7690 O   0  0  0  0  0  0
   25.8340   13.9300   16.5090 C   0  0  0  0  0  0
   21.1939    6.0034   17.9857 H   0  0  0  0  0  0
   20.7713    4.8079   19.2581 H   0  0  0  0  0  0
   21.8362    6.1999   19.6516 H   0  0  0  0  0  0
   18.9330    6.3019   18.8245 H   0  0  0  0  0  0
   19.2818    5.4572   21.1230 H   0  0  0  0  0  0
   18.5245    7.0860   21.1288 H   0  0  0  0  0  0
   20.2716    6.9065   21.5058 H   0  0  0  0  0  0
   18.6401    7.9185   17.5328 H   0  0  0  0  0  0
   20.3341   10.3993   18.0732 H   0  0  0  0  0  0
   18.8193    9.5750   15.5170 H   0  0  0  0  0  0
   19.9156   10.9889   15.6761 H   0  0  0  0  0  0
   20.8005    8.1023   16.0723 H   0  0  0  0  0  0
   20.9048    8.9915   14.5150 H   0  0  0  0  0  0
   22.7159   10.2028   15.1891 H   0  0  0  0  0  0
   22.0693   10.4398   16.8482 H   0  0  0  0  0  0
   23.2984    8.5561   17.6391 H   0  0  0  0  0  0
   23.1807    8.6717   13.9777 H   0  0  0  0  0  0
   24.4617    7.2669   13.8527 H   0  0  0  0  0  0
   24.7808    6.9505   17.4649 H   0  0  0  0  0  0
   19.4712   12.5373   17.8564 H   0  0  0  0  0  0
   16.7388   12.6189   19.0216 H   0  0  0  0  0  0
   18.7863   14.2880   19.3061 H   0  0  0  0  0  0
   18.0455   15.1039   17.8877 H   0  0  0  0  0  0
   15.9317   15.3573   19.0822 H   0  0  0  0  0  0
   16.5679   14.4175   20.4746 H   0  0  0  0  0  0
   18.2668   16.1615   20.8750 H   0  0  0  0  0  0
   17.6297   17.1014   19.4831 H   0  0  0  0  0  0
   15.3943   17.1908   20.6462 H   0  0  0  0  0  0
   16.1538   16.4003   22.0692 H   0  0  0  0  0  0
   14.9131   19.2433   21.0888 H   0  0  0  0  0  0
   15.7640   20.1293   22.3994 H   0  0  0  0  0  0
   14.8993   18.5979   22.7651 H   0  0  0  0  0  0
   16.9479   19.2508   19.8304 H   0  0  0  0  0  0
   18.4619   18.6441   20.5831 H   0  0  0  0  0  0
   17.7031   20.1568   21.1853 H   0  0  0  0  0  0
   16.8809   17.6707   23.7150 H   0  0  0  0  0  0
   17.6661   19.2557   23.4021 H   0  0  0  0  0  0
   18.4250   17.7430   22.7999 H   0  0  0  0  0  0
   18.1985   12.9951   15.8909 H   0  0  0  0  0  0
   15.4478   12.6749   14.7140 H   0  0  0  0  0  0
   15.8291   14.5334   12.9904 H   0  0  0  0  0  0
   15.5832   15.1150   14.6721 H   0  0  0  0  0  0
   17.5489   16.2748   13.5991 H   0  0  0  0  0  0
   15.5635   12.5073   12.2411 H   0  0  0  0  0  0
   16.9885   10.1979   11.6286 H   0  0  0  0  0  0
   15.2196   11.3058   10.1596 H   0  0  0  0  0  0
   16.6115   10.7252    9.1838 H   0  0  0  0  0  0
   16.4597   12.4701    9.5823 H   0  0  0  0  0  0
   18.9547    9.6509   12.0287 H   0  0  0  0  0  0
   21.3418    9.7211   11.9213 H   0  0  0  0  0  0
   21.1796   10.5340   10.3277 H   0  0  0  0  0  0
   21.4319   10.9649   13.8768 H   0  0  0  0  0  0
   22.2244   13.8303   13.1890 H   0  0  0  0  0  0
   20.1608   13.6744   14.6114 H   0  0  0  0  0  0
   21.4919   14.5165   15.4749 H   0  0  0  0  0  0
   21.1031   12.8083   15.8718 H   0  0  0  0  0  0
   22.7863   12.8945   16.4793 H   0  0  0  0  0  0
   25.5133   11.8424   15.9811 H   0  0  0  0  0  0
   25.3960   11.2799   18.3448 H   0  0  0  0  0  0
   25.9492   14.2555   15.4646 H   0  0  0  0  0  0
   26.8260   13.7468   16.9475 H   0  0  0  0  0  0
   25.3186   14.7143   17.0828 H   0  0  0  0  0  0
   25.3296    6.3333   15.7480 H   0  0  0  0  0  0
  1  2  1  0  0  0
  1 54  1  0  0  0
  1 55  1  0  0  0
  1 56  1  0  0  0
  2  3  1  0  0  0
  2  5  1  0  0  0
  2 57  1  0  0  0
  3  4  2  0  0  0
  3  6  1  0  0  0
  5 58  1  0  0  0
  5 59  1  0  0  0
  5 60  1  0  0  0
  6  7  1  0  0  0
  6 61  1  0  0  0
  7  8  1  0  0  0
  7 10  1  0  0  0
  7 62  1  0  0  0
  8  9  2  0  0  0
  8 17  1  0  0  0
 10 11  1  0  0  0
 10 63  1  0  0  0
 10 64  1  0  0  0
 11 12  1  0  0  0
 11 65  1  0  0  0
 11 66  1  0  0  0
 12 13  1  0  0  0
 12 67  1  0  0  0
 12 68  1  0  0  0
 13 14  1  0  0  0
 13 69  1  0  0  0
 14 15  1  0  0  0
 14 16  2  0  0  0
 15 70  1  0  0  0
 15 71  1  0  0  0
 16 72  1  0  0  0
 16116  1  0  0  0
 17 18  1  0  0  0
 17 73  1  0  0  0
 18 19  1  0  0  0
 18 24  1  0  0  0
 18 74  1  0  0  0
 19 20  1  0  0  0
 19 75  1  0  0  0
 19 76  1  0  0  0
 20 21  1  0  0  0
 20 77  1  0  0  0
 20 78  1  0  0  0
 21 22  1  0  0  0
 21 79  1  0  0  0
 21 80  1  0  0  0
 22 23  1  0  0  0
 22 81  1  0  0  0
 22 82  1  0  0  0
 23 26  1  0  0  0
 23 27  1  0  0  0
 23 28  1  0  0  0
 24 25  2  0  0  0
 24 29  1  0  0  0
 26 83  1  0  0  0
 26 84  1  0  0  0
 26 85  1  0  0  0
 27 86  1  0  0  0
 27 87  1  0  0  0
 27 88  1  0  0  0
 28 89  1  0  0  0
 28 90  1  0  0  0
 28 91  1  0  0  0
 29 30  1  0  0  0
 29 92  1  0  0  0
 30 31  1  0  0  0
 30 33  1  0  0  0
 30 93  1  0  0  0
 31 32  2  0  0  0
 31 35  1  0  0  0
 33 34  1  0  0  0
 33 94  1  0  0  0
 33 95  1  0  0  0
 34 96  1  0  0  0
 35 36  1  0  0  0
 35 97  1  0  0  0
 36 37  1  0  0  0
 36 39  1  0  0  0
 36 98  1  0  0  0
 37 38  2  0  0  0
 37 40  1  0  0  0
 39 99  1  0  0  0
 39100  1  0  0  0
 39101  1  0  0  0
 40 41  1  0  0  0
 40102  1  0  0  0
 41 42  1  0  0  0
 41103  1  0  0  0
 41104  1  0  0  0
 42 43  2  0  0  0
 42 44  1  0  0  0
 44 45  1  0  0  0
 44105  1  0  0  0
 45 46  1  0  0  0
 45 48  1  0  0  0
 45106  1  0  0  0
 46 47  2  0  0  0
 46 49  1  0  0  0
 48107  1  0  0  0
 48108  1  0  0  0
 48109  1  0  0  0
 49 50  1  0  0  0
 49110  1  0  0  0
 50 51  1  0  0  0
 50 53  1  0  0  0
 50111  1  0  0  0
 51 52  2  0  0  0
 51112  1  0  0  0
 53113  1  0  0  0
 53114  1  0  0  0
 53115  1  0  0  0
M  CHG  3   1   1  16   1  23   1
M  END
> <s_m_source_file>
../3iiy_ligand.sdf

> <i_m_source_file_index>
1

> <s_epik_input>
W0hdL049QyhbTkgyXSlcW05IXVtDSDJdW0NIMl1bQ0gyXVtDQEhdKFtOSF1DKD1PKVtDQEBIXShbTkgzK10pW0NIM10pQyg9TylbTkhdW0NAQEhdKFtDSDJdW0NIMl1bQ0gyXVtDSDJdW04rXShbQ0gzXSkoW0NIM10pW0NIM10pQyg9TylbTkhdW0NAQEhdKFtDSDJdW09IXSlDKD1PKVtOSF1bQ0BASF0oW0NIM10pQyg9TylbTkhdW0NIMl1DKD1PKVtOSF1bQ0BASF0oW0NIM10pQyg9TylbTkhdW0NASF0oW0NIXT1PKVtDSDNd

> <s_epik_cmdline>
J2VwaWtfYXBwJywgJy1pbWFlJywgJ2xpZ2FuZF9wcm8ubWFlJywgJy1vbWFlJywgJ2xpZ2FuZF9wcmVwLm1hZScsICctbXMnLCAnMScsICctcGgnLCAnNycsICctcGh0JywgJzAuNScsICctbnQn

> <r_lp_tautomer_probability>
0.99990000499975

> <r_epik_Ionization_Penalty>
  0.1253

> <r_epik_Ionization_Penalty_Charging>
  0.1251

> <r_epik_Ionization_Penalty_Neutral>
  0.0002

> <r_epik_State_Penalty>
  0.1145

> <r_epik_Charging_Adjusted_Penalty>
0.239600314791289

> <i_epik_Tot_Q>
3

> <i_epik_Tot_abs_Q>
3

> <s_epik_Chemistry_Notes>
This compound has an imine and may undergo hydrolysis.

$$$$
