3ij0_ligand
                    3D
 Schrodinger Suite 2020-3.
 93 92  0  0  1  0            999 V2000
   21.2420    6.1980   19.7460 N   0  3  0  0  0  0
   19.9110    6.8190   19.4890 C   0  0  2  0  0  0
   20.0400    8.2560   18.9880 C   0  0  0  0  0  0
   20.7070    9.0750   19.6090 O   0  0  0  0  0  0
   19.0400    6.7670   20.7450 C   0  0  0  0  0  0
   19.3900    8.5480   17.8640 N   0  0  0  0  0  0
   19.4030    9.8780   17.2510 C   0  0  2  0  0  0
   18.2370   10.7310   17.7690 C   0  0  0  0  0  0
   17.1740   10.1950   18.1110 O   0  0  0  0  0  0
   19.2970    9.7660   15.7180 C   0  0  0  0  0  0
   20.5670    9.2970   14.9880 C   0  0  0  0  0  0
   20.3310    9.1220   13.4540 C   0  0  0  0  0  0
   19.8500   10.3410   12.7790 N   0  0  0  0  0  0
   20.6260   11.3400   12.3390 C   0  0  0  0  0  0
   20.0680   12.3920   11.7450 N   0  3  0  0  0  0
   21.9500   11.3040   12.4870 N   0  0  0  0  0  0
   18.4430   12.0500   17.8150 N   0  0  0  0  0  0
   17.3830   12.9980   18.1740 C   0  0  1  0  0  0
   17.9180   14.3100   18.7780 C   0  0  0  0  0  0
   16.9140   14.9520   19.7340 C   0  0  0  0  0  0
   17.2220   16.4110   20.0580 C   0  0  0  0  0  0
   16.2870   16.9900   21.1390 C   0  0  0  0  0  0
   16.7140   18.2640   21.7850 N   0  3  0  0  0  0
   16.4540   13.2430   17.0030 C   0  0  0  0  0  0
   15.2690   13.5500   17.2050 O   0  0  0  0  0  0
   15.5060   18.9370   22.2750 C   0  0  0  0  0  0
   17.4170   19.1800   20.8650 C   0  0  0  0  0  0
   17.6000   18.0090   22.9400 C   0  0  0  0  0  0
   16.9820   13.1090   15.7790 N   0  0  0  0  0  0
   16.1820   13.2000   14.5350 C   0  0  2  0  0  0
   16.7060   12.2740   13.4370 C   0  0  0  0  0  0
   17.8500   11.8270   13.4940 O   0  0  0  0  0  0
   16.1480   14.6390   14.0030 C   0  0  0  0  0  0
   17.4430   15.0620   13.6240 O   0  0  0  0  0  0
   15.8730   12.0120   12.4280 N   0  0  0  0  0  0
   16.2660   11.1950   11.2620 C   0  0  2  0  0  0
   17.2200   11.9190   10.3090 C   0  0  0  0  0  0
   17.1904   13.1735   10.1956 O   0  0  0  0  0  0
   15.0330   10.7110   10.4640 C   0  0  2  0  0  0
   13.9190   11.5860   10.7110 O   0  0  0  0  0  0
   14.6600    9.2800   10.8650 C   0  0  0  0  0  0
   18.0453   11.2522    9.6294 O   0  5  0  0  0  0
   21.8516    6.2458   18.8316 H   0  0  0  0  0  0
   21.1055    5.1472   20.0412 H   0  0  0  0  0  0
   21.7508    6.7429   20.5548 H   0  0  0  0  0  0
   19.4476    6.2179   18.6928 H   0  0  0  0  0  0
   18.9580    5.7262   21.0915 H   0  0  0  0  0  0
   18.0377    7.1561   20.5125 H   0  0  0  0  0  0
   19.4978    7.3813   21.5343 H   0  0  0  0  0  0
   18.8232    7.7311   17.3936 H   0  0  0  0  0  0
   20.3648   10.3189   17.5519 H   0  0  0  0  0  0
   18.5097    9.0436   15.4567 H   0  0  0  0  0  0
   19.0468   10.7501   15.2949 H   0  0  0  0  0  0
   21.3665   10.0392   15.1295 H   0  0  0  0  0  0
   20.8891    8.3285   15.3981 H   0  0  0  0  0  0
   21.2747    8.8328   12.9685 H   0  0  0  0  0  0
   19.5772    8.3387   13.2860 H   0  0  0  0  0  0
   18.7738   10.4832   12.6016 H   0  0  0  0  0  0
   18.9765   12.4358   11.6157 H   0  0  0  0  0  0
   22.4255   10.4410   12.9760 H   0  0  0  0  0  0
   22.5673   12.1373   12.1201 H   0  0  0  0  0  0
   19.4506   12.4180   17.5715 H   0  0  0  0  0  0
   16.8164   12.4799   18.9618 H   0  0  0  0  0  0
   18.8426   14.1057   19.3378 H   0  0  0  0  0  0
   18.1291   15.0262   17.9703 H   0  0  0  0  0  0
   15.9098   14.9210   19.2861 H   0  0  0  0  0  0
   16.9084   14.3995   20.6852 H   0  0  0  0  0  0
   18.2553   16.4946   20.4259 H   0  0  0  0  0  0
   17.1057   17.0207   19.1499 H   0  0  0  0  0  0
   15.3004   17.1960   20.6984 H   0  0  0  0  0  0
   16.1785   16.2632   21.9575 H   0  0  0  0  0  0
   14.8299   19.1374   21.4307 H   0  0  0  0  0  0
   15.7846   19.8867   22.7551 H   0  0  0  0  0  0
   14.9978   18.2915   23.0065 H   0  0  0  0  0  0
   16.7777   19.3869   19.9941 H   0  0  0  0  0  0
   18.3549   18.7136   20.5289 H   0  0  0  0  0  0
   17.6422   20.1219   21.3866 H   0  0  0  0  0  0
   17.0989   17.3273   23.6430 H   0  0  0  0  0  0
   17.8239   18.9591   23.4471 H   0  0  0  0  0  0
   18.5366   17.5508   22.5895 H   0  0  0  0  0  0
   18.0648   12.9230   15.7242 H   0  0  0  0  0  0
   15.1764   12.8710   14.8359 H   0  0  0  0  0  0
   15.4862   14.6901   13.1258 H   0  0  0  0  0  0
   15.7697   15.3111   14.7873 H   0  0  0  0  0  0
   17.5948   16.0738   13.2200 H   0  0  0  0  0  0
   14.8580   12.4317   12.4885 H   0  0  0  0  0  0
   16.8007   10.3539   11.7275 H   0  0  0  0  0  0
   15.2231   10.7649    9.3819 H   0  0  0  0  0  0
   14.0012   12.6589   10.4828 H   0  0  0  0  0  0
   15.5131    8.6119   10.6755 H   0  0  0  0  0  0
   13.7949    8.9470   10.2729 H   0  0  0  0  0  0
   14.4043    9.2538   11.9345 H   0  0  0  0  0  0
   20.6983   13.2178   11.3833 H   0  0  0  0  0  0
  1  2  1  0  0  0
  1 43  1  0  0  0
  1 44  1  0  0  0
  1 45  1  0  0  0
  2  3  1  0  0  0
  2  5  1  0  0  0
  2 46  1  0  0  0
  3  4  2  0  0  0
  3  6  1  0  0  0
  5 47  1  0  0  0
  5 48  1  0  0  0
  5 49  1  0  0  0
  6  7  1  0  0  0
  6 50  1  0  0  0
  7  8  1  0  0  0
  7 10  1  0  0  0
  7 51  1  0  0  0
  8  9  2  0  0  0
  8 17  1  0  0  0
 10 11  1  0  0  0
 10 52  1  0  0  0
 10 53  1  0  0  0
 11 12  1  0  0  0
 11 54  1  0  0  0
 11 55  1  0  0  0
 12 13  1  0  0  0
 12 56  1  0  0  0
 12 57  1  0  0  0
 13 14  1  0  0  0
 13 58  1  0  0  0
 14 15  2  0  0  0
 14 16  1  0  0  0
 15 59  1  0  0  0
 15 93  1  0  0  0
 16 60  1  0  0  0
 16 61  1  0  0  0
 17 18  1  0  0  0
 17 62  1  0  0  0
 18 19  1  0  0  0
 18 24  1  0  0  0
 18 63  1  0  0  0
 19 20  1  0  0  0
 19 64  1  0  0  0
 19 65  1  0  0  0
 20 21  1  0  0  0
 20 66  1  0  0  0
 20 67  1  0  0  0
 21 22  1  0  0  0
 21 68  1  0  0  0
 21 69  1  0  0  0
 22 23  1  0  0  0
 22 70  1  0  0  0
 22 71  1  0  0  0
 23 26  1  0  0  0
 23 27  1  0  0  0
 23 28  1  0  0  0
 24 25  2  0  0  0
 24 29  1  0  0  0
 26 72  1  0  0  0
 26 73  1  0  0  0
 26 74  1  0  0  0
 27 75  1  0  0  0
 27 76  1  0  0  0
 27 77  1  0  0  0
 28 78  1  0  0  0
 28 79  1  0  0  0
 28 80  1  0  0  0
 29 30  1  0  0  0
 29 81  1  0  0  0
 30 31  1  0  0  0
 30 33  1  0  0  0
 30 82  1  0  0  0
 31 32  2  0  0  0
 31 35  1  0  0  0
 33 34  1  0  0  0
 33 83  1  0  0  0
 33 84  1  0  0  0
 34 85  1  0  0  0
 35 36  1  0  0  0
 35 86  1  0  0  0
 36 37  1  0  0  0
 36 39  1  0  0  0
 36 87  1  0  0  0
 37 38  2  0  0  0
 37 42  1  0  0  0
 39 40  1  0  0  0
 39 41  1  0  0  0
 39 88  1  0  0  0
 40 89  1  0  0  0
 41 90  1  0  0  0
 41 91  1  0  0  0
 41 92  1  0  0  0
M  CHG  4   1   1  15   1  23   1  42  -1
M  END
> <s_m_source_file>
../3ij0_ligand.sdf

> <i_m_source_file_index>
1

> <s_epik_input>
W0hdL049QyhbTkgyXSlcW05IXVtDSDJdW0NIMl1bQ0gyXVtDQEhdKFtOSF1DKD1PKVtDQEBIXShbTkgzK10pW0NIM10pQyg9TylbTkhdW0NAQEhdKFtDSDJdW0NIMl1bQ0gyXVtDSDJdW04rXShbQ0gzXSkoW0NIM10pW0NIM10pQyg9TylbTkhdW0NAQEhdKFtDSDJdW09IXSlDKD1PKVtOSF1bQ0BIXShDKD1PKVtPSF0pW0NASF0oW09IXSlbQ0gzXQ==

> <s_epik_cmdline>
J2VwaWtfYXBwJywgJy1pbWFlJywgJ2xpZ2FuZF9wcm8ubWFlJywgJy1vbWFlJywgJ2xpZ2FuZF9wcmVwLm1hZScsICctbXMnLCAnMScsICctcGgnLCAnNycsICctcGh0JywgJzAuNScsICctbnQn

> <r_epik_Ionization_Penalty>
  0.1252

> <r_epik_Ionization_Penalty_Charging>
  0.1252

> <r_epik_Ionization_Penalty_Neutral>
  0.0000

> <r_epik_State_Penalty>
  0.1145

> <r_epik_Charging_Adjusted_Penalty>
0.239731341109826

> <i_epik_Tot_Q>
2

> <i_epik_Tot_abs_Q>
4

> <s_epik_Chemistry_Notes>
This compound has an imine and may undergo hydrolysis.

$$$$
