3ij1_ligand
                    3D
 Schrodinger Suite 2020-3.
154154  0  0  1  0            999 V2000
   24.2930    5.9760   17.8210 N   0  3  0  0  0  0
   23.1310    5.0390   17.8440 C   0  0  2  0  0  0
   21.7760    5.7640   17.7850 C   0  0  0  0  0  0
   21.0030    5.5650   16.8460 O   0  0  0  0  0  0
   23.1930    4.1290   19.0810 C   0  0  0  0  0  0
   22.0190    3.1490   19.1830 C   0  0  0  0  0  0
   21.7330    2.7190   20.6160 C   0  0  0  0  0  0
   22.7450    1.7980   21.1280 N   0  0  0  0  0  0
   22.6620    1.1510   22.2890 C   0  0  0  0  0  0
   21.6040    1.3100   23.0820 N   0  0  0  0  0  0
   23.6430    0.3380   22.6590 N   0  0  0  0  0  0
   21.5060    6.5980   18.7870 N   0  0  0  0  0  0
   20.1770    7.1880   19.0100 C   0  0  2  0  0  0
   20.0720    8.6580   18.5940 C   0  0  0  0  0  0
   20.5660    9.5410   19.2920 O   0  0  0  0  0  0
   19.7570    7.0240   20.4830 C   0  0  0  0  0  0
   20.8730    6.6080   21.3950 C   0  0  0  0  0  0
   20.7430    5.5800   22.3040 N   0  0  0  0  0  0
   22.1450    7.0620   21.5230 C   0  0  0  0  0  0
   21.8810    5.4230   22.9580 C   0  0  0  0  0  0
   22.7490    6.3090   22.5010 N   0  0  0  0  0  0
   19.4080    8.9100   17.4690 N   0  0  0  0  0  0
   19.2820   10.2590   16.9140 C   0  0  2  0  0  0
   18.1120   11.0340   17.5240 C   0  0  0  0  0  0
   17.0570   10.4630   17.7950 O   0  0  0  0  0  0
   19.0820   10.1990   15.4000 C   0  0  0  0  0  0
   20.0960    9.3600   14.6270 C   0  0  0  0  0  0
   19.8430    9.4790   13.1240 C   0  0  0  0  0  0
   19.9030   10.8790   12.6920 N   0  0  0  0  0  0
   21.0180   11.5160   12.3330 C   0  0  0  0  0  0
   22.1870   10.8790   12.3280 N   0  0  0  0  0  0
   20.9620   12.7940   11.9690 N   0  0  0  0  0  0
   18.3100   12.3350   17.7280 N   0  0  0  0  0  0
   17.2420   13.2390   18.1670 C   0  0  1  0  0  0
   17.8030   14.4930   18.8450 C   0  0  0  0  0  0
   16.7350   15.2010   19.6770 C   0  0  0  0  0  0
   17.2430   16.5280   20.2310 C   0  0  0  0  0  0
   16.1100   17.3510   20.8610 C   0  0  0  0  0  0
   16.5580   18.5250   21.6540 N   0  3  0  0  0  0
   16.3590   13.6240   17.0110 C   0  0  0  0  0  0
   15.1410   13.7160   17.1540 O   0  0  0  0  0  0
   15.3710   19.2590   22.1180 C   0  0  0  0  0  0
   17.3890   19.4370   20.8470 C   0  0  0  0  0  0
   17.3250   18.1030   22.8410 C   0  0  0  0  0  0
   16.9790   13.8450   15.8530 N   0  0  0  0  0  0
   16.2650   14.2020   14.6270 C   0  0  2  0  0  0
   16.5090   13.1760   13.5160 C   0  0  0  0  0  0
   17.5530   12.5140   13.4820 O   0  0  0  0  0  0
   16.6340   15.6350   14.1330 C   0  0  0  0  0  0
   16.3840   16.6720   15.2310 C   0  0  0  0  0  0
   18.0840   15.7000   13.6460 C   0  0  0  0  0  0
   15.5430   13.0540   12.6090 N   0  0  0  0  0  0
   15.6490   12.1320   11.4830 C   0  0  2  0  0  0
   16.7370   12.5510   10.4960 C   0  0  0  0  0  0
   16.8590   13.7270   10.1470 O   0  0  0  0  0  0
   14.3060   12.0060   10.7620 C   0  0  0  0  0  0
   13.2420   11.0890   11.3680 C   0  0  0  0  0  0
   11.8950   11.3920   10.7390 C   0  0  0  0  0  0
   13.6080    9.6170   11.1910 C   0  0  0  0  0  0
   17.5150   11.5690   10.0480 N   0  0  0  0  0  0
   18.6630   11.8040    9.1720 C   0  0  2  0  0  0
   18.2470   12.1930    7.7490 C   0  0  0  0  0  0
   17.0600   12.1770    7.4010 O   0  0  0  0  0  0
   19.5640   10.5630    9.1520 C   0  0  0  0  0  0
   21.0050   10.8280    8.7300 C   0  0  0  0  0  0
   21.8150    9.5360    8.7560 C   0  0  0  0  0  0
   23.0610    9.6400    7.9930 N   0  0  0  0  0  0
   24.2240   10.0660    8.4860 C   0  0  0  0  0  0
   24.3280   10.4400    9.7580 N   0  0  0  0  0  0
   25.2940   10.1170    7.6990 N   0  0  0  0  0  0
   24.2295    6.6170   16.9294 H   0  0  0  0  0  0
   25.2289    5.3988   17.7917 H   0  0  0  0  0  0
   24.2767    6.6025   18.7250 H   0  0  0  0  0  0
   23.2351    4.4415   16.9263 H   0  0  0  0  0  0
   24.1166    3.5322   19.0512 H   0  0  0  0  0  0
   23.1846    4.7465   19.9913 H   0  0  0  0  0  0
   21.1095    3.6239   18.7865 H   0  0  0  0  0  0
   22.2446    2.2445   18.5991 H   0  0  0  0  0  0
   21.7158    3.6047   21.2681 H   0  0  0  0  0  0
   20.7573    2.2129   20.6592 H   0  0  0  0  0  0
   23.6543    1.5988   20.5419 H   0  0  0  0  0  0
   20.7872    1.9826   22.7811 H   0  0  0  0  0  0
   21.5469    0.7688   24.0379 H   0  0  0  0  0  0
   24.5197    0.2022   22.0086 H   0  0  0  0  0  0
   22.3364    6.8405   19.4664 H   0  0  0  0  0  0
   19.5276    6.6097   18.3364 H   0  0  0  0  0  0
   19.3685    7.9807   20.8622 H   0  0  0  0  0  0
   18.9741    6.2549   20.5576 H   0  0  0  0  0  0
   22.7086    7.8588   21.0156 H   0  0  0  0  0  0
   22.0711    4.6884   23.7405 H   0  0  0  0  0  0
   18.9436    8.0571   16.9523 H   0  0  0  0  0  0
   20.2328   10.7436   17.1807 H   0  0  0  0  0  0
   18.0945    9.7684   15.1774 H   0  0  0  0  0  0
   19.1419   11.2146   14.9817 H   0  0  0  0  0  0
   21.1126    9.7159   14.8504 H   0  0  0  0  0  0
   20.0029    8.3054   14.9255 H   0  0  0  0  0  0
   20.6073    8.9074   12.5771 H   0  0  0  0  0  0
   18.8463    9.0785   12.8871 H   0  0  0  0  0  0
   18.9833   11.4808   12.6475 H   0  0  0  0  0  0
   22.2387    9.8220   12.6282 H   0  0  0  0  0  0
   23.1012   11.4097   12.0237 H   0  0  0  0  0  0
   19.9986   13.3249   11.9714 H   0  0  0  0  0  0
   19.3237   12.7250   17.5538 H   0  0  0  0  0  0
   16.6525   12.6582   18.8916 H   0  0  0  0  0  0
   18.6329   14.2104   19.5094 H   0  0  0  0  0  0
   18.1687   15.1919   18.0783 H   0  0  0  0  0  0
   15.8542   15.4013   19.0492 H   0  0  0  0  0  0
   16.4444   14.5603   20.5226 H   0  0  0  0  0  0
   18.0025   16.3362   21.0033 H   0  0  0  0  0  0
   17.6888   17.1186   19.4171 H   0  0  0  0  0  0
   15.4524   17.7368   20.0681 H   0  0  0  0  0  0
   15.5278   16.7126   21.5418 H   0  0  0  0  0  0
   14.7796   19.5860   21.2500 H   0  0  0  0  0  0
   15.6873   20.1382   22.6985 H   0  0  0  0  0  0
   14.7583   18.6017   22.7525 H   0  0  0  0  0  0
   16.8250   19.7575   19.9586 H   0  0  0  0  0  0
   18.3050   18.9160   20.5316 H   0  0  0  0  0  0
   17.6570   20.3180   21.4487 H   0  0  0  0  0  0
   16.7127   17.4216   23.4500 H   0  0  0  0  0  0
   17.5931   18.9873   23.4377 H   0  0  0  0  0  0
   18.2411   17.5853   22.5205 H   0  0  0  0  0  0
   18.0748   13.7490   15.8432 H   0  0  0  0  0  0
   15.2080   14.1622   14.9289 H   0  0  0  0  0  0
   15.9910   15.8911   13.2780 H   0  0  0  0  0  0
   15.3380   16.6073   15.5651 H   0  0  0  0  0  0
   16.5810   17.6794   14.8356 H   0  0  0  0  0  0
   17.0534   16.4744   16.0812 H   0  0  0  0  0  0
   18.2405   14.9477   12.8589 H   0  0  0  0  0  0
   18.7628   15.4970   14.4874 H   0  0  0  0  0  0
   18.2905   16.7020   13.2418 H   0  0  0  0  0  0
   14.6434   13.6758   12.7279 H   0  0  0  0  0  0
   15.9337   11.1738   11.9420 H   0  0  0  0  0  0
   13.8274   12.9947   10.7029 H   0  0  0  0  0  0
   14.4702   11.6168    9.7463 H   0  0  0  0  0  0
   13.1785   11.2819   12.4491 H   0  0  0  0  0  0
   11.6555   12.4563   10.8801 H   0  0  0  0  0  0
   11.1199   10.7752   11.2173 H   0  0  0  0  0  0
   11.9330   11.1642    9.6635 H   0  0  0  0  0  0
   14.5866    9.4242   11.6548 H   0  0  0  0  0  0
   13.6570    9.3778   10.1184 H   0  0  0  0  0  0
   12.8440    8.9888   11.6722 H   0  0  0  0  0  0
   17.2643   10.5455   10.3634 H   0  0  0  0  0  0
   19.1863   12.6619    9.6195 H   0  0  0  0  0  0
   19.0264   12.4903    7.0320 H   0  0  0  0  0  0
   19.6038   10.1225   10.1592 H   0  0  0  0  0  0
   19.1565    9.8253    8.4451 H   0  0  0  0  0  0
   21.0187   11.2380    7.7093 H   0  0  0  0  0  0
   21.4626   11.5507    9.4216 H   0  0  0  0  0  0
   22.0742    9.2866    9.7955 H   0  0  0  0  0  0
   21.2186    8.7205    8.3211 H   0  0  0  0  0  0
   23.0809    9.3551    6.9307 H   0  0  0  0  0  0
   23.4477   10.4011   10.4165 H   0  0  0  0  0  0
   25.2943   10.7883   10.1516 H   0  0  0  0  0  0
   25.2171    9.8096    6.6456 H   0  0  0  0  0  0
  1  2  1  0  0  0
  1 71  1  0  0  0
  1 72  1  0  0  0
  1 73  1  0  0  0
  2  3  1  0  0  0
  2  5  1  0  0  0
  2 74  1  0  0  0
  3  4  2  0  0  0
  3 12  1  0  0  0
  5  6  1  0  0  0
  5 75  1  0  0  0
  5 76  1  0  0  0
  6  7  1  0  0  0
  6 77  1  0  0  0
  6 78  1  0  0  0
  7  8  1  0  0  0
  7 79  1  0  0  0
  7 80  1  0  0  0
  8  9  1  0  0  0
  8 81  1  0  0  0
  9 10  1  0  0  0
  9 11  2  0  0  0
 10 82  1  0  0  0
 10 83  1  0  0  0
 11 84  1  0  0  0
 12 13  1  0  0  0
 12 85  1  0  0  0
 13 14  1  0  0  0
 13 16  1  0  0  0
 13 86  1  0  0  0
 14 15  2  0  0  0
 14 22  1  0  0  0
 16 17  1  0  0  0
 16 87  1  0  0  0
 16 88  1  0  0  0
 17 18  2  0  0  0
 17 19  1  0  0  0
 18 20  1  0  0  0
 19 21  2  0  0  0
 19 89  1  0  0  0
 20 21  1  0  0  0
 20 90  1  0  0  0
 22 23  1  0  0  0
 22 91  1  0  0  0
 23 24  1  0  0  0
 23 26  1  0  0  0
 23 92  1  0  0  0
 24 25  2  0  0  0
 24 33  1  0  0  0
 26 27  1  0  0  0
 26 93  1  0  0  0
 26 94  1  0  0  0
 27 28  1  0  0  0
 27 95  1  0  0  0
 27 96  1  0  0  0
 28 29  1  0  0  0
 28 97  1  0  0  0
 28 98  1  0  0  0
 29 30  1  0  0  0
 29 99  1  0  0  0
 30 31  1  0  0  0
 30 32  2  0  0  0
 31100  1  0  0  0
 31101  1  0  0  0
 32102  1  0  0  0
 33 34  1  0  0  0
 33103  1  0  0  0
 34 35  1  0  0  0
 34 40  1  0  0  0
 34104  1  0  0  0
 35 36  1  0  0  0
 35105  1  0  0  0
 35106  1  0  0  0
 36 37  1  0  0  0
 36107  1  0  0  0
 36108  1  0  0  0
 37 38  1  0  0  0
 37109  1  0  0  0
 37110  1  0  0  0
 38 39  1  0  0  0
 38111  1  0  0  0
 38112  1  0  0  0
 39 42  1  0  0  0
 39 43  1  0  0  0
 39 44  1  0  0  0
 40 41  2  0  0  0
 40 45  1  0  0  0
 42113  1  0  0  0
 42114  1  0  0  0
 42115  1  0  0  0
 43116  1  0  0  0
 43117  1  0  0  0
 43118  1  0  0  0
 44119  1  0  0  0
 44120  1  0  0  0
 44121  1  0  0  0
 45 46  1  0  0  0
 45122  1  0  0  0
 46 47  1  0  0  0
 46 49  1  0  0  0
 46123  1  0  0  0
 47 48  2  0  0  0
 47 52  1  0  0  0
 49 50  1  0  0  0
 49 51  1  0  0  0
 49124  1  0  0  0
 50125  1  0  0  0
 50126  1  0  0  0
 50127  1  0  0  0
 51128  1  0  0  0
 51129  1  0  0  0
 51130  1  0  0  0
 52 53  1  0  0  0
 52131  1  0  0  0
 53 54  1  0  0  0
 53 56  1  0  0  0
 53132  1  0  0  0
 54 55  2  0  0  0
 54 60  1  0  0  0
 56 57  1  0  0  0
 56133  1  0  0  0
 56134  1  0  0  0
 57 58  1  0  0  0
 57 59  1  0  0  0
 57135  1  0  0  0
 58136  1  0  0  0
 58137  1  0  0  0
 58138  1  0  0  0
 59139  1  0  0  0
 59140  1  0  0  0
 59141  1  0  0  0
 60 61  1  0  0  0
 60142  1  0  0  0
 61 62  1  0  0  0
 61 64  1  0  0  0
 61143  1  0  0  0
 62 63  2  0  0  0
 62144  1  0  0  0
 64 65  1  0  0  0
 64145  1  0  0  0
 64146  1  0  0  0
 65 66  1  0  0  0
 65147  1  0  0  0
 65148  1  0  0  0
 66 67  1  0  0  0
 66149  1  0  0  0
 66150  1  0  0  0
 67 68  1  0  0  0
 67151  1  0  0  0
 68 69  1  0  0  0
 68 70  2  0  0  0
 69152  1  0  0  0
 69153  1  0  0  0
 70154  1  0  0  0
M  CHG  2   1   1  39   1
M  END
> <s_m_source_file>
../3ij1_ligand.sdf

> <i_m_source_file_index>
1

> <s_epik_input>
W0hdL049QyhbTkgyXSlcW05IXVtDSDJdW0NIMl1bQ0gyXVtDQEhdKFtOSDMrXSlDKD1PKVtOSF1bQ0BASF0oW0NIMl1DMT1OW0NIMl1OPVtDSF0xKUMoPU8pW05IXVtDQEBIXShbQ0gyXVtDSDJdW0NIMl1bTkhdL0MoW05IMl0pPU5cW0hdKUMoPU8pW05IXVtDQEBIXShbQ0gyXVtDSDJdW0NIMl1bQ0gyXVtOK10oW0NIM10pKFtDSDNdKVtDSDNdKUMoPU8pW05IXVtDQEBIXShbQ0hdKFtDSDNdKVtDSDNdKUMoPU8pW05IXVtDQEBIXShbQ0gyXVtDSF0oW0NIM10pW0NIM10pQyg9TylbTkhdW0NASF0oW0NIXT1PKVtDSDJdW0NIMl1bQ0gyXVtOSF0vQyhbTkgyXSk9TlxbSF0=

> <s_epik_cmdline>
J2VwaWtfYXBwJywgJy1pbWFlJywgJ2xpZ2FuZF9wcm8ubWFlJywgJy1vbWFlJywgJ2xpZ2FuZF9wcmVwLm1hZScsICctbXMnLCAnMScsICctcGgnLCAnNycsICctcGh0JywgJzAuNScsICctbnQn

> <s_epik_pKa_notes>
Molecule size exceeds maximum supported for generating protonation states

> <s_epik_Chemistry_Notes>
This compound has an imine and may undergo hydrolysis.

$$$$
