3ijg_ligand
                    3D
 Schrodinger Suite 2020-3.
 34 35  0  0  1  0            999 V2000
   14.0140   43.3950   15.5940 C   0  0  0  0  0  0
   11.9950   43.5600   14.2750 N   0  0  0  0  0  0
   14.7820   43.8590   14.7510 O   0  0  0  0  0  0
   14.6900   40.4830   17.7380 N   0  0  0  0  0  0
   13.9780   41.0640   16.7700 C   0  0  0  0  0  0
   14.4940   42.3390   16.5900 C   0  0  0  0  0  0
   15.5260   42.4670   17.5080 C   0  0  0  0  0  0
   15.5670   41.2340   18.1750 N   0  0  0  0  0  0
   16.5260   41.0370   19.1760 C   0  0  0  0  0  0
   17.4070   42.0630   19.4980 C   0  0  0  0  0  0
   17.3500   43.2830   18.8350 C   0  0  0  0  0  0
   16.4100   43.4910   17.8320 C   0  0  0  0  0  0
   12.5450   43.8140   15.6160 C   0  0  2  0  0  0
   12.5090   45.3070   15.9470 C   0  0  0  0  0  0
   12.7830   40.4720   16.0130 C   0  0  0  0  0  0
   11.5050   40.6430   16.8400 C   0  0  0  0  0  0
   13.0140   38.9930   15.6950 C   0  0  0  0  0  0
   12.5821   44.1132   13.5271 H   0  0  0  0  0  0
   12.0443   42.4831   14.0564 H   0  0  0  0  0  0
   16.5815   40.0832   19.7006 H   0  0  0  0  0  0
   18.1510   41.9088   20.2795 H   0  0  0  0  0  0
   18.0445   44.0794   19.1022 H   0  0  0  0  0  0
   16.3663   44.4447   17.3060 H   0  0  0  0  0  0
   11.9328   43.2455   16.3315 H   0  0  0  0  0  0
   12.9247   45.4698   16.9524 H   0  0  0  0  0  0
   11.4689   45.6640   15.9180 H   0  0  0  0  0  0
   13.1075   45.8608   15.2087 H   0  0  0  0  0  0
   12.6716   41.0107   15.0604 H   0  0  0  0  0  0
   11.3514   41.7095   17.0612 H   0  0  0  0  0  0
   11.6003   40.0832   17.7821 H   0  0  0  0  0  0
   10.6457   40.2591   16.2706 H   0  0  0  0  0  0
   13.9338   38.8849   15.1015 H   0  0  0  0  0  0
   12.1598   38.6035   15.1217 H   0  0  0  0  0  0
   13.1144   38.4276   16.6332 H   0  0  0  0  0  0
  1  3  2  0  0  0
  1  6  1  0  0  0
  1 13  1  0  0  0
  2 13  1  0  0  0
  2 18  1  0  0  0
  2 19  1  0  0  0
  4  5  2  0  0  0
  4  8  1  0  0  0
  5  6  1  0  0  0
  5 15  1  0  0  0
  6  7  2  0  0  0
  7  8  1  0  0  0
  7 12  1  0  0  0
  8  9  1  0  0  0
  9 10  2  0  0  0
  9 20  1  0  0  0
 10 11  1  0  0  0
 10 21  1  0  0  0
 11 12  2  0  0  0
 11 22  1  0  0  0
 12 23  1  0  0  0
 13 14  1  0  0  0
 13 24  1  0  0  0
 14 25  1  0  0  0
 14 26  1  0  0  0
 14 27  1  0  0  0
 15 16  1  0  0  0
 15 17  1  0  0  0
 15 28  1  0  0  0
 16 29  1  0  0  0
 16 30  1  0  0  0
 16 31  1  0  0  0
 17 32  1  0  0  0
 17 33  1  0  0  0
 17 34  1  0  0  0
M  END
> <s_m_source_file>
../3ijg_ligand.sdf

> <i_m_source_file_index>
1

> <s_epik_input>
W05IMytdW0NASF0oW0NIM10pQyg9TyljMWMoW0NIXShbQ0gzXSlbQ0gzXSlubihjMTIpW2NIXVtjSF1bY0hdW2NIXTI=

> <s_epik_cmdline>
J2VwaWtfYXBwJywgJy1pbWFlJywgJ2xpZ2FuZF9wcm8ubWFlJywgJy1vbWFlJywgJ2xpZ2FuZF9wcmVwLm1hZScsICctbXMnLCAnMScsICctcGgnLCAnNycsICctcGh0JywgJzAuNScsICctbnQn

> <r_epik_Ionization_Penalty>
  0.1924

> <r_epik_Ionization_Penalty_Charging>
  0.0000

> <r_epik_Ionization_Penalty_Neutral>
  0.1924

> <r_epik_State_Penalty>
  0.1821

> <r_epik_Charging_Adjusted_Penalty>
0.182079562505689

> <i_epik_Tot_Q>
0

> <i_epik_Tot_abs_Q>
0

$$$$
