3ijh_ligand
                    3D
 Schrodinger Suite 2020-3.
 39 39  0  0  1  0            999 V2000
   -9.6380    0.4070   -0.0820 C   0  0  0  0  0  0
   -8.7210    0.7670    0.6950 O   0  5  0  0  0  0
   -9.2740   -0.5000   -1.2580 C   0  0  2  0  0  0
  -10.4450   -0.6430   -2.0960 O   0  0  0  0  0  0
  -10.2770   -1.5500   -3.2070 C   0  0  2  0  0  0
  -11.5590   -1.6080   -4.0400 C   0  0  1  0  0  0
  -11.8360   -0.2110   -4.6140 C   0  0  0  0  0  0
  -13.0230   -0.2280   -5.4060 O   0  0  0  0  0  0
  -11.4190   -2.5550   -5.1000 O   0  0  0  0  0  0
  -10.0220   -2.9640   -2.6570 C   0  0  2  0  0  0
  -11.1460   -3.3990   -1.8790 O   0  0  0  0  0  0
   -8.7490   -2.8820   -1.8350 C   0  0  2  0  0  0
   -8.4880   -4.1600   -1.2500 O   0  0  0  0  0  0
   -8.9290   -1.8740   -0.6850 C   0  0  2  0  0  0
   -9.8980   -2.3030    0.2650 O   0  0  0  0  0  0
   -8.2770    0.0160   -2.1240 O   0  0  0  0  0  0
   -4.9220    1.2150   -2.8320 C   0  0  0  0  0  0
   -6.3900    0.8420   -2.9790 C   0  0  0  0  0  0
   -6.9540    0.2490   -1.6810 C   0  0  0  0  0  0
  -10.8580    0.6610    0.0520 O   0  0  0  0  0  0
   -9.4342   -1.1515   -3.7909 H   0  0  0  0  0  0
  -12.4061   -1.9838   -3.4474 H   0  0  0  0  0  0
  -11.9646    0.5054   -3.7892 H   0  0  0  0  0  0
  -10.9892    0.1017   -5.2425 H   0  0  0  0  0  0
  -13.3708    0.6936   -5.8955 H   0  0  0  0  0  0
  -11.2163   -3.6115   -4.8704 H   0  0  0  0  0  0
   -9.9441   -3.7439   -3.4288 H   0  0  0  0  0  0
  -12.1343   -3.5028   -2.3507 H   0  0  0  0  0  0
   -7.8988   -2.6309   -2.4862 H   0  0  0  0  0  0
   -8.3257   -5.0369   -1.8940 H   0  0  0  0  0  0
   -8.0210   -1.8236   -0.0661 H   0  0  0  0  0  0
  -10.1258   -1.6761    1.1397 H   0  0  0  0  0  0
   -4.5539    1.6354   -3.7795 H   0  0  0  0  0  0
   -4.3392    0.3173   -2.5782 H   0  0  0  0  0  0
   -4.8118    1.9620   -2.0321 H   0  0  0  0  0  0
   -6.9728    1.7397   -3.2328 H   0  0  0  0  0  0
   -6.5002    0.0950   -3.7789 H   0  0  0  0  0  0
   -6.9701    0.9416   -0.8266 H   0  0  0  0  0  0
   -6.4975   -0.7031   -1.3726 H   0  0  0  0  0  0
  1  2  1  0  0  0
  1  3  1  0  0  0
  1 20  2  0  0  0
  3  4  1  0  0  0
  3 14  1  0  0  0
  3 16  1  0  0  0
  4  5  1  0  0  0
  5  6  1  0  0  0
  5 10  1  0  0  0
  5 21  1  0  0  0
  6  7  1  0  0  0
  6  9  1  0  0  0
  6 22  1  0  0  0
  7  8  1  0  0  0
  7 23  1  0  0  0
  7 24  1  0  0  0
  8 25  1  0  0  0
  9 26  1  0  0  0
 10 11  1  0  0  0
 10 12  1  0  0  0
 10 27  1  0  0  0
 11 28  1  0  0  0
 12 13  1  0  0  0
 12 14  1  0  0  0
 12 29  1  0  0  0
 13 30  1  0  0  0
 14 15  1  0  0  0
 14 31  1  0  0  0
 15 32  1  0  0  0
 16 19  1  0  0  0
 17 18  1  0  0  0
 17 33  1  0  0  0
 17 34  1  0  0  0
 17 35  1  0  0  0
 18 19  1  0  0  0
 18 36  1  0  0  0
 18 37  1  0  0  0
 19 38  1  0  0  0
 19 39  1  0  0  0
M  CHG  1   2  -1
M  END
> <s_m_source_file>
../3ijh_ligand.sdf

> <i_m_source_file_index>
1

> <s_epik_input>
W0NIM11bQ0gyXVtDSDJdT1tDQEBdMShDKD1PKVtPSF0pT1tDQEhdKFtDQEhdKFtPSF0pW0NIMl1bT0hdKVtDQEhdKFtPSF0pW0NASF0oW09IXSlbQ0BASF0xW09IXQ==

> <s_epik_cmdline>
J2VwaWtfYXBwJywgJy1pbWFlJywgJ2xpZ2FuZF9wcm8ubWFlJywgJy1vbWFlJywgJ2xpZ2FuZF9wcmVwLm1hZScsICctbXMnLCAnMScsICctcGgnLCAnNycsICctcGh0JywgJzAuNScsICctbnQn

> <r_lp_tautomer_probability>
1

> <r_epik_Ionization_Penalty>
  0.0000

> <r_epik_Ionization_Penalty_Charging>
  0.0000

> <r_epik_Ionization_Penalty_Neutral>
  0.0000

> <r_epik_State_Penalty>
 -0.0000

> <r_epik_Charging_Adjusted_Penalty>
1.36501351560664e-05

> <i_epik_Tot_Q>
-1

> <i_epik_Tot_abs_Q>
1

$$$$
