3ijy_ligand
                    3D
 Schrodinger Suite 2020-3.
 62 63  0  0  1  0            999 V2000
    8.5000    6.3220   79.3780 C   0  0  0  0  0  0
    9.3520    7.2290   79.5010 O   0  0  0  0  0  0
    7.7800    6.1340   78.3690 O   0  5  0  0  0  0
    8.3200    5.3660   80.5760 C   0  0  1  0  0  0
    7.1840    5.8840   81.4720 C   0  0  0  0  0  0
    7.0250    4.9210   82.6480 C   0  0  1  0  0  0
    5.9690    5.3620   83.5000 O   0  0  0  0  0  0
    6.6850    3.5440   82.1010 C   0  0  1  0  0  0
    5.4570    3.6090   81.3720 O   0  0  0  0  0  0
    7.8150    3.0770   81.1850 C   0  0  2  0  0  0
    8.0170    4.0320   80.1060 O   0  0  0  0  0  0
    7.5000    1.6880   80.6190 C   0  0  2  0  0  0
    7.2510    0.7750   81.6940 O   0  0  0  0  0  0
    8.6610    1.1720   79.7620 C   0  0  0  0  0  0
    8.3520   -0.1370   79.2570 O   0  0  0  0  0  0
    9.5230    5.3180   81.3590 O   0  0  0  0  0  0
   10.5700    4.8460   80.6300 C   0  0  0  0  0  0
   11.8230    4.7250   81.2060 C   0  0  0  0  0  0
   12.0070    5.0860   82.5440 C   0  0  0  0  0  0
    9.7480    0.2110   77.2900 C   0  0  0  0  0  0
    8.7870    0.8210   76.7740 O   0  5  0  0  0  0
   10.9310    0.2440   76.8920 O   0  0  0  0  0  0
    9.4460   -0.6780   78.5090 C   0  0  2  0  0  0
    9.1100   -2.0870   78.0130 C   0  0  0  0  0  0
    8.8380   -2.9640   79.2320 C   0  0  1  0  0  0
    8.5510   -4.2960   78.8140 O   0  0  0  0  0  0
   10.0800   -2.9810   80.1050 C   0  0  1  0  0  0
   11.1830   -3.4770   79.3460 O   0  0  0  0  0  0
   10.4050   -1.5580   80.5470 C   0  0  2  0  0  0
   10.6070   -0.7320   79.3690 O   0  0  0  0  0  0
   11.6610   -1.5880   81.4270 C   0  0  2  0  0  0
   11.4520   -2.4260   82.5690 O   0  0  0  0  0  0
   12.0530   -0.1770   81.8770 C   0  0  0  0  0  0
   10.9830    0.4240   82.6010 O   0  0  0  0  0  0
    7.4361    6.8899   81.8390 H   0  0  0  0  0  0
    6.2506    5.9287   80.8917 H   0  0  0  0  0  0
    7.9243    4.9014   83.2812 H   0  0  0  0  0  0
    6.0335    6.3432   83.9931 H   0  0  0  0  0  0
    6.5061    2.8233   82.9126 H   0  0  0  0  0  0
    4.5336    3.9282   81.8774 H   0  0  0  0  0  0
    8.7636    3.0518   81.7413 H   0  0  0  0  0  0
    6.5734    1.7182   80.0269 H   0  0  0  0  0  0
    6.4482    0.9823   82.4168 H   0  0  0  0  0  0
    8.8260    1.8571   78.9173 H   0  0  0  0  0  0
    9.5733    1.1186   80.3743 H   0  0  0  0  0  0
   10.4180    4.5600   79.5788 H   0  0  0  0  0  0
   12.6675    4.3465   80.6114 H   0  0  0  0  0  0
   13.0577    4.9239   82.8263 H   0  0  0  0  0  0
   11.3565    4.4704   83.1826 H   0  0  0  0  0  0
   11.7515    6.1478   82.6757 H   0  0  0  0  0  0
    8.2197   -2.0461   77.3683 H   0  0  0  0  0  0
    9.9597   -2.4863   77.4398 H   0  0  0  0  0  0
    7.9503   -2.6225   79.7847 H   0  0  0  0  0  0
    7.6823   -4.4950   78.1692 H   0  0  0  0  0  0
    9.9463   -3.6596   80.9604 H   0  0  0  0  0  0
   11.1511   -4.4948   78.9301 H   0  0  0  0  0  0
    9.5694   -1.0956   81.0928 H   0  0  0  0  0  0
   12.4911   -2.0545   80.8762 H   0  0  0  0  0  0
   11.1629   -3.4786   82.4333 H   0  0  0  0  0  0
   12.9400   -0.2321   82.5253 H   0  0  0  0  0  0
   12.2813    0.4391   80.9948 H   0  0  0  0  0  0
   11.0932    1.4430   83.0004 H   0  0  0  0  0  0
  1  2  2  0  0  0
  1  3  1  0  0  0
  1  4  1  0  0  0
  4  5  1  0  0  0
  4 11  1  0  0  0
  4 16  1  0  0  0
  5  6  1  0  0  0
  5 35  1  0  0  0
  5 36  1  0  0  0
  6  7  1  0  0  0
  6  8  1  0  0  0
  6 37  1  0  0  0
  7 38  1  0  0  0
  8  9  1  0  0  0
  8 10  1  0  0  0
  8 39  1  0  0  0
  9 40  1  0  0  0
 10 11  1  0  0  0
 10 12  1  0  0  0
 10 41  1  0  0  0
 12 13  1  0  0  0
 12 14  1  0  0  0
 12 42  1  0  0  0
 13 43  1  0  0  0
 14 15  1  0  0  0
 14 44  1  0  0  0
 14 45  1  0  0  0
 15 23  1  0  0  0
 16 17  1  0  0  0
 17 18  2  0  0  0
 17 46  1  0  0  0
 18 19  1  0  0  0
 18 47  1  0  0  0
 19 48  1  0  0  0
 19 49  1  0  0  0
 19 50  1  0  0  0
 20 21  1  0  0  0
 20 22  2  0  0  0
 20 23  1  0  0  0
 23 24  1  0  0  0
 23 30  1  0  0  0
 24 25  1  0  0  0
 24 51  1  0  0  0
 24 52  1  0  0  0
 25 26  1  0  0  0
 25 27  1  0  0  0
 25 53  1  0  0  0
 26 54  1  0  0  0
 27 28  1  0  0  0
 27 29  1  0  0  0
 27 55  1  0  0  0
 28 56  1  0  0  0
 29 30  1  0  0  0
 29 31  1  0  0  0
 29 57  1  0  0  0
 31 32  1  0  0  0
 31 33  1  0  0  0
 31 58  1  0  0  0
 32 59  1  0  0  0
 33 34  1  0  0  0
 33 60  1  0  0  0
 33 61  1  0  0  0
 34 62  1  0  0  0
M  CHG  2   3  -1  21  -1
M  END
> <s_m_source_file>
../3ijy_ligand.sdf

> <i_m_source_file_index>
1

> <s_epik_input>
W0NIM10vW0NIXT1bQ0hdXE9bQ0BdMShDKD1PKVtPSF0pW0NIMl1bQ0BASF0oW09IXSlbQ0BASF0oW09IXSlbQ0BIXShPMSlbQ0BIXShbT0hdKVtDSDJdT1tDQF0yKEMoPU8pW09IXSlbQ0gyXVtDQEBIXShbT0hdKVtDQEBIXShbT0hdKVtDQEhdKE8yKVtDQEhdKFtPSF0pW0NIMl1bT0hd

> <s_epik_cmdline>
J2VwaWtfYXBwJywgJy1pbWFlJywgJ2xpZ2FuZF9wcm8ubWFlJywgJy1vbWFlJywgJ2xpZ2FuZF9wcmVwLm1hZScsICctbXMnLCAnMScsICctcGgnLCAnNycsICctcGh0JywgJzAuNScsICctbnQn

> <r_lp_tautomer_probability>
1

> <r_epik_Ionization_Penalty>
  0.0001

> <r_epik_Ionization_Penalty_Charging>
  0.0001

> <r_epik_Ionization_Penalty_Neutral>
  0.0000

> <r_epik_State_Penalty>
 -0.0000

> <r_epik_Charging_Adjusted_Penalty>
5.17546708020593e-05

> <i_epik_Tot_Q>
-2

> <i_epik_Tot_abs_Q>
2

$$$$
