3ijz_ligand
                    3D
 Schrodinger Suite 2020-3.
 34 36  0  0  1  0            999 V2000
   29.8970   -9.0770   30.1890 C   0  0  0  0  0  0
   29.6850   -9.5840   31.4590 C   0  0  0  0  0  0
   28.5390  -10.3410   31.7390 C   0  0  0  0  0  0
   27.5210  -10.6460   30.8260 C   0  0  0  0  0  0
   27.6580  -10.1770   29.5440 C   0  0  0  0  0  0
   28.8520   -9.3750   29.1730 C   0  0  0  0  0  0
   28.6100   -9.0780   27.7390 C   0  0  0  0  0  0
   26.8470  -10.2730   28.2990 C   0  0  0  0  0  0
   27.4630   -9.6220   27.2840 N   0  0  0  0  0  0
   31.1220   -8.2640   29.8620 C   0  0  0  0  0  0
   29.4440   -8.3880   27.0470 O   0  0  0  0  0  0
   25.7300  -10.9020   28.2390 O   0  0  0  0  0  0
   27.0390   -9.4570   26.0050 C   0  0  0  0  0  0
   26.6080  -10.4870   25.1570 C   0  0  0  0  0  0
   26.2020  -10.2430   23.8390 C   0  0  0  0  0  0
   26.2030   -8.9470   23.3070 C   0  0  0  0  0  0
   26.6280   -7.9000   24.1140 C   0  0  0  0  0  0
   27.0270   -8.1740   25.4180 C   0  0  0  0  0  0
   25.7630   -8.6450   21.8940 C   0  0  0  0  0  0
   24.3930   -9.0450   21.4100 C   0  0  0  0  0  0
   26.5340   -8.0470   21.1550 O   0  0  0  0  0  0
   30.4139   -9.3935   32.2467 H   0  0  0  0  0  0
   28.4306  -10.7250   32.7533 H   0  0  0  0  0  0
   26.6526  -11.2339   31.1231 H   0  0  0  0  0  0
   31.7512   -8.1719   30.7595 H   0  0  0  0  0  0
   30.8178   -7.2627   29.5231 H   0  0  0  0  0  0
   31.6916   -8.7637   29.0646 H   0  0  0  0  0  0
   26.5883  -11.5091   25.5351 H   0  0  0  0  0  0
   25.8793  -11.0769   23.2156 H   0  0  0  0  0  0
   26.6486   -6.8795   23.7316 H   0  0  0  0  0  0
   27.3548   -7.3352   26.0321 H   0  0  0  0  0  0
   23.8577   -9.5682   22.2160 H   0  0  0  0  0  0
   24.4915   -9.7128   20.5415 H   0  0  0  0  0  0
   23.8299   -8.1459   21.1192 H   0  0  0  0  0  0
  1  2  2  0  0  0
  1  6  1  0  0  0
  1 10  1  0  0  0
  2  3  1  0  0  0
  2 22  1  0  0  0
  3  4  2  0  0  0
  3 23  1  0  0  0
  4  5  1  0  0  0
  4 24  1  0  0  0
  5  6  2  0  0  0
  5  8  1  0  0  0
  6  7  1  0  0  0
  7  9  1  0  0  0
  7 11  2  0  0  0
  8  9  1  0  0  0
  8 12  2  0  0  0
  9 13  1  0  0  0
 10 25  1  0  0  0
 10 26  1  0  0  0
 10 27  1  0  0  0
 13 14  2  0  0  0
 13 18  1  0  0  0
 14 15  1  0  0  0
 14 28  1  0  0  0
 15 16  2  0  0  0
 15 29  1  0  0  0
 16 17  1  0  0  0
 16 19  1  0  0  0
 17 18  2  0  0  0
 17 30  1  0  0  0
 18 31  1  0  0  0
 19 20  1  0  0  0
 19 21  2  0  0  0
 20 32  1  0  0  0
 20 33  1  0  0  0
 20 34  1  0  0  0
M  END
> <s_m_source_file>
../3ijz_ligand.sdf

> <i_m_source_file_index>
1

> <s_epik_input>
W2NIXTFbY0hdW2NIXWMoW0NIM10pYyhjMTIpQyg9TylOKEMyPU8pYzNbY0hdW2NIXWMoW2NIXVtjSF0zKUMoPU8pW0NIM10=

> <s_epik_cmdline>
J2VwaWtfYXBwJywgJy1pbWFlJywgJ2xpZ2FuZF9wcm8ubWFlJywgJy1vbWFlJywgJ2xpZ2FuZF9wcmVwLm1hZScsICctbXMnLCAnMScsICctcGgnLCAnNycsICctcGh0JywgJzAuNScsICctbnQn

> <r_lp_tautomer_probability>
1

> <r_epik_Ionization_Penalty>
  0.0000

> <r_epik_Ionization_Penalty_Charging>
  0.0000

> <r_epik_Ionization_Penalty_Neutral>
  0.0000

> <r_epik_State_Penalty>
 -0.0000

> <r_epik_Charging_Adjusted_Penalty>
0

> <i_epik_Tot_Q>
0

> <i_epik_Tot_abs_Q>
0

$$$$
