3ik3_ligand
                    3D
 Schrodinger Suite 2020-3.
 67 71  0  0  1  0            999 V2000
    4.0990   -7.3350   13.8870 N   0  0  0  0  0  0
    7.3470    7.8260   19.1290 N   0  3  1  0  0  0
    3.1070   -2.6590   13.9120 C   0  0  0  0  0  0
    3.1220   -1.2140   13.7470 C   0  0  0  0  0  0
    2.5160   -0.5430   12.6120 C   0  0  0  0  0  0
    2.5780    0.8730   12.5170 C   0  0  0  0  0  0
    3.2500    1.6510   13.5530 C   0  0  0  0  0  0
    3.7740   -0.4660   14.7530 C   0  0  0  0  0  0
    5.5010    3.8910   16.4100 C   0  0  0  0  0  0
    6.1520    6.1920   16.9990 C   0  0  0  0  0  0
    7.4800    4.2940   17.8870 C   0  0  0  0  0  0
    8.1170    6.7780   18.4880 C   0  0  0  0  0  0
    6.4910    7.3580   20.2460 C   0  0  0  0  0  0
    5.6030    8.5190   20.7640 C   0  0  0  0  0  0
    8.2400    8.9150   19.6120 C   0  0  0  0  0  0
    2.3430   -8.4240   15.3410 C   0  0  0  0  0  0
    1.2250   -8.1130   16.1130 C   0  0  0  0  0  0
    0.8010   -6.7460   16.2100 C   0  0  0  0  0  0
    1.3940   -5.7030   15.6090 N   0  0  0  0  0  0
    2.4850   -6.0670   14.8640 N   0  0  0  0  0  0
    3.0300   -7.3760   14.6720 C   0  0  0  0  0  0
    4.2680   -5.9990   13.5590 C   0  0  0  0  0  0
    3.2990   -5.2430   14.1420 C   0  0  0  0  0  0
    3.1670   -3.8530   14.0240 C   0  0  0  0  0  0
    3.8520    0.9650   14.6820 C   0  0  0  0  0  0
    1.8100   -1.3310   11.4990 C   0  0  0  0  0  0
    4.5590    1.6720   15.7800 C   0  0  0  0  0  0
    5.0710    1.0120   16.6910 O   0  0  0  0  0  0
    4.5940    3.0340   15.7100 N   0  0  0  0  0  0
    5.2890    5.2840   16.3210 C   0  0  0  0  0  0
    7.2440    5.7280   17.7840 C   0  0  0  0  0  0
    6.5970    3.4030   17.1950 C   0  0  0  0  0  0
    8.6180    3.7040   18.7050 C   0  0  0  0  0  0
    8.4180    3.9600   19.9890 F   0  0  0  0  0  0
    8.6970    2.3840   18.5830 F   0  0  0  0  0  0
    9.7910    4.2330   18.2900 F   0  0  0  0  0  0
    7.3860   10.1020   20.1030 C   0  0  0  0  0  0
    5.5690   10.8130   21.5730 C   0  0  0  0  0  0
    6.4250    9.6910   21.1710 N   0  0  1  0  0  0
    6.6766    8.1807   18.3323 H   0  0  0  0  0  0
    2.1219    1.3805   11.6670 H   0  0  0  0  0  0
    3.2994    2.7374   13.4797 H   0  0  0  0  0  0
    4.2258   -0.9854   15.5981 H   0  0  0  0  0  0
    5.9721    7.2638   16.9147 H   0  0  0  0  0  0
    8.7792    7.2211   17.7296 H   0  0  0  0  0  0
    8.7224    6.2541   19.2423 H   0  0  0  0  0  0
    5.8449    6.5399   19.8949 H   0  0  0  0  0  0
    7.1261    6.9965   21.0681 H   0  0  0  0  0  0
    4.9129    8.8360   19.9682 H   0  0  0  0  0  0
    5.0254    8.1780   21.6358 H   0  0  0  0  0  0
    8.8587    8.5412   20.4411 H   0  0  0  0  0  0
    8.8908    9.2473   18.7898 H   0  0  0  0  0  0
    2.6848   -9.4552   15.2520 H   0  0  0  0  0  0
    0.6798   -8.8985   16.6364 H   0  0  0  0  0  0
   -0.0758   -6.5371   16.8229 H   0  0  0  0  0  0
    5.0640   -5.6096   12.9243 H   0  0  0  0  0  0
    1.8528   -2.4062   11.7272 H   0  0  0  0  0  0
    2.3121   -1.1396   10.5392 H   0  0  0  0  0  0
    0.7594   -1.0116   11.4334 H   0  0  0  0  0  0
    3.8353    3.4655   15.0406 H   0  0  0  0  0  0
    4.4583    5.6677   15.7287 H   0  0  0  0  0  0
    6.7624    2.3280   17.2670 H   0  0  0  0  0  0
    8.0441   10.8824   20.5127 H   0  0  0  0  0  0
    6.8104   10.5129   19.2605 H   0  0  0  0  0  0
    4.8740   10.4809   22.3583 H   0  0  0  0  0  0
    4.9969   11.1677   20.7030 H   0  0  0  0  0  0
    6.1945   11.6314   21.9590 H   0  0  0  0  0  0
  1 21  2  0  0  0
  1 22  1  0  0  0
  2 12  1  0  0  0
  2 13  1  0  0  0
  2 15  1  0  0  0
  2 40  1  0  0  0
  3  4  1  0  0  0
  3 24  3  0  0  0
  4  5  2  0  0  0
  4  8  1  0  0  0
  5  6  1  0  0  0
  5 26  1  0  0  0
  6  7  2  0  0  0
  6 41  1  0  0  0
  7 25  1  0  0  0
  7 42  1  0  0  0
  8 25  2  0  0  0
  8 43  1  0  0  0
  9 29  1  0  0  0
  9 30  2  0  0  0
  9 32  1  0  0  0
 10 30  1  0  0  0
 10 31  2  0  0  0
 10 44  1  0  0  0
 11 31  1  0  0  0
 11 32  2  0  0  0
 11 33  1  0  0  0
 12 31  1  0  0  0
 12 45  1  0  0  0
 12 46  1  0  0  0
 13 14  1  0  0  0
 13 47  1  0  0  0
 13 48  1  0  0  0
 14 39  1  0  0  0
 14 49  1  0  0  0
 14 50  1  0  0  0
 15 37  1  0  0  0
 15 51  1  0  0  0
 15 52  1  0  0  0
 16 17  2  0  0  0
 16 21  1  0  0  0
 16 53  1  0  0  0
 17 18  1  0  0  0
 17 54  1  0  0  0
 18 19  2  0  0  0
 18 55  1  0  0  0
 19 20  1  0  0  0
 20 21  1  0  0  0
 20 23  1  0  0  0
 22 23  2  0  0  0
 22 56  1  0  0  0
 23 24  1  0  0  0
 25 27  1  0  0  0
 26 57  1  0  0  0
 26 58  1  0  0  0
 26 59  1  0  0  0
 27 28  2  0  0  0
 27 29  1  0  0  0
 29 60  1  0  0  0
 30 61  1  0  0  0
 32 62  1  0  0  0
 33 34  1  0  0  0
 33 35  1  0  0  0
 33 36  1  0  0  0
 37 39  1  0  0  0
 37 63  1  0  0  0
 37 64  1  0  0  0
 38 39  1  0  0  0
 38 65  1  0  0  0
 38 66  1  0  0  0
 38 67  1  0  0  0
M  CHG  1   2   1
M  END
> <s_m_source_file>
../3ik3_ligand.sdf

> <i_m_source_file_index>
1

> <s_epik_input>
bjFbY0hdW2NIXVtjSF1jKG4xMiluW2NIXWMyQyNDYzNjKFtDSDNdKVtjSF1bY0hdYyhbY0hdMylDKD1PKVtOSF1jNFtjSF1bY0hdYyhjKFtjSF00KUMoRikoRilGKVtDSDJdW05ASCtdNVtDSDJdW0NIMl1bTkBIK10oW0NIM10pW0NIMl1bQ0gyXTU=

> <s_epik_cmdline>
J2VwaWtfYXBwJywgJy1pbWFlJywgJ2xpZ2FuZF9wcm8ubWFlJywgJy1vbWFlJywgJ2xpZ2FuZF9wcmVwLm1hZScsICctbXMnLCAnMScsICctcGgnLCAnNycsICctcGh0JywgJzAuNScsICctbnQn

> <r_lp_tautomer_probability>
1

> <r_epik_Ionization_Penalty>
  0.0174

> <r_epik_Ionization_Penalty_Charging>
  0.0155

> <r_epik_Ionization_Penalty_Neutral>
  0.0020

> <r_epik_State_Penalty>
 -0.0000

> <r_epik_Charging_Adjusted_Penalty>
0.0154526225118262

> <i_epik_Tot_Q>
1

> <i_epik_Tot_abs_Q>
1

$$$$
