3ika_ligand
                    3D
 Schrodinger Suite 2020-3.
 65 68  0  0  1  0            999 V2000
  -12.7040   12.7700   33.5380 C   0  0  0  0  0  0
  -13.8650   11.9900   33.0040 C   0  0  0  0  0  0
  -15.0720   12.6730   33.3920 N   0  3  0  0  0  0
  -16.1940   11.8260   33.0430 C   0  0  0  0  0  0
  -15.1510   13.8390   32.5500 C   0  0  0  0  0  0
  -14.1110   14.8060   33.0390 C   0  0  0  0  0  0
  -12.8320   14.1350   33.1020 N   0  0  0  0  0  0
  -11.7190   14.8480   32.8180 C   0  0  0  0  0  0
  -10.4920   14.2520   32.8590 C   0  0  0  0  0  0
   -9.4010   15.0040   32.5670 C   0  0  0  0  0  0
   -8.1850   14.5160   32.5810 O   0  0  0  0  0  0
   -8.3950   13.2470   32.1080 C   0  0  0  0  0  0
  -11.8470   16.1620   32.4950 C   0  0  0  0  0  0
  -10.7340   16.8940   32.2060 C   0  0  0  0  0  0
   -9.5290   16.2870   32.2510 C   0  0  0  0  0  0
   -8.4470   16.9100   31.9940 N   0  0  0  0  0  0
   -8.5260   17.9300   31.2030 C   0  0  0  0  0  0
   -9.6970   18.2640   30.6770 N   0  0  0  0  0  0
   -7.4150   18.5880   30.9610 N   0  0  0  0  0  0
   -7.4230   19.6130   30.1830 C   0  0  0  0  0  0
   -8.6020   19.9830   29.6280 C   0  0  0  0  0  0
   -8.6200   21.3210   28.6100 Cl  0  0  0  0  0  0
   -9.7490   19.3030   29.8780 C   0  0  0  0  0  0
  -10.8740   19.7120   29.3070 O   0  0  0  0  0  0
  -12.0030   19.1590   29.7520 C   0  0  0  0  0  0
  -12.4640   19.4790   31.0010 C   0  0  0  0  0  0
  -12.7120   18.2780   28.9890 C   0  0  0  0  0  0
  -13.8730   17.7240   29.4740 C   0  0  0  0  0  0
  -14.3370   18.0470   30.7330 C   0  0  0  0  0  0
  -13.6220   18.9340   31.5000 C   0  0  0  0  0  0
  -13.9850   19.2980   32.7020 N   0  0  0  0  0  0
  -15.1660   19.0370   33.2070 C   0  0  0  0  0  0
  -16.0410   18.4310   32.6170 O   0  0  0  0  0  0
  -15.3880   19.6030   34.6070 C   0  0  0  0  0  0
  -15.5450   18.5290   35.6780 C   0  0  0  0  0  0
  -12.7066   12.7251   34.6371 H   0  0  0  0  0  0
  -11.7665   12.3401   33.1557 H   0  0  0  0  0  0
  -13.7951   11.9328   31.9077 H   0  0  0  0  0  0
  -13.8495   10.9742   33.4259 H   0  0  0  0  0  0
  -15.0761   12.9201   34.4639 H   0  0  0  0  0  0
  -16.1751   10.9182   33.6639 H   0  0  0  0  0  0
  -16.1256   11.5458   31.9815 H   0  0  0  0  0  0
  -17.1333   12.3709   33.2186 H   0  0  0  0  0  0
  -14.9543   13.5518   31.5066 H   0  0  0  0  0  0
  -16.1564   14.2787   32.6259 H   0  0  0  0  0  0
  -14.0477   15.6579   32.3460 H   0  0  0  0  0  0
  -14.3884   15.1676   34.0401 H   0  0  0  0  0  0
  -10.3910   13.1985   33.1197 H   0  0  0  0  0  0
   -7.4369   12.7083   32.0654 H   0  0  0  0  0  0
   -8.8315   13.2991   31.0996 H   0  0  0  0  0  0
   -9.0852   12.7150   32.7793 H   0  0  0  0  0  0
  -12.8324   16.6270   32.4673 H   0  0  0  0  0  0
  -10.8153   17.9488   31.9437 H   0  0  0  0  0  0
   -7.4993   16.5732   32.4395 H   0  0  0  0  0  0
   -6.5075   20.1675   29.9766 H   0  0  0  0  0  0
  -11.8993   20.1821   31.6132 H   0  0  0  0  0  0
  -12.3574   18.0128   27.9930 H   0  0  0  0  0  0
  -14.4335   17.0216   28.8571 H   0  0  0  0  0  0
  -15.2577   17.6045   31.1132 H   0  0  0  0  0  0
  -13.2845   19.8523   33.3439 H   0  0  0  0  0  0
  -14.5283   20.2281   34.8903 H   0  0  0  0  0  0
  -16.3033   20.2130   34.6150 H   0  0  0  0  0  0
  -15.7009   19.0069   36.6564 H   0  0  0  0  0  0
  -14.6362   17.9102   35.7127 H   0  0  0  0  0  0
  -16.4112   17.8951   35.4374 H   0  0  0  0  0  0
  1  2  1  0  0  0
  1  7  1  0  0  0
  1 36  1  0  0  0
  1 37  1  0  0  0
  2  3  1  0  0  0
  2 38  1  0  0  0
  2 39  1  0  0  0
  3  4  1  0  0  0
  3  5  1  0  0  0
  3 40  1  0  0  0
  4 41  1  0  0  0
  4 42  1  0  0  0
  4 43  1  0  0  0
  5  6  1  0  0  0
  5 44  1  0  0  0
  5 45  1  0  0  0
  6  7  1  0  0  0
  6 46  1  0  0  0
  6 47  1  0  0  0
  7  8  1  0  0  0
  8  9  2  0  0  0
  8 13  1  0  0  0
  9 10  1  0  0  0
  9 48  1  0  0  0
 10 11  1  0  0  0
 10 15  2  0  0  0
 11 12  1  0  0  0
 12 49  1  0  0  0
 12 50  1  0  0  0
 12 51  1  0  0  0
 13 14  2  0  0  0
 13 52  1  0  0  0
 14 15  1  0  0  0
 14 53  1  0  0  0
 15 16  1  0  0  0
 16 17  1  0  0  0
 16 54  1  0  0  0
 17 18  2  0  0  0
 17 19  1  0  0  0
 18 23  1  0  0  0
 19 20  2  0  0  0
 20 21  1  0  0  0
 20 55  1  0  0  0
 21 22  1  0  0  0
 21 23  2  0  0  0
 23 24  1  0  0  0
 24 25  1  0  0  0
 25 26  2  0  0  0
 25 27  1  0  0  0
 26 30  1  0  0  0
 26 56  1  0  0  0
 27 28  2  0  0  0
 27 57  1  0  0  0
 28 29  1  0  0  0
 28 58  1  0  0  0
 29 30  2  0  0  0
 29 59  1  0  0  0
 30 31  1  0  0  0
 31 32  1  0  0  0
 31 60  1  0  0  0
 32 33  2  0  0  0
 32 34  1  0  0  0
 34 35  1  0  0  0
 34 61  1  0  0  0
 34 62  1  0  0  0
 35 63  1  0  0  0
 35 64  1  0  0  0
 35 65  1  0  0  0
M  CHG  1   3   1
M  END
> <s_m_source_file>
../3ika_ligand.sdf

> <i_m_source_file_index>
1

> <s_epik_input>
W0NIM11bTkgrXTFbQ0gyXVtDSDJdTihbQ0gyXVtDSDJdMSljMltjSF1jKE9bQ0gzXSljKFtjSF1bY0hdMilbTkhdYzNuYyhjKENsKVtjSF1uMylPYzRbY0hdYyhbY0hdW2NIXVtjSF00KVtOSF1DKD1PKVtDSDJdW0NIM10=

> <s_epik_cmdline>
J2VwaWtfYXBwJywgJy1pbWFlJywgJ2xpZ2FuZF9wcm8ubWFlJywgJy1vbWFlJywgJ2xpZ2FuZF9wcmVwLm1hZScsICctbXMnLCAnMScsICctcGgnLCAnNycsICctcGh0JywgJzAuNScsICctbnQn

> <r_lp_tautomer_probability>
1

> <r_epik_Ionization_Penalty>
  0.0694

> <r_epik_Ionization_Penalty_Charging>
  0.0647

> <r_epik_Ionization_Penalty_Neutral>
  0.0046

> <r_epik_State_Penalty>
 -0.0000

> <r_epik_Charging_Adjusted_Penalty>
0.0647487349615153

> <i_epik_Tot_Q>
1

> <i_epik_Tot_abs_Q>
1

$$$$
