3ikc_ligand
                    3D
 Schrodinger Suite 2020-3.
 65 66  0  0  1  0            999 V2000
    9.5430   -0.2240    0.0060 C   0  0  0  0  0  0
    8.5690   -0.6540    0.6600 O   0  0  0  0  0  0
   10.7490   -0.4480    0.2470 O   0  5  0  0  0  0
    9.2330    0.7240   -1.1540 C   0  0  1  0  0  0
    9.0720    2.1170   -0.5340 C   0  0  0  0  0  0
    8.7720    3.1130   -1.6440 C   0  0  1  0  0  0
    8.6060    4.4250   -1.0980 O   0  0  0  0  0  0
    9.9510    3.0930   -2.6170 C   0  0  1  0  0  0
   11.1430    3.4480   -1.9140 O   0  0  0  0  0  0
   10.1420    1.7040   -3.2080 C   0  0  2  0  0  0
   10.3240    0.7350   -2.1290 O   0  0  0  0  0  0
   11.3300    1.6750   -4.1960 C   0  0  2  0  0  0
   11.2350    2.7710   -5.1160 O   0  0  0  0  0  0
   11.4760    0.3500   -4.9540 C   0  0  0  0  0  0
   11.6750   -0.7350   -4.0530 O   0  0  0  0  0  0
    7.7360   -5.8720   -2.7780 C   0  0  0  0  0  0
    7.3940   -4.7660   -3.7840 C   0  0  1  0  0  0
    8.4800   -4.5980   -4.6900 O   0  0  0  0  0  0
    6.1340   -5.1690   -4.5730 C   0  0  0  0  0  0
    5.8180   -4.0580   -5.5790 C   0  0  1  0  0  0
    4.6650   -4.4020   -6.3700 O   0  0  0  0  0  0
    5.5780   -2.7640   -4.8020 C   0  0  1  0  0  0
    4.4570   -2.9140   -3.9220 O   0  0  0  0  0  0
    6.8490   -2.4200   -4.0030 C   0  0  2  0  0  0
    7.1800   -3.5140   -3.1050 O   0  0  0  0  0  0
    6.6450   -1.1250   -3.2100 C   0  0  2  0  0  0
    6.1220   -0.1010   -4.0780 O   0  0  0  0  0  0
    8.0090   -0.8300   -2.5530 C   0  0  0  0  0  0
    7.9920    0.3940   -1.8100 O   0  0  0  0  0  0
    5.7570    1.0720   -3.3540 C   0  0  0  0  0  0
    9.6480   -4.2280   -3.9270 C   0  0  0  0  0  0
   10.8630   -4.0260   -4.5670 C   0  0  0  0  0  0
   10.9280   -4.1920   -5.9430 C   0  0  0  0  0  0
    7.2390   -5.7790   -1.6350 O   0  0  0  0  0  0
    8.4950   -6.7840   -3.1770 O   0  5  0  0  0  0
    8.2434    2.1028    0.1894 H   0  0  0  0  0  0
   10.0026    2.3994   -0.0200 H   0  0  0  0  0  0
    7.8151    2.8973   -2.1418 H   0  0  0  0  0  0
    7.8002    4.6222   -0.3756 H   0  0  0  0  0  0
    9.8013    3.8371   -3.4132 H   0  0  0  0  0  0
   11.2138    4.4223   -1.4083 H   0  0  0  0  0  0
    9.2268    1.4005   -3.7374 H   0  0  0  0  0  0
   12.2599    1.8386   -3.6317 H   0  0  0  0  0  0
   11.1253    3.7983   -4.7382 H   0  0  0  0  0  0
   10.5640    0.1597   -5.5388 H   0  0  0  0  0  0
   12.3405    0.4085   -5.6316 H   0  0  0  0  0  0
   11.7978   -1.7569   -4.4412 H   0  0  0  0  0  0
    6.3201   -6.1148   -5.1029 H   0  0  0  0  0  0
    5.2915   -5.2979   -3.8776 H   0  0  0  0  0  0
    6.6222   -3.9378   -6.3198 H   0  0  0  0  0  0
    4.6751   -5.3098   -6.9911 H   0  0  0  0  0  0
    5.2872   -1.9437   -5.4747 H   0  0  0  0  0  0
    3.4662   -3.1614   -4.3307 H   0  0  0  0  0  0
    7.7123   -2.3121   -4.6761 H   0  0  0  0  0  0
    5.8519   -1.1432   -2.4480 H   0  0  0  0  0  0
    8.2683   -1.6471   -1.8637 H   0  0  0  0  0  0
    8.7813   -0.7486   -3.3321 H   0  0  0  0  0  0
    5.3639    1.8261   -4.0518 H   0  0  0  0  0  0
    6.6414    1.4749   -2.8388 H   0  0  0  0  0  0
    4.9841    0.8199   -2.6130 H   0  0  0  0  0  0
    9.5740   -4.1062   -2.8363 H   0  0  0  0  0  0
   11.7509   -3.7399   -3.9840 H   0  0  0  0  0  0
   11.9539   -3.9957   -6.2879 H   0  0  0  0  0  0
   10.2365   -3.4889   -6.4302 H   0  0  0  0  0  0
   10.6452   -5.2231   -6.2017 H   0  0  0  0  0  0
  1  2  2  0  0  0
  1  3  1  0  0  0
  1  4  1  0  0  0
  4  5  1  0  0  0
  4 11  1  0  0  0
  4 29  1  0  0  0
  5  6  1  0  0  0
  5 36  1  0  0  0
  5 37  1  0  0  0
  6  7  1  0  0  0
  6  8  1  0  0  0
  6 38  1  0  0  0
  7 39  1  0  0  0
  8  9  1  0  0  0
  8 10  1  0  0  0
  8 40  1  0  0  0
  9 41  1  0  0  0
 10 11  1  0  0  0
 10 12  1  0  0  0
 10 42  1  0  0  0
 12 13  1  0  0  0
 12 14  1  0  0  0
 12 43  1  0  0  0
 13 44  1  0  0  0
 14 15  1  0  0  0
 14 45  1  0  0  0
 14 46  1  0  0  0
 15 47  1  0  0  0
 16 17  1  0  0  0
 16 34  2  0  0  0
 16 35  1  0  0  0
 17 18  1  0  0  0
 17 19  1  0  0  0
 17 25  1  0  0  0
 18 31  1  0  0  0
 19 20  1  0  0  0
 19 48  1  0  0  0
 19 49  1  0  0  0
 20 21  1  0  0  0
 20 22  1  0  0  0
 20 50  1  0  0  0
 21 51  1  0  0  0
 22 23  1  0  0  0
 22 24  1  0  0  0
 22 52  1  0  0  0
 23 53  1  0  0  0
 24 25  1  0  0  0
 24 26  1  0  0  0
 24 54  1  0  0  0
 26 27  1  0  0  0
 26 28  1  0  0  0
 26 55  1  0  0  0
 27 30  1  0  0  0
 28 29  1  0  0  0
 28 56  1  0  0  0
 28 57  1  0  0  0
 30 58  1  0  0  0
 30 59  1  0  0  0
 30 60  1  0  0  0
 31 32  2  0  0  0
 31 61  1  0  0  0
 32 33  1  0  0  0
 32 62  1  0  0  0
 33 63  1  0  0  0
 33 64  1  0  0  0
 33 65  1  0  0  0
M  CHG  2   3  -1  35  -1
M  END
> <s_m_source_file>
../3ikc_ligand.sdf

> <i_m_source_file_index>
1

> <s_epik_input>
W09IXVtDSDJdW0NAQEhdKFtPSF0pW0NAQEhdKE8xKVtDQEhdKFtPSF0pW0NASF0oW09IXSlbQ0gyXVtDQEBdMShDKD1PKVtPSF0pT1tDSDJdW0NAQEhdKE9bQ0gzXSlbQ0BASF0oTzIpW0NASF0oW09IXSlbQ0BIXShbT0hdKVtDSDJdW0NAQF0yKEMoPU8pW09IXSlPL1tDSF09W0NIXVxbQ0gzXQ==

> <s_epik_cmdline>
J2VwaWtfYXBwJywgJy1pbWFlJywgJ2xpZ2FuZF9wcm8ubWFlJywgJy1vbWFlJywgJ2xpZ2FuZF9wcmVwLm1hZScsICctbXMnLCAnMScsICctcGgnLCAnNycsICctcGh0JywgJzAuNScsICctbnQn

> <r_lp_tautomer_probability>
1

> <r_epik_Ionization_Penalty>
  0.0001

> <r_epik_Ionization_Penalty_Charging>
  0.0001

> <r_epik_Ionization_Penalty_Neutral>
  0.0000

> <r_epik_State_Penalty>
 -0.0000

> <r_epik_Charging_Adjusted_Penalty>
5.06226788908716e-05

> <i_epik_Tot_Q>
-2

> <i_epik_Tot_abs_Q>
2

$$$$
