3ikd_ligand
                    3D
 Schrodinger Suite 2020-3.
 42 44  0  0  1  0            999 V2000
   13.8830    6.5740    1.1670 C   0  0  0  0  0  0
   13.1320    3.4690    1.0550 N   0  0  0  0  0  0
   12.3770    4.3220    2.9500 O   0  0  0  0  0  0
   16.8030    0.7690    2.9920 P   0  0  0  0  0  0
   13.5230    7.8540    1.5840 C   0  0  0  0  0  0
   15.7760    0.7620    4.1400 O   0  5  0  0  0  0
   14.2170    8.4660    2.6260 C   0  0  0  0  0  0
   16.4140    1.9940    2.0410 O   0  0  0  0  0  0
    9.6400    5.2200    1.7580 S   0  0  0  0  0  0
   15.2620    7.7730    3.2440 C   0  0  0  0  0  0
   18.0900    1.2140    3.6150 O   0  5  0  0  0  0
   15.6210    6.4920    2.8280 C   0  0  0  0  0  0
   16.7120   -0.5000    2.2800 O   0  0  0  0  0  0
   14.9350    5.8830    1.7800 C   0  0  0  0  0  0
   15.3710    4.5520    1.2880 C   0  0  0  0  0  0
   14.4830    3.3320    1.6680 C   0  0  2  0  0  0
    8.6960    3.5290   -1.6610 C   0  0  0  0  0  0
    7.4090    4.0020   -2.0000 C   0  0  0  0  0  0
    6.7530    4.9100   -1.1780 C   0  0  0  0  0  0
    7.3830    5.3290    0.0070 C   0  0  0  0  0  0
    8.6640    4.8710    0.3740 C   0  0  0  0  0  0
    9.3310    3.9420   -0.4840 C   0  0  0  0  0  0
   10.6040    3.5670    0.0110 C   0  0  0  0  0  0
   10.8820    4.2230    1.2350 C   0  0  0  0  0  0
   12.1560    4.0420    1.7630 C   0  0  0  0  0  0
   15.1720    1.9870    1.2820 C   0  0  0  0  0  0
   13.3364    6.1030    0.3500 H   0  0  0  0  0  0
   12.9512    3.1007    0.0344 H   0  0  0  0  0  0
   12.6998    8.3757    1.0959 H   0  0  0  0  0  0
   13.9490    9.4702    2.9543 H   0  0  0  0  0  0
   15.8049    8.2420    4.0646 H   0  0  0  0  0  0
   16.4383    5.9671    3.3227 H   0  0  0  0  0  0
   15.4058    4.5609    0.1886 H   0  0  0  0  0  0
   16.3713    4.3241    1.6847 H   0  0  0  0  0  0
   14.3051    3.3226    2.7535 H   0  0  0  0  0  0
    9.2031    2.8308   -2.3270 H   0  0  0  0  0  0
    6.9270    3.6522   -2.9129 H   0  0  0  0  0  0
    5.7677    5.2906   -1.4470 H   0  0  0  0  0  0
    6.8647    6.0295    0.6618 H   0  0  0  0  0  0
   11.2786    2.8679   -0.4833 H   0  0  0  0  0  0
   15.3995    1.9324    0.2072 H   0  0  0  0  0  0
   14.5688    1.1147    1.5739 H   0  0  0  0  0  0
  1  5  2  0  0  0
  1 14  1  0  0  0
  1 27  1  0  0  0
  2 16  1  0  0  0
  2 25  1  0  0  0
  2 28  1  0  0  0
  3 25  2  0  0  0
  4  6  1  0  0  0
  4  8  1  0  0  0
  4 11  1  0  0  0
  4 13  2  0  0  0
  5  7  1  0  0  0
  5 29  1  0  0  0
  7 10  2  0  0  0
  7 30  1  0  0  0
  8 26  1  0  0  0
  9 21  1  0  0  0
  9 24  1  0  0  0
 10 12  1  0  0  0
 10 31  1  0  0  0
 12 14  2  0  0  0
 12 32  1  0  0  0
 14 15  1  0  0  0
 15 16  1  0  0  0
 15 33  1  0  0  0
 15 34  1  0  0  0
 16 26  1  0  0  0
 16 35  1  0  0  0
 17 18  1  0  0  0
 17 22  2  0  0  0
 17 36  1  0  0  0
 18 19  2  0  0  0
 18 37  1  0  0  0
 19 20  1  0  0  0
 19 38  1  0  0  0
 20 21  2  0  0  0
 20 39  1  0  0  0
 21 22  1  0  0  0
 22 23  1  0  0  0
 23 24  2  0  0  0
 23 40  1  0  0  0
 24 25  1  0  0  0
 26 41  1  0  0  0
 26 42  1  0  0  0
M  CHG  2   6  -1  11  -1
M  END
> <s_m_source_file>
../3ikd_ligand.sdf

> <i_m_source_file_index>
1

> <s_epik_input>
W2NIXTFbY0hdW2NIXVtjSF1bY0hdYzFbQ0gyXVtDQEhdKFtDSDJdT1AoPU8pKFtPSF0pW09IXSlbTkhdQyg9TyljKHMyKVtjSF1jKGMyMylbY0hdW2NIXVtjSF1bY0hdMw==

> <s_epik_cmdline>
J2VwaWtfYXBwJywgJy1pbWFlJywgJ2xpZ2FuZF9wcm8ubWFlJywgJy1vbWFlJywgJ2xpZ2FuZF9wcmVwLm1hZScsICctbXMnLCAnMScsICctcGgnLCAnNycsICctcGh0JywgJzAuNScsICctbnQn

> <r_epik_Ionization_Penalty>
  0.1108

> <r_epik_Ionization_Penalty_Charging>
  0.1108

> <r_epik_Ionization_Penalty_Neutral>
  0.0000

> <r_epik_State_Penalty>
  0.1006

> <r_epik_Charging_Adjusted_Penalty>
0.211375542390818

> <i_epik_Tot_Q>
-2

> <i_epik_Tot_abs_Q>
2

$$$$
