3ikg_ligand
                    3D
 Schrodinger Suite 2020-3.
 45 47  0  0  1  0            999 V2000
   13.4030    2.9040    1.2500 N   0  0  0  0  0  0
   14.6550    2.8290    1.9910 C   0  0  1  0  0  0
   15.3620    1.4970    1.6700 C   0  0  0  0  0  0
   16.7550    1.6470    1.9640 O   0  0  0  0  0  0
   12.2710    3.3140    1.8620 C   0  0  0  0  0  0
   12.2510    3.6510    3.0290 O   0  0  0  0  0  0
   17.1040    0.5510    3.1200 P   0  0  0  0  0  0
   17.2570   -0.7630    2.4660 O   0  0  0  0  0  0
   18.4940    0.9640    3.8200 O   0  5  0  0  0  0
   15.9330    0.5610    4.2060 O   0  5  0  0  0  0
   11.1110    3.5410    0.9990 C   0  0  0  0  0  0
   10.7530    2.9720   -0.1710 C   0  0  0  0  0  0
    9.5580    3.3770   -0.7900 C   0  0  0  0  0  0
    8.8240    4.3850   -0.1110 C   0  0  0  0  0  0
    9.8020    4.7120    1.3240 S   0  0  0  0  0  0
    9.0090    2.9030   -1.9960 C   0  0  0  0  0  0
    7.8610    3.4460   -2.4870 C   0  0  0  0  0  0
    7.1620    4.4400   -1.7990 C   0  0  0  0  0  0
    7.6600    4.9250   -0.6130 C   0  0  0  0  0  0
   15.5440    3.9520    1.3930 C   0  0  0  0  0  0
   14.0100    5.9760    1.0000 C   0  0  0  0  0  0
   15.0540    5.3630    1.7270 C   0  0  0  0  0  0
   15.6370    6.0690    2.7830 C   0  0  0  0  0  0
   15.2010    7.3600    3.1050 C   0  0  0  0  0  0
   14.1720    7.9740    2.3710 C   0  0  0  0  0  0
   13.5650    7.2670    1.3290 C   0  0  0  0  0  0
   15.8910    8.1440    4.2250 C   0  0  0  0  0  0
   13.3761    2.6259    0.1861 H   0  0  0  0  0  0
   14.4325    2.9157    3.0648 H   0  0  0  0  0  0
   14.9301    0.6948    2.2864 H   0  0  0  0  0  0
   15.2244    1.2560    0.6056 H   0  0  0  0  0  0
   11.3818    2.2089   -0.6296 H   0  0  0  0  0  0
    9.5046    2.0982   -2.5390 H   0  0  0  0  0  0
    7.4766    3.0947   -3.4446 H   0  0  0  0  0  0
    6.2263    4.8293   -2.2003 H   0  0  0  0  0  0
    7.1432    5.7226   -0.0792 H   0  0  0  0  0  0
   16.5673    3.8577    1.7855 H   0  0  0  0  0  0
   15.5619    3.8610    0.2969 H   0  0  0  0  0  0
   13.5436    5.4405    0.1731 H   0  0  0  0  0  0
   16.4388    5.6101    3.3615 H   0  0  0  0  0  0
   13.8515    8.9878    2.6109 H   0  0  0  0  0  0
   12.7448    7.7184    0.7708 H   0  0  0  0  0  0
   16.6650    7.5154    4.6895 H   0  0  0  0  0  0
   15.1477    8.4309    4.9834 H   0  0  0  0  0  0
   16.3559    9.0488    3.8065 H   0  0  0  0  0  0
  1  2  1  0  0  0
  1  5  1  0  0  0
  1 28  1  0  0  0
  2  3  1  0  0  0
  2 20  1  0  0  0
  2 29  1  0  0  0
  3  4  1  0  0  0
  3 30  1  0  0  0
  3 31  1  0  0  0
  4  7  1  0  0  0
  5  6  2  0  0  0
  5 11  1  0  0  0
  7  8  2  0  0  0
  7  9  1  0  0  0
  7 10  1  0  0  0
 11 12  2  0  0  0
 11 15  1  0  0  0
 12 13  1  0  0  0
 12 32  1  0  0  0
 13 14  2  0  0  0
 13 16  1  0  0  0
 14 15  1  0  0  0
 14 19  1  0  0  0
 16 17  2  0  0  0
 16 33  1  0  0  0
 17 18  1  0  0  0
 17 34  1  0  0  0
 18 19  2  0  0  0
 18 35  1  0  0  0
 19 36  1  0  0  0
 20 22  1  0  0  0
 20 37  1  0  0  0
 20 38  1  0  0  0
 21 22  2  0  0  0
 21 26  1  0  0  0
 21 39  1  0  0  0
 22 23  1  0  0  0
 23 24  2  0  0  0
 23 40  1  0  0  0
 24 25  1  0  0  0
 24 27  1  0  0  0
 25 26  2  0  0  0
 25 41  1  0  0  0
 26 42  1  0  0  0
 27 43  1  0  0  0
 27 44  1  0  0  0
 27 45  1  0  0  0
M  CHG  2   9  -1  10  -1
M  END
> <s_m_source_file>
../3ikg_ligand.sdf

> <i_m_source_file_index>
1

> <s_epik_input>
W2NIXTFjKFtDSDNdKVtjSF1bY0hdW2NIXWMxW0NIMl1bQ0BIXShbQ0gyXU9QKD1PKShbT0hdKVtPSF0pW05IXUMoPU8pYyhbY0hdMilzYyhjMjMpW2NIXVtjSF1bY0hdW2NIXTM=

> <s_epik_cmdline>
J2VwaWtfYXBwJywgJy1pbWFlJywgJ2xpZ2FuZF9wcm8ubWFlJywgJy1vbWFlJywgJ2xpZ2FuZF9wcmVwLm1hZScsICctbXMnLCAnMScsICctcGgnLCAnNycsICctcGh0JywgJzAuNScsICctbnQn

> <r_epik_Ionization_Penalty>
  0.1108

> <r_epik_Ionization_Penalty_Charging>
  0.1108

> <r_epik_Ionization_Penalty_Neutral>
  0.0000

> <r_epik_State_Penalty>
  0.1006

> <r_epik_Charging_Adjusted_Penalty>
0.211375542390818

> <i_epik_Tot_Q>
-2

> <i_epik_Tot_abs_Q>
2

$$$$
