3il5_ligand
                    3D
 Schrodinger Suite 2020-3.
 45 46  0  0  1  0            999 V2000
 -187.3220  146.2720   31.6320 S   0  0  0  0  0  0
 -187.8160  145.2730   32.5610 O   0  0  0  0  0  0
 -188.3080  146.9700   30.8380 O   0  0  0  0  0  0
 -186.1270  145.5260   30.5640 N   0  0  0  0  0  0
 -185.5250  146.4530   29.5240 C   0  0  0  0  0  0
 -185.9080  146.0900   28.0780 C   0  0  0  0  0  0
 -185.0450  144.7860   31.4370 C   0  0  0  0  0  0
 -183.5480  145.0570   31.1870 C   0  0  0  0  0  0
 -186.4820  147.5670   32.6380 C   0  0  0  0  0  0
 -185.7790  147.3410   33.9380 C   0  0  0  0  0  0
 -185.5690  145.6840   34.8730 Br  0  0  0  0  0  0
 -185.1580  148.4600   34.6270 C   0  0  0  0  0  0
 -185.2050  149.7700   34.0840 C   0  0  0  0  0  0
 -185.8770  150.0120   32.8270 C   0  0  0  0  0  0
 -185.9310  151.3700   32.2270 C   0  0  0  0  0  0
 -185.8980  151.4830   30.9980 O   0  0  0  0  0  0
 -186.0090  152.3880   33.1940 N   0  0  0  0  0  0
 -186.0680  153.8140   33.0170 C   0  0  0  0  0  0
 -186.0490  154.4460   31.7080 C   0  0  0  0  0  0
 -186.1110  155.8600   31.5590 C   0  0  0  0  0  0
 -186.1950  156.6950   32.7120 C   0  0  0  0  0  0
 -186.2150  156.1220   34.0230 C   0  0  0  0  0  0
 -186.1530  154.6780   34.2190 C   0  0  0  0  0  0
 -186.1810  154.1580   35.6630 C   0  0  0  0  0  0
 -186.3850  152.9160   35.8420 O   0  0  0  0  0  0
 -185.9980  154.9980   36.6000 O   0  5  0  0  0  0
 -186.5100  148.9170   32.1150 C   0  0  0  0  0  0
 -185.8697  147.4816   29.7063 H   0  0  0  0  0  0
 -184.4277  146.4166   29.5917 H   0  0  0  0  0  0
 -185.4372  146.8021   27.3842 H   0  0  0  0  0  0
 -187.0012  146.1368   27.9655 H   0  0  0  0  0  0
 -185.5592  145.0718   27.8509 H   0  0  0  0  0  0
 -185.1917  145.0415   32.4968 H   0  0  0  0  0  0
 -185.1477  143.6989   31.3043 H   0  0  0  0  0  0
 -182.9453  144.4570   31.8847 H   0  0  0  0  0  0
 -183.3373  146.1250   31.3452 H   0  0  0  0  0  0
 -183.2934  144.7823   30.1527 H   0  0  0  0  0  0
 -184.6483  148.2902   35.5754 H   0  0  0  0  0  0
 -184.7332  150.5961   34.6160 H   0  0  0  0  0  0
 -186.0324  152.1304   34.2632 H   0  0  0  0  0  0
 -185.9856  153.8207   30.8175 H   0  0  0  0  0  0
 -186.0943  156.3046   30.5639 H   0  0  0  0  0  0
 -186.2443  157.7774   32.5938 H   0  0  0  0  0  0
 -186.2778  156.7772   34.8918 H   0  0  0  0  0  0
 -187.0155  149.1144   31.1697 H   0  0  0  0  0  0
  1  2  2  0  0  0
  1  3  2  0  0  0
  1  4  1  0  0  0
  1  9  1  0  0  0
  4  5  1  0  0  0
  4  7  1  0  0  0
  5  6  1  0  0  0
  5 28  1  0  0  0
  5 29  1  0  0  0
  6 30  1  0  0  0
  6 31  1  0  0  0
  6 32  1  0  0  0
  7  8  1  0  0  0
  7 33  1  0  0  0
  7 34  1  0  0  0
  8 35  1  0  0  0
  8 36  1  0  0  0
  8 37  1  0  0  0
  9 10  2  0  0  0
  9 27  1  0  0  0
 10 11  1  0  0  0
 10 12  1  0  0  0
 12 13  2  0  0  0
 12 38  1  0  0  0
 13 14  1  0  0  0
 13 39  1  0  0  0
 14 15  1  0  0  0
 14 27  2  0  0  0
 15 16  2  0  0  0
 15 17  1  0  0  0
 17 18  1  0  0  0
 17 40  1  0  0  0
 18 19  2  0  0  0
 18 23  1  0  0  0
 19 20  1  0  0  0
 19 41  1  0  0  0
 20 21  2  0  0  0
 20 42  1  0  0  0
 21 22  1  0  0  0
 21 43  1  0  0  0
 22 23  2  0  0  0
 22 44  1  0  0  0
 23 24  1  0  0  0
 24 25  2  0  0  0
 24 26  1  0  0  0
 27 45  1  0  0  0
M  CHG  1  26  -1
M  END
> <s_m_source_file>
../3il5_ligand.sdf

> <i_m_source_file_index>
1

> <s_epik_input>
W0NIM11bQ0gyXU4oW0NIMl1bQ0gzXSlTKD1PKSg9TyljMWMoQnIpW2NIXVtjSF1jKFtjSF0xKUMoPU8pW05IXWMyW2NIXVtjSF1bY0hdW2NIXWMyQyg9TylbT0hd

> <s_epik_cmdline>
J2VwaWtfYXBwJywgJy1pbWFlJywgJ2xpZ2FuZF9wcm8ubWFlJywgJy1vbWFlJywgJ2xpZ2FuZF9wcmVwLm1hZScsICctbXMnLCAnMScsICctcGgnLCAnNycsICctcGh0JywgJzAuNScsICctbnQn

> <r_lp_tautomer_probability>
1

> <r_epik_Ionization_Penalty>
  0.0005

> <r_epik_Ionization_Penalty_Charging>
  0.0004

> <r_epik_Ionization_Penalty_Neutral>
  0.0000

> <r_epik_State_Penalty>
 -0.0000

> <r_epik_Charging_Adjusted_Penalty>
0.000448732847435253

> <i_epik_Tot_Q>
-1

> <i_epik_Tot_abs_Q>
1

$$$$
