3ilq_ligand
                    3D
 Schrodinger Suite 2020-3.
133133  0  0  1  0            999 V2000
   -4.1240   16.4600   45.7020 C   0  0  2  0  0  0
   -4.2500   15.1600   45.0790 O   0  0  0  0  0  0
   -2.8590   17.1380   45.1230 C   0  0  2  0  0  0
   -2.8640   17.1160   43.6840 O   0  0  0  0  0  0
   -1.5820   16.4580   45.6540 C   0  0  1  0  0  0
   -0.4350   17.2090   45.2330 O   0  0  0  0  0  0
   -1.6020   16.2920   47.2000 C   0  0  1  0  0  0
   -1.4140   17.5650   47.8410 O   0  0  0  0  0  0
   -2.9210   15.6340   47.6910 C   0  0  2  0  0  0
   -4.0770   16.3820   47.1750 O   0  0  0  0  0  0
   -3.0430   15.4780   49.2300 C   0  0  0  0  0  0
   -2.7680   14.1250   49.6250 O   0  0  0  0  0  0
   -5.4550   14.4530   45.4280 C   0  0  0  0  0  0
   -5.2700   13.1070   44.7700 C   0  0  2  0  0  0
   -5.2770   13.2720   43.3310 O   0  0  0  0  0  0
   -4.0560   13.2540   42.7050 C   0  0  0  0  0  0
   -3.0730   12.7250   43.2150 O   0  0  0  0  0  0
   -3.9150   13.8660   41.3230 C   0  0  0  0  0  0
   -4.1850   12.8160   40.2700 C   0  0  0  0  0  0
   -2.9420   12.5100   39.4470 C   0  0  0  0  0  0
   -2.8730   11.0010   39.2030 C   0  0  0  0  0  0
   -3.0100   10.6880   37.7120 C   0  0  0  0  0  0
   -1.7510   10.0170   37.1650 C   0  0  0  0  0  0
   -1.7890    9.9430   35.6420 C   0  0  0  0  0  0
   -0.3890    9.6790   35.0900 C   0  0  0  0  0  0
   -0.0530   10.7140   34.0240 C   0  0  0  0  0  0
    0.4160   10.0950   32.7020 C   0  0  0  0  0  0
   -0.1860   10.8610   31.5160 C   0  0  0  0  0  0
    0.8520   11.6800   30.7230 C   0  0  0  0  0  0
    1.0880   13.0880   31.2930 C   0  0  0  0  0  0
    0.6930   14.1780   30.2770 C   0  0  0  0  0  0
    1.7070   15.3250   30.1810 C   0  0  0  0  0  0
   -6.4180   12.2340   45.2290 C   0  0  0  0  0  0
   -6.1490   10.8400   44.9130 O   0  0  0  0  0  0
   -7.2630   10.0770   45.1300 C   0  0  0  0  0  0
   -8.1360   10.4930   45.9010 O   0  0  0  0  0  0
   -7.4090    8.6850   44.4770 C   0  0  0  0  0  0
   -7.0590    8.6070   42.9810 C   0  0  0  0  0  0
   -8.0170    7.6310   42.2830 C   0  0  0  0  0  0
   -7.5370    7.2180   40.8900 C   0  0  0  0  0  0
   -8.6100    6.3850   40.1790 C   0  0  0  0  0  0
   -9.1870    7.1540   38.9700 C   0  0  0  0  0  0
  -10.5670    6.6390   38.4740 C   0  0  0  0  0  0
  -11.1180    7.5110   37.5230 C   0  0  0  0  0  0
  -12.4770    7.8420   37.3730 C   0  0  0  0  0  0
  -13.5250    7.3130   38.1300 C   0  0  0  0  0  0
  -14.8030    8.1680   38.0080 C   0  0  0  0  0  0
  -16.1060    7.4340   38.4220 C   0  0  0  0  0  0
  -15.8580    6.2950   39.4270 C   0  0  0  0  0  0
  -17.1340    5.8760   40.1590 C   0  0  0  0  0  0
  -17.1430    4.3640   40.4140 C   0  0  0  0  0  0
  -17.1280    4.0190   41.9140 C   0  0  0  0  0  0
  -15.8040    3.3630   42.3510 C   0  0  0  0  0  0
   -5.0535   17.0086   45.4896 H   0  0  0  0  0  0
   -2.8644   18.2080   45.3781 H   0  0  0  0  0  0
   -3.7043   17.5599   43.1301 H   0  0  0  0  0  0
   -1.4646   15.4680   45.1891 H   0  0  0  0  0  0
   -0.2742   17.4146   44.1644 H   0  0  0  0  0  0
   -0.7412   15.6869   47.5208 H   0  0  0  0  0  0
   -0.5262   18.1717   47.6093 H   0  0  0  0  0  0
   -2.9542   14.6223   47.2604 H   0  0  0  0  0  0
   -2.3230   16.1466   49.7245 H   0  0  0  0  0  0
   -4.0636   15.7405   49.5454 H   0  0  0  0  0  0
   -2.8114   13.8425   50.6872 H   0  0  0  0  0  0
   -5.5326   14.3788   46.5228 H   0  0  0  0  0  0
   -6.3264   14.9971   45.0347 H   0  0  0  0  0  0
   -4.2994   12.6449   45.0032 H   0  0  0  0  0  0
   -4.6368   14.6885   41.2109 H   0  0  0  0  0  0
   -2.8937   14.2546   41.1965 H   0  0  0  0  0  0
   -4.5156   11.8861   40.7558 H   0  0  0  0  0  0
   -4.9713   13.1735   39.5889 H   0  0  0  0  0  0
   -2.9989   13.0413   38.4855 H   0  0  0  0  0  0
   -2.0481   12.8405   39.9962 H   0  0  0  0  0  0
   -1.9065   10.6157   39.5599 H   0  0  0  0  0  0
   -3.6895   10.5038   39.7472 H   0  0  0  0  0  0
   -3.8623   10.0102   37.5565 H   0  0  0  0  0  0
   -3.1777   11.6217   37.1552 H   0  0  0  0  0  0
   -0.8660   10.5956   37.4681 H   0  0  0  0  0  0
   -1.6762    8.9955   37.5661 H   0  0  0  0  0  0
   -2.4578    9.1269   35.3312 H   0  0  0  0  0  0
   -2.1610   10.8960   35.2377 H   0  0  0  0  0  0
    0.3454    9.7450   35.9063 H   0  0  0  0  0  0
   -0.3537    8.6734   34.6455 H   0  0  0  0  0  0
   -0.9451   11.3200   33.8073 H   0  0  0  0  0  0
    0.7540   11.3667   34.3881 H   0  0  0  0  0  0
    1.5133   10.1441   32.6431 H   0  0  0  0  0  0
    0.0929    9.0446   32.6539 H   0  0  0  0  0  0
   -0.6482   10.1491   30.8163 H   0  0  0  0  0  0
   -0.9494   11.5631   31.8824 H   0  0  0  0  0  0
    1.8185   11.1548   30.7328 H   0  0  0  0  0  0
    0.5096   11.7986   29.6844 H   0  0  0  0  0  0
    0.4831   13.2217   32.2020 H   0  0  0  0  0  0
    2.1530   13.2098   31.5401 H   0  0  0  0  0  0
    0.6066   13.7316   29.2754 H   0  0  0  0  0  0
   -0.2729   14.6172   30.5673 H   0  0  0  0  0  0
    1.3596   16.0605   29.4404 H   0  0  0  0  0  0
    2.6839   14.9257   29.8709 H   0  0  0  0  0  0
    1.8045   15.8113   31.1628 H   0  0  0  0  0  0
   -6.5454   12.3377   46.3167 H   0  0  0  0  0  0
   -7.3420   12.5459   44.7202 H   0  0  0  0  0  0
   -6.7454    7.9701   44.9854 H   0  0  0  0  0  0
   -8.4514    8.3454   44.5667 H   0  0  0  0  0  0
   -7.1577    9.6049   42.5289 H   0  0  0  0  0  0
   -6.0243    8.2524   42.8645 H   0  0  0  0  0  0
   -8.1146    6.7174   42.8879 H   0  0  0  0  0  0
   -9.0040    8.1034   42.1705 H   0  0  0  0  0  0
   -7.3282    8.1176   40.2925 H   0  0  0  0  0  0
   -6.6199    6.6174   40.9813 H   0  0  0  0  0  0
   -8.1667    5.4435   39.8225 H   0  0  0  0  0  0
   -9.4269    6.1628   40.8814 H   0  0  0  0  0  0
   -9.3194    8.2126   39.2381 H   0  0  0  0  0  0
   -8.4931    7.0751   38.1201 H   0  0  0  0  0  0
  -10.4445    5.6475   38.0136 H   0  0  0  0  0  0
  -11.2585    6.5646   39.3262 H   0  0  0  0  0  0
  -10.3669    7.9531   36.8518 H   0  0  0  0  0  0
  -12.7842    8.5722   36.6098 H   0  0  0  0  0  0
  -13.7536    6.2958   37.7793 H   0  0  0  0  0  0
  -13.2309    7.2782   39.1894 H   0  0  0  0  0  0
  -14.7144    9.0540   38.6538 H   0  0  0  0  0  0
  -14.9323    8.4872   36.9633 H   0  0  0  0  0  0
  -16.7970    8.1500   38.8908 H   0  0  0  0  0  0
  -16.5798    6.9971   37.5306 H   0  0  0  0  0  0
  -15.4669    5.4152   38.8949 H   0  0  0  0  0  0
  -15.1264    6.6232   40.1800 H   0  0  0  0  0  0
  -17.1911    6.3991   41.1250 H   0  0  0  0  0  0
  -18.0102    6.1380   39.5478 H   0  0  0  0  0  0
  -18.0499    3.9234   39.9743 H   0  0  0  0  0  0
  -16.2538    3.9091   39.9531 H   0  0  0  0  0  0
  -17.2629    4.9382   42.5030 H   0  0  0  0  0  0
  -17.9452    3.3173   42.1371 H   0  0  0  0  0  0
  -15.8443    3.1371   43.4268 H   0  0  0  0  0  0
  -14.9701    4.0523   42.1521 H   0  0  0  0  0  0
  -15.6524    2.4314   41.7861 H   0  0  0  0  0  0
  1  2  1  0  0  0
  1  3  1  0  0  0
  1 10  1  0  0  0
  1 54  1  0  0  0
  2 13  1  0  0  0
  3  4  1  0  0  0
  3  5  1  0  0  0
  3 55  1  0  0  0
  4 56  1  0  0  0
  5  6  1  0  0  0
  5  7  1  0  0  0
  5 57  1  0  0  0
  6 58  1  0  0  0
  7  8  1  0  0  0
  7  9  1  0  0  0
  7 59  1  0  0  0
  8 60  1  0  0  0
  9 10  1  0  0  0
  9 11  1  0  0  0
  9 61  1  0  0  0
 11 12  1  0  0  0
 11 62  1  0  0  0
 11 63  1  0  0  0
 12 64  1  0  0  0
 13 14  1  0  0  0
 13 65  1  0  0  0
 13 66  1  0  0  0
 14 15  1  0  0  0
 14 33  1  0  0  0
 14 67  1  0  0  0
 15 16  1  0  0  0
 16 17  2  0  0  0
 16 18  1  0  0  0
 18 19  1  0  0  0
 18 68  1  0  0  0
 18 69  1  0  0  0
 19 20  1  0  0  0
 19 70  1  0  0  0
 19 71  1  0  0  0
 20 21  1  0  0  0
 20 72  1  0  0  0
 20 73  1  0  0  0
 21 22  1  0  0  0
 21 74  1  0  0  0
 21 75  1  0  0  0
 22 23  1  0  0  0
 22 76  1  0  0  0
 22 77  1  0  0  0
 23 24  1  0  0  0
 23 78  1  0  0  0
 23 79  1  0  0  0
 24 25  1  0  0  0
 24 80  1  0  0  0
 24 81  1  0  0  0
 25 26  1  0  0  0
 25 82  1  0  0  0
 25 83  1  0  0  0
 26 27  1  0  0  0
 26 84  1  0  0  0
 26 85  1  0  0  0
 27 28  1  0  0  0
 27 86  1  0  0  0
 27 87  1  0  0  0
 28 29  1  0  0  0
 28 88  1  0  0  0
 28 89  1  0  0  0
 29 30  1  0  0  0
 29 90  1  0  0  0
 29 91  1  0  0  0
 30 31  1  0  0  0
 30 92  1  0  0  0
 30 93  1  0  0  0
 31 32  1  0  0  0
 31 94  1  0  0  0
 31 95  1  0  0  0
 32 96  1  0  0  0
 32 97  1  0  0  0
 32 98  1  0  0  0
 33 34  1  0  0  0
 33 99  1  0  0  0
 33100  1  0  0  0
 34 35  1  0  0  0
 35 36  2  0  0  0
 35 37  1  0  0  0
 37 38  1  0  0  0
 37101  1  0  0  0
 37102  1  0  0  0
 38 39  1  0  0  0
 38103  1  0  0  0
 38104  1  0  0  0
 39 40  1  0  0  0
 39105  1  0  0  0
 39106  1  0  0  0
 40 41  1  0  0  0
 40107  1  0  0  0
 40108  1  0  0  0
 41 42  1  0  0  0
 41109  1  0  0  0
 41110  1  0  0  0
 42 43  1  0  0  0
 42111  1  0  0  0
 42112  1  0  0  0
 43 44  1  0  0  0
 43113  1  0  0  0
 43114  1  0  0  0
 44 45  2  0  0  0
 44115  1  0  0  0
 45 46  1  0  0  0
 45116  1  0  0  0
 46 47  1  0  0  0
 46117  1  0  0  0
 46118  1  0  0  0
 47 48  1  0  0  0
 47119  1  0  0  0
 47120  1  0  0  0
 48 49  1  0  0  0
 48121  1  0  0  0
 48122  1  0  0  0
 49 50  1  0  0  0
 49123  1  0  0  0
 49124  1  0  0  0
 50 51  1  0  0  0
 50125  1  0  0  0
 50126  1  0  0  0
 51 52  1  0  0  0
 51127  1  0  0  0
 51128  1  0  0  0
 52 53  1  0  0  0
 52129  1  0  0  0
 52130  1  0  0  0
 53131  1  0  0  0
 53132  1  0  0  0
 53133  1  0  0  0
M  END
> <s_m_source_file>
../3ilq_ligand.sdf

> <i_m_source_file_index>
1

> <s_epik_input>
W0NIM11bQ0gyXVtDSDJdW0NIMl1bQ0gyXVtDSDJdW0NIMl1bQ0gyXVtDSDJdW0NIMl1bQ0gyXVtDSDJdW0NIMl1bQ0gyXVtDSDJdQyg9TylPW0NAQEhdKFtDSDJdT1tDQEBIXTFbQ0BIXShbT0hdKVtDQEBIXShbT0hdKVtDQEBIXShbT0hdKVtDQEhdKE8xKVtDSDJdW09IXSlbQ0gyXU9DKD1PKVtDSDJdW0NIMl1bQ0gyXVtDSDJdW0NIMl1bQ0gyXVtDSDJdL1tDSF09W0NIXVxbQ0gyXVtDSDJdW0NIMl1bQ0gyXVtDSDJdW0NIMl1bQ0gyXVtDSDNd

> <s_epik_cmdline>
J2VwaWtfYXBwJywgJy1pbWFlJywgJ2xpZ2FuZF9wcm8ubWFlJywgJy1vbWFlJywgJ2xpZ2FuZF9wcmVwLm1hZScsICctbXMnLCAnMScsICctcGgnLCAnNycsICctcGh0JywgJzAuNScsICctbnQn

> <r_lp_tautomer_probability>
1

> <r_epik_Ionization_Penalty>
  0.0000

> <r_epik_Ionization_Penalty_Charging>
  0.0000

> <r_epik_Ionization_Penalty_Neutral>
  0.0000

> <r_epik_State_Penalty>
 -0.0000

> <r_epik_Charging_Adjusted_Penalty>
0

> <i_epik_Tot_Q>
0

> <i_epik_Tot_abs_Q>
0

> <s_epik_Chemistry_Notes>
This compound has an ester and may undergo hydrolysis at high or low pH. This compound contains an acetal/aminal-like group ( X-CH(R)-Y where X, Y are N, S, or O) that may be acid/base labile, releasing an aldehyde.

$$$$
