3img_ligand
                    3D
 Schrodinger Suite 2020-3.
 20 21  0  0  1  0            999 V2000
   11.0130    9.2480   -4.8860 C   0  0  0  0  0  0
   15.1540   10.6640   -0.3500 C   0  0  0  0  0  0
   14.6520    9.7400   -4.7730 C   0  0  0  0  0  0
   13.8920   10.5310   -0.7930 C   0  0  0  0  0  0
   15.6410    9.9650   -3.8110 C   0  0  0  0  0  0
   12.9360   10.0220   -3.0710 C   0  0  0  0  0  0
   15.9890   10.4900   -1.3840 N   0  3  0  0  0  0
   12.3530    9.5300   -5.3910 O   0  0  0  0  0  0
   13.2960    9.7580   -4.4110 C   0  0  0  0  0  0
   13.9300   10.2620   -2.1070 C   0  0  0  0  0  0
   15.2770   10.2350   -2.4830 C   0  0  0  0  0  0
   10.3302    9.0799   -5.7319 H   0  0  0  0  0  0
   10.6575   10.1030   -4.2922 H   0  0  0  0  0  0
   11.0414    8.3486   -4.2533 H   0  0  0  0  0  0
   15.3443   10.8804    0.7116 H   0  0  0  0  0  0
   14.9350    9.5498   -5.8083 H   0  0  0  0  0  0
   13.0492   10.6465   -0.0956 H   0  0  0  0  0  0
   16.6936    9.9307   -4.0921 H   0  0  0  0  0  0
   11.8846   10.0396   -2.7839 H   0  0  0  0  0  0
   17.0757   10.5684   -1.2326 H   0  0  0  0  0  0
  1  8  1  0  0  0
  1 12  1  0  0  0
  1 13  1  0  0  0
  1 14  1  0  0  0
  2  4  2  0  0  0
  2  7  1  0  0  0
  2 15  1  0  0  0
  3  5  2  0  0  0
  3  9  1  0  0  0
  3 16  1  0  0  0
  4 10  1  0  0  0
  4 17  1  0  0  0
  5 11  1  0  0  0
  5 18  1  0  0  0
  6  9  2  0  0  0
  6 10  1  0  0  0
  6 19  1  0  0  0
  7 11  1  0  0  0
  7 20  1  0  0  0
  8  9  1  0  0  0
 10 11  2  0  0  0
M  CHG  1   7   1
M  END
> <s_m_source_file>
../3img_ligand.sdf

> <i_m_source_file_index>
1

> <s_epik_input>
W0NIM11PYyhbY0hdMSlbY0hdW2NIXWMoYzEyKVtuSF1bY0hdW2NIXTI=

> <s_epik_cmdline>
J2VwaWtfYXBwJywgJy1pbWFlJywgJ2xpZ2FuZF9wcm8ubWFlJywgJy1vbWFlJywgJ2xpZ2FuZF9wcmVwLm1hZScsICctbXMnLCAnMScsICctcGgnLCAnNycsICctcGh0JywgJzAuNScsICctbnQn

> <r_lp_tautomer_probability>
1

> <r_epik_Ionization_Penalty>
  0.0000

> <r_epik_Ionization_Penalty_Charging>
  0.0000

> <r_epik_Ionization_Penalty_Neutral>
  0.0000

> <r_epik_State_Penalty>
 -0.0000

> <r_epik_Charging_Adjusted_Penalty>
0

> <i_epik_Tot_Q>
1

> <i_epik_Tot_abs_Q>
1

$$$$
