3imy_ligand
                    3D
 Schrodinger Suite 2020-3.
 47 48  0  0  1  0            999 V2000
   10.1970   22.7540   24.7310 O   0  0  0  0  0  0
    9.3990   22.7910   25.6110 C   0  0  0  0  0  0
    8.7770   24.0160   25.8710 O   0  5  0  0  0  0
    8.5890   21.5320   25.9490 C   0  0  0  0  0  0
    7.5060   21.8120   26.8010 O   0  0  0  0  0  0
    6.6940   20.7720   27.3250 C   0  0  0  0  0  0
    6.9350   20.3440   28.6790 C   0  0  0  0  0  0
    6.1540   19.3520   29.2360 C   0  0  0  0  0  0
    6.3950   18.9220   30.6950 C   0  0  0  0  0  0
    5.0470   18.7430   28.3910 C   0  0  0  0  0  0
    4.7910   19.1410   27.0870 C   0  0  0  0  0  0
    5.6330   20.1910   26.5320 C   0  0  0  0  0  0
    3.6710   18.5030   26.2360 C   0  0  0  0  0  0
    4.2360   17.5870   28.9990 C   0  0  0  0  0  0
    3.1090   18.0970   29.9010 C   0  0  0  0  0  0
    2.8020   17.3650   31.0800 C   0  0  0  0  0  0
    1.7120   17.7950   31.9030 C   0  0  0  0  0  0
    1.3730   17.0540   33.1980 C   0  0  0  0  0  0
    1.5330   15.5430   33.1110 C   0  0  0  0  0  0
    2.0920   17.7180   34.3720 C   0  0  0  0  0  0
    0.9450   18.9380   31.5310 C   0  0  0  0  0  0
   -0.1370   19.3140   32.3290 O   0  0  0  0  0  0
    1.2690   19.6900   30.3190 C   0  0  0  0  0  0
    2.3250   19.2810   29.5080 C   0  0  0  0  0  0
    8.1909   21.0924   25.0225 H   0  0  0  0  0  0
    9.2398   20.8012   26.4514 H   0  0  0  0  0  0
    7.7330   20.8029   29.2627 H   0  0  0  0  0  0
    7.2412   19.4896   31.1095 H   0  0  0  0  0  0
    6.6239   17.8466   30.7272 H   0  0  0  0  0  0
    5.4920   19.1227   31.2903 H   0  0  0  0  0  0
    5.4630   20.5410   25.5138 H   0  0  0  0  0  0
    3.1518   17.7358   26.8291 H   0  0  0  0  0  0
    4.1101   18.0392   25.3404 H   0  0  0  0  0  0
    2.9536   19.2796   25.9325 H   0  0  0  0  0  0
    3.7886   16.9887   28.1917 H   0  0  0  0  0  0
    4.9002   16.9506   29.6021 H   0  0  0  0  0  0
    3.3885   16.4880   31.3540 H   0  0  0  0  0  0
    0.2927   17.1480   33.3825 H   0  0  0  0  0  0
    0.9811   15.1655   32.2376 H   0  0  0  0  0  0
    1.1345   15.0789   34.0252 H   0  0  0  0  0  0
    2.5991   15.2926   33.0074 H   0  0  0  0  0  0
    1.9144   18.8032   34.3443 H   0  0  0  0  0  0
    3.1718   17.5212   34.2994 H   0  0  0  0  0  0
    1.7072   17.3075   35.3172 H   0  0  0  0  0  0
   -0.3739   18.7431   33.2389 H   0  0  0  0  0  0
    0.6844   20.5700   30.0506 H   0  0  0  0  0  0
    2.5675   19.8282   28.5970 H   0  0  0  0  0  0
  1  2  2  0  0  0
  2  3  1  0  0  0
  2  4  1  0  0  0
  4  5  1  0  0  0
  4 25  1  0  0  0
  4 26  1  0  0  0
  5  6  1  0  0  0
  6  7  2  0  0  0
  6 12  1  0  0  0
  7  8  1  0  0  0
  7 27  1  0  0  0
  8  9  1  0  0  0
  8 10  2  0  0  0
  9 28  1  0  0  0
  9 29  1  0  0  0
  9 30  1  0  0  0
 10 11  1  0  0  0
 10 14  1  0  0  0
 11 12  2  0  0  0
 11 13  1  0  0  0
 12 31  1  0  0  0
 13 32  1  0  0  0
 13 33  1  0  0  0
 13 34  1  0  0  0
 14 15  1  0  0  0
 14 35  1  0  0  0
 14 36  1  0  0  0
 15 16  2  0  0  0
 15 24  1  0  0  0
 16 17  1  0  0  0
 16 37  1  0  0  0
 17 18  1  0  0  0
 17 21  2  0  0  0
 18 19  1  0  0  0
 18 20  1  0  0  0
 18 38  1  0  0  0
 19 39  1  0  0  0
 19 40  1  0  0  0
 19 41  1  0  0  0
 20 42  1  0  0  0
 20 43  1  0  0  0
 20 44  1  0  0  0
 21 22  1  0  0  0
 21 23  1  0  0  0
 22 45  1  0  0  0
 23 24  2  0  0  0
 23 46  1  0  0  0
 24 47  1  0  0  0
M  CHG  1   3  -1
M  END
> <s_m_source_file>
../3imy_ligand.sdf

> <i_m_source_file_index>
1

> <s_epik_input>
Tz1DKFtPSF0pW0NIMl1PYzFbY0hdYyhbQ0gzXSljKGMoW2NIXTEpW0NIM10pW0NIMl1jMltjSF1jKFtDSF0oW0NIM10pW0NIM10pYyhbT0hdKVtjSF1bY0hdMg==

> <s_epik_cmdline>
J2VwaWtfYXBwJywgJy1pbWFlJywgJ2xpZ2FuZF9wcm8ubWFlJywgJy1vbWFlJywgJ2xpZ2FuZF9wcmVwLm1hZScsICctbXMnLCAnMScsICctcGgnLCAnNycsICctcGh0JywgJzAuNScsICctbnQn

> <r_lp_tautomer_probability>
1

> <r_epik_Ionization_Penalty>
  0.0002

> <r_epik_Ionization_Penalty_Charging>
  0.0001

> <r_epik_Ionization_Penalty_Neutral>
  0.0001

> <r_epik_State_Penalty>
 -0.0000

> <r_epik_Charging_Adjusted_Penalty>
5.44951621730664e-05

> <i_epik_Tot_Q>
-1

> <i_epik_Tot_abs_Q>
1

$$$$
