3in3_ligand
                    3D
 Schrodinger Suite 2020-3.
 43 46  0  0  1  0            999 V2000
   15.9720   -4.3250   17.6750 C   0  0  0  0  0  0
   15.4020   -5.4950   17.0420 N   0  0  0  0  0  0
   14.3440   -6.3440   18.8890 O   0  0  0  0  0  0
   14.6420   -6.4050   17.7050 C   0  0  0  0  0  0
   14.9100   -6.9790   15.4300 N   0  0  0  0  0  0
   14.2190   -7.4830   16.6710 C   0  0  1  0  0  0
   16.3240   -5.2430   14.8800 N   0  0  0  0  0  0
   15.5100   -5.8790   15.7540 C   0  0  0  0  0  0
   15.7070  -11.5170   17.4180 N   0  0  0  0  0  0
   14.7430   -8.8990   16.9680 C   0  0  0  0  0  0
    9.9800   -3.0480   13.9520 N   0  0  0  0  0  0
   15.0120   -9.7760   15.9020 C   0  0  0  0  0  0
   15.4850  -11.0510   16.1700 C   0  0  0  0  0  0
   15.4480  -10.6700   18.4340 C   0  0  0  0  0  0
   14.9720   -9.3730   18.2660 C   0  0  0  0  0  0
   12.6790   -7.4410   16.5630 C   0  0  0  0  0  0
   11.8600   -8.5390   16.8830 C   0  0  0  0  0  0
   10.4710   -8.4450   16.7690 C   0  0  0  0  0  0
    9.8690   -7.2600   16.3370 C   0  0  0  0  0  0
   10.6530   -6.1450   16.0100 C   0  0  0  0  0  0
   12.0480   -6.2610   16.1320 C   0  0  0  0  0  0
   10.0610   -4.8760   15.5630 C   0  0  0  0  0  0
    9.0300   -4.2530   16.2820 C   0  0  0  0  0  0
    8.4830   -3.0490   15.8410 C   0  0  0  0  0  0
    8.9860   -2.4860   14.6790 C   0  0  0  0  0  0
   10.4910   -4.2210   14.4100 C   0  0  0  0  0  0
   15.6911   -4.3100   18.7384 H   0  0  0  0  0  0
   15.5902   -3.4188   17.1820 H   0  0  0  0  0  0
   17.0679   -4.3570   17.5857 H   0  0  0  0  0  0
   14.8498   -9.4555   14.8729 H   0  0  0  0  0  0
   15.6887  -11.7130   15.3284 H   0  0  0  0  0  0
   15.6222  -11.0228   19.4505 H   0  0  0  0  0  0
   14.7806   -8.7367   19.1301 H   0  0  0  0  0  0
   12.3128   -9.4705   17.2226 H   0  0  0  0  0  0
    9.8500   -9.3050   17.0196 H   0  0  0  0  0  0
    8.7837   -7.2025   16.2539 H   0  0  0  0  0  0
   12.6672   -5.3995   15.8818 H   0  0  0  0  0  0
    8.6529   -4.7149   17.1944 H   0  0  0  0  0  0
    7.6804   -2.5630   16.3958 H   0  0  0  0  0  0
    8.5602   -1.5440   14.3333 H   0  0  0  0  0  0
   11.2940   -4.6824   13.8351 H   0  0  0  0  0  0
   16.4849   -5.6600   13.8749 H   0  0  0  0  0  0
   14.8333   -7.5445   14.4896 H   0  0  0  0  0  0
  1  2  1  0  0  0
  1 27  1  0  0  0
  1 28  1  0  0  0
  1 29  1  0  0  0
  2  4  1  0  0  0
  2  8  1  0  0  0
  3  4  2  0  0  0
  4  6  1  0  0  0
  5  6  1  0  0  0
  5  8  1  0  0  0
  5 43  1  0  0  0
  6 10  1  0  0  0
  6 16  1  0  0  0
  7  8  2  0  0  0
  7 42  1  0  0  0
  9 13  2  0  0  0
  9 14  1  0  0  0
 10 12  2  0  0  0
 10 15  1  0  0  0
 11 25  2  0  0  0
 11 26  1  0  0  0
 12 13  1  0  0  0
 12 30  1  0  0  0
 13 31  1  0  0  0
 14 15  2  0  0  0
 14 32  1  0  0  0
 15 33  1  0  0  0
 16 17  2  0  0  0
 16 21  1  0  0  0
 17 18  1  0  0  0
 17 34  1  0  0  0
 18 19  2  0  0  0
 18 35  1  0  0  0
 19 20  1  0  0  0
 19 36  1  0  0  0
 20 21  2  0  0  0
 20 22  1  0  0  0
 21 37  1  0  0  0
 22 23  1  0  0  0
 22 26  2  0  0  0
 23 24  2  0  0  0
 23 38  1  0  0  0
 24 25  1  0  0  0
 24 39  1  0  0  0
 25 40  1  0  0  0
 26 41  1  0  0  0
M  END
> <s_m_source_file>
../3in3_ligand.sdf

> <i_m_source_file_index>
1

> <s_epik_input>
W2NIXTFbY0hdbltjSF1bY0hdYzFbQ0BdMihDKD1PKU4oW0NIM10pL0MoW05IXTIpPU5cW0hdKWMzW2NIXVtjSF1bY0hdYyhbY0hdMyktYzRbY0hdW2NIXVtjSF1uW2NIXTQ=

> <s_epik_cmdline>
J2VwaWtfYXBwJywgJy1pbWFlJywgJ2xpZ2FuZF9wcm8ubWFlJywgJy1vbWFlJywgJ2xpZ2FuZF9wcmVwLm1hZScsICctbXMnLCAnMScsICctcGgnLCAnNycsICctcGh0JywgJzAuNScsICctbnQn

> <r_lp_tautomer_probability>
0.499639836881432

> <r_epik_Ionization_Penalty>
  6.2229

> <r_epik_Ionization_Penalty_Charging>
  0.0000

> <r_epik_Ionization_Penalty_Neutral>
  6.2229

> <r_epik_State_Penalty>
  0.4107

> <r_epik_Charging_Adjusted_Penalty>
0.410679838952604

> <i_epik_Tot_Q>
0

> <i_epik_Tot_abs_Q>
0

> <s_epik_Chemistry_Notes>
This compound has an imine and may undergo hydrolysis.

$$$$
