3in4_ligand
                    3D
 Schrodinger Suite 2020-3.
 54 57  0  0  1  0            999 V2000
   16.3090  -13.2410   15.5770 C   0  0  0  0  0  0
   15.8040  -11.3220   17.4690 N   0  0  0  0  0  0
   14.3490   -6.1890   18.8260 O   0  0  0  0  0  0
   15.6960  -11.9340   15.0960 C   0  0  0  0  0  0
   15.4290   -5.3490   16.9710 N   0  0  0  0  0  0
   15.4910  -10.9380   16.2090 C   0  0  0  0  0  0
   14.8550   -6.7880   15.3480 N   0  0  0  0  0  0
   14.9940   -9.6730   15.9150 C   0  0  0  0  0  0
   16.4320   -5.1830   14.8490 N   0  0  0  0  0  0
   14.7990   -8.7380   16.9380 C   0  0  0  0  0  0
    9.8820   -2.9390   14.0970 N   0  0  0  0  0  0
   15.1230   -9.1390   18.2420 C   0  0  0  0  0  0
    8.3250   -3.1510   15.8840 N   0  0  0  0  0  0
   15.6180  -10.4230   18.4660 C   0  0  0  0  0  0
   15.9700  -10.8660   19.8630 C   0  0  0  0  0  0
   17.4740  -10.9630   20.0690 C   0  0  0  0  0  0
   14.2470   -7.3370   16.6190 C   0  0  1  0  0  0
   14.6650   -6.2530   17.6450 C   0  0  0  0  0  0
   15.5450   -5.7480   15.6900 C   0  0  0  0  0  0
   16.0040   -4.1780   17.5850 C   0  0  0  0  0  0
   12.7180   -7.3670   16.5030 C   0  0  0  0  0  0
   11.9360   -8.4980   16.7650 C   0  0  0  0  0  0
   10.5480   -8.4390   16.6340 C   0  0  0  0  0  0
    9.9140   -7.2600   16.2460 C   0  0  0  0  0  0
   10.6620   -6.1100   15.9770 C   0  0  0  0  0  0
   12.0570   -6.1860   16.1130 C   0  0  0  0  0  0
   10.0240   -4.8560   15.5740 C   0  0  0  0  0  0
   10.4490   -4.1010   14.4970 C   0  0  0  0  0  0
    8.8380   -2.5170   14.8220 C   0  0  0  0  0  0
    8.9370   -4.3070   16.2330 C   0  0  0  0  0  0
   16.4334  -13.9236   14.7234 H   0  0  0  0  0  0
   15.6465  -13.7039   16.3232 H   0  0  0  0  0  0
   17.2901  -13.0402   16.0320 H   0  0  0  0  0  0
   16.3585  -11.4711   14.3498 H   0  0  0  0  0  0
   14.7149  -12.1347   14.6409 H   0  0  0  0  0  0
   14.7556   -9.4088   14.8847 H   0  0  0  0  0  0
   14.9886   -8.4504   19.0762 H   0  0  0  0  0  0
   15.5702  -10.1425   20.5887 H   0  0  0  0  0  0
   15.5328  -11.8571   20.0545 H   0  0  0  0  0  0
   17.6828  -11.2885   21.0988 H   0  0  0  0  0  0
   17.9321   -9.9780   19.8957 H   0  0  0  0  0  0
   17.8947  -11.6926   19.3614 H   0  0  0  0  0  0
   15.7178   -4.1426   18.6465 H   0  0  0  0  0  0
   15.6328   -3.2769   17.0749 H   0  0  0  0  0  0
   17.1000   -4.2212   17.5019 H   0  0  0  0  0  0
   12.4132   -9.4285   17.0726 H   0  0  0  0  0  0
    9.9510   -9.3278   16.8381 H   0  0  0  0  0  0
    8.8284   -7.2344   16.1517 H   0  0  0  0  0  0
   12.6522   -5.2960   15.9087 H   0  0  0  0  0  0
   11.3032   -4.4683   13.9283 H   0  0  0  0  0  0
    8.3672   -1.5805   14.5230 H   0  0  0  0  0  0
    8.5453   -4.8451   17.0962 H   0  0  0  0  0  0
   16.5836   -5.6052   13.8446 H   0  0  0  0  0  0
   14.6599   -7.2843   14.3859 H   0  0  0  0  0  0
  1  4  1  0  0  0
  1 31  1  0  0  0
  1 32  1  0  0  0
  1 33  1  0  0  0
  2  6  2  0  0  0
  2 14  1  0  0  0
  3 18  2  0  0  0
  4  6  1  0  0  0
  4 34  1  0  0  0
  4 35  1  0  0  0
  5 18  1  0  0  0
  5 19  1  0  0  0
  5 20  1  0  0  0
  6  8  1  0  0  0
  7 17  1  0  0  0
  7 19  1  0  0  0
  7 54  1  0  0  0
  8 10  2  0  0  0
  8 36  1  0  0  0
  9 19  2  0  0  0
  9 53  1  0  0  0
 10 12  1  0  0  0
 10 17  1  0  0  0
 11 28  2  0  0  0
 11 29  1  0  0  0
 12 14  2  0  0  0
 12 37  1  0  0  0
 13 29  2  0  0  0
 13 30  1  0  0  0
 14 15  1  0  0  0
 15 16  1  0  0  0
 15 38  1  0  0  0
 15 39  1  0  0  0
 16 40  1  0  0  0
 16 41  1  0  0  0
 16 42  1  0  0  0
 17 18  1  0  0  0
 17 21  1  0  0  0
 20 43  1  0  0  0
 20 44  1  0  0  0
 20 45  1  0  0  0
 21 22  2  0  0  0
 21 26  1  0  0  0
 22 23  1  0  0  0
 22 46  1  0  0  0
 23 24  2  0  0  0
 23 47  1  0  0  0
 24 25  1  0  0  0
 24 48  1  0  0  0
 25 26  2  0  0  0
 25 27  1  0  0  0
 26 49  1  0  0  0
 27 28  1  0  0  0
 27 30  2  0  0  0
 28 50  1  0  0  0
 29 51  1  0  0  0
 30 52  1  0  0  0
M  END
> <s_m_source_file>
../3in4_ligand.sdf

> <i_m_source_file_index>
1

> <s_epik_input>
W0NIM11bQ0gyXWMxbmMoW0NIMl1bQ0gzXSlbY0hdYyhbY0hdMSlbQ0BAXTIoW05IXUMoPU5cW0hdKVxOKEMyPU8pW0NIM10pYzNbY0hdW2NIXVtjSF1jKFtjSF0zKS1jNFtjSF1uW2NIXW5bY0hdNA==

> <s_epik_cmdline>
J2VwaWtfYXBwJywgJy1pbWFlJywgJ2xpZ2FuZF9wcm8ubWFlJywgJy1vbWFlJywgJ2xpZ2FuZF9wcmVwLm1hZScsICctbXMnLCAnMScsICctcGgnLCAnNycsICctcGh0JywgJzAuNScsICctbnQn

> <r_lp_tautomer_probability>
0.499639836881432

> <r_epik_Ionization_Penalty>
  6.2645

> <r_epik_Ionization_Penalty_Charging>
  0.0000

> <r_epik_Ionization_Penalty_Neutral>
  6.2645

> <r_epik_State_Penalty>
  0.4107

> <r_epik_Charging_Adjusted_Penalty>
0.410679838952604

> <i_epik_Tot_Q>
0

> <i_epik_Tot_abs_Q>
0

> <s_epik_Chemistry_Notes>
This compound has an imine and may undergo hydrolysis.

$$$$
