3ind_ligand
                    3D
 Schrodinger Suite 2020-3.
 50 54  0  0  1  0            999 V2000
   16.2590   -4.1920   17.5680 C   0  0  0  0  0  0
   15.6120   -5.3650   16.9990 N   0  0  0  0  0  0
   14.8100   -6.3140   18.9480 O   0  0  0  0  0  0
   14.9550   -6.3110   17.7370 C   0  0  0  0  0  0
   15.0090   -6.8570   15.4540 N   0  3  0  0  0  0
   14.4230   -7.3640   16.7410 C   0  0  1  0  0  0
   16.3190   -5.0360   14.7640 N   0  0  0  0  0  0
   15.5610   -5.7040   15.6830 C   0  0  0  0  0  0
   14.9610   -8.7820   17.0190 C   0  0  0  0  0  0
   15.3160   -9.6540   15.9770 C   0  0  0  0  0  0
   15.8020  -10.9400   16.2310 C   0  0  0  0  0  0
   15.9450  -11.3890   17.5410 C   0  0  0  0  0  0
   15.6010  -10.5490   18.5930 C   0  0  0  0  0  0
   15.1140   -9.2630   18.3350 C   0  0  0  0  0  0
   12.8390   -7.2930   16.6110 C   0  0  0  0  0  0
   12.1320   -7.9440   17.8470 C   0  0  0  0  0  0
   10.5990   -7.8510   17.7390 C   0  0  1  0  0  0
   10.1800   -6.3760   17.6670 C   0  0  0  0  0  0
   10.8200   -5.7120   16.4390 C   0  0  1  0  0  0
   12.3510   -5.8080   16.5460 C   0  0  0  0  0  0
   10.3670   -6.4330   15.1620 C   0  0  0  0  0  0
   10.7720   -7.9110   15.2290 C   0  0  2  0  0  0
   10.1360   -8.5670   16.4630 C   0  0  0  0  0  0
   12.3050   -8.0130   15.3360 C   0  0  0  0  0  0
   16.1283   -4.1948   18.6602 H   0  0  0  0  0  0
   15.8056   -3.2826   17.1468 H   0  0  0  0  0  0
   17.3321   -4.2121   17.3270 H   0  0  0  0  0  0
   16.7601   -4.0611   15.0191 H   0  0  0  0  0  0
   15.2100   -9.3200   14.9449 H   0  0  0  0  0  0
   16.0699  -11.5933   15.4006 H   0  0  0  0  0  0
   16.3238  -12.3915   17.7398 H   0  0  0  0  0  0
   15.7108  -10.8927   19.6216 H   0  0  0  0  0  0
   14.8465   -8.6177   19.1717 H   0  0  0  0  0  0
   12.4111   -9.0060   17.9117 H   0  0  0  0  0  0
   12.4469   -7.4256   18.7647 H   0  0  0  0  0  0
   10.1372   -8.3234   18.6185 H   0  0  0  0  0  0
    9.0849   -6.3094   17.5868 H   0  0  0  0  0  0
   10.5133   -5.8553   18.5768 H   0  0  0  0  0  0
   10.5083   -4.6579   16.3977 H   0  0  0  0  0  0
   12.6666   -5.2781   17.4568 H   0  0  0  0  0  0
   12.7894   -5.3162   15.6652 H   0  0  0  0  0  0
    9.2735   -6.3592   15.0676 H   0  0  0  0  0  0
   10.8429   -5.9645   14.2879 H   0  0  0  0  0  0
   10.4215   -8.4240   14.3213 H   0  0  0  0  0  0
   10.4378   -9.6239   16.5056 H   0  0  0  0  0  0
    9.0409   -8.5013   16.3825 H   0  0  0  0  0  0
   12.7475   -7.5506   14.4414 H   0  0  0  0  0  0
   12.5809   -9.0772   15.3732 H   0  0  0  0  0  0
   16.4884   -5.4729   13.7688 H   0  0  0  0  0  0
   15.0326   -7.2867   14.4417 H   0  0  0  0  0  0
  1  2  1  0  0  0
  1 25  1  0  0  0
  1 26  1  0  0  0
  1 27  1  0  0  0
  2  4  1  0  0  0
  2  8  1  0  0  0
  3  4  2  0  0  0
  4  6  1  0  0  0
  5  6  1  0  0  0
  5  8  2  0  0  0
  5 50  1  0  0  0
  6  9  1  0  0  0
  6 15  1  0  0  0
  7  8  1  0  0  0
  7 28  1  0  0  0
  7 49  1  0  0  0
  9 10  2  0  0  0
  9 14  1  0  0  0
 10 11  1  0  0  0
 10 29  1  0  0  0
 11 12  2  0  0  0
 11 30  1  0  0  0
 12 13  1  0  0  0
 12 31  1  0  0  0
 13 14  2  0  0  0
 13 32  1  0  0  0
 14 33  1  0  0  0
 15 16  1  0  0  0
 15 20  1  0  0  0
 15 24  1  0  0  0
 16 17  1  0  0  0
 16 34  1  0  0  0
 16 35  1  0  0  0
 17 18  1  0  0  0
 17 23  1  0  0  0
 17 36  1  0  0  0
 18 19  1  0  0  0
 18 37  1  0  0  0
 18 38  1  0  0  0
 19 20  1  0  0  0
 19 21  1  0  0  0
 19 39  1  0  0  0
 20 40  1  0  0  0
 20 41  1  0  0  0
 21 22  1  0  0  0
 21 42  1  0  0  0
 21 43  1  0  0  0
 22 23  1  0  0  0
 22 24  1  0  0  0
 22 44  1  0  0  0
 23 45  1  0  0  0
 23 46  1  0  0  0
 24 47  1  0  0  0
 24 48  1  0  0  0
M  CHG  1   5   1
M  END
> <s_m_source_file>
../3ind_ligand.sdf

> <i_m_source_file_index>
1

> <s_epik_input>
W2NIXTFbY0hdW2NIXVtjSF1bY0hdYzFbQ0BdMihDKD1PKU4oW0NIM10pL0MoW05IXTIpPU5cW0hdKUMzNFtDSDJdW0NASF01W0NIMl1bQ0BASF0oW0NIMl0zKVtDSDJdW0NASF0oW0NIMl01KVtDSDJdNA==

> <s_epik_cmdline>
J2VwaWtfYXBwJywgJy1pbWFlJywgJ2xpZ2FuZF9wcm8ubWFlJywgJy1vbWFlJywgJ2xpZ2FuZF9wcmVwLm1hZScsICctbXMnLCAnMScsICctcGgnLCAnNycsICctcGh0JywgJzAuNScsICctbnQn

> <r_lp_tautomer_probability>
1

> <r_epik_Ionization_Penalty>
  0.2143

> <r_epik_Ionization_Penalty_Charging>
  0.2143

> <r_epik_Ionization_Penalty_Neutral>
  0.0000

> <r_epik_State_Penalty>
 -0.0000

> <r_epik_Charging_Adjusted_Penalty>
0.214299645290931

> <i_epik_Tot_Q>
1

> <i_epik_Tot_abs_Q>
1

> <s_epik_Chemistry_Notes>
This compound has an imine and may undergo hydrolysis.

$$$$
