3ine_ligand
                    3D
 Schrodinger Suite 2020-3.
 57 61  0  0  1  0            999 V2000
   16.0380  -11.1070   19.8410 C   0  0  0  0  0  0
   15.7360   -5.4810   17.0510 N   0  0  0  0  0  0
   16.5840  -12.7150   17.6370 O   0  0  0  0  0  0
   15.8030  -10.6420   18.4280 C   0  0  0  0  0  0
   14.9920   -6.8470   15.4410 N   0  3  0  0  0  0
   14.9490   -6.4920   18.9720 O   0  0  0  0  0  0
   15.2950   -9.3510   18.2060 C   0  0  0  0  0  0
   16.4120   -5.0920   14.8090 N   0  0  0  0  0  0
   15.0550   -8.8580   16.9120 C   0  0  0  0  0  0
   15.3400   -9.7050   15.8300 C   0  0  0  0  0  0
   15.8490  -10.9960   16.0340 C   0  0  0  0  0  0
   16.0830  -11.4710   17.3320 C   0  0  0  0  0  0
   17.0960  -13.4720   16.5460 C   0  0  0  0  0  0
   14.4930   -7.4370   16.7270 C   0  0  1  0  0  0
   15.0710   -6.4410   17.7560 C   0  0  0  0  0  0
   15.6490   -5.7600   15.7220 C   0  0  0  0  0  0
   16.4100   -4.3480   17.6690 C   0  0  0  0  0  0
   12.9040   -7.3890   16.7130 C   0  0  0  0  0  0
   12.3930   -5.9120   16.6440 C   0  0  0  0  0  0
   10.8580   -5.8460   16.6190 C   0  0  2  0  0  0
   10.3050   -6.5020   17.8930 C   0  0  0  0  0  0
   10.7370   -7.9730   17.9490 C   0  0  2  0  0  0
   12.2770   -8.0400   17.9840 C   0  0  0  0  0  0
   10.2220   -8.7070   16.7040 C   0  0  0  0  0  0
   10.7840   -8.0580   15.4320 C   0  0  1  0  0  0
   10.3410   -6.5900   15.3760 C   0  0  0  0  0  0
   12.3240   -8.1360   15.4690 C   0  0  0  0  0  0
   15.7545  -10.3080   20.5419 H   0  0  0  0  0  0
   17.1022  -11.3512   19.9744 H   0  0  0  0  0  0
   15.4289  -12.0014   20.0387 H   0  0  0  0  0  0
   15.0806   -8.7127   19.0631 H   0  0  0  0  0  0
   16.9462   -4.1766   15.1032 H   0  0  0  0  0  0
   15.1628   -9.3536   14.8135 H   0  0  0  0  0  0
   16.0641  -11.6345   15.1772 H   0  0  0  0  0  0
   17.4652  -14.4409   16.9133 H   0  0  0  0  0  0
   17.9217  -12.9206   16.0726 H   0  0  0  0  0  0
   16.2968  -13.6396   15.8089 H   0  0  0  0  0  0
   16.2993   -4.4071   18.7618 H   0  0  0  0  0  0
   15.9617   -3.4117   17.3051 H   0  0  0  0  0  0
   17.4781   -4.3693   17.4069 H   0  0  0  0  0  0
   12.7503   -5.3589   17.5251 H   0  0  0  0  0  0
   12.7763   -5.4337   15.7306 H   0  0  0  0  0  0
   10.5256   -4.7982   16.5790 H   0  0  0  0  0  0
   10.6949   -5.9744   18.7760 H   0  0  0  0  0  0
    9.2065   -6.4453   17.8874 H   0  0  0  0  0  0
   10.3162   -8.4484   18.8473 H   0  0  0  0  0  0
   12.5792   -9.0961   18.0420 H   0  0  0  0  0  0
   12.6292   -7.5081   18.8801 H   0  0  0  0  0  0
   10.5404   -9.7593   16.7408 H   0  0  0  0  0  0
    9.1235   -8.6571   16.6771 H   0  0  0  0  0  0
   10.4045   -8.5836   14.5433 H   0  0  0  0  0  0
    9.2424   -6.5409   15.3499 H   0  0  0  0  0  0
   10.7507   -6.1193   14.4701 H   0  0  0  0  0  0
   12.7185   -7.6784   14.5498 H   0  0  0  0  0  0
   12.6187   -9.1951   15.5070 H   0  0  0  0  0  0
   16.4928   -5.4689   13.7788 H   0  0  0  0  0  0
   14.8900   -7.1732   14.3955 H   0  0  0  0  0  0
  1  4  1  0  0  0
  1 28  1  0  0  0
  1 29  1  0  0  0
  1 30  1  0  0  0
  2 15  1  0  0  0
  2 16  1  0  0  0
  2 17  1  0  0  0
  3 12  1  0  0  0
  3 13  1  0  0  0
  4  7  2  0  0  0
  4 12  1  0  0  0
  5 14  1  0  0  0
  5 16  2  0  0  0
  5 57  1  0  0  0
  6 15  2  0  0  0
  7  9  1  0  0  0
  7 31  1  0  0  0
  8 16  1  0  0  0
  8 32  1  0  0  0
  8 56  1  0  0  0
  9 10  2  0  0  0
  9 14  1  0  0  0
 10 11  1  0  0  0
 10 33  1  0  0  0
 11 12  2  0  0  0
 11 34  1  0  0  0
 13 35  1  0  0  0
 13 36  1  0  0  0
 13 37  1  0  0  0
 14 15  1  0  0  0
 14 18  1  0  0  0
 17 38  1  0  0  0
 17 39  1  0  0  0
 17 40  1  0  0  0
 18 19  1  0  0  0
 18 23  1  0  0  0
 18 27  1  0  0  0
 19 20  1  0  0  0
 19 41  1  0  0  0
 19 42  1  0  0  0
 20 21  1  0  0  0
 20 26  1  0  0  0
 20 43  1  0  0  0
 21 22  1  0  0  0
 21 44  1  0  0  0
 21 45  1  0  0  0
 22 23  1  0  0  0
 22 24  1  0  0  0
 22 46  1  0  0  0
 23 47  1  0  0  0
 23 48  1  0  0  0
 24 25  1  0  0  0
 24 49  1  0  0  0
 24 50  1  0  0  0
 25 26  1  0  0  0
 25 27  1  0  0  0
 25 51  1  0  0  0
 26 52  1  0  0  0
 26 53  1  0  0  0
 27 54  1  0  0  0
 27 55  1  0  0  0
M  CHG  1   5   1
M  END
> <s_m_source_file>
../3ine_ligand.sdf

> <i_m_source_file_index>
1

> <s_epik_input>
W0NIM11PYzFbY0hdW2NIXWMoW2NIXWMxW0NIM10pW0NAQF0yKFtOSF1DKD1OXFtIXSlcTihDMj1PKVtDSDNdKUMzNFtDSDJdW0NAQEhdNVtDSDJdW0NASF0oW0NIMl0zKVtDSDJdW0NAQEhdKFtDSDJdNSlbQ0gyXTQ=

> <s_epik_cmdline>
J2VwaWtfYXBwJywgJy1pbWFlJywgJ2xpZ2FuZF9wcm8ubWFlJywgJy1vbWFlJywgJ2xpZ2FuZF9wcmVwLm1hZScsICctbXMnLCAnMScsICctcGgnLCAnNycsICctcGh0JywgJzAuNScsICctbnQn

> <r_lp_tautomer_probability>
1

> <r_epik_Ionization_Penalty>
  0.1566

> <r_epik_Ionization_Penalty_Charging>
  0.1566

> <r_epik_Ionization_Penalty_Neutral>
  0.0000

> <r_epik_State_Penalty>
 -0.0000

> <r_epik_Charging_Adjusted_Penalty>
0.156610857602944

> <i_epik_Tot_Q>
1

> <i_epik_Tot_abs_Q>
1

> <s_epik_Chemistry_Notes>
This compound has an imine and may undergo hydrolysis.

$$$$
