3inf_ligand
                    3D
 Schrodinger Suite 2020-3.
 52 55  0  0  1  0            999 V2000
   15.9340  -11.0450   19.3700 C   0  0  0  0  0  0
   15.4270   -5.5280   16.6520 N   0  0  0  0  0  0
   16.6360  -12.6110   17.1770 O   0  0  0  0  0  0
   15.7030  -10.5920   17.9530 C   0  0  0  0  0  0
   14.8120   -6.8510   14.9570 N   0  3  0  0  0  0
   14.3490   -6.5030   18.4430 O   0  0  0  0  0  0
   15.1160   -9.3370   17.7260 C   0  0  0  0  0  0
   16.3280   -5.1020   14.4830 N   0  0  0  0  0  0
   14.8770   -8.8640   16.4280 C   0  0  0  0  0  0
   10.0820   -3.1160   13.6120 N   0  0  0  0  0  0
   15.2430   -9.6880   15.3550 C   0  0  0  0  0  0
   15.8290  -10.9440   15.5650 C   0  0  0  0  0  0
   16.0630  -11.4050   16.8620 C   0  0  0  0  0  0
   17.3890  -13.2800   16.1700 C   0  0  0  0  0  0
   14.2410   -7.4860   16.1880 C   0  0  1  0  0  0
   14.6700   -6.4780   17.2670 C   0  0  0  0  0  0
   15.5380   -5.8370   15.3300 C   0  0  0  0  0  0
   16.0120   -4.3860   17.3490 C   0  0  0  0  0  0
   12.7050   -7.5400   16.1110 C   0  0  0  0  0  0
   11.9170   -8.6580   16.4350 C   0  0  0  0  0  0
   10.5180   -8.5940   16.3280 C   0  0  0  0  0  0
    9.8750   -7.4250   15.9100 C   0  0  0  0  0  0
   10.6400   -6.2910   15.5810 C   0  0  0  0  0  0
   12.0400   -6.3760   15.6940 C   0  0  0  0  0  0
   10.0500   -5.0160   15.1400 C   0  0  0  0  0  0
    8.9330   -4.4530   15.7750 C   0  0  0  0  0  0
    8.3990   -3.2400   15.3330 C   0  0  0  0  0  0
    9.0040   -2.6120   14.2550 C   0  0  0  0  0  0
   10.5810   -4.2950   14.0660 C   0  0  0  0  0  0
   15.5845  -10.2674   20.0651 H   0  0  0  0  0  0
   17.0081  -11.2220   19.5279 H   0  0  0  0  0  0
   15.3782  -11.9766   19.5523 H   0  0  0  0  0  0
   14.8398   -8.7162   18.5783 H   0  0  0  0  0  0
   16.9145   -4.2569   14.8726 H   0  0  0  0  0  0
   15.0682   -9.3448   14.3353 H   0  0  0  0  0  0
   16.1034  -11.5639   14.7114 H   0  0  0  0  0  0
   17.7809  -14.2256   16.5727 H   0  0  0  0  0  0
   18.2266  -12.6411   15.8533 H   0  0  0  0  0  0
   16.7410  -13.4899   15.3063 H   0  0  0  0  0  0
   15.7342   -4.4241   18.4127 H   0  0  0  0  0  0
   15.6350   -3.4530   16.9048 H   0  0  0  0  0  0
   17.1074   -4.4207   17.2546 H   0  0  0  0  0  0
   12.3938   -9.5788   16.7708 H   0  0  0  0  0  0
    9.9222   -9.4725   16.5756 H   0  0  0  0  0  0
    8.7878   -7.3924   15.8394 H   0  0  0  0  0  0
   12.6358   -5.4975   15.4463 H   0  0  0  0  0  0
    8.4773   -4.9669   16.6214 H   0  0  0  0  0  0
    7.5304   -2.7993   15.8223 H   0  0  0  0  0  0
    8.5903   -1.6650   13.9084 H   0  0  0  0  0  0
   11.4538   -4.7066   13.5592 H   0  0  0  0  0  0
   16.3750   -5.3577   13.4142 H   0  0  0  0  0  0
   14.7152   -7.0948   13.8887 H   0  0  0  0  0  0
  1  4  1  0  0  0
  1 30  1  0  0  0
  1 31  1  0  0  0
  1 32  1  0  0  0
  2 16  1  0  0  0
  2 17  1  0  0  0
  2 18  1  0  0  0
  3 13  1  0  0  0
  3 14  1  0  0  0
  4  7  2  0  0  0
  4 13  1  0  0  0
  5 15  1  0  0  0
  5 17  2  0  0  0
  5 52  1  0  0  0
  6 16  2  0  0  0
  7  9  1  0  0  0
  7 33  1  0  0  0
  8 17  1  0  0  0
  8 34  1  0  0  0
  8 51  1  0  0  0
  9 11  2  0  0  0
  9 15  1  0  0  0
 10 28  2  0  0  0
 10 29  1  0  0  0
 11 12  1  0  0  0
 11 35  1  0  0  0
 12 13  2  0  0  0
 12 36  1  0  0  0
 14 37  1  0  0  0
 14 38  1  0  0  0
 14 39  1  0  0  0
 15 16  1  0  0  0
 15 19  1  0  0  0
 18 40  1  0  0  0
 18 41  1  0  0  0
 18 42  1  0  0  0
 19 20  2  0  0  0
 19 24  1  0  0  0
 20 21  1  0  0  0
 20 43  1  0  0  0
 21 22  2  0  0  0
 21 44  1  0  0  0
 22 23  1  0  0  0
 22 45  1  0  0  0
 23 24  2  0  0  0
 23 25  1  0  0  0
 24 46  1  0  0  0
 25 26  1  0  0  0
 25 29  2  0  0  0
 26 27  2  0  0  0
 26 47  1  0  0  0
 27 28  1  0  0  0
 27 48  1  0  0  0
 28 49  1  0  0  0
 29 50  1  0  0  0
M  CHG  1   5   1
M  END
> <s_m_source_file>
../3inf_ligand.sdf

> <i_m_source_file_index>
1

> <s_epik_input>
W0NIM11PYzFbY0hdW2NIXWMoW2NIXWMxW0NIM10pW0NAQF0yKFtOSF1DKD1OXFtIXSlcTihDMj1PKVtDSDNdKWMzW2NIXVtjSF1bY0hdYyhbY0hdMyktYzRbY0hdW2NIXVtjSF1uW2NIXTQ=

> <s_epik_cmdline>
J2VwaWtfYXBwJywgJy1pbWFlJywgJ2xpZ2FuZF9wcm8ubWFlJywgJy1vbWFlJywgJ2xpZ2FuZF9wcmVwLm1hZScsICctbXMnLCAnMScsICctcGgnLCAnNycsICctcGh0JywgJzAuNScsICctbnQn

> <r_lp_tautomer_probability>
1

> <r_epik_Ionization_Penalty>
  0.5233

> <r_epik_Ionization_Penalty_Charging>
  0.5187

> <r_epik_Ionization_Penalty_Neutral>
  0.0046

> <r_epik_State_Penalty>
 -0.0000

> <r_epik_Charging_Adjusted_Penalty>
0.518712085138172

> <i_epik_Tot_Q>
1

> <i_epik_Tot_abs_Q>
1

> <s_epik_Chemistry_Notes>
This compound has an imine and may undergo hydrolysis.

$$$$
