3inh_ligand
                    3D
 Schrodinger Suite 2020-3.
 48 51  0  0  1  0            999 V2000
   16.0900   -4.3700   17.5830 C   0  0  0  0  0  0
   18.0930  -12.2350   16.4360 F   0  0  0  0  0  0
   15.4120   -5.4950   16.9580 N   0  0  0  0  0  0
   14.4240   -6.4610   18.8290 O   0  0  0  0  0  0
   14.6650   -6.4230   17.6300 C   0  0  0  0  0  0
   17.9810  -12.4460   18.6060 F   0  0  0  0  0  0
   14.6830   -6.8270   15.3100 N   0  3  0  0  0  0
   16.0930  -12.7310   17.4230 O   0  0  0  0  0  0
   14.1430   -7.4110   16.5790 C   0  0  1  0  0  0
   17.8160  -14.2300   17.3400 F   0  0  0  0  0  0
   16.1750   -5.0820   14.7500 N   0  0  0  0  0  0
   15.4190   -5.8030   15.6330 C   0  0  0  0  0  0
    8.5020   -7.1070   16.3820 F   0  0  0  0  0  0
    9.8720   -3.0270   13.9290 N   0  0  0  0  0  0
   14.6680   -8.8330   16.8400 C   0  0  0  0  0  0
    8.4630   -2.9550   15.8740 N   0  0  0  0  0  0
   14.8740   -9.7320   15.7840 C   0  0  0  0  0  0
   15.3510  -11.0230   16.0250 C   0  0  0  0  0  0
   15.6310  -11.4470   17.3260 C   0  0  0  0  0  0
   15.4300  -10.5660   18.3860 C   0  0  0  0  0  0
   14.9540   -9.2730   18.1450 C   0  0  0  0  0  0
   17.4990  -12.9210   17.4340 C   0  0  0  0  0  0
   12.6130   -7.3840   16.5410 C   0  0  0  0  0  0
   11.8080   -8.4680   16.9170 C   0  0  0  0  0  0
   10.4210   -8.3590   16.8550 C   0  0  0  0  0  0
    9.8380   -7.1720   16.4220 C   0  0  0  0  0  0
   10.6020   -6.0630   16.0380 C   0  0  0  0  0  0
   11.9950   -6.1960   16.1080 C   0  0  0  0  0  0
   10.0070   -4.8030   15.5800 C   0  0  0  0  0  0
   10.3870   -4.1860   14.3940 C   0  0  0  0  0  0
    8.9280   -2.4740   14.7080 C   0  0  0  0  0  0
    9.0220   -4.1170   16.2820 C   0  0  0  0  0  0
   15.8999   -4.3833   18.6664 H   0  0  0  0  0  0
   15.7108   -3.4300   17.1557 H   0  0  0  0  0  0
   17.1719   -4.4461   17.3996 H   0  0  0  0  0  0
   16.7705   -4.2280   15.1051 H   0  0  0  0  0  0
   14.6593   -9.4198   14.7620 H   0  0  0  0  0  0
   15.5061  -11.7058   15.1896 H   0  0  0  0  0  0
   15.6442  -10.8850   19.4060 H   0  0  0  0  0  0
   14.8019   -8.5939   18.9839 H   0  0  0  0  0  0
   12.2673   -9.3959   17.2578 H   0  0  0  0  0  0
    9.7934   -9.2017   17.1450 H   0  0  0  0  0  0
   12.6205   -5.3519   15.8176 H   0  0  0  0  0  0
   11.1568   -4.6729   13.7953 H   0  0  0  0  0  0
    8.4936   -1.5375   14.3583 H   0  0  0  0  0  0
    8.6775   -4.5442   17.2238 H   0  0  0  0  0  0
   16.1875   -5.3562   13.6848 H   0  0  0  0  0  0
   14.5625   -7.1062   14.2529 H   0  0  0  0  0  0
  1  3  1  0  0  0
  1 33  1  0  0  0
  1 34  1  0  0  0
  1 35  1  0  0  0
  2 22  1  0  0  0
  3  5  1  0  0  0
  3 12  1  0  0  0
  4  5  2  0  0  0
  5  9  1  0  0  0
  6 22  1  0  0  0
  7  9  1  0  0  0
  7 12  2  0  0  0
  7 48  1  0  0  0
  8 19  1  0  0  0
  8 22  1  0  0  0
  9 15  1  0  0  0
  9 23  1  0  0  0
 10 22  1  0  0  0
 11 12  1  0  0  0
 11 36  1  0  0  0
 11 47  1  0  0  0
 13 26  1  0  0  0
 14 30  2  0  0  0
 14 31  1  0  0  0
 15 17  2  0  0  0
 15 21  1  0  0  0
 16 31  2  0  0  0
 16 32  1  0  0  0
 17 18  1  0  0  0
 17 37  1  0  0  0
 18 19  2  0  0  0
 18 38  1  0  0  0
 19 20  1  0  0  0
 20 21  2  0  0  0
 20 39  1  0  0  0
 21 40  1  0  0  0
 23 24  2  0  0  0
 23 28  1  0  0  0
 24 25  1  0  0  0
 24 41  1  0  0  0
 25 26  2  0  0  0
 25 42  1  0  0  0
 26 27  1  0  0  0
 27 28  2  0  0  0
 27 29  1  0  0  0
 28 43  1  0  0  0
 29 30  1  0  0  0
 29 32  2  0  0  0
 30 44  1  0  0  0
 31 45  1  0  0  0
 32 46  1  0  0  0
M  CHG  1   7   1
M  END
> <s_m_source_file>
../3inh_ligand.sdf

> <i_m_source_file_index>
1

> <s_epik_input>
RkMoRikoRilPYyhbY0hdW2NIXTEpW2NIXVtjSF1jMVtDQF0yKEMoPU8pTihbQ0gzXSkvQyhbTkhdMik9TlxbSF0pYzNbY0hdW2NIXWMoRiljKFtjSF0zKS1jNFtjSF1uW2NIXW5bY0hdNA==

> <s_epik_cmdline>
J2VwaWtfYXBwJywgJy1pbWFlJywgJ2xpZ2FuZF9wcm8ubWFlJywgJy1vbWFlJywgJ2xpZ2FuZF9wcmVwLm1hZScsICctbXMnLCAnMScsICctcGgnLCAnNycsICctcGh0JywgJzAuNScsICctbnQn

> <r_lp_tautomer_probability>
1

> <r_epik_Ionization_Penalty>
  0.5554

> <r_epik_Ionization_Penalty_Charging>
  0.5554

> <r_epik_Ionization_Penalty_Neutral>
  0.0000

> <r_epik_State_Penalty>
  0.0031

> <r_epik_Charging_Adjusted_Penalty>
0.558456556482503

> <i_epik_Tot_Q>
1

> <i_epik_Tot_abs_Q>
1

> <s_epik_Chemistry_Notes>
This compound has an imine and may undergo hydrolysis.

$$$$
