3iny_ligand
                    3D
 Schrodinger Suite 2020-3.
 16 17  0  0  1  0            999 V2000
  -16.8210    6.2130   53.9440 N   0  0  0  0  0  0
  -17.9780    6.7500   53.4120 C   0  0  0  0  0  0
  -17.6420    7.7130   52.4120 C   0  0  0  0  0  0
  -16.1790    7.7390   52.3270 C   0  0  0  0  0  0
  -15.2010    8.4980   51.5110 C   0  0  0  0  0  0
  -15.5480    9.3390   50.6650 O   0  0  0  0  0  0
  -13.9130    8.2060   51.7960 N   0  0  0  0  0  0
  -13.5610    7.2890   52.7640 C   0  0  0  0  0  0
  -12.2790    6.9930   53.0290 N   0  0  0  0  0  0
  -14.3790    6.5730   53.5510 N   0  3  0  0  0  0
  -15.6790    6.7620   53.3620 C   0  0  0  0  0  0
  -18.9593    6.4136   53.7778 H   0  0  0  0  0  0
  -18.3386    8.3123   51.8258 H   0  0  0  0  0  0
  -11.4727    7.4922   52.4716 H   0  0  0  0  0  0
  -13.9590    5.8814   54.2962 H   0  0  0  0  0  0
  -12.0346    6.2512   53.8036 H   0  0  0  0  0  0
  1  2  2  0  0  0
  1 11  1  0  0  0
  2  3  1  0  0  0
  2 12  1  0  0  0
  3  4  1  0  0  0
  3 13  1  0  0  0
  4  5  1  0  0  0
  4 11  2  0  0  0
  5  6  2  0  0  0
  5  7  1  0  0  0
  7  8  1  0  0  0
  8  9  1  0  0  0
  8 10  2  0  0  0
  9 14  1  0  0  0
  9 16  1  0  0  0
 10 11  1  0  0  0
 10 15  1  0  0  0
M  CHG  1  10   1
M  END
> <s_m_source_file>
../3iny_ligand.sdf

> <i_m_source_file_index>
1

> <s_epik_input>
W0NIMl0xW0NIXT1OYyhjMTIpW25IXWMoPU5cW0hdKVxbbkhdYzI9Tw==

> <s_epik_cmdline>
J2VwaWtfYXBwJywgJy1pbWFlJywgJ2xpZ2FuZF9wcm8ubWFlJywgJy1vbWFlJywgJ2xpZ2FuZF9wcmVwLm1hZScsICctbXMnLCAnMScsICctcGgnLCAnNycsICctcGh0JywgJzAuNScsICctbnQn

> <r_lp_tautomer_probability>
1

> <r_epik_Ionization_Penalty>
  0.4101

> <r_epik_Ionization_Penalty_Charging>
  0.3758

> <r_epik_Ionization_Penalty_Neutral>
  0.0343

> <r_epik_State_Penalty>
 -0.0000

> <r_epik_Charging_Adjusted_Penalty>
0.37582300189247

> <i_epik_Tot_Q>
1

> <i_epik_Tot_abs_Q>
1

> <s_epik_Chemistry_Notes>
This compound has an imine and may undergo hydrolysis.

$$$$
