3io7_ligand
                    3D
 Schrodinger Suite 2020-3.
 55 58  0  0  1  0            999 V2000
   14.8660   16.6100    4.0650 N   0  0  0  0  0  0
   14.5510   15.6640    2.9800 C   0  0  0  0  0  0
   15.4050   15.9210    1.7360 C   0  0  0  0  0  0
   15.9240   16.3910    4.8910 C   0  0  0  0  0  0
   16.8280   15.2000    4.7700 C   0  0  1  0  0  0
   18.2800   15.6330    5.0340 C   0  0  0  0  0  0
   16.8010   11.8770    5.5320 C   0  0  0  0  0  0
   15.4020   10.4250    4.2010 C   0  0  0  0  0  0
   14.2640   10.1050    3.3030 C   0  0  0  0  0  0
   13.2510   10.9400    2.7880 C   0  0  0  0  0  0
   11.9190   12.7820    2.3290 C   0  0  0  0  0  0
   11.3870   10.7030    1.3050 C   0  0  0  0  0  0
   14.6610   19.1190    3.9210 C   0  0  0  0  0  0
   13.9790   17.7860    4.2590 C   0  0  0  0  0  0
   16.1650   17.1650    5.7890 O   0  0  0  0  0  0
   18.9120   14.8880    6.2150 C   0  0  0  0  0  0
   18.6090   13.3830    6.1500 C   0  0  0  0  0  0
   17.1540   13.0940    6.1320 N   0  0  0  0  0  0
   16.2740   14.2330    5.8210 C   0  0  0  0  0  0
   15.6660   11.7090    4.7220 C   0  0  0  0  0  0
   16.2700    9.4410    4.4730 N   0  0  0  0  0  0
   17.3170    9.6330    5.2380 C   0  0  0  0  0  0
   17.5710   10.8150    5.7590 N   0  0  0  0  0  0
   12.9510   12.2360    2.9580 N   0  0  0  0  0  0
   11.1040   12.0230    1.4710 C   0  0  0  0  0  0
   12.4670   10.1680    1.9570 N   0  0  0  0  0  0
   12.9990    8.8820    1.9520 N   0  0  0  0  0  0
   14.0510    8.8370    2.7430 C   0  0  0  0  0  0
   14.8430    7.7180    2.9800 N   0  0  0  0  0  0
   14.7410   14.6363    3.3230 H   0  0  0  0  0  0
   13.4924   15.7671    2.6994 H   0  0  0  0  0  0
   15.1394   15.1958    0.9527 H   0  0  0  0  0  0
   16.4690   15.8105    1.9924 H   0  0  0  0  0  0
   15.2204   16.9414    1.3689 H   0  0  0  0  0  0
   16.8322   14.7424    3.7697 H   0  0  0  0  0  0
   18.8908   15.4312    4.1417 H   0  0  0  0  0  0
   18.3063   16.7091    5.2606 H   0  0  0  0  0  0
   11.6986   13.8387    2.4800 H   0  0  0  0  0  0
   10.7641   10.0801    0.6630 H   0  0  0  0  0  0
   13.9533   19.9449    4.0853 H   0  0  0  0  0  0
   14.9782   19.1119    2.8677 H   0  0  0  0  0  0
   15.5402   19.2554    4.5678 H   0  0  0  0  0  0
   13.0960   17.6903    3.6100 H   0  0  0  0  0  0
   13.6581   17.8338    5.3101 H   0  0  0  0  0  0
   20.0030   15.0271    6.1948 H   0  0  0  0  0  0
   18.5090   15.2863    7.1578 H   0  0  0  0  0  0
   19.0486   12.9597    5.2348 H   0  0  0  0  0  0
   19.0415   12.8836    7.0295 H   0  0  0  0  0  0
   16.1071   14.7733    6.7645 H   0  0  0  0  0  0
   15.3217   13.8120    5.4661 H   0  0  0  0  0  0
   15.0066   12.5485    4.5018 H   0  0  0  0  0  0
   17.9885    8.8001    5.4462 H   0  0  0  0  0  0
   10.2638   12.4823    0.9502 H   0  0  0  0  0  0
   15.7033    7.7875    3.6620 H   0  0  0  0  0  0
   14.6089    6.7638    2.4854 H   0  0  0  0  0  0
  1  2  1  0  0  0
  1  4  1  0  0  0
  1 14  1  0  0  0
  2  3  1  0  0  0
  2 30  1  0  0  0
  2 31  1  0  0  0
  3 32  1  0  0  0
  3 33  1  0  0  0
  3 34  1  0  0  0
  4  5  1  0  0  0
  4 15  2  0  0  0
  5  6  1  0  0  0
  5 19  1  0  0  0
  5 35  1  0  0  0
  6 16  1  0  0  0
  6 36  1  0  0  0
  6 37  1  0  0  0
  7 18  1  0  0  0
  7 20  2  0  0  0
  7 23  1  0  0  0
  8  9  1  0  0  0
  8 20  1  0  0  0
  8 21  2  0  0  0
  9 10  2  0  0  0
  9 28  1  0  0  0
 10 24  1  0  0  0
 10 26  1  0  0  0
 11 24  2  0  0  0
 11 25  1  0  0  0
 11 38  1  0  0  0
 12 25  2  0  0  0
 12 26  1  0  0  0
 12 39  1  0  0  0
 13 14  1  0  0  0
 13 40  1  0  0  0
 13 41  1  0  0  0
 13 42  1  0  0  0
 14 43  1  0  0  0
 14 44  1  0  0  0
 16 17  1  0  0  0
 16 45  1  0  0  0
 16 46  1  0  0  0
 17 18  1  0  0  0
 17 47  1  0  0  0
 17 48  1  0  0  0
 18 19  1  0  0  0
 19 49  1  0  0  0
 19 50  1  0  0  0
 20 51  1  0  0  0
 21 22  1  0  0  0
 22 23  2  0  0  0
 22 52  1  0  0  0
 25 53  1  0  0  0
 26 27  1  0  0  0
 27 28  2  0  0  0
 28 29  1  0  0  0
 29 54  1  0  0  0
 29 55  1  0  0  0
M  END
> <s_m_source_file>
../3io7_ligand.sdf

> <i_m_source_file_index>
1

> <s_epik_input>
W0NIM11bQ0gyXU4oW0NIMl1bQ0gzXSlDKD1PKVtDQEhdMVtDSDJdW0NIMl1bQ0gyXU4oW0NIMl0xKWMyW2NIXWMobltjSF1uMiktYzNjKFtOSDJdKW5uKGMzNClbY0hdW2NIXVtjSF1uNA==

> <s_epik_cmdline>
J2VwaWtfYXBwJywgJy1pbWFlJywgJ2xpZ2FuZF9wcm8ubWFlJywgJy1vbWFlJywgJ2xpZ2FuZF9wcmVwLm1hZScsICctbXMnLCAnMScsICctcGgnLCAnNycsICctcGh0JywgJzAuNScsICctbnQn

> <r_lp_tautomer_probability>
1

> <r_epik_Ionization_Penalty>
  0.0221

> <r_epik_Ionization_Penalty_Charging>
  0.0000

> <r_epik_Ionization_Penalty_Neutral>
  0.0221

> <r_epik_State_Penalty>
  0.0171

> <r_epik_Charging_Adjusted_Penalty>
0.0171038015631099

> <i_epik_Tot_Q>
0

> <i_epik_Tot_abs_Q>
0

$$$$
