3iob_ligand
                    3D
 Schrodinger Suite 2020-3.
 32 34  0  0  1  0            999 V2000
   13.7030    9.6810   -5.3280 N   0  0  0  0  0  0
   12.7150    9.2910   -4.5130 C   0  0  0  0  0  0
   12.8640    9.3200   -3.1850 N   0  0  0  0  0  0
   14.0300    9.7430   -2.6340 C   0  0  0  0  0  0
   15.0700   10.1580   -3.4590 C   0  0  0  0  0  0
   14.8850   10.1110   -4.8330 C   0  0  0  0  0  0
   15.8750   10.4850   -5.6310 N   0  0  0  0  0  0
   16.0900   10.5250   -2.6830 N   0  0  0  0  0  0
   15.7100   10.3600   -1.4120 C   0  0  0  0  0  0
   14.4640    9.8850   -1.3750 N   0  0  0  0  0  0
   12.5160    8.0950    1.9410 O   0  0  0  0  0  0
   14.4300    7.2470    0.1400 O   0  0  0  0  0  0
   14.7580   10.4330    4.6390 S   0  0  0  0  0  0
   14.6880   10.9820    2.8960 C   0  0  0  0  0  0
   13.5730   10.7400    0.6970 O   0  0  0  0  0  0
   13.7910    8.7300    2.0240 C   0  0  1  0  0  0
   14.5200    8.5840    0.6890 C   0  0  2  0  0  0
   13.5710   10.2560    2.0970 C   0  0  1  0  0  0
   13.7060    9.5720   -0.1640 C   0  0  2  0  0  0
   11.7737    8.9442   -4.9394 H   0  0  0  0  0  0
   15.7434   10.4533   -6.7226 H   0  0  0  0  0  0
   16.8282   10.8271   -5.2016 H   0  0  0  0  0  0
   16.3245   10.5800   -0.5390 H   0  0  0  0  0  0
   12.4505    6.9986    1.8799 H   0  0  0  0  0  0
   14.9560    6.4146    0.6303 H   0  0  0  0  0  0
   15.5039   10.8652    5.3222 H   0  0  0  0  0  0
   14.4867   12.0628    2.8598 H   0  0  0  0  0  0
   15.6503   10.7717    2.4064 H   0  0  0  0  0  0
   14.2815    8.2529    2.8853 H   0  0  0  0  0  0
   15.6107    8.7196    0.7338 H   0  0  0  0  0  0
   12.6096   10.4829    2.5809 H   0  0  0  0  0  0
   12.7180    9.2335   -0.5094 H   0  0  0  0  0  0
  1  2  1  0  0  0
  1  6  2  0  0  0
  2  3  2  0  0  0
  2 20  1  0  0  0
  3  4  1  0  0  0
  4  5  2  0  0  0
  4 10  1  0  0  0
  5  6  1  0  0  0
  5  8  1  0  0  0
  6  7  1  0  0  0
  7 21  1  0  0  0
  7 22  1  0  0  0
  8  9  2  0  0  0
  9 10  1  0  0  0
  9 23  1  0  0  0
 10 19  1  0  0  0
 11 16  1  0  0  0
 11 24  1  0  0  0
 12 17  1  0  0  0
 12 25  1  0  0  0
 13 14  1  0  0  0
 13 26  1  0  0  0
 14 18  1  0  0  0
 14 27  1  0  0  0
 14 28  1  0  0  0
 15 18  1  0  0  0
 15 19  1  0  0  0
 16 17  1  0  0  0
 16 18  1  0  0  0
 16 29  1  0  0  0
 17 19  1  0  0  0
 17 30  1  0  0  0
 18 31  1  0  0  0
 19 32  1  0  0  0
M  END
> <s_m_source_file>
../3iob_ligand.sdf

> <i_m_source_file_index>
1

> <s_epik_input>
bjFbY0hdbmMoW05IMl0pYyhjMTIpbltjSF1uMltDQEBIXShbQ0BIXShbT0hdKVtDQEBIXTNbT0hdKU9bQ0BASF0zW0NIMl1bU0hd

> <s_epik_cmdline>
J2VwaWtfYXBwJywgJy1pbWFlJywgJ2xpZ2FuZF9wcm8ubWFlJywgJy1vbWFlJywgJ2xpZ2FuZF9wcmVwLm1hZScsICctbXMnLCAnMScsICctcGgnLCAnNycsICctcGh0JywgJzAuNScsICctbnQn

> <r_lp_tautomer_probability>
1

> <r_epik_Ionization_Penalty>
  0.0059

> <r_epik_Ionization_Penalty_Charging>
  0.0000

> <r_epik_Ionization_Penalty_Neutral>
  0.0059

> <r_epik_State_Penalty>
 -0.0000

> <r_epik_Charging_Adjusted_Penalty>
0

> <i_epik_Tot_Q>
0

> <i_epik_Tot_abs_Q>
0

> <s_epik_Chemistry_Notes>
This compound contains an acetal/aminal-like group ( X-CH(R)-Y where X, Y are N, S, or O) that may be acid/base labile, releasing an aldehyde.

$$$$
