3ioc_ligand
                    3D
 Schrodinger Suite 2020-3.
 46 49  0  0  1  0            999 V2000
   13.9990    9.7850   -5.6050 N   0  0  0  0  0  0
   13.0560    9.3000   -4.8030 C   0  0  0  0  0  0
   13.1640    9.4250   -3.4890 N   0  0  0  0  0  0
   14.2160   10.0430   -2.9070 C   0  0  0  0  0  0
   15.2170   10.5550   -3.7200 C   0  0  0  0  0  0
   15.0940   10.4140   -5.1140 C   0  0  0  0  0  0
   16.0210   10.8720   -5.9610 N   0  0  0  0  0  0
   16.1190   11.0910   -2.9090 N   0  0  0  0  0  0
   15.7200   10.9500   -1.6470 C   0  0  0  0  0  0
   14.5520   10.3070   -1.6450 N   0  0  0  0  0  0
   12.6650    8.0150    1.7470 O   0  0  0  0  0  0
   14.4840    7.5600   -0.3940 O   0  0  0  0  0  0
   13.9240    9.6520    9.4870 C   0  0  0  0  0  0
   13.5840   10.6390    8.5940 C   0  0  0  0  0  0
   14.3170    8.3960    9.0170 C   0  0  0  0  0  0
   13.6530   10.3690    7.2350 C   0  0  0  0  0  0
   14.3890    8.1170    7.6670 C   0  0  0  0  0  0
   14.1060    8.8320    5.3030 C   0  0  0  0  0  0
   13.5570   11.0430    3.0870 C   0  0  0  0  0  0
   13.9190   10.9550    0.5700 O   0  0  0  0  0  0
   15.7130    9.5640    4.7870 S   0  0  0  0  0  0
   15.2580   11.2750    3.7290 S   0  0  0  0  0  0
   14.0360    9.1090    6.7920 C   0  0  0  0  0  0
   13.8310    8.8450    1.6830 C   0  0  1  0  0  0
   14.5440    8.8020    0.3020 C   0  0  2  0  0  0
   13.3430   10.3100    1.7460 C   0  0  1  0  0  0
   13.8030    9.9290   -0.4460 C   0  0  2  0  0  0
   12.1886    8.7964   -5.2296 H   0  0  0  0  0  0
   15.8877   10.7419   -7.0451 H   0  0  0  0  0  0
   16.9172   11.3790   -5.5739 H   0  0  0  0  0  0
   16.2567   11.3005   -0.7654 H   0  0  0  0  0  0
   12.7670    6.9201    1.7181 H   0  0  0  0  0  0
   14.9721    6.6690    0.0278 H   0  0  0  0  0  0
   13.8874    9.8479   10.5586 H   0  0  0  0  0  0
   13.2649   11.6193    8.9478 H   0  0  0  0  0  0
   14.5732    7.6167    9.7347 H   0  0  0  0  0  0
   13.4061   11.1473    6.5129 H   0  0  0  0  0  0
   14.7157    7.1404    7.3099 H   0  0  0  0  0  0
   13.2876    9.3191    4.7525 H   0  0  0  0  0  0
   14.1061    7.7544    5.0820 H   0  0  0  0  0  0
   12.9683   10.4600    3.8106 H   0  0  0  0  0  0
   13.0847   12.0250    2.9366 H   0  0  0  0  0  0
   14.4487    8.4564    2.5061 H   0  0  0  0  0  0
   15.6418    8.8542    0.3477 H   0  0  0  0  0  0
   12.2490   10.3845    1.6587 H   0  0  0  0  0  0
   12.7788    9.7523   -0.8063 H   0  0  0  0  0  0
  1  2  1  0  0  0
  1  6  2  0  0  0
  2  3  2  0  0  0
  2 28  1  0  0  0
  3  4  1  0  0  0
  4  5  2  0  0  0
  4 10  1  0  0  0
  5  6  1  0  0  0
  5  8  1  0  0  0
  6  7  1  0  0  0
  7 29  1  0  0  0
  7 30  1  0  0  0
  8  9  2  0  0  0
  9 10  1  0  0  0
  9 31  1  0  0  0
 10 27  1  0  0  0
 11 24  1  0  0  0
 11 32  1  0  0  0
 12 25  1  0  0  0
 12 33  1  0  0  0
 13 14  2  0  0  0
 13 15  1  0  0  0
 13 34  1  0  0  0
 14 16  1  0  0  0
 14 35  1  0  0  0
 15 17  2  0  0  0
 15 36  1  0  0  0
 16 23  2  0  0  0
 16 37  1  0  0  0
 17 23  1  0  0  0
 17 38  1  0  0  0
 18 21  1  0  0  0
 18 23  1  0  0  0
 18 39  1  0  0  0
 18 40  1  0  0  0
 19 22  1  0  0  0
 19 26  1  0  0  0
 19 41  1  0  0  0
 19 42  1  0  0  0
 20 26  1  0  0  0
 20 27  1  0  0  0
 21 22  1  0  0  0
 24 25  1  0  0  0
 24 26  1  0  0  0
 24 43  1  0  0  0
 25 27  1  0  0  0
 25 44  1  0  0  0
 26 45  1  0  0  0
 27 46  1  0  0  0
M  END
> <s_m_source_file>
../3ioc_ligand.sdf

> <i_m_source_file_index>
1

> <s_epik_input>
bjFbY0hdbmMoW05IMl0pYyhjMTIpbltjSF1uMltDQEBIXShbQ0BIXShbT0hdKVtDQEBIXTNbT0hdKU9bQ0BASF0zW0NIMl1TU1tDSDJdYzRbY0hdW2NIXVtjSF1bY0hdW2NIXTQ=

> <s_epik_cmdline>
J2VwaWtfYXBwJywgJy1pbWFlJywgJ2xpZ2FuZF9wcm8ubWFlJywgJy1vbWFlJywgJ2xpZ2FuZF9wcmVwLm1hZScsICctbXMnLCAnMScsICctcGgnLCAnNycsICctcGh0JywgJzAuNScsICctbnQn

> <r_lp_tautomer_probability>
1

> <r_epik_Ionization_Penalty>
  0.0004

> <r_epik_Ionization_Penalty_Charging>
  0.0000

> <r_epik_Ionization_Penalty_Neutral>
  0.0004

> <r_epik_State_Penalty>
 -0.0000

> <r_epik_Charging_Adjusted_Penalty>
0

> <i_epik_Tot_Q>
0

> <i_epik_Tot_abs_Q>
0

> <s_epik_Chemistry_Notes>
This compound contains an acetal/aminal-like group ( X-CH(R)-Y where X, Y are N, S, or O) that may be acid/base labile, releasing an aldehyde.

$$$$
