3iod_ligand
                    3D
 Schrodinger Suite 2020-3.
 48 51  0  0  1  0            999 V2000
   13.6310    9.6270   -5.3630 N   0  0  0  0  0  0
   12.6520    9.2610   -4.5340 C   0  0  0  0  0  0
   12.8010    9.3450   -3.2120 N   0  0  0  0  0  0
   13.9500    9.8100   -2.6760 C   0  0  0  0  0  0
   14.9890   10.1950   -3.5110 C   0  0  0  0  0  0
   14.8110   10.0890   -4.8880 C   0  0  0  0  0  0
   15.7930   10.4420   -5.7170 N   0  0  0  0  0  0
   15.9900   10.6010   -2.7380 N   0  0  0  0  0  0
   15.6040   10.4840   -1.4690 C   0  0  0  0  0  0
   14.3690   10.0060   -1.4260 N   0  0  0  0  0  0
   12.3660   11.3070    9.5930 O   0  5  0  0  0  0
   12.3780    8.2680    1.8090 O   0  0  0  0  0  0
   14.3360    7.3640    0.0590 O   0  0  0  0  0  0
   14.3480   11.6690   10.9750 O   0  0  0  0  0  0
   16.2320    8.6210    8.9000 C   0  0  0  0  0  0
   15.7980    8.1810    7.6620 C   0  0  0  0  0  0
   15.5430    9.5720    9.6530 C   0  0  0  0  0  0
   13.9080    9.6810    7.9210 C   0  0  0  0  0  0
   14.1270    8.2690    5.8430 C   0  0  0  0  0  0
   14.9040   10.8970    2.7670 C   0  0  0  0  0  0
   13.5520   10.8670    0.6930 O   0  0  0  0  0  0
   13.2930    9.6780    5.0760 S   0  0  0  0  0  0
   14.7520   11.0280    4.5880 S   0  0  0  0  0  0
   14.6180    8.7210    7.1910 C   0  0  0  0  0  0
   14.3710   10.1080    9.1640 C   0  0  0  0  0  0
   13.6980    8.8130    1.9370 C   0  0  1  0  0  0
   14.4230    8.6940    0.6060 C   0  0  2  0  0  0
   13.6230   10.3440    2.0750 C   0  0  1  0  0  0
   13.6160    9.7180   -0.2050 C   0  0  2  0  0  0
   13.7140   11.0110    9.8960 N   0  3  0  0  0  0
   11.7142    8.8869   -4.9447 H   0  0  0  0  0  0
   15.6515   10.3579   -6.8046 H   0  0  0  0  0  0
   16.7450   10.8174   -5.3136 H   0  0  0  0  0  0
   16.2100   10.7415   -0.6003 H   0  0  0  0  0  0
   12.2395    7.1822    1.6999 H   0  0  0  0  0  0
   14.8688    6.5334    0.5451 H   0  0  0  0  0  0
   17.1545    8.2055    9.3055 H   0  0  0  0  0  0
   16.3598    7.4447    7.0873 H   0  0  0  0  0  0
   15.9289    9.8892   10.6218 H   0  0  0  0  0  0
   12.9864   10.0976    7.5144 H   0  0  0  0  0  0
   13.4165    7.4361    5.9498 H   0  0  0  0  0  0
   14.9698    7.9531    5.2107 H   0  0  0  0  0  0
   15.1037   11.8923    2.3432 H   0  0  0  0  0  0
   15.7328   10.2186    2.5161 H   0  0  0  0  0  0
   14.1274    8.2573    2.7837 H   0  0  0  0  0  0
   15.5156    8.8202    0.6242 H   0  0  0  0  0  0
   12.7368   10.6578    2.6461 H   0  0  0  0  0  0
   12.6045    9.4388   -0.5350 H   0  0  0  0  0  0
  1  2  1  0  0  0
  1  6  2  0  0  0
  2  3  2  0  0  0
  2 31  1  0  0  0
  3  4  1  0  0  0
  4  5  2  0  0  0
  4 10  1  0  0  0
  5  6  1  0  0  0
  5  8  1  0  0  0
  6  7  1  0  0  0
  7 32  1  0  0  0
  7 33  1  0  0  0
  8  9  2  0  0  0
  9 10  1  0  0  0
  9 34  1  0  0  0
 10 29  1  0  0  0
 11 30  1  0  0  0
 12 26  1  0  0  0
 12 35  1  0  0  0
 13 27  1  0  0  0
 13 36  1  0  0  0
 14 30  2  0  0  0
 15 16  2  0  0  0
 15 17  1  0  0  0
 15 37  1  0  0  0
 16 24  1  0  0  0
 16 38  1  0  0  0
 17 25  2  0  0  0
 17 39  1  0  0  0
 18 24  2  0  0  0
 18 25  1  0  0  0
 18 40  1  0  0  0
 19 22  1  0  0  0
 19 24  1  0  0  0
 19 41  1  0  0  0
 19 42  1  0  0  0
 20 23  1  0  0  0
 20 28  1  0  0  0
 20 43  1  0  0  0
 20 44  1  0  0  0
 21 28  1  0  0  0
 21 29  1  0  0  0
 22 23  1  0  0  0
 25 30  1  0  0  0
 26 27  1  0  0  0
 26 28  1  0  0  0
 26 45  1  0  0  0
 27 29  1  0  0  0
 27 46  1  0  0  0
 28 47  1  0  0  0
 29 48  1  0  0  0
M  CHG  2  11  -1  30   1
M  END
> <s_m_source_file>
../3iod_ligand.sdf

> <i_m_source_file_index>
1

> <s_epik_input>
bjFbY0hdbmMoW05IMl0pYyhjMTIpbltjSF1uMltDQEBIXShbQ0BIXShbT0hdKVtDQEBIXTNbT0hdKU9bQ0BASF0zW0NIMl1TU1tDSDJdYzRbY0hdW2NIXVtjSF1jKFtjSF00KVtOK10oW08tXSk9Tw==

> <s_epik_cmdline>
J2VwaWtfYXBwJywgJy1pbWFlJywgJ2xpZ2FuZF9wcm8ubWFlJywgJy1vbWFlJywgJ2xpZ2FuZF9wcmVwLm1hZScsICctbXMnLCAnMScsICctcGgnLCAnNycsICctcGh0JywgJzAuNScsICctbnQn

> <r_lp_tautomer_probability>
1

> <r_epik_Ionization_Penalty>
  0.0004

> <r_epik_Ionization_Penalty_Charging>
  0.0000

> <r_epik_Ionization_Penalty_Neutral>
  0.0004

> <r_epik_State_Penalty>
 -0.0000

> <r_epik_Charging_Adjusted_Penalty>
0

> <i_epik_Tot_Q>
0

> <i_epik_Tot_abs_Q>
2

> <s_epik_Chemistry_Notes>
This compound contains an acetal/aminal-like group ( X-CH(R)-Y where X, Y are N, S, or O) that may be acid/base labile, releasing an aldehyde.

$$$$
