3ioe_ligand
                    3D
 Schrodinger Suite 2020-3.
 46 48  0  0  1  0            999 V2000
   13.7440    9.5570   -5.3120 N   0  0  0  0  0  0
   12.7570    9.2080   -4.4750 C   0  0  0  0  0  0
   12.9440    9.2860   -3.1570 N   0  0  0  0  0  0
   14.1320    9.7200   -2.6430 C   0  0  0  0  0  0
   15.1750   10.0860   -3.4930 C   0  0  0  0  0  0
   14.9510    9.9910   -4.8640 C   0  0  0  0  0  0
   15.9250   10.3260   -5.7130 N   0  0  0  0  0  0
   16.2050   10.4750   -2.7440 N   0  0  0  0  0  0
   15.8430   10.3580   -1.4630 C   0  0  0  0  0  0
   14.5860    9.9030   -1.4000 N   0  0  0  0  0  0
   14.8640    9.8980    9.5210 O   0  0  0  0  0  0
   16.3630    7.8700    7.4210 O   0  0  0  0  0  0
   12.5240    8.1730    1.8270 O   0  0  0  0  0  0
   14.5120    7.2260   -0.0600 O   0  0  0  0  0  0
   14.6630    8.5060    9.1750 C   0  0  0  0  0  0
   14.7510    9.2620    5.3170 C   0  0  0  0  0  0
   14.4370    9.3940    6.8280 C   0  0  0  0  0  0
   15.2100   10.5420    2.7790 C   0  0  0  0  0  0
   13.8100   10.7210    0.7290 O   0  0  0  0  0  0
   14.9760   10.9260    4.5410 S   0  0  0  0  0  0
   14.9380    8.2060    7.6740 C   0  0  1  0  0  0
   13.8800    8.6100    1.9190 C   0  0  1  0  0  0
   14.5890    8.5240    0.5620 C   0  0  2  0  0  0
   13.8800   10.1340    2.0890 C   0  0  1  0  0  0
   13.8250    9.6210   -0.2060 C   0  0  2  0  0  0
   11.8027    8.8609   -4.8712 H   0  0  0  0  0  0
   15.7578   10.2544   -6.7978 H   0  0  0  0  0  0
   16.8949   10.6737   -5.3278 H   0  0  0  0  0  0
   16.4720   10.5956   -0.6051 H   0  0  0  0  0  0
   14.7010   10.2369   10.5547 H   0  0  0  0  0  0
   16.8372    7.0396    7.9647 H   0  0  0  0  0  0
   12.2981    7.1039    1.7005 H   0  0  0  0  0  0
   15.0197    6.3650    0.3993 H   0  0  0  0  0  0
   15.3422    7.8784    9.7706 H   0  0  0  0  0  0
   13.6215    8.2223    9.3866 H   0  0  0  0  0  0
   15.6762    8.6821    5.1841 H   0  0  0  0  0  0
   13.9198    8.7467    4.8134 H   0  0  0  0  0  0
   14.9158   10.3017    7.2241 H   0  0  0  0  0  0
   13.3485    9.4611    6.9718 H   0  0  0  0  0  0
   15.6077   11.4269    2.2606 H   0  0  0  0  0  0
   15.9193    9.7075    2.6766 H   0  0  0  0  0  0
   14.4214    7.2891    7.3540 H   0  0  0  0  0  0
   14.2871    7.9802    2.7237 H   0  0  0  0  0  0
   15.6857    8.6054    0.5854 H   0  0  0  0  0  0
   13.0159   10.4968    2.6650 H   0  0  0  0  0  0
   12.7989    9.4273   -0.5519 H   0  0  0  0  0  0
  1  2  1  0  0  0
  1  6  2  0  0  0
  2  3  2  0  0  0
  2 26  1  0  0  0
  3  4  1  0  0  0
  4  5  2  0  0  0
  4 10  1  0  0  0
  5  6  1  0  0  0
  5  8  1  0  0  0
  6  7  1  0  0  0
  7 27  1  0  0  0
  7 28  1  0  0  0
  8  9  2  0  0  0
  9 10  1  0  0  0
  9 29  1  0  0  0
 10 25  1  0  0  0
 11 15  1  0  0  0
 11 30  1  0  0  0
 12 21  1  0  0  0
 12 31  1  0  0  0
 13 22  1  0  0  0
 13 32  1  0  0  0
 14 23  1  0  0  0
 14 33  1  0  0  0
 15 21  1  0  0  0
 15 34  1  0  0  0
 15 35  1  0  0  0
 16 17  1  0  0  0
 16 20  1  0  0  0
 16 36  1  0  0  0
 16 37  1  0  0  0
 17 21  1  0  0  0
 17 38  1  0  0  0
 17 39  1  0  0  0
 18 20  1  0  0  0
 18 24  1  0  0  0
 18 40  1  0  0  0
 18 41  1  0  0  0
 19 24  1  0  0  0
 19 25  1  0  0  0
 21 42  1  0  0  0
 22 23  1  0  0  0
 22 24  1  0  0  0
 22 43  1  0  0  0
 23 25  1  0  0  0
 23 44  1  0  0  0
 24 45  1  0  0  0
 25 46  1  0  0  0
M  END
> <s_m_source_file>
../3ioe_ligand.sdf

> <i_m_source_file_index>
1

> <s_epik_input>
bjFbY0hdbmMoW05IMl0pYyhjMTIpbltjSF1uMltDQEBIXShbQ0BIXShbT0hdKVtDQEBIXTNbT0hdKU9bQ0BASF0zW0NIMl1TW0NIMl1bQ0gyXVtDQEBIXShbT0hdKVtDSDJdW09IXQ==

> <s_epik_cmdline>
J2VwaWtfYXBwJywgJy1pbWFlJywgJ2xpZ2FuZF9wcm8ubWFlJywgJy1vbWFlJywgJ2xpZ2FuZF9wcmVwLm1hZScsICctbXMnLCAnMScsICctcGgnLCAnNycsICctcGh0JywgJzAuNScsICctbnQn

> <r_lp_tautomer_probability>
1

> <r_epik_Ionization_Penalty>
  0.0004

> <r_epik_Ionization_Penalty_Charging>
  0.0000

> <r_epik_Ionization_Penalty_Neutral>
  0.0004

> <r_epik_State_Penalty>
 -0.0000

> <r_epik_Charging_Adjusted_Penalty>
0

> <i_epik_Tot_Q>
0

> <i_epik_Tot_abs_Q>
0

> <s_epik_Chemistry_Notes>
This compound contains an acetal/aminal-like group ( X-CH(R)-Y where X, Y are N, S, or O) that may be acid/base labile, releasing an aldehyde.

$$$$
