3ioi_ligand
                    3D
 Schrodinger Suite 2020-3.
 73 76  0  0  1  0            999 V2000
   16.4000   22.9620    7.8810 N   0  0  0  0  0  0
   17.5710   23.7460    8.1380 C   0  0  0  0  0  0
   18.0270   24.3870    7.2420 O   0  0  0  0  0  0
   18.1510   23.7060    9.4500 N   0  0  0  0  0  0
   17.6100   22.9530   10.4510 C   0  0  0  0  0  0
   18.0910   22.9570   11.5530 O   0  0  0  0  0  0
   16.3280   22.1380   10.1470 C   0  0  0  0  0  0
   15.7840   22.1280    8.9040 C   0  0  0  0  0  0
   14.4720   18.2240    7.3940 P   0  0  2  0  0  0
   12.3840   16.2990    6.6310 P   0  0  2  0  0  0
   10.0340   17.1030    5.5420 C   0  0  1  0  0  0
   15.1660   17.9180    5.9600 O   0  5  0  0  0  0
   11.5180   15.2460    7.5580 O   0  5  0  0  0  0
   15.8490   23.0590    6.5220 C   0  0  1  0  0  0
    9.9340   17.7670    4.1920 C   0  0  2  0  0  0
   10.8790   17.2180    3.3060 O   0  0  0  0  0  0
   15.2960   17.9000    8.5510 O   0  0  0  0  0  0
   13.2470   15.6800    5.6150 O   0  0  0  0  0  0
   16.6380   22.2810    5.4870 C   0  0  2  0  0  0
   16.6110   22.8520    4.1830 O   0  0  0  0  0  0
   10.2200   19.2590    4.4130 C   0  0  1  0  0  0
   10.2440   19.9630    3.1880 O   0  0  0  0  0  0
   13.1340   17.2940    7.6870 O   0  0  0  0  0  0
   11.3380   17.4180    5.9890 O   0  0  0  0  0  0
   15.9680   20.9190    5.5510 C   0  0  2  0  0  0
   16.2670   20.0750    4.4580 O   0  0  0  0  0  0
    9.1020   19.8070    5.3450 C   0  0  1  0  0  0
    7.8580   19.8410    4.6660 O   0  0  0  0  0  0
   14.4620   21.3440    5.6520 C   0  0  2  0  0  0
   14.5170   22.5180    6.5470 O   0  0  0  0  0  0
    9.0770   19.0300    6.7210 C   0  0  2  0  0  0
    9.0200   17.5970    6.4310 O   0  0  0  0  0  0
   13.4540   20.2820    6.1990 C   0  0  0  0  0  0
   13.9850   19.7610    7.4240 O   0  0  0  0  0  0
    7.9270   19.4510    7.6650 C   0  0  0  0  0  0
    8.0640   20.6790    8.3040 O   0  0  0  0  0  0
   15.0420   20.1640   15.8650 O   0  0  0  0  0  0
   14.2630   19.4870   12.3550 C   0  0  0  0  0  0
   14.5000   20.2880   11.0330 C   0  0  0  0  0  0
   16.3330   21.0030   12.7270 S   0  0  0  0  0  0
   15.4340   19.3150   14.8290 C   0  0  0  0  0  0
   15.3450   19.8780   13.4170 C   0  0  1  0  0  0
   15.7230   21.2240   11.2280 C   0  0  3  0  0  0
   19.0554   24.2923    9.6696 H   0  0  0  0  0  0
   14.9121   21.5142    8.6778 H   0  0  0  0  0  0
    9.8933   16.0121    5.5524 H   0  0  0  0  0  0
   15.8430   24.1270    6.2588 H   0  0  0  0  0  0
    8.9725   17.5655    3.6972 H   0  0  0  0  0  0
   10.8243   16.1536    3.0339 H   0  0  0  0  0  0
   17.7276   22.2905    5.6373 H   0  0  0  0  0  0
   17.0644   23.8383    4.0050 H   0  0  0  0  0  0
   11.2374   19.4359    4.7919 H   0  0  0  0  0  0
   10.9800   19.6969    2.4150 H   0  0  0  0  0  0
   16.3581   20.2339    6.3181 H   0  0  0  0  0  0
   17.2970   19.7222    4.3012 H   0  0  0  0  0  0
    9.2278   20.8821    5.5407 H   0  0  0  0  0  0
    7.7731   20.3585    3.6991 H   0  0  0  0  0  0
   14.0521   21.5760    4.6580 H   0  0  0  0  0  0
   10.0025   19.2140    7.2863 H   0  0  0  0  0  0
   12.4797   20.7598    6.3790 H   0  0  0  0  0  0
   13.3357   19.4746    5.4613 H   0  0  0  0  0  0
    6.9885   19.5131    7.0946 H   0  0  0  0  0  0
    7.8198   18.7061    8.4673 H   0  0  0  0  0  0
    7.2789   21.0337    8.9880 H   0  0  0  0  0  0
   15.0835   19.8152   16.9074 H   0  0  0  0  0  0
   13.2642   19.7215   12.7517 H   0  0  0  0  0  0
   14.3313   18.4089   12.1478 H   0  0  0  0  0  0
   14.6954   19.5860   10.2090 H   0  0  0  0  0  0
   13.6062   20.8858   10.8012 H   0  0  0  0  0  0
   16.4856   19.0251   14.9706 H   0  0  0  0  0  0
   14.8017   18.4149   14.8334 H   0  0  0  0  0  0
   15.9994   19.0756   13.0457 H   0  0  0  0  0  0
   15.7497   22.0342   10.4845 H   0  0  0  0  0  0
  1  2  1  0  0  0
  1  8  1  0  0  0
  1 14  1  0  0  0
  2  3  2  0  0  0
  2  4  1  0  0  0
  4  5  1  0  0  0
  4 44  1  0  0  0
  5  6  2  0  0  0
  5  7  1  0  0  0
  7  8  2  0  0  0
  7 43  1  0  0  0
  8 45  1  0  0  0
  9 12  1  0  0  0
  9 17  2  0  0  0
  9 23  1  0  0  0
  9 34  1  0  0  0
 10 13  1  0  0  0
 10 18  2  0  0  0
 10 23  1  0  0  0
 10 24  1  0  0  0
 11 15  1  0  0  0
 11 24  1  0  0  0
 11 32  1  0  0  0
 11 46  1  0  0  0
 14 19  1  0  0  0
 14 30  1  0  0  0
 14 47  1  0  0  0
 15 16  1  0  0  0
 15 21  1  0  0  0
 15 48  1  0  0  0
 16 49  1  0  0  0
 19 20  1  0  0  0
 19 25  1  0  0  0
 19 50  1  0  0  0
 20 51  1  0  0  0
 21 22  1  0  0  0
 21 27  1  0  0  0
 21 52  1  0  0  0
 22 53  1  0  0  0
 25 26  1  0  0  0
 25 29  1  0  0  0
 25 54  1  0  0  0
 26 55  1  0  0  0
 27 28  1  0  0  0
 27 31  1  0  0  0
 27 56  1  0  0  0
 28 57  1  0  0  0
 29 30  1  0  0  0
 29 33  1  0  0  0
 29 58  1  0  0  0
 31 32  1  0  0  0
 31 35  1  0  0  0
 31 59  1  0  0  0
 33 34  1  0  0  0
 33 60  1  0  0  0
 33 61  1  0  0  0
 35 36  1  0  0  0
 35 62  1  0  0  0
 35 63  1  0  0  0
 36 64  1  0  0  0
 37 41  1  0  0  0
 37 65  1  0  0  0
 38 39  1  0  0  0
 38 42  1  0  0  0
 38 66  1  0  0  0
 38 67  1  0  0  0
 39 43  1  0  0  0
 39 68  1  0  0  0
 39 69  1  0  0  0
 40 42  1  0  0  0
 40 43  1  0  0  0
 41 42  1  0  0  0
 41 70  1  0  0  0
 41 71  1  0  0  0
 42 72  1  0  0  0
 43 73  1  0  0  0
M  CHG  2  12  -1  13  -1
M  END
> <s_m_source_file>
../3ioi_ligand.sdf

> <i_m_source_file_index>
1

> <s_epik_input>
W09IXVtDSDJdW0NIXTFbQ0gyXVtDSDJdW0NIXShTMSljKFtjSF0yKWMoPU8pW25IXWMoPU8pbjJbQ0BIXTNbQ0BIXShbT0hdKVtDQEhdKFtPSF0pW0NASF0oTzMpW0NIMl1PW1BAXSg9TykoW09IXSlPW1BAQF0oPU8pKFtPSF0pT1tDQEBIXTRbQ0BIXShbT0hdKVtDQEBIXShbT0hdKVtDQEBIXShbT0hdKVtDQEhdKE80KVtDSDJdW09IXQ==

> <s_epik_cmdline>
J2VwaWtfYXBwJywgJy1pbWFlJywgJ2xpZ2FuZF9wcm8ubWFlJywgJy1vbWFlJywgJ2xpZ2FuZF9wcmVwLm1hZScsICctbXMnLCAnMScsICctcGgnLCAnNycsICctcGh0JywgJzAuNScsICctbnQn

> <r_lp_tautomer_probability>
1

> <r_epik_Ionization_Penalty>
  0.0042

> <r_epik_Ionization_Penalty_Charging>
  0.0042

> <r_epik_Ionization_Penalty_Neutral>
  0.0000

> <r_epik_State_Penalty>
 -0.0000

> <r_epik_Charging_Adjusted_Penalty>
0.00418896209555227

> <i_epik_Tot_Q>
-2

> <i_epik_Tot_abs_Q>
2

> <s_epik_Chemistry_Notes>
This compound contains an acetal/aminal-like group ( X-CH(R)-Y where X, Y are N, S, or O) that may be acid/base labile, releasing an aldehyde.

$$$$
