3iok_ligand
                    3D
 Schrodinger Suite 2020-3.
 42 45  0  0  1  0            999 V2000
   15.7800   15.8270    6.3610 C   0  0  0  0  0  0
   15.4000   14.5350    5.6290 C   0  0  2  0  0  0
   16.2870   13.4310    6.0480 N   0  0  0  0  0  0
   16.2050   12.1310    5.5420 C   0  0  0  0  0  0
   17.1510   11.2370    5.8410 N   0  0  0  0  0  0
   17.0940    9.9920    5.3870 C   0  0  0  0  0  0
   16.1120    9.5860    4.5990 N   0  0  0  0  0  0
   15.1130   10.4120    4.2540 C   0  0  0  0  0  0
   15.1460   11.7240    4.7220 C   0  0  0  0  0  0
   14.0400    9.9580    3.3430 C   0  0  0  0  0  0
   12.9890   10.7230    2.8020 C   0  0  0  0  0  0
   12.6100   11.9930    2.9560 N   0  0  0  0  0  0
   11.5730   12.4730    2.3000 C   0  0  0  0  0  0
   10.8240   11.6700    1.4320 C   0  0  0  0  0  0
   11.1810   10.3720    1.2850 C   0  0  0  0  0  0
   12.2750    9.9030    1.9670 N   0  0  0  0  0  0
   12.8920    8.6470    1.9780 N   0  0  0  0  0  0
   13.9340    8.6770    2.7790 C   0  0  0  0  0  0
   14.7790    7.6000    3.0340 N   0  0  0  0  0  0
   15.4650   14.7720    4.1320 C   0  0  0  0  0  0
   16.6690   14.7280    3.4370 C   0  0  0  0  0  0
   16.6610   14.9470    2.0640 C   0  0  0  0  0  0
   15.4710   15.2130    1.3940 C   0  0  0  0  0  0
   15.4740   15.4220    0.0610 F   0  0  0  0  0  0
   14.2730   15.2480    2.0810 C   0  0  0  0  0  0
   14.2800   15.0320    3.4500 C   0  0  0  0  0  0
   15.7343   15.6600    7.4473 H   0  0  0  0  0  0
   15.0772   16.6262    6.0830 H   0  0  0  0  0  0
   16.8012   16.1219    6.0780 H   0  0  0  0  0  0
   14.3827   14.2104    5.8932 H   0  0  0  0  0  0
   17.0688   13.6092    6.8010 H   0  0  0  0  0  0
   17.8751    9.2864    5.6700 H   0  0  0  0  0  0
   14.3563   12.4254    4.4527 H   0  0  0  0  0  0
   11.2925   13.5175    2.4361 H   0  0  0  0  0  0
    9.9735   12.0798    0.8872 H   0  0  0  0  0  0
   10.6082    9.7104    0.6351 H   0  0  0  0  0  0
   15.6294    7.7189    3.7215 H   0  0  0  0  0  0
   14.5961    6.6303    2.5479 H   0  0  0  0  0  0
   17.6035   14.5252    3.9601 H   0  0  0  0  0  0
   17.5970   14.9099    1.5066 H   0  0  0  0  0  0
   13.3381   15.4422    1.5553 H   0  0  0  0  0  0
   13.3409   15.0664    4.0023 H   0  0  0  0  0  0
  1  2  1  0  0  0
  1 27  1  0  0  0
  1 28  1  0  0  0
  1 29  1  0  0  0
  2  3  1  0  0  0
  2 20  1  0  0  0
  2 30  1  0  0  0
  3  4  1  0  0  0
  3 31  1  0  0  0
  4  5  2  0  0  0
  4  9  1  0  0  0
  5  6  1  0  0  0
  6  7  2  0  0  0
  6 32  1  0  0  0
  7  8  1  0  0  0
  8  9  2  0  0  0
  8 10  1  0  0  0
  9 33  1  0  0  0
 10 11  2  0  0  0
 10 18  1  0  0  0
 11 12  1  0  0  0
 11 16  1  0  0  0
 12 13  2  0  0  0
 13 14  1  0  0  0
 13 34  1  0  0  0
 14 15  2  0  0  0
 14 35  1  0  0  0
 15 16  1  0  0  0
 15 36  1  0  0  0
 16 17  1  0  0  0
 17 18  2  0  0  0
 18 19  1  0  0  0
 19 37  1  0  0  0
 19 38  1  0  0  0
 20 21  2  0  0  0
 20 26  1  0  0  0
 21 22  1  0  0  0
 21 39  1  0  0  0
 22 23  2  0  0  0
 22 40  1  0  0  0
 23 24  1  0  0  0
 23 25  1  0  0  0
 25 26  2  0  0  0
 25 41  1  0  0  0
 26 42  1  0  0  0
M  END
> <s_m_source_file>
../3iok_ligand.sdf

> <i_m_source_file_index>
1

> <s_epik_input>
W2NIXTFbY0hdYyhGKVtjSF1bY0hdYzFbQ0BIXShbQ0gzXSlbTkhdYzJuW2NIXW5jKFtjSF0yKS1jM2MoW05IMl0pbm4oYzM0KVtjSF1bY0hdW2NIXW40

> <s_epik_cmdline>
J2VwaWtfYXBwJywgJy1pbWFlJywgJ2xpZ2FuZF9wcm8ubWFlJywgJy1vbWFlJywgJ2xpZ2FuZF9wcmVwLm1hZScsICctbXMnLCAnMScsICctcGgnLCAnNycsICctcGh0JywgJzAuNScsICctbnQn

> <r_lp_tautomer_probability>
1

> <r_epik_Ionization_Penalty>
  0.0086

> <r_epik_Ionization_Penalty_Charging>
  0.0000

> <r_epik_Ionization_Penalty_Neutral>
  0.0086

> <r_epik_State_Penalty>
 -0.0000

> <r_epik_Charging_Adjusted_Penalty>
0

> <i_epik_Tot_Q>
0

> <i_epik_Tot_abs_Q>
0

$$$$
