3ion_ligand
                    3D
 Schrodinger Suite 2020-3.
 64 68  0  0  1  0            999 V2000
  -35.0370  -22.3930    5.9140 C   0  0  0  0  0  0
  -34.4540  -29.6610    3.3940 N   0  0  0  0  0  0
  -33.6540  -22.5660    6.2360 O   0  0  0  0  0  0
  -32.9950  -23.7150    5.8680 C   0  0  0  0  0  0
  -30.6630  -27.0070    4.8390 N   0  0  0  0  0  0
  -31.0670  -22.5270    6.5340 O   0  0  0  0  0  0
  -33.6080  -24.8720    5.3540 C   0  0  0  0  0  0
  -32.3170  -30.6120    3.2520 N   0  0  0  0  0  0
  -39.8730  -27.2030    2.6220 O   0  0  0  0  0  0
  -32.8620  -26.0310    4.9800 C   0  0  0  0  0  0
  -38.5570  -30.5610    3.3110 N   0  0  0  0  0  0
  -33.4300  -27.2490    4.4470 C   0  0  0  0  0  0
  -41.6680  -25.4180    1.7380 N   0  3  0  0  0  0
  -34.8150  -27.4400    4.2250 C   0  0  0  0  0  0
  -35.3010  -28.6440    3.7030 C   0  0  0  0  0  0
  -33.1210  -29.5250    3.5950 C   0  0  0  0  0  0
  -32.5740  -28.3320    4.1240 C   0  0  0  0  0  0
  -31.2080  -28.1310    4.3410 C   0  0  0  0  0  0
  -31.4610  -25.9820    5.1510 C   0  0  0  0  0  0
  -30.8580  -24.8300    5.6650 C   0  0  0  0  0  0
  -31.5980  -23.6940    6.0280 C   0  0  0  0  0  0
  -29.7110  -22.4780    6.9790 C   0  0  0  0  0  0
  -36.7350  -28.9150    3.4550 C   0  0  0  0  0  0
  -37.6740  -27.9180    3.1500 C   0  0  0  0  0  0
  -39.0250  -28.2270    2.9290 C   0  0  0  0  0  0
  -39.4080  -29.5540    3.0250 C   0  0  0  0  0  0
  -37.2620  -30.2150    3.5240 C   0  0  0  0  0  0
  -39.4960  -25.8350    2.7970 C   0  0  0  0  0  0
  -40.7970  -25.0130    2.8860 C   0  0  2  0  0  0
  -41.6200  -25.1440    4.1940 C   0  0  0  0  0  0
  -41.4550  -26.4240    4.9860 C   0  0  0  0  0  0
  -42.3160  -27.5150    4.7560 C   0  0  0  0  0  0
  -42.1620  -28.7040    5.4820 C   0  0  0  0  0  0
  -41.1470  -28.8050    6.4410 C   0  0  0  0  0  0
  -40.2820  -27.7310    6.6740 C   0  0  0  0  0  0
  -40.4350  -26.5430    5.9520 C   0  0  0  0  0  0
  -35.3817  -21.4181    6.2893 H   0  0  0  0  0  0
  -35.6257  -23.1953    6.3827 H   0  0  0  0  0  0
  -35.1670  -22.4325    4.8224 H   0  0  0  0  0  0
  -34.6916  -24.8844    5.2369 H   0  0  0  0  0  0
  -32.7727  -31.5258    2.8429 H   0  0  0  0  0  0
  -31.2272  -30.5555    3.3906 H   0  0  0  0  0  0
  -41.1010  -25.3317    0.7993 H   0  0  0  0  0  0
  -42.5488  -24.7604    1.6962 H   0  0  0  0  0  0
  -41.9942  -26.4595    1.8749 H   0  0  0  0  0  0
  -35.5130  -26.6377    4.4641 H   0  0  0  0  0  0
  -30.5326  -28.9480    4.0871 H   0  0  0  0  0  0
  -29.7751  -24.8136    5.7881 H   0  0  0  0  0  0
  -29.4814  -21.4662    7.3444 H   0  0  0  0  0  0
  -29.0414  -22.7265    6.1424 H   0  0  0  0  0  0
  -29.5658  -23.2035    7.7929 H   0  0  0  0  0  0
  -37.3469  -26.8804    3.0832 H   0  0  0  0  0  0
  -40.4572  -29.7992    2.8601 H   0  0  0  0  0  0
  -36.5683  -31.0187    3.7709 H   0  0  0  0  0  0
  -38.9086  -25.7319    3.7213 H   0  0  0  0  0  0
  -38.8897  -25.5091    1.9390 H   0  0  0  0  0  0
  -40.4916  -23.9577    2.8308 H   0  0  0  0  0  0
  -41.3441  -24.3326    4.8836 H   0  0  0  0  0  0
  -42.6929  -25.0777    3.9604 H   0  0  0  0  0  0
  -43.1061  -27.4341    4.0095 H   0  0  0  0  0  0
  -42.8296  -29.5464    5.3007 H   0  0  0  0  0  0
  -41.0301  -29.7273    7.0101 H   0  0  0  0  0  0
  -39.4897  -27.8197    7.4173 H   0  0  0  0  0  0
  -39.7626  -25.7053    6.1370 H   0  0  0  0  0  0
  1  3  1  0  0  0
  1 37  1  0  0  0
  1 38  1  0  0  0
  1 39  1  0  0  0
  2 15  2  0  0  0
  2 16  1  0  0  0
  3  4  1  0  0  0
  4  7  1  0  0  0
  4 21  2  0  0  0
  5 18  2  0  0  0
  5 19  1  0  0  0
  6 21  1  0  0  0
  6 22  1  0  0  0
  7 10  2  0  0  0
  7 40  1  0  0  0
  8 16  1  0  0  0
  8 41  1  0  0  0
  8 42  1  0  0  0
  9 25  1  0  0  0
  9 28  1  0  0  0
 10 12  1  0  0  0
 10 19  1  0  0  0
 11 26  2  0  0  0
 11 27  1  0  0  0
 12 14  2  0  0  0
 12 17  1  0  0  0
 13 29  1  0  0  0
 13 43  1  0  0  0
 13 44  1  0  0  0
 13 45  1  0  0  0
 14 15  1  0  0  0
 14 46  1  0  0  0
 15 23  1  0  0  0
 16 17  2  0  0  0
 17 18  1  0  0  0
 18 47  1  0  0  0
 19 20  2  0  0  0
 20 21  1  0  0  0
 20 48  1  0  0  0
 22 49  1  0  0  0
 22 50  1  0  0  0
 22 51  1  0  0  0
 23 24  1  0  0  0
 23 27  2  0  0  0
 24 25  2  0  0  0
 24 52  1  0  0  0
 25 26  1  0  0  0
 26 53  1  0  0  0
 27 54  1  0  0  0
 28 29  1  0  0  0
 28 55  1  0  0  0
 28 56  1  0  0  0
 29 30  1  0  0  0
 29 57  1  0  0  0
 30 31  1  0  0  0
 30 58  1  0  0  0
 30 59  1  0  0  0
 31 32  2  0  0  0
 31 36  1  0  0  0
 32 33  1  0  0  0
 32 60  1  0  0  0
 33 34  2  0  0  0
 33 61  1  0  0  0
 34 35  1  0  0  0
 34 62  1  0  0  0
 35 36  2  0  0  0
 35 63  1  0  0  0
 36 64  1  0  0  0
M  CHG  1  13   1
M  END
> <s_m_source_file>
../3ion_ligand.sdf

> <i_m_source_file_index>
1

> <s_epik_input>
W0NIM11PYyhbY0hdMSljKE9bQ0gzXSlbY0hdYzJuW2NIXWMoYzNjMTIpYyhbTkgyXSluYyhbY0hdMyktYzRbY0hdYyhbY0hdbltjSF00KU9bQ0gyXVtDQEBIXShbTkgzK10pW0NIMl1jNVtjSF1bY0hdW2NIXVtjSF1bY0hdNQ==

> <s_epik_cmdline>
J2VwaWtfYXBwJywgJy1pbWFlJywgJ2xpZ2FuZF9wcm8ubWFlJywgJy1vbWFlJywgJ2xpZ2FuZF9wcmVwLm1hZScsICctbXMnLCAnMScsICctcGgnLCAnNycsICctcGh0JywgJzAuNScsICctbnQn

> <r_lp_tautomer_probability>
1

> <r_epik_Ionization_Penalty>
  0.0179

> <r_epik_Ionization_Penalty_Charging>
  0.0151

> <r_epik_Ionization_Penalty_Neutral>
  0.0028

> <r_epik_State_Penalty>
  0.0119

> <r_epik_Charging_Adjusted_Penalty>
0.0270034540302394

> <i_epik_Tot_Q>
1

> <i_epik_Tot_abs_Q>
1

$$$$
