3iop_ligand
                    3D
 Schrodinger Suite 2020-3.
 64 68  0  0  1  0            999 V2000
  -35.0160  -22.1170    5.7780 C   0  0  0  0  0  0
  -34.4090  -29.3920    3.3120 N   0  0  0  0  0  0
  -33.6730  -22.3330    6.2130 O   0  0  0  0  0  0
  -32.9850  -23.4560    5.8080 C   0  0  0  0  0  0
  -30.6070  -26.6870    4.6760 N   0  0  0  0  0  0
  -31.0530  -22.2430    6.4380 O   0  0  0  0  0  0
  -33.5820  -24.6210    5.3010 C   0  0  0  0  0  0
  -32.2640  -30.3040    3.0920 N   0  0  0  0  0  0
  -39.7200  -26.6700    3.0140 O   0  0  0  0  0  0
  -32.8260  -25.7580    4.8960 C   0  0  0  0  0  0
  -38.5830  -30.2100    3.2000 N   0  0  0  0  0  0
  -33.3890  -26.9770    4.3650 C   0  0  0  0  0  0
  -40.9920  -24.2770    2.4590 N   0  3  0  0  0  0
  -34.7770  -27.1910    4.1740 C   0  0  0  0  0  0
  -35.2590  -28.3940    3.6530 C   0  0  0  0  0  0
  -33.0720  -29.2330    3.4730 C   0  0  0  0  0  0
  -32.5240  -28.0380    4.0020 C   0  0  0  0  0  0
  -31.1540  -27.8160    4.1840 C   0  0  0  0  0  0
  -31.4190  -25.6820    5.0250 C   0  0  0  0  0  0
  -30.8300  -24.5260    5.5340 C   0  0  0  0  0  0
  -31.5820  -23.4090    5.9290 C   0  0  0  0  0  0
  -29.6560  -22.1470    6.7090 C   0  0  0  0  0  0
  -36.6980  -28.6630    3.4470 C   0  0  0  0  0  0
  -37.6170  -27.6060    3.3140 C   0  0  0  0  0  0
  -38.9860  -27.8220    3.1250 C   0  0  0  0  0  0
  -39.4160  -29.1430    3.0800 C   0  0  0  0  0  0
  -37.2570  -29.9470    3.3840 C   0  0  0  0  0  0
  -41.1080  -26.7130    2.6620 C   0  0  0  0  0  0
  -41.7770  -25.3900    3.0760 C   0  0  1  0  0  0
  -41.8840  -25.1040    4.5960 C   0  0  0  0  0  0
  -41.3940  -26.2090    5.5040 C   0  0  0  0  0  0
  -40.0870  -26.1720    6.0300 C   0  0  0  0  0  0
  -39.6290  -27.2030    6.8550 C   0  0  0  0  0  0
  -40.4690  -28.2740    7.1710 C   0  0  0  0  0  0
  -41.7680  -28.3220    6.6560 C   0  0  0  0  0  0
  -42.2340  -27.2940    5.8270 C   0  0  0  0  0  0
  -35.3920  -21.1747    6.2031 H   0  0  0  0  0  0
  -35.6494  -22.9504    6.1161 H   0  0  0  0  0  0
  -35.0409  -22.0596    4.6798 H   0  0  0  0  0  0
  -34.6679  -24.6568    5.2138 H   0  0  0  0  0  0
  -32.7193  -31.2187    2.6845 H   0  0  0  0  0  0
  -31.1715  -30.2340    3.1990 H   0  0  0  0  0  0
  -40.8978  -24.4507    1.3769 H   0  0  0  0  0  0
  -39.9907  -24.2391    2.9128 H   0  0  0  0  0  0
  -41.5100  -23.3224    2.6334 H   0  0  0  0  0  0
  -35.4813  -26.4023    4.4386 H   0  0  0  0  0  0
  -30.4747  -28.6215    3.9052 H   0  0  0  0  0  0
  -29.7448  -24.4881    5.6288 H   0  0  0  0  0  0
  -29.4276  -21.1474    7.1073 H   0  0  0  0  0  0
  -29.0902  -22.3095    5.7798 H   0  0  0  0  0  0
  -29.3728  -22.9100    7.4490 H   0  0  0  0  0  0
  -37.2486  -26.5812    3.3599 H   0  0  0  0  0  0
  -40.4801  -29.3336    2.9408 H   0  0  0  0  0  0
  -36.5832  -30.7972    3.4897 H   0  0  0  0  0  0
  -41.2065  -26.8520    1.5753 H   0  0  0  0  0  0
  -41.5930  -27.5509    3.1843 H   0  0  0  0  0  0
  -42.8095  -25.4483    2.7012 H   0  0  0  0  0  0
  -41.2889  -24.2128    4.8442 H   0  0  0  0  0  0
  -42.9365  -24.9281    4.8628 H   0  0  0  0  0  0
  -39.4302  -25.3353    5.7922 H   0  0  0  0  0  0
  -38.6146  -27.1716    7.2527 H   0  0  0  0  0  0
  -40.1110  -29.0732    7.8200 H   0  0  0  0  0  0
  -42.4193  -29.1612    6.9002 H   0  0  0  0  0  0
  -43.2486  -27.3329    5.4306 H   0  0  0  0  0  0
  1  3  1  0  0  0
  1 37  1  0  0  0
  1 38  1  0  0  0
  1 39  1  0  0  0
  2 15  2  0  0  0
  2 16  1  0  0  0
  3  4  1  0  0  0
  4  7  1  0  0  0
  4 21  2  0  0  0
  5 18  2  0  0  0
  5 19  1  0  0  0
  6 21  1  0  0  0
  6 22  1  0  0  0
  7 10  2  0  0  0
  7 40  1  0  0  0
  8 16  1  0  0  0
  8 41  1  0  0  0
  8 42  1  0  0  0
  9 25  1  0  0  0
  9 28  1  0  0  0
 10 12  1  0  0  0
 10 19  1  0  0  0
 11 26  2  0  0  0
 11 27  1  0  0  0
 12 14  2  0  0  0
 12 17  1  0  0  0
 13 29  1  0  0  0
 13 43  1  0  0  0
 13 44  1  0  0  0
 13 45  1  0  0  0
 14 15  1  0  0  0
 14 46  1  0  0  0
 15 23  1  0  0  0
 16 17  2  0  0  0
 17 18  1  0  0  0
 18 47  1  0  0  0
 19 20  2  0  0  0
 20 21  1  0  0  0
 20 48  1  0  0  0
 22 49  1  0  0  0
 22 50  1  0  0  0
 22 51  1  0  0  0
 23 24  1  0  0  0
 23 27  2  0  0  0
 24 25  2  0  0  0
 24 52  1  0  0  0
 25 26  1  0  0  0
 26 53  1  0  0  0
 27 54  1  0  0  0
 28 29  1  0  0  0
 28 55  1  0  0  0
 28 56  1  0  0  0
 29 30  1  0  0  0
 29 57  1  0  0  0
 30 31  1  0  0  0
 30 58  1  0  0  0
 30 59  1  0  0  0
 31 32  2  0  0  0
 31 36  1  0  0  0
 32 33  1  0  0  0
 32 60  1  0  0  0
 33 34  2  0  0  0
 33 61  1  0  0  0
 34 35  1  0  0  0
 34 62  1  0  0  0
 35 36  2  0  0  0
 35 63  1  0  0  0
 36 64  1  0  0  0
M  CHG  1  13   1
M  END
> <s_m_source_file>
../3iop_ligand.sdf

> <i_m_source_file_index>
1

> <s_epik_input>
W0NIM11PYyhbY0hdMSljKE9bQ0gzXSlbY0hdYzJuW2NIXWMoYzNjMTIpYyhbTkgyXSluYyhbY0hdMyktYzRbY0hdYyhbY0hdbltjSF00KU9bQ0gyXVtDQEhdKFtOSDMrXSlbQ0gyXWM1W2NIXVtjSF1bY0hdW2NIXVtjSF01

> <s_epik_cmdline>
J2VwaWtfYXBwJywgJy1pbWFlJywgJ2xpZ2FuZF9wcm8ubWFlJywgJy1vbWFlJywgJ2xpZ2FuZF9wcmVwLm1hZScsICctbXMnLCAnMScsICctcGgnLCAnNycsICctcGh0JywgJzAuNScsICctbnQn

> <r_lp_tautomer_probability>
1

> <r_epik_Ionization_Penalty>
  0.0179

> <r_epik_Ionization_Penalty_Charging>
  0.0151

> <r_epik_Ionization_Penalty_Neutral>
  0.0028

> <r_epik_State_Penalty>
  0.0119

> <r_epik_Charging_Adjusted_Penalty>
0.0270034540302394

> <i_epik_Tot_Q>
1

> <i_epik_Tot_abs_Q>
1

$$$$
