3ip5_ligand
                    3D
 Schrodinger Suite 2020-3.
 13 12  0  0  1  0            999 V2000
  -23.7060   16.0110   13.5480 N   0  3  0  0  0  0
  -24.0870   17.4200   13.5480 C   0  0  2  0  0  0
  -23.3220   18.1620   12.4720 C   0  0  0  0  0  0
  -23.4840   19.3790   12.3050 O   0  0  0  0  0  0
  -23.8520   18.0400   14.9170 C   0  0  0  0  0  0
  -22.5380   17.5300   11.7480 O   0  5  0  0  0  0
  -23.8837   15.5831   12.5503 H   0  0  0  0  0  0
  -24.3076   15.4685   14.2921 H   0  0  0  0  0  0
  -22.6395   15.9196   13.8015 H   0  0  0  0  0  0
  -25.1625   17.4566   13.3198 H   0  0  0  0  0  0
  -24.4194   17.4804   15.6752 H   0  0  0  0  0  0
  -24.1871   19.0877   14.9074 H   0  0  0  0  0  0
  -22.7795   18.0002   15.1583 H   0  0  0  0  0  0
  1  2  1  0  0  0
  1  7  1  0  0  0
  1  8  1  0  0  0
  1  9  1  0  0  0
  2  3  1  0  0  0
  2  5  1  0  0  0
  2 10  1  0  0  0
  3  4  2  0  0  0
  3  6  1  0  0  0
  5 11  1  0  0  0
  5 12  1  0  0  0
  5 13  1  0  0  0
M  CHG  2   1   1   6  -1
M  END
> <s_m_source_file>
../3ip5_ligand.sdf

> <i_m_source_file_index>
1

> <s_epik_input>
W05IMytdW0NAQEhdKFtDSDNdKUMoPU8pW09IXQ==

> <s_epik_cmdline>
J2VwaWtfYXBwJywgJy1pbWFlJywgJ2xpZ2FuZF9wcm8ubWFlJywgJy1vbWFlJywgJ2xpZ2FuZF9wcmVwLm1hZScsICctbXMnLCAnMScsICctcGgnLCAnNycsICctcGh0JywgJzAuNScsICctbnQn

> <r_lp_tautomer_probability>
1

> <r_epik_Ionization_Penalty>
  0.0014

> <r_epik_Ionization_Penalty_Charging>
  0.0014

> <r_epik_Ionization_Penalty_Neutral>
  0.0000

> <r_epik_State_Penalty>
 -0.0000

> <r_epik_Charging_Adjusted_Penalty>
0.00136663983590927

> <i_epik_Tot_Q>
0

> <i_epik_Tot_abs_Q>
2

$$$$
