3ip9_ligand
                    3D
 Schrodinger Suite 2020-3.
 16 15  0  0  1  0            999 V2000
   23.2710   20.8850   16.0950 N   0  3  0  0  0  0
   23.2420   19.5810   16.7240 C   0  0  0  0  0  0
   23.0550   19.5790   18.2340 C   0  0  0  0  0  0
   23.7890   18.4570   18.9450 C   0  0  0  0  0  0
   23.1120   17.0970   19.0140 C   0  0  0  0  0  0
   23.2950   16.4220   20.2110 O   0  5  0  0  0  0
   22.8190   16.4840   18.0250 O   0  0  0  0  0  0
   23.4099   20.7659   15.0103 H   0  0  0  0  0  0
   24.1033   21.4732   16.5088 H   0  0  0  0  0  0
   22.3219   21.4064   16.2881 H   0  0  0  0  0  0
   22.4097   18.9928   16.3102 H   0  0  0  0  0  0
   24.1911   19.0596   16.5309 H   0  0  0  0  0  0
   23.4277   20.5263   18.6509 H   0  0  0  0  0  0
   21.9864   19.4694   18.4710 H   0  0  0  0  0  0
   24.7514   18.2737   18.4448 H   0  0  0  0  0  0
   23.9684   18.7420   19.9922 H   0  0  0  0  0  0
  1  2  1  0  0  0
  1  8  1  0  0  0
  1  9  1  0  0  0
  1 10  1  0  0  0
  2  3  1  0  0  0
  2 11  1  0  0  0
  2 12  1  0  0  0
  3  4  1  0  0  0
  3 13  1  0  0  0
  3 14  1  0  0  0
  4  5  1  0  0  0
  4 15  1  0  0  0
  4 16  1  0  0  0
  5  6  1  0  0  0
  5  7  2  0  0  0
M  CHG  2   1   1   6  -1
M  END
> <s_m_source_file>
../3ip9_ligand.sdf

> <i_m_source_file_index>
1

> <s_epik_input>
W05IMytdW0NIMl1bQ0gyXVtDSDJdQyg9TylbT0hd

> <s_epik_cmdline>
J2VwaWtfYXBwJywgJy1pbWFlJywgJ2xpZ2FuZF9wcm8ubWFlJywgJy1vbWFlJywgJ2xpZ2FuZF9wcmVwLm1hZScsICctbXMnLCAnMScsICctcGgnLCAnNycsICctcGh0JywgJzAuNScsICctbnQn

> <r_lp_tautomer_probability>
1

> <r_epik_Ionization_Penalty>
  0.0018

> <r_epik_Ionization_Penalty_Charging>
  0.0018

> <r_epik_Ionization_Penalty_Neutral>
  0.0000

> <r_epik_State_Penalty>
 -0.0000

> <r_epik_Charging_Adjusted_Penalty>
0.00181302103725607

> <i_epik_Tot_Q>
0

> <i_epik_Tot_abs_Q>
2

$$$$
