3ipb_ligand
                    3D
 Schrodinger Suite 2020-3.
 85 88  0  0  1  0            999 V2000
   19.0260   45.3840   64.0310 O   0  5  0  0  0  0
   23.2920   43.2810   33.3820 O   0  5  0  0  0  0
   18.8520   43.6890   65.4620 O   0  0  0  0  0  0
   23.3450   43.8680   35.5360 O   0  0  0  0  0  0
   19.8540   43.8850   58.8970 Cl  0  0  0  0  0  0
   23.8960   40.3090   60.2760 Cl  0  0  0  0  0  0
   21.9550   45.0740   41.6060 Cl  0  0  0  0  0  0
   20.8970   39.6190   41.4380 Cl  0  0  0  0  0  0
   23.7510   44.0030   64.9520 C   0  0  0  0  0  0
   19.3920   40.8250   35.3070 C   0  0  0  0  0  0
   23.0860   45.0690   65.5160 C   0  0  0  0  0  0
   19.7240   41.1920   34.0060 C   0  0  0  0  0  0
   23.0070   43.0570   64.2800 C   0  0  0  0  0  0
   20.1730   41.2340   36.3910 C   0  0  0  0  0  0
   21.7150   45.2410   65.4590 C   0  0  0  0  0  0
   20.8510   41.9790   33.8000 C   0  0  0  0  0  0
   20.4780   43.0140   61.3490 C   0  0  0  0  0  0
   22.2240   41.4740   61.8420 C   0  0  0  0  0  0
   21.9680   43.5180   39.3860 C   0  0  0  0  0  0
   21.5400   41.1680   39.2720 C   0  0  0  0  0  0
   21.2180   42.5120   50.5820 C   0  0  0  0  0  0
   21.4320   41.6590   51.8970 C   0  0  0  0  0  0
   22.0430   42.0770   49.3230 C   0  0  0  0  0  0
   21.4250   42.5100   53.2030 C   0  0  0  0  0  0
   21.4050   42.3710   47.9480 C   0  0  0  0  0  0
   21.1500   41.6960   54.4980 C   0  0  0  0  0  0
   22.2680   42.0370   46.6430 C   0  0  0  0  0  0
   21.5420   42.5100   55.7710 C   0  0  0  0  0  0
   21.3950   42.2600   45.3370 C   0  0  0  0  0  0
   21.0870   41.9320   57.1530 C   0  0  0  0  0  0
   22.1170   42.4730   43.9650 C   0  0  0  0  0  0
   20.9320   42.3170   63.5560 N   0  0  0  0  0  0
   22.0900   42.4450   37.2470 N   0  0  0  0  0  0
   22.1490   42.0710   58.1820 O   0  0  0  0  0  0
   21.1990   42.2350   42.7940 O   0  0  0  0  0  0
   19.5010   44.4650   64.7320 C   0  0  0  0  0  0
   22.8500   43.2480   34.5670 C   0  0  0  0  0  0
   21.1910   42.2670   62.2690 C   0  0  0  0  0  0
   21.8450   42.3610   38.5980 C   0  0  0  0  0  0
   20.7930   42.9380   59.9900 C   0  0  0  0  0  0
   22.5620   41.3860   60.5050 C   0  0  0  0  0  0
   21.7650   43.5400   40.7700 C   0  0  0  0  0  0
   21.3180   41.1370   40.6590 C   0  0  0  0  0  0
   21.6310   43.2120   64.2150 C   0  0  0  0  0  0
   21.3040   42.0260   36.2030 C   0  0  0  0  0  0
   20.9930   44.2990   64.7830 C   0  0  0  0  0  0
   21.6280   42.3910   34.8780 C   0  0  0  0  0  0
   21.8390   42.1190   59.5270 C   0  0  0  0  0  0
   21.4510   42.3210   41.4280 C   0  0  0  0  0  0
   24.8339   43.9101   65.0346 H   0  0  0  0  0  0
   18.5098   40.2095   35.4827 H   0  0  0  0  0  0
   23.6756   45.8222   66.0386 H   0  0  0  0  0  0
   19.1116   40.8682   33.1644 H   0  0  0  0  0  0
   23.4919   42.2024   63.8082 H   0  0  0  0  0  0
   19.8932   40.9288   37.3993 H   0  0  0  0  0  0
   21.2302   46.0938   65.9343 H   0  0  0  0  0  0
   21.1276   42.2751   32.7881 H   0  0  0  0  0  0
   19.6691   43.6630   61.6847 H   0  0  0  0  0  0
   22.7920   40.8995   62.5738 H   0  0  0  0  0  0
   22.2368   44.4511   38.8909 H   0  0  0  0  0  0
   21.4736   40.2402   38.7037 H   0  0  0  0  0  0
   20.1614   42.4618   50.2803 H   0  0  0  0  0  0
   21.4948   43.5590   50.7750 H   0  0  0  0  0  0
   20.6269   40.9149   51.9864 H   0  0  0  0  0  0
   22.4029   41.1444   51.8463 H   0  0  0  0  0  0
   23.0125   42.5967   49.3224 H   0  0  0  0  0  0
   22.2097   40.9901   49.3514 H   0  0  0  0  0  0
   22.4044   42.9942   53.3303 H   0  0  0  0  0  0
   20.6417   43.2793   53.1352 H   0  0  0  0  0  0
   20.4797   41.7860   47.8405 H   0  0  0  0  0  0
   21.1715   43.4434   47.8739 H   0  0  0  0  0  0
   20.0796   41.4491   54.5555 H   0  0  0  0  0  0
   21.7400   40.7678   54.4799 H   0  0  0  0  0  0
   23.1469   42.6974   46.6057 H   0  0  0  0  0  0
   22.5986   40.9885   46.6804 H   0  0  0  0  0  0
   22.6373   42.5916   55.8312 H   0  0  0  0  0  0
   21.1021   43.5165   55.7125 H   0  0  0  0  0  0
   20.7488   41.3848   45.1741 H   0  0  0  0  0  0
   20.7718   43.1578   45.4614 H   0  0  0  0  0  0
   20.1946   42.4729   57.5008 H   0  0  0  0  0  0
   20.8486   40.8638   57.0431 H   0  0  0  0  0  0
   22.4884   43.5065   43.9027 H   0  0  0  0  0  0
   22.9624   41.7741   43.8831 H   0  0  0  0  0  0
   20.1817   41.6415   63.9927 H   0  0  0  0  0  0
   23.0244   42.8985   36.8846 H   0  0  0  0  0  0
  1 36  1  0  0  0
  2 37  1  0  0  0
  3 36  2  0  0  0
  4 37  2  0  0  0
  5 40  1  0  0  0
  6 41  1  0  0  0
  7 42  1  0  0  0
  8 43  1  0  0  0
  9 11  2  0  0  0
  9 13  1  0  0  0
  9 50  1  0  0  0
 10 12  2  0  0  0
 10 14  1  0  0  0
 10 51  1  0  0  0
 11 15  1  0  0  0
 11 52  1  0  0  0
 12 16  1  0  0  0
 12 53  1  0  0  0
 13 44  2  0  0  0
 13 54  1  0  0  0
 14 45  2  0  0  0
 14 55  1  0  0  0
 15 46  2  0  0  0
 15 56  1  0  0  0
 16 47  2  0  0  0
 16 57  1  0  0  0
 17 38  2  0  0  0
 17 40  1  0  0  0
 17 58  1  0  0  0
 18 38  1  0  0  0
 18 41  2  0  0  0
 18 59  1  0  0  0
 19 39  2  0  0  0
 19 42  1  0  0  0
 19 60  1  0  0  0
 20 39  1  0  0  0
 20 43  2  0  0  0
 20 61  1  0  0  0
 21 22  1  0  0  0
 21 23  1  0  0  0
 21 62  1  0  0  0
 21 63  1  0  0  0
 22 24  1  0  0  0
 22 64  1  0  0  0
 22 65  1  0  0  0
 23 25  1  0  0  0
 23 66  1  0  0  0
 23 67  1  0  0  0
 24 26  1  0  0  0
 24 68  1  0  0  0
 24 69  1  0  0  0
 25 27  1  0  0  0
 25 70  1  0  0  0
 25 71  1  0  0  0
 26 28  1  0  0  0
 26 72  1  0  0  0
 26 73  1  0  0  0
 27 29  1  0  0  0
 27 74  1  0  0  0
 27 75  1  0  0  0
 28 30  1  0  0  0
 28 76  1  0  0  0
 28 77  1  0  0  0
 29 31  1  0  0  0
 29 78  1  0  0  0
 29 79  1  0  0  0
 30 34  1  0  0  0
 30 80  1  0  0  0
 30 81  1  0  0  0
 31 35  1  0  0  0
 31 82  1  0  0  0
 31 83  1  0  0  0
 32 38  1  0  0  0
 32 44  1  0  0  0
 32 84  1  0  0  0
 33 39  1  0  0  0
 33 45  1  0  0  0
 33 85  1  0  0  0
 34 48  1  0  0  0
 35 49  1  0  0  0
 36 46  1  0  0  0
 37 47  1  0  0  0
 40 48  2  0  0  0
 41 48  1  0  0  0
 42 49  2  0  0  0
 43 49  1  0  0  0
 44 46  1  0  0  0
 45 47  1  0  0  0
M  CHG  2   1  -1   2  -1
M  END
> <s_m_source_file>
../3ipb_ligand.sdf

> <i_m_source_file_index>
1

> <s_epik_input>
W09IXUMoPU8pYzFbY0hdW2NIXVtjSF1bY0hdYzFbTkhdYzJbY0hdYyhDbCljKGMoQ2wpW2NIXTIpT1tDSDJdW0NIMl1bQ0gyXVtDSDJdW0NIMl1bQ0gyXVtDSDJdW0NIMl1bQ0gyXVtDSDJdW0NIMl1PYyhjKENsKVtjSF0zKWMoQ2wpW2NIXWMzW05IXWM0W2NIXVtjSF1bY0hdW2NIXWM0Qyg9TylbT0hd

> <s_epik_cmdline>
J2VwaWtfYXBwJywgJy1pbWFlJywgJ2xpZ2FuZF9wcm8ubWFlJywgJy1vbWFlJywgJ2xpZ2FuZF9wcmVwLm1hZScsICctbXMnLCAnMScsICctcGgnLCAnNycsICctcGh0JywgJzAuNScsICctbnQn

> <r_lp_tautomer_probability>
1

> <r_epik_Ionization_Penalty>
  0.0027

> <r_epik_Ionization_Penalty_Charging>
  0.0026

> <r_epik_Ionization_Penalty_Neutral>
  0.0000

> <r_epik_State_Penalty>
 -0.0000

> <r_epik_Charging_Adjusted_Penalty>
0.00264689956408833

> <i_epik_Tot_Q>
-2

> <i_epik_Tot_abs_Q>
2

$$$$
