3ipe_ligand
                    3D
 Schrodinger Suite 2020-3.
 73 76  0  0  1  0            999 V2000
    2.0170    1.4070    4.0250 C   0  0  0  0  0  0
    1.0780   -0.4260    6.0100 N   0  0  0  0  0  0
    2.6260    1.7790    2.9930 O   0  5  0  0  0  0
    0.1480    2.8100    9.8060 Cl  0  0  0  0  0  0
    0.7810    0.5220    3.8630 C   0  0  0  0  0  0
   -0.6810   -0.1870   25.8760 N   0  0  0  0  0  0
    2.3430    1.7150    5.1920 O   0  0  0  0  0  0
   -0.5950   -2.5610   10.3160 Cl  0  0  0  0  0  0
    0.0580    0.6110    2.6860 C   0  0  0  0  0  0
   -0.5820    0.2940   11.1610 O   0  0  0  0  0  0
    0.2630   -2.6780   21.5040 Cl  0  0  0  0  0  0
   -1.0740   -0.1710    2.5060 C   0  0  0  0  0  0
    0.5170    0.1710   20.5510 O   0  0  0  0  0  0
    0.2090    2.7750   21.9260 Cl  0  0  0  0  0  0
   -1.4800   -1.0360    3.5090 C   0  0  0  0  0  0
   -1.2030    1.6910   29.3560 O   0  5  0  0  0  0
   -0.7640   -1.1260    4.6980 C   0  0  0  0  0  0
   -1.8360    1.2830   27.2700 O   0  0  0  0  0  0
    0.3630   -0.3320    4.8890 C   0  0  0  0  0  0
    0.6460   -0.2350    7.2590 C   0  0  0  0  0  0
    0.6190    1.0390    7.8050 C   0  0  0  0  0  0
    0.2020    1.2110    9.1210 C   0  0  0  0  0  0
    0.2940   -1.3330    8.0390 C   0  0  0  0  0  0
   -0.1320   -1.1760    9.3550 C   0  0  0  0  0  0
   -0.1610    0.1070    9.8890 C   0  0  0  0  0  0
    0.4220    0.2390   12.1720 C   0  0  0  0  0  0
   -0.3510   -0.0820   13.4540 C   0  0  0  0  0  0
    0.4790   -0.0070   14.7360 C   0  0  0  0  0  0
   -0.4060   -0.5170   15.8820 C   0  0  0  0  0  0
   -0.5200    0.4400   17.0600 C   0  0  0  0  0  0
    0.2590   -0.1090   18.2500 C   0  0  0  0  0  0
   -0.5100    0.0060   19.5690 C   0  0  0  0  0  0
    0.1980    0.0380   21.8620 C   0  0  0  0  0  0
    0.0730   -1.2230   22.4500 C   0  0  0  0  0  0
   -0.2350   -1.3090   23.8100 C   0  0  0  0  0  0
    0.0480    1.1930   22.6290 C   0  0  0  0  0  0
   -0.2480    1.0900   23.9790 C   0  0  0  0  0  0
   -0.3750   -0.1520   24.5780 C   0  0  0  0  0  0
    0.1670   -0.5450   26.8450 C   0  0  0  0  0  0
    1.1630   -1.4960   26.6560 C   0  0  0  0  0  0
    2.0030   -1.8490   27.7100 C   0  0  0  0  0  0
    1.8460   -1.2480   28.9550 C   0  0  0  0  0  0
    0.8450   -0.3020   29.1490 C   0  0  0  0  0  0
    0.0080    0.0440   28.0940 C   0  0  0  0  0  0
   -1.1000    1.0850   28.2640 C   0  0  0  0  0  0
    2.1456   -0.6864    5.9612 H   0  0  0  0  0  0
   -1.6913    0.0911   26.2106 H   0  0  0  0  0  0
    0.3780    1.2955    1.9004 H   0  0  0  0  0  0
   -1.6421   -0.1049    1.5781 H   0  0  0  0  0  0
   -2.3681   -1.6513    3.3652 H   0  0  0  0  0  0
   -1.0846   -1.8165    5.4781 H   0  0  0  0  0  0
    0.9221    1.8991    7.2079 H   0  0  0  0  0  0
    0.3530   -2.3339    7.6115 H   0  0  0  0  0  0
    1.1509   -0.5462   11.9225 H   0  0  0  0  0  0
    0.9353    1.2100   12.2323 H   0  0  0  0  0  0
   -1.1806    0.6309   13.5701 H   0  0  0  0  0  0
   -0.7519   -1.1046   13.3941 H   0  0  0  0  0  0
    1.3749   -0.6364   14.6301 H   0  0  0  0  0  0
    0.7821    1.0349   14.9161 H   0  0  0  0  0  0
   -1.4261   -0.6898   15.5085 H   0  0  0  0  0  0
    0.0062   -1.4593   16.2722 H   0  0  0  0  0  0
   -0.1084    1.4201   16.7773 H   0  0  0  0  0  0
   -1.5779    0.5533   17.3393 H   0  0  0  0  0  0
    0.4813   -1.1733   18.0832 H   0  0  0  0  0  0
    1.2004    0.4491   18.3610 H   0  0  0  0  0  0
   -1.0891   -0.9020   19.7931 H   0  0  0  0  0  0
   -1.1776    0.8801   19.5861 H   0  0  0  0  0  0
   -0.3669   -2.2863   24.2744 H   0  0  0  0  0  0
   -0.3819    1.9935   24.5738 H   0  0  0  0  0  0
    1.2872   -1.9667   25.6808 H   0  0  0  0  0  0
    2.7827   -2.5956   27.5593 H   0  0  0  0  0  0
    2.5073   -1.5185   29.7782 H   0  0  0  0  0  0
    0.7171    0.1666   30.1248 H   0  0  0  0  0  0
  1  3  1  0  0  0
  1  5  1  0  0  0
  1  7  2  0  0  0
  2 19  1  0  0  0
  2 20  1  0  0  0
  2 46  1  0  0  0
  4 22  1  0  0  0
  5  9  2  0  0  0
  5 19  1  0  0  0
  6 38  1  0  0  0
  6 39  1  0  0  0
  6 47  1  0  0  0
  8 24  1  0  0  0
  9 12  1  0  0  0
  9 48  1  0  0  0
 10 25  1  0  0  0
 10 26  1  0  0  0
 11 34  1  0  0  0
 12 15  2  0  0  0
 12 49  1  0  0  0
 13 32  1  0  0  0
 13 33  1  0  0  0
 14 36  1  0  0  0
 15 17  1  0  0  0
 15 50  1  0  0  0
 16 45  1  0  0  0
 17 19  2  0  0  0
 17 51  1  0  0  0
 18 45  2  0  0  0
 20 21  2  0  0  0
 20 23  1  0  0  0
 21 22  1  0  0  0
 21 52  1  0  0  0
 22 25  2  0  0  0
 23 24  2  0  0  0
 23 53  1  0  0  0
 24 25  1  0  0  0
 26 27  1  0  0  0
 26 54  1  0  0  0
 26 55  1  0  0  0
 27 28  1  0  0  0
 27 56  1  0  0  0
 27 57  1  0  0  0
 28 29  1  0  0  0
 28 58  1  0  0  0
 28 59  1  0  0  0
 29 30  1  0  0  0
 29 60  1  0  0  0
 29 61  1  0  0  0
 30 31  1  0  0  0
 30 62  1  0  0  0
 30 63  1  0  0  0
 31 32  1  0  0  0
 31 64  1  0  0  0
 31 65  1  0  0  0
 32 66  1  0  0  0
 32 67  1  0  0  0
 33 34  2  0  0  0
 33 36  1  0  0  0
 34 35  1  0  0  0
 35 38  2  0  0  0
 35 68  1  0  0  0
 36 37  2  0  0  0
 37 38  1  0  0  0
 37 69  1  0  0  0
 39 40  2  0  0  0
 39 44  1  0  0  0
 40 41  1  0  0  0
 40 70  1  0  0  0
 41 42  2  0  0  0
 41 71  1  0  0  0
 42 43  1  0  0  0
 42 72  1  0  0  0
 43 44  2  0  0  0
 43 73  1  0  0  0
 44 45  1  0  0  0
M  CHG  2   3  -1  16  -1
M  END
> <s_m_source_file>
../3ipe_ligand.sdf

> <i_m_source_file_index>
1

> <s_epik_input>
W09IXUMoPU8pYzFbY0hdW2NIXVtjSF1bY0hdYzFbTkhdYzJbY0hdYyhDbCljKGMoQ2wpW2NIXTIpT1tDSDJdW0NIMl1bQ0gyXVtDSDJdW0NIMl1bQ0gyXVtDSDJdT2MzYyhDbClbY0hdYyhbY0hdYzNDbClbTkhdYzRbY0hdW2NIXVtjSF1bY0hdYzRDKD1PKVtPSF0=

> <s_epik_cmdline>
J2VwaWtfYXBwJywgJy1pbWFlJywgJ2xpZ2FuZF9wcm8ubWFlJywgJy1vbWFlJywgJ2xpZ2FuZF9wcmVwLm1hZScsICctbXMnLCAnMScsICctcGgnLCAnNycsICctcGh0JywgJzAuNScsICctbnQn

> <r_lp_tautomer_probability>
1

> <r_epik_Ionization_Penalty>
  0.0027

> <r_epik_Ionization_Penalty_Charging>
  0.0026

> <r_epik_Ionization_Penalty_Neutral>
  0.0000

> <r_epik_State_Penalty>
 -0.0000

> <r_epik_Charging_Adjusted_Penalty>
0.00264689956408833

> <i_epik_Tot_Q>
-2

> <i_epik_Tot_abs_Q>
2

$$$$
