3ipu_ligand
                    3D
 Schrodinger Suite 2020-3.
 57 59  0  0  1  0            999 V2000
   23.8860  -14.6880   19.1500 C   0  0  0  0  0  0
   23.4700  -16.0320   19.1380 C   0  0  0  0  0  0
   24.3600  -17.0880   19.4400 C   0  0  0  0  0  0
   25.6740  -16.7310   19.7580 C   0  0  0  0  0  0
   26.0380  -15.4030   19.7630 C   0  0  0  0  0  0
   25.1920  -14.3500   19.4710 C   0  0  0  0  0  0
   26.7150  -17.5990   20.0950 O   0  0  0  0  0  0
   27.8470  -16.7440   20.3400 N   0  0  0  0  0  0
   27.4660  -15.5330   20.1340 C   0  0  0  0  0  0
   14.3690  -15.5880   17.6990 C   0  0  0  0  0  0
   22.1560  -16.3500   18.8150 O   0  0  0  0  0  0
   23.9350  -18.5610   19.4280 C   0  0  0  0  0  0
   13.1170  -15.0330   17.4190 C   0  0  0  0  0  0
   28.2910  -14.2950   20.3050 C   0  0  0  0  0  0
   21.2410  -15.3580   18.3200 C   0  0  0  0  0  0
   11.9490  -15.6160   17.9250 C   0  0  0  0  0  0
   24.2480  -19.2300   18.0580 C   0  0  0  0  0  0
   12.0510  -16.7680   18.7100 C   0  0  0  0  0  0
   13.2990  -17.3110   18.9960 C   0  0  0  0  0  0
   23.4550  -18.6030   16.8840 C   0  0  0  0  0  0
   18.0380  -17.3630   19.1660 N   0  0  0  0  0  0
   18.0530  -18.8260   19.2410 C   0  0  0  0  0  0
   16.8560  -16.6980   18.9410 C   0  0  0  0  0  0
   15.7010  -17.3060   18.7770 N   0  0  0  0  0  0
   19.9160  -16.1040   18.0520 C   0  0  0  0  0  0
   19.3000  -16.6170   19.3780 C   0  0  0  0  0  0
   10.5570  -13.8300   16.9650 O   0  5  0  0  0  0
   10.5940  -15.0140   17.6070 C   0  0  0  0  0  0
   16.8760  -15.4860   18.8830 O   0  0  0  0  0  0
    9.5680  -15.6210   17.9250 O   0  0  0  0  0  0
   29.5530  -14.6820   20.6920 F   0  0  0  0  0  0
   27.6560  -13.6020   21.2920 F   0  0  0  0  0  0
   28.3060  -13.4750   19.2090 F   0  0  0  0  0  0
   14.4840  -16.7380   18.4990 C   0  0  0  0  0  0
   23.1722  -13.9019   18.9037 H   0  0  0  0  0  0
   25.5314  -13.3144   19.4918 H   0  0  0  0  0  0
   15.2671  -15.1233   17.2920 H   0  0  0  0  0  0
   24.4775  -19.1056   20.2149 H   0  0  0  0  0  0
   22.8529  -18.6319   19.6124 H   0  0  0  0  0  0
   13.0494  -14.1378   16.8008 H   0  0  0  0  0  0
   21.1095  -14.5705   19.0766 H   0  0  0  0  0  0
   21.6437  -14.9159   17.3968 H   0  0  0  0  0  0
   25.3194  -19.1218   17.8334 H   0  0  0  0  0  0
   23.9890  -20.2981   18.1038 H   0  0  0  0  0  0
   11.1499  -17.2421   19.0991 H   0  0  0  0  0  0
   13.3606  -18.2023   19.6204 H   0  0  0  0  0  0
   23.7188  -19.1166   15.9477 H   0  0  0  0  0  0
   23.7068  -17.5355   16.8002 H   0  0  0  0  0  0
   22.3764  -18.7118   17.0706 H   0  0  0  0  0  0
   17.0392  -19.2128   19.0602 H   0  0  0  0  0  0
   18.3920  -19.1385   20.2397 H   0  0  0  0  0  0
   18.7390  -19.2252   18.4794 H   0  0  0  0  0  0
   15.6391  -18.4011   18.8607 H   0  0  0  0  0  0
   19.2020  -15.4210   17.5686 H   0  0  0  0  0  0
   20.1059  -16.9632   17.3919 H   0  0  0  0  0  0
   19.1073  -15.7457   20.0212 H   0  0  0  0  0  0
   20.0375  -17.2741   19.8621 H   0  0  0  0  0  0
  1  2  1  0  0  0
  1  6  2  0  0  0
  1 35  1  0  0  0
  2  3  2  0  0  0
  2 11  1  0  0  0
  3  4  1  0  0  0
  3 12  1  0  0  0
  4  5  2  0  0  0
  4  7  1  0  0  0
  5  6  1  0  0  0
  5  9  1  0  0  0
  6 36  1  0  0  0
  7  8  1  0  0  0
  8  9  2  0  0  0
  9 14  1  0  0  0
 10 13  2  0  0  0
 10 34  1  0  0  0
 10 37  1  0  0  0
 11 15  1  0  0  0
 12 17  1  0  0  0
 12 38  1  0  0  0
 12 39  1  0  0  0
 13 16  1  0  0  0
 13 40  1  0  0  0
 14 31  1  0  0  0
 14 32  1  0  0  0
 14 33  1  0  0  0
 15 25  1  0  0  0
 15 41  1  0  0  0
 15 42  1  0  0  0
 16 18  2  0  0  0
 16 28  1  0  0  0
 17 20  1  0  0  0
 17 43  1  0  0  0
 17 44  1  0  0  0
 18 19  1  0  0  0
 18 45  1  0  0  0
 19 34  2  0  0  0
 19 46  1  0  0  0
 20 47  1  0  0  0
 20 48  1  0  0  0
 20 49  1  0  0  0
 21 22  1  0  0  0
 21 23  1  0  0  0
 21 26  1  0  0  0
 22 50  1  0  0  0
 22 51  1  0  0  0
 22 52  1  0  0  0
 23 24  1  0  0  0
 23 29  2  0  0  0
 24 34  1  0  0  0
 24 53  1  0  0  0
 25 26  1  0  0  0
 25 54  1  0  0  0
 25 55  1  0  0  0
 26 56  1  0  0  0
 26 57  1  0  0  0
 27 28  1  0  0  0
 28 30  2  0  0  0
M  CHG  1  27  -1
M  END
> <s_m_source_file>
../3ipu_ligand.sdf

> <i_m_source_file_index>
1

> <s_epik_input>
bzFuYyhDKEYpKEYpRiljKGMxMilbY0hdW2NIXWMoYzJbQ0gyXVtDSDJdW0NIM10pT1tDSDJdW0NIMl1bQ0gyXU4oW0NIM10pQyg9TylbTkhdYyhbY0hdW2NIXTMpW2NIXVtjSF1jM0MoPU8pW09IXQ==

> <s_epik_cmdline>
J2VwaWtfYXBwJywgJy1pbWFlJywgJ2xpZ2FuZF9wcm8ubWFlJywgJy1vbWFlJywgJ2xpZ2FuZF9wcmVwLm1hZScsICctbXMnLCAnMScsICctcGgnLCAnNycsICctcGh0JywgJzAuNScsICctbnQn

> <r_lp_tautomer_probability>
1

> <r_epik_Ionization_Penalty>
  0.0016

> <r_epik_Ionization_Penalty_Charging>
  0.0016

> <r_epik_Ionization_Penalty_Neutral>
  0.0000

> <r_epik_State_Penalty>
 -0.0000

> <r_epik_Charging_Adjusted_Penalty>
0.00156153228052954

> <i_epik_Tot_Q>
-1

> <i_epik_Tot_abs_Q>
1

$$$$
