3ipx_ligand
                    3D
 Schrodinger Suite 2020-3.
 29 30  0  0  1  0            999 V2000
   24.9410   -6.7820   18.0740 C   0  0  0  0  0  0
   25.7120   -7.8870   18.1210 N   0  0  0  0  0  0
   26.9810   -7.7890   18.5860 C   0  0  0  0  0  0
   27.5320   -6.5490   19.0100 N   0  0  0  0  0  0
   26.8040   -5.4330   18.9670 C   0  0  0  0  0  0
   25.5070   -5.4960   18.5070 C   0  0  0  0  0  0
   23.6690   -6.8080   17.6300 N   0  0  0  0  0  0
   24.7320   -4.4080   18.4250 F   0  0  0  0  0  0
   27.6640   -8.8220   18.6210 O   0  0  0  0  0  0
   28.8970   -6.4970   19.5480 C   0  0  2  0  0  0
   28.8070   -5.8660   20.8320 O   0  0  0  0  0  0
   29.9810   -5.1060   21.1120 C   0  0  1  0  0  0
   30.8460   -5.2060   19.8920 C   0  0  1  0  0  0
   31.8340   -6.1960   20.2080 O   0  0  0  0  0  0
   29.9290   -5.6840   18.7860 C   0  0  0  0  0  0
   29.6120   -3.6630   21.3680 C   0  0  0  0  0  0
   28.9010   -3.1620   20.2420 O   0  0  0  0  0  0
   27.2293   -4.4833   19.2915 H   0  0  0  0  0  0
   23.2209   -7.7569   17.3000 H   0  0  0  0  0  0
   29.2168   -7.5494   19.5601 H   0  0  0  0  0  0
   30.4678   -5.5246   22.0052 H   0  0  0  0  0  0
   31.3788   -4.2880   19.6034 H   0  0  0  0  0  0
   32.5779   -5.9993   20.9941 H   0  0  0  0  0  0
   30.4390   -6.3302   18.0564 H   0  0  0  0  0  0
   29.4287   -4.8587   18.2581 H   0  0  0  0  0  0
   28.9790   -3.6001   22.2654 H   0  0  0  0  0  0
   30.5270   -3.0724   21.5227 H   0  0  0  0  0  0
   28.5434   -2.1218   20.2357 H   0  0  0  0  0  0
   23.0787   -5.8804   17.5976 H   0  0  0  0  0  0
  1  2  2  0  0  0
  1  6  1  0  0  0
  1  7  1  0  0  0
  2  3  1  0  0  0
  3  4  1  0  0  0
  3  9  2  0  0  0
  4  5  1  0  0  0
  4 10  1  0  0  0
  5  6  2  0  0  0
  5 18  1  0  0  0
  6  8  1  0  0  0
  7 19  1  0  0  0
  7 29  1  0  0  0
 10 11  1  0  0  0
 10 15  1  0  0  0
 10 20  1  0  0  0
 11 12  1  0  0  0
 12 13  1  0  0  0
 12 16  1  0  0  0
 12 21  1  0  0  0
 13 14  1  0  0  0
 13 15  1  0  0  0
 13 22  1  0  0  0
 14 23  1  0  0  0
 15 24  1  0  0  0
 15 25  1  0  0  0
 16 17  1  0  0  0
 16 26  1  0  0  0
 16 27  1  0  0  0
 17 28  1  0  0  0
M  END
> <s_m_source_file>
../3ipx_ligand.sdf

> <i_m_source_file_index>
1

> <s_epik_input>
W0hdXE49YzFcW25IXWMoPU8pbihbY0hdYzFGKVtDQEBIXTJPW0NAQEhdKFtDQEBIXShbT0hdKVtDSDJdMilbQ0gyXVtPSF0=

> <s_epik_cmdline>
J2VwaWtfYXBwJywgJy1pbWFlJywgJ2xpZ2FuZF9wcm8ubWFlJywgJy1vbWFlJywgJ2xpZ2FuZF9wcmVwLm1hZScsICctbXMnLCAnMScsICctcGgnLCAnNycsICctcGh0JywgJzAuNScsICctbnQn

> <r_lp_tautomer_probability>
1

> <r_epik_Ionization_Penalty>
  0.0001

> <r_epik_Ionization_Penalty_Charging>
  0.0000

> <r_epik_Ionization_Penalty_Neutral>
  0.0001

> <r_epik_State_Penalty>
 -0.0000

> <r_epik_Charging_Adjusted_Penalty>
3.31788095700266e-08

> <i_epik_Tot_Q>
0

> <i_epik_Tot_abs_Q>
0

> <s_epik_Chemistry_Notes>
This compound contains an acetal/aminal-like group ( X-CH(R)-Y where X, Y are N, S, or O) that may be acid/base labile, releasing an aldehyde.

$$$$
