3ipy_ligand
                    3D
 Schrodinger Suite 2020-3.
 50 54  0  0  1  0            999 V2000
   10.1190    3.8720   17.3080 C   0  0  0  0  0  0
   10.3260    5.3080   16.8470 C   0  0  0  0  0  0
   11.5540    5.7350   17.5230 N   0  0  0  0  0  0
   12.1180    4.7540   18.4460 C   0  0  0  0  0  0
   11.1390    3.5890   18.4060 C   0  0  0  0  0  0
   12.1220    6.9230   17.3350 C   0  0  0  0  0  0
   13.1290    7.2600   17.9420 O   0  0  0  0  0  0
   11.4730    7.8680   16.3420 C   0  0  0  0  0  0
   12.2000    9.1250   16.2570 N   0  0  0  0  0  0
   13.5050    9.1550   15.5920 C   0  0  0  0  0  0
   13.7030   10.5580   15.0310 C   0  0  0  0  0  0
   13.6910   11.4560   16.1700 N   0  0  0  0  0  0
   12.6450   11.3830   17.1790 C   0  0  0  0  0  0
   11.5870   10.3240   16.8310 C   0  0  0  0  0  0
   14.6950   12.4240   16.2990 C   0  0  0  0  0  0
   15.9060   12.2980   15.6160 C   0  0  0  0  0  0
   16.8790   13.2890   15.7710 C   0  0  0  0  0  0
   16.6160   14.3460   16.5760 N   0  0  0  0  0  0
   15.4440   14.4550   17.2180 C   0  0  0  0  0  0
   14.4920   13.5140   17.0890 N   0  0  0  0  0  0
   18.1980   13.2040   15.0500 C   0  0  0  0  0  0
   19.2780   14.5330   15.4040 S   0  0  0  0  0  0
   20.5110   14.0070   14.4080 C   0  0  0  0  0  0
   20.0910   12.7540   13.7590 C   0  0  0  0  0  0
   18.7620   12.3010   14.1310 C   0  0  0  0  0  0
   21.7440   14.6140   14.1900 C   0  0  0  0  0  0
   22.6180   13.9780   13.3020 C   0  0  0  0  0  0
   22.2500   12.7800   12.6690 C   0  0  0  0  0  0
   21.0030   12.1680   12.8850 C   0  0  0  0  0  0
    9.3765    3.1729   16.9232 H   0  0  0  0  0  0
    9.7016    5.8878   16.1673 H   0  0  0  0  0  0
   13.0336    4.8372   19.0316 H   0  0  0  0  0  0
   11.1628    2.7086   19.0482 H   0  0  0  0  0  0
   11.4618    7.4019   15.3457 H   0  0  0  0  0  0
   10.4413    8.0809   16.6588 H   0  0  0  0  0  0
   14.2937    8.9185   16.3214 H   0  0  0  0  0  0
   13.5206    8.4118   14.7812 H   0  0  0  0  0  0
   14.6643   10.6077   14.4986 H   0  0  0  0  0  0
   12.8852   10.7929   14.3338 H   0  0  0  0  0  0
   13.0899   11.1197   18.1499 H   0  0  0  0  0  0
   12.1431   12.3586   17.2582 H   0  0  0  0  0  0
   10.8832   10.7589   16.1060 H   0  0  0  0  0  0
   11.0466   10.0552   17.7506 H   0  0  0  0  0  0
   16.0900   11.4388   14.9710 H   0  0  0  0  0  0
   15.2599   15.3203   17.8548 H   0  0  0  0  0  0
   18.2766   11.4001   13.7558 H   0  0  0  0  0  0
   22.0168   15.5439   14.6891 H   0  0  0  0  0  0
   23.5949   14.4171   13.0994 H   0  0  0  0  0  0
   22.9561   12.3078   11.9860 H   0  0  0  0  0  0
   20.7515   11.2401   12.3713 H   0  0  0  0  0  0
  1  2  2  0  0  0
  1  5  1  0  0  0
  1 30  1  0  0  0
  2  3  1  0  0  0
  2 31  1  0  0  0
  3  4  1  0  0  0
  3  6  1  0  0  0
  4  5  2  0  0  0
  4 32  1  0  0  0
  5 33  1  0  0  0
  6  7  2  0  0  0
  6  8  1  0  0  0
  8  9  1  0  0  0
  8 34  1  0  0  0
  8 35  1  0  0  0
  9 10  1  0  0  0
  9 14  1  0  0  0
 10 11  1  0  0  0
 10 36  1  0  0  0
 10 37  1  0  0  0
 11 12  1  0  0  0
 11 38  1  0  0  0
 11 39  1  0  0  0
 12 13  1  0  0  0
 12 15  1  0  0  0
 13 14  1  0  0  0
 13 40  1  0  0  0
 13 41  1  0  0  0
 14 42  1  0  0  0
 14 43  1  0  0  0
 15 16  2  0  0  0
 15 20  1  0  0  0
 16 17  1  0  0  0
 16 44  1  0  0  0
 17 18  2  0  0  0
 17 21  1  0  0  0
 18 19  1  0  0  0
 19 20  2  0  0  0
 19 45  1  0  0  0
 21 22  1  0  0  0
 21 25  2  0  0  0
 22 23  1  0  0  0
 23 24  2  0  0  0
 23 26  1  0  0  0
 24 25  1  0  0  0
 24 29  1  0  0  0
 25 46  1  0  0  0
 26 27  2  0  0  0
 26 47  1  0  0  0
 27 28  1  0  0  0
 27 48  1  0  0  0
 28 29  2  0  0  0
 28 49  1  0  0  0
 29 50  1  0  0  0
M  END
> <s_m_source_file>
../3ipy_ligand.sdf

> <i_m_source_file_index>
1

> <s_epik_input>
W2NIXTFbY0hdW2NIXVtjSF1uMUMoPU8pW0NIMl1bTkgrXTJbQ0gyXVtDSDJdTihbQ0gyXVtDSDJdMiljM1tjSF1jKG5bY0hdbjMpLWMoczQpW2NIXWMoYzQ1KVtjSF1bY0hdW2NIXVtjSF01

> <s_epik_cmdline>
J2VwaWtfYXBwJywgJy1pbWFlJywgJ2xpZ2FuZF9wcm8ubWFlJywgJy1vbWFlJywgJ2xpZ2FuZF9wcmVwLm1hZScsICctbXMnLCAnMScsICctcGgnLCAnNycsICctcGh0JywgJzAuNScsICctbnQn

> <r_lp_tautomer_probability>
1

> <r_epik_Ionization_Penalty>
  0.0446

> <r_epik_Ionization_Penalty_Charging>
  0.0000

> <r_epik_Ionization_Penalty_Neutral>
  0.0446

> <r_epik_State_Penalty>
  0.0362

> <r_epik_Charging_Adjusted_Penalty>
0.0361668828300159

> <i_epik_Tot_Q>
0

> <i_epik_Tot_abs_Q>
0

$$$$
