3iqg_ligand
                    3D
 Schrodinger Suite 2020-3.
 74 75  0  0  1  0            999 V2000
   20.1290    3.6680   44.6890 N   0  3  0  0  0  0
   20.2480    4.4650   43.4260 C   0  0  2  0  0  0
   20.6970    3.5960   42.2510 C   0  0  0  0  0  0
   20.5100    3.9700   41.0880 O   0  0  0  0  0  0
   21.1770    5.6770   43.6070 C   0  0  0  0  0  0
   22.4540    5.3390   44.3740 C   0  0  0  0  0  0
   22.4830    4.4120   45.1930 O   0  0  0  0  0  0
   23.5150    6.1050   44.1250 N   0  0  0  0  0  0
   21.2790    2.4390   42.5680 N   0  0  0  0  0  0
   21.6280    1.4290   41.5620 C   0  0  2  0  0  0
   20.4930    0.4130   41.3700 C   0  0  0  0  0  0
   20.5750   -0.4630   40.5000 O   0  0  0  0  0  0
   22.9220    0.6900   41.9400 C   0  0  0  0  0  0
   24.1360    1.5680   42.1060 C   0  0  0  0  0  0
   24.2570    2.8920   41.7640 C   0  0  0  0  0  0
   25.4190    1.1680   42.6240 C   0  0  0  0  0  0
   25.5250    3.3400   42.0540 N   0  3  0  0  0  0
   26.2630    2.3060   42.5740 C   0  0  0  0  0  0
   25.9340   -0.0390   43.1290 C   0  0  0  0  0  0
   27.6010    2.2730   43.0090 C   0  0  0  0  0  0
   27.2640   -0.0720   43.5630 C   0  0  0  0  0  0
   28.0800    1.0840   43.5000 C   0  0  0  0  0  0
   19.4490    0.5150   42.1930 N   0  0  0  0  0  0
   18.2720   -0.3360   42.0150 C   0  0  2  0  0  0
   17.3950    0.2290   40.8910 C   0  0  0  0  0  0
   16.4160    0.9510   41.1180 O   0  0  0  0  0  0
   17.5010   -0.5310   43.3180 C   0  0  0  0  0  0
   16.6470   -1.7940   43.3100 C   0  0  0  0  0  0
   16.9960   -2.8090   42.6800 O   0  0  0  0  0  0
   15.5160   -1.7370   44.0060 N   0  0  0  0  0  0
   17.7980   -0.0880   39.6650 N   0  0  0  0  0  0
   17.1540    0.4080   38.4580 C   0  0  2  0  0  0
   16.4540   -0.7850   37.7910 C   0  0  0  0  0  0
   16.8610   -1.9300   37.9780 O   0  0  0  0  0  0
   18.2000    1.1310   37.5540 C   0  0  2  0  0  0
   18.3330    2.6010   38.0010 C   0  0  0  0  0  0
   17.8410    1.0360   36.0890 C   0  0  0  0  0  0
   19.5350    3.3640   37.4130 C   0  0  0  0  0  0
   15.4410   -0.6400   37.1060 O   0  5  0  0  0  0
   19.4587    2.8122   44.5207 H   0  0  0  0  0  0
   19.7182    4.3043   45.4867 H   0  0  0  0  0  0
   21.1228    3.3023   44.9868 H   0  0  0  0  0  0
   19.2335    4.8308   43.2092 H   0  0  0  0  0  0
   21.4717    6.0637   42.6203 H   0  0  0  0  0  0
   20.6490    6.4635   44.1662 H   0  0  0  0  0  0
   23.4450    6.9189   43.3884 H   0  0  0  0  0  0
   24.4611    5.9236   44.6560 H   0  0  0  0  0  0
   21.4969    2.2553   43.6304 H   0  0  0  0  0  0
   21.7753    2.0067   40.6376 H   0  0  0  0  0  0
   22.7795    0.1676   42.8975 H   0  0  0  0  0  0
   23.1688   -0.0415   41.1564 H   0  0  0  0  0  0
   23.4015    3.4275   41.3266 H   0  0  0  0  0  0
   25.3098   -0.9311   43.1814 H   0  0  0  0  0  0
   28.2337    3.1591   42.9579 H   0  0  0  0  0  0
   27.6780   -1.0009   43.9553 H   0  0  0  0  0  0
   29.1111    1.0282   43.8491 H   0  0  0  0  0  0
   19.4787    1.2483   43.0124 H   0  0  0  0  0  0
   18.6539   -1.3261   41.7255 H   0  0  0  0  0  0
   18.2100   -0.6078   44.1555 H   0  0  0  0  0  0
   16.8329    0.3276   43.4808 H   0  0  0  0  0  0
   15.2491   -0.8174   44.5474 H   0  0  0  0  0  0
   14.8469   -2.6094   44.0405 H   0  0  0  0  0  0
   18.6647   -0.7612   39.5891 H   0  0  0  0  0  0
   16.3926    1.1509   38.7379 H   0  0  0  0  0  0
   19.1758    0.6308   37.6415 H   0  0  0  0  0  0
   17.4335    3.1584   37.7007 H   0  0  0  0  0  0
   18.4424    2.6432   39.0947 H   0  0  0  0  0  0
   17.7535   -0.0220   35.8008 H   0  0  0  0  0  0
   18.6266    1.5162   35.4871 H   0  0  0  0  0  0
   16.8817    1.5446   35.9129 H   0  0  0  0  0  0
   19.5360    4.3960   37.7937 H   0  0  0  0  0  0
   19.4592    3.3780   36.3157 H   0  0  0  0  0  0
   20.4681    2.8628   37.7097 H   0  0  0  0  0  0
   25.7964    4.3878   41.8579 H   0  0  0  0  0  0
  1  2  1  0  0  0
  1 40  1  0  0  0
  1 41  1  0  0  0
  1 42  1  0  0  0
  2  3  1  0  0  0
  2  5  1  0  0  0
  2 43  1  0  0  0
  3  4  2  0  0  0
  3  9  1  0  0  0
  5  6  1  0  0  0
  5 44  1  0  0  0
  5 45  1  0  0  0
  6  7  2  0  0  0
  6  8  1  0  0  0
  8 46  1  0  0  0
  8 47  1  0  0  0
  9 10  1  0  0  0
  9 48  1  0  0  0
 10 11  1  0  0  0
 10 13  1  0  0  0
 10 49  1  0  0  0
 11 12  2  0  0  0
 11 23  1  0  0  0
 13 14  1  0  0  0
 13 50  1  0  0  0
 13 51  1  0  0  0
 14 15  2  0  0  0
 14 16  1  0  0  0
 15 17  1  0  0  0
 15 52  1  0  0  0
 16 18  2  0  0  0
 16 19  1  0  0  0
 17 18  1  0  0  0
 17 74  1  0  0  0
 18 20  1  0  0  0
 19 21  2  0  0  0
 19 53  1  0  0  0
 20 22  2  0  0  0
 20 54  1  0  0  0
 21 22  1  0  0  0
 21 55  1  0  0  0
 22 56  1  0  0  0
 23 24  1  0  0  0
 23 57  1  0  0  0
 24 25  1  0  0  0
 24 27  1  0  0  0
 24 58  1  0  0  0
 25 26  2  0  0  0
 25 31  1  0  0  0
 27 28  1  0  0  0
 27 59  1  0  0  0
 27 60  1  0  0  0
 28 29  2  0  0  0
 28 30  1  0  0  0
 30 61  1  0  0  0
 30 62  1  0  0  0
 31 32  1  0  0  0
 31 63  1  0  0  0
 32 33  1  0  0  0
 32 35  1  0  0  0
 32 64  1  0  0  0
 33 34  2  0  0  0
 33 39  1  0  0  0
 35 36  1  0  0  0
 35 37  1  0  0  0
 35 65  1  0  0  0
 36 38  1  0  0  0
 36 66  1  0  0  0
 36 67  1  0  0  0
 37 68  1  0  0  0
 37 69  1  0  0  0
 37 70  1  0  0  0
 38 71  1  0  0  0
 38 72  1  0  0  0
 38 73  1  0  0  0
M  CHG  3   1   1  17   1  39  -1
M  END
> <s_m_source_file>
../3iqg_ligand.sdf

> <i_m_source_file_index>
1

> <s_epik_input>
W0NIM11bQ0gyXVtDQEhdKFtDSDNdKVtDQEBIXShDKD1PKVtPSF0pW05IXUMoPU8pW0NASF0oW0NIMl1DKD1PKVtOSDJdKVtOSF1DKD1PKVtDQEBIXShbTkhdQyg9TylbQ0BASF0oW05IMytdKVtDSDJdQyg9TylbTkgyXSlbQ0gyXWMxW2NIXVtuSF1jKGMxMilbY0hdW2NIXVtjSF1bY0hdMg==

> <s_epik_cmdline>
J2VwaWtfYXBwJywgJy1pbWFlJywgJ2xpZ2FuZF9wcm8ubWFlJywgJy1vbWFlJywgJ2xpZ2FuZF9wcmVwLm1hZScsICctbXMnLCAnMScsICctcGgnLCAnNycsICctcGh0JywgJzAuNScsICctbnQn

> <r_epik_Ionization_Penalty>
  0.2163

> <r_epik_Ionization_Penalty_Charging>
  0.2162

> <r_epik_Ionization_Penalty_Neutral>
  0.0000

> <r_epik_State_Penalty>
  0.2063

> <r_epik_Charging_Adjusted_Penalty>
0.422520458147539

> <i_epik_Tot_Q>
1

> <i_epik_Tot_abs_Q>
3

$$$$
