3iqh_ligand
                    3D
 Schrodinger Suite 2020-3.
 55 55  0  0  1  0            999 V2000
   20.2970    3.5360   44.1210 N   0  3  0  0  0  0
   19.4670    3.8070   42.9050 C   0  0  2  0  0  0
   18.4550    2.6850   42.6430 C   0  0  0  0  0  0
   18.6630    1.5370   43.0550 O   0  0  0  0  0  0
   20.3460    4.0420   41.6630 C   0  0  0  0  0  0
   21.3870    2.9590   41.4110 C   0  0  0  0  0  0
   21.0550    1.7850   40.7180 C   0  0  0  0  0  0
   22.7030    3.1060   41.8740 C   0  0  0  0  0  0
   22.0060    0.7920   40.4910 C   0  0  0  0  0  0
   23.6620    2.1130   41.6580 C   0  0  0  0  0  0
   23.3020    0.9620   40.9700 C   0  0  0  0  0  0
   24.2390   -0.0150   40.7480 O   0  0  0  0  0  0
   17.3650    3.0320   41.9510 N   0  0  0  0  0  0
   16.2510    2.1160   41.6940 C   0  0  2  0  0  0
   16.1090    1.8090   40.1970 C   0  0  0  0  0  0
   15.1830    2.3040   39.5500 O   0  0  0  0  0  0
   14.9300    2.6980   42.2520 C   0  0  0  0  0  0
   14.9950    3.0120   43.7620 C   0  0  0  0  0  0
   15.8830    3.7790   44.2040 O   0  5  0  0  0  0
   14.1310    2.5070   44.5090 O   0  0  0  0  0  0
   17.0040    0.9870   39.6510 N   0  0  0  0  0  0
   17.0230    0.7600   38.1940 C   0  0  2  0  0  0
   16.7090   -0.6810   37.7510 C   0  0  0  0  0  0
   17.4310   -1.6500   38.0150 O   0  5  0  0  0  0
   18.3100    1.3370   37.5140 C   0  0  2  0  0  0
   18.4460    2.8430   37.8420 C   0  0  0  0  0  0
   18.2650    1.1100   36.0000 C   0  0  0  0  0  0
   19.7770    3.5150   37.4440 C   0  0  0  0  0  0
   15.6870   -0.8870   37.0990 O   0  0  0  0  0  0
   19.6375    3.3734   44.9863 H   0  0  0  0  0  0
   20.9529    4.3971   44.3166 H   0  0  0  0  0  0
   20.9104    2.6384   43.9537 H   0  0  0  0  0  0
   18.9122    4.7288   43.1342 H   0  0  0  0  0  0
   19.7097    4.0883   40.7669 H   0  0  0  0  0  0
   20.8920    4.9904   41.7743 H   0  0  0  0  0  0
   20.0377    1.6476   40.3516 H   0  0  0  0  0  0
   22.9826    4.0116   42.4122 H   0  0  0  0  0  0
   21.7372   -0.1108   39.9426 H   0  0  0  0  0  0
   24.6804    2.2404   42.0252 H   0  0  0  0  0  0
   23.9615   -0.9297   40.2037 H   0  0  0  0  0  0
   17.3296    4.0623   41.5674 H   0  0  0  0  0  0
   16.5221    1.1909   42.2238 H   0  0  0  0  0  0
   14.6917    3.6350   41.7274 H   0  0  0  0  0  0
   14.1163    1.9742   42.0975 H   0  0  0  0  0  0
   17.7329    0.4756   40.2969 H   0  0  0  0  0  0
   16.1447    1.3465   37.8865 H   0  0  0  0  0  0
   19.2012    0.8139   37.8910 H   0  0  0  0  0  0
   17.6571    3.4046   37.3202 H   0  0  0  0  0  0
   18.3458    2.9924   38.9272 H   0  0  0  0  0  0
   18.1683    0.0339   35.7933 H   0  0  0  0  0  0
   19.1919    1.4890   35.5447 H   0  0  0  0  0  0
   17.4025    1.6441   35.5747 H   0  0  0  0  0  0
   19.7506    4.5774   37.7278 H   0  0  0  0  0  0
   19.9202    3.4294   36.3567 H   0  0  0  0  0  0
   20.6089    3.0172   37.9638 H   0  0  0  0  0  0
  1  2  1  0  0  0
  1 30  1  0  0  0
  1 31  1  0  0  0
  1 32  1  0  0  0
  2  3  1  0  0  0
  2  5  1  0  0  0
  2 33  1  0  0  0
  3  4  2  0  0  0
  3 13  1  0  0  0
  5  6  1  0  0  0
  5 34  1  0  0  0
  5 35  1  0  0  0
  6  7  2  0  0  0
  6  8  1  0  0  0
  7  9  1  0  0  0
  7 36  1  0  0  0
  8 10  2  0  0  0
  8 37  1  0  0  0
  9 11  2  0  0  0
  9 38  1  0  0  0
 10 11  1  0  0  0
 10 39  1  0  0  0
 11 12  1  0  0  0
 12 40  1  0  0  0
 13 14  1  0  0  0
 13 41  1  0  0  0
 14 15  1  0  0  0
 14 17  1  0  0  0
 14 42  1  0  0  0
 15 16  2  0  0  0
 15 21  1  0  0  0
 17 18  1  0  0  0
 17 43  1  0  0  0
 17 44  1  0  0  0
 18 19  1  0  0  0
 18 20  2  0  0  0
 21 22  1  0  0  0
 21 45  1  0  0  0
 22 23  1  0  0  0
 22 25  1  0  0  0
 22 46  1  0  0  0
 23 24  1  0  0  0
 23 29  2  0  0  0
 25 26  1  0  0  0
 25 27  1  0  0  0
 25 47  1  0  0  0
 26 28  1  0  0  0
 26 48  1  0  0  0
 26 49  1  0  0  0
 27 50  1  0  0  0
 27 51  1  0  0  0
 27 52  1  0  0  0
 28 53  1  0  0  0
 28 54  1  0  0  0
 28 55  1  0  0  0
M  CHG  3   1   1  19  -1  24  -1
M  END
> <s_m_source_file>
../3iqh_ligand.sdf

> <i_m_source_file_index>
1

> <s_epik_input>
W2NIXTFbY0hdYyhbT0hdKVtjSF1bY0hdYzFbQ0gyXVtDQEhdKFtOSDMrXSlDKD1PKVtOSF1bQ0BASF0oW0NIMl1DKD1PKVtPSF0pQyg9TylbTkhdW0NASF0oQyg9TylbT0hdKVtDQEBIXShbQ0gzXSlbQ0gyXVtDSDNd

> <s_epik_cmdline>
J2VwaWtfYXBwJywgJy1pbWFlJywgJ2xpZ2FuZF9wcm8ubWFlJywgJy1vbWFlJywgJ2xpZ2FuZF9wcmVwLm1hZScsICctbXMnLCAnMScsICctcGgnLCAnNycsICctcGh0JywgJzAuNScsICctbnQn

> <r_lp_tautomer_probability>
0.999999999997365

> <r_epik_Ionization_Penalty>
  0.2080

> <r_epik_Ionization_Penalty_Charging>
  0.2053

> <r_epik_Ionization_Penalty_Neutral>
  0.0027

> <r_epik_State_Penalty>
  0.1908

> <r_epik_Charging_Adjusted_Penalty>
0.396132176351114

> <i_epik_Tot_Q>
-1

> <i_epik_Tot_abs_Q>
3

$$$$
