3iqi_ligand
                    3D
 Schrodinger Suite 2020-3.
 65 64  0  0  1  0            999 V2000
   20.6030    6.2310   43.1260 N   0  3  0  0  0  0
   20.7450    4.7870   43.4690 C   0  0  2  0  0  0
   20.6470    3.8610   42.2450 C   0  0  0  0  0  0
   19.9280    4.1560   41.2800 O   0  0  0  0  0  0
   19.7310    4.4140   44.5580 C   0  0  0  0  0  0
   19.4910    2.9250   44.6570 C   0  0  0  0  0  0
   18.7370    2.3640   43.8720 O   0  0  0  0  0  0
   20.1120    2.2820   45.6450 N   0  0  0  0  0  0
   21.3750    2.7450   42.3080 N   0  0  0  0  0  0
   21.5020    1.7980   41.1960 C   0  0  2  0  0  0
   20.4330    0.6850   41.1650 C   0  0  0  0  0  0
   20.5380   -0.2590   40.3660 O   0  0  0  0  0  0
   22.9160    1.1900   41.1750 C   0  0  0  0  0  0
   23.2110    0.2060   42.3130 C   0  0  0  0  0  0
   23.7950    0.8670   43.5580 C   0  0  0  0  0  0
   23.2560    1.9010   44.0260 O   0  5  0  0  0  0
   24.7980    0.3300   44.0830 O   0  0  0  0  0  0
   19.4180    0.7820   42.0250 N   0  0  0  0  0  0
   18.2830   -0.1540   41.9620 C   0  0  2  0  0  0
   17.3090    0.2380   40.8550 C   0  0  0  0  0  0
   16.1520    0.5940   41.0980 O   0  0  0  0  0  0
   17.5580   -0.2970   43.2980 C   0  0  0  0  0  0
   16.7180   -1.5590   43.3670 C   0  0  0  0  0  0
   17.0550   -2.5810   42.7540 O   0  0  0  0  0  0
   15.6250   -1.5010   44.1150 N   0  0  0  0  0  0
   17.8050    0.1290   39.6300 N   0  0  0  0  0  0
   17.1240    0.5830   38.4290 C   0  0  2  0  0  0
   16.5150   -0.6430   37.7350 C   0  0  0  0  0  0
   15.4130   -0.6210   37.1860 O   0  5  0  0  0  0
   18.1510    1.3610   37.5510 C   0  0  2  0  0  0
   18.3860    2.7610   38.1610 C   0  0  0  0  0  0
   17.7170    1.4540   36.0900 C   0  0  0  0  0  0
   19.5790    3.5320   37.5530 C   0  0  0  0  0  0
   17.1180   -1.7090   37.7530 O   0  0  0  0  0  0
   21.3311    6.4957   42.3451 H   0  0  0  0  0  0
   20.7888    6.8408   44.0225 H   0  0  0  0  0  0
   19.5843    6.4218   42.7574 H   0  0  0  0  0  0
   21.7669    4.6688   43.8585 H   0  0  0  0  0  0
   20.0994    4.7586   45.5355 H   0  0  0  0  0  0
   18.7656    4.8941   44.3400 H   0  0  0  0  0  0
   20.7801    2.8315   46.3244 H   0  0  0  0  0  0
   19.9566    1.2016   45.7813 H   0  0  0  0  0  0
   21.8962    2.5518   43.2572 H   0  0  0  0  0  0
   21.3218    2.4379   40.3196 H   0  0  0  0  0  0
   23.0645    0.6397   40.2342 H   0  0  0  0  0  0
   23.6623    1.9946   41.2508 H   0  0  0  0  0  0
   22.2797   -0.2958   42.6145 H   0  0  0  0  0  0
   23.9374   -0.5451   41.9692 H   0  0  0  0  0  0
   19.4361    1.5739   42.7882 H   0  0  0  0  0  0
   18.7444   -1.1235   41.7231 H   0  0  0  0  0  0
   18.2956   -0.3345   44.1132 H   0  0  0  0  0  0
   16.8903    0.5644   43.4469 H   0  0  0  0  0  0
   15.3672   -0.5699   44.6408 H   0  0  0  0  0  0
   14.9759   -2.3840   44.2098 H   0  0  0  0  0  0
   18.7973   -0.3399   39.5557 H   0  0  0  0  0  0
   16.3013    1.2583   38.7067 H   0  0  0  0  0  0
   19.1010    0.8069   37.5301 H   0  0  0  0  0  0
   17.4915    3.3826   38.0076 H   0  0  0  0  0  0
   18.5840    2.6629   39.2386 H   0  0  0  0  0  0
   17.5592    0.4418   35.6893 H   0  0  0  0  0  0
   18.4995    1.9614   35.5067 H   0  0  0  0  0  0
   16.7797    2.0257   36.0216 H   0  0  0  0  0  0
   19.6710    4.5119   38.0443 H   0  0  0  0  0  0
   19.4114    3.6763   36.4755 H   0  0  0  0  0  0
   20.5039    2.9566   37.7064 H   0  0  0  0  0  0
  1  2  1  0  0  0
  1 35  1  0  0  0
  1 36  1  0  0  0
  1 37  1  0  0  0
  2  3  1  0  0  0
  2  5  1  0  0  0
  2 38  1  0  0  0
  3  4  2  0  0  0
  3  9  1  0  0  0
  5  6  1  0  0  0
  5 39  1  0  0  0
  5 40  1  0  0  0
  6  7  2  0  0  0
  6  8  1  0  0  0
  8 41  1  0  0  0
  8 42  1  0  0  0
  9 10  1  0  0  0
  9 43  1  0  0  0
 10 11  1  0  0  0
 10 13  1  0  0  0
 10 44  1  0  0  0
 11 12  2  0  0  0
 11 18  1  0  0  0
 13 14  1  0  0  0
 13 45  1  0  0  0
 13 46  1  0  0  0
 14 15  1  0  0  0
 14 47  1  0  0  0
 14 48  1  0  0  0
 15 16  1  0  0  0
 15 17  2  0  0  0
 18 19  1  0  0  0
 18 49  1  0  0  0
 19 20  1  0  0  0
 19 22  1  0  0  0
 19 50  1  0  0  0
 20 21  2  0  0  0
 20 26  1  0  0  0
 22 23  1  0  0  0
 22 51  1  0  0  0
 22 52  1  0  0  0
 23 24  2  0  0  0
 23 25  1  0  0  0
 25 53  1  0  0  0
 25 54  1  0  0  0
 26 27  1  0  0  0
 26 55  1  0  0  0
 27 28  1  0  0  0
 27 30  1  0  0  0
 27 56  1  0  0  0
 28 29  1  0  0  0
 28 34  2  0  0  0
 30 31  1  0  0  0
 30 32  1  0  0  0
 30 57  1  0  0  0
 31 33  1  0  0  0
 31 58  1  0  0  0
 31 59  1  0  0  0
 32 60  1  0  0  0
 32 61  1  0  0  0
 32 62  1  0  0  0
 33 63  1  0  0  0
 33 64  1  0  0  0
 33 65  1  0  0  0
M  CHG  3   1   1  16  -1  29  -1
M  END
> <s_m_source_file>
../3iqi_ligand.sdf

> <i_m_source_file_index>
1

> <s_epik_input>
Tz1DKFtOSDJdKVtDSDJdW0NASF0oW05IMytdKUMoPU8pW05IXVtDQEBIXShbQ0gyXVtDSDJdQyg9TylbT0hdKUMoPU8pW05IXVtDQEBIXShbQ0gyXUMoPU8pW05IMl0pQyg9TylbTkhdW0NASF0oQyg9TylbT0hdKVtDQEBIXShbQ0gzXSlbQ0gyXVtDSDNd

> <s_epik_cmdline>
J2VwaWtfYXBwJywgJy1pbWFlJywgJ2xpZ2FuZF9wcm8ubWFlJywgJy1vbWFlJywgJ2xpZ2FuZF9wcmVwLm1hZScsICctbXMnLCAnMScsICctcGgnLCAnNycsICctcGh0JywgJzAuNScsICctbnQn

> <r_epik_Ionization_Penalty>
  0.1995

> <r_epik_Ionization_Penalty_Charging>
  0.1995

> <r_epik_Ionization_Penalty_Neutral>
  0.0000

> <r_epik_State_Penalty>
  0.1874

> <r_epik_Charging_Adjusted_Penalty>
0.386915388588178

> <i_epik_Tot_Q>
-1

> <i_epik_Tot_abs_Q>
3

$$$$
