3iqj_ligand
                    3D
 Schrodinger Suite 2020-3.
113113  0  0  1  0            999 V2000
   -9.7640   -7.0550   17.8350 N   0  3  0  0  0  0
  -10.3000   -7.4540   16.4870 C   0  0  2  0  0  0
  -11.4680   -8.4110   16.7180 C   0  0  0  0  0  0
  -11.4770   -9.1230   17.7280 O   0  0  0  0  0  0
   -9.2270   -8.1280   15.6240 C   0  0  0  0  0  0
   -8.1160   -7.2460   15.2510 C   0  0  0  0  0  0
   -6.9580   -7.9490   14.5260 C   0  0  0  0  0  0
   -6.5840   -9.0800   14.8510 O   0  0  0  0  0  0
   -6.3700   -7.2490   13.5260 N   0  0  0  0  0  0
  -12.5090   -8.3460   15.8680 N   0  0  0  0  0  0
  -13.4880   -9.4240   15.7640 C   0  0  2  0  0  0
  -12.9180  -10.6340   14.9400 C   0  0  0  0  0  0
  -12.0660  -10.5660   14.0250 O   0  0  0  0  0  0
  -14.8780   -8.9440   15.2460 C   0  0  0  0  0  0
  -13.4370  -11.7410   15.3450 N   0  0  0  0  0  0
  -13.1140  -12.9950   14.7480 C   0  0  2  0  0  0
  -13.6060  -12.9990   13.2940 C   0  0  0  0  0  0
  -14.6000  -12.3410   12.9060 O   0  0  0  0  0  0
  -13.8540  -14.0350   15.5530 C   0  0  0  0  0  0
  -13.4700  -13.9650   16.8950 O   0  0  0  0  0  0
  -12.9390  -13.7680   12.4520 N   0  0  0  0  0  0
  -13.2090  -13.8830   11.0360 C   0  0  2  0  0  0
  -14.1670  -15.0910   10.8360 C   0  0  0  0  0  0
  -13.8770  -16.1670   11.2680 O   0  0  0  0  0  0
  -11.9680  -14.0820   10.2110 C   0  0  2  0  0  0
  -11.0130  -13.0750   10.5010 O   0  0  0  0  0  0
  -12.3230  -14.2670    8.7550 C   0  0  0  0  0  0
  -15.2550  -14.8740   10.1720 N   0  0  0  0  0  0
  -16.1560  -15.9830    9.7510 C   0  0  1  0  0  0
  -17.5700  -15.6930   10.1130 C   0  0  0  0  0  0
  -17.9840  -14.4400    9.4850 O   0  0  0  0  0  0
  -15.9020  -16.2320    8.2610 C   0  0  0  0  0  0
  -15.0720  -15.5830    7.6030 O   0  0  0  0  0  0
  -19.4080  -13.8520    9.8750 P   0  0  0  0  0  0
  -19.3720  -13.4770   11.3730 O   0  5  0  0  0  0
  -20.4700  -14.8850    9.5230 O   0  0  0  0  0  0
  -19.5030  -12.6020    9.0100 O   0  5  0  0  0  0
  -16.6040  -17.2130    7.7040 N   0  0  0  0  0  0
  -16.2850  -17.6560    6.3640 C   0  0  2  0  0  0
  -16.6740  -16.5920    5.4170 C   0  0  0  0  0  0
  -17.7700  -16.0490    5.4840 O   0  0  0  0  0  0
  -17.2540  -18.7950    5.9570 C   0  0  2  0  0  0
  -17.0280  -19.8470    6.8180 O   0  0  0  0  0  0
  -16.9920  -19.3200    4.5510 C   0  0  0  0  0  0
  -15.8080  -16.2830    4.4450 N   0  0  0  0  0  0
  -16.1460  -15.2460    3.4780 C   0  0  2  0  0  0
  -16.9760  -15.8090    2.3190 C   0  0  0  0  0  0
  -17.1510  -17.0950    2.1790 O   0  0  0  0  0  0
  -14.7550  -14.7910    3.0030 C   0  0  0  0  0  0
  -13.9540  -16.2160    2.9550 C   0  0  0  0  0  0
  -14.4190  -16.7920    4.2610 C   0  0  0  0  0  0
  -17.4950  -14.9310    1.4680 N   0  0  0  0  0  0
  -18.0810  -15.3500    0.1730 C   0  0  2  0  0  0
  -17.0820  -16.1560   -0.7180 C   0  0  0  0  0  0
  -15.9290  -15.7990   -0.6420 O   0  0  0  0  0  0
  -18.5560  -14.0930   -0.5590 C   0  0  0  0  0  0
  -19.7810  -13.4270    0.0850 C   0  0  0  0  0  0
  -20.6330  -14.0370    0.7730 O   0  0  0  0  0  0
  -19.8240  -12.1310   -0.1200 N   0  0  0  0  0  0
  -10.5631   -6.5767   18.4204 H   0  0  0  0  0  0
   -8.9319   -6.3476   17.7040 H   0  0  0  0  0  0
   -9.4052   -7.9489   18.3661 H   0  0  0  0  0  0
  -10.6252   -6.5455   15.9590 H   0  0  0  0  0  0
   -8.7950   -8.9775   16.1733 H   0  0  0  0  0  0
   -9.6813   -8.4886   14.6894 H   0  0  0  0  0  0
   -8.4836   -6.4584   14.5767 H   0  0  0  0  0  0
   -7.6933   -6.7858   16.1563 H   0  0  0  0  0  0
   -6.7356   -6.2437   13.2695 H   0  0  0  0  0  0
   -5.5270   -7.6859   12.9706 H   0  0  0  0  0  0
  -12.6108   -7.4482   15.2407 H   0  0  0  0  0  0
  -13.6230   -9.7194   16.8150 H   0  0  0  0  0  0
  -15.2256   -8.0988   15.8583 H   0  0  0  0  0  0
  -15.6010   -9.7700   15.3170 H   0  0  0  0  0  0
  -14.7881   -8.6245   14.1973 H   0  0  0  0  0  0
  -14.1512  -11.6973   16.1805 H   0  0  0  0  0  0
  -12.0245  -13.1421   14.7844 H   0  0  0  0  0  0
  -14.9366  -13.8555   15.4771 H   0  0  0  0  0  0
  -13.6201  -15.0362   15.1620 H   0  0  0  0  0  0
  -13.9118  -14.6538   17.6301 H   0  0  0  0  0  0
  -12.1225  -14.3493   12.9052 H   0  0  0  0  0  0
  -13.6260  -12.9087   10.7412 H   0  0  0  0  0  0
  -11.4052  -14.9784   10.5104 H   0  0  0  0  0  0
  -10.7095  -12.8882   11.5417 H   0  0  0  0  0  0
  -13.0679  -15.0706    8.6585 H   0  0  0  0  0  0
  -11.4190  -14.5349    8.1884 H   0  0  0  0  0  0
  -12.7407  -13.3302    8.3576 H   0  0  0  0  0  0
  -15.5077  -13.8338    9.9188 H   0  0  0  0  0  0
  -15.9487  -16.9033   10.3168 H   0  0  0  0  0  0
  -18.2142  -16.5116    9.7597 H   0  0  0  0  0  0
  -17.6577  -15.6030   11.2058 H   0  0  0  0  0  0
  -17.4261  -17.6882    8.2593 H   0  0  0  0  0  0
  -15.2106  -17.8918    6.3730 H   0  0  0  0  0  0
  -18.3031  -18.4796    6.0564 H   0  0  0  0  0  0
  -17.1552  -19.7079    7.9017 H   0  0  0  0  0  0
  -17.1595  -18.5139    3.8215 H   0  0  0  0  0  0
  -17.6756  -20.1551    4.3381 H   0  0  0  0  0  0
  -15.9517  -19.6700    4.4783 H   0  0  0  0  0  0
  -16.7636  -14.4594    3.9362 H   0  0  0  0  0  0
  -14.8439  -14.3058    2.0198 H   0  0  0  0  0  0
  -14.3354  -14.0775    3.7274 H   0  0  0  0  0  0
  -14.2710  -16.7851    2.0687 H   0  0  0  0  0  0
  -12.8717  -16.0267    2.9014 H   0  0  0  0  0  0
  -13.7904  -16.4528    5.0975 H   0  0  0  0  0  0
  -14.4319  -17.8916    4.2345 H   0  0  0  0  0  0
  -17.4817  -13.8671    1.7471 H   0  0  0  0  0  0
  -18.9243  -16.0109    0.4222 H   0  0  0  0  0  0
  -17.1041  -17.2164   -0.4264 H   0  0  0  0  0  0
  -17.3732  -16.0601   -1.7744 H   0  0  0  0  0  0
  -15.1551  -16.3092   -1.2343 H   0  0  0  0  0  0
  -17.7471  -13.3476   -0.5704 H   0  0  0  0  0  0
  -18.8304  -14.3520   -1.5922 H   0  0  0  0  0  0
  -19.0502  -11.6451   -0.7325 H   0  0  0  0  0  0
  -20.6338  -11.5310    0.3208 H   0  0  0  0  0  0
  1  2  1  0  0  0
  1 60  1  0  0  0
  1 61  1  0  0  0
  1 62  1  0  0  0
  2  3  1  0  0  0
  2  5  1  0  0  0
  2 63  1  0  0  0
  3  4  2  0  0  0
  3 10  1  0  0  0
  5  6  1  0  0  0
  5 64  1  0  0  0
  5 65  1  0  0  0
  6  7  1  0  0  0
  6 66  1  0  0  0
  6 67  1  0  0  0
  7  8  2  0  0  0
  7  9  1  0  0  0
  9 68  1  0  0  0
  9 69  1  0  0  0
 10 11  1  0  0  0
 10 70  1  0  0  0
 11 12  1  0  0  0
 11 14  1  0  0  0
 11 71  1  0  0  0
 12 13  2  0  0  0
 12 15  1  0  0  0
 14 72  1  0  0  0
 14 73  1  0  0  0
 14 74  1  0  0  0
 15 16  1  0  0  0
 15 75  1  0  0  0
 16 17  1  0  0  0
 16 19  1  0  0  0
 16 76  1  0  0  0
 17 18  2  0  0  0
 17 21  1  0  0  0
 19 20  1  0  0  0
 19 77  1  0  0  0
 19 78  1  0  0  0
 20 79  1  0  0  0
 21 22  1  0  0  0
 21 80  1  0  0  0
 22 23  1  0  0  0
 22 25  1  0  0  0
 22 81  1  0  0  0
 23 24  2  0  0  0
 23 28  1  0  0  0
 25 26  1  0  0  0
 25 27  1  0  0  0
 25 82  1  0  0  0
 26 83  1  0  0  0
 27 84  1  0  0  0
 27 85  1  0  0  0
 27 86  1  0  0  0
 28 29  1  0  0  0
 28 87  1  0  0  0
 29 30  1  0  0  0
 29 32  1  0  0  0
 29 88  1  0  0  0
 30 31  1  0  0  0
 30 89  1  0  0  0
 30 90  1  0  0  0
 31 34  1  0  0  0
 32 33  2  0  0  0
 32 38  1  0  0  0
 34 35  1  0  0  0
 34 36  2  0  0  0
 34 37  1  0  0  0
 38 39  1  0  0  0
 38 91  1  0  0  0
 39 40  1  0  0  0
 39 42  1  0  0  0
 39 92  1  0  0  0
 40 41  2  0  0  0
 40 45  1  0  0  0
 42 43  1  0  0  0
 42 44  1  0  0  0
 42 93  1  0  0  0
 43 94  1  0  0  0
 44 95  1  0  0  0
 44 96  1  0  0  0
 44 97  1  0  0  0
 45 46  1  0  0  0
 45 51  1  0  0  0
 46 47  1  0  0  0
 46 49  1  0  0  0
 46 98  1  0  0  0
 47 48  2  0  0  0
 47 52  1  0  0  0
 49 50  1  0  0  0
 49 99  1  0  0  0
 49100  1  0  0  0
 50 51  1  0  0  0
 50101  1  0  0  0
 50102  1  0  0  0
 51103  1  0  0  0
 51104  1  0  0  0
 52 53  1  0  0  0
 52105  1  0  0  0
 53 54  1  0  0  0
 53 56  1  0  0  0
 53106  1  0  0  0
 54 55  1  0  0  0
 54107  1  0  0  0
 54108  1  0  0  0
 55109  1  0  0  0
 56 57  1  0  0  0
 56110  1  0  0  0
 56111  1  0  0  0
 57 58  2  0  0  0
 57 59  1  0  0  0
 59112  1  0  0  0
 59113  1  0  0  0
M  CHG  3   1   1  35  -1  37  -1
M  END
> <s_m_source_file>
../3iqj_ligand.sdf

> <i_m_source_file_index>
1

> <s_epik_input>
Tz1DKFtOSDJdKVtDSDJdW0NIMl1bQ0BIXShbTkgzK10pQyg9TylbTkhdW0NAQEhdKFtDSDNdKUMoPU8pW05IXVtDQEBIXShbQ0gyXVtPSF0pQyg9TylbTkhdW0NAQEhdKFtDQEhdKFtPSF0pW0NIM10pQyg9TylbTkhdW0NAQEhdKFtDSDJdT1AoPU8pKFtPSF0pW09IXSlDKD1PKVtOSF1bQ0BASF0oW0NASF0oW09IXSlbQ0gzXSlDKD1PKU4xW0NAQEhdKFtDSDJdW0NIMl1bQ0gyXTEpQyg9TylbTkhdW0NASF0oW0NIMl1bT0hdKVtDSDJdQyg9TylbTkgyXQ==

> <s_epik_cmdline>
J2VwaWtfYXBwJywgJy1pbWFlJywgJ2xpZ2FuZF9wcm8ubWFlJywgJy1vbWFlJywgJ2xpZ2FuZF9wcmVwLm1hZScsICctbXMnLCAnMScsICctcGgnLCAnNycsICctcGh0JywgJzAuNScsICctbnQn

> <r_lp_tautomer_probability>
1

> <r_epik_Ionization_Penalty>
  0.2580

> <r_epik_Ionization_Penalty_Charging>
  0.2580

> <r_epik_Ionization_Penalty_Neutral>
  0.0000

> <r_epik_State_Penalty>
 -0.0000

> <r_epik_Charging_Adjusted_Penalty>
0.258011335204014

> <i_epik_Tot_Q>
-1

> <i_epik_Tot_abs_Q>
3

$$$$
