3iqq_ligand
                    3D
 Schrodinger Suite 2020-3.
160161  0  0  1  0            999 V2000
   -0.7460    7.7710   13.2860 N   0  3  0  0  0  0
    0.1980    7.6100   14.4350 C   0  0  2  0  0  0
    1.4900    8.3880   14.1580 C   0  0  0  0  0  0
    2.2740    8.0020   13.2920 O   0  0  0  0  0  0
    0.5180    6.1100   14.6860 C   0  0  2  0  0  0
    1.2450    5.9570   15.9150 O   0  0  0  0  0  0
    1.3450    5.4950   13.5280 C   0  0  0  0  0  0
    1.7140    9.4860   14.8790 N   0  0  0  0  0  0
    2.8590   10.3420   14.5640 C   0  0  2  0  0  0
    4.1770    9.6520   14.8640 C   0  0  0  0  0  0
    4.4690    9.2860   15.9870 O   0  0  0  0  0  0
    2.7540   11.7250   15.1900 C   0  0  0  0  0  0
    1.6810   12.5430   14.5130 C   0  0  0  0  0  0
    2.1140   13.9490   14.1440 C   0  0  0  0  0  0
    1.0660   14.6250   13.2370 C   0  0  0  0  0  0
    0.0290   15.3650   14.0060 N   0  3  0  0  0  0
    4.9680    9.5310   13.8110 N   0  0  0  0  0  0
    6.0030    8.5170   13.6420 C   0  0  2  0  0  0
    7.3210    9.2160   13.4890 C   0  0  0  0  0  0
    8.2990    8.6360   12.9810 O   0  0  0  0  0  0
    5.7780    7.8710   12.2800 C   0  0  2  0  0  0
    5.8990    6.3620   12.3280 C   0  0  0  0  0  0
    6.7190    8.4730   11.2280 C   0  0  0  0  0  0
    5.9770    5.7930   10.9560 C   0  0  0  0  0  0
    7.3310   10.4470   13.9860 N   0  0  0  0  0  0
    7.9390   11.5860   13.3190 C   0  0  2  0  0  0
    9.2850   11.9810   13.9900 C   0  0  0  0  0  0
    9.8620   11.1160   14.6320 O   0  0  0  0  0  0
    6.8880   12.6910   13.4740 C   0  0  0  0  0  0
    6.7940   13.5920   12.2760 C   0  0  0  0  0  0
    7.5450   13.3780   11.3090 O   0  0  0  0  0  0
    5.9680   14.5190   12.2910 O   0  0  0  0  0  0
    9.9010   13.1580   13.7610 N   0  0  0  0  0  0
   10.3610   13.6660   12.4640 C   0  0  2  0  0  0
   11.8640   13.4340   12.5040 C   0  0  0  0  0  0
   12.5100   13.3520   11.4710 O   0  0  0  0  0  0
   10.1480   15.1800   12.2820 C   0  0  0  0  0  0
    9.1060   15.5730   11.2420 C   0  0  0  0  0  0
    8.0630   16.4470   11.4150 C   0  0  0  0  0  0
    9.0060   15.1020    9.8860 C   0  0  0  0  0  0
    7.3210   16.5430   10.2600 N   0  0  0  0  0  0
    7.8730   15.7280    9.3090 C   0  0  0  0  0  0
    9.7500   14.2070    9.1120 C   0  0  0  0  0  0
    7.4740   15.4890    7.9930 C   0  0  0  0  0  0
    9.3540   13.9710    7.8060 C   0  0  0  0  0  0
    8.2250   14.6140    7.2570 C   0  0  0  0  0  0
   12.4170   13.3450   13.7140 N   0  0  0  0  0  0
   13.8560   13.1480   13.9190 C   0  0  2  0  0  0
   14.2130   11.6900   13.6830 C   0  0  0  0  0  0
   15.3840   11.3060   13.7080 O   0  0  0  0  0  0
   14.2580   13.5440   15.3470 C   0  0  0  0  0  0
   13.3720   14.6410   15.9330 C   0  0  0  0  0  0
   12.2530   14.3810   16.3920 O   0  0  0  0  0  0
   13.8760   15.8710   15.9260 N   0  0  0  0  0  0
   13.1790   10.8930   13.4170 N   0  0  0  0  0  0
   13.2430    9.4440   13.5510 C   0  0  2  0  0  0
   13.8440    8.5690   12.4270 C   0  0  0  0  0  0
   14.6850    7.7370   12.7730 O   0  0  0  0  0  0
   11.8910    8.8760   14.0290 C   0  0  0  0  0  0
   11.9610    7.5060   14.7170 C   0  0  0  0  0  0
   10.6110    7.1380   15.3450 C   0  0  0  0  0  0
   10.5320    5.6560   15.7440 C   0  0  0  0  0  0
    9.1090    5.2050   15.9590 N   0  3  0  0  0  0
   13.5290    8.6810   11.1200 N   0  0  0  0  0  0
   13.1580    9.8390   10.2380 C   0  0  2  0  0  0
   14.3390   10.7770    9.8470 C   0  0  0  0  0  0
   15.3560   10.2900    9.3260 O   0  0  0  0  0  0
   11.7210   10.4650   10.4490 C   0  0  2  0  0  0
   10.6530    9.3700   10.5370 C   0  0  0  0  0  0
   11.3500   11.3380    9.2550 C   0  0  0  0  0  0
   10.3600    8.6350    9.2000 C   0  0  0  0  0  0
   14.1770   12.0920   10.0570 N   0  0  0  0  0  0
   15.1910   13.1490    9.8210 C   0  0  2  0  0  0
   14.7760   14.1370    8.7190 C   0  0  0  0  0  0
   13.8080   14.9000    8.8650 O   0  0  0  0  0  0
   16.5940   12.5840    9.5550 C   0  0  0  0  0  0
   15.3950   14.2060    7.6450 O   0  0  0  0  0  0
   -0.9552    8.8396   13.1303 H   0  0  0  0  0  0
   -1.6849    7.2418   13.5059 H   0  0  0  0  0  0
   -0.2921    7.3500   12.3768 H   0  0  0  0  0  0
   -0.3041    8.0317   15.3182 H   0  0  0  0  0  0
   -0.4207    5.5532   14.8229 H   0  0  0  0  0  0
    0.8188    6.3334   16.8566 H   0  0  0  0  0  0
    0.7936    5.6088   12.5830 H   0  0  0  0  0  0
    1.5158    4.4266   13.7265 H   0  0  0  0  0  0
    2.3124    6.0132   13.4528 H   0  0  0  0  0  0
    1.0417    9.7500   15.7087 H   0  0  0  0  0  0
    2.7993   10.4850   13.4750 H   0  0  0  0  0  0
    2.5034   11.6266   16.2565 H   0  0  0  0  0  0
    3.7159   12.2485   15.0862 H   0  0  0  0  0  0
    1.3726   12.0447   13.5821 H   0  0  0  0  0  0
    0.8139   12.6369   15.1832 H   0  0  0  0  0  0
    2.2306   14.5487   15.0588 H   0  0  0  0  0  0
    3.0735   13.9083   13.6075 H   0  0  0  0  0  0
    1.5664   15.3431   12.5707 H   0  0  0  0  0  0
    0.5549   13.8600   12.6340 H   0  0  0  0  0  0
   -0.6872   15.8236   13.3083 H   0  0  0  0  0  0
    0.5096   16.1507   14.6074 H   0  0  0  0  0  0
   -0.5019   14.6676   14.6707 H   0  0  0  0  0  0
    4.7958   10.2780   13.0221 H   0  0  0  0  0  0
    5.9659    7.8341   14.5035 H   0  0  0  0  0  0
    4.7379    8.0819   11.9907 H   0  0  0  0  0  0
    6.8100    6.0846   12.8786 H   0  0  0  0  0  0
    5.0200    5.9397   12.8369 H   0  0  0  0  0  0
    6.6067    9.5672   11.2189 H   0  0  0  0  0  0
    6.4659    8.0701   10.2362 H   0  0  0  0  0  0
    7.7590    8.2132   11.4748 H   0  0  0  0  0  0
    6.0642    4.6982   11.0175 H   0  0  0  0  0  0
    6.8572    6.2024   10.4388 H   0  0  0  0  0  0
    5.0673    6.0576   10.3971 H   0  0  0  0  0  0
    6.8415   10.5783   14.9623 H   0  0  0  0  0  0
    8.1586   11.3327   12.2713 H   0  0  0  0  0  0
    5.8978   12.2365   13.6258 H   0  0  0  0  0  0
    7.1405   13.3181   14.3417 H   0  0  0  0  0  0
    7.4949   14.0241   10.4202 H   0  0  0  0  0  0
   10.0489   13.7585   14.6707 H   0  0  0  0  0  0
    9.7972   13.1402   11.6794 H   0  0  0  0  0  0
    9.8188   15.6210   13.2344 H   0  0  0  0  0  0
   11.0927   15.6481   11.9683 H   0  0  0  0  0  0
    7.8518   16.9888   12.3369 H   0  0  0  0  0  0
   10.6238   13.7052    9.5277 H   0  0  0  0  0  0
    6.5985   15.9802    7.5685 H   0  0  0  0  0  0
    9.9253   13.2756    7.1911 H   0  0  0  0  0  0
    7.9448   14.4092    6.2237 H   0  0  0  0  0  0
   11.7440   13.4258   14.5803 H   0  0  0  0  0  0
   14.3621   13.7917   13.1845 H   0  0  0  0  0  0
   14.1831   12.6662   16.0057 H   0  0  0  0  0  0
   15.2935   13.9150   15.3469 H   0  0  0  0  0  0
   14.8765   16.0531   15.5066 H   0  0  0  0  0  0
   13.2926   16.7068   16.3396 H   0  0  0  0  0  0
   12.2476   11.3739   13.0834 H   0  0  0  0  0  0
   14.0377    9.4382   14.3116 H   0  0  0  0  0  0
   11.4392    9.5673   14.7557 H   0  0  0  0  0  0
   11.2175    8.7582   13.1673 H   0  0  0  0  0  0
   12.2274    6.7372   13.9768 H   0  0  0  0  0  0
   12.7236    7.5321   15.5093 H   0  0  0  0  0  0
   10.4513    7.7415   16.2507 H   0  0  0  0  0  0
    9.8045    7.3381   14.6242 H   0  0  0  0  0  0
   10.9720    5.0379   14.9475 H   0  0  0  0  0  0
   11.0879    5.4981   16.6800 H   0  0  0  0  0  0
    9.1001    4.1421   16.2420 H   0  0  0  0  0  0
    8.5366    5.3419   15.0297 H   0  0  0  0  0  0
    8.6525    5.8021   16.7621 H   0  0  0  0  0  0
   13.5819    7.6653   10.7010 H   0  0  0  0  0  0
   13.0036    9.2937    9.2952 H   0  0  0  0  0  0
   11.7224   11.0605   11.3739 H   0  0  0  0  0  0
   10.9735    8.6022   11.2566 H   0  0  0  0  0  0
    9.7022    9.8111   10.8706 H   0  0  0  0  0  0
   12.0898   12.1448    9.1468 H   0  0  0  0  0  0
   10.3528   11.7739    9.4153 H   0  0  0  0  0  0
   11.3398   10.7250    8.3417 H   0  0  0  0  0  0
    9.5847    7.8719    9.3634 H   0  0  0  0  0  0
   11.2796    8.1519    8.8380 H   0  0  0  0  0  0
   10.0083    9.3608    8.4520 H   0  0  0  0  0  0
   13.1815   12.3606   10.4404 H   0  0  0  0  0  0
   15.2130   13.6864   10.7805 H   0  0  0  0  0  0
   16.8646   11.8817   10.3572 H   0  0  0  0  0  0
   17.3221   13.4081    9.5281 H   0  0  0  0  0  0
   16.6002   12.0576    8.5892 H   0  0  0  0  0  0
   15.0777   14.9217    6.8723 H   0  0  0  0  0  0
  1  2  1  0  0  0
  1 78  1  0  0  0
  1 79  1  0  0  0
  1 80  1  0  0  0
  2  3  1  0  0  0
  2  5  1  0  0  0
  2 81  1  0  0  0
  3  4  2  0  0  0
  3  8  1  0  0  0
  5  6  1  0  0  0
  5  7  1  0  0  0
  5 82  1  0  0  0
  6 83  1  0  0  0
  7 84  1  0  0  0
  7 85  1  0  0  0
  7 86  1  0  0  0
  8  9  1  0  0  0
  8 87  1  0  0  0
  9 10  1  0  0  0
  9 12  1  0  0  0
  9 88  1  0  0  0
 10 11  2  0  0  0
 10 17  1  0  0  0
 12 13  1  0  0  0
 12 89  1  0  0  0
 12 90  1  0  0  0
 13 14  1  0  0  0
 13 91  1  0  0  0
 13 92  1  0  0  0
 14 15  1  0  0  0
 14 93  1  0  0  0
 14 94  1  0  0  0
 15 16  1  0  0  0
 15 95  1  0  0  0
 15 96  1  0  0  0
 16 97  1  0  0  0
 16 98  1  0  0  0
 16 99  1  0  0  0
 17 18  1  0  0  0
 17100  1  0  0  0
 18 19  1  0  0  0
 18 21  1  0  0  0
 18101  1  0  0  0
 19 20  2  0  0  0
 19 25  1  0  0  0
 21 22  1  0  0  0
 21 23  1  0  0  0
 21102  1  0  0  0
 22 24  1  0  0  0
 22103  1  0  0  0
 22104  1  0  0  0
 23105  1  0  0  0
 23106  1  0  0  0
 23107  1  0  0  0
 24108  1  0  0  0
 24109  1  0  0  0
 24110  1  0  0  0
 25 26  1  0  0  0
 25111  1  0  0  0
 26 27  1  0  0  0
 26 29  1  0  0  0
 26112  1  0  0  0
 27 28  2  0  0  0
 27 33  1  0  0  0
 29 30  1  0  0  0
 29113  1  0  0  0
 29114  1  0  0  0
 30 31  1  0  0  0
 30 32  2  0  0  0
 31115  1  0  0  0
 33 34  1  0  0  0
 33116  1  0  0  0
 34 35  1  0  0  0
 34 37  1  0  0  0
 34117  1  0  0  0
 35 36  2  0  0  0
 35 47  1  0  0  0
 37 38  1  0  0  0
 37118  1  0  0  0
 37119  1  0  0  0
 38 39  2  0  0  0
 38 40  1  0  0  0
 39 41  1  0  0  0
 39120  1  0  0  0
 40 42  2  0  0  0
 40 43  1  0  0  0
 41 42  1  0  0  0
 42 44  1  0  0  0
 43 45  2  0  0  0
 43121  1  0  0  0
 44 46  2  0  0  0
 44122  1  0  0  0
 45 46  1  0  0  0
 45123  1  0  0  0
 46124  1  0  0  0
 47 48  1  0  0  0
 47125  1  0  0  0
 48 49  1  0  0  0
 48 51  1  0  0  0
 48126  1  0  0  0
 49 50  2  0  0  0
 49 55  1  0  0  0
 51 52  1  0  0  0
 51127  1  0  0  0
 51128  1  0  0  0
 52 53  2  0  0  0
 52 54  1  0  0  0
 54129  1  0  0  0
 54130  1  0  0  0
 55 56  1  0  0  0
 55131  1  0  0  0
 56 57  1  0  0  0
 56 59  1  0  0  0
 56132  1  0  0  0
 57 58  2  0  0  0
 57 64  1  0  0  0
 59 60  1  0  0  0
 59133  1  0  0  0
 59134  1  0  0  0
 60 61  1  0  0  0
 60135  1  0  0  0
 60136  1  0  0  0
 61 62  1  0  0  0
 61137  1  0  0  0
 61138  1  0  0  0
 62 63  1  0  0  0
 62139  1  0  0  0
 62140  1  0  0  0
 63141  1  0  0  0
 63142  1  0  0  0
 63143  1  0  0  0
 64 65  1  0  0  0
 64144  1  0  0  0
 65 66  1  0  0  0
 65 68  1  0  0  0
 65145  1  0  0  0
 66 67  2  0  0  0
 66 72  1  0  0  0
 68 69  1  0  0  0
 68 70  1  0  0  0
 68146  1  0  0  0
 69 71  1  0  0  0
 69147  1  0  0  0
 69148  1  0  0  0
 70149  1  0  0  0
 70150  1  0  0  0
 70151  1  0  0  0
 71152  1  0  0  0
 71153  1  0  0  0
 71154  1  0  0  0
 72 73  1  0  0  0
 72155  1  0  0  0
 73 74  1  0  0  0
 73 76  1  0  0  0
 73156  1  0  0  0
 74 75  2  0  0  0
 74 77  1  0  0  0
 76157  1  0  0  0
 76158  1  0  0  0
 76159  1  0  0  0
 77160  1  0  0  0
M  CHG  3   1   1  16   1  63   1
M  END
> <s_m_source_file>
../3iqq_ligand.sdf

> <i_m_source_file_index>
1

> <s_epik_input>
W09IXVtDQEhdKFtDSDNdKVtDQEhdKFtOSDMrXSlDKD1PKVtOSF1bQ0BASF0oW0NIMl1bQ0gyXVtDSDJdW0NIMl1bTkgzK10pQyg9TylbTkhdW0NAQEhdKFtDQEBIXShbQ0gzXSlbQ0gyXVtDSDNdKUMoPU8pW05IXVtDQEBIXShbQ0gyXUMoPU8pW09IXSlDKD1PKVtOSF1bQ0BASF0oW0NIMl1jMVtjSF1bbkhdYyhjMTIpW2NIXVtjSF1bY0hdW2NIXTIpQyg9TylbTkhdW0NAQEhdKFtDSDJdQyg9TylbTkgyXSlDKD1PKVtOSF1bQ0BASF0oW0NIMl1bQ0gyXVtDSDJdW0NIMl1bTkgzK10pQyg9TylbTkhdW0NAQEhdKFtDQEBIXShbQ0gzXSlbQ0gyXVtDSDNdKUMoPU8pW05IXVtDQEBIXShbQ0gzXSlDKD1PKVtPSF0=

> <s_epik_cmdline>
J2VwaWtfYXBwJywgJy1pbWFlJywgJ2xpZ2FuZF9wcm8ubWFlJywgJy1vbWFlJywgJ2xpZ2FuZF9wcmVwLm1hZScsICctbXMnLCAnMScsICctcGgnLCAnNycsICctcGh0JywgJzAuNScsICctbnQn

> <s_epik_pKa_notes>
Molecule size exceeds maximum supported for generating protonation states

$$$$
