3iqu_ligand
                    3D
 Schrodinger Suite 2020-3.
 97 96  0  0  1  0            999 V2000
   -9.3840   -5.9010   15.5660 N   0  3  0  0  0  0
   -9.5800   -7.0640   14.6800 C   0  0  2  0  0  0
  -10.7580   -7.8880   15.1960 C   0  0  0  0  0  0
  -10.8040   -8.2760   16.4060 O   0  0  0  0  0  0
   -8.3120   -7.9410   14.5980 C   0  0  0  0  0  0
   -8.4740   -9.0930   13.5610 C   0  0  0  0  0  0
   -7.2360   -9.9810   13.4660 C   0  0  0  0  0  0
   -6.1280   -9.5090   13.9230 O   0  0  0  0  0  0
   -7.3570  -11.2960   12.8920 N   0  0  0  0  0  0
  -11.7320   -8.1540   14.3200 N   0  0  0  0  0  0
  -12.8760   -9.0040   14.7140 C   0  0  2  0  0  0
  -12.5330  -10.4360   14.3710 C   0  0  0  0  0  0
  -11.6160  -10.7210   13.5750 O   0  0  0  0  0  0
  -14.2020   -8.5550   14.0460 C   0  0  0  0  0  0
  -14.9610   -7.3550   14.7030 C   0  0  0  0  0  0
  -16.2170   -6.8650   13.9510 C   0  0  0  0  0  0
  -17.1970   -7.9590   13.7610 N   0  0  0  0  0  0
  -18.0970   -8.3500   14.6370 C   0  0  0  0  0  0
  -18.1940   -7.7780   15.8080 N   0  3  0  0  0  0
  -18.8810   -9.3810   14.3310 N   0  0  0  0  0  0
  -13.2690  -11.3890   14.9610 N   0  0  0  0  0  0
  -13.1760  -12.7630   14.5580 C   0  0  2  0  0  0
  -13.6320  -12.8900   13.1030 C   0  0  0  0  0  0
  -14.5540  -12.2000   12.6940 O   0  0  0  0  0  0
  -14.0250  -13.6320   15.4230 C   0  0  0  0  0  0
  -13.5420  -13.6770   16.7870 O   0  0  0  0  0  0
  -12.9580  -13.7720   12.3490 N   0  0  0  0  0  0
  -13.2700  -13.9940   10.9530 C   0  0  2  0  0  0
  -14.2460  -15.1260   10.7860 C   0  0  0  0  0  0
  -14.0320  -16.2050   11.3070 O   0  0  0  0  0  0
  -11.9630  -14.3460   10.1900 C   0  0  2  0  0  0
  -11.0080  -13.3090   10.3330 O   0  0  0  0  0  0
  -12.2580  -14.5810    8.7610 C   0  0  0  0  0  0
  -15.2780  -14.8670   10.0040 N   0  0  0  0  0  0
  -16.2390  -15.8700    9.5880 C   0  0  1  0  0  0
  -17.6140  -15.5820   10.1080 C   0  0  0  0  0  0
  -18.0100  -14.2970    9.5690 O   0  0  0  0  0  0
  -16.2400  -15.9650    8.0640 C   0  0  0  0  0  0
  -15.6140  -15.1290    7.4120 O   0  0  0  0  0  0
  -19.4270  -13.6790    9.9900 P   0  0  0  0  0  0
  -19.3910  -13.3510   11.4650 O   0  5  0  0  0  0
  -20.4700  -14.7070    9.6760 O   0  0  0  0  0  0
  -19.5220  -12.4340    9.1420 O   0  5  0  0  0  0
  -16.9210  -16.9470    7.5160 N   0  0  0  0  0  0
  -16.9830  -17.0930    6.0950 C   0  0  2  0  0  0
  -18.4170  -17.4810    5.6310 C   0  0  0  0  0  0
  -19.1610  -18.0810    6.3030 O   0  0  0  0  0  0
  -16.0350  -18.1190    5.5780 C   0  0  2  0  0  0
  -15.8260  -17.9310    4.1640 O   0  0  0  0  0  0
  -16.6700  -19.5700    5.9830 C   0  0  0  0  0  0
  -18.7260  -17.2020    4.4600 O   0  5  0  0  0  0
  -10.3073   -5.3039   15.5970 H   0  0  0  0  0  0
   -8.5598   -5.2821   15.1817 H   0  0  0  0  0  0
   -9.1387   -6.2498   16.5800 H   0  0  0  0  0  0
   -9.7964   -6.6569   13.6813 H   0  0  0  0  0  0
   -7.4559   -7.3203   14.2950 H   0  0  0  0  0  0
   -8.1107   -8.3876   15.5829 H   0  0  0  0  0  0
   -9.3231   -9.7298   13.8500 H   0  0  0  0  0  0
   -8.6586   -8.6659   12.5643 H   0  0  0  0  0  0
   -8.3306  -11.6452   12.5176 H   0  0  0  0  0  0
   -6.4759  -11.9513   12.8279 H   0  0  0  0  0  0
  -11.6804   -7.7381   13.3030 H   0  0  0  0  0  0
  -13.0007   -8.9010   15.8020 H   0  0  0  0  0  0
  -14.0038   -8.2458   13.0091 H   0  0  0  0  0  0
  -14.9158   -9.3919   14.0490 H   0  0  0  0  0  0
  -15.2970   -7.6411   15.7106 H   0  0  0  0  0  0
  -14.2865   -6.4889   14.7736 H   0  0  0  0  0  0
  -16.6993   -6.0617   14.5273 H   0  0  0  0  0  0
  -15.9261   -6.4825   12.9615 H   0  0  0  0  0  0
  -17.2129   -8.5256   12.8183 H   0  0  0  0  0  0
  -17.5453   -6.9260   16.0593 H   0  0  0  0  0  0
  -18.7981   -9.8613   13.3449 H   0  0  0  0  0  0
  -19.6119   -9.7528   15.0642 H   0  0  0  0  0  0
  -13.9551  -11.0984   15.7702 H   0  0  0  0  0  0
  -12.1229  -13.0478   14.6989 H   0  0  0  0  0  0
  -15.0540  -13.2433   15.4357 H   0  0  0  0  0  0
  -14.0253  -14.6574   15.0248 H   0  0  0  0  0  0
  -14.0718  -14.2808   17.5384 H   0  0  0  0  0  0
  -12.1435  -14.3361   12.8270 H   0  0  0  0  0  0
  -13.7444  -13.0630   10.6092 H   0  0  0  0  0  0
  -11.4627  -15.2383   10.5944 H   0  0  0  0  0  0
  -10.6731  -13.0041   11.3354 H   0  0  0  0  0  0
  -12.9999  -15.3877    8.6676 H   0  0  0  0  0  0
  -11.3341  -14.8702    8.2386 H   0  0  0  0  0  0
  -12.6595  -13.6600    8.3132 H   0  0  0  0  0  0
  -15.3883  -13.8260    9.6661 H   0  0  0  0  0  0
  -15.9120  -16.8125   10.0514 H   0  0  0  0  0  0
  -18.3042  -16.3719    9.7767 H   0  0  0  0  0  0
  -17.5915  -15.5522   11.2074 H   0  0  0  0  0  0
  -17.4473  -17.6617    8.1658 H   0  0  0  0  0  0
  -16.6516  -16.1021    5.7511 H   0  0  0  0  0  0
  -15.0128  -17.9427    5.9440 H   0  0  0  0  0  0
  -15.4026  -16.9866    3.7914 H   0  0  0  0  0  0
  -16.7939  -19.6242    7.0747 H   0  0  0  0  0  0
  -15.9942  -20.3717    5.6504 H   0  0  0  0  0  0
  -17.6491  -19.6904    5.4964 H   0  0  0  0  0  0
  -18.9244   -8.1486   16.5423 H   0  0  0  0  0  0
  1  2  1  0  0  0
  1 52  1  0  0  0
  1 53  1  0  0  0
  1 54  1  0  0  0
  2  3  1  0  0  0
  2  5  1  0  0  0
  2 55  1  0  0  0
  3  4  2  0  0  0
  3 10  1  0  0  0
  5  6  1  0  0  0
  5 56  1  0  0  0
  5 57  1  0  0  0
  6  7  1  0  0  0
  6 58  1  0  0  0
  6 59  1  0  0  0
  7  8  2  0  0  0
  7  9  1  0  0  0
  9 60  1  0  0  0
  9 61  1  0  0  0
 10 11  1  0  0  0
 10 62  1  0  0  0
 11 12  1  0  0  0
 11 14  1  0  0  0
 11 63  1  0  0  0
 12 13  2  0  0  0
 12 21  1  0  0  0
 14 15  1  0  0  0
 14 64  1  0  0  0
 14 65  1  0  0  0
 15 16  1  0  0  0
 15 66  1  0  0  0
 15 67  1  0  0  0
 16 17  1  0  0  0
 16 68  1  0  0  0
 16 69  1  0  0  0
 17 18  1  0  0  0
 17 70  1  0  0  0
 18 19  2  0  0  0
 18 20  1  0  0  0
 19 71  1  0  0  0
 19 97  1  0  0  0
 20 72  1  0  0  0
 20 73  1  0  0  0
 21 22  1  0  0  0
 21 74  1  0  0  0
 22 23  1  0  0  0
 22 25  1  0  0  0
 22 75  1  0  0  0
 23 24  2  0  0  0
 23 27  1  0  0  0
 25 26  1  0  0  0
 25 76  1  0  0  0
 25 77  1  0  0  0
 26 78  1  0  0  0
 27 28  1  0  0  0
 27 79  1  0  0  0
 28 29  1  0  0  0
 28 31  1  0  0  0
 28 80  1  0  0  0
 29 30  2  0  0  0
 29 34  1  0  0  0
 31 32  1  0  0  0
 31 33  1  0  0  0
 31 81  1  0  0  0
 32 82  1  0  0  0
 33 83  1  0  0  0
 33 84  1  0  0  0
 33 85  1  0  0  0
 34 35  1  0  0  0
 34 86  1  0  0  0
 35 36  1  0  0  0
 35 38  1  0  0  0
 35 87  1  0  0  0
 36 37  1  0  0  0
 36 88  1  0  0  0
 36 89  1  0  0  0
 37 40  1  0  0  0
 38 39  2  0  0  0
 38 44  1  0  0  0
 40 41  1  0  0  0
 40 42  2  0  0  0
 40 43  1  0  0  0
 44 45  1  0  0  0
 44 90  1  0  0  0
 45 46  1  0  0  0
 45 48  1  0  0  0
 45 91  1  0  0  0
 46 47  2  0  0  0
 46 51  1  0  0  0
 48 49  1  0  0  0
 48 50  1  0  0  0
 48 92  1  0  0  0
 49 93  1  0  0  0
 50 94  1  0  0  0
 50 95  1  0  0  0
 50 96  1  0  0  0
M  CHG  5   1   1  19   1  41  -1  43  -1  51  -1
M  END
> <s_m_source_file>
../3iqu_ligand.sdf

> <i_m_source_file_index>
1

> <s_epik_input>
Tz1DKFtOSDJdKVtDSDJdW0NIMl1bQ0BIXShbTkgzK10pQyg9TylbTkhdW0NAQEhdKFtDSDJdW0NIMl1bQ0gyXVtOSF0vQyg9TlxbSF0pW05IMl0pQyg9TylbTkhdW0NAQEhdKFtDSDJdW09IXSlDKD1PKVtOSF1bQ0BASF0oW0NASF0oW09IXSlbQ0gzXSlDKD1PKVtOSF1bQ0BASF0oW0NIMl1PUCg9TykoW09IXSlbT0hdKUMoPU8pW05IXVtDQEhdKEMoPU8pW09IXSlbQ0BIXShbT0hdKVtDSDNd

> <s_epik_cmdline>
J2VwaWtfYXBwJywgJy1pbWFlJywgJ2xpZ2FuZF9wcm8ubWFlJywgJy1vbWFlJywgJ2xpZ2FuZF9wcmVwLm1hZScsICctbXMnLCAnMScsICctcGgnLCAnNycsICctcGh0JywgJzAuNScsICctbnQn

> <r_epik_Ionization_Penalty>
  0.2642

> <r_epik_Ionization_Penalty_Charging>
  0.2642

> <r_epik_Ionization_Penalty_Neutral>
  0.0000

> <r_epik_State_Penalty>
  0.2253

> <r_epik_Charging_Adjusted_Penalty>
0.489478204095475

> <i_epik_Tot_Q>
-1

> <i_epik_Tot_abs_Q>
5

> <s_epik_Chemistry_Notes>
This compound has an imine and may undergo hydrolysis.

$$$$
