3iqv_ligand
                    3D
 Schrodinger Suite 2020-3.
 97 96  0  0  1  0            999 V2000
   -9.4450   -5.4840   15.2650 N   0  3  0  0  0  0
   -9.6870   -6.7550   14.4760 C   0  0  2  0  0  0
  -10.8650   -7.5420   15.0280 C   0  0  0  0  0  0
  -10.9470   -7.8540   16.2330 O   0  0  0  0  0  0
   -8.4940   -7.7050   14.4920 C   0  0  0  0  0  0
   -8.5250   -8.7360   13.3790 C   0  0  0  0  0  0
   -7.2910   -9.5980   13.3850 C   0  0  0  0  0  0
   -6.1920   -9.1070   13.7670 O   0  0  0  0  0  0
   -7.4260  -10.8830   12.9320 N   0  0  0  0  0  0
  -11.8110   -7.8130   14.1550 N   0  0  0  0  0  0
  -12.9520   -8.6590   14.5450 C   0  0  2  0  0  0
  -12.6240  -10.1100   14.2710 C   0  0  0  0  0  0
  -11.7740  -10.4060   13.4060 O   0  0  0  0  0  0
  -14.2150   -8.2170   13.7930 C   0  0  0  0  0  0
  -14.8150   -6.9570   14.3860 C   0  0  0  0  0  0
  -16.0750   -6.4510   13.6660 C   0  0  0  0  0  0
  -17.0570   -7.5120   13.3900 N   0  0  0  0  0  0
  -17.1970   -8.1540   12.2330 C   0  0  0  0  0  0
  -16.4860   -7.7940   11.1540 N   0  0  0  0  0  0
  -18.1060   -9.1230   12.1720 N   0  3  0  0  0  0
  -13.3590  -11.0430   14.9160 N   0  0  0  0  0  0
  -13.3200  -12.4490   14.4770 C   0  0  2  0  0  0
  -13.7860  -12.5480   13.0370 C   0  0  0  0  0  0
  -14.7240  -11.8440   12.6340 O   0  0  0  0  0  0
  -14.1930  -13.3080   15.3930 C   0  0  0  0  0  0
  -13.6930  -13.2800   16.7320 O   0  0  0  0  0  0
  -13.1370  -13.4090   12.2430 N   0  0  0  0  0  0
  -13.4810  -13.6090   10.8630 C   0  0  2  0  0  0
  -14.4630  -14.8100   10.6390 C   0  0  0  0  0  0
  -14.2210  -15.8590   11.1670 O   0  0  0  0  0  0
  -12.2210  -13.8960   10.0020 C   0  0  2  0  0  0
  -11.2520  -12.8790   10.1700 O   0  0  0  0  0  0
  -12.5730  -13.9630    8.5960 C   0  0  0  0  0  0
  -15.5090  -14.5920    9.8260 N   0  0  0  0  0  0
  -16.4490  -15.6670    9.4680 C   0  0  1  0  0  0
  -17.7830  -15.3120   10.0210 C   0  0  0  0  0  0
  -18.2410  -14.0590    9.4680 O   0  0  0  0  0  0
  -16.4970  -15.7620    7.9870 C   0  0  0  0  0  0
  -15.8760  -14.9250    7.3250 O   0  0  0  0  0  0
  -19.6070  -13.4160    9.9390 P   0  0  0  0  0  0
  -19.5280  -13.1520   11.4460 O   0  5  0  0  0  0
  -20.6980  -14.3940    9.5710 O   0  0  0  0  0  0
  -19.6490  -12.1200    9.1580 O   0  5  0  0  0  0
  -17.1720  -16.7480    7.4350 N   0  0  0  0  0  0
  -17.3960  -16.8890    6.0140 C   0  0  2  0  0  0
  -18.8190  -17.2810    5.6260 C   0  0  0  0  0  0
  -19.1270  -17.2410    4.4090 O   0  5  0  0  0  0
  -16.4180  -17.9330    5.4650 C   0  0  2  0  0  0
  -16.2650  -17.6680    4.0720 O   0  0  0  0  0  0
  -16.9270  -19.4040    5.9320 C   0  0  0  0  0  0
  -19.6860  -17.5900    6.4550 O   0  0  0  0  0  0
  -10.3389   -4.8450   15.2140 H   0  0  0  0  0  0
   -8.5850   -4.9463   14.8392 H   0  0  0  0  0  0
   -9.2355   -5.7382   16.3145 H   0  0  0  0  0  0
   -9.8809   -6.4033   13.4519 H   0  0  0  0  0  0
   -7.5643   -7.1279   14.3799 H   0  0  0  0  0  0
   -8.4734   -8.2517   15.4463 H   0  0  0  0  0  0
   -9.4027   -9.3867   13.5063 H   0  0  0  0  0  0
   -8.5856   -8.2246   12.4070 H   0  0  0  0  0  0
   -8.4115  -11.2530   12.6128 H   0  0  0  0  0  0
   -6.5490  -11.5454   12.8873 H   0  0  0  0  0  0
  -11.7502   -7.4081   13.1341 H   0  0  0  0  0  0
  -13.1093   -8.5345   15.6265 H   0  0  0  0  0  0
  -13.9640   -8.0166   12.7409 H   0  0  0  0  0  0
  -14.9704   -9.0150   13.8442 H   0  0  0  0  0  0
  -15.0977   -7.1430   15.4326 H   0  0  0  0  0  0
  -14.0751   -6.1441   14.3450 H   0  0  0  0  0  0
  -16.5737   -5.6935   14.2885 H   0  0  0  0  0  0
  -15.7918   -6.0044   12.7015 H   0  0  0  0  0  0
  -17.7546   -7.8340   14.1772 H   0  0  0  0  0  0
  -15.7399   -6.9893   11.2304 H   0  0  0  0  0  0
  -16.6491   -8.3034   10.1928 H   0  0  0  0  0  0
  -18.6761   -9.3997   13.0711 H   0  0  0  0  0  0
  -13.9872  -10.7508   15.7704 H   0  0  0  0  0  0
  -12.2757  -12.7885   14.5414 H   0  0  0  0  0  0
  -15.2223  -12.9202   15.3879 H   0  0  0  0  0  0
  -14.1910  -14.3473   15.0326 H   0  0  0  0  0  0
  -14.2058  -13.8475   17.5226 H   0  0  0  0  0  0
  -12.3077  -13.9762   12.6909 H   0  0  0  0  0  0
  -13.9495  -12.6389   10.6408 H   0  0  0  0  0  0
  -11.7313  -14.8382   10.2891 H   0  0  0  0  0  0
  -10.8480  -12.6641   11.1703 H   0  0  0  0  0  0
  -13.3269  -14.7494    8.4439 H   0  0  0  0  0  0
  -11.6756  -14.1959    8.0041 H   0  0  0  0  0  0
  -12.9834  -12.9945    8.2742 H   0  0  0  0  0  0
  -15.6542  -13.5781    9.4247 H   0  0  0  0  0  0
  -16.1286  -16.6348    9.8812 H   0  0  0  0  0  0
  -18.5066  -16.1008    9.7677 H   0  0  0  0  0  0
  -17.7129  -15.2162   11.1146 H   0  0  0  0  0  0
  -17.5777  -17.4955    8.1326 H   0  0  0  0  0  0
  -17.2224  -15.8715    5.6337 H   0  0  0  0  0  0
  -15.3666  -17.8053    5.7621 H   0  0  0  0  0  0
  -15.9216  -16.6789    3.7348 H   0  0  0  0  0  0
  -16.9899  -19.4388    7.0296 H   0  0  0  0  0  0
  -16.2160  -20.1665    5.5811 H   0  0  0  0  0  0
  -17.9196  -19.6023    5.5013 H   0  0  0  0  0  0
  -18.2877   -9.6477   11.2224 H   0  0  0  0  0  0
  1  2  1  0  0  0
  1 52  1  0  0  0
  1 53  1  0  0  0
  1 54  1  0  0  0
  2  3  1  0  0  0
  2  5  1  0  0  0
  2 55  1  0  0  0
  3  4  2  0  0  0
  3 10  1  0  0  0
  5  6  1  0  0  0
  5 56  1  0  0  0
  5 57  1  0  0  0
  6  7  1  0  0  0
  6 58  1  0  0  0
  6 59  1  0  0  0
  7  8  2  0  0  0
  7  9  1  0  0  0
  9 60  1  0  0  0
  9 61  1  0  0  0
 10 11  1  0  0  0
 10 62  1  0  0  0
 11 12  1  0  0  0
 11 14  1  0  0  0
 11 63  1  0  0  0
 12 13  2  0  0  0
 12 21  1  0  0  0
 14 15  1  0  0  0
 14 64  1  0  0  0
 14 65  1  0  0  0
 15 16  1  0  0  0
 15 66  1  0  0  0
 15 67  1  0  0  0
 16 17  1  0  0  0
 16 68  1  0  0  0
 16 69  1  0  0  0
 17 18  1  0  0  0
 17 70  1  0  0  0
 18 19  1  0  0  0
 18 20  2  0  0  0
 19 71  1  0  0  0
 19 72  1  0  0  0
 20 73  1  0  0  0
 20 97  1  0  0  0
 21 22  1  0  0  0
 21 74  1  0  0  0
 22 23  1  0  0  0
 22 25  1  0  0  0
 22 75  1  0  0  0
 23 24  2  0  0  0
 23 27  1  0  0  0
 25 26  1  0  0  0
 25 76  1  0  0  0
 25 77  1  0  0  0
 26 78  1  0  0  0
 27 28  1  0  0  0
 27 79  1  0  0  0
 28 29  1  0  0  0
 28 31  1  0  0  0
 28 80  1  0  0  0
 29 30  2  0  0  0
 29 34  1  0  0  0
 31 32  1  0  0  0
 31 33  1  0  0  0
 31 81  1  0  0  0
 32 82  1  0  0  0
 33 83  1  0  0  0
 33 84  1  0  0  0
 33 85  1  0  0  0
 34 35  1  0  0  0
 34 86  1  0  0  0
 35 36  1  0  0  0
 35 38  1  0  0  0
 35 87  1  0  0  0
 36 37  1  0  0  0
 36 88  1  0  0  0
 36 89  1  0  0  0
 37 40  1  0  0  0
 38 39  2  0  0  0
 38 44  1  0  0  0
 40 41  1  0  0  0
 40 42  2  0  0  0
 40 43  1  0  0  0
 44 45  1  0  0  0
 44 90  1  0  0  0
 45 46  1  0  0  0
 45 48  1  0  0  0
 45 91  1  0  0  0
 46 47  1  0  0  0
 46 51  2  0  0  0
 48 49  1  0  0  0
 48 50  1  0  0  0
 48 92  1  0  0  0
 49 93  1  0  0  0
 50 94  1  0  0  0
 50 95  1  0  0  0
 50 96  1  0  0  0
M  CHG  5   1   1  20   1  41  -1  43  -1  47  -1
M  END
> <s_m_source_file>
../3iqv_ligand.sdf

> <i_m_source_file_index>
1

> <s_epik_input>
Tz1DKFtOSDJdKVtDSDJdW0NIMl1bQ0BIXShbTkgzK10pQyg9TylbTkhdW0NAQEhdKFtDSDJdW0NIMl1bQ0gyXVtOSF0vQyhbTkgyXSk9TlxbSF0pQyg9TylbTkhdW0NAQEhdKFtDSDJdW09IXSlDKD1PKVtOSF1bQ0BASF0oW0NASF0oW09IXSlbQ0gzXSlDKD1PKVtOSF1bQ0BASF0oW0NIMl1PUCg9TykoW09IXSlbT0hdKUMoPU8pW05IXVtDQEhdKEMoPU8pW09IXSlbQ0BIXShbT0hdKVtDSDNd

> <s_epik_cmdline>
J2VwaWtfYXBwJywgJy1pbWFlJywgJ2xpZ2FuZF9wcm8ubWFlJywgJy1vbWFlJywgJ2xpZ2FuZF9wcmVwLm1hZScsICctbXMnLCAnMScsICctcGgnLCAnNycsICctcGh0JywgJzAuNScsICctbnQn

> <r_epik_Ionization_Penalty>
  0.2642

> <r_epik_Ionization_Penalty_Charging>
  0.2642

> <r_epik_Ionization_Penalty_Neutral>
  0.0000

> <r_epik_State_Penalty>
  0.2253

> <r_epik_Charging_Adjusted_Penalty>
0.489465343007617

> <i_epik_Tot_Q>
-1

> <i_epik_Tot_abs_Q>
5

> <s_epik_Chemistry_Notes>
This compound has an imine and may undergo hydrolysis.

$$$$
