3irx_ligand
                    3D
 Schrodinger Suite 2020-3.
 65 68  0  0  1  0            999 V2000
  -52.0760  -31.9410  -35.0700 C   0  0  0  0  0  0
  -54.5510  -28.6040  -37.9260 C   0  0  0  0  0  0
  -48.7850  -32.6170  -35.5650 C   0  0  0  0  0  0
  -52.8040  -24.4250  -36.7700 C   0  0  0  0  0  0
  -46.0340  -31.5230  -43.5850 C   0  0  0  0  0  0
  -50.9360  -34.3920  -41.1970 C   0  0  0  0  0  0
  -52.5660  -29.0180  -35.2730 O   0  0  0  0  0  0
  -49.6420  -35.5350  -43.5140 O   0  0  0  0  0  0
  -47.8660  -28.5630  -39.7730 C   0  0  0  0  0  0
  -48.6710  -31.1860  -37.6480 C   0  0  0  0  0  0
  -47.2830  -30.6730  -41.5460 C   0  0  0  0  0  0
  -50.2420  -29.4030  -38.0450 C   0  0  0  0  0  0
  -49.2000  -31.8380  -40.6710 C   0  0  0  0  0  0
  -47.8910  -27.4940  -38.8810 C   0  0  0  0  0  0
  -47.8390  -26.1570  -39.6200 C   0  0  0  0  0  0
  -49.2310  -25.7600  -40.1060 C   0  0  0  0  0  0
  -50.6100  -23.5240  -37.6710 N   0  0  0  0  0  0
  -49.7270  -23.8460  -38.4700 N   0  0  0  0  0  0
  -51.0180  -31.0060  -34.8600 O   0  0  0  0  0  0
  -51.1750  -25.4910  -38.4700 O   0  0  0  0  0  0
  -48.1460  -33.7770  -43.4440 O   0  0  0  0  0  0
  -52.9600  -27.8940  -37.5650 S   0  0  0  0  0  0
  -52.1360  -28.9330  -36.4180 C   0  0  0  0  0  0
  -48.4540  -29.8130  -39.6080 C   0  0  0  0  0  0
  -49.3110  -31.4850  -36.4500 C   0  0  0  0  0  0
  -51.5220  -24.4890  -37.6340 C   0  0  0  0  0  0
  -47.1540  -31.6410  -42.5430 C   0  0  0  0  0  0
  -49.1260  -30.1360  -38.4460 C   0  0  0  0  0  0
  -48.3060  -30.7770  -40.6140 C   0  0  0  0  0  0
  -50.0080  -25.0420  -39.0060 C   0  0  0  0  0  0
  -50.8850  -29.7050  -36.8510 C   0  0  0  0  0  0
  -50.4130  -30.7430  -36.0490 C   0  0  0  0  0  0
  -49.2200  -34.4950  -43.0050 C   0  0  0  0  0  0
  -49.0640  -32.7990  -41.6620 C   0  0  0  0  0  0
  -48.0410  -32.6970  -42.5970 C   0  0  0  0  0  0
  -49.7580  -33.9030  -41.9450 N   0  0  0  0  0  0
  -52.5695  -32.1578  -34.1111 H   0  0  0  0  0  0
  -51.6653  -32.8712  -35.4896 H   0  0  0  0  0  0
  -52.8085  -31.5145  -35.7711 H   0  0  0  0  0  0
  -55.0832  -27.9643  -38.6454 H   0  0  0  0  0  0
  -55.1377  -28.6797  -36.9986 H   0  0  0  0  0  0
  -54.4156  -29.6069  -38.3572 H   0  0  0  0  0  0
  -47.9137  -33.0845  -36.0469 H   0  0  0  0  0  0
  -49.5745  -33.3700  -35.4250 H   0  0  0  0  0  0
  -48.4886  -32.2102  -34.5869 H   0  0  0  0  0  0
  -52.8109  -23.4885  -36.1929 H   0  0  0  0  0  0
  -52.8241  -25.2812  -36.0797 H   0  0  0  0  0  0
  -53.6884  -24.4597  -37.4231 H   0  0  0  0  0  0
  -45.4347  -30.6239  -43.3789 H   0  0  0  0  0  0
  -46.4747  -31.4475  -44.5900 H   0  0  0  0  0  0
  -45.3896  -32.4130  -43.5331 H   0  0  0  0  0  0
  -51.3013  -35.3226  -41.6559 H   0  0  0  0  0  0
  -51.7306  -33.6319  -41.2268 H   0  0  0  0  0  0
  -50.6524  -34.5853  -40.1519 H   0  0  0  0  0  0
  -47.3051  -28.3360  -40.6916 H   0  0  0  0  0  0
  -47.8101  -31.7746  -37.9649 H   0  0  0  0  0  0
  -46.5831  -29.8387  -41.4995 H   0  0  0  0  0  0
  -50.6114  -28.5902  -38.6703 H   0  0  0  0  0  0
  -50.0051  -31.9153  -39.9403 H   0  0  0  0  0  0
  -48.8173  -27.5321  -38.2889 H   0  0  0  0  0  0
  -47.0230  -27.5574  -38.2083 H   0  0  0  0  0  0
  -47.4616  -25.3776  -38.9417 H   0  0  0  0  0  0
  -47.1688  -26.2436  -40.4879 H   0  0  0  0  0  0
  -49.1391  -25.0867  -40.9710 H   0  0  0  0  0  0
  -49.7875  -26.6619  -40.4008 H   0  0  0  0  0  0
  1 19  1  0  0  0
  1 37  1  0  0  0
  1 38  1  0  0  0
  1 39  1  0  0  0
  2 22  1  0  0  0
  2 40  1  0  0  0
  2 41  1  0  0  0
  2 42  1  0  0  0
  3 25  1  0  0  0
  3 43  1  0  0  0
  3 44  1  0  0  0
  3 45  1  0  0  0
  4 26  1  0  0  0
  4 46  1  0  0  0
  4 47  1  0  0  0
  4 48  1  0  0  0
  5 27  1  0  0  0
  5 49  1  0  0  0
  5 50  1  0  0  0
  5 51  1  0  0  0
  6 36  1  0  0  0
  6 52  1  0  0  0
  6 53  1  0  0  0
  6 54  1  0  0  0
  7 23  2  0  0  0
  8 33  2  0  0  0
  9 14  1  0  0  0
  9 24  2  0  0  0
  9 55  1  0  0  0
 10 25  2  0  0  0
 10 28  1  0  0  0
 10 56  1  0  0  0
 11 27  2  0  0  0
 11 29  1  0  0  0
 11 57  1  0  0  0
 12 28  2  0  0  0
 12 31  1  0  0  0
 12 58  1  0  0  0
 13 29  2  0  0  0
 13 34  1  0  0  0
 13 59  1  0  0  0
 14 15  1  0  0  0
 14 60  1  0  0  0
 14 61  1  0  0  0
 15 16  1  0  0  0
 15 62  1  0  0  0
 15 63  1  0  0  0
 16 30  1  0  0  0
 16 64  1  0  0  0
 16 65  1  0  0  0
 17 18  1  0  0  0
 17 26  2  0  0  0
 18 30  2  0  0  0
 19 32  1  0  0  0
 20 26  1  0  0  0
 20 30  1  0  0  0
 21 33  1  0  0  0
 21 35  1  0  0  0
 22 23  1  0  0  0
 23 31  1  0  0  0
 24 28  1  0  0  0
 24 29  1  0  0  0
 25 32  1  0  0  0
 27 35  1  0  0  0
 31 32  2  0  0  0
 33 36  1  0  0  0
 34 35  2  0  0  0
 34 36  1  0  0  0
M  END
> <s_m_source_file>
../3irx_ligand.sdf

> <i_m_source_file_index>
1

> <s_epik_input>
W0NIM11uMWMoPU8pb2MoYzEyKWMoW0NIM10pW2NIXWMoW2NIXTIpQyhcYyhbY0hdYzNbQ0gzXSlbY0hdYyhDKD1PKVNbQ0gzXSljM09bQ0gzXSk9W0NIXVxbQ0gyXVtDSDJdW0NIMl1jKG80KW5uYzRbQ0gzXQ==

> <s_epik_cmdline>
J2VwaWtfYXBwJywgJy1pbWFlJywgJ2xpZ2FuZF9wcm8ubWFlJywgJy1vbWFlJywgJ2xpZ2FuZF9wcmVwLm1hZScsICctbXMnLCAnMScsICctcGgnLCAnNycsICctcGh0JywgJzAuNScsICctbnQn

> <r_lp_tautomer_probability>
1

> <r_epik_Ionization_Penalty>
  0.0000

> <r_epik_Ionization_Penalty_Charging>
  0.0000

> <r_epik_Ionization_Penalty_Neutral>
  0.0000

> <r_epik_State_Penalty>
 -0.0000

> <r_epik_Charging_Adjusted_Penalty>
2.06546480867261e-14

> <i_epik_Tot_Q>
0

> <i_epik_Tot_abs_Q>
0

$$$$
