3is9_ligand
                    3D
 Schrodinger Suite 2020-3.
 63 64  0  0  1  0            999 V2000
   50.0780  -28.7320   38.2230 C   0  0  0  0  0  0
   51.1610  -30.4810   35.0620 O   0  0  0  0  0  0
   50.8800  -29.0920   37.0940 C   0  0  0  0  0  0
   46.2770  -33.0780   43.3100 O   0  0  0  0  0  0
   50.4020  -30.1070   36.1830 C   0  0  0  0  0  0
   50.8840  -23.4290   36.9350 O   0  0  0  0  0  0
   49.0810  -30.6380   36.3720 C   0  0  0  0  0  0
   48.3140  -30.2690   37.4840 C   0  0  0  0  0  0
   52.7230  -27.4860   37.9320 O   0  0  0  0  0  0
   48.7630  -29.2870   38.4090 C   0  0  0  0  0  0
   52.2600  -28.4570   36.9450 C   0  0  0  0  0  0
   48.4850  -34.6450   42.2630 O   0  0  0  0  0  0
   47.8620  -28.8750   39.6160 C   0  0  0  0  0  0
   47.3970  -27.5950   39.7910 C   0  0  0  0  0  0
   46.6500  -32.0640   42.4300 C   0  0  0  0  0  0
   45.9410  -30.8010   42.4270 C   0  0  0  0  0  0
   46.3310  -29.7760   41.5070 C   0  0  0  0  0  0
   47.4390  -29.9640   40.6240 C   0  0  0  0  0  0
   48.1220  -31.1970   40.6590 C   0  0  0  0  0  0
   47.7750  -32.2300   41.5400 C   0  0  0  0  0  0
   48.6310  -33.4810   41.4210 C   0  0  0  0  0  0
   47.6760  -26.4120   38.8800 C   0  0  0  0  0  0
   48.8430  -25.5930   39.3880 C   0  0  0  0  0  0
   49.0600  -24.3980   38.4590 C   0  0  0  0  0  0
   50.3360  -24.5690   37.6550 C   0  0  0  0  0  0
   52.1170  -23.4990   36.2090 C   0  0  0  0  0  0
   51.0120  -29.8900   33.7540 C   0  0  0  0  0  0
   45.2570  -34.0320   42.9220 C   0  0  0  0  0  0
   53.9920  -27.6510   38.5720 C   0  0  0  0  0  0
   49.1610  -35.8510   41.8700 C   0  0  0  0  0  0
   52.9960  -28.7190   35.9900 O   0  0  0  0  0  0
   49.5160  -33.5310   40.5610 O   0  0  0  0  0  0
   50.9150  -25.6540   37.5960 O   0  0  0  0  0  0
   48.1740  -32.3420   34.8860 N   0  0  0  0  0  0
   44.0190  -30.3670   43.9280 N   0  0  0  0  0  0
   48.6020  -31.5380   35.5970 C   0  0  0  0  0  0
   44.9210  -30.5790   43.2150 C   0  0  0  0  0  0
   50.4696  -28.0254   38.9547 H   0  0  0  0  0  0
   47.3477  -30.7470   37.6446 H   0  0  0  0  0  0
   46.7604  -27.3544   40.6552 H   0  0  0  0  0  0
   45.7751  -28.8388   41.4795 H   0  0  0  0  0  0
   48.9542  -31.3531   39.9725 H   0  0  0  0  0  0
   47.9159  -26.7756   37.8699 H   0  0  0  0  0  0
   46.7869  -25.7658   38.8355 H   0  0  0  0  0  0
   48.6248  -25.2353   40.4051 H   0  0  0  0  0  0
   49.7489  -26.2168   39.4052 H   0  0  0  0  0  0
   48.2108  -24.3142   37.7649 H   0  0  0  0  0  0
   49.1369  -23.4779   39.0569 H   0  0  0  0  0  0
   52.3278  -22.5221   35.7494 H   0  0  0  0  0  0
   52.0368  -24.2644   35.4230 H   0  0  0  0  0  0
   52.9331  -23.7642   36.8972 H   0  0  0  0  0  0
   51.7220  -30.3589   33.0568 H   0  0  0  0  0  0
   51.2156  -28.8107   33.8140 H   0  0  0  0  0  0
   49.9849  -30.0500   33.3942 H   0  0  0  0  0  0
   45.0982  -34.7515   43.7388 H   0  0  0  0  0  0
   45.5817  -34.5688   42.0185 H   0  0  0  0  0  0
   44.3171  -33.4997   42.7143 H   0  0  0  0  0  0
   54.1577  -26.8227   39.2766 H   0  0  0  0  0  0
   54.7881  -27.6516   37.8129 H   0  0  0  0  0  0
   54.0057  -28.6056   39.1185 H   0  0  0  0  0  0
   48.9554  -36.6428   42.6053 H   0  0  0  0  0  0
   50.2443  -35.6657   41.8239 H   0  0  0  0  0  0
   48.8006  -36.1674   40.8800 H   0  0  0  0  0  0
  1  3  2  0  0  0
  1 10  1  0  0  0
  1 38  1  0  0  0
  2  5  1  0  0  0
  2 27  1  0  0  0
  3  5  1  0  0  0
  3 11  1  0  0  0
  4 15  1  0  0  0
  4 28  1  0  0  0
  5  7  2  0  0  0
  6 25  1  0  0  0
  6 26  1  0  0  0
  7  8  1  0  0  0
  7 36  1  0  0  0
  8 10  2  0  0  0
  8 39  1  0  0  0
  9 11  1  0  0  0
  9 29  1  0  0  0
 10 13  1  0  0  0
 11 31  2  0  0  0
 12 21  1  0  0  0
 12 30  1  0  0  0
 13 14  2  0  0  0
 13 18  1  0  0  0
 14 22  1  0  0  0
 14 40  1  0  0  0
 15 16  2  0  0  0
 15 20  1  0  0  0
 16 17  1  0  0  0
 16 37  1  0  0  0
 17 18  2  0  0  0
 17 41  1  0  0  0
 18 19  1  0  0  0
 19 20  2  0  0  0
 19 42  1  0  0  0
 20 21  1  0  0  0
 21 32  2  0  0  0
 22 23  1  0  0  0
 22 43  1  0  0  0
 22 44  1  0  0  0
 23 24  1  0  0  0
 23 45  1  0  0  0
 23 46  1  0  0  0
 24 25  1  0  0  0
 24 47  1  0  0  0
 24 48  1  0  0  0
 25 33  2  0  0  0
 26 49  1  0  0  0
 26 50  1  0  0  0
 26 51  1  0  0  0
 27 52  1  0  0  0
 27 53  1  0  0  0
 27 54  1  0  0  0
 28 55  1  0  0  0
 28 56  1  0  0  0
 28 57  1  0  0  0
 29 58  1  0  0  0
 29 59  1  0  0  0
 29 60  1  0  0  0
 30 61  1  0  0  0
 30 62  1  0  0  0
 30 63  1  0  0  0
 34 36  3  0  0  0
 35 37  3  0  0  0
M  END
> <s_m_source_file>
../3is9_ligand.sdf

> <i_m_source_file_index>
1

> <s_epik_input>
W0NIM11PYzFjKEMjTilbY0hdYyhbY0hdYzFDKD1PKU9bQ0gzXSlDKGMoW2NIXWMoQyNOKWMyT1tDSDNdKVtjSF1jMkMoPU8pT1tDSDNdKT1bQ0hdW0NIMl1bQ0gyXVtDSDJdQyg9TylPW0NIM10=

> <s_epik_cmdline>
J2VwaWtfYXBwJywgJy1pbWFlJywgJ2xpZ2FuZF9wcm8ubWFlJywgJy1vbWFlJywgJ2xpZ2FuZF9wcmVwLm1hZScsICctbXMnLCAnMScsICctcGgnLCAnNycsICctcGh0JywgJzAuNScsICctbnQn

> <r_lp_tautomer_probability>
1

> <r_epik_Ionization_Penalty>
  0.0000

> <r_epik_Ionization_Penalty_Charging>
  0.0000

> <r_epik_Ionization_Penalty_Neutral>
  0.0000

> <r_epik_State_Penalty>
 -0.0000

> <r_epik_Charging_Adjusted_Penalty>
0

> <i_epik_Tot_Q>
0

> <i_epik_Tot_abs_Q>
0

> <s_epik_Chemistry_Notes>
This compound has an ester and may undergo hydrolysis at high or low pH.

$$$$
