3isj_ligand
                    3D
 Schrodinger Suite 2020-3.
 28 29  0  0  1  0            999 V2000
   11.0400    9.5660   -5.2060 C   0  0  0  0  0  0
   14.2820   10.5410    4.7060 C   0  0  0  0  0  0
   17.0380   11.3770    1.0800 O   0  5  0  0  0  0
   16.8010   10.4920    3.8290 O   0  0  0  0  0  0
   15.7360   12.7050    3.6400 O   0  0  0  0  0  0
   14.6860   10.1600   -4.7680 C   0  0  0  0  0  0
   15.6850   10.4580   -3.8230 C   0  0  0  0  0  0
   13.0970    9.9720   -2.9520 C   0  0  0  0  0  0
   14.1390   10.4010   -0.7280 C   0  0  0  0  0  0
   14.9930   10.8070    1.9470 N   0  0  0  0  0  0
   16.1710   10.7820   -1.4720 N   0  0  0  0  0  0
   12.4860    9.5880   -5.3440 O   0  0  0  0  0  0
   15.8730   10.9740    0.9110 C   0  0  0  0  0  0
   13.3710    9.9150   -4.3520 C   0  0  0  0  0  0
   15.3970   10.7170   -0.3580 C   0  0  3  0  0  0
   14.1150   10.2490   -2.0700 C   0  0  0  0  0  0
   15.3830   10.5020   -2.5250 C   0  0  0  0  0  0
   15.5060   11.1820    3.5930 S   0  0  0  0  0  0
   10.5849    9.2680   -6.1621 H   0  0  0  0  0  0
   10.6831   10.5683   -4.9267 H   0  0  0  0  0  0
   10.7572    8.8451   -4.4248 H   0  0  0  0  0  0
   14.5775   10.7614    5.7424 H   0  0  0  0  0  0
   14.1989    9.4524    4.5721 H   0  0  0  0  0  0
   13.3108   11.0118    4.4936 H   0  0  0  0  0  0
   14.9362   10.1187   -5.8384 H   0  0  0  0  0  0
   16.7151   10.6547   -4.1550 H   0  0  0  0  0  0
   12.0757    9.7948   -2.5838 H   0  0  0  0  0  0
   13.2181   10.2633   -0.1423 H   0  0  0  0  0  0
  1 12  1  0  0  0
  1 19  1  0  0  0
  1 20  1  0  0  0
  1 21  1  0  0  0
  2 18  1  0  0  0
  2 22  1  0  0  0
  2 23  1  0  0  0
  2 24  1  0  0  0
  3 13  1  0  0  0
  4 18  2  0  0  0
  5 18  2  0  0  0
  6  7  2  0  0  0
  6 14  1  0  0  0
  6 25  1  0  0  0
  7 17  1  0  0  0
  7 26  1  0  0  0
  8 14  2  0  0  0
  8 16  1  0  0  0
  8 27  1  0  0  0
  9 15  1  0  0  0
  9 16  2  0  0  0
  9 28  1  0  0  0
 10 13  2  0  0  0
 10 18  1  0  0  0
 11 15  1  0  0  0
 11 17  2  0  0  0
 12 14  1  0  0  0
 13 15  1  0  0  0
 16 17  1  0  0  0
M  CHG  1   3  -1
M  END
> <s_m_source_file>
../3isj_ligand.sdf

> <i_m_source_file_index>
1

> <s_epik_input>
W0NIM11PYyhbY0hdMSlbY0hdW2NIXWMoYzEyKT1OW0NIXShbQ0hdPTIpQyg9TylbTkhdUyg9TykoPU8pW0NIM10=

> <s_epik_cmdline>
J2VwaWtfYXBwJywgJy1pbWFlJywgJ2xpZ2FuZF9wcm8ubWFlJywgJy1vbWFlJywgJ2xpZ2FuZF9wcmVwLm1hZScsICctbXMnLCAnMScsICctcGgnLCAnNycsICctcGh0JywgJzAuNScsICctbnQn

> <r_lp_tautomer_probability>
1

> <r_epik_Ionization_Penalty>
  0.0000

> <r_epik_Ionization_Penalty_Charging>
  0.0000

> <r_epik_Ionization_Penalty_Neutral>
  0.0000

> <r_epik_State_Penalty>
 -0.0000

> <r_epik_Charging_Adjusted_Penalty>
2.84142628400458e-06

> <i_epik_Tot_Q>
-1

> <i_epik_Tot_abs_Q>
1

> <s_epik_Chemistry_Notes>
This compound has an imine and may undergo hydrolysis.

$$$$
