3iss_ligand
                    3D
 Schrodinger Suite 2020-3.
 72 74  0  0  1  0            999 V2000
   -6.6410  -13.4470   -3.0100 N   0  0  0  0  0  0
   -7.1240  -14.7250   -2.9110 C   0  0  0  0  0  0
   -6.6650  -15.5980   -2.0290 N   0  0  0  0  0  0
   -5.6980  -15.2340   -1.2170 C   0  0  0  0  0  0
   -5.1900  -13.9610   -1.2970 C   0  0  0  0  0  0
   -5.6850  -13.0600   -2.2130 C   0  0  0  0  0  0
   -8.0100  -15.0620   -3.6700 O   0  0  0  0  0  0
   -5.2740  -16.0480   -0.4080 O   0  0  0  0  0  0
   -7.2320  -12.5820   -4.0010 C   0  0  1  0  0  0
   -7.6600  -11.2930   -3.3680 C   0  0  2  0  0  0
   -9.0650  -11.1990   -3.4050 O   0  0  0  0  0  0
   -7.1370  -10.2390   -4.2750 C   0  0  1  0  0  0
   -6.0930  -10.9070   -5.1270 C   0  0  2  0  0  0
   -6.3210  -12.2840   -5.0350 O   0  0  0  0  0  0
   -8.2400   -9.8360   -5.0600 O   0  0  0  0  0  0
   -4.6810  -10.7320   -4.6180 C   0  0  0  0  0  0
   -4.5030   -9.6740   -3.7060 O   0  0  0  0  0  0
   -3.1430   -9.5890   -2.9850 P   0  0  1  0  0  0
   -3.0910  -10.6890   -2.0790 O   0  0  0  0  0  0
   -2.1740   -9.4550   -4.0380 O   0  5  0  0  0  0
   -3.2630   -8.2410   -2.2060 O   0  0  0  0  0  0
   -3.0210   -7.9580   -0.6700 P   0  0  2  0  0  0
   -1.8490   -8.6330   -0.1880 O   0  0  0  0  0  0
   -4.2350   -8.1290    0.0830 O   0  5  0  0  0  0
   -1.5870   -5.9570   -1.0160 C   0  0  1  0  0  0
   -1.5590   -4.5210   -0.5750 C   0  0  1  0  0  0
   -2.7840   -3.8320   -1.0950 C   0  0  2  0  0  0
   -2.6850   -3.8910   -2.5690 C   0  0  1  0  0  0
   -2.6940   -5.3370   -2.9390 C   0  0  1  0  0  0
   -2.5970   -5.3690   -4.4240 C   0  0  0  0  0  0
   -0.7350   -4.3130    1.6070 C   0  0  0  0  0  0
   -0.9520   -4.2270    3.0680 C   0  0  0  0  0  0
   -1.7740   -4.4730    0.8340 N   0  0  0  0  0  0
   -2.8150   -6.4500   -0.6700 O   0  0  0  0  0  0
   -2.7760   -2.4830   -0.7410 O   0  0  0  0  0  0
   -3.8520   -3.2760   -3.0240 O   0  0  0  0  0  0
   -1.5720   -5.9780   -2.4100 O   0  0  0  0  0  0
   -1.7830   -4.2610   -4.7070 O   0  0  0  0  0  0
    0.3520   -4.2500    1.1460 O   0  0  0  0  0  0
   -3.0590   -1.0700    1.2070 C   0  0  0  0  0  0
   -2.5150   -0.1290    0.6530 O   0  0  0  0  0  0
   -3.1390   -1.0800    2.4340 O   0  5  0  0  0  0
   -3.5950   -2.2050    0.3800 C   0  0  1  0  0  0
   -5.0050   -1.9230   -0.0830 C   0  0  0  0  0  0
   -7.0925  -16.6105   -1.9836 H   0  0  0  0  0  0
   -4.3847  -13.6598   -0.6270 H   0  0  0  0  0  0
   -5.2868  -12.0470   -2.2703 H   0  0  0  0  0  0
   -8.0626  -13.1404   -4.4573 H   0  0  0  0  0  0
   -7.3568  -11.1988   -2.3148 H   0  0  0  0  0  0
   -9.6783  -11.8871   -2.8046 H   0  0  0  0  0  0
   -6.7408   -9.3412   -3.7781 H   0  0  0  0  0  0
   -6.1921  -10.5291   -6.1553 H   0  0  0  0  0  0
   -9.0950   -9.3295   -4.5883 H   0  0  0  0  0  0
   -4.3609  -11.6493   -4.1021 H   0  0  0  0  0  0
   -4.0078  -10.5338   -5.4651 H   0  0  0  0  0  0
   -0.7821   -6.5832   -0.6037 H   0  0  0  0  0  0
   -0.6015   -4.0651   -0.8672 H   0  0  0  0  0  0
   -3.7115   -4.2505   -0.6772 H   0  0  0  0  0  0
   -1.8223   -3.3686   -3.0081 H   0  0  0  0  0  0
   -3.5572   -5.8804   -2.5271 H   0  0  0  0  0  0
   -2.1444   -6.3200   -4.7415 H   0  0  0  0  0  0
   -3.6032   -5.2784   -4.8592 H   0  0  0  0  0  0
   -2.0276   -4.3066    3.2842 H   0  0  0  0  0  0
   -0.5738   -3.2629    3.4387 H   0  0  0  0  0  0
   -0.4159   -5.0476    3.5672 H   0  0  0  0  0  0
   -2.7923   -4.5697    1.2386 H   0  0  0  0  0  0
   -4.0168   -2.2042   -2.8394 H   0  0  0  0  0  0
   -1.5261   -4.0190   -5.7489 H   0  0  0  0  0  0
   -3.5508   -3.1204    0.9884 H   0  0  0  0  0  0
   -5.3696   -2.7689   -0.6842 H   0  0  0  0  0  0
   -5.0143   -1.0081   -0.6937 H   0  0  0  0  0  0
   -5.6578   -1.7866    0.7918 H   0  0  0  0  0  0
  1  2  1  0  0  0
  1  6  1  0  0  0
  1  9  1  0  0  0
  2  3  1  0  0  0
  2  7  2  0  0  0
  3  4  1  0  0  0
  3 45  1  0  0  0
  4  5  1  0  0  0
  4  8  2  0  0  0
  5  6  2  0  0  0
  5 46  1  0  0  0
  6 47  1  0  0  0
  9 10  1  0  0  0
  9 14  1  0  0  0
  9 48  1  0  0  0
 10 11  1  0  0  0
 10 12  1  0  0  0
 10 49  1  0  0  0
 11 50  1  0  0  0
 12 13  1  0  0  0
 12 15  1  0  0  0
 12 51  1  0  0  0
 13 14  1  0  0  0
 13 16  1  0  0  0
 13 52  1  0  0  0
 15 53  1  0  0  0
 16 17  1  0  0  0
 16 54  1  0  0  0
 16 55  1  0  0  0
 17 18  1  0  0  0
 18 19  2  0  0  0
 18 20  1  0  0  0
 18 21  1  0  0  0
 21 22  1  0  0  0
 22 23  2  0  0  0
 22 24  1  0  0  0
 22 34  1  0  0  0
 25 26  1  0  0  0
 25 34  1  0  0  0
 25 37  1  0  0  0
 25 56  1  0  0  0
 26 27  1  0  0  0
 26 33  1  0  0  0
 26 57  1  0  0  0
 27 28  1  0  0  0
 27 35  1  0  0  0
 27 58  1  0  0  0
 28 29  1  0  0  0
 28 36  1  0  0  0
 28 59  1  0  0  0
 29 30  1  0  0  0
 29 37  1  0  0  0
 29 60  1  0  0  0
 30 38  1  0  0  0
 30 61  1  0  0  0
 30 62  1  0  0  0
 31 32  1  0  0  0
 31 33  1  0  0  0
 31 39  2  0  0  0
 32 63  1  0  0  0
 32 64  1  0  0  0
 32 65  1  0  0  0
 33 66  1  0  0  0
 35 43  1  0  0  0
 36 67  1  0  0  0
 38 68  1  0  0  0
 40 41  2  0  0  0
 40 42  1  0  0  0
 40 43  1  0  0  0
 43 44  1  0  0  0
 43 69  1  0  0  0
 44 70  1  0  0  0
 44 71  1  0  0  0
 44 72  1  0  0  0
M  CHG  3  20  -1  24  -1  42  -1
M  END
> <s_m_source_file>
../3iss_ligand.sdf

> <i_m_source_file_index>
1

> <s_epik_input>
W2NIXTFbY0hdYyg9TylbbkhdYyg9TyluMVtDQEhdMltDQEhdKFtPSF0pW0NASF0oW09IXSlbQ0BIXShPMilbQ0gyXU9bUEBAXSg9TykoW09IXSlPW1BAXSg9TykoW09IXSlPW0NAQEhdM1tDQEhdKFtOSF1DKD1PKVtDSDNdKVtDQEhdKFtDQEhdKFtPSF0pW0NASF0oTzMpW0NIMl1bT0hdKU9bQ0BIXShbQ0gzXSlDKD1PKVtPSF0=

> <s_epik_cmdline>
J2VwaWtfYXBwJywgJy1pbWFlJywgJ2xpZ2FuZF9wcm8ubWFlJywgJy1vbWFlJywgJ2xpZ2FuZF9wcmVwLm1hZScsICctbXMnLCAnMScsICctcGgnLCAnNycsICctcGh0JywgJzAuNScsICctbnQn

> <r_lp_tautomer_probability>
1

> <r_epik_Ionization_Penalty>
  0.0032

> <r_epik_Ionization_Penalty_Charging>
  0.0032

> <r_epik_Ionization_Penalty_Neutral>
  0.0000

> <r_epik_State_Penalty>
 -0.0000

> <r_epik_Charging_Adjusted_Penalty>
0.00319746452814325

> <i_epik_Tot_Q>
-3

> <i_epik_Tot_abs_Q>
3

> <s_epik_Chemistry_Notes>
This compound contains an acetal/aminal-like group ( X-CH(R)-Y where X, Y are N, S, or O) that may be acid/base labile, releasing an aldehyde.

$$$$
