3isw_ligand
                    3D
 Schrodinger Suite 2020-3.
292297  0  0  1  0            999 V2000
  -23.9650   33.9760   31.2390 N   0  3  0  0  0  0
  -24.4620   32.6190   30.8770 C   0  0  2  0  0  0
  -23.7650   32.0330   29.6150 C   0  0  0  0  0  0
  -24.0400   32.5010   28.4890 O   0  0  0  0  0  0
  -25.9790   32.8350   30.6380 C   0  0  0  0  0  0
  -26.1590   34.3720   30.4010 C   0  0  0  0  0  0
  -24.8310   35.0730   30.7500 C   0  0  0  0  0  0
  -22.9030   31.0190   29.8020 N   0  0  0  0  0  0
  -21.9350   30.6130   28.7510 C   0  0  2  0  0  0
  -22.0110   29.1980   28.1630 C   0  0  0  0  0  0
  -21.1780   28.8250   27.3230 O   0  0  0  0  0  0
  -20.5050   30.8220   29.2530 C   0  0  0  0  0  0
  -20.0080   32.2050   29.6470 C   0  0  0  0  0  0
  -18.5650   32.0680   30.1160 C   0  0  0  0  0  0
  -20.1380   33.2180   28.4870 C   0  0  0  0  0  0
  -22.9750   28.4100   28.6170 N   0  0  0  0  0  0
  -23.1610   27.0260   28.1530 C   0  0  2  0  0  0
  -23.7440   26.9060   26.7530 C   0  0  0  0  0  0
  -24.5260   27.7800   26.3330 O   0  0  0  0  0  0
  -24.0720   26.2310   29.1120 C   0  0  0  0  0  0
  -24.7430   27.0280   30.2330 C   0  0  0  0  0  0
  -25.8350   27.9750   29.7750 C   0  0  0  0  0  0
  -26.4880   27.6900   28.7450 O   0  0  0  0  0  0
  -26.0420   29.0140   30.4540 O   0  0  0  0  0  0
  -23.3600   25.8190   26.0560 N   0  0  0  0  0  0
  -24.0580   25.3120   24.8470 C   0  0  2  0  0  0
  -25.0010   24.1660   25.2500 C   0  0  0  0  0  0
  -24.5720   23.1660   25.8200 O   0  0  0  0  0  0
  -23.0630   24.8040   23.7810 C   0  0  0  0  0  0
  -22.5330   23.3570   24.0530 C   0  0  0  0  0  0
  -21.6560   22.7140   22.9330 C   0  0  0  0  0  0
  -20.1630   22.6820   23.3540 C   0  0  0  0  0  0
  -19.2520   21.6600   22.7140 N   0  3  0  0  0  0
  -26.2850   24.3190   24.9760 N   0  0  0  0  0  0
  -27.2060   23.2040   25.1310 C   0  0  2  0  0  0
  -27.7190   22.7710   23.7540 C   0  0  0  0  0  0
  -28.0660   23.6190   22.9200 O   0  0  0  0  0  0
  -28.3570   23.5870   26.0170 C   0  0  0  0  0  0
  -27.7570   21.4580   23.5160 N   0  0  0  0  0  0
  -28.3490   20.9120   22.2950 C   0  0  2  0  0  0
  -29.0530   19.6070   22.5880 C   0  0  0  0  0  0
  -28.7270   18.9310   23.5620 O   0  0  0  0  0  0
  -27.2630   20.6940   21.2270 C   0  0  0  0  0  0
  -26.1400   20.0000   21.7510 O   0  0  0  0  0  0
  -30.0040   19.2410   21.7330 N   0  0  0  0  0  0
  -30.6760   17.9520   21.8390 C   0  0  2  0  0  0
  -29.8950   16.8580   21.1260 C   0  0  0  0  0  0
  -29.3920   17.0630   20.0310 O   0  0  0  0  0  0
  -32.0560   17.9930   21.2650 C   0  0  0  0  0  0
  -32.8240   16.7910   21.7800 C   0  0  0  0  0  0
  -32.7620   19.2990   21.6590 C   0  0  0  0  0  0
  -29.7790   15.7060   21.7780 N   0  0  0  0  0  0
  -29.0780   14.5450   21.2330 C   0  0  2  0  0  0
  -29.9980   13.3210   21.2380 C   0  0  0  0  0  0
  -30.4180   12.8510   22.2980 O   0  0  0  0  0  0
  -27.8320   14.2100   22.0270 C   0  0  0  0  0  0
  -27.0570   13.1220   21.3290 C   0  0  0  0  0  0
  -26.9750   15.4240   22.1730 C   0  0  0  0  0  0
  -30.3010   12.8260   20.0380 N   0  0  0  0  0  0
  -31.2540   11.7510   19.8100 C   0  0  2  0  0  0
  -30.5000   10.5390   19.3350 C   0  0  0  0  0  0
  -29.7790   10.6350   18.3590 O   0  0  0  0  0  0
  -32.2400   12.1640   18.7270 C   0  0  0  0  0  0
  -32.9490   13.3580   19.0590 O   0  0  0  0  0  0
  -30.6500    9.3960   20.0020 N   0  0  0  0  0  0
  -29.9410    8.1980   19.5480 C   0  0  2  0  0  0
  -30.8250    6.9680   19.2760 C   0  0  0  0  0  0
  -31.8950    6.7990   19.8820 O   0  0  0  0  0  0
  -28.8510    7.8250   20.5170 C   0  0  0  0  0  0
  -27.8790    8.9070   20.7990 C   0  0  0  0  0  0
  -26.7230    8.3090   21.5280 C   0  0  0  0  0  0
  -25.8600    9.3710   22.1630 C   0  0  0  0  0  0
  -25.0040    8.7250   23.2110 N   0  3  0  0  0  0
  -30.3550    6.1530   18.3220 N   0  0  0  0  0  0
  -30.8740    4.8300   18.0110 C   0  0  2  0  0  0
  -29.6720    3.9390   17.7300 C   0  0  0  0  0  0
  -28.6450    4.4130   17.2700 O   0  0  0  0  0  0
  -31.7440    4.8690   16.7770 C   0  0  0  0  0  0
  -32.9950    3.9740   16.6840 C   0  0  0  0  0  0
  -33.3780    3.7770   15.2280 C   0  0  0  0  0  0
  -32.8430    2.6220   17.3320 C   0  0  0  0  0  0
  -29.7850    2.6510   18.0310 N   0  0  0  0  0  0
  -28.6670    1.7300   17.8540 C   0  0  2  0  0  0
  -29.1730    0.4900   17.1470 C   0  0  0  0  0  0
  -30.3550    0.1550   17.2480 O   0  0  0  0  0  0
  -28.0870    1.3160   19.2010 C   0  0  0  0  0  0
  -27.4970    2.4540   20.0010 C   0  0  0  0  0  0
  -28.3070    3.4200   20.5660 C   0  0  0  0  0  0
  -26.1040    2.5300   20.2120 C   0  0  0  0  0  0
  -27.7650    4.4440   21.2910 C   0  0  0  0  0  0
  -25.5540    3.5510   20.9290 C   0  0  0  0  0  0
  -26.3930    4.5170   21.4640 C   0  0  0  0  0  0
  -28.2770   -0.2100   16.4580 N   0  0  0  0  0  0
  -28.6830   -1.4220   15.7930 C   0  0  2  0  0  0
  -27.5650   -2.4000   15.7910 C   0  0  0  0  0  0
  -26.6320   -2.2400   15.0310 O   0  0  0  0  0  0
  -29.0820   -1.1240   14.3400 C   0  0  0  0  0  0
  -29.6390   -2.3120   13.6140 C   0  0  0  0  0  0
  -28.7970   -3.1700   12.8970 C   0  0  0  0  0  0
  -30.9970   -2.5800   13.6440 C   0  0  0  0  0  0
  -29.3030   -4.2910   12.2250 C   0  0  0  0  0  0
  -31.5110   -3.6870   12.9710 C   0  0  0  0  0  0
  -30.6520   -4.5410   12.2640 C   0  0  0  0  0  0
  -27.6730   -3.4350   16.6040 N   0  0  0  0  0  0
  -26.6220   -4.4340   16.6820 C   0  0  2  0  0  0
  -27.1770   -5.7380   16.1510 C   0  0  0  0  0  0
  -28.3560   -6.0290   16.3620 O   0  0  0  0  0  0
  -26.1750   -4.6210   18.1350 C   0  0  0  0  0  0
  -26.3680   -3.4480   18.9090 O   0  0  0  0  0  0
  -26.3280   -6.5210   15.4810 N   0  0  0  0  0  0
  -26.7500   -7.7250   14.7710 C   0  0  2  0  0  0
  -25.5860   -8.6740   14.7620 C   0  0  0  0  0  0
  -24.5520   -8.3560   15.2960 O   0  0  0  0  0  0
  -27.2010   -7.4210   13.3320 C   0  0  0  0  0  0
  -26.0560   -7.0900   12.4420 C   0  0  0  0  0  0
  -25.3100   -7.9600   11.6690 C   0  0  0  0  0  0
  -25.4940   -5.8100   12.2500 C   0  0  0  0  0  0
  -24.2970   -7.2770   11.0210 N   0  0  0  0  0  0
  -24.4050   -5.9510   11.3500 C   0  0  0  0  0  0
  -25.7960   -4.5500   12.7480 C   0  0  0  0  0  0
  -23.6300   -4.8740   10.9530 C   0  0  0  0  0  0
  -25.0270   -3.4970   12.3630 C   0  0  0  0  0  0
  -23.9510   -3.6620   11.4660 C   0  0  0  0  0  0
  -25.7440   -9.8100   14.0900 N   0  0  0  0  0  0
  -24.9620  -11.0060   14.3620 C   0  0  2  0  0  0
  -24.4480  -11.6960   13.1050 C   0  0  0  0  0  0
  -24.9240  -11.4160   12.0020 O   0  0  0  0  0  0
  -25.8460  -11.9880   15.1250 C   0  0  2  0  0  0
  -25.0670  -12.6160   16.1400 O   0  0  0  0  0  0
  -26.4630  -13.0230   14.1950 C   0  0  0  0  0  0
  -23.5140  -12.6310   13.2920 N   0  0  0  0  0  0
  -22.7870  -13.2960   12.1910 C   0  0  2  0  0  0
  -23.6340  -14.0320   11.1330 C   0  0  0  0  0  0
  -24.0710  -13.3960   10.1830 O   0  0  0  0  0  0
  -21.6160  -14.1870   12.7260 C   0  0  0  0  0  0
  -23.9180  -15.3500   11.3100 N   0  0  0  0  0  0
  -24.0170  -16.2200   10.0840 C   0  0  2  0  0  0
  -25.2480  -15.9640    9.2320 C   0  0  0  0  0  0
  -25.3990  -14.8670    8.6970 O   0  0  0  0  0  0
  -24.0680  -17.6540   10.6430 C   0  0  0  0  0  0
  -24.7210  -17.4980   12.0160 C   0  0  0  0  0  0
  -24.2620  -16.0900   12.5470 C   0  0  0  0  0  0
  -26.1093  -16.8700    9.0743 O   0  0  0  0  0  0
  -23.9076   34.0654   32.3339 H   0  0  0  0  0  0
  -22.9654   34.1280   30.8058 H   0  0  0  0  0  0
  -24.2315   31.9146   31.6898 H   0  0  0  0  0  0
  -26.2978   32.2557   29.7589 H   0  0  0  0  0  0
  -26.5410   32.4991   31.5219 H   0  0  0  0  0  0
  -26.4159   34.5528   29.3468 H   0  0  0  0  0  0
  -26.9664   34.7503   31.0452 H   0  0  0  0  0  0
  -24.9549   35.8241   31.5441 H   0  0  0  0  0  0
  -24.3664   35.5426   29.8704 H   0  0  0  0  0  0
  -22.9268   30.4853   30.7636 H   0  0  0  0  0  0
  -22.2587   31.2840   27.9417 H   0  0  0  0  0  0
  -20.3444   30.2237   30.1619 H   0  0  0  0  0  0
  -19.7937   30.5062   28.4757 H   0  0  0  0  0  0
  -20.6274   32.5898   30.4706 H   0  0  0  0  0  0
  -18.5147   31.3406   30.9396 H   0  0  0  0  0  0
  -18.1991   33.0444   30.4663 H   0  0  0  0  0  0
  -17.9395   31.7201   29.2807 H   0  0  0  0  0  0
  -21.1913   33.2882   28.1779 H   0  0  0  0  0  0
  -19.5278   32.8812   27.6360 H   0  0  0  0  0  0
  -19.7874   34.2055   28.8216 H   0  0  0  0  0  0
  -23.6529   28.8323   29.3734 H   0  0  0  0  0  0
  -22.1257   26.6548   28.1348 H   0  0  0  0  0  0
  -24.8902   25.7679   28.5409 H   0  0  0  0  0  0
  -23.4836   25.4469   29.6110 H   0  0  0  0  0  0
  -25.2058   26.3339   30.9500 H   0  0  0  0  0  0
  -23.9891   27.6401   30.7497 H   0  0  0  0  0  0
  -26.8266   29.7225   30.1499 H   0  0  0  0  0  0
  -22.4684   25.2983   26.4353 H   0  0  0  0  0  0
  -24.6172   26.1673   24.4399 H   0  0  0  0  0  0
  -23.5541   24.7929   22.7968 H   0  0  0  0  0  0
  -22.1893   25.4715   23.7473 H   0  0  0  0  0  0
  -21.9090   23.3593   24.9589 H   0  0  0  0  0  0
  -23.3845   22.6755   24.1961 H   0  0  0  0  0  0
  -21.9948   21.6839   22.7480 H   0  0  0  0  0  0
  -21.7517   23.3029   22.0089 H   0  0  0  0  0  0
  -19.6973   23.6524   23.1273 H   0  0  0  0  0  0
  -20.0906   22.4838   24.4336 H   0  0  0  0  0  0
  -18.2353   21.7705   23.1190 H   0  0  0  0  0  0
  -19.2322   21.8172   21.6255 H   0  0  0  0  0  0
  -19.6255   20.6485   22.9317 H   0  0  0  0  0  0
  -26.6561   25.2948   24.6294 H   0  0  0  0  0  0
  -26.6425   22.3963   25.6209 H   0  0  0  0  0  0
  -27.9751   23.8955   27.0014 H   0  0  0  0  0  0
  -29.0291   22.7247   26.1382 H   0  0  0  0  0  0
  -28.9096   24.4213   25.5602 H   0  0  0  0  0  0
  -27.3269   20.7812   24.2690 H   0  0  0  0  0  0
  -29.0880   21.6532   21.9566 H   0  0  0  0  0  0
  -27.6781   20.1029   20.3974 H   0  0  0  0  0  0
  -26.9208   21.6682   20.8478 H   0  0  0  0  0  0
  -25.2821   19.7720   21.1013 H   0  0  0  0  0  0
  -30.2795   19.9405   20.9300 H   0  0  0  0  0  0
  -30.7328   17.7685   22.9221 H   0  0  0  0  0  0
  -31.9865   17.9464   20.1682 H   0  0  0  0  0  0
  -32.3012   15.8687   21.4867 H   0  0  0  0  0  0
  -33.8365   16.7911   21.3500 H   0  0  0  0  0  0
  -32.8914   16.8414   22.8768 H   0  0  0  0  0  0
  -32.1885   20.1559   21.2758 H   0  0  0  0  0  0
  -32.8290   19.3633   22.7551 H   0  0  0  0  0  0
  -33.7741   19.3130   21.2283 H   0  0  0  0  0  0
  -30.2424   15.6510   22.7741 H   0  0  0  0  0  0
  -28.7937   14.8467   20.2141 H   0  0  0  0  0  0
  -28.1200   13.8660   23.0313 H   0  0  0  0  0  0
  -27.6916   12.2298   21.2234 H   0  0  0  0  0  0
  -26.1650   12.8696   21.9212 H   0  0  0  0  0  0
  -26.7488   13.4726   20.3330 H   0  0  0  0  0  0
  -27.5441   16.2154   22.6827 H   0  0  0  0  0  0
  -26.6667   15.7770   21.1778 H   0  0  0  0  0  0
  -26.0829   15.1739   22.7660 H   0  0  0  0  0  0
  -29.7762   13.2854   19.1874 H   0  0  0  0  0  0
  -31.7697   11.5536   20.7613 H   0  0  0  0  0  0
  -31.6981   12.3426   17.7865 H   0  0  0  0  0  0
  -32.9783   11.3623   18.5782 H   0  0  0  0  0  0
  -33.6941   13.7673   18.3610 H   0  0  0  0  0  0
  -31.3005    9.3476   20.8877 H   0  0  0  0  0  0
  -29.5218    8.5356   18.5887 H   0  0  0  0  0  0
  -29.2987    7.5398   21.4804 H   0  0  0  0  0  0
  -28.2766    6.9776   20.1144 H   0  0  0  0  0  0
  -27.5415    9.3527   19.8517 H   0  0  0  0  0  0
  -28.3595    9.6797   21.4171 H   0  0  0  0  0  0
  -27.0943    7.6427   22.3205 H   0  0  0  0  0  0
  -26.1043    7.7327   20.8244 H   0  0  0  0  0  0
  -25.2253    9.8358   21.3941 H   0  0  0  0  0  0
  -26.5009   10.1381   22.6223 H   0  0  0  0  0  0
  -24.3673    9.4865   23.6849 H   0  0  0  0  0  0
  -24.3706    7.9562   22.7443 H   0  0  0  0  0  0
  -25.6462    8.2584   23.9725 H   0  0  0  0  0  0
  -29.5064    6.5589   17.7519 H   0  0  0  0  0  0
  -31.4788    4.4953   18.8667 H   0  0  0  0  0  0
  -32.1362    5.8871   16.6369 H   0  0  0  0  0  0
  -31.1475    4.5818   15.8985 H   0  0  0  0  0  0
  -33.7925    4.4853   17.2430 H   0  0  0  0  0  0
  -33.4922    4.7577   14.7430 H   0  0  0  0  0  0
  -34.3285    3.2264   15.1702 H   0  0  0  0  0  0
  -32.5907    3.2042   14.7161 H   0  0  0  0  0  0
  -32.5653    2.7509   18.3885 H   0  0  0  0  0  0
  -32.0575    2.0530   16.8132 H   0  0  0  0  0  0
  -33.7953    2.0753   17.2673 H   0  0  0  0  0  0
  -30.7452    2.2820   18.4208 H   0  0  0  0  0  0
  -27.9089    2.2623   17.2607 H   0  0  0  0  0  0
  -28.8784    0.8657   19.8181 H   0  0  0  0  0  0
  -27.2825    0.5825   19.0440 H   0  0  0  0  0  0
  -29.3874    3.3651   20.4325 H   0  0  0  0  0  0
  -25.4563    1.7591   19.7946 H   0  0  0  0  0  0
  -28.4118    5.2022   21.7324 H   0  0  0  0  0  0
  -24.4758    3.6069   21.0788 H   0  0  0  0  0  0
  -25.9663    5.3458   22.0289 H   0  0  0  0  0  0
  -27.2327    0.1295   16.3933 H   0  0  0  0  0  0
  -29.5225   -1.8190   16.3825 H   0  0  0  0  0  0
  -29.8527   -0.3393   14.3250 H   0  0  0  0  0  0
  -28.1992   -0.7816   13.7802 H   0  0  0  0  0  0
  -27.7276   -2.9624   12.8606 H   0  0  0  0  0  0
  -31.6675   -1.9220   14.1967 H   0  0  0  0  0  0
  -28.6339   -4.9556   11.6785 H   0  0  0  0  0  0
  -32.5818   -3.8893   12.9942 H   0  0  0  0  0  0
  -31.0579   -5.4079   11.7427 H   0  0  0  0  0  0
  -28.5740   -3.5347   17.2271 H   0  0  0  0  0  0
  -25.7809   -4.0770   16.0695 H   0  0  0  0  0  0
  -26.7555   -5.4340   18.5954 H   0  0  0  0  0  0
  -25.1050   -4.8749   18.1597 H   0  0  0  0  0  0
  -26.0899   -3.4394   19.9732 H   0  0  0  0  0  0
  -25.2688   -6.2241   15.4790 H   0  0  0  0  0  0
  -27.6024   -8.1448   15.3252 H   0  0  0  0  0  0
  -27.7145   -8.3000   12.9153 H   0  0  0  0  0  0
  -27.8889   -6.5627   13.3369 H   0  0  0  0  0  0
  -25.4939   -9.0309   11.5826 H   0  0  0  0  0  0
  -26.6318   -4.4078   13.4331 H   0  0  0  0  0  0
  -22.7987   -4.9962   10.2586 H   0  0  0  0  0  0
  -25.2466   -2.5042   12.7558 H   0  0  0  0  0  0
  -23.3621   -2.7912   11.1779 H   0  0  0  0  0  0
  -26.5069   -9.8201   13.2976 H   0  0  0  0  0  0
  -24.0958  -10.6481   14.9379 H   0  0  0  0  0  0
  -26.6560  -11.4606   15.6501 H   0  0  0  0  0  0
  -24.5520  -12.0044   16.8955 H   0  0  0  0  0  0
  -27.0578  -12.5135   13.4225 H   0  0  0  0  0  0
  -27.1130  -13.6952   14.7743 H   0  0  0  0  0  0
  -25.6641  -13.6082   13.7161 H   0  0  0  0  0  0
  -23.2960  -12.8996   14.3362 H   0  0  0  0  0  0
  -22.4152  -12.4086   11.6578 H   0  0  0  0  0  0
  -21.0401  -13.6244   13.4756 H   0  0  0  0  0  0
  -20.9567  -14.4662   11.8909 H   0  0  0  0  0  0
  -22.0285  -15.0964   13.1874 H   0  0  0  0  0  0
  -23.1708  -15.9997    9.4166 H   0  0  0  0  0  0
  -24.6653  -18.2883    9.9715 H   0  0  0  0  0  0
  -23.0466  -18.0561   10.7149 H   0  0  0  0  0  0
  -25.8147  -17.5487   11.9097 H   0  0  0  0  0  0
  -24.3791  -18.3067   12.6787 H   0  0  0  0  0  0
  -23.3748  -16.1552   13.1940 H   0  0  0  0  0  0
  -25.0659  -15.5606   13.0794 H   0  0  0  0  0  0
  -26.9996  -16.6810    8.4565 H   0  0  0  0  0  0
  1  2  1  0  0  0
  1  7  1  0  0  0
  1144  1  0  0  0
  1145  1  0  0  0
  2  3  1  0  0  0
  2  5  1  0  0  0
  2146  1  0  0  0
  3  4  2  0  0  0
  3  8  1  0  0  0
  5  6  1  0  0  0
  5147  1  0  0  0
  5148  1  0  0  0
  6  7  1  0  0  0
  6149  1  0  0  0
  6150  1  0  0  0
  7151  1  0  0  0
  7152  1  0  0  0
  8  9  1  0  0  0
  8153  1  0  0  0
  9 10  1  0  0  0
  9 12  1  0  0  0
  9154  1  0  0  0
 10 11  2  0  0  0
 10 16  1  0  0  0
 12 13  1  0  0  0
 12155  1  0  0  0
 12156  1  0  0  0
 13 14  1  0  0  0
 13 15  1  0  0  0
 13157  1  0  0  0
 14158  1  0  0  0
 14159  1  0  0  0
 14160  1  0  0  0
 15161  1  0  0  0
 15162  1  0  0  0
 15163  1  0  0  0
 16 17  1  0  0  0
 16164  1  0  0  0
 17 18  1  0  0  0
 17 20  1  0  0  0
 17165  1  0  0  0
 18 19  2  0  0  0
 18 25  1  0  0  0
 20 21  1  0  0  0
 20166  1  0  0  0
 20167  1  0  0  0
 21 22  1  0  0  0
 21168  1  0  0  0
 21169  1  0  0  0
 22 23  2  0  0  0
 22 24  1  0  0  0
 24170  1  0  0  0
 25 26  1  0  0  0
 25171  1  0  0  0
 26 27  1  0  0  0
 26 29  1  0  0  0
 26172  1  0  0  0
 27 28  2  0  0  0
 27 34  1  0  0  0
 29 30  1  0  0  0
 29173  1  0  0  0
 29174  1  0  0  0
 30 31  1  0  0  0
 30175  1  0  0  0
 30176  1  0  0  0
 31 32  1  0  0  0
 31177  1  0  0  0
 31178  1  0  0  0
 32 33  1  0  0  0
 32179  1  0  0  0
 32180  1  0  0  0
 33181  1  0  0  0
 33182  1  0  0  0
 33183  1  0  0  0
 34 35  1  0  0  0
 34184  1  0  0  0
 35 36  1  0  0  0
 35 38  1  0  0  0
 35185  1  0  0  0
 36 37  2  0  0  0
 36 39  1  0  0  0
 38186  1  0  0  0
 38187  1  0  0  0
 38188  1  0  0  0
 39 40  1  0  0  0
 39189  1  0  0  0
 40 41  1  0  0  0
 40 43  1  0  0  0
 40190  1  0  0  0
 41 42  2  0  0  0
 41 45  1  0  0  0
 43 44  1  0  0  0
 43191  1  0  0  0
 43192  1  0  0  0
 44193  1  0  0  0
 45 46  1  0  0  0
 45194  1  0  0  0
 46 47  1  0  0  0
 46 49  1  0  0  0
 46195  1  0  0  0
 47 48  2  0  0  0
 47 52  1  0  0  0
 49 50  1  0  0  0
 49 51  1  0  0  0
 49196  1  0  0  0
 50197  1  0  0  0
 50198  1  0  0  0
 50199  1  0  0  0
 51200  1  0  0  0
 51201  1  0  0  0
 51202  1  0  0  0
 52 53  1  0  0  0
 52203  1  0  0  0
 53 54  1  0  0  0
 53 56  1  0  0  0
 53204  1  0  0  0
 54 55  2  0  0  0
 54 59  1  0  0  0
 56 57  1  0  0  0
 56 58  1  0  0  0
 56205  1  0  0  0
 57206  1  0  0  0
 57207  1  0  0  0
 57208  1  0  0  0
 58209  1  0  0  0
 58210  1  0  0  0
 58211  1  0  0  0
 59 60  1  0  0  0
 59212  1  0  0  0
 60 61  1  0  0  0
 60 63  1  0  0  0
 60213  1  0  0  0
 61 62  2  0  0  0
 61 65  1  0  0  0
 63 64  1  0  0  0
 63214  1  0  0  0
 63215  1  0  0  0
 64216  1  0  0  0
 65 66  1  0  0  0
 65217  1  0  0  0
 66 67  1  0  0  0
 66 69  1  0  0  0
 66218  1  0  0  0
 67 68  2  0  0  0
 67 74  1  0  0  0
 69 70  1  0  0  0
 69219  1  0  0  0
 69220  1  0  0  0
 70 71  1  0  0  0
 70221  1  0  0  0
 70222  1  0  0  0
 71 72  1  0  0  0
 71223  1  0  0  0
 71224  1  0  0  0
 72 73  1  0  0  0
 72225  1  0  0  0
 72226  1  0  0  0
 73227  1  0  0  0
 73228  1  0  0  0
 73229  1  0  0  0
 74 75  1  0  0  0
 74230  1  0  0  0
 75 76  1  0  0  0
 75 78  1  0  0  0
 75231  1  0  0  0
 76 77  2  0  0  0
 76 82  1  0  0  0
 78 79  1  0  0  0
 78232  1  0  0  0
 78233  1  0  0  0
 79 80  1  0  0  0
 79 81  1  0  0  0
 79234  1  0  0  0
 80235  1  0  0  0
 80236  1  0  0  0
 80237  1  0  0  0
 81238  1  0  0  0
 81239  1  0  0  0
 81240  1  0  0  0
 82 83  1  0  0  0
 82241  1  0  0  0
 83 84  1  0  0  0
 83 86  1  0  0  0
 83242  1  0  0  0
 84 85  2  0  0  0
 84 93  1  0  0  0
 86 87  1  0  0  0
 86243  1  0  0  0
 86244  1  0  0  0
 87 88  2  0  0  0
 87 89  1  0  0  0
 88 90  1  0  0  0
 88245  1  0  0  0
 89 91  2  0  0  0
 89246  1  0  0  0
 90 92  2  0  0  0
 90247  1  0  0  0
 91 92  1  0  0  0
 91248  1  0  0  0
 92249  1  0  0  0
 93 94  1  0  0  0
 93250  1  0  0  0
 94 95  1  0  0  0
 94 97  1  0  0  0
 94251  1  0  0  0
 95 96  2  0  0  0
 95104  1  0  0  0
 97 98  1  0  0  0
 97252  1  0  0  0
 97253  1  0  0  0
 98 99  2  0  0  0
 98100  1  0  0  0
 99101  1  0  0  0
 99254  1  0  0  0
100102  2  0  0  0
100255  1  0  0  0
101103  2  0  0  0
101256  1  0  0  0
102103  1  0  0  0
102257  1  0  0  0
103258  1  0  0  0
104105  1  0  0  0
104259  1  0  0  0
105106  1  0  0  0
105108  1  0  0  0
105260  1  0  0  0
106107  2  0  0  0
106110  1  0  0  0
108109  1  0  0  0
108261  1  0  0  0
108262  1  0  0  0
109263  1  0  0  0
110111  1  0  0  0
110264  1  0  0  0
111112  1  0  0  0
111114  1  0  0  0
111265  1  0  0  0
112113  2  0  0  0
112124  1  0  0  0
114115  1  0  0  0
114266  1  0  0  0
114267  1  0  0  0
115116  2  0  0  0
115117  1  0  0  0
116118  1  0  0  0
116268  1  0  0  0
117119  2  0  0  0
117120  1  0  0  0
118119  1  0  0  0
119121  1  0  0  0
120122  2  0  0  0
120269  1  0  0  0
121123  2  0  0  0
121270  1  0  0  0
122123  1  0  0  0
122271  1  0  0  0
123272  1  0  0  0
124125  1  0  0  0
124273  1  0  0  0
125126  1  0  0  0
125128  1  0  0  0
125274  1  0  0  0
126127  2  0  0  0
126131  1  0  0  0
128129  1  0  0  0
128130  1  0  0  0
128275  1  0  0  0
129276  1  0  0  0
130277  1  0  0  0
130278  1  0  0  0
130279  1  0  0  0
131132  1  0  0  0
131280  1  0  0  0
132133  1  0  0  0
132135  1  0  0  0
132281  1  0  0  0
133134  2  0  0  0
133136  1  0  0  0
135282  1  0  0  0
135283  1  0  0  0
135284  1  0  0  0
136137  1  0  0  0
136142  1  0  0  0
137138  1  0  0  0
137140  1  0  0  0
137285  1  0  0  0
138139  2  0  0  0
138143  1  0  0  0
140141  1  0  0  0
140286  1  0  0  0
140287  1  0  0  0
141142  1  0  0  0
141288  1  0  0  0
141289  1  0  0  0
142290  1  0  0  0
142291  1  0  0  0
143292  1  0  0  0
M  CHG  3   1   1  33   1  73   1
M  END
> <s_m_source_file>
../3isw_ligand.sdf

> <i_m_source_file_index>
1

> <s_epik_input>
W0NIMl0xW0NIMl1bQ0gyXVtOSDIrXVtDQEBIXTFDKD1PKVtOSF1bQ0BASF0oW0NIMl1bQ0hdKFtDSDNdKVtDSDNdKUMoPU8pW05IXVtDQEBIXShbQ0gyXVtDSDJdQyg9TylbT0hdKUMoPU8pW05IXVtDQEBIXShbQ0gyXVtDSDJdW0NIMl1bQ0gyXVtOSDMrXSlDKD1PKVtOSF1bQ0BASF0oW0NIM10pQyg9TylbTkhdW0NAQEhdKFtDSDJdW09IXSlDKD1PKVtOSF1bQ0BASF0oW0NIXShbQ0gzXSlbQ0gzXSlDKD1PKVtOSF1bQ0BASF0oW0NIXShbQ0gzXSlbQ0gzXSlDKD1PKVtOSF1bQ0BASF0oW0NIMl1bT0hdKUMoPU8pW05IXVtDQEBIXShbQ0gyXVtDSDJdW0NIMl1bQ0gyXVtOSDMrXSlDKD1PKVtOSF1bQ0BASF0oW0NIMl1bQ0hdKFtDSDNdKVtDSDNdKUMoPU8pW05IXVtDQEBIXShbQ0gyXWMyW2NIXVtjSF1bY0hdW2NIXVtjSF0yKUMoPU8pW05IXVtDQEBIXShbQ0gyXWMzW2NIXVtjSF1bY0hdW2NIXVtjSF0zKUMoPU8pW05IXVtDQEBIXShbQ0gyXVtPSF0pQyg9TylbTkhdW0NAQEhdKFtDSDJdYzRbY0hdW25IXWMoYzQ1KVtjSF1bY0hdW2NIXVtjSF01KUMoPU8pW05IXVtDQEBIXShbQ0BIXShbT0hdKVtDSDNdKUMoPU8pW05IXVtDQEBIXShbQ0gzXSlDKD1PKU42W0NASF0oQyg9TylbT0hdKVtDSDJdW0NIMl1bQ0gyXTY=

> <s_epik_cmdline>
J2VwaWtfYXBwJywgJy1pbWFlJywgJ2xpZ2FuZF9wcm8ubWFlJywgJy1vbWFlJywgJ2xpZ2FuZF9wcmVwLm1hZScsICctbXMnLCAnMScsICctcGgnLCAnNycsICctcGh0JywgJzAuNScsICctbnQn

> <s_epik_pKa_notes>
Molecule size exceeds maximum supported for generating protonation states

$$$$
