3itc_ligand
                    3D
 Schrodinger Suite 2020-3.
 18 17  0  0  1  0            999 V2000
  -27.9770  -31.5900  -20.4630 C   0  0  0  0  0  0
  -27.5540  -30.7200  -19.7370 O   0  0  0  0  0  0
  -27.9350  -32.8590  -20.0260 O   0  5  0  0  0  0
  -28.6110  -31.3000  -21.7880 C   0  0  0  0  0  0
  -28.1080  -29.9680  -22.3480 C   0  0  0  0  0  0
  -26.6880  -29.8960  -22.4170 O   0  0  0  0  0  0
  -28.6510  -29.7840  -23.7770 C   0  0  0  0  0  0
  -28.1970  -31.0040  -24.5490 C   0  0  0  0  0  0
  -27.0200  -31.2720  -24.6350 O   0  0  0  0  0  0
  -29.1260  -31.7150  -25.2040 O   0  5  0  0  0  0
  -28.7050  -28.8240  -21.5530 C   0  0  0  0  0  0
  -28.0020  -27.9170  -21.1660 O   0  0  0  0  0  0
  -30.0160  -28.9040  -21.2880 O   0  5  0  0  0  0
  -28.3598  -32.1018  -22.4980 H   0  0  0  0  0  0
  -29.7031  -31.2455  -21.6679 H   0  0  0  0  0  0
  -26.1243  -30.6654  -22.9649 H   0  0  0  0  0  0
  -29.7485  -29.7161  -23.7463 H   0  0  0  0  0  0
  -28.2385  -28.8608  -24.2100 H   0  0  0  0  0  0
  1  2  2  0  0  0
  1  3  1  0  0  0
  1  4  1  0  0  0
  4  5  1  0  0  0
  4 14  1  0  0  0
  4 15  1  0  0  0
  5  6  1  0  0  0
  5  7  1  0  0  0
  5 11  1  0  0  0
  6 16  1  0  0  0
  7  8  1  0  0  0
  7 17  1  0  0  0
  7 18  1  0  0  0
  8  9  2  0  0  0
  8 10  1  0  0  0
 11 12  2  0  0  0
 11 13  1  0  0  0
M  CHG  3   3  -1  10  -1  13  -1
M  END
> <s_m_source_file>
../3itc_ligand.sdf

> <i_m_source_file_index>
1

> <s_epik_input>
Tz1DKFtPSF0pW0NIMl1DKFtPSF0pKEMoPU8pW09IXSlbQ0gyXUMoPU8pW09IXQ==

> <s_epik_cmdline>
J2VwaWtfYXBwJywgJy1pbWFlJywgJ2xpZ2FuZF9wcm8ubWFlJywgJy1vbWFlJywgJ2xpZ2FuZF9wcmVwLm1hZScsICctbXMnLCAnMScsICctcGgnLCAnNycsICctcGh0JywgJzAuNScsICctbnQn

> <r_lp_tautomer_probability>
1

> <r_epik_Ionization_Penalty>
  0.0046

> <r_epik_Ionization_Penalty_Charging>
  0.0046

> <r_epik_Ionization_Penalty_Neutral>
  0.0000

> <r_epik_State_Penalty>
 -0.0000

> <r_epik_Charging_Adjusted_Penalty>
0.0045906918398983

> <i_epik_Tot_Q>
-3

> <i_epik_Tot_abs_Q>
3

$$$$
