3ith_ligand
                    3D
 Schrodinger Suite 2020-3.
 28 28  0  0  1  0            999 V2000
   30.0670  -18.3710    7.0520 C   0  0  0  0  0  0
   30.8750  -19.5910    7.2010 N   0  0  0  0  0  0
   30.1970  -20.8950    7.2980 C   0  0  0  0  0  0
   32.1940  -19.5250    7.3110 C   0  0  0  0  0  0
   32.8740  -18.3820    6.8610 C   0  0  0  0  0  0
   32.8770  -20.4840    7.9340 N   0  0  0  0  0  0
   34.2000  -20.3830    8.1490 C   0  0  0  0  0  0
   35.0530  -21.6700    8.9750 S   0  0  0  0  0  0
   34.6310  -23.2420    8.2540 C   0  0  0  0  0  0
   36.4670  -21.4700    8.8670 O   0  0  0  0  0  0
   34.6610  -21.6770   10.4210 O   0  0  0  0  0  0
   34.8640  -19.2900    7.7350 N   0  0  0  0  0  0
   34.2370  -18.2920    7.1030 C   0  0  0  0  0  0
   34.9220  -17.1420    6.7310 C   0  0  0  0  0  0
   36.3150  -17.1210    6.6980 C   0  0  0  0  0  0
   29.0036  -18.6423    6.9774 H   0  0  0  0  0  0
   30.3739  -17.8370    6.1406 H   0  0  0  0  0  0
   30.2192  -17.7213    7.9265 H   0  0  0  0  0  0
   29.1121  -20.7536    7.1839 H   0  0  0  0  0  0
   30.4068  -21.3452    8.2795 H   0  0  0  0  0  0
   30.5657  -21.5600    6.5031 H   0  0  0  0  0  0
   32.3452  -17.5868    6.3356 H   0  0  0  0  0  0
   34.9154  -23.2462    7.1914 H   0  0  0  0  0  0
   33.5473  -23.4077    8.3442 H   0  0  0  0  0  0
   35.1696  -24.0434    8.7809 H   0  0  0  0  0  0
   34.3518  -16.2410    6.4606 H   0  0  0  0  0  0
   36.8852  -18.0220    6.9684 H   0  0  0  0  0  0
   36.8444  -16.2035    6.4015 H   0  0  0  0  0  0
  1  2  1  0  0  0
  1 16  1  0  0  0
  1 17  1  0  0  0
  1 18  1  0  0  0
  2  3  1  0  0  0
  2  4  1  0  0  0
  3 19  1  0  0  0
  3 20  1  0  0  0
  3 21  1  0  0  0
  4  5  2  0  0  0
  4  6  1  0  0  0
  5 13  1  0  0  0
  5 22  1  0  0  0
  6  7  2  0  0  0
  7  8  1  0  0  0
  7 12  1  0  0  0
  8  9  1  0  0  0
  8 10  2  0  0  0
  8 11  2  0  0  0
  9 23  1  0  0  0
  9 24  1  0  0  0
  9 25  1  0  0  0
 12 13  2  0  0  0
 13 14  1  0  0  0
 14 15  2  0  0  0
 14 26  1  0  0  0
 15 27  1  0  0  0
 15 28  1  0  0  0
M  END
> <s_m_source_file>
../3ith_ligand.sdf

> <i_m_source_file_index>
1

> <s_epik_input>
W0NIM11OKFtDSDNdKWMxW2NIXWMoW0NIXT1bQ0gyXSluYyhuMSlTKD1PKSg9TylbQ0gzXQ==

> <s_epik_cmdline>
J2VwaWtfYXBwJywgJy1pbWFlJywgJ2xpZ2FuZF9wcm8ubWFlJywgJy1vbWFlJywgJ2xpZ2FuZF9wcmVwLm1hZScsICctbXMnLCAnMScsICctcGgnLCAnNycsICctcGh0JywgJzAuNScsICctbnQn

> <r_lp_tautomer_probability>
1

> <r_epik_Ionization_Penalty>
  0.0000

> <r_epik_Ionization_Penalty_Charging>
  0.0000

> <r_epik_Ionization_Penalty_Neutral>
  0.0000

> <r_epik_State_Penalty>
 -0.0000

> <r_epik_Charging_Adjusted_Penalty>
0

> <i_epik_Tot_Q>
0

> <i_epik_Tot_abs_Q>
0

$$$$
