3itu_ligand
                    3D
 Schrodinger Suite 2020-3.
 30 31  0  0  1  0            999 V2000
   10.0430   -6.4090   -6.2220 N   0  0  0  0  0  0
   10.5860   -6.8080   -7.4800 C   0  0  0  0  0  0
    9.8290   -6.3660   -8.5440 N   0  3  0  0  0  0
    8.7620   -5.7220   -7.9230 C   0  0  0  0  0  0
    8.9470   -5.7620   -6.5670 C   0  0  0  0  0  0
    8.0780   -5.2310   -5.6650 N   0  0  0  0  0  0
    6.9930   -4.6100   -6.0990 C   0  0  0  0  0  0
    6.7490   -4.4950   -7.4050 N   0  0  0  0  0  0
    7.6290   -5.0500   -8.3500 C   0  0  0  0  0  0
    7.3730   -4.9740   -9.5670 O   0  0  0  0  0  0
    6.2310   -4.1510   -5.2150 O   0  0  0  0  0  0
    5.5100   -3.7990   -7.8080 C   0  0  0  0  0  0
    8.3260   -5.3180   -4.2240 C   0  0  0  0  0  0
    9.3130   -4.2460   -3.7330 C   0  0  0  0  0  0
    8.9320   -2.7680   -3.9360 C   0  0  0  0  0  0
    9.5970   -4.5510   -2.2470 C   0  0  0  0  0  0
   11.5110   -7.4023   -7.5162 H   0  0  0  0  0  0
    4.9785   -3.4477   -6.9113 H   0  0  0  0  0  0
    4.8655   -4.4925   -8.3681 H   0  0  0  0  0  0
    5.7633   -2.9385   -8.4447 H   0  0  0  0  0  0
    7.3794   -5.1826   -3.6802 H   0  0  0  0  0  0
    8.7490   -6.3046   -3.9836 H   0  0  0  0  0  0
   10.1987   -4.3285   -4.3801 H   0  0  0  0  0  0
    8.7362   -2.5830   -5.0025 H   0  0  0  0  0  0
    9.7592   -2.1264   -3.5983 H   0  0  0  0  0  0
    8.0283   -2.5388   -3.3522 H   0  0  0  0  0  0
    9.8656   -5.6118   -2.1353 H   0  0  0  0  0  0
    8.6984   -4.3355   -1.6502 H   0  0  0  0  0  0
   10.4293   -3.9231   -1.8964 H   0  0  0  0  0  0
   10.1554   -6.5713   -9.5742 H   0  0  0  0  0  0
  1  2  2  0  0  0
  1  5  1  0  0  0
  2  3  1  0  0  0
  2 17  1  0  0  0
  3  4  1  0  0  0
  3 30  1  0  0  0
  4  5  2  0  0  0
  4  9  1  0  0  0
  5  6  1  0  0  0
  6  7  1  0  0  0
  6 13  1  0  0  0
  7  8  1  0  0  0
  7 11  2  0  0  0
  8  9  1  0  0  0
  8 12  1  0  0  0
  9 10  2  0  0  0
 12 18  1  0  0  0
 12 19  1  0  0  0
 12 20  1  0  0  0
 13 14  1  0  0  0
 13 21  1  0  0  0
 13 22  1  0  0  0
 14 15  1  0  0  0
 14 16  1  0  0  0
 14 23  1  0  0  0
 15 24  1  0  0  0
 15 25  1  0  0  0
 15 26  1  0  0  0
 16 27  1  0  0  0
 16 28  1  0  0  0
 16 29  1  0  0  0
M  CHG  1   3   1
M  END
> <s_m_source_file>
../3itu_ligand.sdf

> <i_m_source_file_index>
1

> <s_epik_input>
W25IXTFbY0hdbmMoYzEyKW4oYyg9TyluKGMyPU8pW0NIM10pW0NIMl1bQ0hdKFtDSDNdKVtDSDNd

> <s_epik_cmdline>
J2VwaWtfYXBwJywgJy1pbWFlJywgJ2xpZ2FuZF9wcm8ubWFlJywgJy1vbWFlJywgJ2xpZ2FuZF9wcmVwLm1hZScsICctbXMnLCAnMScsICctcGgnLCAnNycsICctcGh0JywgJzAuNScsICctbnQn

> <r_lp_tautomer_probability>
1

> <r_epik_Ionization_Penalty>
  0.0000

> <r_epik_Ionization_Penalty_Charging>
  0.0000

> <r_epik_Ionization_Penalty_Neutral>
  0.0000

> <r_epik_State_Penalty>
 -0.0000

> <r_epik_Charging_Adjusted_Penalty>
2.54524996633124e-08

> <i_epik_Tot_Q>
1

> <i_epik_Tot_abs_Q>
1

> <s_epik_Chemistry_Notes>
This compound has an imine and may undergo hydrolysis.

$$$$
