3itz_ligand
                    3D
 Schrodinger Suite 2020-3.
 46 50  0  0  1  0            999 V2000
    1.9830   31.0080   31.0480 N   0  0  0  0  0  0
   -0.4300   34.2020   30.9690 N   0  0  0  0  0  0
   -1.7040   34.3970   31.3390 C   0  0  0  0  0  0
   -2.7500   34.1340   30.4560 C   0  0  0  0  0  0
   -2.0020   34.8700   32.6210 C   0  0  0  0  0  0
    2.4040   32.2100   30.5850 C   0  0  0  0  0  0
   -4.0720   34.3380   30.8490 C   0  0  0  0  0  0
   -3.3250   35.0810   33.0180 C   0  0  0  0  0  0
    4.4680   30.4450   29.0390 C   0  0  0  0  0  0
    6.3650   29.2370   29.9250 C   0  0  0  0  0  0
    5.5340   31.2080   31.0650 C   0  0  0  0  0  0
    6.5090   26.9030   25.2830 C   0  0  0  0  0  0
    7.6190   26.1930   26.0500 C   0  0  0  0  0  0
    6.2440   26.3920   26.7020 C   0  0  0  0  0  0
    6.1790   27.4270   27.7500 N   0  0  0  0  0  0
    5.2570   28.3990   27.7800 C   0  0  0  0  0  0
    4.3680   28.5490   26.9400 O   0  0  0  0  0  0
    5.3700   29.3820   28.9560 C   0  0  0  0  0  0
    6.4450   30.1490   30.9780 C   0  0  0  0  0  0
    5.6770   32.3170   32.3890 Cl  0  0  0  0  0  0
    4.5390   31.3620   30.0890 C   0  0  0  0  0  0
    3.6590   32.3700   30.1360 N   0  0  0  0  0  0
    0.8350   30.8120   31.4770 N   0  0  0  0  0  0
   -0.0950   31.7640   31.5220 C   0  0  0  0  0  0
    0.2200   33.0440   31.0690 C   0  0  0  0  0  0
    1.4950   33.2770   30.5890 C   0  0  0  0  0  0
    1.5160   34.5620   30.2320 C   0  0  0  0  0  0
    0.3070   35.0760   30.4890 N   0  0  0  0  0  0
   -2.4870   33.6750   29.2200 F   0  0  0  0  0  0
   -4.3640   34.8150   32.1290 C   0  0  0  0  0  0
   -1.0100   35.1250   33.4890 F   0  0  0  0  0  0
   -4.8830   34.1239   30.1529 H   0  0  0  0  0  0
   -3.5432   35.4523   34.0193 H   0  0  0  0  0  0
    3.6994   30.5599   28.2747 H   0  0  0  0  0  0
    7.0768   28.4141   29.8590 H   0  0  0  0  0  0
    6.8334   27.9228   25.0287 H   0  0  0  0  0  0
    6.2881   26.3476   24.3596 H   0  0  0  0  0  0
    7.9320   25.2960   25.4955 H   0  0  0  0  0  0
    8.4773   26.8713   26.1646 H   0  0  0  0  0  0
    5.4944   25.7509   27.1889 H   0  0  0  0  0  0
    6.9149   27.4288   28.5676 H   0  0  0  0  0  0
    7.2202   30.0362   31.7360 H   0  0  0  0  0  0
    3.9973   33.3575   29.7891 H   0  0  0  0  0  0
   -1.0904   31.5450   31.9084 H   0  0  0  0  0  0
    2.3651   35.0974   29.8073 H   0  0  0  0  0  0
   -5.3987   34.9781   32.4304 H   0  0  0  0  0  0
  1  6  1  0  0  0
  1 23  2  0  0  0
  2  3  1  0  0  0
  2 25  1  0  0  0
  2 28  1  0  0  0
  3  4  2  0  0  0
  3  5  1  0  0  0
  4  7  1  0  0  0
  4 29  1  0  0  0
  5  8  2  0  0  0
  5 31  1  0  0  0
  6 22  1  0  0  0
  6 26  2  0  0  0
  7 30  2  0  0  0
  7 32  1  0  0  0
  8 30  1  0  0  0
  8 33  1  0  0  0
  9 18  2  0  0  0
  9 21  1  0  0  0
  9 34  1  0  0  0
 10 18  1  0  0  0
 10 19  2  0  0  0
 10 35  1  0  0  0
 11 19  1  0  0  0
 11 20  1  0  0  0
 11 21  2  0  0  0
 12 13  1  0  0  0
 12 14  1  0  0  0
 12 36  1  0  0  0
 12 37  1  0  0  0
 13 14  1  0  0  0
 13 38  1  0  0  0
 13 39  1  0  0  0
 14 15  1  0  0  0
 14 40  1  0  0  0
 15 16  1  0  0  0
 15 41  1  0  0  0
 16 17  2  0  0  0
 16 18  1  0  0  0
 19 42  1  0  0  0
 21 22  1  0  0  0
 22 43  1  0  0  0
 23 24  1  0  0  0
 24 25  2  0  0  0
 24 44  1  0  0  0
 25 26  1  0  0  0
 26 27  1  0  0  0
 27 28  2  0  0  0
 27 45  1  0  0  0
 30 46  1  0  0  0
M  END
> <s_m_source_file>
../3itz_ligand.sdf

> <i_m_source_file_index>
1

> <s_epik_input>
W0NIMl0xW0NIMl1bQ0hdMVtOSF1DKD1PKWMoW2NIXVtjSF1jMkNsKVtjSF1jMltOSF1jKG5uW2NIXTMpYyhjMzQpW2NIXW5uNC1jNWMoRilbY0hdW2NIXVtjSF1jNUY=

> <s_epik_cmdline>
J2VwaWtfYXBwJywgJy1pbWFlJywgJ2xpZ2FuZF9wcm8ubWFlJywgJy1vbWFlJywgJ2xpZ2FuZF9wcmVwLm1hZScsICctbXMnLCAnMScsICctcGgnLCAnNycsICctcGh0JywgJzAuNScsICctbnQn

> <r_lp_tautomer_probability>
1

> <r_epik_Ionization_Penalty>
  0.0013

> <r_epik_Ionization_Penalty_Charging>
  0.0000

> <r_epik_Ionization_Penalty_Neutral>
  0.0013

> <r_epik_State_Penalty>
 -0.0000

> <r_epik_Charging_Adjusted_Penalty>
0

> <i_epik_Tot_Q>
0

> <i_epik_Tot_abs_Q>
0

$$$$
