3iu9_ligand
                    3D
 Schrodinger Suite 2020-3.
 23 24  0  0  1  0            999 V2000
  -10.8170   43.8280   -4.3810 S   0  0  0  0  0  0
   -9.9410   49.1270   -3.9830 C   0  0  0  0  0  0
   -8.1450   43.8390   -3.7660 N   0  0  0  0  0  0
   -7.7360   46.7360   -6.2830 Cl  0  0  0  0  0  0
   -9.0700   47.3530   -5.2420 C   0  0  0  0  0  0
   -8.1860   43.7230   -1.5830 N   0  0  0  0  0  0
   -9.7920   50.7880   -3.4710 Cl  0  0  0  0  0  0
  -10.0750   46.5420   -4.8600 C   0  0  0  0  0  0
   -6.0240   43.8800   -2.5770 N   0  0  0  0  0  0
  -10.1840   45.1440   -5.4510 C   0  0  0  0  0  0
   -9.5310   43.6660   -1.9910 N   0  0  0  0  0  0
   -8.9170   48.6720   -4.8090 C   0  0  0  0  0  0
  -10.9780   47.0060   -3.8940 C   0  0  0  0  0  0
  -10.8740   48.2940   -3.4900 C   0  0  0  0  0  0
   -7.3950   43.8240   -2.6410 C   0  0  0  0  0  0
   -9.4170   43.7770   -3.3170 C   0  0  0  0  0  0
   -5.4332   43.9638   -3.5011 H   0  0  0  0  0  0
   -5.5169   43.8410   -1.6016 H   0  0  0  0  0  0
   -9.1665   44.8895   -5.7824 H   0  0  0  0  0  0
  -10.8393   45.2506   -6.3280 H   0  0  0  0  0  0
   -8.0675   49.2927   -5.0938 H   0  0  0  0  0  0
  -11.7424   46.3486   -3.4797 H   0  0  0  0  0  0
  -11.5703   48.6683   -2.7396 H   0  0  0  0  0  0
  1 10  1  0  0  0
  1 16  1  0  0  0
  2  7  1  0  0  0
  2 12  2  0  0  0
  2 14  1  0  0  0
  3 15  2  0  0  0
  3 16  1  0  0  0
  4  5  1  0  0  0
  5  8  2  0  0  0
  5 12  1  0  0  0
  6 11  1  0  0  0
  6 15  1  0  0  0
  8 10  1  0  0  0
  8 13  1  0  0  0
  9 15  1  0  0  0
  9 17  1  0  0  0
  9 18  1  0  0  0
 10 19  1  0  0  0
 10 20  1  0  0  0
 11 16  2  0  0  0
 12 21  1  0  0  0
 13 14  2  0  0  0
 13 22  1  0  0  0
 14 23  1  0  0  0
M  END
> <s_m_source_file>
../3iu9_ligand.sdf

> <i_m_source_file_index>
1

> <s_epik_input>
W05IMl1jMW5jKG5bbkhdMSlTW0NIMl1jKFtjSF1bY0hdMiljKENsKVtjSF1jMkNs

> <s_epik_cmdline>
J2VwaWtfYXBwJywgJy1pbWFlJywgJ2xpZ2FuZF9wcm8ubWFlJywgJy1vbWFlJywgJ2xpZ2FuZF9wcmVwLm1hZScsICctbXMnLCAnMScsICctcGgnLCAnNycsICctcGh0JywgJzAuNScsICctbnQn

> <r_lp_tautomer_probability>
1

> <r_epik_Ionization_Penalty>
 25.3615

> <r_epik_Ionization_Penalty_Charging>
  0.0000

> <r_epik_Ionization_Penalty_Neutral>
 25.3615

> <r_epik_State_Penalty>
 -0.0000

> <r_epik_Charging_Adjusted_Penalty>
0

> <i_epik_Tot_Q>
0

> <i_epik_Tot_abs_Q>
0

$$$$
