3iub_ligand
                    3D
 Schrodinger Suite 2020-3.
 37 39  0  0  1  0            999 V2000
   10.8770    9.4100   -5.0490 C   0  0  0  0  0  0
   20.1760    7.7200    4.4200 C   0  0  0  0  0  0
   16.6800   11.2270    0.9690 O   0  5  0  0  0  0
   14.1780   10.3500    4.3490 O   0  0  0  0  0  0
   15.4650   12.3990    3.7040 O   0  0  0  0  0  0
   19.1370    9.9050    4.1180 C   0  0  0  0  0  0
   17.9810   10.6580    3.8810 C   0  0  0  0  0  0
   14.5280    9.8560   -4.8460 C   0  0  0  0  0  0
   15.5000   10.1140   -3.8770 C   0  0  0  0  0  0
   17.8180    7.8980    4.0050 C   0  0  0  0  0  0
   12.8560    9.9910   -3.1000 C   0  0  0  0  0  0
   13.7790   10.4290   -0.8570 C   0  0  0  0  0  0
   16.6770    8.6680    3.7610 N   0  0  0  0  0  0
   14.6890   10.6340    1.8330 N   0  0  0  0  0  0
   15.8550   10.4990   -1.4940 N   0  0  0  0  0  0
   12.2640    9.5650   -5.4360 O   0  0  0  0  0  0
   15.5220   10.8470    0.7990 C   0  0  0  0  0  0
   19.0480    8.5140    4.1830 C   0  0  0  0  0  0
   13.1900    9.7990   -4.4600 C   0  0  0  0  0  0
   16.7520   10.0120    3.7060 C   0  0  0  0  0  0
   15.0480   10.6080   -0.4490 C   0  0  3  0  0  0
   13.8270   10.2250   -2.1910 C   0  0  0  0  0  0
   15.1220   10.2680   -2.5810 C   0  0  0  0  0  0
   15.2520   10.9220    3.4070 S   0  0  0  0  0  0
   10.2645    9.2288   -5.9446 H   0  0  0  0  0  0
   10.5316   10.3262   -4.5478 H   0  0  0  0  0  0
   10.7815    8.5573   -4.3607 H   0  0  0  0  0  0
   21.0599    8.3643    4.5370 H   0  0  0  0  0  0
   20.3292    7.0379    3.5707 H   0  0  0  0  0  0
   20.0254    7.1338    5.3385 H   0  0  0  0  0  0
   20.0985   10.4010    4.2506 H   0  0  0  0  0  0
   18.0380   11.7454    3.8329 H   0  0  0  0  0  0
   14.8237    9.7017   -5.8942 H   0  0  0  0  0  0
   16.5585   10.1905   -4.1665 H   0  0  0  0  0  0
   17.7410    6.8119    4.0555 H   0  0  0  0  0  0
   11.8041    9.9499   -2.7809 H   0  0  0  0  0  0
   12.8112   10.4228   -0.3341 H   0  0  0  0  0  0
  1 16  1  0  0  0
  1 25  1  0  0  0
  1 26  1  0  0  0
  1 27  1  0  0  0
  2 18  1  0  0  0
  2 28  1  0  0  0
  2 29  1  0  0  0
  2 30  1  0  0  0
  3 17  1  0  0  0
  4 24  2  0  0  0
  5 24  2  0  0  0
  6  7  2  0  0  0
  6 18  1  0  0  0
  6 31  1  0  0  0
  7 20  1  0  0  0
  7 32  1  0  0  0
  8  9  2  0  0  0
  8 19  1  0  0  0
  8 33  1  0  0  0
  9 23  1  0  0  0
  9 34  1  0  0  0
 10 13  1  0  0  0
 10 18  2  0  0  0
 10 35  1  0  0  0
 11 19  2  0  0  0
 11 22  1  0  0  0
 11 36  1  0  0  0
 12 21  1  0  0  0
 12 22  2  0  0  0
 12 37  1  0  0  0
 13 20  2  0  0  0
 14 17  2  0  0  0
 14 24  1  0  0  0
 15 21  1  0  0  0
 15 23  2  0  0  0
 16 19  1  0  0  0
 17 21  1  0  0  0
 20 24  1  0  0  0
 22 23  1  0  0  0
M  CHG  1   3  -1
M  END
> <s_m_source_file>
../3iub_ligand.sdf

> <i_m_source_file_index>
1

> <s_epik_input>
W0NIM11PYyhbY0hdMSlbY0hdW2NIXWMoYzEyKT1OW0NIXShbQ0hdPTIpQyg9TylbTkhdUyg9TykoPU8pYyhuW2NIXTMpW2NIXVtjSF1jM1tDSDNd

> <s_epik_cmdline>
J2VwaWtfYXBwJywgJy1pbWFlJywgJ2xpZ2FuZF9wcm8ubWFlJywgJy1vbWFlJywgJ2xpZ2FuZF9wcmVwLm1hZScsICctbXMnLCAnMScsICctcGgnLCAnNycsICctcGh0JywgJzAuNScsICctbnQn

> <r_lp_tautomer_probability>
1

> <r_epik_Ionization_Penalty>
  0.0043

> <r_epik_Ionization_Penalty_Charging>
  0.0000

> <r_epik_Ionization_Penalty_Neutral>
  0.0043

> <r_epik_State_Penalty>
 -0.0000

> <r_epik_Charging_Adjusted_Penalty>
1.08028174913004e-06

> <i_epik_Tot_Q>
-1

> <i_epik_Tot_abs_Q>
1

> <s_epik_Chemistry_Notes>
This compound has an imine and may undergo hydrolysis.

$$$$
