3iuc_ligand
                    3D
 Schrodinger Suite 2020-3.
 39 41  0  0  1  0            999 V2000
    0.3330   -0.6570    0.3950 P   0  0  0  0  0  0
   -0.4280   -1.2750   -0.7550 O   0  5  0  0  0  0
    0.8090    0.7890    0.2070 O   0  5  0  0  0  0
   -0.2960   -0.8440    1.7470 O   0  0  0  0  0  0
    2.0540   -2.9890    0.0210 P   0  0  1  0  0  0
    1.2740   -3.2630   -1.2530 O   0  5  0  0  0  0
    3.5610   -3.1660   -0.0350 O   0  0  0  0  0  0
    1.7320   -1.4920    0.4510 O   0  0  0  0  0  0
    1.5530   -3.9580    1.1710 O   0  0  0  0  0  0
    1.9850   -3.6760    2.5140 C   0  0  0  0  0  0
    1.6010   -4.8250    3.4360 C   0  0  1  0  0  0
    2.1800   -6.0140    2.9240 O   0  0  0  0  0  0
    2.1160   -4.6950    4.8710 C   0  0  1  0  0  0
    1.0790   -4.9070    5.8160 O   0  0  0  0  0  0
    3.1000   -5.8280    5.0240 C   0  0  1  0  0  0
    3.1880   -6.3830    6.3270 O   0  0  0  0  0  0
    2.5670   -6.8180    4.0160 C   0  0  2  0  0  0
    3.6600   -7.7210    3.6910 N   0  0  0  0  0  0
    4.8430   -7.4100    3.0940 C   0  0  0  0  0  0
    5.6360   -8.5220    2.9870 N   0  0  0  0  0  0
    4.9200   -9.5380    3.5330 C   0  0  0  0  0  0
    5.1080  -10.9550    3.7550 C   0  0  0  0  0  0
    6.2770  -11.5080    3.3790 N   0  0  0  0  0  0
    4.1190  -11.6740    4.3680 N   0  0  0  0  0  0
    2.9750  -11.1190    4.7900 C   0  0  0  0  0  0
    2.7320   -9.8050    4.6000 N   0  0  0  0  0  0
    3.6330   -9.0070    3.9920 C   0  0  0  0  0  0
    3.0776   -3.5496    2.5288 H   0  0  0  0  0  0
    1.5042   -2.7519    2.8674 H   0  0  0  0  0  0
    0.5030   -4.8919    3.4353 H   0  0  0  0  0  0
    2.5026   -3.6910    5.1004 H   0  0  0  0  0  0
    0.2428   -4.1956    5.8838 H   0  0  0  0  0  0
    4.1522   -5.5246    4.9194 H   0  0  0  0  0  0
    3.5612   -5.7711    7.1614 H   0  0  0  0  0  0
    1.7044   -7.4383    4.3008 H   0  0  0  0  0  0
    5.1209   -6.4141    2.7489 H   0  0  0  0  0  0
    7.0446  -10.8913    2.8886 H   0  0  0  0  0  0
    6.4642  -12.5764    3.5622 H   0  0  0  0  0  0
    2.2310  -11.7365    5.2932 H   0  0  0  0  0  0
  1  2  1  0  0  0
  1  3  1  0  0  0
  1  4  2  0  0  0
  1  8  1  0  0  0
  5  6  1  0  0  0
  5  7  2  0  0  0
  5  8  1  0  0  0
  5  9  1  0  0  0
  9 10  1  0  0  0
 10 11  1  0  0  0
 10 28  1  0  0  0
 10 29  1  0  0  0
 11 12  1  0  0  0
 11 13  1  0  0  0
 11 30  1  0  0  0
 12 17  1  0  0  0
 13 14  1  0  0  0
 13 15  1  0  0  0
 13 31  1  0  0  0
 14 32  1  0  0  0
 15 16  1  0  0  0
 15 17  1  0  0  0
 15 33  1  0  0  0
 16 34  1  0  0  0
 17 18  1  0  0  0
 17 35  1  0  0  0
 18 19  1  0  0  0
 18 27  1  0  0  0
 19 20  2  0  0  0
 19 36  1  0  0  0
 20 21  1  0  0  0
 21 22  2  0  0  0
 21 27  1  0  0  0
 22 23  1  0  0  0
 22 24  1  0  0  0
 23 37  1  0  0  0
 23 38  1  0  0  0
 24 25  2  0  0  0
 25 26  1  0  0  0
 25 39  1  0  0  0
 26 27  2  0  0  0
M  CHG  3   2  -1   3  -1   6  -1
M  END
> <s_m_source_file>
../3iuc_ligand.sdf

> <i_m_source_file_index>
1

> <s_epik_input>
W09IXVAoPU8pKFtPSF0pT1tQQF0oPU8pKFtPSF0pT1tDSDJdW0NASF0xT1tDQEhdKFtDQEhdKFtPSF0pW0NAQEhdMVtPSF0pbihbY0hdbjIpYyhjMjMpbltjSF1uYzNbTkgyXQ==

> <s_epik_cmdline>
J2VwaWtfYXBwJywgJy1pbWFlJywgJ2xpZ2FuZF9wcm8ubWFlJywgJy1vbWFlJywgJ2xpZ2FuZF9wcmVwLm1hZScsICctbXMnLCAnMScsICctcGgnLCAnNycsICctcGh0JywgJzAuNScsICctbnQn

> <r_lp_tautomer_probability>
0.999997216410988

> <r_epik_Ionization_Penalty>
  0.1037

> <r_epik_Ionization_Penalty_Charging>
  0.1033

> <r_epik_Ionization_Penalty_Neutral>
  0.0004

> <r_epik_State_Penalty>
  0.0922

> <r_epik_Charging_Adjusted_Penalty>
0.19546844050481

> <i_epik_Tot_Q>
-3

> <i_epik_Tot_abs_Q>
3

> <s_epik_Chemistry_Notes>
This compound contains an acetal/aminal-like group ( X-CH(R)-Y where X, Y are N, S, or O) that may be acid/base labile, releasing an aldehyde.

$$$$
