3iut_ligand
                    3D
 Schrodinger Suite 2020-3.
 64 66  0  0  1  0            999 V2000
    0.8790   13.3170   -1.3890 C   0  0  0  0  0  0
    1.3520   14.0030   -0.3630 N   0  0  0  0  0  0
    0.8690   13.7880    0.8960 C   0  0  0  0  0  0
   -0.1000   12.7710    1.1390 C   0  0  0  0  0  0
   -0.6190   12.1120    0.0280 C   0  0  0  0  0  0
   -0.0920   12.3970   -1.1990 C   0  0  0  0  0  0
   -0.5070   12.5480    2.4700 C   0  0  0  0  0  0
    0.0510   13.2680    3.5200 C   0  0  0  0  0  0
    0.9910   14.2840    3.2680 C   0  0  0  0  0  0
    1.4050   14.5290    1.9630 C   0  0  0  0  0  0
   -0.3240   12.9150    4.9850 C   0  0  0  0  0  0
   -0.1450   11.3910    5.1680 N   0  3  0  0  0  0
    0.2450   10.9200    6.5290 C   0  0  2  0  0  0
    1.6060   11.5790    6.8650 C   0  0  0  0  0  0
    2.6520   11.4320    5.9860 N   0  0  0  0  0  0
    3.6720   12.0390    6.4630 N   0  0  0  0  0  0
    3.3310   12.5080    7.6110 N   0  0  0  0  0  0
    2.0360   12.2710    7.9230 C   0  0  0  0  0  0
    4.3390   13.2990    8.3610 C   0  0  2  0  0  0
    5.1730   12.4330    9.3040 C   0  0  0  0  0  0
    6.4080   12.5410    9.3540 O   0  0  0  0  0  0
    4.5260   11.3850   10.1020 C   0  0  0  0  0  0
    3.7280   14.4820    9.0420 C   0  0  0  0  0  0
    3.2540   15.4900    7.9650 C   0  0  0  0  0  0
    4.3970   16.1390    7.1830 C   0  0  0  0  0  0
    5.0030   17.3820    7.8650 C   0  0  0  0  0  0
    0.4150    9.3660    6.4580 C   0  0  0  0  0  0
   -0.8250    8.5920    6.1170 C   0  0  0  0  0  0
    1.0690    8.7930    7.7590 C   0  0  0  0  0  0
   -0.8650   11.3220    7.5520 C   0  0  0  0  0  0
    1.2729   13.4938   -2.3899 H   0  0  0  0  0  0
   -1.4257   11.3868    0.1349 H   0  0  0  0  0  0
   -0.4726   11.8569   -2.0659 H   0  0  0  0  0  0
   -1.2711   11.7994    2.6791 H   0  0  0  0  0  0
    1.3925   14.8757    4.0907 H   0  0  0  0  0  0
    2.1497   15.3004    1.7667 H   0  0  0  0  0  0
    0.3367   13.4612    5.6744 H   0  0  0  0  0  0
   -1.3691   13.2009    5.1751 H   0  0  0  0  0  0
   -1.0910   10.8802    4.9352 H   0  0  0  0  0  0
    0.6429   11.0303    4.4904 H   0  0  0  0  0  0
    1.4830   12.5697    8.8136 H   0  0  0  0  0  0
    5.0206   13.7106    7.6021 H   0  0  0  0  0  0
    3.4378   11.4245    9.9460 H   0  0  0  0  0  0
    4.7497   11.5445   11.1671 H   0  0  0  0  0  0
    4.9055   10.4005    9.7910 H   0  0  0  0  0  0
    2.8705   14.1539    9.6479 H   0  0  0  0  0  0
    4.4765   14.9573    9.6931 H   0  0  0  0  0  0
    2.6116   14.9733    7.2367 H   0  0  0  0  0  0
    2.6856   16.2999    8.4456 H   0  0  0  0  0  0
    5.2122   15.4118    7.0540 H   0  0  0  0  0  0
    4.0311   16.4584    6.1961 H   0  0  0  0  0  0
    5.8137   17.7845    7.2399 H   0  0  0  0  0  0
    5.4044   17.1008    8.8498 H   0  0  0  0  0  0
    4.2232   18.1474    7.9918 H   0  0  0  0  0  0
    1.0571    9.1902    5.5823 H   0  0  0  0  0  0
   -1.2745    9.0044    5.2016 H   0  0  0  0  0  0
   -1.5445    8.6687    6.9455 H   0  0  0  0  0  0
   -0.5647    7.5358    5.9540 H   0  0  0  0  0  0
    1.9757    9.3683    7.9976 H   0  0  0  0  0  0
    1.3354    7.7375    7.6012 H   0  0  0  0  0  0
    0.3556    8.8704    8.5927 H   0  0  0  0  0  0
   -0.9598   12.4176    7.5785 H   0  0  0  0  0  0
   -0.5929   10.9532    8.5520 H   0  0  0  0  0  0
   -1.8238   10.8782    7.2459 H   0  0  0  0  0  0
  1  2  2  0  0  0
  1  6  1  0  0  0
  1 31  1  0  0  0
  2  3  1  0  0  0
  3  4  2  0  0  0
  3 10  1  0  0  0
  4  5  1  0  0  0
  4  7  1  0  0  0
  5  6  2  0  0  0
  5 32  1  0  0  0
  6 33  1  0  0  0
  7  8  2  0  0  0
  7 34  1  0  0  0
  8  9  1  0  0  0
  8 11  1  0  0  0
  9 10  2  0  0  0
  9 35  1  0  0  0
 10 36  1  0  0  0
 11 12  1  0  0  0
 11 37  1  0  0  0
 11 38  1  0  0  0
 12 13  1  0  0  0
 12 39  1  0  0  0
 12 40  1  0  0  0
 13 14  1  0  0  0
 13 27  1  0  0  0
 13 30  1  0  0  0
 14 15  1  0  0  0
 14 18  2  0  0  0
 15 16  2  0  0  0
 16 17  1  0  0  0
 17 18  1  0  0  0
 17 19  1  0  0  0
 18 41  1  0  0  0
 19 20  1  0  0  0
 19 23  1  0  0  0
 19 42  1  0  0  0
 20 21  2  0  0  0
 20 22  1  0  0  0
 22 43  1  0  0  0
 22 44  1  0  0  0
 22 45  1  0  0  0
 23 24  1  0  0  0
 23 46  1  0  0  0
 23 47  1  0  0  0
 24 25  1  0  0  0
 24 48  1  0  0  0
 24 49  1  0  0  0
 25 26  1  0  0  0
 25 50  1  0  0  0
 25 51  1  0  0  0
 26 52  1  0  0  0
 26 53  1  0  0  0
 26 54  1  0  0  0
 27 28  1  0  0  0
 27 29  1  0  0  0
 27 55  1  0  0  0
 28 56  1  0  0  0
 28 57  1  0  0  0
 28 58  1  0  0  0
 29 59  1  0  0  0
 29 60  1  0  0  0
 29 61  1  0  0  0
 30 62  1  0  0  0
 30 63  1  0  0  0
 30 64  1  0  0  0
M  CHG  1  12   1
M  END
> <s_m_source_file>
../3iut_ligand.sdf

> <i_m_source_file_index>
1

> <s_epik_input>
bjFbY0hdW2NIXVtjSF1jKGMxMilbY0hdYyhbY0hdW2NIXTIpW0NIMl1bTkgyK11bQ0BAXShbQ0gzXSkoW0NIXShbQ0gzXSlbQ0gzXSljM25ubihbY0hdMylbQ0BIXShDKD1PKVtDSDNdKVtDSDJdW0NIMl1bQ0gyXVtDSDNd

> <s_epik_cmdline>
J2VwaWtfYXBwJywgJy1pbWFlJywgJ2xpZ2FuZF9wcm8ubWFlJywgJy1vbWFlJywgJ2xpZ2FuZF9wcmVwLm1hZScsICctbXMnLCAnMScsICctcGgnLCAnNycsICctcGh0JywgJzAuNScsICctbnQn

> <r_lp_tautomer_probability>
0.99995

> <r_epik_Ionization_Penalty>
  0.2164

> <r_epik_Ionization_Penalty_Charging>
  0.2131

> <r_epik_Ionization_Penalty_Neutral>
  0.0033

> <r_epik_State_Penalty>
  0.2032

> <r_epik_Charging_Adjusted_Penalty>
0.416268378141928

> <i_epik_Tot_Q>
1

> <i_epik_Tot_abs_Q>
1

$$$$
