3iux_ligand
                    3D
 Schrodinger Suite 2020-3.
293300  0  0  1  0            999 V2000
    0.3630   34.3500   12.0330 N   0  3  0  0  0  0
    0.7940   33.6150   10.7900 C   0  0  2  0  0  0
    0.1830   34.2260    9.5390 C   0  0  0  0  0  0
   -1.0110   34.1370    9.3090 O   0  0  0  0  0  0
    0.4440   32.1330   10.9160 C   0  0  0  0  0  0
    0.7870   31.1040    9.4690 S   0  0  0  0  0  0
    1.0540   34.8390    8.7420 N   0  0  0  0  0  0
    0.7240   35.5260    7.5100 C   0  0  2  0  0  0
    1.0590   34.6230    6.3280 C   0  0  0  0  0  0
    2.2110   34.4820    5.9650 O   0  0  0  0  0  0
    1.4890   36.8340    7.4200 C   0  0  0  0  0  0
    1.2110   37.5730    6.1130 C   0  0  0  0  0  0
    0.3410   37.1820    5.3410 O   0  0  0  0  0  0
    1.9380   38.6500    5.8810 N   0  0  0  0  0  0
    0.0450   34.0610    5.6970 N   0  0  0  0  0  0
    0.3360   33.1220    4.6000 C   0  0  2  0  0  0
    0.9490   33.7890    3.3550 C   0  0  0  0  0  0
    1.4630   33.0840    2.4730 O   0  0  0  0  0  0
   -0.9250   32.3320    4.2580 C   0  0  0  0  0  0
   -1.4440   31.2640    5.6260 S   0  0  0  0  0  0
    0.9120   35.1310    3.2790 N   0  0  0  0  0  0
    1.6680   35.8400    2.2410 C   0  0  2  0  0  0
    3.1800   35.8830    2.5270 C   0  0  0  0  0  0
    4.0010   36.1420    1.6180 O   0  0  0  0  0  0
    1.1190   37.2460    2.0250 C   0  0  0  0  0  0
   -0.2190   37.2330    1.3280 C   0  0  0  0  0  0
   -0.5390   38.6070    0.7720 C   0  0  0  0  0  0
   -1.8780   38.6240    0.0350 C   0  0  0  0  0  0
   -2.1420   39.9290   -0.6260 N   0  3  0  0  0  0
    3.5640   35.6580    3.7820 N   0  0  0  0  0  0
    4.9660   35.7020    4.1610 C   0  0  2  0  0  0
    5.1840   34.9070    5.4440 C   0  0  0  0  0  0
    5.4380   35.4910    6.4970 O   0  0  0  0  0  0
    5.4160   37.1910    4.3480 C   0  0  0  0  0  0
    5.0870   33.5770    5.3400 N   0  0  0  0  0  0
    5.4390   32.7990    6.4940 C   0  0  2  0  0  0
    6.9380   32.9660    6.6680 C   0  0  0  0  0  0
    7.6830   33.0960    5.6820 O   0  0  0  0  0  0
    5.1050   31.3650    6.0680 C   0  0  0  0  0  0
    4.0860   31.5300    4.9510 C   0  0  0  0  0  0
    4.5640   32.7430    4.2440 C   0  0  0  0  0  0
    7.3670   33.0210    7.9120 N   0  0  0  0  0  0
    8.7770   33.0660    8.2170 C   0  0  2  0  0  0
    9.1420   31.7500    8.8870 C   0  0  0  0  0  0
   10.2970   31.3280    8.8340 O   0  0  0  0  0  0
    9.0840   34.2260    9.1680 C   0  0  0  0  0  0
   10.5300   34.3580    9.5000 C   0  0  0  0  0  0
   11.3690   34.3620    8.2560 C   0  0  0  0  0  0
   12.3570   33.5940    8.2060 O   0  0  0  0  0  0
   11.0010   35.0970    7.3110 O   0  0  0  0  0  0
    8.1570   31.1040    9.5100 N   0  0  0  0  0  0
    8.4660   29.8720   10.2820 C   0  0  2  0  0  0
    7.9000   28.6150    9.6470 C   0  0  0  0  0  0
    6.8340   28.6490    8.9830 O   0  0  0  0  0  0
    7.9280   29.9510   11.7150 C   0  0  2  0  0  0
    6.4910   30.0770   11.7130 O   0  0  0  0  0  0
    8.5070   31.1350   12.4170 C   0  0  0  0  0  0
    8.5540   27.4890    9.9060 N   0  0  0  0  0  0
    8.0790   26.2200    9.3710 C   0  0  2  0  0  0
    6.5990   25.9790    9.7850 C   0  0  0  0  0  0
    5.7740   25.6250    8.9470 O   0  0  0  0  0  0
    8.9290   25.0260    9.8820 C   0  0  0  0  0  0
    8.2480   23.7460    9.6630 C   0  0  0  0  0  0
    8.1730   23.2290    8.3760 C   0  0  0  0  0  0
    7.5940   23.0870   10.7160 C   0  0  0  0  0  0
    7.4600   22.0390    8.1450 C   0  0  0  0  0  0
    6.9020   21.9070   10.5260 C   0  0  0  0  0  0
    6.8070   21.3800    9.2470 C   0  0  0  0  0  0
    6.2520   26.1790   11.0650 N   0  0  0  0  0  0
    4.8510   25.7950   11.4610 C   0  0  2  0  0  0
    3.8120   26.7430   10.8410 C   0  0  0  0  0  0
    2.6780   26.3190   10.6020 O   0  0  0  0  0  0
    4.6660   25.6330   12.9900 C   0  0  0  0  0  0
    5.2400   24.2970   13.5650 C   0  0  0  0  0  0
    5.1750   24.3370   15.0440 C   0  0  0  0  0  0
    4.5110   23.0740   13.0490 C   0  0  0  0  0  0
    4.2130   27.9760   10.5290 N   0  0  0  0  0  0
    3.2970   28.8660    9.8230 C   0  0  2  0  0  0
    3.1390   28.4270    8.3510 C   0  0  0  0  0  0
    2.0230   28.3490    7.8320 O   0  0  0  0  0  0
    3.7440   30.3190    9.9140 C   0  0  0  0  0  0
    2.7100   31.4870    8.9870 S   0  0  0  0  0  0
    4.2380   28.0600    7.6860 N   0  0  0  0  0  0
    4.0830   27.3820    6.3940 C   0  0  2  0  0  0
    3.1520   26.1570    6.4900 C   0  0  0  0  0  0
    2.2870   25.9550    5.6150 O   0  0  0  0  0  0
    5.4170   26.9360    5.7900 C   0  0  0  0  0  0
    6.2410   28.0520    5.1860 C   0  0  0  0  0  0
    7.3940   28.5420    5.8140 C   0  0  0  0  0  0
    5.8660   28.6170    3.9610 C   0  0  0  0  0  0
    8.1360   29.5580    5.2280 C   0  0  0  0  0  0
    6.5980   29.6350    3.3810 C   0  0  0  0  0  0
    7.7220   30.1130    4.0120 C   0  0  0  0  0  0
    8.4490   31.1220    3.3910 O   0  0  0  0  0  0
    3.3060   25.3670    7.5400 N   0  0  0  0  0  0
    2.5680   24.1380    7.6490 C   0  0  2  0  0  0
    1.0680   24.4460    7.9010 C   0  0  0  0  0  0
    0.1890   23.7440    7.4440 O   0  0  0  0  0  0
    3.1950   23.2650    8.7880 C   0  0  0  0  0  0
    2.7170   21.8820    8.7920 C   0  0  0  0  0  0
    1.7850   21.3340    9.6280 C   0  0  0  0  0  0
    3.1340   20.8520    7.9080 C   0  0  0  0  0  0
    1.5670   20.0150    9.2790 N   0  0  0  0  0  0
    2.3780   19.6980    8.2260 C   0  0  0  0  0  0
    4.0490   20.8120    6.8400 C   0  0  0  0  0  0
    2.5180   18.4860    7.5300 C   0  0  0  0  0  0
    4.1870   19.6010    6.1290 C   0  0  0  0  0  0
    3.4510   18.4400    6.5240 C   0  0  0  0  0  0
    0.8020   25.5060    8.6620 N   0  0  0  0  0  0
   -0.5910   25.9330    8.8810 C   0  0  2  0  0  0
   -1.2140   26.4080    7.5660 C   0  0  0  0  0  0
   -2.3560   26.1110    7.2640 O   0  0  0  0  0  0
   -0.6380   27.0700    9.9210 C   0  0  0  0  0  0
   -2.0040   27.6150   10.3000 C   0  0  0  0  0  0
   -1.8750   28.4720   11.6230 C   0  0  0  0  0  0
   -2.9130   29.4960   11.7830 N   0  0  0  0  0  0
   -2.8100   30.5440   12.6040 C   0  0  0  0  0  0
   -1.7230   30.6980   13.3680 N   0  0  0  0  0  0
   -3.7930   31.4370   12.6710 N   0  0  0  0  0  0
   -0.4370   27.1860    6.8190 N   0  0  0  0  0  0
   -0.8970   27.7330    5.5610 C   0  0  2  0  0  0
   -1.2120   26.6510    4.5360 C   0  0  0  0  0  0
   -2.1580   26.7790    3.7550 O   0  0  0  0  0  0
    0.1240   28.7200    5.0150 C   0  0  0  0  0  0
    0.2050   30.1840    6.0830 S   0  0  0  0  0  0
   -0.4590   25.5530    4.5920 N   0  0  0  0  0  0
   -0.7090   24.3610    3.7480 C   0  0  2  0  0  0
   -2.1210   23.8250    3.9410 C   0  0  0  0  0  0
   -2.7330   23.3560    3.0160 O   0  0  0  0  0  0
    0.3270   23.2790    4.1910 C   0  0  0  0  0  0
    0.0120   21.8210    3.8370 C   0  0  0  0  0  0
    0.0990   21.5620    2.3230 C   0  0  0  0  0  0
    0.9440   20.9100    4.6120 C   0  0  0  0  0  0
   -2.6520   23.9720    5.1490 N   0  0  0  0  0  0
   -3.9280   23.3760    5.5350 C   0  0  2  0  0  0
   -5.1390   24.2570    5.3890 C   0  0  0  0  0  0
   -6.2750   23.7950    5.4830 O   0  0  0  0  0  0
   -3.8170   23.0180    7.0000 C   0  0  0  0  0  0
   -2.8220   21.9140    7.2240 C   0  0  0  0  0  0
   -2.6860   21.6210    8.6880 C   0  0  0  0  0  0
   -3.6370   21.1340    9.3360 O   0  0  0  0  0  0
   -1.5040   21.8870    9.2390 N   0  0  0  0  0  0
   -4.9320   25.6150    4.7660 N   0  0  0  0  0  0
   -6.1050   26.4510    4.5600 C   0  0  1  0  0  0
   -5.5050   27.8460    4.5520 C   0  0  0  0  0  0
   -5.1230   28.3120    5.9450 C   0  0  0  0  0  0
   -4.2740   29.3440    6.2170 N   0  0  0  0  0  0
   -5.5680   27.8520    7.1810 C   0  0  0  0  0  0
   -4.1610   29.5160    7.5550 C   0  0  0  0  0  0
   -4.9670   28.6060    8.1330 N   0  0  0  0  0  0
   -6.8170   26.0780    3.2710 C   0  0  0  0  0  0
   -6.2600   25.4870    2.3390 O   0  0  0  0  0  0
   -8.0080   26.3880    3.1640 N   0  0  0  0  0  0
    0.6178   35.4157   11.9357 H   0  0  0  0  0  0
    0.8806   33.9275   12.9068 H   0  0  0  0  0  0
   -0.7240   34.2433   12.1637 H   0  0  0  0  0  0
    1.8849   33.7216   10.6975 H   0  0  0  0  0  0
    1.0160   31.6904   11.7448 H   0  0  0  0  0  0
   -0.6325   32.0261   11.1153 H   0  0  0  0  0  0
    2.0983   34.7958    9.0849 H   0  0  0  0  0  0
   -0.3548   35.7387    7.5402 H   0  0  0  0  0  0
    1.1946   37.4890    8.2533 H   0  0  0  0  0  0
    2.5688   36.6319    7.4763 H   0  0  0  0  0  0
    2.7068   38.9608    6.6037 H   0  0  0  0  0  0
    1.7751   39.2367    4.9649 H   0  0  0  0  0  0
   -0.9974   34.2789    5.9725 H   0  0  0  0  0  0
    1.1085   32.4507    5.0031 H   0  0  0  0  0  0
   -1.7456   33.0298    4.0351 H   0  0  0  0  0  0
   -0.7337   31.6983    3.3795 H   0  0  0  0  0  0
    0.3084   35.6974    4.0035 H   0  0  0  0  0  0
    1.4991   35.2363    1.3371 H   0  0  0  0  0  0
    0.9933   37.7440    2.9977 H   0  0  0  0  0  0
    1.8217   37.8229    1.4059 H   0  0  0  0  0  0
   -0.1943   36.5087    0.5005 H   0  0  0  0  0  0
   -1.0027   36.9450    2.0441 H   0  0  0  0  0  0
   -0.5896   39.3335    1.5964 H   0  0  0  0  0  0
    0.2479   38.9089    0.0651 H   0  0  0  0  0  0
   -1.8799   37.8433   -0.7399 H   0  0  0  0  0  0
   -2.6923   38.4334    0.7495 H   0  0  0  0  0  0
   -3.1136   39.8896   -1.1403 H   0  0  0  0  0  0
   -1.3477   40.1365   -1.3582 H   0  0  0  0  0  0
   -2.1601   40.7266    0.1313 H   0  0  0  0  0  0
    2.7966   35.4355    4.5380 H   0  0  0  0  0  0
    5.5164   35.2145    3.3428 H   0  0  0  0  0  0
    5.2501   37.7445    3.4120 H   0  0  0  0  0  0
    6.4846   37.2213    4.6074 H   0  0  0  0  0  0
    4.8293   37.6526    5.1559 H   0  0  0  0  0  0
    4.9117   33.1161    7.4058 H   0  0  0  0  0  0
    6.0199   30.8637    5.7191 H   0  0  0  0  0  0
    4.6897   30.8151    6.9254 H   0  0  0  0  0  0
    4.0952   30.6353    4.3112 H   0  0  0  0  0  0
    3.0837   31.6599    5.3852 H   0  0  0  0  0  0
    3.7540   33.2802    3.7289 H   0  0  0  0  0  0
    5.3724   32.5266    3.5301 H   0  0  0  0  0  0
    6.6275   33.0324    8.7263 H   0  0  0  0  0  0
    9.3103   33.2113    7.2660 H   0  0  0  0  0  0
    8.7652   35.1724    8.7068 H   0  0  0  0  0  0
    8.5420   34.0781   10.1137 H   0  0  0  0  0  0
   10.6973   35.3008   10.0414 H   0  0  0  0  0  0
   10.8398   33.5125   10.1318 H   0  0  0  0  0  0
   11.5864   35.1308    6.3803 H   0  0  0  0  0  0
    7.1227   31.4748    9.4567 H   0  0  0  0  0  0
    9.5650   29.8300   10.2618 H   0  0  0  0  0  0
    8.1678   29.0286   12.2642 H   0  0  0  0  0  0
    5.8715   29.3006   11.2404 H   0  0  0  0  0  0
    9.6040   31.0547   12.4276 H   0  0  0  0  0  0
    8.1318   31.1681   13.4505 H   0  0  0  0  0  0
    8.2117   32.0543   11.8900 H   0  0  0  0  0  0
    9.4601   27.5186   10.5290 H   0  0  0  0  0  0
    8.1944   26.3436    8.2841 H   0  0  0  0  0  0
    9.8897   25.0042    9.3467 H   0  0  0  0  0  0
    9.1126   25.1416   10.9604 H   0  0  0  0  0  0
    8.6641   23.7428    7.5496 H   0  0  0  0  0  0
    7.6336   23.5204   11.7153 H   0  0  0  0  0  0
    7.4020   21.6190    7.1408 H   0  0  0  0  0  0
    6.4370   21.3971   11.3697 H   0  0  0  0  0  0
    6.2378   20.4664    9.0753 H   0  0  0  0  0  0
    6.9385   26.6024   11.8130 H   0  0  0  0  0  0
    4.7000   24.7971   11.0235 H   0  0  0  0  0  0
    5.1782   26.4557   13.5105 H   0  0  0  0  0  0
    3.5937   25.6559   13.2341 H   0  0  0  0  0  0
    6.2922   24.1793   13.2666 H   0  0  0  0  0  0
    5.7065   25.2277   15.4104 H   0  0  0  0  0  0
    5.6469   23.4329   15.4563 H   0  0  0  0  0  0
    4.1234   24.3801   15.3637 H   0  0  0  0  0  0
    4.5640   23.0519   11.9505 H   0  0  0  0  0  0
    3.4580   23.1145   13.3646 H   0  0  0  0  0  0
    4.9815   22.1673   13.4571 H   0  0  0  0  0  0
    5.2211   28.3248   10.7976 H   0  0  0  0  0  0
    2.3412   28.7676   10.3584 H   0  0  0  0  0  0
    3.7268   30.6427   10.9651 H   0  0  0  0  0  0
    4.7658   30.4138    9.5178 H   0  0  0  0  0  0
    5.2433   28.2559    8.0872 H   0  0  0  0  0  0
    3.6391   28.1719    5.7703 H   0  0  0  0  0  0
    6.0358   26.4704    6.5712 H   0  0  0  0  0  0
    5.2307   26.2075    4.9871 H   0  0  0  0  0  0
    7.7102   28.1224    6.7690 H   0  0  0  0  0  0
    4.9760   28.2451    3.4533 H   0  0  0  0  0  0
    9.0404   29.9233    5.7145 H   0  0  0  0  0  0
    6.2854   30.0578    2.4262 H   0  0  0  0  0  0
    9.3528   31.5244    3.8718 H   0  0  0  0  0  0
    4.0079   25.6594    8.3349 H   0  0  0  0  0  0
    2.6704   23.6343    6.6765 H   0  0  0  0  0  0
    4.2880   23.2358    8.6680 H   0  0  0  0  0  0
    2.9451   23.7031    9.7655 H   0  0  0  0  0  0
    1.2893   21.8576   10.4454 H   0  0  0  0  0  0
    4.6343   21.6909    6.5697 H   0  0  0  0  0  0
    1.9099   17.6163    7.7788 H   0  0  0  0  0  0
    4.8593   19.5500    5.2726 H   0  0  0  0  0  0
    3.6355   17.4948    6.0134 H   0  0  0  0  0  0
    1.6279   26.0635    9.1280 H   0  0  0  0  0  0
   -1.1308   25.0483    9.2498 H   0  0  0  0  0  0
   -0.1907   26.7229   10.8641 H   0  0  0  0  0  0
   -0.0732   27.9354    9.5440 H   0  0  0  0  0  0
   -2.3846   28.2491    9.4857 H   0  0  0  0  0  0
   -2.6985   26.7788   10.4687 H   0  0  0  0  0  0
   -1.9406   27.8082   12.4977 H   0  0  0  0  0  0
   -0.9060   28.9926   11.6297 H   0  0  0  0  0  0
   -3.8470   29.4272   11.2061 H   0  0  0  0  0  0
   -0.9064   29.9628   13.3172 H   0  0  0  0  0  0
   -1.6457   31.5599   14.0471 H   0  0  0  0  0  0
   -4.6896   31.3160   12.0453 H   0  0  0  0  0  0
    0.5780   27.4111    7.1783 H   0  0  0  0  0  0
   -1.8350   28.2495    5.8128 H   0  0  0  0  0  0
    1.1141   28.2420    4.9807 H   0  0  0  0  0  0
   -0.1697   29.0280    4.0007 H   0  0  0  0  0  0
    0.3792   25.5565    5.3043 H   0  0  0  0  0  0
   -0.6193   24.6643    2.6944 H   0  0  0  0  0  0
    1.3004   23.4907    3.7246 H   0  0  0  0  0  0
    0.4328   23.2991    5.2857 H   0  0  0  0  0  0
   -1.0228   21.5976    4.1357 H   0  0  0  0  0  0
   -0.5887   22.2390    1.7951 H   0  0  0  0  0  0
   -0.1800   20.5189    2.1128 H   0  0  0  0  0  0
    1.1279   21.7429    1.9786 H   0  0  0  0  0  0
    0.8547   21.1233    5.6874 H   0  0  0  0  0  0
    1.9806   21.0849    4.2883 H   0  0  0  0  0  0
    0.6727   19.8610    4.4225 H   0  0  0  0  0  0
   -2.0850   24.5748    5.8736 H   0  0  0  0  0  0
   -4.0599   22.5372    4.8357 H   0  0  0  0  0  0
   -3.4911   23.9009    7.5695 H   0  0  0  0  0  0
   -4.7971   22.6836    7.3710 H   0  0  0  0  0  0
   -3.1611   21.0043    6.7069 H   0  0  0  0  0  0
   -1.8420   22.2175    6.8272 H   0  0  0  0  0  0
   -0.6963   22.3159    8.6278 H   0  0  0  0  0  0
   -1.3349   21.6780   10.3056 H   0  0  0  0  0  0
   -3.9375   25.9803    4.4703 H   0  0  0  0  0  0
   -6.8662   26.3176    5.3428 H   0  0  0  0  0  0
   -4.5987   27.8517    3.9286 H   0  0  0  0  0  0
   -6.2367   28.5575    4.1417 H   0  0  0  0  0  0
   -6.2630   27.0505    7.4717 H   0  0  0  0  0  0
   -3.5376   30.2499    8.0658 H   0  0  0  0  0  0
   -8.5154   26.9141    3.9860 H   0  0  0  0  0  0
   -8.5611   26.1379    2.2467 H   0  0  0  0  0  0
  1  2  1  0  0  0
  1154  1  0  0  0
  1155  1  0  0  0
  1156  1  0  0  0
  2  3  1  0  0  0
  2  5  1  0  0  0
  2157  1  0  0  0
  3  4  2  0  0  0
  3  7  1  0  0  0
  5  6  1  0  0  0
  5158  1  0  0  0
  5159  1  0  0  0
  6 82  1  0  0  0
  7  8  1  0  0  0
  7160  1  0  0  0
  8  9  1  0  0  0
  8 11  1  0  0  0
  8161  1  0  0  0
  9 10  2  0  0  0
  9 15  1  0  0  0
 11 12  1  0  0  0
 11162  1  0  0  0
 11163  1  0  0  0
 12 13  2  0  0  0
 12 14  1  0  0  0
 14164  1  0  0  0
 14165  1  0  0  0
 15 16  1  0  0  0
 15166  1  0  0  0
 16 17  1  0  0  0
 16 19  1  0  0  0
 16167  1  0  0  0
 17 18  2  0  0  0
 17 21  1  0  0  0
 19 20  1  0  0  0
 19168  1  0  0  0
 19169  1  0  0  0
 20125  1  0  0  0
 21 22  1  0  0  0
 21170  1  0  0  0
 22 23  1  0  0  0
 22 25  1  0  0  0
 22171  1  0  0  0
 23 24  2  0  0  0
 23 30  1  0  0  0
 25 26  1  0  0  0
 25172  1  0  0  0
 25173  1  0  0  0
 26 27  1  0  0  0
 26174  1  0  0  0
 26175  1  0  0  0
 27 28  1  0  0  0
 27176  1  0  0  0
 27177  1  0  0  0
 28 29  1  0  0  0
 28178  1  0  0  0
 28179  1  0  0  0
 29180  1  0  0  0
 29181  1  0  0  0
 29182  1  0  0  0
 30 31  1  0  0  0
 30183  1  0  0  0
 31 32  1  0  0  0
 31 34  1  0  0  0
 31184  1  0  0  0
 32 33  2  0  0  0
 32 35  1  0  0  0
 34185  1  0  0  0
 34186  1  0  0  0
 34187  1  0  0  0
 35 36  1  0  0  0
 35 41  1  0  0  0
 36 37  1  0  0  0
 36 39  1  0  0  0
 36188  1  0  0  0
 37 38  2  0  0  0
 37 42  1  0  0  0
 39 40  1  0  0  0
 39189  1  0  0  0
 39190  1  0  0  0
 40 41  1  0  0  0
 40191  1  0  0  0
 40192  1  0  0  0
 41193  1  0  0  0
 41194  1  0  0  0
 42 43  1  0  0  0
 42195  1  0  0  0
 43 44  1  0  0  0
 43 46  1  0  0  0
 43196  1  0  0  0
 44 45  2  0  0  0
 44 51  1  0  0  0
 46 47  1  0  0  0
 46197  1  0  0  0
 46198  1  0  0  0
 47 48  1  0  0  0
 47199  1  0  0  0
 47200  1  0  0  0
 48 49  2  0  0  0
 48 50  1  0  0  0
 50201  1  0  0  0
 51 52  1  0  0  0
 51202  1  0  0  0
 52 53  1  0  0  0
 52 55  1  0  0  0
 52203  1  0  0  0
 53 54  2  0  0  0
 53 58  1  0  0  0
 55 56  1  0  0  0
 55 57  1  0  0  0
 55204  1  0  0  0
 56205  1  0  0  0
 57206  1  0  0  0
 57207  1  0  0  0
 57208  1  0  0  0
 58 59  1  0  0  0
 58209  1  0  0  0
 59 60  1  0  0  0
 59 62  1  0  0  0
 59210  1  0  0  0
 60 61  2  0  0  0
 60 69  1  0  0  0
 62 63  1  0  0  0
 62211  1  0  0  0
 62212  1  0  0  0
 63 64  2  0  0  0
 63 65  1  0  0  0
 64 66  1  0  0  0
 64213  1  0  0  0
 65 67  2  0  0  0
 65214  1  0  0  0
 66 68  2  0  0  0
 66215  1  0  0  0
 67 68  1  0  0  0
 67216  1  0  0  0
 68217  1  0  0  0
 69 70  1  0  0  0
 69218  1  0  0  0
 70 71  1  0  0  0
 70 73  1  0  0  0
 70219  1  0  0  0
 71 72  2  0  0  0
 71 77  1  0  0  0
 73 74  1  0  0  0
 73220  1  0  0  0
 73221  1  0  0  0
 74 75  1  0  0  0
 74 76  1  0  0  0
 74222  1  0  0  0
 75223  1  0  0  0
 75224  1  0  0  0
 75225  1  0  0  0
 76226  1  0  0  0
 76227  1  0  0  0
 76228  1  0  0  0
 77 78  1  0  0  0
 77229  1  0  0  0
 78 79  1  0  0  0
 78 81  1  0  0  0
 78230  1  0  0  0
 79 80  2  0  0  0
 79 83  1  0  0  0
 81 82  1  0  0  0
 81231  1  0  0  0
 81232  1  0  0  0
 83 84  1  0  0  0
 83233  1  0  0  0
 84 85  1  0  0  0
 84 87  1  0  0  0
 84234  1  0  0  0
 85 86  2  0  0  0
 85 95  1  0  0  0
 87 88  1  0  0  0
 87235  1  0  0  0
 87236  1  0  0  0
 88 89  2  0  0  0
 88 90  1  0  0  0
 89 91  1  0  0  0
 89237  1  0  0  0
 90 92  2  0  0  0
 90238  1  0  0  0
 91 93  2  0  0  0
 91239  1  0  0  0
 92 93  1  0  0  0
 92240  1  0  0  0
 93 94  1  0  0  0
 94241  1  0  0  0
 95 96  1  0  0  0
 95242  1  0  0  0
 96 97  1  0  0  0
 96 99  1  0  0  0
 96243  1  0  0  0
 97 98  2  0  0  0
 97109  1  0  0  0
 99100  1  0  0  0
 99244  1  0  0  0
 99245  1  0  0  0
100101  2  0  0  0
100102  1  0  0  0
101103  1  0  0  0
101246  1  0  0  0
102104  2  0  0  0
102105  1  0  0  0
103104  1  0  0  0
104106  1  0  0  0
105107  2  0  0  0
105247  1  0  0  0
106108  2  0  0  0
106248  1  0  0  0
107108  1  0  0  0
107249  1  0  0  0
108250  1  0  0  0
109110  1  0  0  0
109251  1  0  0  0
110111  1  0  0  0
110113  1  0  0  0
110252  1  0  0  0
111112  2  0  0  0
111120  1  0  0  0
113114  1  0  0  0
113253  1  0  0  0
113254  1  0  0  0
114115  1  0  0  0
114255  1  0  0  0
114256  1  0  0  0
115116  1  0  0  0
115257  1  0  0  0
115258  1  0  0  0
116117  1  0  0  0
116259  1  0  0  0
117118  1  0  0  0
117119  2  0  0  0
118260  1  0  0  0
118261  1  0  0  0
119262  1  0  0  0
120121  1  0  0  0
120263  1  0  0  0
121122  1  0  0  0
121124  1  0  0  0
121264  1  0  0  0
122123  2  0  0  0
122126  1  0  0  0
124125  1  0  0  0
124265  1  0  0  0
124266  1  0  0  0
126127  1  0  0  0
126267  1  0  0  0
127128  1  0  0  0
127130  1  0  0  0
127268  1  0  0  0
128129  2  0  0  0
128134  1  0  0  0
130131  1  0  0  0
130269  1  0  0  0
130270  1  0  0  0
131132  1  0  0  0
131133  1  0  0  0
131271  1  0  0  0
132272  1  0  0  0
132273  1  0  0  0
132274  1  0  0  0
133275  1  0  0  0
133276  1  0  0  0
133277  1  0  0  0
134135  1  0  0  0
134278  1  0  0  0
135136  1  0  0  0
135138  1  0  0  0
135279  1  0  0  0
136137  2  0  0  0
136143  1  0  0  0
138139  1  0  0  0
138280  1  0  0  0
138281  1  0  0  0
139140  1  0  0  0
139282  1  0  0  0
139283  1  0  0  0
140141  2  0  0  0
140142  1  0  0  0
142284  1  0  0  0
142285  1  0  0  0
143144  1  0  0  0
143286  1  0  0  0
144145  1  0  0  0
144151  1  0  0  0
144287  1  0  0  0
145146  1  0  0  0
145288  1  0  0  0
145289  1  0  0  0
146147  2  0  0  0
146148  1  0  0  0
147149  1  0  0  0
148150  2  0  0  0
148290  1  0  0  0
149150  1  0  0  0
149291  1  0  0  0
151152  2  0  0  0
151153  1  0  0  0
153292  1  0  0  0
153293  1  0  0  0
M  CHG  2   1   1  29   1
M  END
> <s_m_source_file>
../3iux_ligand.sdf

> <i_m_source_file_index>
1

> <s_epik_input>
W05IMytdW0NIMl1bQ0gyXVtDSDJdW0NIMl1bQ0BIXShbTkhdQzE9TylDKD1PKVtOSF1bQ0BASF0oW0NIM10pQyg9TylOKFtDSDJdW0NIMl1bQ0gyXTIpW0NAQEhdMkMoPU8pW05IXVtDQEBIXShbQ0gyXVtDSDJdQyg9TylbT0hdKUMoPU8pW05IXVtDQEBIXShbQ0BIXShbT0hdKVtDSDNdKUMoPU8pW05IXVtDQEBIXShbQ0gyXWMzW2NIXVtjSF1bY0hdW2NIXVtjSF0zKUMoPU8pW05IXVtDQEBIXShbQ0gyXVtDSF0oW0NIM10pW0NIM10pQyg9TylbTkhdW0NAQEhdKFtDSDJdU1NbQ0gyXVtDQEhdKFtOSDMrXSlDKD1PKVtOSF1bQ0BIXShDKD1PKVtOSF1bQ0BIXTE0KVtDSDJdQyg9TylbTkgyXSlDKD1PKVtOSF1bQ0BASF0oW0NIMl1jNVtjSF1bY0hdYyhbT0hdKVtjSF1bY0hdNSlDKD1PKVtOSF1bQ0BASF0oW0NIMl1jNltjSF1bbkhdYyhjNjcpW2NIXVtjSF1bY0hdW2NIXTcpQyg9TylbTkhdW0NAQEhdKFtDSDJdW0NIMl1bQ0gyXVtOSF0vQyhbTkgyXSk9TlxbSF0pQyg9TylbTkhdW0NAQEhdKFtDSDJdU1NbQ0gyXTQpQyg9TylbTkhdW0NAQEhdKFtDSDJdW0NIXShbQ0gzXSlbQ0gzXSlDKD1PKVtOSF1bQ0BASF0oW0NIMl1bQ0gyXUMoPU8pW05IMl0pQyg9TylbTkhdW0NASF0oQyg9TylbTkgyXSlbQ0gyXUM4PU5bQ0gyXU49W0NIXTg=

> <s_epik_cmdline>
J2VwaWtfYXBwJywgJy1pbWFlJywgJ2xpZ2FuZF9wcm8ubWFlJywgJy1vbWFlJywgJ2xpZ2FuZF9wcmVwLm1hZScsICctbXMnLCAnMScsICctcGgnLCAnNycsICctcGh0JywgJzAuNScsICctbnQn

> <s_epik_pKa_notes>
Molecule size exceeds maximum supported for generating protonation states

> <s_epik_Chemistry_Notes>
This compound has an imine and may undergo hydrolysis.

$$$$
