3ivc_ligand
                    3D
 Schrodinger Suite 2020-3.
 44 47  0  0  1  0            999 V2000
   17.8110   11.4290   -0.7810 C   0  0  0  0  0  0
   15.5440   10.2960   -1.2630 N   0  0  0  0  0  0
   17.2150   12.5230   -0.6310 O   0  0  0  0  0  0
   17.0270   10.1610   -1.2120 C   0  0  0  0  0  0
   10.9910    8.8770   -5.0130 C   0  0  0  0  0  0
   16.0950   10.4000    1.7240 O   0  0  0  0  0  0
   13.6090    8.3450    7.8690 C   0  0  0  0  0  0
   14.8080    7.7130    7.5610 C   0  0  0  0  0  0
   14.3170    9.6580   -4.7160 C   0  0  0  0  0  0
   13.1990    9.4280    7.1210 C   0  0  0  0  0  0
   15.6100    8.1550    6.5150 C   0  0  0  0  0  0
   15.2710    9.7940   -3.7030 C   0  0  0  0  0  0
   12.5850   10.1700   -3.0770 C   0  0  0  0  0  0
   13.8240   10.8490    5.2050 C   0  0  0  0  0  0
   13.4470   10.5840   -0.7490 C   0  0  0  0  0  0
   14.9640   11.9010    3.2460 C   0  0  0  0  0  0
   12.0430    9.7380   -5.3770 O   0  0  0  0  0  0
   14.2640   11.5950    2.0960 O   0  0  0  0  0  0
   15.7240    9.8840    4.6690 O   0  0  0  0  0  0
   15.0530   10.8480    1.2480 C   0  0  0  0  0  0
   12.9720    9.8490   -4.3940 C   0  0  0  0  0  0
   14.8540   10.8900    4.3840 C   0  0  0  0  0  0
   14.6870   10.5700   -0.2580 C   0  0  0  0  0  0
   13.9860    9.8570    6.0640 C   0  0  0  0  0  0
   13.5320   10.2980   -2.0670 C   0  0  0  0  0  0
   15.1820    9.2290    5.7460 C   0  0  0  0  0  0
   14.8750   10.1040   -2.3890 C   0  0  0  0  0  0
   19.0430   11.2440   -0.6290 O   0  5  0  0  0  0
   17.3413    9.8615   -2.2227 H   0  0  0  0  0  0
   17.2351    9.3436   -0.5060 H   0  0  0  0  0  0
   10.2643    8.8174   -5.8366 H   0  0  0  0  0  0
   10.4935    9.2663   -4.1125 H   0  0  0  0  0  0
   11.3930    7.8743   -4.8054 H   0  0  0  0  0  0
   12.9968    7.9866    8.6966 H   0  0  0  0  0  0
   15.1258    6.8536    8.1514 H   0  0  0  0  0  0
   14.6165    9.4085   -5.7339 H   0  0  0  0  0  0
   12.2669    9.9408    7.3581 H   0  0  0  0  0  0
   16.5604    7.6658    6.3018 H   0  0  0  0  0  0
   16.3280    9.6590   -3.9326 H   0  0  0  0  0  0
   11.5300   10.3198   -2.8475 H   0  0  0  0  0  0
   12.9712   11.5274    5.1798 H   0  0  0  0  0  0
   12.5337   10.7884   -0.1903 H   0  0  0  0  0  0
   16.0357   11.9826    3.0121 H   0  0  0  0  0  0
   14.6032   12.8579    3.6512 H   0  0  0  0  0  0
  1  3  2  0  0  0
  1  4  1  0  0  0
  1 28  1  0  0  0
  2  4  1  0  0  0
  2 23  1  0  0  0
  2 27  1  0  0  0
  4 29  1  0  0  0
  4 30  1  0  0  0
  5 17  1  0  0  0
  5 31  1  0  0  0
  5 32  1  0  0  0
  5 33  1  0  0  0
  6 20  2  0  0  0
  7  8  2  0  0  0
  7 10  1  0  0  0
  7 34  1  0  0  0
  8 11  1  0  0  0
  8 35  1  0  0  0
  9 12  1  0  0  0
  9 21  2  0  0  0
  9 36  1  0  0  0
 10 24  2  0  0  0
 10 37  1  0  0  0
 11 26  2  0  0  0
 11 38  1  0  0  0
 12 27  2  0  0  0
 12 39  1  0  0  0
 13 21  1  0  0  0
 13 25  2  0  0  0
 13 40  1  0  0  0
 14 22  2  0  0  0
 14 24  1  0  0  0
 14 41  1  0  0  0
 15 23  2  0  0  0
 15 25  1  0  0  0
 15 42  1  0  0  0
 16 18  1  0  0  0
 16 22  1  0  0  0
 16 43  1  0  0  0
 16 44  1  0  0  0
 17 21  1  0  0  0
 18 20  1  0  0  0
 19 22  1  0  0  0
 19 26  1  0  0  0
 20 23  1  0  0  0
 24 26  1  0  0  0
 25 27  1  0  0  0
M  CHG  1  28  -1
M  END
> <s_m_source_file>
../3ivc_ligand.sdf

> <i_m_source_file_index>
1

> <s_epik_input>
W0NIM11PYyhbY0hdMSlbY0hdW2NIXWMoYzEyKW4oW0NIMl1DKD1PKVtPSF0pYyhbY0hdMilDKD1PKU9bQ0gyXWMoW2NIXTMpb2MoYzM0KVtjSF1bY0hdW2NIXVtjSF00

> <s_epik_cmdline>
J2VwaWtfYXBwJywgJy1pbWFlJywgJ2xpZ2FuZF9wcm8ubWFlJywgJy1vbWFlJywgJ2xpZ2FuZF9wcmVwLm1hZScsICctbXMnLCAnMScsICctcGgnLCAnNycsICctcGh0JywgJzAuNScsICctbnQn

> <r_lp_tautomer_probability>
1

> <r_epik_Ionization_Penalty>
  0.0001

> <r_epik_Ionization_Penalty_Charging>
  0.0001

> <r_epik_Ionization_Penalty_Neutral>
  0.0000

> <r_epik_State_Penalty>
 -0.0000

> <r_epik_Charging_Adjusted_Penalty>
6.71665907788125e-05

> <i_epik_Tot_Q>
-1

> <i_epik_Tot_abs_Q>
1

> <s_epik_Chemistry_Notes>
This compound has an ester and may undergo hydrolysis at high or low pH.

$$$$
