3ivh_ligand
                    3D
 Schrodinger Suite 2020-3.
 73 75  0  0  1  0            999 V2000
   13.2080   -4.5360   18.2520 C   0  0  0  0  0  0
   15.6830   -5.5280   16.0490 C   0  0  2  0  0  0
   13.4220   -6.5450   15.4070 C   0  0  0  0  0  0
   10.9310   -6.0910   15.2820 C   0  0  0  0  0  0
   10.4510   -7.6790   17.5070 C   0  0  0  0  0  0
   16.4400   -4.7730   17.1580 C   0  0  0  0  0  0
   18.8230   -4.4490   18.0190 C   0  0  0  0  0  0
   18.3630   -3.1590   18.7120 C   0  0  0  0  0  0
   19.3990   -2.5060   19.6350 C   0  0  0  0  0  0
   18.8690   -5.6940   18.8930 C   0  0  0  0  0  0
   18.9560   -8.0430   20.4340 C   0  0  0  0  0  0
   19.3470   -6.8890   18.3550 C   0  0  0  0  0  0
   10.2280   -8.4380   18.5820 F   0  0  0  0  0  0
   11.7510   -7.5270   17.0260 C   0  0  0  0  0  0
    9.3910   -7.0440   16.8750 C   0  0  0  0  0  0
    9.6320   -6.2580   15.7550 C   0  0  0  0  0  0
    8.6070   -5.6230   15.1510 F   0  0  0  0  0  0
   11.9990   -6.7290   15.9100 C   0  0  0  0  0  0
   14.2690   -5.9030   16.5060 C   0  0  2  0  0  0
   13.5850   -4.7050   16.9810 N   0  0  0  0  0  0
   13.4770   -5.3380   19.1160 O   0  0  0  0  0  0
   12.4310   -3.2930   18.5710 C   0  0  0  0  0  0
   16.4000   -6.6910   15.6900 O   0  0  0  0  0  0
   17.8760   -4.7100   16.9280 N   0  3  0  0  0  0
   20.7780   -2.3900   18.9880 C   0  0  0  0  0  0
   21.2150   -3.7330   18.4190 C   0  0  0  0  0  0
   20.1930   -4.2100   17.3920 C   0  0  0  0  0  0
   18.4330   -5.7000   20.2190 C   0  0  0  0  0  0
   19.4110   -8.0750   19.1090 C   0  0  0  0  0  0
   18.4810   -6.8700   20.9810 C   0  0  0  0  0  0
   19.9210   -9.3560   18.4800 C   0  0  0  0  0  0
   21.0730   -9.0790   17.5150 C   0  0  0  0  0  0
   20.4570  -10.3410   19.5220 C   0  0  0  0  0  0
   18.7590   -9.9850   17.7150 C   0  0  0  0  0  0
   15.6372   -4.9299   15.1270 H   0  0  0  0  0  0
   13.8462   -7.5243   15.1406 H   0  0  0  0  0  0
   13.4162   -5.8945   14.5200 H   0  0  0  0  0  0
   11.1137   -5.4568   14.4145 H   0  0  0  0  0  0
   16.0667   -3.7401   17.2189 H   0  0  0  0  0  0
   16.2788   -5.2785   18.1216 H   0  0  0  0  0  0
   18.1038   -2.4070   17.9522 H   0  0  0  0  0  0
   17.4807   -3.3713   19.3337 H   0  0  0  0  0  0
   19.0659   -1.4918   19.9005 H   0  0  0  0  0  0
   19.5064   -3.1078   20.5495 H   0  0  0  0  0  0
   18.9778   -8.9514   21.0361 H   0  0  0  0  0  0
   19.6815   -6.9043   17.3177 H   0  0  0  0  0  0
   12.5769   -8.0343   17.5247 H   0  0  0  0  0  0
    8.3761   -7.1612   17.2549 H   0  0  0  0  0  0
   14.3589   -6.6184   17.3367 H   0  0  0  0  0  0
   13.3570   -3.8878   16.2809 H   0  0  0  0  0  0
   12.2932   -2.7013   17.6540 H   0  0  0  0  0  0
   12.9820   -2.6965   19.3130 H   0  0  0  0  0  0
   11.4481   -3.5699   18.9799 H   0  0  0  0  0  0
   17.4384   -6.6097   15.3362 H   0  0  0  0  0  0
   18.2248   -5.6709   16.5218 H   0  0  0  0  0  0
   18.0975   -3.9065   16.2102 H   0  0  0  0  0  0
   20.7397   -1.6522   18.1730 H   0  0  0  0  0  0
   21.5106   -2.0660   19.7418 H   0  0  0  0  0  0
   22.1966   -3.6241   17.9347 H   0  0  0  0  0  0
   21.2872   -4.4699   19.2325 H   0  0  0  0  0  0
   20.5621   -5.1469   16.9492 H   0  0  0  0  0  0
   20.1089   -3.4424   16.6086 H   0  0  0  0  0  0
   18.0509   -4.7817   20.6649 H   0  0  0  0  0  0
   18.1402   -6.8553   22.0162 H   0  0  0  0  0  0
   21.9110   -8.6258   18.0649 H   0  0  0  0  0  0
   20.7344   -8.3886   16.7284 H   0  0  0  0  0  0
   21.4028  -10.0232   17.0571 H   0  0  0  0  0  0
   21.2931   -9.8789   20.0673 H   0  0  0  0  0  0
   20.8078  -11.2535   19.0176 H   0  0  0  0  0  0
   19.6552  -10.5984   20.2297 H   0  0  0  0  0  0
   18.3812   -9.2700   16.9693 H   0  0  0  0  0  0
   17.9531  -10.2415   18.4183 H   0  0  0  0  0  0
   19.1056  -10.8966   17.2062 H   0  0  0  0  0  0
  1 20  1  0  0  0
  1 21  2  0  0  0
  1 22  1  0  0  0
  2  6  1  0  0  0
  2 19  1  0  0  0
  2 23  1  0  0  0
  2 35  1  0  0  0
  3 18  1  0  0  0
  3 19  1  0  0  0
  3 36  1  0  0  0
  3 37  1  0  0  0
  4 16  2  0  0  0
  4 18  1  0  0  0
  4 38  1  0  0  0
  5 13  1  0  0  0
  5 14  1  0  0  0
  5 15  2  0  0  0
  6 24  1  0  0  0
  6 39  1  0  0  0
  6 40  1  0  0  0
  7  8  1  0  0  0
  7 10  1  0  0  0
  7 24  1  0  0  0
  7 27  1  0  0  0
  8  9  1  0  0  0
  8 41  1  0  0  0
  8 42  1  0  0  0
  9 25  1  0  0  0
  9 43  1  0  0  0
  9 44  1  0  0  0
 10 12  2  0  0  0
 10 28  1  0  0  0
 11 29  2  0  0  0
 11 30  1  0  0  0
 11 45  1  0  0  0
 12 29  1  0  0  0
 12 46  1  0  0  0
 14 18  2  0  0  0
 14 47  1  0  0  0
 15 16  1  0  0  0
 15 48  1  0  0  0
 16 17  1  0  0  0
 19 20  1  0  0  0
 19 49  1  0  0  0
 20 50  1  0  0  0
 22 51  1  0  0  0
 22 52  1  0  0  0
 22 53  1  0  0  0
 23 54  1  0  0  0
 24 55  1  0  0  0
 24 56  1  0  0  0
 25 26  1  0  0  0
 25 57  1  0  0  0
 25 58  1  0  0  0
 26 27  1  0  0  0
 26 59  1  0  0  0
 26 60  1  0  0  0
 27 61  1  0  0  0
 27 62  1  0  0  0
 28 30  2  0  0  0
 28 63  1  0  0  0
 29 31  1  0  0  0
 30 64  1  0  0  0
 31 32  1  0  0  0
 31 33  1  0  0  0
 31 34  1  0  0  0
 32 65  1  0  0  0
 32 66  1  0  0  0
 32 67  1  0  0  0
 33 68  1  0  0  0
 33 69  1  0  0  0
 33 70  1  0  0  0
 34 71  1  0  0  0
 34 72  1  0  0  0
 34 73  1  0  0  0
M  CHG  1  24   1
M  END
> <s_m_source_file>
../3ivh_ligand.sdf

> <i_m_source_file_index>
1

> <s_epik_input>
RmMxW2NIXWMoW2NIXWMoRilbY0hdMSlbQ0gyXVtDQEhdKFtOSF1DKD1PKVtDSDNdKVtDQEhdKFtPSF0pW0NIMl1bTkgyK11DMihbQ0gyXVtDSDJdW0NIMl1bQ0gyXVtDSDJdMiljM1tjSF1jKEMoW0NIM10pKFtDSDNdKVtDSDNdKVtjSF1bY0hdW2NIXTM=

> <s_epik_cmdline>
J2VwaWtfYXBwJywgJy1pbWFlJywgJ2xpZ2FuZF9wcm8ubWFlJywgJy1vbWFlJywgJ2xpZ2FuZF9wcmVwLm1hZScsICctbXMnLCAnMScsICctcGgnLCAnNycsICctcGh0JywgJzAuNScsICctbnQn

> <r_epik_Ionization_Penalty>
  0.0118

> <r_epik_Ionization_Penalty_Charging>
  0.0118

> <r_epik_Ionization_Penalty_Neutral>
  0.0000

> <r_epik_State_Penalty>
  0.0091

> <r_epik_Charging_Adjusted_Penalty>
0.0209743124358029

> <i_epik_Tot_Q>
1

> <i_epik_Tot_abs_Q>
1

$$$$
