3ivi_ligand
                    3D
 Schrodinger Suite 2020-3.
 74 77  0  0  1  0            999 V2000
   15.5350    0.2800   49.1850 C   0  0  0  0  0  0
   14.1880   -0.2680   48.8130 C   0  0  0  0  0  0
   14.3000   -1.7560   48.5190 C   0  0  1  0  0  0
   14.4200   -2.5880   49.8060 C   0  0  0  0  0  0
   14.4670   -2.0180   51.0890 C   0  0  0  0  0  0
   14.6890   -4.1830   52.1330 C   0  0  0  0  0  0
   14.7490   -6.2920   50.7090 C   0  0  0  0  0  0
   15.1790   -6.9490   52.0240 C   0  0  0  0  0  0
    9.4020   -2.3460   48.5640 C   0  0  2  0  0  0
    9.1380   -0.2440   49.8570 C   0  0  0  0  0  0
    8.1650   -3.0390   47.9860 C   0  0  0  0  0  0
    5.8090   -2.0830   48.1800 C   0  0  0  0  0  0
    3.6170   -1.1810   48.3510 F   0  0  0  0  0  0
    4.6830   -1.7470   48.9470 C   0  0  0  0  0  0
    4.6530   -1.9840   50.3210 C   0  0  0  0  0  0
    5.7690   -2.5580   50.9250 C   0  0  0  0  0  0
    5.7940   -2.8110   52.2500 F   0  0  0  0  0  0
    6.8880   -2.8910   50.1550 C   0  0  0  0  0  0
    6.9240   -2.6620   48.7840 C   0  0  0  0  0  0
    9.0980   -0.9260   48.7030 N   0  0  0  0  0  0
    8.6680    1.1840   49.8040 C   0  0  0  0  0  0
    9.5060   -0.7120   50.9230 O   0  0  0  0  0  0
   10.6610   -2.6140   47.7280 C   0  0  2  0  0  0
   11.0560   -3.9890   47.7650 O   0  0  0  0  0  0
   11.7920   -1.7540   48.2610 C   0  0  0  0  0  0
   13.1100   -2.1150   47.7740 N   0  3  0  0  0  0
   15.8150    1.4740   49.7930 C   0  0  0  0  0  0
   16.8190   -0.3910   48.9170 C   0  0  0  0  0  0
   17.8210    0.3960   49.3700 N   0  3  0  0  0  0
   17.1510    1.5240   49.8870 N   0  0  0  0  0  0
   16.8730   -1.7250   48.2520 C   0  0  0  0  0  0
   15.5100   -2.0060   47.6180 C   0  0  0  0  0  0
   14.5900   -2.8050   52.2350 C   0  0  0  0  0  0
   14.6430   -4.7890   50.8660 C   0  0  0  0  0  0
   14.5110   -3.9750   49.7230 C   0  0  0  0  0  0
   15.7820   -6.6240   49.6510 C   0  0  0  0  0  0
   13.4250   -6.9030   50.2670 C   0  0  0  0  0  0
   13.4866   -0.1138   49.6462 H   0  0  0  0  0  0
   13.8148    0.2522   47.9185 H   0  0  0  0  0  0
   14.4059   -0.9346   51.1920 H   0  0  0  0  0  0
   14.8018   -4.7929   53.0293 H   0  0  0  0  0  0
   16.1348   -6.5164   52.3546 H   0  0  0  0  0  0
   15.3000   -8.0315   51.8706 H   0  0  0  0  0  0
   14.4110   -6.7709   52.7911 H   0  0  0  0  0  0
    9.6261   -2.7108   49.5773 H   0  0  0  0  0  0
    8.0262   -2.7287   46.9398 H   0  0  0  0  0  0
    8.3016   -4.1296   48.0299 H   0  0  0  0  0  0
    5.8118   -1.8904   47.1072 H   0  0  0  0  0  0
    3.7735   -1.7251   50.9105 H   0  0  0  0  0  0
    7.7532   -3.3412   50.6416 H   0  0  0  0  0  0
    8.8108   -0.3360   47.8201 H   0  0  0  0  0  0
    8.3767    1.4361   48.7737 H   0  0  0  0  0  0
    9.4812    1.8499   50.1285 H   0  0  0  0  0  0
    7.8025    1.3101   50.4711 H   0  0  0  0  0  0
   10.4588   -2.4269   46.6631 H   0  0  0  0  0  0
   10.3639   -4.7696   47.4162 H   0  0  0  0  0  0
   11.6229   -0.7060   47.9728 H   0  0  0  0  0  0
   11.8263   -1.8317   49.3577 H   0  0  0  0  0  0
   13.1504   -1.6561   46.7751 H   0  0  0  0  0  0
   13.0568   -3.2091   47.6729 H   0  0  0  0  0  0
   15.1015    2.2260   50.1299 H   0  0  0  0  0  0
   17.6534   -1.7169   47.4768 H   0  0  0  0  0  0
   17.1063   -2.4980   48.9991 H   0  0  0  0  0  0
   15.5242   -3.0612   47.3076 H   0  0  0  0  0  0
   15.4436   -1.3629   46.7281 H   0  0  0  0  0  0
   14.6083   -2.3322   53.2169 H   0  0  0  0  0  0
   14.4791   -4.4471   48.7411 H   0  0  0  0  0  0
   16.7533   -6.1961   49.9399 H   0  0  0  0  0  0
   15.4673   -6.2006   48.6857 H   0  0  0  0  0  0
   15.8751   -7.7162   49.5594 H   0  0  0  0  0  0
   12.6503   -6.6800   51.0154 H   0  0  0  0  0  0
   13.5383   -7.9928   50.1701 H   0  0  0  0  0  0
   13.1306   -6.4772   49.2964 H   0  0  0  0  0  0
   18.8660    0.0667   49.2724 H   0  0  0  0  0  0
  1  2  1  0  0  0
  1 27  2  0  0  0
  1 28  1  0  0  0
  2  3  1  0  0  0
  2 38  1  0  0  0
  2 39  1  0  0  0
  3  4  1  0  0  0
  3 26  1  0  0  0
  3 32  1  0  0  0
  4  5  2  0  0  0
  4 35  1  0  0  0
  5 33  1  0  0  0
  5 40  1  0  0  0
  6 33  2  0  0  0
  6 34  1  0  0  0
  6 41  1  0  0  0
  7  8  1  0  0  0
  7 34  1  0  0  0
  7 36  1  0  0  0
  7 37  1  0  0  0
  8 42  1  0  0  0
  8 43  1  0  0  0
  8 44  1  0  0  0
  9 11  1  0  0  0
  9 20  1  0  0  0
  9 23  1  0  0  0
  9 45  1  0  0  0
 10 20  1  0  0  0
 10 21  1  0  0  0
 10 22  2  0  0  0
 11 19  1  0  0  0
 11 46  1  0  0  0
 11 47  1  0  0  0
 12 14  2  0  0  0
 12 19  1  0  0  0
 12 48  1  0  0  0
 13 14  1  0  0  0
 14 15  1  0  0  0
 15 16  2  0  0  0
 15 49  1  0  0  0
 16 17  1  0  0  0
 16 18  1  0  0  0
 18 19  2  0  0  0
 18 50  1  0  0  0
 20 51  1  0  0  0
 21 52  1  0  0  0
 21 53  1  0  0  0
 21 54  1  0  0  0
 23 24  1  0  0  0
 23 25  1  0  0  0
 23 55  1  0  0  0
 24 56  1  0  0  0
 25 26  1  0  0  0
 25 57  1  0  0  0
 25 58  1  0  0  0
 26 59  1  0  0  0
 26 60  1  0  0  0
 27 30  1  0  0  0
 27 61  1  0  0  0
 28 29  2  0  0  0
 28 31  1  0  0  0
 29 30  1  0  0  0
 29 74  1  0  0  0
 31 32  1  0  0  0
 31 62  1  0  0  0
 31 63  1  0  0  0
 32 64  1  0  0  0
 32 65  1  0  0  0
 33 66  1  0  0  0
 34 35  2  0  0  0
 35 67  1  0  0  0
 36 68  1  0  0  0
 36 69  1  0  0  0
 36 70  1  0  0  0
 37 71  1  0  0  0
 37 72  1  0  0  0
 37 73  1  0  0  0
M  CHG  2  26   1  29   1
M  END
> <s_m_source_file>
../3ivi_ligand.sdf

> <i_m_source_file_index>
1

> <s_epik_input>
W0NIM11DKFtDSDNdKShbQ0gzXSljKFtjSF0xKVtjSF1bY0hdW2NIXWMxW0NAQF0oW0NIMl0yKShbQ0gyXVtDSDJdYyhjMjMpbltuSF1bY0hdMylbTkgyK11bQ0gyXVtDQEBIXShbT0hdKVtDQEBIXShbTkhdQyg9TylbQ0gzXSlbQ0gyXWMoW2NIXWM0RilbY0hdYyhGKVtjSF00

> <s_epik_cmdline>
J2VwaWtfYXBwJywgJy1pbWFlJywgJ2xpZ2FuZF9wcm8ubWFlJywgJy1vbWFlJywgJ2xpZ2FuZF9wcmVwLm1hZScsICctbXMnLCAnMScsICctcGgnLCAnNycsICctcGh0JywgJzAuNScsICctbnQn

> <r_lp_tautomer_probability>
1

> <r_epik_Ionization_Penalty>
  0.1026

> <r_epik_Ionization_Penalty_Charging>
  0.1026

> <r_epik_Ionization_Penalty_Neutral>
  0.0000

> <r_epik_State_Penalty>
 -0.0000

> <r_epik_Charging_Adjusted_Penalty>
0.102578718380235

> <i_epik_Tot_Q>
2

> <i_epik_Tot_abs_Q>
2

$$$$
