3ivq_ligand
                    3D
 Schrodinger Suite 2020-3.
102102  0  0  1  0            999 V2000
   16.7890   20.1870    4.2960 N   0  3  0  0  0  0
   15.5840   20.9790    4.6200 C   0  0  2  0  0  0
   14.7410   21.3510    3.3980 C   0  0  0  0  0  0
   14.6190   20.5810    2.4440 O   0  0  0  0  0  0
   16.0630   22.2300    5.3450 C   0  0  0  0  0  0
   17.3510   21.7300    5.9840 C   0  0  0  0  0  0
   17.9740   20.8040    4.9190 C   0  0  0  0  0  0
   14.1710   22.5510    3.4500 N   0  0  0  0  0  0
   13.3130   23.0960    2.4050 C   0  0  2  0  0  0
   12.2630   22.1780    1.7990 C   0  0  0  0  0  0
   12.2380   21.8770    0.5980 O   0  0  0  0  0  0
   14.1440   23.7780    1.3240 C   0  0  0  0  0  0
   14.5280   25.1890    1.7230 C   0  0  0  0  0  0
   13.6090   25.9560    2.0920 O   0  5  0  0  0  0
   15.7300   25.5320    1.6820 O   0  0  0  0  0  0
   11.3920   21.7430    2.6950 N   0  0  0  0  0  0
   10.2450   20.9300    2.3770 C   0  0  2  0  0  0
    9.1640   21.9370    2.7220 C   0  0  0  0  0  0
    9.2400   22.5960    3.7550 O   0  0  0  0  0  0
   10.1100   19.7300    3.3190 C   0  0  0  0  0  0
    8.7570   19.0760    3.1160 C   0  0  0  0  0  0
   11.2340   18.7410    3.0680 C   0  0  0  0  0  0
    8.1720   22.0840    1.8640 N   0  0  0  0  0  0
    7.1190   23.0410    2.1420 C   0  0  2  0  0  0
    5.7630   22.4790    1.7390 C   0  0  0  0  0  0
    5.6820   21.4030    1.1420 O   0  0  0  0  0  0
    7.4040   24.3490    1.3980 C   0  0  0  0  0  0
    7.5810   24.1130    0.0110 O   0  0  0  0  0  0
    4.7070   23.2120    2.0750 N   0  0  0  0  0  0
    3.3440   22.8050    1.7610 C   0  0  2  0  0  0
    2.7380   23.7460    0.7180 C   0  0  0  0  0  0
    3.0600   24.9320    0.6880 O   0  0  0  0  0  0
    2.4940   22.8230    3.0400 C   0  0  0  0  0  0
    1.1480   22.4570    2.7830 O   0  0  0  0  0  0
    1.8760   23.2200   -0.1460 N   0  0  0  0  0  0
    1.2360   24.0550   -1.1510 C   0  0  2  0  0  0
   -0.2490   24.1950   -0.8190 C   0  0  0  0  0  0
   -0.9920   24.8960   -1.5100 O   0  0  0  0  0  0
    1.4020   23.4580   -2.5520 C   0  0  0  0  0  0
    0.3660   22.5370   -2.8410 O   0  0  0  0  0  0
   -0.6730   23.5080    0.2390 N   0  0  0  0  0  0
   -2.0610   23.5490    0.6930 C   0  0  2  0  0  0
   -2.1490   24.5480    1.8330 C   0  0  0  0  0  0
   -3.0160   25.4190    1.8470 O   0  0  0  0  0  0
   -2.5390   22.1690    1.2200 C   0  0  2  0  0  0
   -1.5370   21.6120    2.0800 O   0  0  0  0  0  0
   -2.8250   21.2180    0.0650 C   0  0  0  0  0  0
   -1.2370   24.4010    2.7890 N   0  0  0  0  0  0
   -1.1700   25.2760    3.9510 C   0  0  2  0  0  0
   -0.0700   26.3090    3.7350 C   0  0  0  0  0  0
    1.1219   25.9036    3.6826 O   0  5  0  0  0  0
   -0.8800   24.4540    5.2090 C   0  0  0  0  0  0
   -0.3447   27.5326    3.6125 O   0  0  0  0  0  0
   16.6684   19.1628    4.6787 H   0  0  0  0  0  0
   16.9256   20.1570    3.2049 H   0  0  0  0  0  0
   14.9413   20.3439    5.2474 H   0  0  0  0  0  0
   16.2225   23.0380    4.6158 H   0  0  0  0  0  0
   15.3045   22.5421    6.0780 H   0  0  0  0  0  0
   18.0018   22.5861    6.2155 H   0  0  0  0  0  0
   17.1139   21.1883    6.9115 H   0  0  0  0  0  0
   18.6091   20.0192    5.3558 H   0  0  0  0  0  0
   18.5442   21.3549    4.1565 H   0  0  0  0  0  0
   14.3817   23.1429    4.3529 H   0  0  0  0  0  0
   12.7253   23.8143    2.9955 H   0  0  0  0  0  0
   15.0657   23.2026    1.1524 H   0  0  0  0  0  0
   13.5632   23.8268    0.3911 H   0  0  0  0  0  0
   11.5850   22.0383    3.7369 H   0  0  0  0  0  0
   10.2891   20.5339    1.3517 H   0  0  0  0  0  0
   10.1805   20.0620    4.3653 H   0  0  0  0  0  0
    7.9619   19.8126    3.3037 H   0  0  0  0  0  0
    8.6486   18.2333    3.8147 H   0  0  0  0  0  0
    8.6792   18.7077    2.0824 H   0  0  0  0  0  0
   12.2023   19.2397    3.2217 H   0  0  0  0  0  0
   11.1723   18.3705    2.0341 H   0  0  0  0  0  0
   11.1417   17.8961    3.7664 H   0  0  0  0  0  0
    8.1414   21.4850    0.9419 H   0  0  0  0  0  0
    7.1327   23.2021    3.2301 H   0  0  0  0  0  0
    6.5591   25.0400    1.5344 H   0  0  0  0  0  0
    8.3204   24.8067    1.7989 H   0  0  0  0  0  0
    7.7940   24.9526   -0.6670 H   0  0  0  0  0  0
    4.8899   24.1563    2.6087 H   0  0  0  0  0  0
    3.4133   21.7866    1.3510 H   0  0  0  0  0  0
    2.9121   22.1124    3.7681 H   0  0  0  0  0  0
    2.5005   23.8353    3.4704 H   0  0  0  0  0  0
    0.4197   22.4254    3.6068 H   0  0  0  0  0  0
    1.6476   22.1451   -0.0974 H   0  0  0  0  0  0
    1.7472   25.0278   -1.1028 H   0  0  0  0  0  0
    1.3740   24.2642   -3.2998 H   0  0  0  0  0  0
    2.3665   22.9329   -2.6149 H   0  0  0  0  0  0
    0.3440   22.0209   -3.8122 H   0  0  0  0  0  0
    0.0637   22.8934    0.7771 H   0  0  0  0  0  0
   -2.6540   23.8534   -0.1820 H   0  0  0  0  0  0
   -3.4415   22.2658    1.8413 H   0  0  0  0  0  0
   -1.2057   22.1670    2.9700 H   0  0  0  0  0  0
   -3.5947   21.6552   -0.5880 H   0  0  0  0  0  0
   -3.1836   20.2567    0.4617 H   0  0  0  0  0  0
   -1.9032   21.0553   -0.5128 H   0  0  0  0  0  0
   -0.5145   23.5792    2.6770 H   0  0  0  0  0  0
   -2.1499   25.7678    4.0399 H   0  0  0  0  0  0
   -1.6794   23.7126    5.3549 H   0  0  0  0  0  0
   -0.8360   25.1223    6.0816 H   0  0  0  0  0  0
    0.0838   23.9364    5.0946 H   0  0  0  0  0  0
  1  2  1  0  0  0
  1  7  1  0  0  0
  1 54  1  0  0  0
  1 55  1  0  0  0
  2  3  1  0  0  0
  2  5  1  0  0  0
  2 56  1  0  0  0
  3  4  2  0  0  0
  3  8  1  0  0  0
  5  6  1  0  0  0
  5 57  1  0  0  0
  5 58  1  0  0  0
  6  7  1  0  0  0
  6 59  1  0  0  0
  6 60  1  0  0  0
  7 61  1  0  0  0
  7 62  1  0  0  0
  8  9  1  0  0  0
  8 63  1  0  0  0
  9 10  1  0  0  0
  9 12  1  0  0  0
  9 64  1  0  0  0
 10 11  2  0  0  0
 10 16  1  0  0  0
 12 13  1  0  0  0
 12 65  1  0  0  0
 12 66  1  0  0  0
 13 14  1  0  0  0
 13 15  2  0  0  0
 16 17  1  0  0  0
 16 67  1  0  0  0
 17 18  1  0  0  0
 17 20  1  0  0  0
 17 68  1  0  0  0
 18 19  2  0  0  0
 18 23  1  0  0  0
 20 21  1  0  0  0
 20 22  1  0  0  0
 20 69  1  0  0  0
 21 70  1  0  0  0
 21 71  1  0  0  0
 21 72  1  0  0  0
 22 73  1  0  0  0
 22 74  1  0  0  0
 22 75  1  0  0  0
 23 24  1  0  0  0
 23 76  1  0  0  0
 24 25  1  0  0  0
 24 27  1  0  0  0
 24 77  1  0  0  0
 25 26  2  0  0  0
 25 29  1  0  0  0
 27 28  1  0  0  0
 27 78  1  0  0  0
 27 79  1  0  0  0
 28 80  1  0  0  0
 29 30  1  0  0  0
 29 81  1  0  0  0
 30 31  1  0  0  0
 30 33  1  0  0  0
 30 82  1  0  0  0
 31 32  2  0  0  0
 31 35  1  0  0  0
 33 34  1  0  0  0
 33 83  1  0  0  0
 33 84  1  0  0  0
 34 85  1  0  0  0
 35 36  1  0  0  0
 35 86  1  0  0  0
 36 37  1  0  0  0
 36 39  1  0  0  0
 36 87  1  0  0  0
 37 38  2  0  0  0
 37 41  1  0  0  0
 39 40  1  0  0  0
 39 88  1  0  0  0
 39 89  1  0  0  0
 40 90  1  0  0  0
 41 42  1  0  0  0
 41 91  1  0  0  0
 42 43  1  0  0  0
 42 45  1  0  0  0
 42 92  1  0  0  0
 43 44  2  0  0  0
 43 48  1  0  0  0
 45 46  1  0  0  0
 45 47  1  0  0  0
 45 93  1  0  0  0
 46 94  1  0  0  0
 47 95  1  0  0  0
 47 96  1  0  0  0
 47 97  1  0  0  0
 48 49  1  0  0  0
 48 98  1  0  0  0
 49 50  1  0  0  0
 49 52  1  0  0  0
 49 99  1  0  0  0
 50 51  1  0  0  0
 50 53  2  0  0  0
 52100  1  0  0  0
 52101  1  0  0  0
 52102  1  0  0  0
M  CHG  3   1   1  14  -1  51  -1
M  END
> <s_m_source_file>
../3ivq_ligand.sdf

> <i_m_source_file_index>
1

> <s_epik_input>
W0NIMl0xW0NIMl1bQ0gyXVtOSDIrXVtDQEBIXTFDKD1PKVtOSF1bQ0BASF0oW0NIMl1DKD1PKVtPSF0pQyg9TylbTkhdW0NAQEhdKFtDSF0oW0NIM10pW0NIM10pQyg9TylbTkhdW0NAQEhdKFtDSDJdW09IXSlDKD1PKVtOSF1bQ0BASF0oW0NIMl1bT0hdKUMoPU8pW05IXVtDQEBIXShbQ0gyXVtPSF0pQyg9TylbTkhdW0NAQEhdKFtDQEhdKFtPSF0pW0NIM10pQyg9TylbTkhdW0NAQEhdKFtDSDNdKUMoPU8pW09IXQ==

> <s_epik_cmdline>
J2VwaWtfYXBwJywgJy1pbWFlJywgJ2xpZ2FuZF9wcm8ubWFlJywgJy1vbWFlJywgJ2xpZ2FuZF9wcmVwLm1hZScsICctbXMnLCAnMScsICctcGgnLCAnNycsICctcGh0JywgJzAuNScsICctbnQn

> <r_epik_Ionization_Penalty>
  0.0416

> <r_epik_Ionization_Penalty_Charging>
  0.0416

> <r_epik_Ionization_Penalty_Neutral>
  0.0000

> <r_epik_State_Penalty>
  0.0339

> <r_epik_Charging_Adjusted_Penalty>
0.0754776695273267

> <i_epik_Tot_Q>
-1

> <i_epik_Tot_abs_Q>
3

$$$$
