3ivv_ligand
                    3D
 Schrodinger Suite 2020-3.
115114  0  0  1  0            999 V2000
   18.5610   17.5380   -3.1550 N   0  3  0  0  0  0
   19.6860   18.2890   -2.5150 C   0  0  2  0  0  0
   20.5390   17.3840   -1.6260 C   0  0  0  0  0  0
   20.0700   16.9070   -0.5930 O   0  0  0  0  0  0
   19.1420   19.4760   -1.7140 C   0  0  0  0  0  0
   21.7950   17.1630   -2.0270 N   0  0  0  0  0  0
   22.6980   16.2120   -1.3530 C   0  0  2  0  0  0
   22.1290   14.7840   -1.2620 C   0  0  0  0  0  0
   22.2420   14.1330   -0.2210 O   0  0  0  0  0  0
   23.1020   16.7350    0.0390 C   0  0  0  0  0  0
   21.5360   14.3120   -2.3590 N   0  0  0  0  0  0
   20.9540   12.9640   -2.4200 C   0  0  2  0  0  0
   22.0040   11.9740   -2.9090 C   0  0  0  0  0  0
   22.6440   12.1980   -3.9460 O   0  0  0  0  0  0
   19.7240   12.9140   -3.3700 C   0  0  0  0  0  0
   19.2410   11.4810   -3.5850 C   0  0  0  0  0  0
   18.5810   13.7720   -2.8440 C   0  0  0  0  0  0
   22.2120   10.8990   -2.1540 N   0  0  0  0  0  0
   23.1260    9.8430   -2.5660 C   0  0  2  0  0  0
   22.4870    8.4880   -2.3180 C   0  0  0  0  0  0
   21.4530    8.3810   -1.6610 O   0  0  0  0  0  0
   24.4640    9.9110   -1.8050 C   0  0  2  0  0  0
   24.2150    9.7410   -0.4140 O   0  0  0  0  0  0
   25.1610   11.2470   -2.0210 C   0  0  0  0  0  0
   23.1350    7.4560   -2.8420 N   0  0  0  0  0  0
   22.7380    6.0780   -2.6160 C   0  0  2  0  0  0
   23.8910    5.3480   -1.9700 C   0  0  0  0  0  0
   25.0560    5.6650   -2.2360 O   0  0  0  0  0  0
   22.3930    5.4180   -3.9510 C   0  0  0  0  0  0
   22.1080    4.0340   -3.8010 O   0  0  0  0  0  0
   23.5770    4.3580   -1.1410 N   0  0  0  0  0  0
   24.6040    3.5780   -0.4750 C   0  0  2  0  0  0
   25.3130    2.6120   -1.4230 C   0  0  0  0  0  0
   26.3340    2.0330   -1.0500 O   0  0  0  0  0  0
   24.0380    2.8000    0.7440 C   0  0  2  0  0  0
   23.0950    1.8140    0.3010 O   0  0  0  0  0  0
   23.3830    3.7380    1.7450 C   0  0  0  0  0  0
   24.7690    2.4380   -2.6280 N   0  0  0  0  0  0
   25.4090    1.6550   -3.6860 C   0  0  2  0  0  0
   25.4150    2.4420   -4.9970 C   0  0  0  0  0  0
   24.6400    3.3810   -5.1810 O   0  0  0  0  0  0
   24.6550    0.3290   -3.9370 C   0  0  2  0  0  0
   23.3380    0.6240   -4.4100 O   0  0  0  0  0  0
   24.5910   -0.5370   -2.6680 C   0  0  0  0  0  0
   26.2950    2.0390   -5.9130 N   0  0  0  0  0  0
   26.3160    2.5610   -7.2720 C   0  0  2  0  0  0
   26.6470    1.4240   -8.2300 C   0  0  0  0  0  0
   27.3590    0.4820   -7.8680 O   0  0  0  0  0  0
   27.3350    3.6970   -7.4180 C   0  0  0  0  0  0
   26.8940    4.8870   -6.7770 O   0  0  0  0  0  0
   26.1160    1.5120   -9.4430 N   0  0  0  0  0  0
   26.3070    0.4720  -10.4530 C   0  0  2  0  0  0
   26.2890    1.0920  -11.8410 C   0  0  0  0  0  0
   25.4980    2.0030  -12.1050 O   0  0  0  0  0  0
   25.2260   -0.5980  -10.3280 C   0  0  0  0  0  0
   27.1720    0.6020  -12.7140 N   0  0  0  0  0  0
   18.9649   16.6893   -3.7264 H   0  0  0  0  0  0
   18.0116   18.2080   -3.8327 H   0  0  0  0  0  0
   17.8795   17.1647   -2.3764 H   0  0  0  0  0  0
   20.3226   18.6549   -3.3341 H   0  0  0  0  0  0
   18.5322   20.1133   -2.3713 H   0  0  0  0  0  0
   19.9813   20.0618   -1.3110 H   0  0  0  0  0  0
   18.5219   19.1052   -0.8845 H   0  0  0  0  0  0
   22.1464   17.7292   -2.9022 H   0  0  0  0  0  0
   23.5743   16.1743   -2.0168 H   0  0  0  0  0  0
   23.5043   17.7545   -0.0549 H   0  0  0  0  0  0
   23.8703   16.0759    0.4695 H   0  0  0  0  0  0
   22.2199   16.7479    0.6960 H   0  0  0  0  0  0
   21.4913   14.9707   -3.2388 H   0  0  0  0  0  0
   20.6528   12.7332   -1.3875 H   0  0  0  0  0  0
   20.0303   13.3201   -4.3453 H   0  0  0  0  0  0
   20.0712   10.8673   -3.9647 H   0  0  0  0  0  0
   18.4183   11.4771   -4.3151 H   0  0  0  0  0  0
   18.8857   11.0667   -2.6300 H   0  0  0  0  0  0
   18.9358   14.8020   -2.6916 H   0  0  0  0  0  0
   18.2246   13.3617   -1.8877 H   0  0  0  0  0  0
   17.7571   13.7720   -3.5728 H   0  0  0  0  0  0
   21.6740   10.8187   -1.1979 H   0  0  0  0  0  0
   23.2885   10.0176   -3.6398 H   0  0  0  0  0  0
   25.1287    9.0909   -2.1142 H   0  0  0  0  0  0
   23.7148    8.8306   -0.0520 H   0  0  0  0  0  0
   25.3582   11.3884   -3.0939 H   0  0  0  0  0  0
   26.1123   11.2578   -1.4688 H   0  0  0  0  0  0
   24.5161   12.0602   -1.6564 H   0  0  0  0  0  0
   24.0084    7.6805   -3.4719 H   0  0  0  0  0  0
   21.8620    6.0867   -1.9508 H   0  0  0  0  0  0
   21.5075    5.9067   -4.3836 H   0  0  0  0  0  0
   23.2429    5.5213   -4.6416 H   0  0  0  0  0  0
   21.8429    3.4286   -4.6803 H   0  0  0  0  0  0
   22.5147    4.1342   -0.9636 H   0  0  0  0  0  0
   25.3157    4.3541   -0.1570 H   0  0  0  0  0  0
   24.8338    2.2371    1.2537 H   0  0  0  0  0  0
   23.4002    1.0500   -0.4291 H   0  0  0  0  0  0
   24.1150    4.4889    2.0772 H   0  0  0  0  0  0
   23.0307    3.1605    2.6124 H   0  0  0  0  0  0
   22.5293    4.2433    1.2697 H   0  0  0  0  0  0
   23.7946    2.9150   -2.8096 H   0  0  0  0  0  0
   26.4291    1.4757   -3.3156 H   0  0  0  0  0  0
   25.1356   -0.2497   -4.7396 H   0  0  0  0  0  0
   23.2025    1.2368   -5.3134 H   0  0  0  0  0  0
   25.6118   -0.7531   -2.3197 H   0  0  0  0  0  0
   24.0731   -1.4808   -2.8939 H   0  0  0  0  0  0
   24.0423    0.0035   -1.8826 H   0  0  0  0  0  0
   27.0271    1.2781   -5.6047 H   0  0  0  0  0  0
   25.3083    2.9575   -7.4653 H   0  0  0  0  0  0
   28.2899    3.3936   -6.9640 H   0  0  0  0  0  0
   27.4895    3.9162   -8.4848 H   0  0  0  0  0  0
   27.5234    5.7889   -6.7984 H   0  0  0  0  0  0
   25.5159    2.4034   -9.6781 H   0  0  0  0  0  0
   27.2918    0.0216  -10.2599 H   0  0  0  0  0  0
   25.2560   -1.0333   -9.3182 H   0  0  0  0  0  0
   25.4037   -1.3875  -11.0730 H   0  0  0  0  0  0
   24.2392   -0.1444  -10.5027 H   0  0  0  0  0  0
   27.8490   -0.2113  -12.4137 H   0  0  0  0  0  0
   27.2226    1.0115  -13.7337 H   0  0  0  0  0  0
  1  2  1  0  0  0
  1 57  1  0  0  0
  1 58  1  0  0  0
  1 59  1  0  0  0
  2  3  1  0  0  0
  2  5  1  0  0  0
  2 60  1  0  0  0
  3  4  2  0  0  0
  3  6  1  0  0  0
  5 61  1  0  0  0
  5 62  1  0  0  0
  5 63  1  0  0  0
  6  7  1  0  0  0
  6 64  1  0  0  0
  7  8  1  0  0  0
  7 10  1  0  0  0
  7 65  1  0  0  0
  8  9  2  0  0  0
  8 11  1  0  0  0
 10 66  1  0  0  0
 10 67  1  0  0  0
 10 68  1  0  0  0
 11 12  1  0  0  0
 11 69  1  0  0  0
 12 13  1  0  0  0
 12 15  1  0  0  0
 12 70  1  0  0  0
 13 14  2  0  0  0
 13 18  1  0  0  0
 15 16  1  0  0  0
 15 17  1  0  0  0
 15 71  1  0  0  0
 16 72  1  0  0  0
 16 73  1  0  0  0
 16 74  1  0  0  0
 17 75  1  0  0  0
 17 76  1  0  0  0
 17 77  1  0  0  0
 18 19  1  0  0  0
 18 78  1  0  0  0
 19 20  1  0  0  0
 19 22  1  0  0  0
 19 79  1  0  0  0
 20 21  2  0  0  0
 20 25  1  0  0  0
 22 23  1  0  0  0
 22 24  1  0  0  0
 22 80  1  0  0  0
 23 81  1  0  0  0
 24 82  1  0  0  0
 24 83  1  0  0  0
 24 84  1  0  0  0
 25 26  1  0  0  0
 25 85  1  0  0  0
 26 27  1  0  0  0
 26 29  1  0  0  0
 26 86  1  0  0  0
 27 28  2  0  0  0
 27 31  1  0  0  0
 29 30  1  0  0  0
 29 87  1  0  0  0
 29 88  1  0  0  0
 30 89  1  0  0  0
 31 32  1  0  0  0
 31 90  1  0  0  0
 32 33  1  0  0  0
 32 35  1  0  0  0
 32 91  1  0  0  0
 33 34  2  0  0  0
 33 38  1  0  0  0
 35 36  1  0  0  0
 35 37  1  0  0  0
 35 92  1  0  0  0
 36 93  1  0  0  0
 37 94  1  0  0  0
 37 95  1  0  0  0
 37 96  1  0  0  0
 38 39  1  0  0  0
 38 97  1  0  0  0
 39 40  1  0  0  0
 39 42  1  0  0  0
 39 98  1  0  0  0
 40 41  2  0  0  0
 40 45  1  0  0  0
 42 43  1  0  0  0
 42 44  1  0  0  0
 42 99  1  0  0  0
 43100  1  0  0  0
 44101  1  0  0  0
 44102  1  0  0  0
 44103  1  0  0  0
 45 46  1  0  0  0
 45104  1  0  0  0
 46 47  1  0  0  0
 46 49  1  0  0  0
 46105  1  0  0  0
 47 48  2  0  0  0
 47 51  1  0  0  0
 49 50  1  0  0  0
 49106  1  0  0  0
 49107  1  0  0  0
 50108  1  0  0  0
 51 52  1  0  0  0
 51109  1  0  0  0
 52 53  1  0  0  0
 52 55  1  0  0  0
 52110  1  0  0  0
 53 54  2  0  0  0
 53 56  1  0  0  0
 55111  1  0  0  0
 55112  1  0  0  0
 55113  1  0  0  0
 56114  1  0  0  0
 56115  1  0  0  0
M  CHG  1   1   1
M  END
> <s_m_source_file>
../3ivv_ligand.sdf

> <i_m_source_file_index>
1

> <s_epik_input>
W05IMytdW0NAQEhdKFtDSDNdKUMoPU8pW05IXVtDQEBIXShbQ0gzXSlDKD1PKVtOSF1bQ0BASF0oW0NIXShbQ0gzXSlbQ0gzXSlDKD1PKVtOSF1bQ0BASF0oW0NASF0oW09IXSlbQ0gzXSlDKD1PKVtOSF1bQ0BASF0oW0NIMl1bT0hdKUMoPU8pW05IXVtDQEBIXShbQ0BIXShbT0hdKVtDSDNdKUMoPU8pW05IXVtDQEBIXShbQ0BIXShbT0hdKVtDSDNdKUMoPU8pW05IXVtDQEBIXShbQ0gyXVtPSF0pQyg9TylbTkhdW0NAQEhdKFtDSDNdKUMoPU8pW05IMl0=

> <s_epik_cmdline>
J2VwaWtfYXBwJywgJy1pbWFlJywgJ2xpZ2FuZF9wcm8ubWFlJywgJy1vbWFlJywgJ2xpZ2FuZF9wcmVwLm1hZScsICctbXMnLCAnMScsICctcGgnLCAnNycsICctcGh0JywgJzAuNScsICctbnQn

> <r_epik_Ionization_Penalty>
  0.1239

> <r_epik_Ionization_Penalty_Charging>
  0.1239

> <r_epik_Ionization_Penalty_Neutral>
  0.0000

> <r_epik_State_Penalty>
  0.1134

> <r_epik_Charging_Adjusted_Penalty>
0.237354511000365

> <i_epik_Tot_Q>
1

> <i_epik_Tot_abs_Q>
1

$$$$
