3ivx_ligand
                    3D
 Schrodinger Suite 2020-3.
 44 47  0  0  1  0            999 V2000
   18.6710   11.0570   -0.9580 C   0  0  0  0  0  0
   16.1740   10.3380   -1.3780 N   0  0  0  0  0  0
   18.3150   12.1710   -0.5580 O   0  0  0  0  0  0
   17.6490   10.1280   -1.5980 C   0  0  0  0  0  0
   11.0750    9.7570   -5.0100 C   0  0  0  0  0  0
   17.0190   10.3670    1.2910 O   0  5  0  0  0  0
   15.1490   13.0720    3.7420 O   0  0  0  0  0  0
   17.0670   11.6710    3.5830 O   0  0  0  0  0  0
   13.2690    8.7830    8.1850 C   0  0  0  0  0  0
   12.9810    7.7440    7.3010 C   0  0  0  0  0  0
   14.7120    9.8780   -4.7050 C   0  0  0  0  0  0
   13.8850    9.9210    7.6900 C   0  0  0  0  0  0
   13.3160    7.8940    5.9520 C   0  0  0  0  0  0
   15.7120    9.9650   -3.7420 C   0  0  0  0  0  0
   13.1110   10.3400   -2.9690 C   0  0  0  0  0  0
   14.7670   10.9740    5.7220 C   0  0  0  0  0  0
   14.1290   10.6380   -0.7250 C   0  0  0  0  0  0
   15.0740   11.3750    1.8160 N   0  0  0  0  0  0
   12.4620    9.9520   -5.3340 O   0  0  0  0  0  0
   14.3660    9.4720    4.2000 O   0  0  0  0  0  0
   15.8920   10.7650    0.9530 C   0  0  0  0  0  0
   13.3910   10.0610   -4.3290 C   0  0  0  0  0  0
   14.8640   10.6520    4.4470 C   0  0  0  0  0  0
   15.4110   10.5900   -0.3130 C   0  0  0  0  0  0
   14.1880    9.9990    6.3980 C   0  0  0  0  0  0
   14.1080   10.4150   -2.0560 C   0  0  0  0  0  0
   13.9070    9.0160    5.5280 C   0  0  0  0  0  0
   15.3880   10.2200   -2.4470 C   0  0  0  0  0  0
   15.5540   11.6840    3.4010 S   0  0  0  0  0  0
   19.8340   10.6020   -0.9190 O   0  5  0  0  0  0
   17.7548   10.1647   -2.6923 H   0  0  0  0  0  0
   17.8186    9.0992   -1.2476 H   0  0  0  0  0  0
   10.4873    9.6932   -5.9376 H   0  0  0  0  0  0
   10.7169   10.6041   -4.4065 H   0  0  0  0  0  0
   10.9597    8.8245   -4.4380 H   0  0  0  0  0  0
   13.0152    8.7018    9.2419 H   0  0  0  0  0  0
   12.5030    6.8308    7.6555 H   0  0  0  0  0  0
   14.9649    9.6681   -5.7443 H   0  0  0  0  0  0
   14.1204   10.7497    8.3578 H   0  0  0  0  0  0
   13.0950    7.0948    5.2445 H   0  0  0  0  0  0
   16.7555    9.8287   -4.0260 H   0  0  0  0  0  0
   12.0795   10.4964   -2.6532 H   0  0  0  0  0  0
   15.1152   11.9114    6.1559 H   0  0  0  0  0  0
   13.2603   10.8244   -0.0935 H   0  0  0  0  0  0
  1  3  2  0  0  0
  1  4  1  0  0  0
  1 30  1  0  0  0
  2  4  1  0  0  0
  2 24  1  0  0  0
  2 28  1  0  0  0
  4 31  1  0  0  0
  4 32  1  0  0  0
  5 19  1  0  0  0
  5 33  1  0  0  0
  5 34  1  0  0  0
  5 35  1  0  0  0
  6 21  1  0  0  0
  7 29  2  0  0  0
  8 29  2  0  0  0
  9 10  2  0  0  0
  9 12  1  0  0  0
  9 36  1  0  0  0
 10 13  1  0  0  0
 10 37  1  0  0  0
 11 14  1  0  0  0
 11 22  2  0  0  0
 11 38  1  0  0  0
 12 25  2  0  0  0
 12 39  1  0  0  0
 13 27  2  0  0  0
 13 40  1  0  0  0
 14 28  2  0  0  0
 14 41  1  0  0  0
 15 22  1  0  0  0
 15 26  2  0  0  0
 15 42  1  0  0  0
 16 23  2  0  0  0
 16 25  1  0  0  0
 16 43  1  0  0  0
 17 24  2  0  0  0
 17 26  1  0  0  0
 17 44  1  0  0  0
 18 21  2  0  0  0
 18 29  1  0  0  0
 19 22  1  0  0  0
 20 23  1  0  0  0
 20 27  1  0  0  0
 21 24  1  0  0  0
 23 29  1  0  0  0
 25 27  1  0  0  0
 26 28  1  0  0  0
M  CHG  2   6  -1  30  -1
M  END
> <s_m_source_file>
../3ivx_ligand.sdf

> <i_m_source_file_index>
1

> <s_epik_input>
W0NIM11PYyhbY0hdMSlbY0hdW2NIXWMoYzEyKW4oW0NIMl1DKD1PKVtPSF0pYyhbY0hdMilDKD1PKVtOSF1TKD1PKSg9TyljKFtjSF0zKW9jKGMzNClbY0hdW2NIXVtjSF1bY0hdNA==

> <s_epik_cmdline>
J2VwaWtfYXBwJywgJy1pbWFlJywgJ2xpZ2FuZF9wcm8ubWFlJywgJy1vbWFlJywgJ2xpZ2FuZF9wcmVwLm1hZScsICctbXMnLCAnMScsICctcGgnLCAnNycsICctcGh0JywgJzAuNScsICctbnQn

> <r_lp_tautomer_probability>
1

> <r_epik_Ionization_Penalty>
  0.0003

> <r_epik_Ionization_Penalty_Charging>
  0.0003

> <r_epik_Ionization_Penalty_Neutral>
  0.0000

> <r_epik_State_Penalty>
 -0.0000

> <r_epik_Charging_Adjusted_Penalty>
0.000345239002740832

> <i_epik_Tot_Q>
-2

> <i_epik_Tot_abs_Q>
2

$$$$
