3iw6_ligand
                    3D
 Schrodinger Suite 2020-3.
 61 63  0  0  1  0            999 V2000
  -27.3760    0.2050    6.2160 C   0  0  0  0  0  0
  -24.6350   -3.5520    5.0890 C   0  0  0  0  0  0
  -20.5200    0.5160    5.4200 C   0  0  0  0  0  0
  -21.4380   -4.2950    6.9290 C   0  0  0  0  0  0
  -23.5060    0.9790    4.9150 O   0  0  0  0  0  0
  -18.6560   -2.3790    7.4650 O   0  0  0  0  0  0
  -12.5870   -6.0680    2.3600 C   0  0  0  0  0  0
  -13.6040   -6.8870    2.8680 C   0  0  0  0  0  0
  -12.9130   -4.7890    1.8950 C   0  0  0  0  0  0
  -14.9240   -6.4280    2.9100 C   0  0  0  0  0  0
  -14.2390   -4.3260    1.9250 C   0  0  0  0  0  0
  -26.1300    0.4040    5.3190 C   0  0  0  0  0  0
  -24.0790   -2.9870    6.4260 C   0  0  0  0  0  0
  -18.3530   -3.1080    2.9830 C   0  0  0  0  0  0
  -16.5360   -3.6280    4.5980 C   0  0  0  0  0  0
  -18.7910   -1.9620    3.8940 C   0  0  0  0  0  0
  -16.8560   -2.4260    5.4380 C   0  0  0  0  0  0
  -16.7110   -4.6870    2.4710 C   0  0  0  0  0  0
  -25.0430   -0.4830    5.7380 O   0  0  0  0  0  0
  -23.7510   -0.0900    5.4800 C   0  0  0  0  0  0
  -19.1130   -2.1750    6.3470 C   0  0  0  0  0  0
  -15.2380   -5.1530    2.4410 C   0  0  0  0  0  0
  -21.2360   -0.7740    5.8190 C   0  0  0  0  0  0
  -21.6140   -2.8590    6.4690 C   0  0  0  0  0  0
  -20.6110   -1.9380    6.2110 C   0  0  0  0  0  0
  -22.6080   -1.0350    5.8570 C   0  0  0  0  0  0
  -16.9090   -3.4180    3.1820 N   0  3  0  0  0  0
  -18.3010   -2.1800    5.2700 N   0  0  0  0  0  0
  -22.7880   -2.3010    6.2440 N   0  0  0  0  0  0
  -28.1785    0.8800    5.8838 H   0  0  0  0  0  0
  -27.1157    0.4310    7.2606 H   0  0  0  0  0  0
  -27.7191   -0.8374    6.1409 H   0  0  0  0  0  0
  -25.5964   -4.0534    5.2744 H   0  0  0  0  0  0
  -23.9192   -4.2749    4.6706 H   0  0  0  0  0  0
  -24.7829   -2.7276    4.3759 H   0  0  0  0  0  0
  -19.4326    0.3731    5.5048 H   0  0  0  0  0  0
  -20.8357    1.3319    6.0868 H   0  0  0  0  0  0
  -20.7764    0.7714    4.3812 H   0  0  0  0  0  0
  -20.3662   -4.5147    7.0431 H   0  0  0  0  0  0
  -21.8743   -4.9752    6.1827 H   0  0  0  0  0  0
  -21.9459   -4.4356    7.8945 H   0  0  0  0  0  0
  -11.5566   -6.4220    2.3275 H   0  0  0  0  0  0
  -13.3651   -7.8863    3.2320 H   0  0  0  0  0  0
  -12.1270   -4.1429    1.5040 H   0  0  0  0  0  0
  -15.7097   -7.0686    3.3105 H   0  0  0  0  0  0
  -14.4848   -3.3326    1.5497 H   0  0  0  0  0  0
  -26.3903    0.1780    4.2744 H   0  0  0  0  0  0
  -25.7869    1.4464    5.3940 H   0  0  0  0  0  0
  -24.7948   -2.2641    6.8444 H   0  0  0  0  0  0
  -23.9311   -3.8113    7.1392 H   0  0  0  0  0  0
  -18.9442   -4.0064    3.2139 H   0  0  0  0  0  0
  -18.5136   -2.8234    1.9327 H   0  0  0  0  0  0
  -15.4561   -3.8318    4.6459 H   0  0  0  0  0  0
  -17.0907   -4.4988    4.9776 H   0  0  0  0  0  0
  -18.3810   -1.0145    3.5143 H   0  0  0  0  0  0
  -19.8894   -1.9058    3.9102 H   0  0  0  0  0  0
  -16.6100   -2.6372    6.4891 H   0  0  0  0  0  0
  -16.2649   -1.5666    5.0887 H   0  0  0  0  0  0
  -17.0725   -4.5476    1.4415 H   0  0  0  0  0  0
  -17.3258   -5.4468    2.9758 H   0  0  0  0  0  0
  -16.2871   -2.5853    2.8216 H   0  0  0  0  0  0
  1 12  1  0  0  0
  1 30  1  0  0  0
  1 31  1  0  0  0
  1 32  1  0  0  0
  2 13  1  0  0  0
  2 33  1  0  0  0
  2 34  1  0  0  0
  2 35  1  0  0  0
  3 23  1  0  0  0
  3 36  1  0  0  0
  3 37  1  0  0  0
  3 38  1  0  0  0
  4 24  1  0  0  0
  4 39  1  0  0  0
  4 40  1  0  0  0
  4 41  1  0  0  0
  5 20  2  0  0  0
  6 21  2  0  0  0
  7  8  2  0  0  0
  7  9  1  0  0  0
  7 42  1  0  0  0
  8 10  1  0  0  0
  8 43  1  0  0  0
  9 11  2  0  0  0
  9 44  1  0  0  0
 10 22  2  0  0  0
 10 45  1  0  0  0
 11 22  1  0  0  0
 11 46  1  0  0  0
 12 19  1  0  0  0
 12 47  1  0  0  0
 12 48  1  0  0  0
 13 29  1  0  0  0
 13 49  1  0  0  0
 13 50  1  0  0  0
 14 16  1  0  0  0
 14 27  1  0  0  0
 14 51  1  0  0  0
 14 52  1  0  0  0
 15 17  1  0  0  0
 15 27  1  0  0  0
 15 53  1  0  0  0
 15 54  1  0  0  0
 16 28  1  0  0  0
 16 55  1  0  0  0
 16 56  1  0  0  0
 17 28  1  0  0  0
 17 57  1  0  0  0
 17 58  1  0  0  0
 18 22  1  0  0  0
 18 27  1  0  0  0
 18 59  1  0  0  0
 18 60  1  0  0  0
 19 20  1  0  0  0
 20 26  1  0  0  0
 21 25  1  0  0  0
 21 28  1  0  0  0
 23 25  1  0  0  0
 23 26  2  0  0  0
 24 25  2  0  0  0
 24 29  1  0  0  0
 26 29  1  0  0  0
 27 61  1  0  0  0
M  CHG  1  27   1
M  END
> <s_m_source_file>
../3iw6_ligand.sdf

> <i_m_source_file_index>
1

> <s_epik_input>
W0NIM11bQ0gyXU9DKD1PKWMxbihbQ0gyXVtDSDNdKWMoW0NIM10pYyhjMVtDSDNdKUMoPU8pTihbQ0gyXVtDSDJdMilbQ0gyXVtDSDJdW05IK10yW0NIMl1jM1tjSF1bY0hdW2NIXVtjSF1bY0hdMw==

> <s_epik_cmdline>
J2VwaWtfYXBwJywgJy1pbWFlJywgJ2xpZ2FuZF9wcm8ubWFlJywgJy1vbWFlJywgJ2xpZ2FuZF9wcmVwLm1hZScsICctbXMnLCAnMScsICctcGgnLCAnNycsICctcGh0JywgJzAuNScsICctbnQn

> <r_epik_Ionization_Penalty>
  0.3706

> <r_epik_Ionization_Penalty_Charging>
  0.3706

> <r_epik_Ionization_Penalty_Neutral>
  0.0000

> <r_epik_State_Penalty>
  0.3680

> <r_epik_Charging_Adjusted_Penalty>
0.738678642641282

> <i_epik_Tot_Q>
1

> <i_epik_Tot_abs_Q>
1

> <s_epik_Chemistry_Notes>
This compound has an ester and may undergo hydrolysis at high or low pH.

$$$$
