3iw7_ligand
                    3D
 Schrodinger Suite 2020-3.
 46 48  0  0  1  0            999 V2000
   19.8470    1.2650  -26.2270 O   0  0  0  0  0  0
   23.3840   -4.6850  -20.9720 C   0  0  0  0  0  0
   22.1240   -4.3700  -20.4590 C   0  0  0  0  0  0
   24.2050   -3.6660  -21.4750 C   0  0  0  0  0  0
   21.6830   -3.0510  -20.4620 C   0  0  0  0  0  0
   23.7710   -2.3460  -21.4700 C   0  0  0  0  0  0
   17.8320    4.9830  -24.2070 C   0  0  0  0  0  0
   20.0070    5.5530  -25.1100 C   0  0  0  0  0  0
   18.1050    3.6350  -24.3930 C   0  0  0  0  0  0
   20.2770    4.1990  -25.2910 C   0  0  0  0  0  0
   20.0890    0.7430  -21.6040 C   0  0  0  0  0  0
   20.8150   -1.1210  -23.1750 C   0  0  0  0  0  0
   19.3160    1.4610  -22.6970 C   0  0  0  0  0  0
   19.8710   -0.5590  -24.2570 C   0  0  0  0  0  0
   18.4240    7.4490  -24.3450 C   0  0  0  0  0  0
   22.0490   -0.5890  -20.9540 C   0  0  0  0  0  0
   19.6980    8.3340  -23.3400 S   0  0  0  0  0  0
   19.6120    1.7240  -25.1160 C   0  0  0  0  0  0
   18.7740    5.9520  -24.5610 C   0  0  0  0  0  0
   22.5090   -2.0460  -20.9820 C   0  0  0  0  0  0
   19.3290    3.2360  -24.9290 C   0  0  0  0  0  0
   21.2760   -0.0550  -22.1640 C   0  0  0  0  0  0
   19.5980    0.8970  -24.0650 N   0  0  0  0  0  0
   23.7279   -5.7193  -20.9813 H   0  0  0  0  0  0
   21.4866   -5.1573  -20.0565 H   0  0  0  0  0  0
   25.1900   -3.9107  -21.8725 H   0  0  0  0  0  0
   20.7004   -2.8006  -20.0621 H   0  0  0  0  0  0
   24.4175   -1.5533  -21.8466 H   0  0  0  0  0  0
   16.8758    5.2878  -23.7817 H   0  0  0  0  0  0
   20.7478    6.3011  -25.3924 H   0  0  0  0  0  0
   17.3612    2.8867  -24.1196 H   0  0  0  0  0  0
   21.2311    3.8881  -25.7166 H   0  0  0  0  0  0
   20.4797    1.4798  -20.8867 H   0  0  0  0  0  0
   19.4208    0.0420  -21.0823 H   0  0  0  0  0  0
   20.2981   -1.9125  -22.6126 H   0  0  0  0  0  0
   21.7137   -1.5380  -23.6531 H   0  0  0  0  0  0
   18.2369    1.3656  -22.5061 H   0  0  0  0  0  0
   19.5943    2.5252  -22.7044 H   0  0  0  0  0  0
   20.3283   -0.6935  -25.2484 H   0  0  0  0  0  0
   18.9110   -1.0948  -24.2203 H   0  0  0  0  0  0
   17.4523    7.4995  -23.8320 H   0  0  0  0  0  0
   18.3418    7.9242  -25.3337 H   0  0  0  0  0  0
   21.3793   -0.4324  -20.0955 H   0  0  0  0  0  0
   22.9246    0.0703  -20.8610 H   0  0  0  0  0  0
   19.5733    9.4028  -23.1116 H   0  0  0  0  0  0
   21.9592    0.5712  -22.7566 H   0  0  0  0  0  0
  1 18  2  0  0  0
  2  3  2  0  0  0
  2  4  1  0  0  0
  2 24  1  0  0  0
  3  5  1  0  0  0
  3 25  1  0  0  0
  4  6  2  0  0  0
  4 26  1  0  0  0
  5 20  2  0  0  0
  5 27  1  0  0  0
  6 20  1  0  0  0
  6 28  1  0  0  0
  7  9  2  0  0  0
  7 19  1  0  0  0
  7 29  1  0  0  0
  8 10  1  0  0  0
  8 19  2  0  0  0
  8 30  1  0  0  0
  9 21  1  0  0  0
  9 31  1  0  0  0
 10 21  2  0  0  0
 10 32  1  0  0  0
 11 13  1  0  0  0
 11 22  1  0  0  0
 11 33  1  0  0  0
 11 34  1  0  0  0
 12 14  1  0  0  0
 12 22  1  0  0  0
 12 35  1  0  0  0
 12 36  1  0  0  0
 13 23  1  0  0  0
 13 37  1  0  0  0
 13 38  1  0  0  0
 14 23  1  0  0  0
 14 39  1  0  0  0
 14 40  1  0  0  0
 15 17  1  0  0  0
 15 19  1  0  0  0
 15 41  1  0  0  0
 15 42  1  0  0  0
 16 20  1  0  0  0
 16 22  1  0  0  0
 16 43  1  0  0  0
 16 44  1  0  0  0
 17 45  1  0  0  0
 18 21  1  0  0  0
 18 23  1  0  0  0
 22 46  1  0  0  0
M  END
> <s_m_source_file>
../3iw7_ligand.sdf

> <i_m_source_file_index>
1

> <s_epik_input>
W1NIXVtDSDJdYzFbY0hdW2NIXWMoW2NIXVtjSF0xKUMoPU8pTihbQ0gyXVtDSDJdMilbQ0gyXVtDSDJdW0NIXTJbQ0gyXWMzW2NIXVtjSF1bY0hdW2NIXVtjSF0z

> <s_epik_cmdline>
J2VwaWtfYXBwJywgJy1pbWFlJywgJ2xpZ2FuZF9wcm8ubWFlJywgJy1vbWFlJywgJ2xpZ2FuZF9wcmVwLm1hZScsICctbXMnLCAnMScsICctcGgnLCAnNycsICctcGh0JywgJzAuNScsICctbnQn

> <r_lp_tautomer_probability>
1

> <r_epik_Ionization_Penalty>
  0.0047

> <r_epik_Ionization_Penalty_Charging>
  0.0000

> <r_epik_Ionization_Penalty_Neutral>
  0.0047

> <r_epik_State_Penalty>
 -0.0000

> <r_epik_Charging_Adjusted_Penalty>
0

> <i_epik_Tot_Q>
0

> <i_epik_Tot_abs_Q>
0

$$$$
