3iw8_ligand
                    3D
 Schrodinger Suite 2020-3.
 47 49  0  0  1  0            999 V2000
   22.0300   -0.7590   16.8520 N   0  3  0  0  0  0
   17.9090    4.5110   18.2350 O   0  0  0  0  0  0
   13.8760    9.0330   17.0480 F   0  0  0  0  0  0
   14.4380    7.9180   19.6240 Cl  0  0  0  0  0  0
   24.3520    5.0380   20.9760 C   0  0  0  0  0  0
   23.2420    4.4810   20.3390 C   0  0  0  0  0  0
   25.3390    4.2150   21.5340 C   0  0  0  0  0  0
   23.1410    3.0930   20.2750 C   0  0  0  0  0  0
   25.2350    2.8270   21.4690 C   0  0  0  0  0  0
   15.8710    8.2480   15.9420 C   0  0  0  0  0  0
   17.0830    7.5540   15.9980 C   0  0  0  0  0  0
   20.1770    0.8540   18.8770 C   0  0  0  0  0  0
   16.6940    7.0580   18.3210 C   0  0  0  0  0  0
   24.0120    0.8870   20.7560 C   0  0  0  0  0  0
   22.8620   -0.5140   19.1600 C   0  0  0  0  0  0
   21.2720    2.4400   17.6000 N   0  0  0  0  0  0
   18.6810    6.2850   17.1230 N   0  0  0  0  0  0
   20.0070    4.4360   17.4830 N   0  0  0  0  0  0
   22.7520    0.2640   20.4010 O   0  0  0  0  0  0
   19.1580    2.2100   18.9000 S   0  0  0  0  0  0
   18.8250    5.0530   17.6250 C   0  0  0  0  0  0
   24.1270    2.2690   20.8320 C   0  0  0  0  0  0
   15.0620    8.3580   17.0730 C   0  0  0  0  0  0
   17.5160    6.9620   17.1870 C   0  0  0  0  0  0
   15.4800    7.7590   18.2550 C   0  0  0  0  0  0
   21.2540    1.1910   18.1260 C   0  0  0  0  0  0
   20.2130    3.1870   17.9380 C   0  0  0  0  0  0
   22.4240    0.2180   17.8700 C   0  0  2  0  0  0
   22.8631   -1.4534   16.6684 H   0  0  0  0  0  0
   21.7774   -0.2344   15.9187 H   0  0  0  0  0  0
   21.1537   -1.3227   17.2046 H   0  0  0  0  0  0
   24.4517    6.1216   21.0398 H   0  0  0  0  0  0
   22.4723    5.1170   19.9019 H   0  0  0  0  0  0
   26.2004    4.6668   22.0259 H   0  0  0  0  0  0
   22.2799    2.6406   19.7830 H   0  0  0  0  0  0
   26.0038    2.1905   21.9070 H   0  0  0  0  0  0
   15.5550    8.7077   15.0055 H   0  0  0  0  0  0
   17.6985    7.4736   15.1020 H   0  0  0  0  0  0
   20.0002   -0.1019   19.3700 H   0  0  0  0  0  0
   16.9995    6.5868   19.2552 H   0  0  0  0  0  0
   24.3196    0.5481   21.7563 H   0  0  0  0  0  0
   24.7803    0.6052   20.0210 H   0  0  0  0  0  0
   23.9096   -0.8117   19.0055 H   0  0  0  0  0  0
   22.2324   -1.4130   19.2338 H   0  0  0  0  0  0
   19.5320    6.7832   16.6355 H   0  0  0  0  0  0
   20.8402    4.9519   16.9833 H   0  0  0  0  0  0
   23.2811    0.7782   17.4681 H   0  0  0  0  0  0
  1 28  1  0  0  0
  1 29  1  0  0  0
  1 30  1  0  0  0
  1 31  1  0  0  0
  2 21  2  0  0  0
  3 23  1  0  0  0
  4 25  1  0  0  0
  5  6  2  0  0  0
  5  7  1  0  0  0
  5 32  1  0  0  0
  6  8  1  0  0  0
  6 33  1  0  0  0
  7  9  2  0  0  0
  7 34  1  0  0  0
  8 22  2  0  0  0
  8 35  1  0  0  0
  9 22  1  0  0  0
  9 36  1  0  0  0
 10 11  2  0  0  0
 10 23  1  0  0  0
 10 37  1  0  0  0
 11 24  1  0  0  0
 11 38  1  0  0  0
 12 20  1  0  0  0
 12 26  2  0  0  0
 12 39  1  0  0  0
 13 24  2  0  0  0
 13 25  1  0  0  0
 13 40  1  0  0  0
 14 19  1  0  0  0
 14 22  1  0  0  0
 14 41  1  0  0  0
 14 42  1  0  0  0
 15 19  1  0  0  0
 15 28  1  0  0  0
 15 43  1  0  0  0
 15 44  1  0  0  0
 16 26  1  0  0  0
 16 27  2  0  0  0
 17 21  1  0  0  0
 17 24  1  0  0  0
 17 45  1  0  0  0
 18 21  1  0  0  0
 18 27  1  0  0  0
 18 46  1  0  0  0
 20 27  1  0  0  0
 23 25  2  0  0  0
 26 28  1  0  0  0
 28 47  1  0  0  0
M  CHG  1   1   1
M  END
> <s_m_source_file>
../3iw8_ligand.sdf

> <i_m_source_file_index>
1

> <s_epik_input>
W2NIXTFbY0hdW2NIXVtjSF1bY0hdYzFbQ0gyXU9bQ0gyXVtDQEBIXShbTkgzK10pYzJbY0hdc2MobjIpW05IXUMoPU8pW05IXWMoW2NIXWMzQ2wpW2NIXVtjSF1jM0Y=

> <s_epik_cmdline>
J2VwaWtfYXBwJywgJy1pbWFlJywgJ2xpZ2FuZF9wcm8ubWFlJywgJy1vbWFlJywgJ2xpZ2FuZF9wcmVwLm1hZScsICctbXMnLCAnMScsICctcGgnLCAnNycsICctcGh0JywgJzAuNScsICctbnQn

> <r_lp_tautomer_probability>
0.999000488399163

> <r_epik_Ionization_Penalty>
  0.1072

> <r_epik_Ionization_Penalty_Charging>
  0.1068

> <r_epik_Ionization_Penalty_Neutral>
  0.0004

> <r_epik_State_Penalty>
  0.0966

> <r_epik_Charging_Adjusted_Penalty>
0.203377546501171

> <i_epik_Tot_Q>
1

> <i_epik_Tot_abs_Q>
1

$$$$
