3iww_ligand
                    3D
 Schrodinger Suite 2020-3.
 51 51  0  0  1  0            999 V2000
   13.7880   47.1210   40.4710 C   0  0  0  0  0  0
   14.9220   46.3540   40.3040 C   0  0  0  0  0  0
   14.8830   44.8840   40.6840 C   0  0  0  0  0  0
   16.2680   44.3150   41.0210 C   0  0  1  0  0  0
   17.2720   44.4790   39.8440 C   0  0  0  0  0  0
   17.1860   43.6790   38.8630 O   0  5  0  0  0  0
   18.1870   45.3290   39.9880 O   0  0  0  0  0  0
   16.9100   45.0310   42.0950 N   0  0  0  0  0  0
   18.0600   44.5840   42.5490 C   0  0  0  0  0  0
   18.6020   45.3360   43.4890 N   0  0  0  0  0  0
   19.9210   45.0470   44.0430 C   0  0  1  0  0  0
   20.9220   45.7120   43.0540 C   0  0  0  0  0  0
   22.3670   45.1740   43.1190 C   0  0  0  0  0  0
   23.4210   45.9150   42.2060 C   0  0  0  0  0  0
   23.5050   47.4540   42.3910 C   0  0  0  0  0  0
   23.6640   47.8450   43.8190 N   0  0  0  0  0  0
   23.1740   49.0040   44.2920 C   0  0  0  0  0  0
   23.2870   49.3190   45.8240 C   0  0  0  0  0  0
   22.7250   50.4980   46.4000 C   0  0  0  0  0  0
   22.8220   50.7700   47.8080 C   0  0  0  0  0  0
   23.4850   49.9060   48.7130 C   0  0  0  0  0  0
   23.6840   50.1910   50.9180 I   0  0  0  0  0  0
   24.0270   48.7550   48.0810 C   0  0  0  0  0  0
   23.9420   48.4470   46.6990 C   0  0  0  0  0  0
   22.5200   49.7510   43.5680 O   0  0  0  0  0  0
   20.0050   45.6770   45.4580 C   0  0  0  0  0  0
   19.5440   46.8440   45.6470 O   0  5  0  0  0  0
   20.4350   44.9300   46.3480 O   0  0  0  0  0  0
   18.5840   43.5330   42.1340 O   0  0  0  0  0  0
   12.8712   46.6666   40.8747 H   0  0  0  0  0  0
   13.8003   48.1871   40.2004 H   0  0  0  0  0  0
   15.8388   46.8084   39.9002 H   0  0  0  0  0  0
   14.2428   44.7508   41.5685 H   0  0  0  0  0  0
   14.4764   44.2992   39.8457 H   0  0  0  0  0  0
   16.0812   43.2777   41.3360 H   0  0  0  0  0  0
   16.4371   45.9303   42.5164 H   0  0  0  0  0  0
   18.0297   46.2015   43.8541 H   0  0  0  0  0  0
   20.0812   43.9623   44.1307 H   0  0  0  0  0  0
   20.5762   45.5553   42.0216 H   0  0  0  0  0  0
   20.9804   46.7907   43.2613 H   0  0  0  0  0  0
   22.7429   45.2565   44.1495 H   0  0  0  0  0  0
   22.3799   44.1192   42.8073 H   0  0  0  0  0  0
   24.4273   45.5232   42.4155 H   0  0  0  0  0  0
   23.1740   45.7440   41.1478 H   0  0  0  0  0  0
   24.3694   47.8437   41.8334 H   0  0  0  0  0  0
   22.5836   47.9198   42.0114 H   0  0  0  0  0  0
   24.1934   47.1787   44.5160 H   0  0  0  0  0  0
   22.2092   51.2100   45.7557 H   0  0  0  0  0  0
   22.3655   51.6806   48.1959 H   0  0  0  0  0  0
   24.5562   48.0441   48.7156 H   0  0  0  0  0  0
   24.3884   47.5284   46.3182 H   0  0  0  0  0  0
  1  2  2  0  0  0
  1 30  1  0  0  0
  1 31  1  0  0  0
  2  3  1  0  0  0
  2 32  1  0  0  0
  3  4  1  0  0  0
  3 33  1  0  0  0
  3 34  1  0  0  0
  4  5  1  0  0  0
  4  8  1  0  0  0
  4 35  1  0  0  0
  5  6  1  0  0  0
  5  7  2  0  0  0
  8  9  1  0  0  0
  8 36  1  0  0  0
  9 10  1  0  0  0
  9 29  2  0  0  0
 10 11  1  0  0  0
 10 37  1  0  0  0
 11 12  1  0  0  0
 11 26  1  0  0  0
 11 38  1  0  0  0
 12 13  1  0  0  0
 12 39  1  0  0  0
 12 40  1  0  0  0
 13 14  1  0  0  0
 13 41  1  0  0  0
 13 42  1  0  0  0
 14 15  1  0  0  0
 14 43  1  0  0  0
 14 44  1  0  0  0
 15 16  1  0  0  0
 15 45  1  0  0  0
 15 46  1  0  0  0
 16 17  1  0  0  0
 16 47  1  0  0  0
 17 18  1  0  0  0
 17 25  2  0  0  0
 18 19  2  0  0  0
 18 24  1  0  0  0
 19 20  1  0  0  0
 19 48  1  0  0  0
 20 21  2  0  0  0
 20 49  1  0  0  0
 21 22  1  0  0  0
 21 23  1  0  0  0
 23 24  2  0  0  0
 23 50  1  0  0  0
 24 51  1  0  0  0
 26 27  1  0  0  0
 26 28  2  0  0  0
M  CHG  2   6  -1  27  -1
M  END
> <s_m_source_file>
../3iww_ligand.sdf

> <i_m_source_file_index>
1

> <s_epik_input>
W0NIMl09W0NIXVtDSDJdW0NAQEhdKEMoPU8pW09IXSlbTkhdQyg9TylbTkhdW0NASF0oQyg9TylbT0hdKVtDSDJdW0NIMl1bQ0gyXVtDSDJdW05IXUMoPU8pYzFbY0hdW2NIXWMoSSlbY0hdW2NIXTE=

> <s_epik_cmdline>
J2VwaWtfYXBwJywgJy1pbWFlJywgJ2xpZ2FuZF9wcm8ubWFlJywgJy1vbWFlJywgJ2xpZ2FuZF9wcmVwLm1hZScsICctbXMnLCAnMScsICctcGgnLCAnNycsICctcGh0JywgJzAuNScsICctbnQn

> <r_lp_tautomer_probability>
1

> <r_epik_Ionization_Penalty>
  0.0021

> <r_epik_Ionization_Penalty_Charging>
  0.0020

> <r_epik_Ionization_Penalty_Neutral>
  0.0001

> <r_epik_State_Penalty>
 -0.0000

> <r_epik_Charging_Adjusted_Penalty>
0.00200366753522351

> <i_epik_Tot_Q>
-2

> <i_epik_Tot_abs_Q>
2

$$$$
