3iwy_ligand
                    3D
 Schrodinger Suite 2020-3.
213218  0  0  1  0            999 V2000
   26.6270   -2.2220   27.2360 N   0  3  0  0  0  0
   25.2730   -1.8610   27.8160 C   0  0  1  0  0  0
   24.1780   -2.0450   26.7790 C   0  0  0  0  0  0
   24.4740   -2.4900   25.6850 O   0  0  0  0  0  0
   24.9330   -2.8020   28.9400 C   0  0  0  0  0  0
   25.8420   -2.5460   30.1090 C   0  0  0  0  0  0
   25.3220   -2.6470   31.2480 O   0  0  0  0  0  0
   27.0410   -2.2500   29.9180 O   0  0  0  0  0  0
   22.9340   -1.7060   27.1190 N   0  0  0  0  0  0
   21.7850   -1.8900   26.1970 C   0  0  2  0  0  0
   20.5240   -1.2130   26.7780 C   0  0  0  0  0  0
   19.4300   -0.9400   25.7790 C   0  0  0  0  0  0
   19.2410    0.2190   25.0610 C   0  0  0  0  0  0
   18.1210    0.1120   24.2740 N   0  0  0  0  0  0
   17.5730   -1.1310   24.4500 C   0  0  0  0  0  0
   16.4380   -1.7020   23.8520 C   0  0  0  0  0  0
   16.0980   -2.9830   24.2190 C   0  0  0  0  0  0
   16.8510   -3.6890   25.1790 C   0  0  0  0  0  0
   17.9940   -3.1250   25.7730 C   0  0  0  0  0  0
   18.3660   -1.8230   25.3950 C   0  0  0  0  0  0
   21.5280   -3.3740   25.8880 C   0  0  0  0  0  0
   21.5140   -3.8170   24.7040 O   0  0  0  0  0  0
   21.3430   -4.1440   26.9540 N   0  0  0  0  0  0
   21.0700   -5.5690   26.7970 C   0  0  2  0  0  0
   20.2490   -6.0920   27.9950 C   0  0  0  0  0  0
   19.9400   -7.5010   27.7790 C   0  0  0  0  0  0
   20.7280   -8.5840   28.0850 C   0  0  0  0  0  0
   20.1190   -9.7400   27.6500 N   0  0  0  0  0  0
   18.9530   -9.4040   27.0070 C   0  0  0  0  0  0
   17.9940  -10.2230   26.3850 C   0  0  0  0  0  0
   16.9110   -9.6030   25.8140 C   0  0  0  0  0  0
   16.7460   -8.1940   25.8610 C   0  0  0  0  0  0
   17.6930   -7.3920   26.4620 C   0  0  0  0  0  0
   18.8180   -8.0010   27.0620 C   0  0  0  0  0  0
   22.3580   -6.3890   26.6960 C   0  0  0  0  0  0
   23.2690   -6.1360   27.4630 O   0  0  0  0  0  0
   22.4570   -7.3510   25.7450 N   0  0  0  0  0  0
   21.7010   -7.7160   24.5610 C   0  0  2  0  0  0
   21.5920   -9.1720   24.5990 C   0  0  0  0  0  0
   23.1730   -9.4100   24.7730 C   0  0  0  0  0  0
   23.6260   -8.2620   25.7950 C   0  0  0  0  0  0
   21.6080   -6.9460   23.2600 C   0  0  0  0  0  0
   20.6260   -7.0490   22.5100 O   0  0  0  0  0  0
   22.7420   -6.3260   22.9440 N   0  0  0  0  0  0
   23.0660   -5.9760   21.5660 C   0  0  2  0  0  0
   24.4850   -5.3910   21.4720 C   0  0  0  0  0  0
   25.5600   -6.4850   21.6650 C   0  0  0  0  0  0
   25.2050   -7.7380   20.8860 C   0  0  0  0  0  0
   26.9730   -6.0190   21.2780 C   0  0  0  0  0  0
   22.1540   -4.9710   20.9680 C   0  0  0  0  0  0
   21.9970   -4.9210   19.7140 O   0  0  0  0  0  0
   21.6090   -4.1110   21.8050 N   0  0  0  0  0  0
   20.6290   -3.1140   21.3540 C   0  0  2  0  0  0
   20.3970   -2.0300   22.4260 C   0  0  0  0  0  0
   19.2960   -3.7670   20.9700 C   0  0  0  0  0  0
   18.6010   -3.3020   20.0470 O   0  0  0  0  0  0
   18.9630   -4.8630   21.6420 N   0  0  0  0  0  0
   17.7310   -5.6360   21.3260 C   0  0  1  0  0  0
   17.9950   -6.4870   20.1130 C   0  0  0  0  0  0
   17.1280   -6.6270   19.2690 O   0  0  0  0  0  0
   17.3400   -6.5620   22.4790 C   0  0  0  0  0  0
   16.0640   -7.3660   22.2260 C   0  0  0  0  0  0
   16.0570   -8.7410   22.3500 C   0  0  0  0  0  0
   14.8960   -6.7320   21.8710 C   0  0  0  0  0  0
   14.8770   -9.4850   22.1250 C   0  0  0  0  0  0
   13.7050   -7.4690   21.6070 C   0  0  0  0  0  0
   13.7020   -8.8450   21.7530 C   0  0  0  0  0  0
   19.2050   -7.0460   20.0130 N   0  0  0  0  0  0
   19.5810   -7.8040   18.8390 C   0  0  1  0  0  0
   19.6080   -6.9030   17.6040 C   0  0  0  0  0  0
   19.2550   -7.3570   16.5230 O   0  0  0  0  0  0
   20.9990   -8.3790   19.1040 C   0  0  0  0  0  0
   20.9240   -9.6290   19.9980 C   0  0  0  0  0  0
   22.2960  -10.1810   20.2850 C   0  0  0  0  0  0
   22.8640   -9.9100   21.3810 O   0  0  0  0  0  0
   22.7940  -10.8870   19.3910 O   0  0  0  0  0  0
   20.0260   -5.6410   17.7570 N   0  0  0  0  0  0
   20.0290   -4.6640   16.6310 C   0  0  2  0  0  0
   20.6580   -3.3890   17.0120 C   0  0  0  0  0  0
   18.5890   -4.4220   16.2050 C   0  0  0  0  0  0
   18.2720   -4.3680   15.0010 O   0  0  0  0  0  0
   17.6970   -4.3200   17.1850 N   0  0  0  0  0  0
   16.2610   -4.2170   16.8440 C   0  0  2  0  0  0
   15.3340   -4.1060   18.0770 C   0  0  0  0  0  0
   15.5690   -2.7290   18.7020 C   0  0  0  0  0  0
   15.1450   -1.5980   17.7650 C   0  0  0  0  0  0
   14.8500   -2.5390   20.0500 C   0  0  0  0  0  0
   15.7370   -5.3400   16.0090 C   0  0  0  0  0  0
   15.0220   -5.1020   15.0200 O   0  0  0  0  0  0
   16.0820   -6.5690   16.3990 N   0  0  0  0  0  0
   15.5380   -7.7460   15.7870 C   0  0  2  0  0  0
   15.9600   -9.0010   16.5540 C   0  0  0  0  0  0
   15.0950   -9.5760   17.6760 C   0  0  0  0  0  0
   14.6500   -8.5740   18.7180 C   0  0  0  0  0  0
   13.8710  -10.2630   17.1040 C   0  0  0  0  0  0
   16.0650   -7.7830   14.3580 C   0  0  0  0  0  0
   15.3760   -8.2610   13.4530 O   0  0  0  0  0  0
   17.2770   -7.2600   14.1630 N   0  0  0  0  0  0
   17.9050   -7.2530   12.8620 C   0  0  2  0  0  0
   19.4410   -7.2260   13.0830 C   0  0  0  0  0  0
   20.0990   -6.8430   11.7660 C   0  0  0  0  0  0
   21.6170   -7.0350   11.8000 C   0  0  0  0  0  0
   21.8560   -7.8530   10.6000 N   0  0  0  0  0  0
   22.5190   -9.0320   10.4940 C   0  0  0  0  0  0
   23.0780   -9.5940   11.5720 N   0  0  0  0  0  0
   22.6330   -9.6650    9.3200 N   0  0  0  0  0  0
   17.2990   -6.1780   11.9800 C   0  0  0  0  0  0
   16.8910   -6.4270   10.8470 O   0  0  0  0  0  0
   17.1130   -4.9990   12.3420 O   0  0  0  0  0  0
   26.8702   -1.5312   26.4152 H   0  0  0  0  0  0
   26.5984   -3.2523   26.8518 H   0  0  0  0  0  0
   27.3944   -2.1442   28.0203 H   0  0  0  0  0  0
   25.3298   -0.8184   28.1619 H   0  0  0  0  0  0
   23.8892   -2.6427   29.2485 H   0  0  0  0  0  0
   25.0604   -3.8404   28.6001 H   0  0  0  0  0  0
   25.9303   -2.4727   32.1478 H   0  0  0  0  0  0
   22.7734   -1.2776   28.1193 H   0  0  0  0  0  0
   22.0757   -1.3992   25.2564 H   0  0  0  0  0  0
   20.0871   -1.8572   27.5552 H   0  0  0  0  0  0
   20.7983   -0.2427   27.2176 H   0  0  0  0  0  0
   19.8873    1.0954   25.1101 H   0  0  0  0  0  0
   15.8468   -1.1490   23.1221 H   0  0  0  0  0  0
   15.2321   -3.4602   23.7601 H   0  0  0  0  0  0
   16.5407   -4.6934   25.4670 H   0  0  0  0  0  0
   18.5760   -3.6824   26.5069 H   0  0  0  0  0  0
   21.3965   -3.7018   27.9598 H   0  0  0  0  0  0
   20.5118   -5.6308   25.8511 H   0  0  0  0  0  0
   20.8350   -5.9779   28.9189 H   0  0  0  0  0  0
   19.3157   -5.5160   28.0793 H   0  0  0  0  0  0
   21.6901   -8.5356   28.5951 H   0  0  0  0  0  0
   18.1063  -11.3068   26.3575 H   0  0  0  0  0  0
   16.1573  -10.2088   25.3109 H   0  0  0  0  0  0
   15.8600   -7.7405   25.4166 H   0  0  0  0  0  0
   17.5759   -6.3084   26.4740 H   0  0  0  0  0  0
   20.7564   -7.1687   24.6957 H   0  0  0  0  0  0
   20.9567   -9.4701   25.4460 H   0  0  0  0  0  0
   21.1440   -9.5308   23.6606 H   0  0  0  0  0  0
   23.3498  -10.4180   25.1763 H   0  0  0  0  0  0
   23.6680   -9.3142   23.7954 H   0  0  0  0  0  0
   24.5271   -7.7202   25.4718 H   0  0  0  0  0  0
   23.7652   -8.6238   26.8244 H   0  0  0  0  0  0
   23.4434   -6.0775   23.7541 H   0  0  0  0  0  0
   22.9251   -6.9306   21.0379 H   0  0  0  0  0  0
   24.6276   -4.9322   20.4825 H   0  0  0  0  0  0
   24.6195   -4.6279   22.2528 H   0  0  0  0  0  0
   25.5734   -6.7274   22.7379 H   0  0  0  0  0  0
   24.1937   -8.0690   21.1649 H   0  0  0  0  0  0
   25.9286   -8.5327   21.1203 H   0  0  0  0  0  0
   25.2354   -7.5205   19.8081 H   0  0  0  0  0  0
   27.2275   -5.1108   21.8441 H   0  0  0  0  0  0
   27.0047   -5.8003   20.2004 H   0  0  0  0  0  0
   27.6978   -6.8125   21.5126 H   0  0  0  0  0  0
   21.9043   -4.1521   22.8638 H   0  0  0  0  0  0
   21.0887   -2.6693   20.4590 H   0  0  0  0  0  0
   21.3585   -1.5680   22.6944 H   0  0  0  0  0  0
   19.9482   -2.4882   23.3197 H   0  0  0  0  0  0
   19.7188   -1.2606   22.0286 H   0  0  0  0  0  0
   19.6281   -5.1954   22.4527 H   0  0  0  0  0  0
   16.9286   -4.9069   21.1401 H   0  0  0  0  0  0
   18.1490   -7.2853   22.6589 H   0  0  0  0  0  0
   17.1728   -5.9654   23.3879 H   0  0  0  0  0  0
   16.9750   -9.2601   22.6254 H   0  0  0  0  0  0
   14.8810   -5.6451   21.7900 H   0  0  0  0  0  0
   14.8891  -10.5684   22.2442 H   0  0  0  0  0  0
   12.7997   -6.9505   21.2912 H   0  0  0  0  0  0
   12.7912   -9.4179   21.5787 H   0  0  0  0  0  0
   19.9194   -6.9229   20.8403 H   0  0  0  0  0  0
   18.8155   -8.5803   18.6929 H   0  0  0  0  0  0
   21.4674   -8.6549   18.1477 H   0  0  0  0  0  0
   21.6145   -7.6193   19.6080 H   0  0  0  0  0  0
   20.4453   -9.3683   20.9534 H   0  0  0  0  0  0
   20.3331  -10.4068   19.4921 H   0  0  0  0  0  0
   23.8658  -10.3107   21.5951 H   0  0  0  0  0  0
   20.3752   -5.3328   18.7535 H   0  0  0  0  0  0
   20.6436   -5.0717   15.8149 H   0  0  0  0  0  0
   21.6986   -3.5708   17.3189 H   0  0  0  0  0  0
   20.1018   -2.9414   17.8488 H   0  0  0  0  0  0
   20.6437   -2.7020   16.1530 H   0  0  0  0  0  0
   18.0142   -4.3116   18.2383 H   0  0  0  0  0  0
   16.2733   -3.3002   16.2363 H   0  0  0  0  0  0
   14.2863   -4.2114   17.7587 H   0  0  0  0  0  0
   15.5811   -4.9024   18.7944 H   0  0  0  0  0  0
   16.6551   -2.6849   18.8707 H   0  0  0  0  0  0
   15.6495   -1.7171   16.7948 H   0  0  0  0  0  0
   15.4250   -0.6307   18.2077 H   0  0  0  0  0  0
   14.0554   -1.6324   17.6183 H   0  0  0  0  0  0
   15.1432   -3.3450   20.7387 H   0  0  0  0  0  0
   13.7617   -2.5690   19.8925 H   0  0  0  0  0  0
   15.1314   -1.5672   20.4819 H   0  0  0  0  0  0
   16.8094   -6.6615   17.2189 H   0  0  0  0  0  0
   14.4419   -7.6616   15.8237 H   0  0  0  0  0  0
   16.0570   -9.8435   15.8535 H   0  0  0  0  0  0
   16.9265   -8.8214   17.0476 H   0  0  0  0  0  0
   15.7428  -10.2931   18.2014 H   0  0  0  0  0  0
   15.5310   -8.0687   19.1405 H   0  0  0  0  0  0
   14.1068   -9.0956   19.5198 H   0  0  0  0  0  0
   13.9886   -7.8291   18.2514 H   0  0  0  0  0  0
   14.1828  -10.9948   16.3442 H   0  0  0  0  0  0
   13.2119   -9.5131   16.6422 H   0  0  0  0  0  0
   13.3301  -10.7796   17.9105 H   0  0  0  0  0  0
   17.7994   -6.8258   15.0282 H   0  0  0  0  0  0
   17.6502   -8.1769   12.3220 H   0  0  0  0  0  0
   19.6868   -6.4866   13.8595 H   0  0  0  0  0  0
   19.7830   -8.2213   13.4031 H   0  0  0  0  0  0
   19.6937   -7.4695   10.9578 H   0  0  0  0  0  0
   19.8936   -5.7846   11.5476 H   0  0  0  0  0  0
   22.1118   -6.0536   11.7554 H   0  0  0  0  0  0
   21.9011   -7.5468   12.7313 H   0  0  0  0  0  0
   21.4725   -7.5222    9.6235 H   0  0  0  0  0  0
   23.0024   -9.0995   12.5517 H   0  0  0  0  0  0
   22.1848   -9.2297    8.4146 H   0  0  0  0  0  0
   23.1748  -10.6204    9.2606 H   0  0  0  0  0  0
   16.6675   -4.2735   11.6454 H   0  0  0  0  0  0
  1  2  1  0  0  0
  1110  1  0  0  0
  1111  1  0  0  0
  1112  1  0  0  0
  2  3  1  0  0  0
  2  5  1  0  0  0
  2113  1  0  0  0
  3  4  2  0  0  0
  3  9  1  0  0  0
  5  6  1  0  0  0
  5114  1  0  0  0
  5115  1  0  0  0
  6  7  1  0  0  0
  6  8  2  0  0  0
  7116  1  0  0  0
  9 10  1  0  0  0
  9117  1  0  0  0
 10 11  1  0  0  0
 10 21  1  0  0  0
 10118  1  0  0  0
 11 12  1  0  0  0
 11119  1  0  0  0
 11120  1  0  0  0
 12 13  2  0  0  0
 12 20  1  0  0  0
 13 14  1  0  0  0
 13121  1  0  0  0
 14 15  1  0  0  0
 15 16  1  0  0  0
 15 20  2  0  0  0
 16 17  2  0  0  0
 16122  1  0  0  0
 17 18  1  0  0  0
 17123  1  0  0  0
 18 19  2  0  0  0
 18124  1  0  0  0
 19 20  1  0  0  0
 19125  1  0  0  0
 21 22  2  0  0  0
 21 23  1  0  0  0
 23 24  1  0  0  0
 23126  1  0  0  0
 24 25  1  0  0  0
 24 35  1  0  0  0
 24127  1  0  0  0
 25 26  1  0  0  0
 25128  1  0  0  0
 25129  1  0  0  0
 26 27  2  0  0  0
 26 34  1  0  0  0
 27 28  1  0  0  0
 27130  1  0  0  0
 28 29  1  0  0  0
 29 30  1  0  0  0
 29 34  2  0  0  0
 30 31  2  0  0  0
 30131  1  0  0  0
 31 32  1  0  0  0
 31132  1  0  0  0
 32 33  2  0  0  0
 32133  1  0  0  0
 33 34  1  0  0  0
 33134  1  0  0  0
 35 36  2  0  0  0
 35 37  1  0  0  0
 37 38  1  0  0  0
 37 41  1  0  0  0
 38 39  1  0  0  0
 38 42  1  0  0  0
 38135  1  0  0  0
 39 40  1  0  0  0
 39136  1  0  0  0
 39137  1  0  0  0
 40 41  1  0  0  0
 40138  1  0  0  0
 40139  1  0  0  0
 41140  1  0  0  0
 41141  1  0  0  0
 42 43  2  0  0  0
 42 44  1  0  0  0
 44 45  1  0  0  0
 44142  1  0  0  0
 45 46  1  0  0  0
 45 50  1  0  0  0
 45143  1  0  0  0
 46 47  1  0  0  0
 46144  1  0  0  0
 46145  1  0  0  0
 47 48  1  0  0  0
 47 49  1  0  0  0
 47146  1  0  0  0
 48147  1  0  0  0
 48148  1  0  0  0
 48149  1  0  0  0
 49150  1  0  0  0
 49151  1  0  0  0
 49152  1  0  0  0
 50 51  2  0  0  0
 50 52  1  0  0  0
 52 53  1  0  0  0
 52153  1  0  0  0
 53 54  1  0  0  0
 53 55  1  0  0  0
 53154  1  0  0  0
 54155  1  0  0  0
 54156  1  0  0  0
 54157  1  0  0  0
 55 56  2  0  0  0
 55 57  1  0  0  0
 57 58  1  0  0  0
 57158  1  0  0  0
 58 59  1  0  0  0
 58 61  1  0  0  0
 58159  1  0  0  0
 59 60  2  0  0  0
 59 68  1  0  0  0
 61 62  1  0  0  0
 61160  1  0  0  0
 61161  1  0  0  0
 62 63  2  0  0  0
 62 64  1  0  0  0
 63 65  1  0  0  0
 63162  1  0  0  0
 64 66  2  0  0  0
 64163  1  0  0  0
 65 67  2  0  0  0
 65164  1  0  0  0
 66 67  1  0  0  0
 66165  1  0  0  0
 67166  1  0  0  0
 68 69  1  0  0  0
 68167  1  0  0  0
 69 70  1  0  0  0
 69 72  1  0  0  0
 69168  1  0  0  0
 70 71  2  0  0  0
 70 77  1  0  0  0
 72 73  1  0  0  0
 72169  1  0  0  0
 72170  1  0  0  0
 73 74  1  0  0  0
 73171  1  0  0  0
 73172  1  0  0  0
 74 75  1  0  0  0
 74 76  2  0  0  0
 75173  1  0  0  0
 77 78  1  0  0  0
 77174  1  0  0  0
 78 79  1  0  0  0
 78 80  1  0  0  0
 78175  1  0  0  0
 79176  1  0  0  0
 79177  1  0  0  0
 79178  1  0  0  0
 80 81  2  0  0  0
 80 82  1  0  0  0
 82 83  1  0  0  0
 82179  1  0  0  0
 83 84  1  0  0  0
 83 88  1  0  0  0
 83180  1  0  0  0
 84 85  1  0  0  0
 84181  1  0  0  0
 84182  1  0  0  0
 85 86  1  0  0  0
 85 87  1  0  0  0
 85183  1  0  0  0
 86184  1  0  0  0
 86185  1  0  0  0
 86186  1  0  0  0
 87187  1  0  0  0
 87188  1  0  0  0
 87189  1  0  0  0
 88 89  2  0  0  0
 88 90  1  0  0  0
 90 91  1  0  0  0
 90190  1  0  0  0
 91 92  1  0  0  0
 91 96  1  0  0  0
 91191  1  0  0  0
 92 93  1  0  0  0
 92192  1  0  0  0
 92193  1  0  0  0
 93 94  1  0  0  0
 93 95  1  0  0  0
 93194  1  0  0  0
 94195  1  0  0  0
 94196  1  0  0  0
 94197  1  0  0  0
 95198  1  0  0  0
 95199  1  0  0  0
 95200  1  0  0  0
 96 97  2  0  0  0
 96 98  1  0  0  0
 98 99  1  0  0  0
 98201  1  0  0  0
 99100  1  0  0  0
 99107  1  0  0  0
 99202  1  0  0  0
100101  1  0  0  0
100203  1  0  0  0
100204  1  0  0  0
101102  1  0  0  0
101205  1  0  0  0
101206  1  0  0  0
102103  1  0  0  0
102207  1  0  0  0
102208  1  0  0  0
103104  1  0  0  0
103209  1  0  0  0
104105  2  0  0  0
104106  1  0  0  0
105210  1  0  0  0
106211  1  0  0  0
106212  1  0  0  0
107108  2  0  0  0
107109  1  0  0  0
109213  1  0  0  0
M  CHG  1   1   1
M  END
> <s_m_source_file>
../3iwy_ligand.sdf

> <i_m_source_file_index>
1

> <s_epik_input>
W2NIXTFbY0hdW2NIXVtjSF1jKGMxMiljKFtjSF1bbkhdMilbQ0gyXVtDQEBIXShbTkhdQyg9TylbQ0BIXShbTkgzK10pW0NIMl1DKD1PKVtPSF0pQyg9TylbTkhdW0NASF0oW0NIMl1jKFtjSF1bbkhdMyljKGMzNClbY0hdW2NIXVtjSF1bY0hdNClDKD1PKU41W0NASF0oW0NIMl1bQ0gyXVtDSDJdNSlDKD1PKVtOSF1bQ0BIXShbQ0gyXVtDSF0oW0NIM10pW0NIM10pQyg9TylbTkhdW0NASF0oW0NIM10pQyg9TylbTkhdW0NASF0oW0NIMl1jNltjSF1bY0hdW2NIXVtjSF1bY0hdNilDKD1PKVtOSF1bQ0BIXShbQ0gyXVtDSDJdQyg9TylbT0hdKUMoPU8pW05IXVtDQEhdKFtDSDNdKUMoPU8pW05IXVtDQEhdKFtDSDJdW0NIXShbQ0gzXSlbQ0gzXSlDKD1PKVtOSF1bQ0BIXShbQ0gyXVtDSF0oW0NIM10pW0NIM10pQyg9TylbTkhdW0NAQEhdKEMoPU8pW09IXSlbQ0gyXVtDSDJdW0NIMl1bTkhdL0MoPU5cW0hdKVtOSDJd

> <s_epik_cmdline>
J2VwaWtfYXBwJywgJy1pbWFlJywgJ2xpZ2FuZF9wcm8ubWFlJywgJy1vbWFlJywgJ2xpZ2FuZF9wcmVwLm1hZScsICctbXMnLCAnMScsICctcGgnLCAnNycsICctcGh0JywgJzAuNScsICctbnQn

> <s_epik_pKa_notes>
Molecule size exceeds maximum supported for generating protonation states

> <s_epik_Chemistry_Notes>
This compound has an imine and may undergo hydrolysis.

$$$$
