3ixg_ligand
                    3D
 Schrodinger Suite 2020-3.
 19 20  0  0  1  0            999 V2000
   71.2320    4.8160   23.4870 B   0  0  0  0  0  0
   70.6030    5.1430   22.1310 O   0  0  0  0  0  0
   71.9550    3.4640   23.6230 O   0  0  0  0  0  0
   71.8440    5.9460   24.3470 C   0  0  0  0  0  0
   71.9300    7.3110   24.0330 C   0  0  0  0  0  0
   73.0250    7.0200   26.2500 C   0  0  0  0  0  0
   72.6280    7.9470   25.1620 C   0  0  0  0  0  0
   73.6910    7.4290   27.4100 C   0  0  0  0  0  0
   72.5390    5.4670   25.8570 S   0  0  0  0  0  0
   72.9680    9.2950   25.3480 C   0  0  0  0  0  0
   74.0030    8.7940   27.5280 C   0  0  0  0  0  0
   73.6440    9.6980   26.5140 C   0  0  0  0  0  0
   70.1675    4.3397   21.5187 H   0  0  0  0  0  0
   71.6013    2.5915   23.0541 H   0  0  0  0  0  0
   71.5555    7.8013   23.1344 H   0  0  0  0  0  0
   73.9574    6.7172   28.1913 H   0  0  0  0  0  0
   72.7080   10.0316   24.5878 H   0  0  0  0  0  0
   74.5275    9.1543   28.4129 H   0  0  0  0  0  0
   73.8988   10.7508   26.6354 H   0  0  0  0  0  0
  1  2  1  0  0  0
  1  3  1  0  0  0
  1  4  1  0  0  0
  2 13  1  0  0  0
  3 14  1  0  0  0
  4  5  2  0  0  0
  4  9  1  0  0  0
  5  7  1  0  0  0
  5 15  1  0  0  0
  6  7  2  0  0  0
  6  8  1  0  0  0
  6  9  1  0  0  0
  7 10  1  0  0  0
  8 11  2  0  0  0
  8 16  1  0  0  0
 10 12  2  0  0  0
 10 17  1  0  0  0
 11 12  1  0  0  0
 11 18  1  0  0  0
 12 19  1  0  0  0
M  END
> <s_m_source_file>
../3ixg_ligand.sdf

> <i_m_source_file_index>
1

> <s_epik_input>
W09IXUIoW09IXSljKHMxKVtjSF1jKGMxMilbY0hdW2NIXVtjSF1bY0hdMg==

> <s_epik_cmdline>
J2VwaWtfYXBwJywgJy1pbWFlJywgJ2xpZ2FuZF9wcm8ubWFlJywgJy1vbWFlJywgJ2xpZ2FuZF9wcmVwLm1hZScsICctbXMnLCAnMScsICctcGgnLCAnNycsICctcGh0JywgJzAuNScsICctbnQn

> <r_lp_tautomer_probability>
1

> <r_epik_Ionization_Penalty>
  0.0000

> <r_epik_Ionization_Penalty_Charging>
  0.0000

> <r_epik_Ionization_Penalty_Neutral>
  0.0000

> <r_epik_State_Penalty>
 -0.0000

> <r_epik_Charging_Adjusted_Penalty>
0

> <i_epik_Tot_Q>
0

> <i_epik_Tot_abs_Q>
0

> <s_epik_Chemistry_Notes>
This compound contains a Lewis acid (boronic acid) which adds nucleophiles to form tetrahedral complexes, lowering the experimental pKa

$$$$
