3ixj_ligand
                    3D
 Schrodinger Suite 2020-3.
111114  0  0  1  0            999 V2000
    2.0490   19.5020   28.4120 O   0  0  0  0  0  0
    1.1990   18.9610   29.0920 C   0  0  0  0  0  0
   -0.0990   19.0290   28.8110 N   0  0  0  0  0  0
   -0.6370   19.7240   27.6540 C   0  0  1  0  0  0
   -0.9310   18.7190   26.5800 C   0  0  0  0  0  0
   -1.7930   17.6330   26.7940 C   0  0  0  0  0  0
   -2.0500   16.7280   25.7720 C   0  0  0  0  0  0
   -1.4350   16.8840   24.5290 C   0  0  0  0  0  0
   -0.5700   17.9520   24.3030 C   0  0  0  0  0  0
   -0.3220   18.8600   25.3370 C   0  0  0  0  0  0
   -1.8950   20.5030   28.0270 C   0  0  0  0  0  0
    1.6140   18.1860   30.2990 C   0  0  0  0  0  0
    2.8360   17.5190   30.3370 C   0  0  0  0  0  0
    3.2110   16.7870   31.4680 C   0  0  0  0  0  0
    4.4580   16.1250   31.5460 N   0  0  0  0  0  0
    5.2200   15.5520   30.3150 S   0  0  0  0  0  0
    5.9850   14.4100   30.7130 O   0  0  0  0  0  0
    6.2800   16.7130   29.7220 C   0  0  0  0  0  0
    4.3100   15.1950   29.2870 O   0  0  0  0  0  0
    5.0720   16.0290   32.8740 C   0  0  0  0  0  0
    2.3420   16.7470   32.5640 C   0  0  0  0  0  0
    0.7520   18.1300   31.3750 C   0  0  0  0  0  0
    1.1060   17.4030   32.5090 C   0  0  0  0  0  0
    0.1370   17.4050   33.6470 C   0  0  0  0  0  0
    0.5480   17.6370   34.7670 O   0  0  0  0  0  0
   -1.1570   17.1810   33.3870 N   0  0  0  0  0  0
   -2.1950   17.2060   34.3990 C   0  0  1  0  0  0
   -3.4060   18.0160   33.8850 C   0  0  0  0  0  0
   -3.1000   18.9530   32.8520 O   0  0  0  0  0  0
   -2.3150   20.0760   33.0610 C   0  0  0  0  0  0
   -1.8720   20.8150   31.9620 C   0  0  0  0  0  0
   -1.0660   21.9420   32.1600 C   0  0  0  0  0  0
   -0.6380   22.6530   31.1120 F   0  0  0  0  0  0
   -0.6820   22.3320   33.4380 C   0  0  0  0  0  0
   -1.1120   21.6000   34.5380 C   0  0  0  0  0  0
   -0.7590   21.9900   35.7820 F   0  0  0  0  0  0
   -1.9350   20.4780   34.3500 C   0  0  0  0  0  0
   -2.6530   15.8210   34.8590 C   0  0  1  0  0  0
   -3.2100   15.1370   33.7290 O   0  0  0  0  0  0
   -1.5080   15.0400   35.4630 C   0  0  0  0  0  0
   -1.9770   14.0960   36.5700 C   0  0  1  0  0  0
   -1.0400   12.9970   36.6410 O   0  0  0  0  0  0
   -1.5310   11.9060   37.4240 C   0  0  0  0  0  0
   -2.0040   14.8110   37.8990 C   0  0  0  0  0  0
   -1.0040   15.4090   38.2420 O   0  0  0  0  0  0
   -3.1210   14.7480   38.6420 N   0  0  0  0  0  0
   -3.2220   15.3530   39.9600 C   0  0  1  0  0  0
   -4.5960   15.2560   40.6250 C   0  0  0  0  0  0
   -5.4030   16.4990   40.3080 C   0  0  0  0  0  0
   -5.3790   13.9920   40.3310 C   0  0  0  0  0  0
   -2.2420   14.7400   40.9250 C   0  0  0  0  0  0
   -1.9840   13.5420   40.8470 O   0  0  0  0  0  0
   -1.6890   15.5460   41.8430 N   0  0  0  0  0  0
   -0.7310   15.0590   42.8300 C   0  0  0  0  0  0
    0.5470   15.8620   42.7020 C   0  0  0  0  0  0
    0.9510   16.7070   43.7500 C   0  0  0  0  0  0
    2.1190   17.4640   43.6500 C   0  0  0  0  0  0
    2.8940   17.3550   42.5000 C   0  0  0  0  0  0
    2.5050   16.4970   41.4620 C   0  0  0  0  0  0
    1.3300   15.7520   41.5580 C   0  0  0  0  0  0
   -0.7776   18.5211   29.5121 H   0  0  0  0  0  0
    0.1356   20.4257   27.3066 H   0  0  0  0  0  0
   -2.2638   17.4986   27.7679 H   0  0  0  0  0  0
   -2.7327   15.8952   25.9410 H   0  0  0  0  0  0
   -1.6324   16.1672   23.7319 H   0  0  0  0  0  0
   -0.0920   18.0785   23.3316 H   0  0  0  0  0  0
    0.3603   19.6927   25.1663 H   0  0  0  0  0  0
   -1.6546   21.2322   28.8147 H   0  0  0  0  0  0
   -2.6624   19.8059   28.3945 H   0  0  0  0  0  0
   -2.2747   21.0324   27.1407 H   0  0  0  0  0  0
    3.5055   17.5679   29.4782 H   0  0  0  0  0  0
    6.9911   16.9977   30.5115 H   0  0  0  0  0  0
    5.7120   17.5994   29.4031 H   0  0  0  0  0  0
    6.8309   16.3020   28.8632 H   0  0  0  0  0  0
    4.4022   16.4799   33.6211 H   0  0  0  0  0  0
    6.0332   16.5639   32.8731 H   0  0  0  0  0  0
    5.2412   14.9713   33.1241 H   0  0  0  0  0  0
    2.6283   16.2031   33.4642 H   0  0  0  0  0  0
   -0.2034   18.6533   31.3376 H   0  0  0  0  0  0
   -1.4156   16.9692   32.3390 H   0  0  0  0  0  0
   -1.6907   17.6855   35.2509 H   0  0  0  0  0  0
   -4.1611   17.3278   33.4774 H   0  0  0  0  0  0
   -3.8430   18.5893   34.7159 H   0  0  0  0  0  0
   -2.1532   20.5149   30.9526 H   0  0  0  0  0  0
   -0.0471   23.2072   33.5763 H   0  0  0  0  0  0
   -2.2824   19.9132   35.2151 H   0  0  0  0  0  0
   -3.4522   15.8821   35.6124 H   0  0  0  0  0  0
   -4.0538   15.5795   33.1793 H   0  0  0  0  0  0
   -1.0228   14.4371   34.6813 H   0  0  0  0  0  0
   -0.7758   15.7379   35.8952 H   0  0  0  0  0  0
   -2.9770   13.6899   36.3575 H   0  0  0  0  0  0
   -0.7807   11.1018   37.4435 H   0  0  0  0  0  0
   -2.4635   11.5268   36.9805 H   0  0  0  0  0  0
   -1.7265   12.2501   38.4503 H   0  0  0  0  0  0
   -3.9816   14.2118   38.2156 H   0  0  0  0  0  0
   -2.9889   16.3990   39.7118 H   0  0  0  0  0  0
   -4.4127   15.1915   41.7077 H   0  0  0  0  0  0
   -4.8031   17.3930   40.5336 H   0  0  0  0  0  0
   -6.3180   16.5077   40.9185 H   0  0  0  0  0  0
   -5.6736   16.4985   39.2418 H   0  0  0  0  0  0
   -4.7621   13.1140   40.5729 H   0  0  0  0  0  0
   -5.6493   13.9678   39.2650 H   0  0  0  0  0  0
   -6.2938   13.9770   40.9417 H   0  0  0  0  0  0
   -1.9799   16.6068   41.8357 H   0  0  0  0  0  0
   -1.1503   15.1817   43.8395 H   0  0  0  0  0  0
   -0.5239   13.9945   42.6458 H   0  0  0  0  0  0
    0.3438   16.7719   44.6529 H   0  0  0  0  0  0
    2.4190   18.1295   44.4594 H   0  0  0  0  0  0
    3.8088   17.9400   42.4055 H   0  0  0  0  0  0
    3.1270   16.4113   40.5710 H   0  0  0  0  0  0
    1.0287   15.0909   40.7454 H   0  0  0  0  0  0
  1  2  2  0  0  0
  2  3  1  0  0  0
  2 12  1  0  0  0
  3  4  1  0  0  0
  3 61  1  0  0  0
  4  5  1  0  0  0
  4 11  1  0  0  0
  4 62  1  0  0  0
  5  6  2  0  0  0
  5 10  1  0  0  0
  6  7  1  0  0  0
  6 63  1  0  0  0
  7  8  2  0  0  0
  7 64  1  0  0  0
  8  9  1  0  0  0
  8 65  1  0  0  0
  9 10  2  0  0  0
  9 66  1  0  0  0
 10 67  1  0  0  0
 11 68  1  0  0  0
 11 69  1  0  0  0
 11 70  1  0  0  0
 12 13  2  0  0  0
 12 22  1  0  0  0
 13 14  1  0  0  0
 13 71  1  0  0  0
 14 15  1  0  0  0
 14 21  2  0  0  0
 15 16  1  0  0  0
 15 20  1  0  0  0
 16 17  2  0  0  0
 16 18  1  0  0  0
 16 19  2  0  0  0
 18 72  1  0  0  0
 18 73  1  0  0  0
 18 74  1  0  0  0
 20 75  1  0  0  0
 20 76  1  0  0  0
 20 77  1  0  0  0
 21 23  1  0  0  0
 21 78  1  0  0  0
 22 23  2  0  0  0
 22 79  1  0  0  0
 23 24  1  0  0  0
 24 25  2  0  0  0
 24 26  1  0  0  0
 26 27  1  0  0  0
 26 80  1  0  0  0
 27 28  1  0  0  0
 27 38  1  0  0  0
 27 81  1  0  0  0
 28 29  1  0  0  0
 28 82  1  0  0  0
 28 83  1  0  0  0
 29 30  1  0  0  0
 30 31  2  0  0  0
 30 37  1  0  0  0
 31 32  1  0  0  0
 31 84  1  0  0  0
 32 33  1  0  0  0
 32 34  2  0  0  0
 34 35  1  0  0  0
 34 85  1  0  0  0
 35 36  1  0  0  0
 35 37  2  0  0  0
 37 86  1  0  0  0
 38 39  1  0  0  0
 38 40  1  0  0  0
 38 87  1  0  0  0
 39 88  1  0  0  0
 40 41  1  0  0  0
 40 89  1  0  0  0
 40 90  1  0  0  0
 41 42  1  0  0  0
 41 44  1  0  0  0
 41 91  1  0  0  0
 42 43  1  0  0  0
 43 92  1  0  0  0
 43 93  1  0  0  0
 43 94  1  0  0  0
 44 45  2  0  0  0
 44 46  1  0  0  0
 46 47  1  0  0  0
 46 95  1  0  0  0
 47 48  1  0  0  0
 47 51  1  0  0  0
 47 96  1  0  0  0
 48 49  1  0  0  0
 48 50  1  0  0  0
 48 97  1  0  0  0
 49 98  1  0  0  0
 49 99  1  0  0  0
 49100  1  0  0  0
 50101  1  0  0  0
 50102  1  0  0  0
 50103  1  0  0  0
 51 52  2  0  0  0
 51 53  1  0  0  0
 53 54  1  0  0  0
 53104  1  0  0  0
 54 55  1  0  0  0
 54105  1  0  0  0
 54106  1  0  0  0
 55 56  2  0  0  0
 55 60  1  0  0  0
 56 57  1  0  0  0
 56107  1  0  0  0
 57 58  2  0  0  0
 57108  1  0  0  0
 58 59  1  0  0  0
 58109  1  0  0  0
 59 60  2  0  0  0
 59110  1  0  0  0
 60111  1  0  0  0
M  END
> <s_m_source_file>
../3ixj_ligand.sdf

> <i_m_source_file_index>
1

> <s_epik_input>
W2NIXTFbY0hdW2NIXVtjSF1bY0hdYzFbQ0BASF0oW0NIM10pW05IXUMoPU8pYzJbY0hdYyhOKFtDSDNdKVMoPU8pKD1PKVtDSDNdKVtjSF1jKFtjSF0yKUMoPU8pW05IXVtDQEBIXShbQ0gyXU9jM1tjSF1jKEYpW2NIXWMoRilbY0hdMylbQ0BASF0oW09IXSlbQ0gyXVtDQEBIXShPW0NIM10pQyg9TylbTkhdW0NAQEhdKFtDSF0oW0NIM10pW0NIM10pQyg9TylbTkhdW0NIMl1jNFtjSF1bY0hdW2NIXVtjSF1bY0hdNA==

> <s_epik_cmdline>
J2VwaWtfYXBwJywgJy1pbWFlJywgJ2xpZ2FuZF9wcm8ubWFlJywgJy1vbWFlJywgJ2xpZ2FuZF9wcmVwLm1hZScsICctbXMnLCAnMScsICctcGgnLCAnNycsICctcGh0JywgJzAuNScsICctbnQn

> <r_lp_tautomer_probability>
1

> <r_epik_Ionization_Penalty>
  0.0000

> <r_epik_Ionization_Penalty_Charging>
  0.0000

> <r_epik_Ionization_Penalty_Neutral>
  0.0000

> <r_epik_State_Penalty>
 -0.0000

> <r_epik_Charging_Adjusted_Penalty>
0

> <i_epik_Tot_Q>
0

> <i_epik_Tot_abs_Q>
0

$$$$
