3ixk_ligand
                    3D
 Schrodinger Suite 2020-3.
113116  0  0  1  0            999 V2000
    2.2960   19.4680   28.2000 O   0  0  0  0  0  0
    1.4840   19.0230   28.9690 C   0  0  0  0  0  0
    0.1770   19.0920   28.8300 N   0  0  0  0  0  0
   -0.4100   19.7800   27.6970 C   0  0  1  0  0  0
   -0.7170   18.7460   26.6690 C   0  0  0  0  0  0
   -1.6160   17.7030   26.9500 C   0  0  0  0  0  0
   -1.8990   16.7810   25.9440 C   0  0  0  0  0  0
   -1.2890   16.8740   24.6840 C   0  0  0  0  0  0
   -0.3830   17.8870   24.3970 C   0  0  0  0  0  0
   -0.0980   18.8110   25.4170 C   0  0  0  0  0  0
   -1.6220   20.6210   28.1150 C   0  0  0  0  0  0
    1.9100   18.2730   30.1470 C   0  0  0  0  0  0
    3.1050   17.5780   30.1260 C   0  0  0  0  0  0
    3.3840   16.8330   31.2630 C   0  0  0  0  0  0
    4.5640   16.0630   31.3530 N   0  0  0  0  0  0
    5.3380   15.5340   30.1170 S   0  0  0  0  0  0
    6.0860   14.3870   30.6860 O   0  0  0  0  0  0
    6.5150   16.6780   29.7050 C   0  0  0  0  0  0
    4.4650   15.3420   28.9890 O   0  0  0  0  0  0
    5.0320   15.7360   32.7270 C   0  0  0  0  0  0
    2.4940   16.8220   32.3340 C   0  0  0  0  0  0
    0.9970   18.2600   31.2010 C   0  0  0  0  0  0
    1.2850   17.5140   32.3340 C   0  0  0  0  0  0
    0.3190   17.4910   33.5060 C   0  0  0  0  0  0
    0.7840   17.5160   34.6260 O   0  0  0  0  0  0
   -0.9990   17.3900   33.3070 N   0  0  0  0  0  0
   -2.0080   17.3730   34.3580 C   0  0  1  0  0  0
   -3.2530   18.0980   33.8840 C   0  0  0  0  0  0
   -2.8310   18.7610   32.7100 O   0  0  0  0  0  0
   -2.8890   20.1510   32.9320 C   0  0  0  0  0  0
   -1.5680   20.8670   33.0310 C   0  0  0  0  0  0
   -0.9950   21.5280   31.9480 C   0  0  0  0  0  0
    0.1930   22.2280   32.1560 C   0  0  0  0  0  0
    0.8450   22.8890   31.1930 F   0  0  0  0  0  0
    0.7870   22.2750   33.3990 C   0  0  0  0  0  0
    0.2220   21.6220   34.4770 C   0  0  0  0  0  0
    0.8280   21.6870   35.6740 F   0  0  0  0  0  0
   -0.9660   20.9180   34.2850 C   0  0  0  0  0  0
   -2.5060   15.9810   34.6870 C   0  0  1  0  0  0
   -2.9950   15.3660   33.4780 O   0  0  0  0  0  0
   -1.4120   15.2420   35.4670 C   0  0  0  0  0  0
   -2.0470   14.2640   36.4490 C   0  0  1  0  0  0
   -1.1400   13.0350   36.4070 C   0  0  0  0  0  0
   -2.1720   14.8530   37.8420 C   0  0  0  0  0  0
   -1.1940   15.4190   38.3090 O   0  0  0  0  0  0
   -3.3090   14.8190   38.5650 N   0  0  0  0  0  0
   -3.2750   15.3820   39.9100 C   0  0  1  0  0  0
   -4.5350   15.1040   40.6900 C   0  0  0  0  0  0
   -5.2720   16.3700   41.0790 C   0  0  0  0  0  0
   -5.4040   14.0300   40.0680 C   0  0  0  0  0  0
   -2.1420   14.6800   40.6030 C   0  0  0  0  0  0
   -2.1350   13.4610   40.5370 O   0  0  0  0  0  0
   -1.2150   15.3410   41.2980 N   0  0  0  0  0  0
   -0.1330   14.6050   41.9520 C   0  0  0  0  0  0
    0.9350   15.5990   42.3190 C   0  0  0  0  0  0
    0.8340   16.3220   43.5200 C   0  0  0  0  0  0
    1.7980   17.2770   43.8740 C   0  0  0  0  0  0
    2.8680   17.5020   43.0000 C   0  0  0  0  0  0
    2.9600   16.7690   41.8040 C   0  0  0  0  0  0
    1.9990   15.8110   41.4520 C   0  0  0  0  0  0
   -0.4713   18.6213   29.5838 H   0  0  0  0  0  0
    0.3302   20.4797   27.2816 H   0  0  0  0  0  0
   -2.0812   17.6172   27.9320 H   0  0  0  0  0  0
   -2.6058   15.9745   26.1393 H   0  0  0  0  0  0
   -1.5303   16.1383   23.9168 H   0  0  0  0  0  0
    0.0892   17.9625   23.4175 H   0  0  0  0  0  0
    0.6273   19.6020   25.2263 H   0  0  0  0  0  0
   -1.3140   21.3570   28.8723 H   0  0  0  0  0  0
   -2.3967   19.9635   28.5364 H   0  0  0  0  0  0
   -2.0248   21.1458   27.2362 H   0  0  0  0  0  0
    3.7828   17.6129   29.2731 H   0  0  0  0  0  0
    7.1896   16.8341   30.5597 H   0  0  0  0  0  0
    6.0269   17.6288   29.4447 H   0  0  0  0  0  0
    7.0935   16.3147   28.8428 H   0  0  0  0  0  0
    4.3580   16.1978   33.4635 H   0  0  0  0  0  0
    6.0515   16.1239   32.8691 H   0  0  0  0  0  0
    5.0325   14.6446   32.8641 H   0  0  0  0  0  0
    2.7571   16.2417   33.2184 H   0  0  0  0  0  0
    0.0694   18.8286   31.1352 H   0  0  0  0  0  0
   -1.3022   17.3162   32.2522 H   0  0  0  0  0  0
   -1.4859   17.8353   35.2087 H   0  0  0  0  0  0
   -4.0499   17.3664   33.6849 H   0  0  0  0  0  0
   -3.5865   18.8009   34.6617 H   0  0  0  0  0  0
   -3.4323   20.6320   32.1052 H   0  0  0  0  0  0
   -3.4121   20.3496   33.8791 H   0  0  0  0  0  0
   -1.4625   21.4991   30.9638 H   0  0  0  0  0  0
    1.7132   22.8339   33.5327 H   0  0  0  0  0  0
   -1.4285   20.4018   35.1262 H   0  0  0  0  0  0
   -3.4122   15.9498   35.3098 H   0  0  0  0  0  0
   -3.7795   15.8615   32.8873 H   0  0  0  0  0  0
   -0.7720   14.6876   34.7649 H   0  0  0  0  0  0
   -0.8023   15.9699   36.0224 H   0  0  0  0  0  0
   -3.0842   14.0166   36.1789 H   0  0  0  0  0  0
   -1.0876   12.6531   35.3768 H   0  0  0  0  0  0
   -1.5483   12.2553   37.0668 H   0  0  0  0  0  0
   -0.1313   13.3120   36.7472 H   0  0  0  0  0  0
   -4.2414   14.3862   38.1733 H   0  0  0  0  0  0
   -3.1612   16.4724   39.8195 H   0  0  0  0  0  0
   -4.2094   14.6618   41.6431 H   0  0  0  0  0  0
   -4.5629   17.0865   41.5192 H   0  0  0  0  0  0
   -6.0532   16.1281   41.8147 H   0  0  0  0  0  0
   -5.7348   16.8141   40.1854 H   0  0  0  0  0  0
   -4.7849   13.1551   39.8206 H   0  0  0  0  0  0
   -5.8698   14.4206   39.1512 H   0  0  0  0  0  0
   -6.1882   13.7346   40.7806 H   0  0  0  0  0  0
   -1.2628   16.4369   41.3800 H   0  0  0  0  0  0
   -0.5204   14.1076   42.8534 H   0  0  0  0  0  0
    0.2673   13.8496   41.2598 H   0  0  0  0  0  0
   -0.0077   16.1373   44.1875 H   0  0  0  0  0  0
    1.7159   17.8316   44.8087 H   0  0  0  0  0  0
    3.6279   18.2437   43.2461 H   0  0  0  0  0  0
    3.7999   16.9501   41.1333 H   0  0  0  0  0  0
    2.0846   15.2476   40.5228 H   0  0  0  0  0  0
  1  2  2  0  0  0
  2  3  1  0  0  0
  2 12  1  0  0  0
  3  4  1  0  0  0
  3 61  1  0  0  0
  4  5  1  0  0  0
  4 11  1  0  0  0
  4 62  1  0  0  0
  5  6  2  0  0  0
  5 10  1  0  0  0
  6  7  1  0  0  0
  6 63  1  0  0  0
  7  8  2  0  0  0
  7 64  1  0  0  0
  8  9  1  0  0  0
  8 65  1  0  0  0
  9 10  2  0  0  0
  9 66  1  0  0  0
 10 67  1  0  0  0
 11 68  1  0  0  0
 11 69  1  0  0  0
 11 70  1  0  0  0
 12 13  2  0  0  0
 12 22  1  0  0  0
 13 14  1  0  0  0
 13 71  1  0  0  0
 14 15  1  0  0  0
 14 21  2  0  0  0
 15 16  1  0  0  0
 15 20  1  0  0  0
 16 17  2  0  0  0
 16 18  1  0  0  0
 16 19  2  0  0  0
 18 72  1  0  0  0
 18 73  1  0  0  0
 18 74  1  0  0  0
 20 75  1  0  0  0
 20 76  1  0  0  0
 20 77  1  0  0  0
 21 23  1  0  0  0
 21 78  1  0  0  0
 22 23  2  0  0  0
 22 79  1  0  0  0
 23 24  1  0  0  0
 24 25  2  0  0  0
 24 26  1  0  0  0
 26 27  1  0  0  0
 26 80  1  0  0  0
 27 28  1  0  0  0
 27 39  1  0  0  0
 27 81  1  0  0  0
 28 29  1  0  0  0
 28 82  1  0  0  0
 28 83  1  0  0  0
 29 30  1  0  0  0
 30 31  1  0  0  0
 30 84  1  0  0  0
 30 85  1  0  0  0
 31 32  2  0  0  0
 31 38  1  0  0  0
 32 33  1  0  0  0
 32 86  1  0  0  0
 33 34  1  0  0  0
 33 35  2  0  0  0
 35 36  1  0  0  0
 35 87  1  0  0  0
 36 37  1  0  0  0
 36 38  2  0  0  0
 38 88  1  0  0  0
 39 40  1  0  0  0
 39 41  1  0  0  0
 39 89  1  0  0  0
 40 90  1  0  0  0
 41 42  1  0  0  0
 41 91  1  0  0  0
 41 92  1  0  0  0
 42 43  1  0  0  0
 42 44  1  0  0  0
 42 93  1  0  0  0
 43 94  1  0  0  0
 43 95  1  0  0  0
 43 96  1  0  0  0
 44 45  2  0  0  0
 44 46  1  0  0  0
 46 47  1  0  0  0
 46 97  1  0  0  0
 47 48  1  0  0  0
 47 51  1  0  0  0
 47 98  1  0  0  0
 48 49  1  0  0  0
 48 50  1  0  0  0
 48 99  1  0  0  0
 49100  1  0  0  0
 49101  1  0  0  0
 49102  1  0  0  0
 50103  1  0  0  0
 50104  1  0  0  0
 50105  1  0  0  0
 51 52  2  0  0  0
 51 53  1  0  0  0
 53 54  1  0  0  0
 53106  1  0  0  0
 54 55  1  0  0  0
 54107  1  0  0  0
 54108  1  0  0  0
 55 56  2  0  0  0
 55 60  1  0  0  0
 56 57  1  0  0  0
 56109  1  0  0  0
 57 58  2  0  0  0
 57110  1  0  0  0
 58 59  1  0  0  0
 58111  1  0  0  0
 59 60  2  0  0  0
 59112  1  0  0  0
 60113  1  0  0  0
M  END
> <s_m_source_file>
../3ixk_ligand.sdf

> <i_m_source_file_index>
1

> <s_epik_input>
W2NIXTFbY0hdW2NIXVtjSF1bY0hdYzFbQ0BASF0oW0NIM10pW05IXUMoPU8pYzJbY0hdYyhOKFtDSDNdKVMoPU8pKD1PKVtDSDNdKVtjSF1jKFtjSF0yKUMoPU8pW05IXVtDQEBIXShbQ0gyXU9bQ0gyXWMzW2NIXWMoRilbY0hdYyhGKVtjSF0zKVtDQEBIXShbT0hdKVtDSDJdW0NAQEhdKFtDSDNdKUMoPU8pW05IXVtDQEBIXShbQ0hdKFtDSDNdKVtDSDNdKUMoPU8pW05IXVtDSDJdYzRbY0hdW2NIXVtjSF1bY0hdW2NIXTQ=

> <s_epik_cmdline>
J2VwaWtfYXBwJywgJy1pbWFlJywgJ2xpZ2FuZF9wcm8ubWFlJywgJy1vbWFlJywgJ2xpZ2FuZF9wcmVwLm1hZScsICctbXMnLCAnMScsICctcGgnLCAnNycsICctcGh0JywgJzAuNScsICctbnQn

> <r_lp_tautomer_probability>
1

> <r_epik_Ionization_Penalty>
  0.0000

> <r_epik_Ionization_Penalty_Charging>
  0.0000

> <r_epik_Ionization_Penalty_Neutral>
  0.0000

> <r_epik_State_Penalty>
 -0.0000

> <r_epik_Charging_Adjusted_Penalty>
0

> <i_epik_Tot_Q>
0

> <i_epik_Tot_abs_Q>
0

$$$$
