3jpv_ligand
                    3D
 Schrodinger Suite 2020-3.
 26 29  0  0  1  0            999 V2000
   25.9580   47.7130   -0.6830 C   0  0  0  0  0  0
   25.5940   46.4990   -1.2530 C   0  0  0  0  0  0
   25.2090   45.4660   -0.4020 C   0  0  0  0  0  0
   25.1930   45.6560    0.9930 C   0  0  0  0  0  0
   25.5530   46.8670    1.5720 C   0  0  0  0  0  0
   25.9480   47.8800    0.7160 C   0  0  0  0  0  0
   26.3450   49.1820    0.9840 C   0  0  0  0  0  0
   26.5880   49.7730   -0.2590 C   0  0  0  0  0  0
   26.3300   48.8730   -1.2470 N   0  0  0  0  0  0
   26.4820   49.8850    2.1680 C   0  0  0  0  0  0
   26.9070   51.2190    2.1170 C   0  0  0  0  0  0
   27.1570   51.8020    0.8720 C   0  0  0  0  0  0
   27.0070   51.0860   -0.3080 C   0  0  0  0  0  0
   27.5600   53.0660    0.4560 C   0  0  0  0  0  0
   27.6540   53.1220   -0.8770 C   0  0  0  0  0  0
   27.3050   51.8990   -1.3350 N   0  0  0  0  0  0
   27.8760   54.2070    1.4170 C   0  0  0  0  0  0
   27.6810   54.0410    2.6210 O   0  0  0  0  0  0
   25.6094   46.3595   -2.3339 H   0  0  0  0  0  0
   24.9176   44.5022   -0.8195 H   0  0  0  0  0  0
   24.8898   44.8303    1.6367 H   0  0  0  0  0  0
   25.5255   47.0124    2.6519 H   0  0  0  0  0  0
   26.2585   49.3954    3.1273 H   0  0  0  0  0  0
   27.0446   51.8063    3.0369 H   0  0  0  0  0  0
   27.9686   54.0550   -1.3675 H   0  0  0  0  0  0
   28.2717   55.1659    1.0510 H   0  0  0  0  0  0
  1  2  2  0  0  0
  1  6  1  0  0  0
  1  9  1  0  0  0
  2  3  1  0  0  0
  2 19  1  0  0  0
  3  4  2  0  0  0
  3 20  1  0  0  0
  4  5  1  0  0  0
  4 21  1  0  0  0
  5  6  2  0  0  0
  5 22  1  0  0  0
  6  7  1  0  0  0
  7  8  1  0  0  0
  7 10  2  0  0  0
  8  9  2  0  0  0
  8 13  1  0  0  0
 10 11  1  0  0  0
 10 23  1  0  0  0
 11 12  2  0  0  0
 11 24  1  0  0  0
 12 13  1  0  0  0
 12 14  1  0  0  0
 13 16  2  0  0  0
 14 15  2  0  0  0
 14 17  1  0  0  0
 15 16  1  0  0  0
 15 25  1  0  0  0
 17 18  2  0  0  0
 17 26  1  0  0  0
M  END
> <s_m_source_file>
../3jpv_ligand.sdf

> <i_m_source_file_index>
1

> <s_epik_input>
W2NIXTFbY0hdW2NIXVtjSF1jKGMxMiljM2MoPU4yKWM9NGMoW2NIXVtjSF0zKUMoPVtDSF1ONClbQ0hdPU8=

> <s_epik_cmdline>
J2VwaWtfYXBwJywgJy1pbWFlJywgJ2xpZ2FuZF9wcm8ubWFlJywgJy1vbWFlJywgJ2xpZ2FuZF9wcmVwLm1hZScsICctbXMnLCAnMScsICctcGgnLCAnNycsICctcGh0JywgJzAuNScsICctbnQn

> <r_lp_tautomer_probability>
1

> <r_epik_Ionization_Penalty>
  0.0000

> <r_epik_Ionization_Penalty_Charging>
  0.0000

> <r_epik_Ionization_Penalty_Neutral>
  0.0000

> <r_epik_State_Penalty>
 -0.0000

> <r_epik_Charging_Adjusted_Penalty>
0

> <i_epik_Tot_Q>
0

> <i_epik_Tot_abs_Q>
0

> <s_epik_Chemistry_Notes>
This compound has an imine and may undergo hydrolysis.

$$$$
