3jpx_ligand
                    3D
 Schrodinger Suite 2020-3.
132132  0  0  1  0            999 V2000
   21.2090   36.3110   26.7750 N   0  0  0  0  0  0
   19.8630   35.7950   27.2080 C   0  0  2  0  0  0
   19.8220   34.2760   27.3510 C   0  0  0  0  0  0
   20.2830   33.5570   26.4630 O   0  0  0  0  0  0
   18.7040   36.2140   26.2680 C   0  0  0  0  0  0
   18.0720   37.5400   26.6020 C   0  0  0  0  0  0
   16.7550   37.6640   27.0060 N   0  0  0  0  0  0
   18.5650   38.8030   26.5420 C   0  0  0  0  0  0
   16.4700   38.9410   27.1890 C   0  0  0  0  0  0
   17.5530   39.6520   26.9240 N   0  0  0  0  0  0
   19.2170   33.7800   28.4330 N   0  0  0  0  0  0
   19.2470   32.3470   28.6120 C   0  0  2  0  0  0
   18.0040   31.5920   28.0990 C   0  0  0  0  0  0
   16.9510   32.1840   27.8320 O   0  0  0  0  0  0
   19.5990   31.9310   30.0280 C   0  0  0  0  0  0
   19.1620   32.8690   31.0930 C   0  0  0  0  0  0
   19.9630   32.6430   32.3790 C   0  0  0  0  0  0
   19.0860   32.6600   33.5610 N   0  0  0  0  0  0
   18.1950   33.6310   33.8960 C   0  0  0  0  0  0
   17.9940   34.7210   33.1240 N   0  0  0  0  0  0
   17.4520   33.4960   35.0140 N   0  3  0  0  0  0
   18.1810   30.2820   27.9910 N   0  0  0  0  0  0
   17.1340   29.3840   27.5570 C   0  0  1  0  0  0
   17.7260   28.2070   26.7630 C   0  0  0  0  0  0
   16.6370   27.3700   26.1180 C   0  0  0  0  0  0
   17.2410   26.0880   25.5590 C   0  0  0  0  0  0
   16.1120   25.3560   24.7600 C   0  0  0  0  0  0
   16.5230   24.1180   24.0330 N   0  3  0  0  0  0
   16.2350   28.9690   28.6710 C   0  0  0  0  0  0
   15.0090   28.8200   28.4640 O   0  0  0  0  0  0
   17.2940   24.3760   22.8020 C   0  0  0  0  0  0
   15.3350   23.3620   23.5240 C   0  0  0  0  0  0
   17.3920   23.2950   24.9280 C   0  0  0  0  0  0
   16.8330   28.8000   29.8550 N   0  0  0  0  0  0
   16.1760   28.2860   31.0850 C   0  0  2  0  0  0
   16.4860   29.2350   32.2630 C   0  0  0  0  0  0
   17.5850   29.7910   32.3290 O   0  0  0  0  0  0
   16.6760   26.8450   31.4080 C   0  0  0  0  0  0
   16.0780   26.3120   32.7780 C   0  0  0  0  0  0
   16.3000   25.8880   30.2810 C   0  0  0  0  0  0
   15.5100   29.4670   33.1430 N   0  0  0  0  0  0
   15.6990   30.2960   34.3430 C   0  0  2  0  0  0
   16.7100   29.6340   35.2870 C   0  0  0  0  0  0
   16.6930   28.4040   35.4730 O   0  0  0  0  0  0
   14.3590   30.4830   35.0700 C   0  0  0  0  0  0
   13.2530   31.3060   34.3980 C   0  0  0  0  0  0
   11.9500   31.1040   35.1120 C   0  0  0  0  0  0
   13.6130   32.8120   34.3540 C   0  0  0  0  0  0
   17.5710   30.4350   35.8940 N   0  0  0  0  0  0
   18.6890   29.8790   36.6850 C   0  0  2  0  0  0
   18.4030   29.5120   38.1700 C   0  0  0  0  0  0
   17.2430   29.3950   38.6120 O   0  0  0  0  0  0
   19.8930   30.8240   36.5920 C   0  0  0  0  0  0
   19.5940   32.2540   37.0900 C   0  0  0  0  0  0
   20.8910   33.0610   37.1860 C   0  0  0  0  0  0
   21.2250   33.6410   35.8750 N   0  0  0  0  0  0
   22.4570   33.9210   35.4340 C   0  0  0  0  0  0
   23.5250   33.6550   36.1810 N   0  3  0  0  0  0
   22.6170   34.4610   34.2220 N   0  0  0  0  0  0
   19.3190   29.3160   38.9930 O   0  5  0  0  0  0
   21.4531   35.9091   25.7806 H   0  0  0  0  0  0
   21.1834   37.4098   26.7303 H   0  0  0  0  0  0
   19.7457   36.2641   28.1960 H   0  0  0  0  0  0
   18.3344   35.6283   25.4134 H   0  0  0  0  0  0
   19.5484   39.2097   26.2634 H   0  0  0  0  0  0
   15.5062   39.3405   27.5047 H   0  0  0  0  0  0
   18.7093   34.4162   29.1730 H   0  0  0  0  0  0
   20.0909   32.1069   27.9486 H   0  0  0  0  0  0
   19.1286   30.9625   30.2533 H   0  0  0  0  0  0
   20.6911   31.8390   30.1224 H   0  0  0  0  0  0
   19.3172   33.9045   30.7559 H   0  0  0  0  0  0
   18.0949   32.7092   31.3072 H   0  0  0  0  0  0
   20.4675   31.6667   32.3299 H   0  0  0  0  0  0
   20.7144   33.4390   32.4876 H   0  0  0  0  0  0
   19.1142   31.8270   34.2788 H   0  0  0  0  0  0
   18.5834   34.8609   32.2058 H   0  0  0  0  0  0
   17.2409   35.4687   33.4135 H   0  0  0  0  0  0
   17.5911   32.6199   35.6644 H   0  0  0  0  0  0
   19.1743   29.8854   28.2478 H   0  0  0  0  0  0
   16.4900   29.9879   26.9008 H   0  0  0  0  0  0
   18.3843   28.5933   25.9709 H   0  0  0  0  0  0
   18.3061   27.5628   27.4401 H   0  0  0  0  0  0
   15.8750   27.1173   26.8700 H   0  0  0  0  0  0
   16.1711   27.9408   25.3013 H   0  0  0  0  0  0
   18.0839   26.3377   24.8978 H   0  0  0  0  0  0
   17.5989   25.4595   26.3878 H   0  0  0  0  0  0
   15.3112   25.0533   25.4507 H   0  0  0  0  0  0
   15.7019   26.0357   23.9986 H   0  0  0  0  0  0
   16.6895   24.9819   22.1110 H   0  0  0  0  0  0
   17.5505   23.4197   22.3228 H   0  0  0  0  0  0
   18.2169   24.9188   23.0544 H   0  0  0  0  0  0
   14.7354   24.0159   22.8737 H   0  0  0  0  0  0
   14.7216   23.0276   24.3737 H   0  0  0  0  0  0
   15.6753   22.4871   22.9507 H   0  0  0  0  0  0
   18.2445   23.9006   25.2693 H   0  0  0  0  0  0
   17.7624   22.4191   24.3752 H   0  0  0  0  0  0
   16.8087   22.9596   25.7982 H   0  0  0  0  0  0
   17.8975   29.0764   29.8746 H   0  0  0  0  0  0
   15.0944   28.2698   30.8852 H   0  0  0  0  0  0
   17.7738   26.8815   31.4676 H   0  0  0  0  0  0
   16.3496   27.0026   33.5900 H   0  0  0  0  0  0
   16.4874   25.3140   32.9932 H   0  0  0  0  0  0
   14.9825   26.2500   32.7004 H   0  0  0  0  0  0
   16.7149   26.2582   29.3319 H   0  0  0  0  0  0
   15.2045   25.8259   30.2029 H   0  0  0  0  0  0
   16.7095   24.8899   30.4956 H   0  0  0  0  0  0
   14.5312   29.0077   32.9404 H   0  0  0  0  0  0
   16.0840   31.2651   33.9929 H   0  0  0  0  0  0
   13.8989   29.5001   35.2494 H   0  0  0  0  0  0
   14.5310   30.9884   36.0318 H   0  0  0  0  0  0
   13.1280   30.9373   33.3692 H   0  0  0  0  0  0
   11.7073   30.0314   35.1356 H   0  0  0  0  0  0
   11.1539   31.6485   34.5832 H   0  0  0  0  0  0
   12.0330   31.4839   36.1410 H   0  0  0  0  0  0
   14.5699   32.9450   33.8280 H   0  0  0  0  0  0
   13.7019   33.1979   35.3803 H   0  0  0  0  0  0
   12.8228   33.3625   33.8225 H   0  0  0  0  0  0
   17.4484   31.5245   35.8054 H   0  0  0  0  0  0
   18.8584   28.9187   36.1760 H   0  0  0  0  0  0
   20.7176   30.4285   37.2032 H   0  0  0  0  0  0
   20.2180   30.9018   35.5440 H   0  0  0  0  0  0
   18.9109   32.7520   36.3862 H   0  0  0  0  0  0
   19.1252   32.2056   38.0839 H   0  0  0  0  0  0
   20.7646   33.8725   37.9178 H   0  0  0  0  0  0
   21.7103   32.4014   37.5079 H   0  0  0  0  0  0
   20.4244   33.8826   35.1604 H   0  0  0  0  0  0
   23.4009   33.2106   37.1795 H   0  0  0  0  0  0
   21.7384   34.6837   33.5987 H   0  0  0  0  0  0
   23.6273   34.6828   33.8477 H   0  0  0  0  0  0
   16.7071   34.2621   35.2751 H   0  0  0  0  0  0
   24.5323   33.8795   35.8002 H   0  0  0  0  0  0
   16.1294   36.7671   27.1248 H   0  0  0  0  0  0
  1  2  1  0  0  0
  1 61  1  0  0  0
  1 62  1  0  0  0
  2  3  1  0  0  0
  2  5  1  0  0  0
  2 63  1  0  0  0
  3  4  2  0  0  0
  3 11  1  0  0  0
  5  6  2  0  0  0
  5 64  1  0  0  0
  6  7  1  0  0  0
  6  8  1  0  0  0
  7  9  1  0  0  0
  7132  1  0  0  0
  8 10  2  0  0  0
  8 65  1  0  0  0
  9 10  1  0  0  0
  9 66  1  0  0  0
 11 12  1  0  0  0
 11 67  1  0  0  0
 12 13  1  0  0  0
 12 15  1  0  0  0
 12 68  1  0  0  0
 13 14  2  0  0  0
 13 22  1  0  0  0
 15 16  1  0  0  0
 15 69  1  0  0  0
 15 70  1  0  0  0
 16 17  1  0  0  0
 16 71  1  0  0  0
 16 72  1  0  0  0
 17 18  1  0  0  0
 17 73  1  0  0  0
 17 74  1  0  0  0
 18 19  1  0  0  0
 18 75  1  0  0  0
 19 20  1  0  0  0
 19 21  2  0  0  0
 20 76  1  0  0  0
 20 77  1  0  0  0
 21 78  1  0  0  0
 21130  1  0  0  0
 22 23  1  0  0  0
 22 79  1  0  0  0
 23 24  1  0  0  0
 23 29  1  0  0  0
 23 80  1  0  0  0
 24 25  1  0  0  0
 24 81  1  0  0  0
 24 82  1  0  0  0
 25 26  1  0  0  0
 25 83  1  0  0  0
 25 84  1  0  0  0
 26 27  1  0  0  0
 26 85  1  0  0  0
 26 86  1  0  0  0
 27 28  1  0  0  0
 27 87  1  0  0  0
 27 88  1  0  0  0
 28 31  1  0  0  0
 28 32  1  0  0  0
 28 33  1  0  0  0
 29 30  2  0  0  0
 29 34  1  0  0  0
 31 89  1  0  0  0
 31 90  1  0  0  0
 31 91  1  0  0  0
 32 92  1  0  0  0
 32 93  1  0  0  0
 32 94  1  0  0  0
 33 95  1  0  0  0
 33 96  1  0  0  0
 33 97  1  0  0  0
 34 35  1  0  0  0
 34 98  1  0  0  0
 35 36  1  0  0  0
 35 38  1  0  0  0
 35 99  1  0  0  0
 36 37  2  0  0  0
 36 41  1  0  0  0
 38 39  1  0  0  0
 38 40  1  0  0  0
 38100  1  0  0  0
 39101  1  0  0  0
 39102  1  0  0  0
 39103  1  0  0  0
 40104  1  0  0  0
 40105  1  0  0  0
 40106  1  0  0  0
 41 42  1  0  0  0
 41107  1  0  0  0
 42 43  1  0  0  0
 42 45  1  0  0  0
 42108  1  0  0  0
 43 44  2  0  0  0
 43 49  1  0  0  0
 45 46  1  0  0  0
 45109  1  0  0  0
 45110  1  0  0  0
 46 47  1  0  0  0
 46 48  1  0  0  0
 46111  1  0  0  0
 47112  1  0  0  0
 47113  1  0  0  0
 47114  1  0  0  0
 48115  1  0  0  0
 48116  1  0  0  0
 48117  1  0  0  0
 49 50  1  0  0  0
 49118  1  0  0  0
 50 51  1  0  0  0
 50 53  1  0  0  0
 50119  1  0  0  0
 51 52  2  0  0  0
 51 60  1  0  0  0
 53 54  1  0  0  0
 53120  1  0  0  0
 53121  1  0  0  0
 54 55  1  0  0  0
 54122  1  0  0  0
 54123  1  0  0  0
 55 56  1  0  0  0
 55124  1  0  0  0
 55125  1  0  0  0
 56 57  1  0  0  0
 56126  1  0  0  0
 57 58  2  0  0  0
 57 59  1  0  0  0
 58127  1  0  0  0
 58131  1  0  0  0
 59128  1  0  0  0
 59129  1  0  0  0
M  CHG  4  21   1  28   1  58   1  60  -1
M  END
> <s_m_source_file>
../3jpx_ligand.sdf

> <i_m_source_file_index>
1

> <s_epik_input>
W0NIXTE9TltDSDJdTj1DMVtDSDJdW0NASF0oW05IMytdKUMoPU8pW05IXVtDQEBIXShbQ0gyXVtDSDJdW0NIMl1bTkhdL0MoW05IMl0pPU5cW0hdKUMoPU8pW05IXVtDQEBIXShbQ0gyXVtDSDJdW0NIMl1bQ0gyXVtOK10oW0NIM10pKFtDSDNdKVtDSDNdKUMoPU8pW05IXVtDQEBIXShbQ0hdKFtDSDNdKVtDSDNdKUMoPU8pW05IXVtDQEBIXShbQ0gyXVtDSF0oW0NIM10pW0NIM10pQyg9TylbTkhdW0NASF0oQyg9TylbT0hdKVtDSDJdW0NIMl1bQ0gyXVtOSF0vQyg9TlxbSF0pW05IMl0=

> <s_epik_cmdline>
J2VwaWtfYXBwJywgJy1pbWFlJywgJ2xpZ2FuZF9wcm8ubWFlJywgJy1vbWFlJywgJ2xpZ2FuZF9wcmVwLm1hZScsICctbXMnLCAnMScsICctcGgnLCAnNycsICctcGh0JywgJzAuNScsICctbnQn

> <r_epik_Ionization_Penalty>
  0.1011

> <r_epik_Ionization_Penalty_Charging>
  0.0002

> <r_epik_Ionization_Penalty_Neutral>
  0.1009

> <r_epik_State_Penalty>
  0.0909

> <r_epik_Charging_Adjusted_Penalty>
0.0910964448749436

> <i_epik_Tot_Q>
2

> <i_epik_Tot_abs_Q>
4

> <s_epik_Chemistry_Notes>
This compound has an imine and may undergo hydrolysis.

$$$$
