3jq7_ligand
                    3D
 Schrodinger Suite 2020-3.
 33 35  0  0  1  0            999 V2000
    8.3350   -9.5310   14.8690 C   0  0  0  0  0  0
    7.8150  -13.0070   13.9630 C   0  0  0  0  0  0
    9.1360  -13.3600   13.6130 C   0  0  0  0  0  0
   10.8630  -10.2350   14.1350 N   0  3  0  0  0  0
   11.5690   -8.0470   14.6000 N   0  0  0  0  0  0
    9.3380   -8.6160   14.9330 N   0  0  0  0  0  0
    5.4890  -13.2700   14.4470 C   0  0  0  0  0  0
    4.2740  -14.0060   14.5020 C   0  0  0  0  0  0
    4.0900  -15.3630   14.1610 C   0  0  0  0  0  0
    5.2090  -16.0570   13.7810 C   0  0  0  0  0  0
    6.2580  -15.0960   13.5190 C   0  0  0  0  0  0
    6.7160  -13.8570   14.1690 C   0  0  1  0  0  0
    7.6020  -11.7350   14.4010 N   0  0  0  0  0  0
    8.6000  -10.8220   14.4420 C   0  0  0  0  0  0
    7.0750   -9.2460   15.2520 N   0  0  0  0  0  0
   10.5910   -8.9690   14.5560 C   0  0  0  0  0  0
    9.8900  -11.1620   14.0590 C   0  0  0  0  0  0
   10.1380  -12.4180   13.6300 N   0  0  0  0  0  0
    9.4630  -14.5990   13.1720 N   0  0  0  0  0  0
   12.5920   -8.3155   14.2978 H   0  0  0  0  0  0
   11.3460   -7.0243   14.9382 H   0  0  0  0  0  0
    5.4836  -12.1852   14.6292 H   0  0  0  0  0  0
    3.3487  -13.5156   14.8386 H   0  0  0  0  0  0
    3.1128  -15.8674   14.1883 H   0  0  0  0  0  0
    5.1824  -17.1552   13.7249 H   0  0  0  0  0  0
    7.2343  -15.6020   13.5476 H   0  0  0  0  0  0
    6.1058  -14.6487   12.5256 H   0  0  0  0  0  0
    7.4774  -14.1143   14.9200 H   0  0  0  0  0  0
    6.8211   -8.2332   15.5980 H   0  0  0  0  0  0
    6.3002  -10.0261   15.2186 H   0  0  0  0  0  0
    8.6994  -15.3900   13.1379 H   0  0  0  0  0  0
   10.4921  -14.8137   12.8481 H   0  0  0  0  0  0
   11.8891  -10.5118   13.8514 H   0  0  0  0  0  0
  1  6  2  0  0  0
  1 14  1  0  0  0
  1 15  1  0  0  0
  2  3  2  0  0  0
  2 12  1  0  0  0
  2 13  1  0  0  0
  3 18  1  0  0  0
  3 19  1  0  0  0
  4 16  2  0  0  0
  4 17  1  0  0  0
  4 33  1  0  0  0
  5 16  1  0  0  0
  5 20  1  0  0  0
  5 21  1  0  0  0
  6 16  1  0  0  0
  7  8  2  0  0  0
  7 12  1  0  0  0
  7 22  1  0  0  0
  8  9  1  0  0  0
  8 23  1  0  0  0
  9 10  2  0  0  0
  9 24  1  0  0  0
 10 11  1  0  0  0
 10 25  1  0  0  0
 11 12  1  0  0  0
 11 26  1  0  0  0
 11 27  1  0  0  0
 12 28  1  0  0  0
 13 14  2  0  0  0
 14 17  1  0  0  0
 15 29  1  0  0  0
 15 30  1  0  0  0
 17 18  2  0  0  0
 19 31  1  0  0  0
 19 32  1  0  0  0
M  CHG  1   4   1
M  END
> <s_m_source_file>
../3jq7_ligand.sdf

> <i_m_source_file_index>
1

> <s_epik_input>
W05IMl1jMW5jKFtOSDJdKW5jKGMxMiluYyhbTkgyXSljKG4yKVtDQEhdM1tDSF09W0NIXVtDSF09W0NIXVtDSDJdMw==

> <s_epik_cmdline>
J2VwaWtfYXBwJywgJy1pbWFlJywgJ2xpZ2FuZF9wcm8ubWFlJywgJy1vbWFlJywgJ2xpZ2FuZF9wcmVwLm1hZScsICctbXMnLCAnMScsICctcGgnLCAnNycsICctcGh0JywgJzAuNScsICctbnQn

> <r_epik_Ionization_Penalty>
  0.3394

> <r_epik_Ionization_Penalty_Charging>
  0.3385

> <r_epik_Ionization_Penalty_Neutral>
  0.0008

> <r_epik_State_Penalty>
  0.3340

> <r_epik_Charging_Adjusted_Penalty>
0.672571496467613

> <i_epik_Tot_Q>
1

> <i_epik_Tot_abs_Q>
1

$$$$
