3jq8_ligand
                    3D
 Schrodinger Suite 2020-3.
 29 30  0  0  1  0            999 V2000
    3.6170  -11.3040   43.0230 C   0  0  0  0  0  0
    2.7760  -10.8990   44.0560 C   0  0  0  0  0  0
    2.7470   -9.5490   44.3960 C   0  0  0  0  0  0
    3.5270   -8.6800   43.7310 N   0  0  0  0  0  0
    4.3730  -10.3960   42.3900 N   0  0  0  0  0  0
    3.6910  -12.6470   42.6470 N   0  0  0  0  0  0
    2.7470  -13.6530   43.1900 C   0  0  0  0  0  0
    3.5470  -14.8860   43.6300 C   0  0  0  0  0  0
    1.8010  -13.9980   42.0440 C   0  0  0  0  0  0
    1.9390  -13.0860   44.3830 C   0  0  0  0  0  0
    1.0250  -13.9870   45.2280 C   0  0  0  0  0  0
    2.0100  -11.7860   44.7150 N   0  0  0  0  0  0
    4.3270   -9.1000   42.7340 C   0  0  0  0  0  0
    5.0910   -8.2320   42.0820 N   0  0  0  0  0  0
    1.9570   -9.1200   45.3760 N   0  0  0  0  0  0
    4.4697  -12.9527   41.9328 H   0  0  0  0  0  0
    4.1158  -15.2785   42.7742 H   0  0  0  0  0  0
    2.8563  -15.6594   43.9970 H   0  0  0  0  0  0
    4.2425  -14.6040   44.4342 H   0  0  0  0  0  0
    2.3796  -14.4002   41.1994 H   0  0  0  0  0  0
    1.2669  -13.0912   41.7239 H   0  0  0  0  0  0
    1.0744  -14.7513   42.3825 H   0  0  0  0  0  0
    0.9369  -15.0576   44.9913 H   0  0  0  0  0  0
    0.4588  -13.5614   46.0695 H   0  0  0  0  0  0
    5.0653   -7.1658   42.3515 H   0  0  0  0  0  0
    5.7497   -8.5789   41.2722 H   0  0  0  0  0  0
    1.3189   -9.8322   45.9197 H   0  0  0  0  0  0
    1.9417   -8.0530   45.6429 H   0  0  0  0  0  0
    1.4019  -11.4585   45.5711 H   0  0  0  0  0  0
  1  2  2  0  0  0
  1  5  1  0  0  0
  1  6  1  0  0  0
  2  3  1  0  0  0
  2 12  1  0  0  0
  3  4  2  0  0  0
  3 15  1  0  0  0
  4 13  1  0  0  0
  5 13  2  0  0  0
  6  7  1  0  0  0
  6 16  1  0  0  0
  7  8  1  0  0  0
  7  9  1  0  0  0
  7 10  1  0  0  0
  8 17  1  0  0  0
  8 18  1  0  0  0
  8 19  1  0  0  0
  9 20  1  0  0  0
  9 21  1  0  0  0
  9 22  1  0  0  0
 10 11  2  0  0  0
 10 12  1  0  0  0
 11 23  1  0  0  0
 11 24  1  0  0  0
 12 29  1  0  0  0
 13 14  1  0  0  0
 14 25  1  0  0  0
 14 26  1  0  0  0
 15 27  1  0  0  0
 15 28  1  0  0  0
M  END
> <s_m_source_file>
../3jq8_ligand.sdf

> <i_m_source_file_index>
1

> <s_epik_input>
W05IXTFDKFtDSDNdKShbQ0gzXSlDKFtDSDNdKT1OYyhjMTIpYyhbTkgyXSluYyhuMilbTkgyXQ==

> <s_epik_cmdline>
J2VwaWtfYXBwJywgJy1pbWFlJywgJ2xpZ2FuZF9wcm8ubWFlJywgJy1vbWFlJywgJ2xpZ2FuZF9wcmVwLm1hZScsICctbXMnLCAnMScsICctcGgnLCAnNycsICctcGh0JywgJzAuNScsICctbnQn

> <r_epik_Ionization_Penalty>
  0.0713

> <r_epik_Ionization_Penalty_Charging>
  0.0628

> <r_epik_Ionization_Penalty_Neutral>
  0.0085

> <r_epik_State_Penalty>
  0.0591

> <r_epik_Charging_Adjusted_Penalty>
0.121940012378352

> <i_epik_Tot_Q>
0

> <i_epik_Tot_abs_Q>
0

> <s_epik_Chemistry_Notes>
This compound has an imine and may undergo hydrolysis.

$$$$
