3jq9_ligand
                    3D
 Schrodinger Suite 2020-3.
 30 33  0  0  1  0            999 V2000
    0.0260  -10.0450   48.4770 C   0  0  0  0  0  0
   -0.8300  -10.3590   49.5370 C   0  0  0  0  0  0
   -1.0040   -9.7890   50.7620 O   0  0  0  0  0  0
   -1.5840  -10.8460   51.5460 C   0  0  0  0  0  0
   -2.4200  -11.5250   50.5990 O   0  0  0  0  0  0
   -1.7120  -11.4400   49.4410 C   0  0  0  0  0  0
   -1.7450  -12.2110   48.2850 C   0  0  0  0  0  0
   -0.8930  -11.8900   47.2330 C   0  0  0  0  0  0
    0.0000  -10.8130   47.3100 C   0  0  0  0  0  0
    0.8620  -10.5150   46.2420 C   0  0  0  0  0  0
    1.4530   -9.3570   45.9270 N   0  3  0  0  0  0
    2.2120   -9.5030   44.8300 C   0  0  3  0  0  0
    2.9830   -8.6340   44.1410 N   0  0  0  0  0  0
    3.6680   -9.0170   43.0440 C   0  0  0  0  0  0
    4.4220   -8.1470   42.3810 N   0  0  0  0  0  0
    3.6030  -10.3390   42.5860 N   0  0  0  0  0  0
    2.8150  -11.2560   43.2760 C   0  0  0  0  0  0
    2.7470  -12.4210   42.8830 O   0  0  0  0  0  0
    2.1200  -10.8300   44.4050 C   0  0  0  0  0  0
    1.2690  -11.4530   45.3010 C   0  0  0  0  0  0
    0.8840  -12.8320   45.2610 C   0  0  0  0  0  0
    0.5660  -13.9250   45.2420 N   0  0  0  0  0  0
    0.7125   -9.2025   48.5609 H   0  0  0  0  0  0
   -0.7847  -11.4890   51.9430 H   0  0  0  0  0  0
   -2.1546  -10.4127   52.3807 H   0  0  0  0  0  0
   -2.4291  -13.0557   48.2037 H   0  0  0  0  0  0
   -0.9209  -12.4922   46.3249 H   0  0  0  0  0  0
    4.4878   -7.1036   42.7229 H   0  0  0  0  0  0
    4.9805   -8.4701   41.4901 H   0  0  0  0  0  0
    1.2775   -8.4640   46.5449 H   0  0  0  0  0  0
  1  2  2  0  0  0
  1  9  1  0  0  0
  1 23  1  0  0  0
  2  3  1  0  0  0
  2  6  1  0  0  0
  3  4  1  0  0  0
  4  5  1  0  0  0
  4 24  1  0  0  0
  4 25  1  0  0  0
  5  6  1  0  0  0
  6  7  2  0  0  0
  7  8  1  0  0  0
  7 26  1  0  0  0
  8  9  2  0  0  0
  8 27  1  0  0  0
  9 10  1  0  0  0
 10 11  2  0  0  0
 10 20  1  0  0  0
 11 12  1  0  0  0
 11 30  1  0  0  0
 12 13  1  0  0  0
 12 19  1  0  0  0
 13 14  2  0  0  0
 14 15  1  0  0  0
 14 16  1  0  0  0
 15 28  1  0  0  0
 15 29  1  0  0  0
 16 17  1  0  0  0
 17 18  2  0  0  0
 17 19  1  0  0  0
 19 20  2  0  0  0
 20 21  1  0  0  0
 21 22  3  0  0  0
M  CHG  1  11   1
M  END
> <s_m_source_file>
../3jq9_ligand.sdf

> <i_m_source_file_index>
1

> <s_epik_input>
TzFbQ0gyXU9jKGMxMilbY0hdW2NIXWMoW2NIXTIpQyg9TjMpQyhDI04pPUMoW0NIXTM0KUMoPU8pW05IXUMoXFtOSF00KT1OL1tIXQ==

> <s_epik_cmdline>
J2VwaWtfYXBwJywgJy1pbWFlJywgJ2xpZ2FuZF9wcm8ubWFlJywgJy1vbWFlJywgJ2xpZ2FuZF9wcmVwLm1hZScsICctbXMnLCAnMScsICctcGgnLCAnNycsICctcGh0JywgJzAuNScsICctbnQn

> <r_lp_tautomer_probability>
1

> <r_epik_Ionization_Penalty>
  0.0021

> <r_epik_Ionization_Penalty_Charging>
  0.0021

> <r_epik_Ionization_Penalty_Neutral>
  0.0000

> <r_epik_State_Penalty>
 -0.0000

> <r_epik_Charging_Adjusted_Penalty>
0.00209122599859228

> <i_epik_Tot_Q>
1

> <i_epik_Tot_abs_Q>
1

> <s_epik_Chemistry_Notes>
This compound has an imine and may undergo hydrolysis. This compound contains an acetal/aminal-like group ( X-CH(R)-Y where X, Y are N, S, or O) that may be acid/base labile, releasing an aldehyde.

$$$$
