3jqb_ligand
                    3D
 Schrodinger Suite 2020-3.
 33 35  0  0  1  0            999 V2000
   14.7990  -16.7840   20.7260 C   0  0  0  0  0  0
   15.0790  -17.8100   19.8260 C   0  0  0  0  0  0
   15.2120  -19.1170   20.2880 C   0  0  0  0  0  0
   15.0710  -19.3930   21.6480 C   0  0  0  0  0  0
   14.7900  -18.3680   22.5460 C   0  0  0  0  0  0
   14.6550  -17.0620   22.0850 C   0  0  0  0  0  0
   14.3410  -15.9370   23.0700 C   0  0  0  0  0  0
   12.8240  -15.7230   23.1480 C   0  0  0  0  0  0
   12.4060  -14.3220   22.6750 C   0  0  0  0  0  0
   13.1920  -13.4080   22.1000 C   0  0  0  0  0  0
   12.4840  -12.3110   21.8310 N   0  3  0  0  0  0
   11.2240  -12.4880   22.2230 C   0  0  0  0  0  0
   10.1410  -11.6900   22.1620 N   0  0  0  0  0  0
   11.1350  -13.7650   22.7680 C   0  0  0  0  0  0
    9.9120  -14.2200   23.2600 C   0  0  0  0  0  0
    9.7970  -15.3420   23.7500 O   0  0  0  0  0  0
    8.8020  -13.3710   23.1890 N   0  3  0  0  0  0
    8.9480  -12.0940   22.6320 C   0  0  0  0  0  0
    7.8980  -11.2850   22.5580 N   0  0  0  0  0  0
   14.6921  -15.7605   20.3667 H   0  0  0  0  0  0
   15.1935  -17.5906   18.7645 H   0  0  0  0  0  0
   15.4262  -19.9239   19.5872 H   0  0  0  0  0  0
   15.1814  -20.4157   22.0087 H   0  0  0  0  0  0
   14.6759  -18.5874   23.6076 H   0  0  0  0  0  0
   14.7222  -16.2051   24.0664 H   0  0  0  0  0  0
   14.8224  -15.0078   22.7310 H   0  0  0  0  0  0
   12.3162  -16.4624   22.5113 H   0  0  0  0  0  0
   12.4896  -15.8443   24.1889 H   0  0  0  0  0  0
   14.2541  -13.6307   21.9204 H   0  0  0  0  0  0
    8.0068  -10.2811   22.1216 H   0  0  0  0  0  0
    6.9192  -11.6185   22.9331 H   0  0  0  0  0  0
   12.9691  -11.4464   21.3544 H   0  0  0  0  0  0
    7.8263  -13.7085   23.5686 H   0  0  0  0  0  0
  1  2  2  0  0  0
  1  6  1  0  0  0
  1 20  1  0  0  0
  2  3  1  0  0  0
  2 21  1  0  0  0
  3  4  2  0  0  0
  3 22  1  0  0  0
  4  5  1  0  0  0
  4 23  1  0  0  0
  5  6  2  0  0  0
  5 24  1  0  0  0
  6  7  1  0  0  0
  7  8  1  0  0  0
  7 25  1  0  0  0
  7 26  1  0  0  0
  8  9  1  0  0  0
  8 27  1  0  0  0
  8 28  1  0  0  0
  9 10  2  0  0  0
  9 14  1  0  0  0
 10 11  1  0  0  0
 10 29  1  0  0  0
 11 12  1  0  0  0
 11 32  1  0  0  0
 12 13  1  0  0  0
 12 14  2  0  0  0
 13 18  2  0  0  0
 14 15  1  0  0  0
 15 16  2  0  0  0
 15 17  1  0  0  0
 17 18  1  0  0  0
 17 33  1  0  0  0
 18 19  1  0  0  0
 19 30  1  0  0  0
 19 31  1  0  0  0
M  CHG  2  11   1  17   1
M  END
> <s_m_source_file>
../3jqb_ligand.sdf

> <i_m_source_file_index>
1

> <s_epik_input>
W2NIXTFbY0hdW2NIXVtjSF1bY0hdYzFbQ0gyXVtDSDJdYyhbY0hdW25IXTIpYyhjMjMpYyg9TylbbkhdYyhcW25IXTMpPU4vW0hd

> <s_epik_cmdline>
J2VwaWtfYXBwJywgJy1pbWFlJywgJ2xpZ2FuZF9wcm8ubWFlJywgJy1vbWFlJywgJ2xpZ2FuZF9wcmVwLm1hZScsICctbXMnLCAnMScsICctcGgnLCAnNycsICctcGh0JywgJzAuNScsICctbnQn

> <r_epik_Ionization_Penalty>
  3.9895

> <r_epik_Ionization_Penalty_Charging>
  0.0043

> <r_epik_Ionization_Penalty_Neutral>
  3.9852

> <r_epik_State_Penalty>
  0.0212

> <r_epik_Charging_Adjusted_Penalty>
0.0255378492538727

> <i_epik_Tot_Q>
2

> <i_epik_Tot_abs_Q>
2

> <s_epik_Chemistry_Notes>
This compound has an imine and may undergo hydrolysis.

$$$$
