3jqg_ligand
                    3D
 Schrodinger Suite 2020-3.
 33 34  0  0  1  0            999 V2000
    9.8370  -11.2870   14.4320 C   0  0  0  0  0  0
    8.5150  -10.8630   14.7560 C   0  0  0  0  0  0
    8.3040   -9.5260   15.1660 C   0  0  0  0  0  0
    9.3660   -8.6970   15.2120 N   0  0  0  0  0  0
   10.8370  -10.4000   14.5120 N   0  3  0  0  0  0
    3.6200  -14.3990   16.7080 C   0  0  0  0  0  0
    4.6220  -15.4440   16.5670 O   0  0  0  0  0  0
    5.6410  -15.0030   15.7860 C   0  0  0  0  0  0
    5.3490  -14.5400   14.5030 C   0  0  0  0  0  0
    6.3590  -14.0630   13.6740 C   0  0  0  0  0  0
    6.9540  -15.0040   16.2550 C   0  0  0  0  0  0
    7.9670  -14.5180   15.4200 C   0  0  0  0  0  0
    7.6740  -14.0460   14.1260 C   0  0  0  0  0  0
    8.7380  -13.5180   13.1440 C   0  0  0  0  0  0
   10.3140  -12.9620   13.9050 S   0  0  0  0  0  0
   10.6100   -9.1220   14.9000 C   0  0  0  0  0  0
   11.6300   -8.2720   14.9750 N   0  0  0  0  0  0
    7.0810   -9.0380   15.5110 N   0  0  0  0  0  0
    7.6790  -11.5592   14.6887 H   0  0  0  0  0  0
    2.7976  -14.7627   17.3416 H   0  0  0  0  0  0
    3.2276  -14.1310   15.7159 H   0  0  0  0  0  0
    4.0771  -13.5131   17.1731 H   0  0  0  0  0  0
    4.3190  -14.5521   14.1465 H   0  0  0  0  0  0
    6.1204  -13.7036   12.6730 H   0  0  0  0  0  0
    7.1872  -15.3761   17.2526 H   0  0  0  0  0  0
    8.9970  -14.5047   15.7764 H   0  0  0  0  0  0
    9.0027  -14.3110   12.4291 H   0  0  0  0  0  0
    8.3357  -12.6518   12.5983 H   0  0  0  0  0  0
   11.4573   -7.2320   15.2889 H   0  0  0  0  0  0
   12.6464   -8.6089   14.7232 H   0  0  0  0  0  0
    6.1987   -9.6943   15.4817 H   0  0  0  0  0  0
    6.9750   -7.9874   15.8191 H   0  0  0  0  0  0
   11.8637  -10.7045   14.2605 H   0  0  0  0  0  0
  1  2  2  0  0  0
  1  5  1  0  0  0
  1 15  1  0  0  0
  2  3  1  0  0  0
  2 19  1  0  0  0
  3  4  2  0  0  0
  3 18  1  0  0  0
  4 16  1  0  0  0
  5 16  2  0  0  0
  5 33  1  0  0  0
  6  7  1  0  0  0
  6 20  1  0  0  0
  6 21  1  0  0  0
  6 22  1  0  0  0
  7  8  1  0  0  0
  8  9  2  0  0  0
  8 11  1  0  0  0
  9 10  1  0  0  0
  9 23  1  0  0  0
 10 13  2  0  0  0
 10 24  1  0  0  0
 11 12  2  0  0  0
 11 25  1  0  0  0
 12 13  1  0  0  0
 12 26  1  0  0  0
 13 14  1  0  0  0
 14 15  1  0  0  0
 14 27  1  0  0  0
 14 28  1  0  0  0
 16 17  1  0  0  0
 17 29  1  0  0  0
 17 30  1  0  0  0
 18 31  1  0  0  0
 18 32  1  0  0  0
M  CHG  1   5   1
M  END
> <s_m_source_file>
../3jqg_ligand.sdf

> <i_m_source_file_index>
1

> <s_epik_input>
bjFjKFtOSDJdKW5jKFtOSDJdKVtjSF1jMVNbQ0gyXWMoW2NIXVtjSF0yKVtjSF1bY0hdYzJPW0NIM10=

> <s_epik_cmdline>
J2VwaWtfYXBwJywgJy1pbWFlJywgJ2xpZ2FuZF9wcm8ubWFlJywgJy1vbWFlJywgJ2xpZ2FuZF9wcmVwLm1hZScsICctbXMnLCAnMScsICctcGgnLCAnNycsICctcGh0JywgJzAuNScsICctbnQn

> <r_lp_tautomer_probability>
0.575010577011949

> <r_epik_Ionization_Penalty>
  0.3032

> <r_epik_Ionization_Penalty_Charging>
  0.3032

> <r_epik_Ionization_Penalty_Neutral>
  0.0000

> <r_epik_State_Penalty>
  0.5158

> <r_epik_Charging_Adjusted_Penalty>
0.81897411404462

> <i_epik_Tot_Q>
1

> <i_epik_Tot_abs_Q>
1

$$$$
