3jrs_ligand
                    3D
 Schrodinger Suite 2020-3.
 40 40  0  0  1  0            999 V2000
   30.4800  -14.7790   22.5860 C   0  0  0  0  0  0
   31.7790  -15.4850   22.8930 C   0  0  0  0  0  0
   32.0330  -16.8110   22.2050 C   0  0  1  0  0  0
   31.8270  -16.9400   20.6880 C   0  0  0  0  0  0
   32.1870  -18.1010   20.0840 C   0  0  0  0  0  0
   33.2820  -17.4930   22.7410 C   0  0  0  0  0  0
   31.8590  -18.2470   18.5940 C   0  0  1  0  0  0
   30.8070  -17.3270   18.2230 O   0  0  0  0  0  0
   33.0880  -18.0450   17.7010 C   0  0  0  0  0  0
   33.6200  -19.1980   17.4220 C   0  0  0  0  0  0
   33.5290  -20.4250   17.6660 C   0  0  0  0  0  0
   34.3290  -21.4230   17.2910 O   0  0  0  0  0  0
   32.4290  -20.6450   18.4810 C   0  0  0  0  0  0
   29.9900  -14.0730   23.5170 O   0  5  0  0  0  0
   31.2650  -19.6720   18.3920 C   0  0  0  0  0  0
   30.0130  -14.7880   21.4170 O   0  0  0  0  0  0
   33.4430  -16.6590   17.2400 C   0  0  0  0  0  0
   30.6320  -19.9130   16.9990 C   0  0  0  0  0  0
   30.1500  -19.9800   19.4290 C   0  0  0  0  0  0
   32.6232  -14.8412   22.6050 H   0  0  0  0  0  0
   31.8333  -15.7009   23.9702 H   0  0  0  0  0  0
   31.1534  -17.3851   22.5316 H   0  0  0  0  0  0
   31.3993  -16.1199   20.0926 H   0  0  0  0  0  0
   32.6921  -18.8884   20.6627 H   0  0  0  0  0  0
   33.3416  -17.3459   23.8295 H   0  0  0  0  0  0
   34.1716  -17.0572   22.2628 H   0  0  0  0  0  0
   33.2362  -18.5693   22.5184 H   0  0  0  0  0  0
   30.9799  -16.2421   18.2792 H   0  0  0  0  0  0
   34.4721  -19.2573   16.7288 H   0  0  0  0  0  0
   35.1950  -21.2202   16.6438 H   0  0  0  0  0  0
   32.4159  -21.5048   19.1670 H   0  0  0  0  0  0
   32.7553  -15.9329   17.6981 H   0  0  0  0  0  0
   33.3581  -16.6039   16.1447 H   0  0  0  0  0  0
   34.4754  -16.4260   17.5399 H   0  0  0  0  0  0
   31.3784  -19.7097   16.2170 H   0  0  0  0  0  0
   29.7704  -19.2421   16.8668 H   0  0  0  0  0  0
   30.2977  -20.9583   16.9241 H   0  0  0  0  0  0
   30.5417  -19.8257   20.4453 H   0  0  0  0  0  0
   29.8231  -21.0243   19.3166 H   0  0  0  0  0  0
   29.2958  -19.3081   19.2593 H   0  0  0  0  0  0
  1  2  1  0  0  0
  1 14  1  0  0  0
  1 16  2  0  0  0
  2  3  1  0  0  0
  2 20  1  0  0  0
  2 21  1  0  0  0
  3  4  1  0  0  0
  3  6  1  0  0  0
  3 22  1  0  0  0
  4  5  2  0  0  0
  4 23  1  0  0  0
  5  7  1  0  0  0
  5 24  1  0  0  0
  6 25  1  0  0  0
  6 26  1  0  0  0
  6 27  1  0  0  0
  7  8  1  0  0  0
  7  9  1  0  0  0
  7 15  1  0  0  0
  8 28  1  0  0  0
  9 10  2  0  0  0
  9 17  1  0  0  0
 10 11  1  0  0  0
 10 29  1  0  0  0
 11 12  1  0  0  0
 11 13  2  0  0  0
 12 30  1  0  0  0
 13 15  1  0  0  0
 13 31  1  0  0  0
 15 18  1  0  0  0
 15 19  1  0  0  0
 17 32  1  0  0  0
 17 33  1  0  0  0
 17 34  1  0  0  0
 18 35  1  0  0  0
 18 36  1  0  0  0
 18 37  1  0  0  0
 19 38  1  0  0  0
 19 39  1  0  0  0
 19 40  1  0  0  0
M  CHG  1  14  -1
M  END
> <s_m_source_file>
../3jrs_ligand.sdf

> <i_m_source_file_index>
1

> <s_epik_input>
W09IXUMoPU8pW0NIMl1bQ0BIXShbQ0gzXSkvW0NIXT1bQ0hdL1tDQEBdMShbT0hdKUMoW0NIM10pPVtDSF1DKFtPSF0pPVtDSF1DMShbQ0gzXSlbQ0gzXQ==

> <s_epik_cmdline>
J2VwaWtfYXBwJywgJy1pbWFlJywgJ2xpZ2FuZF9wcm8ubWFlJywgJy1vbWFlJywgJ2xpZ2FuZF9wcmVwLm1hZScsICctbXMnLCAnMScsICctcGgnLCAnNycsICctcGh0JywgJzAuNScsICctbnQn

> <r_lp_tautomer_probability>
1

> <r_epik_Ionization_Penalty>
  0.0025

> <r_epik_Ionization_Penalty_Charging>
  0.0025

> <r_epik_Ionization_Penalty_Neutral>
  0.0000

> <r_epik_State_Penalty>
 -0.0000

> <r_epik_Charging_Adjusted_Penalty>
0.00253702374984082

> <i_epik_Tot_Q>
-1

> <i_epik_Tot_abs_Q>
1

$$$$
