3jrx_ligand
                    3D
 Schrodinger Suite 2020-3.
 81 83  0  0  1  0            999 V2000
  -44.2290   25.2330  -16.0730 C   0  0  0  0  0  0
  -43.0360   25.4650  -17.0210 C   0  0  2  0  0  0
  -43.0030   24.3820  -18.1640 C   0  0  1  0  0  0
  -41.7590   24.5840  -19.1540 C   0  0  1  0  0  0
  -41.9300   23.7530  -20.5000 C   0  0  2  0  0  0
  -43.3720   23.8570  -21.0900 C   0  0  1  0  0  0
  -44.4530   23.5540  -19.9770 C   0  0  2  0  0  0
  -45.9070   23.7030  -20.5330 C   0  0  2  0  0  0
  -46.9490   23.3900  -19.3810 C   0  0  0  0  0  0
  -47.2590   22.0820  -18.9900 C   0  0  0  0  0  0
  -48.2920   21.7990  -17.8550 C   0  0  2  0  0  0
  -47.9140   20.5050  -17.0590 C   0  0  2  0  0  0
  -46.5260   20.6350  -16.3780 C   0  0  0  0  0  0
  -46.4040   21.7570  -15.3570 C   0  0  0  0  0  0
  -45.1070   21.6290  -14.6050 C   0  0  0  0  0  0
  -44.9050   22.6990  -13.5500 C   0  0  0  0  0  0
  -44.9800   24.1660  -14.0080 C   0  0  1  0  0  0
  -41.7310   25.4840  -16.2010 C   0  0  0  0  0  0
  -40.1980   26.3900  -19.4450 C   0  0  0  0  0  0
  -43.5590   25.2460  -21.7550 C   0  0  0  0  0  0
  -46.1710   22.7650  -21.7270 C   0  0  0  0  0  0
  -50.5980   22.3730  -17.7070 C   0  0  0  0  0  0
  -47.9660   18.1030  -17.2720 C   0  0  0  0  0  0
  -44.6950   24.9940  -12.7240 C   0  0  0  0  0  0
  -43.3360   25.0970  -12.2360 C   0  0  0  0  0  0
  -43.0540   25.8000  -11.0500 C   0  0  0  0  0  0
  -44.1070   26.4110  -10.3270 C   0  0  0  0  0  0
  -45.4540   26.3180  -10.7970 C   0  0  0  0  0  0
  -45.7440   25.6080  -12.0010 C   0  0  0  0  0  0
  -45.3970   25.6870  -16.1590 O   0  0  0  0  0  0
  -42.8940   23.0670  -17.5630 O   0  0  0  0  0  0
  -41.6040   25.9910  -19.4730 O   0  0  0  0  0  0
  -41.6270   22.3800  -20.2420 O   0  0  0  0  0  0
  -44.2830   24.4680  -18.8540 O   0  0  0  0  0  0
  -49.5960   21.6190  -18.4420 O   0  0  0  0  0  0
  -47.9080   19.3820  -17.9830 O   0  0  0  0  0  0
  -43.9250   24.4360  -15.0020 O   0  0  0  0  0  0
  -43.1463   26.4508  -17.4964 H   0  0  0  0  0  0
  -40.8209   24.3056  -18.6515 H   0  0  0  0  0  0
  -41.2050   24.0810  -21.2595 H   0  0  0  0  0  0
  -43.5050   23.1066  -21.8832 H   0  0  0  0  0  0
  -44.3026   22.5422  -19.5726 H   0  0  0  0  0  0
  -46.0156   24.7306  -20.9103 H   0  0  0  0  0  0
  -47.4347   24.2425  -18.8836 H   0  0  0  0  0  0
  -46.7711   21.2296  -19.4854 H   0  0  0  0  0  0
  -48.3698   22.6652  -17.1815 H   0  0  0  0  0  0
  -48.6671   20.2819  -16.2889 H   0  0  0  0  0  0
  -46.2900   19.7019  -15.8455 H   0  0  0  0  0  0
  -45.7586   20.8247  -17.1429 H   0  0  0  0  0  0
  -46.4284   22.7276  -15.8741 H   0  0  0  0  0  0
  -47.2417   21.6989  -14.6465 H   0  0  0  0  0  0
  -45.0740   20.6555  -14.0940 H   0  0  0  0  0  0
  -44.2657   21.7018  -15.3099 H   0  0  0  0  0  0
  -45.6752   22.5962  -12.7714 H   0  0  0  0  0  0
  -43.9088   22.5846  -13.0977 H   0  0  0  0  0  0
  -45.9276   24.4131  -14.5089 H   0  0  0  0  0  0
  -41.8013   26.2532  -15.4178 H   0  0  0  0  0  0
  -40.8842   25.7128  -16.8648 H   0  0  0  0  0  0
  -41.5763   24.4996  -15.7352 H   0  0  0  0  0  0
  -40.1153   27.4591  -19.6904 H   0  0  0  0  0  0
  -39.6346   25.7998  -20.1827 H   0  0  0  0  0  0
  -39.7861   26.2114  -18.4408 H   0  0  0  0  0  0
  -42.7796   25.3958  -22.5166 H   0  0  0  0  0  0
  -43.4800   26.0324  -20.9899 H   0  0  0  0  0  0
  -44.5500   25.2947  -22.2300 H   0  0  0  0  0  0
  -45.4491   22.9798  -22.5286 H   0  0  0  0  0  0
  -47.1929   22.9262  -22.1009 H   0  0  0  0  0  0
  -46.0595   21.7195  -21.4036 H   0  0  0  0  0  0
  -51.5839   22.2218  -18.1709 H   0  0  0  0  0  0
  -50.3420   23.4425  -17.7301 H   0  0  0  0  0  0
  -50.6264   22.0252  -16.6638 H   0  0  0  0  0  0
  -47.9598   17.2783  -17.9999 H   0  0  0  0  0  0
  -48.8882   18.0574  -16.6741 H   0  0  0  0  0  0
  -47.0936   18.0127  -16.6081 H   0  0  0  0  0  0
  -42.5248   24.6264  -12.7915 H   0  0  0  0  0  0
  -42.0282   25.8739  -10.6891 H   0  0  0  0  0  0
  -43.8896   26.9548   -9.4077 H   0  0  0  0  0  0
  -46.2604   26.7897  -10.2354 H   0  0  0  0  0  0
  -46.7703   25.5393  -12.3618 H   0  0  0  0  0  0
  -41.9942   22.7966  -16.9909 H   0  0  0  0  0  0
  -40.6493   22.1022  -19.8214 H   0  0  0  0  0  0
  1  2  1  0  0  0
  1 30  2  0  0  0
  1 37  1  0  0  0
  2  3  1  0  0  0
  2 18  1  0  0  0
  2 38  1  0  0  0
  3  4  1  0  0  0
  3 31  1  0  0  0
  3 34  1  0  0  0
  4  5  1  0  0  0
  4 32  1  0  0  0
  4 39  1  0  0  0
  5  6  1  0  0  0
  5 33  1  0  0  0
  5 40  1  0  0  0
  6  7  1  0  0  0
  6 20  1  0  0  0
  6 41  1  0  0  0
  7  8  1  0  0  0
  7 34  1  0  0  0
  7 42  1  0  0  0
  8  9  1  0  0  0
  8 21  1  0  0  0
  8 43  1  0  0  0
  9 10  2  0  0  0
  9 44  1  0  0  0
 10 11  1  0  0  0
 10 45  1  0  0  0
 11 12  1  0  0  0
 11 35  1  0  0  0
 11 46  1  0  0  0
 12 13  1  0  0  0
 12 36  1  0  0  0
 12 47  1  0  0  0
 13 14  1  0  0  0
 13 48  1  0  0  0
 13 49  1  0  0  0
 14 15  1  0  0  0
 14 50  1  0  0  0
 14 51  1  0  0  0
 15 16  1  0  0  0
 15 52  1  0  0  0
 15 53  1  0  0  0
 16 17  1  0  0  0
 16 54  1  0  0  0
 16 55  1  0  0  0
 17 24  1  0  0  0
 17 37  1  0  0  0
 17 56  1  0  0  0
 18 57  1  0  0  0
 18 58  1  0  0  0
 18 59  1  0  0  0
 19 32  1  0  0  0
 19 60  1  0  0  0
 19 61  1  0  0  0
 19 62  1  0  0  0
 20 63  1  0  0  0
 20 64  1  0  0  0
 20 65  1  0  0  0
 21 66  1  0  0  0
 21 67  1  0  0  0
 21 68  1  0  0  0
 22 35  1  0  0  0
 22 69  1  0  0  0
 22 70  1  0  0  0
 22 71  1  0  0  0
 23 36  1  0  0  0
 23 72  1  0  0  0
 23 73  1  0  0  0
 23 74  1  0  0  0
 24 25  2  0  0  0
 24 29  1  0  0  0
 25 26  1  0  0  0
 25 75  1  0  0  0
 26 27  2  0  0  0
 26 76  1  0  0  0
 27 28  1  0  0  0
 27 77  1  0  0  0
 28 29  2  0  0  0
 28 78  1  0  0  0
 29 79  1  0  0  0
 31 80  1  0  0  0
 33 81  1  0  0  0
M  END
> <s_m_source_file>
../3jrx_ligand.sdf

> <i_m_source_file_index>
1

> <s_epik_input>
W2NIXTFbY0hdW2NIXVtjSF1bY0hdYzFbQ0BASF0oT0MoPU8pW0NAQEhdKFtDSDNdKVtDQF0yM1tPSF0pW0NIMl1bQ0gyXVtDSDJdW0NIMl1bQ0BIXShPW0NIM10pW0NASF0oT1tDSDNdKVxbQ0hdPVtDSF1cW0NASF0oW0NIM10pW0NASF0oTzMpW0NAQEhdKFtDSDNdKVtDQEhdKFtPSF0pW0NASF0yT1tDSDNd

> <s_epik_cmdline>
J2VwaWtfYXBwJywgJy1pbWFlJywgJ2xpZ2FuZF9wcm8ubWFlJywgJy1vbWFlJywgJ2xpZ2FuZF9wcmVwLm1hZScsICctbXMnLCAnMScsICctcGgnLCAnNycsICctcGh0JywgJzAuNScsICctbnQn

> <r_lp_tautomer_probability>
1

> <r_epik_Ionization_Penalty>
  0.0000

> <r_epik_Ionization_Penalty_Charging>
  0.0000

> <r_epik_Ionization_Penalty_Neutral>
  0.0000

> <r_epik_State_Penalty>
 -0.0000

> <r_epik_Charging_Adjusted_Penalty>
0

> <i_epik_Tot_Q>
0

> <i_epik_Tot_abs_Q>
0

> <s_epik_Chemistry_Notes>
This compound has an ester and may undergo hydrolysis at high or low pH.

$$$$
