3jsw_ligand
                    3D
 Schrodinger Suite 2020-3.
 52 55  0  0  1  0            999 V2000
   79.6000   50.9590   40.5740 C   0  0  0  0  0  0
   78.0890   50.7740   40.6380 C   0  0  0  0  0  0
   77.5840   49.5020   39.9690 C   0  0  0  0  0  0
   77.6120   50.8250   42.0440 N   0  0  0  0  0  0
   78.3100   50.2130   43.0960 N   0  0  0  0  0  0
   77.5790   50.4910   44.2030 C   0  0  0  0  0  0
   76.4900   51.2790   43.8380 C   0  0  0  0  0  0
   75.4130   51.9930   44.5240 C   0  0  0  0  0  0
   75.2060   51.9600   45.7480 O   0  0  0  0  0  0
   74.5850   52.7160   43.7380 N   0  0  0  0  0  0
   74.6700   52.8720   42.3870 C   0  0  0  0  0  0
   75.6210   52.2840   41.7250 N   0  0  0  0  0  0
   76.5310   51.4960   42.4640 C   0  0  0  0  0  0
   73.6620   53.6650   41.6040 C   0  0  2  0  0  0
   72.8240   52.7630   40.6910 C   0  0  0  0  0  0
   73.1200   53.2510   39.3380 N   0  3  1  0  0  0
   71.9190   53.1420   38.5320 C   0  0  0  0  0  0
   71.6400   51.6490   38.3090 C   0  0  0  0  0  0
   70.3610   51.1150   38.6550 C   0  0  0  0  0  0
   70.0770   49.7310   38.4550 C   0  0  0  0  0  0
   71.0890   48.9120   37.8990 C   0  0  0  0  0  0
   72.3490   49.4630   37.5670 C   0  0  0  0  0  0
   72.6270   50.8300   37.7740 C   0  0  0  0  0  0
   73.4570   54.6310   39.4490 C   0  0  0  0  0  0
   74.3080   54.7110   40.6960 C   0  0  1  0  0  0
   74.5010   56.0910   41.3180 C   0  0  0  0  0  0
   79.9303   50.9178   39.5256 H   0  0  0  0  0  0
   80.0920   50.1580   41.1452 H   0  0  0  0  0  0
   79.8685   51.9348   41.0050 H   0  0  0  0  0  0
   77.6560   51.6220   40.0871 H   0  0  0  0  0  0
   77.9397   49.4689   38.9286 H   0  0  0  0  0  0
   76.4841   49.4933   39.9810 H   0  0  0  0  0  0
   77.9636   48.6254   40.5144 H   0  0  0  0  0  0
   77.8063   50.1530   45.2140 H   0  0  0  0  0  0
   73.0519   54.1502   42.3801 H   0  0  0  0  0  0
   73.1301   51.7155   40.8294 H   0  0  0  0  0  0
   71.7594   52.8707   40.9461 H   0  0  0  0  0  0
   73.9451   52.6941   38.8700 H   0  0  0  0  0  0
   71.0779   53.6132   39.0617 H   0  0  0  0  0  0
   72.0764   53.6496   37.5689 H   0  0  0  0  0  0
   69.5968   51.7692   39.0746 H   0  0  0  0  0  0
   69.1059   49.3151   38.7234 H   0  0  0  0  0  0
   70.8967   47.8531   37.7261 H   0  0  0  0  0  0
   73.1194   48.8188   37.1432 H   0  0  0  0  0  0
   73.6042   51.2392   37.5175 H   0  0  0  0  0  0
   74.0108   54.9465   38.5524 H   0  0  0  0  0  0
   72.5369   55.2270   39.5402 H   0  0  0  0  0  0
   75.3640   54.5053   40.4668 H   0  0  0  0  0  0
   75.1360   56.0046   42.2121 H   0  0  0  0  0  0
   73.5224   56.5053   41.6019 H   0  0  0  0  0  0
   74.9838   56.7578   40.5884 H   0  0  0  0  0  0
   73.7363   53.2559   44.1831 H   0  0  0  0  0  0
  1  2  1  0  0  0
  1 27  1  0  0  0
  1 28  1  0  0  0
  1 29  1  0  0  0
  2  3  1  0  0  0
  2  4  1  0  0  0
  2 30  1  0  0  0
  3 31  1  0  0  0
  3 32  1  0  0  0
  3 33  1  0  0  0
  4  5  1  0  0  0
  4 13  1  0  0  0
  5  6  2  0  0  0
  6  7  1  0  0  0
  6 34  1  0  0  0
  7  8  1  0  0  0
  7 13  2  0  0  0
  8  9  2  0  0  0
  8 10  1  0  0  0
 10 11  1  0  0  0
 10 52  1  0  0  0
 11 12  2  0  0  0
 11 14  1  0  0  0
 12 13  1  0  0  0
 14 15  1  0  0  0
 14 25  1  0  0  0
 14 35  1  0  0  0
 15 16  1  0  0  0
 15 36  1  0  0  0
 15 37  1  0  0  0
 16 17  1  0  0  0
 16 24  1  0  0  0
 16 38  1  0  0  0
 17 18  1  0  0  0
 17 39  1  0  0  0
 17 40  1  0  0  0
 18 19  2  0  0  0
 18 23  1  0  0  0
 19 20  1  0  0  0
 19 41  1  0  0  0
 20 21  2  0  0  0
 20 42  1  0  0  0
 21 22  1  0  0  0
 21 43  1  0  0  0
 22 23  2  0  0  0
 22 44  1  0  0  0
 23 45  1  0  0  0
 24 25  1  0  0  0
 24 46  1  0  0  0
 24 47  1  0  0  0
 25 26  1  0  0  0
 25 48  1  0  0  0
 26 49  1  0  0  0
 26 50  1  0  0  0
 26 51  1  0  0  0
M  CHG  1  16   1
M  END
> <s_m_source_file>
../3jsw_ligand.sdf

> <i_m_source_file_index>
1

> <s_epik_input>
W0NIM11bQ0hdKFtDSDNdKW4obltjSF0xKWMoYzEyKVtuSF1jKG5jMj1PKVtDQEBIXTNbQ0gyXVtOQEgrXShbQ0gyXVtDQEhdM1tDSDNdKVtDSDJdYzRbY0hdW2NIXVtjSF1bY0hdW2NIXTQ=

> <s_epik_cmdline>
J2VwaWtfYXBwJywgJy1pbWFlJywgJ2xpZ2FuZF9wcm8ubWFlJywgJy1vbWFlJywgJ2xpZ2FuZF9wcmVwLm1hZScsICctbXMnLCAnMScsICctcGgnLCAnNycsICctcGh0JywgJzAuNScsICctbnQn

> <r_lp_tautomer_probability>
1

> <r_epik_Ionization_Penalty>
  0.0135

> <r_epik_Ionization_Penalty_Charging>
  0.0135

> <r_epik_Ionization_Penalty_Neutral>
  0.0000

> <r_epik_State_Penalty>
 -0.0000

> <r_epik_Charging_Adjusted_Penalty>
0.0135037932846461

> <i_epik_Tot_Q>
1

> <i_epik_Tot_abs_Q>
1

$$$$
