3juk_ligand
                    3D
 Schrodinger Suite 2020-3.
 58 60  0  0  1  0            999 V2000
   59.8830   37.3130   55.8530 N   0  0  0  0  0  0
   60.0270   35.9090   55.8450 C   0  0  0  0  0  0
   58.9470   35.1800   55.7630 N   0  0  0  0  0  0
   57.7510   35.7550   55.6910 C   0  0  0  0  0  0
   57.5660   37.1390   55.6940 C   0  0  0  0  0  0
   58.6930   37.9180   55.7790 C   0  0  0  0  0  0
   61.1240   35.3810   55.9130 O   0  0  0  0  0  0
   56.8260   35.0180   55.6260 O   0  0  0  0  0  0
   61.1090   38.0900   55.9560 C   0  0  1  0  0  0
   61.4600   38.9410   54.7670 C   0  0  2  0  0  0
   62.0420   38.2270   53.6990 O   0  0  0  0  0  0
   62.2830   40.0280   55.4130 C   0  0  1  0  0  0
   61.6470   40.1290   56.7700 C   0  0  2  0  0  0
   60.9720   38.9540   57.0280 O   0  0  0  0  0  0
   63.6250   39.7020   55.7030 O   0  0  0  0  0  0
   60.7940   41.3470   56.9160 C   0  0  0  0  0  0
   59.7890   41.2690   55.9860 O   0  0  0  0  0  0
   59.1270   42.4940   55.4580 P   0  0  2  0  0  0
   58.1110   42.1740   54.6250 O   0  0  0  0  0  0
   60.0190   43.2530   54.7040 O   0  5  0  0  0  0
   58.5840   43.2500   56.7260 O   0  0  0  0  0  0
   58.3510   44.7670   56.9630 P   0  0  1  0  0  0
   59.4360   45.4950   56.4440 O   0  5  0  0  0  0
   57.1150   45.1620   56.4230 O   0  0  0  0  0  0
   58.4190   44.9440   58.5010 O   0  0  0  0  0  0
   59.4460   44.5490   59.3830 C   0  0  2  0  0  0
   58.9140   44.5760   60.8140 C   0  0  1  0  0  0
   58.5940   46.0040   61.2670 C   0  0  2  0  0  0
   59.8270   46.8920   61.0280 C   0  0  1  0  0  0
   60.3030   46.7340   59.5660 C   0  0  1  0  0  0
   61.5400   47.5690   59.3110 C   0  0  0  0  0  0
   57.7850   43.7550   60.8160 O   0  0  0  0  0  0
   58.1260   46.0440   62.5680 O   0  0  0  0  0  0
   59.6920   48.2650   61.3650 O   0  0  0  0  0  0
   60.5830   45.3810   59.3070 O   0  0  0  0  0  0
   62.3290   47.0600   58.3380 O   0  0  0  0  0  0
   59.0235   34.0827   55.7532 H   0  0  0  0  0  0
   56.5715   37.5809   55.6317 H   0  0  0  0  0  0
   58.6194   39.0055   55.7860 H   0  0  0  0  0  0
   61.9057   37.3516   56.1292 H   0  0  0  0  0  0
   60.6249   39.3197   54.1593 H   0  0  0  0  0  0
   61.4765   37.4263   53.1998 H   0  0  0  0  0  0
   62.3608   40.9003   54.7474 H   0  0  0  0  0  0
   62.3979   40.1778   57.5723 H   0  0  0  0  0  0
   64.3462   39.5617   54.8843 H   0  0  0  0  0  0
   60.3725   41.3799   57.9315 H   0  0  0  0  0  0
   61.4049   42.2453   56.7433 H   0  0  0  0  0  0
   59.7764   43.5673   59.0127 H   0  0  0  0  0  0
   59.6052   44.1388   61.5496 H   0  0  0  0  0  0
   57.7039   46.4142   60.7674 H   0  0  0  0  0  0
   60.5823   46.6151   61.7782 H   0  0  0  0  0  0
   59.5151   47.0065   58.8484 H   0  0  0  0  0  0
   61.2415   48.5821   59.0036 H   0  0  0  0  0  0
   62.1395   47.6269   60.2315 H   0  0  0  0  0  0
   57.8706   42.7014   60.5118 H   0  0  0  0  0  0
   57.2474   45.4476   62.8550 H   0  0  0  0  0  0
   59.3603   48.5538   62.3733 H   0  0  0  0  0  0
   63.2596   47.5756   58.0586 H   0  0  0  0  0  0
  1  2  1  0  0  0
  1  6  1  0  0  0
  1  9  1  0  0  0
  2  3  1  0  0  0
  2  7  2  0  0  0
  3  4  1  0  0  0
  3 37  1  0  0  0
  4  5  1  0  0  0
  4  8  2  0  0  0
  5  6  2  0  0  0
  5 38  1  0  0  0
  6 39  1  0  0  0
  9 10  1  0  0  0
  9 14  1  0  0  0
  9 40  1  0  0  0
 10 11  1  0  0  0
 10 12  1  0  0  0
 10 41  1  0  0  0
 11 42  1  0  0  0
 12 13  1  0  0  0
 12 15  1  0  0  0
 12 43  1  0  0  0
 13 14  1  0  0  0
 13 16  1  0  0  0
 13 44  1  0  0  0
 15 45  1  0  0  0
 16 17  1  0  0  0
 16 46  1  0  0  0
 16 47  1  0  0  0
 17 18  1  0  0  0
 18 19  2  0  0  0
 18 20  1  0  0  0
 18 21  1  0  0  0
 21 22  1  0  0  0
 22 23  1  0  0  0
 22 24  2  0  0  0
 22 25  1  0  0  0
 25 26  1  0  0  0
 26 27  1  0  0  0
 26 35  1  0  0  0
 26 48  1  0  0  0
 27 28  1  0  0  0
 27 32  1  0  0  0
 27 49  1  0  0  0
 28 29  1  0  0  0
 28 33  1  0  0  0
 28 50  1  0  0  0
 29 30  1  0  0  0
 29 34  1  0  0  0
 29 51  1  0  0  0
 30 31  1  0  0  0
 30 35  1  0  0  0
 30 52  1  0  0  0
 31 36  1  0  0  0
 31 53  1  0  0  0
 31 54  1  0  0  0
 32 55  1  0  0  0
 33 56  1  0  0  0
 34 57  1  0  0  0
 36 58  1  0  0  0
M  CHG  2  20  -1  23  -1
M  END
> <s_m_source_file>
../3juk_ligand.sdf

> <i_m_source_file_index>
1

> <s_epik_input>
W2NIXTFbY0hdYyg9TylbbkhdYyg9TyluMVtDQEhdMltDQEhdKFtPSF0pW0NASF0oW09IXSlbQ0BIXShPMilbQ0gyXU9bUEBdKD1PKShbT0hdKU9bUEBdKD1PKShbT0hdKU9bQ0BASF0zW0NASF0oW09IXSlbQ0BASF0oW09IXSlbQ0BIXShbT0hdKVtDQEhdKE8zKVtDSDJdW09IXQ==

> <s_epik_cmdline>
J2VwaWtfYXBwJywgJy1pbWFlJywgJ2xpZ2FuZF9wcm8ubWFlJywgJy1vbWFlJywgJ2xpZ2FuZF9wcmVwLm1hZScsICctbXMnLCAnMScsICctcGgnLCAnNycsICctcGh0JywgJzAuNScsICctbnQn

> <r_lp_tautomer_probability>
1

> <r_epik_Ionization_Penalty>
  0.0031

> <r_epik_Ionization_Penalty_Charging>
  0.0031

> <r_epik_Ionization_Penalty_Neutral>
  0.0000

> <r_epik_State_Penalty>
 -0.0000

> <r_epik_Charging_Adjusted_Penalty>
0.00308189822090265

> <i_epik_Tot_Q>
-2

> <i_epik_Tot_abs_Q>
2

> <s_epik_Chemistry_Notes>
This compound contains an acetal/aminal-like group ( X-CH(R)-Y where X, Y are N, S, or O) that may be acid/base labile, releasing an aldehyde.

$$$$
