3jup_ligand
                    3D
 Schrodinger Suite 2020-3.
 32 33  0  0  1  0            999 V2000
   38.9860    3.7530   94.8320 O   0  5  0  0  0  0
   38.9490    2.1830   93.3370 O   0  0  0  0  0  0
   43.9450    5.9970   93.9400 Br  0  0  0  0  0  0
   43.8240    3.2200   93.3410 C   0  0  0  0  0  0
   43.1630    2.0130   93.2110 C   0  0  0  0  0  0
   41.7270    4.2420   93.9670 C   0  0  0  0  0  0
   39.4830   -1.3520   92.1670 C   0  0  0  0  0  0
   39.4770   -0.8550   90.7090 C   0  0  0  0  0  0
   40.8550   -1.5510   92.6620 C   0  0  0  0  0  0
   41.7850    0.1140   91.0450 C   0  0  0  0  0  0
   40.3970    0.2650   90.5780 N   0  3  0  0  0  0
   41.2230    0.7380   93.2920 N   0  0  0  0  0  0
   39.5230    2.9870   94.0350 C   0  0  0  0  0  0
   43.0970    4.3160   93.7140 C   0  0  0  0  0  0
   41.7930    1.9460   93.4070 C   0  0  0  0  0  0
   41.0550    3.0490   93.7970 C   0  0  0  0  0  0
   41.7940   -0.3620   92.5130 C   0  0  1  0  0  0
   44.8947    3.2958   93.1515 H   0  0  0  0  0  0
   43.7205    1.1123   92.9538 H   0  0  0  0  0  0
   41.1865    5.1282   94.2996 H   0  0  0  0  0  0
   38.9848   -0.6107   92.8091 H   0  0  0  0  0  0
   38.9472   -2.3106   92.2298 H   0  0  0  0  0  0
   39.7932   -1.6708   90.0423 H   0  0  0  0  0  0
   38.4618   -0.5311   90.4362 H   0  0  0  0  0  0
   40.8267   -1.7866   93.7361 H   0  0  0  0  0  0
   41.3246   -2.3828   92.1165 H   0  0  0  0  0  0
   42.3038   -0.6271   90.4192 H   0  0  0  0  0  0
   42.3033    1.0816   90.9733 H   0  0  0  0  0  0
   40.4938    0.5378   89.5168 H   0  0  0  0  0  0
   40.0103    1.1253   91.1439 H   0  0  0  0  0  0
   40.2717    0.5978   93.8262 H   0  0  0  0  0  0
   42.8018   -0.6188   92.8713 H   0  0  0  0  0  0
  1 13  1  0  0  0
  2 13  2  0  0  0
  3 14  1  0  0  0
  4  5  2  0  0  0
  4 14  1  0  0  0
  4 18  1  0  0  0
  5 15  1  0  0  0
  5 19  1  0  0  0
  6 14  2  0  0  0
  6 16  1  0  0  0
  6 20  1  0  0  0
  7  8  1  0  0  0
  7  9  1  0  0  0
  7 21  1  0  0  0
  7 22  1  0  0  0
  8 11  1  0  0  0
  8 23  1  0  0  0
  8 24  1  0  0  0
  9 17  1  0  0  0
  9 25  1  0  0  0
  9 26  1  0  0  0
 10 11  1  0  0  0
 10 17  1  0  0  0
 10 27  1  0  0  0
 10 28  1  0  0  0
 11 29  1  0  0  0
 11 30  1  0  0  0
 12 15  1  0  0  0
 12 17  1  0  0  0
 12 31  1  0  0  0
 13 16  1  0  0  0
 15 16  2  0  0  0
 17 32  1  0  0  0
M  CHG  2   1  -1  11   1
M  END
> <s_m_source_file>
../3jup_ligand.sdf

> <i_m_source_file_index>
1

> <s_epik_input>
QnJjMVtjSF1bY0hdYyhjKFtjSF0xKUMoPU8pW09IXSlbTkhdW0NASF0yW0NIMl1bQ0gyXVtDSDJdW05IMitdW0NIMl0y

> <s_epik_cmdline>
J2VwaWtfYXBwJywgJy1pbWFlJywgJ2xpZ2FuZF9wcm8ubWFlJywgJy1vbWFlJywgJ2xpZ2FuZF9wcmVwLm1hZScsICctbXMnLCAnMScsICctcGgnLCAnNycsICctcGh0JywgJzAuNScsICctbnQn

> <r_lp_tautomer_probability>
1

> <r_epik_Ionization_Penalty>
  0.0009

> <r_epik_Ionization_Penalty_Charging>
  0.0009

> <r_epik_Ionization_Penalty_Neutral>
  0.0000

> <r_epik_State_Penalty>
 -0.0000

> <r_epik_Charging_Adjusted_Penalty>
0.000926276482593648

> <i_epik_Tot_Q>
0

> <i_epik_Tot_abs_Q>
2

$$$$
