3jvk_ligand
                    3D
 Schrodinger Suite 2020-3.
 53 52  0  0  1  0            999 V2000
   10.2550  -12.2020  -11.9700 N   0  3  0  0  0  0
   11.2130  -11.0930  -11.7670 C   0  0  0  0  0  0
   12.0010  -11.5490  -10.5610 C   0  0  0  0  0  0
   12.1440  -12.7630  -10.3530 O   0  0  0  0  0  0
   12.5010  -10.6080   -9.7530 N   0  0  0  0  0  0
   13.1760  -10.9650   -8.5050 C   0  0  0  0  0  0
   14.0390   -9.9030   -7.8430 C   0  0  0  0  0  0
   14.9050   -9.3060   -8.4980 O   0  0  0  0  0  0
   14.6650   -4.4940    0.2770 O   0  0  0  0  0  0
   13.4390   -5.1340    0.4100 C   0  0  0  0  0  0
   12.4130   -4.1890    0.9300 C   0  0  0  0  0  0
   13.3230   -6.5030    0.0320 N   0  0  0  0  0  0
   13.2510   -6.5630   -1.4350 C   0  0  0  0  0  0
   13.7640   -7.8360   -2.0470 C   0  0  0  0  0  0
   14.0270   -7.7260   -3.5450 C   0  0  0  0  0  0
   13.8900   -9.1090   -4.1660 C   0  0  0  0  0  0
   14.6760   -9.3860   -5.4410 C   0  0  2  0  0  0
   13.7050   -9.6250   -6.5710 N   0  0  0  0  0  0
   15.5160  -10.6040   -5.0890 C   0  0  0  0  0  0
   14.9830  -11.7160   -4.9020 O   0  0  0  0  0  0
   16.8240  -10.4430   -4.9570 N   0  0  0  0  0  0
   17.7120  -11.5990   -5.1760 C   0  0  2  0  0  0
   17.5920  -12.6870   -4.1300 C   0  0  0  0  0  0
   17.4950  -13.8750   -4.4970 O   0  0  0  0  0  0
   19.1850  -11.1630   -5.3550 C   0  0  0  0  0  0
   17.5902  -12.3959   -2.9041 O   0  5  0  0  0  0
    9.6152  -11.9798  -12.8368 H   0  0  0  0  0  0
    9.6297  -12.3153  -11.0721 H   0  0  0  0  0  0
   10.8079  -13.1354  -12.1520 H   0  0  0  0  0  0
   11.8383  -10.9797  -12.6649 H   0  0  0  0  0  0
   10.6602  -10.1596  -11.5850 H   0  0  0  0  0  0
   12.3982   -9.5510  -10.0399 H   0  0  0  0  0  0
   12.4265  -11.2421   -7.7491 H   0  0  0  0  0  0
   13.8495  -11.8163   -8.6829 H   0  0  0  0  0  0
   12.8766   -3.2081    1.1117 H   0  0  0  0  0  0
   11.9990   -4.5790    1.8715 H   0  0  0  0  0  0
   11.6054   -4.0816    0.1910 H   0  0  0  0  0  0
   13.2835   -7.4299    0.6230 H   0  0  0  0  0  0
   12.2036   -6.4605   -1.7552 H   0  0  0  0  0  0
   13.8476   -5.7451   -1.8652 H   0  0  0  0  0  0
   14.7119   -8.1183   -1.5655 H   0  0  0  0  0  0
   13.0250   -8.6374   -1.8998 H   0  0  0  0  0  0
   13.2957   -7.0392   -3.9962 H   0  0  0  0  0  0
   15.0436   -7.3402   -3.7115 H   0  0  0  0  0  0
   14.2257   -9.8693   -3.4455 H   0  0  0  0  0  0
   12.8371   -9.2910   -4.4272 H   0  0  0  0  0  0
   15.3165   -8.5618   -5.7881 H   0  0  0  0  0  0
   12.6219   -9.5778   -6.3847 H   0  0  0  0  0  0
   17.2502   -9.4652   -4.6883 H   0  0  0  0  0  0
   17.3138  -12.0306   -6.1061 H   0  0  0  0  0  0
   19.2435  -10.3736   -6.1188 H   0  0  0  0  0  0
   19.7869  -12.0268   -5.6736 H   0  0  0  0  0  0
   19.5722  -10.7785   -4.3999 H   0  0  0  0  0  0
  1  2  1  0  0  0
  1 27  1  0  0  0
  1 28  1  0  0  0
  1 29  1  0  0  0
  2  3  1  0  0  0
  2 30  1  0  0  0
  2 31  1  0  0  0
  3  4  2  0  0  0
  3  5  1  0  0  0
  5  6  1  0  0  0
  5 32  1  0  0  0
  6  7  1  0  0  0
  6 33  1  0  0  0
  6 34  1  0  0  0
  7  8  2  0  0  0
  7 18  1  0  0  0
  9 10  2  0  0  0
 10 11  1  0  0  0
 10 12  1  0  0  0
 11 35  1  0  0  0
 11 36  1  0  0  0
 11 37  1  0  0  0
 12 13  1  0  0  0
 12 38  1  0  0  0
 13 14  1  0  0  0
 13 39  1  0  0  0
 13 40  1  0  0  0
 14 15  1  0  0  0
 14 41  1  0  0  0
 14 42  1  0  0  0
 15 16  1  0  0  0
 15 43  1  0  0  0
 15 44  1  0  0  0
 16 17  1  0  0  0
 16 45  1  0  0  0
 16 46  1  0  0  0
 17 18  1  0  0  0
 17 19  1  0  0  0
 17 47  1  0  0  0
 18 48  1  0  0  0
 19 20  2  0  0  0
 19 21  1  0  0  0
 21 22  1  0  0  0
 21 49  1  0  0  0
 22 23  1  0  0  0
 22 25  1  0  0  0
 22 50  1  0  0  0
 23 24  2  0  0  0
 23 26  1  0  0  0
 25 51  1  0  0  0
 25 52  1  0  0  0
 25 53  1  0  0  0
M  CHG  2   1   1  26  -1
M  END
> <s_m_source_file>
../3jvk_ligand.sdf

> <i_m_source_file_index>
1

> <s_epik_input>
W05IMytdW0NIMl1DKD1PKVtOSF1bQ0gyXUMoPU8pW05IXVtDQEhdKEMoPU8pW05IXVtDQEBIXShbQ0gzXSlDKD1PKVtPSF0pW0NIMl1bQ0gyXVtDSDJdW0NIMl1bTkhdQyg9TylbQ0gzXQ==

> <s_epik_cmdline>
J2VwaWtfYXBwJywgJy1pbWFlJywgJ2xpZ2FuZF9wcm8ubWFlJywgJy1vbWFlJywgJ2xpZ2FuZF9wcmVwLm1hZScsICctbXMnLCAnMScsICctcGgnLCAnNycsICctcGh0JywgJzAuNScsICctbnQn

> <r_epik_Ionization_Penalty>
  0.1241

> <r_epik_Ionization_Penalty_Charging>
  0.1241

> <r_epik_Ionization_Penalty_Neutral>
  0.0000

> <r_epik_State_Penalty>
  0.1134

> <r_epik_Charging_Adjusted_Penalty>
0.237504748759583

> <i_epik_Tot_Q>
0

> <i_epik_Tot_abs_Q>
2

$$$$
