3jwq_ligand
                    3D
 Schrodinger Suite 2020-3.
 63 66  0  0  1  0            999 V2000
  -12.3870  -29.3570   39.4640 C   0  0  0  0  0  0
  -12.6090  -28.8860   40.9210 C   0  0  0  0  0  0
  -11.8040  -27.6220   41.2620 C   0  0  0  0  0  0
  -12.1880  -27.1720   42.6510 C   0  0  0  0  0  0
  -13.2360  -26.4230   42.9280 N   0  0  0  0  0  0
  -13.3020  -26.2320   44.1530 N   0  0  0  0  0  0
  -14.3700  -25.3910   44.8340 C   0  0  0  0  0  0
  -12.3150  -26.8350   44.8380 C   0  0  0  0  0  0
  -11.9600  -26.9300   46.1970 C   0  0  0  0  0  0
  -12.5780  -26.3670   47.1120 O   0  0  0  0  0  0
  -10.8560  -27.6820   46.5120 N   0  0  0  0  0  0
  -10.1040  -28.3390   45.5220 C   0  0  0  0  0  0
  -10.4550  -28.2220   44.2270 N   0  0  0  0  0  0
  -11.5500  -27.4820   43.8680 C   0  0  0  0  0  0
   -8.9600  -29.0150   45.9480 C   0  0  0  0  0  0
   -7.7480  -28.8350   45.2820 C   0  0  0  0  0  0
   -6.5890  -29.4620   45.7350 C   0  0  0  0  0  0
   -6.6330  -30.2520   46.8660 C   0  0  0  0  0  0
   -7.8370  -30.4080   47.5390 C   0  0  0  0  0  0
   -8.9910  -29.7870   47.0950 C   0  0  0  0  0  0
  -10.1880  -29.9250   47.7290 O   0  0  0  0  0  0
  -10.3260  -30.9780   48.7000 C   0  0  0  0  0  0
  -11.5550  -30.5550   49.5080 C   0  0  0  0  0  0
   -5.0320  -29.2730   44.9450 S   0  0  0  0  0  0
   -4.8040  -27.8320   44.5270 O   0  0  0  0  0  0
   -3.9850  -29.5880   45.9990 O   0  0  0  0  0  0
   -4.9360  -30.1850   43.5600 N   0  0  2  0  0  0
   -3.5170  -30.5660   43.3410 C   0  0  0  0  0  0
   -3.2620  -31.0770   41.8890 C   0  0  0  0  0  0
   -3.7310  -30.1010   40.8600 N   0  0  0  0  0  0
   -3.3350  -30.5360   39.4980 C   0  0  0  0  0  0
   -5.1880  -29.8430   41.0060 C   0  0  0  0  0  0
   -5.5260  -29.3580   42.4530 C   0  0  0  0  0  0
  -12.9847  -30.2611   39.2758 H   0  0  0  0  0  0
  -11.3216  -29.5832   39.3101 H   0  0  0  0  0  0
  -12.6970  -28.5616   38.7703 H   0  0  0  0  0  0
  -13.6744  -28.6598   41.0749 H   0  0  0  0  0  0
  -12.2991  -29.6814   41.6148 H   0  0  0  0  0  0
  -10.7287  -27.8509   41.2247 H   0  0  0  0  0  0
  -12.0361  -26.8316   40.5330 H   0  0  0  0  0  0
  -15.0672  -25.0012   44.0777 H   0  0  0  0  0  0
  -13.8942  -24.5512   45.3616 H   0  0  0  0  0  0
  -14.9212  -26.0122   45.5553 H   0  0  0  0  0  0
  -10.5398  -27.7822   47.5608 H   0  0  0  0  0  0
   -7.7069  -28.1977   44.3986 H   0  0  0  0  0  0
   -5.7320  -30.7480   47.2268 H   0  0  0  0  0  0
   -7.8740  -31.0306   48.4329 H   0  0  0  0  0  0
  -10.4738  -31.9372   48.1822 H   0  0  0  0  0  0
   -9.4162  -31.0303   49.3160 H   0  0  0  0  0  0
  -11.7539  -31.3017   50.2908 H   0  0  0  0  0  0
  -12.4260  -30.4831   48.8400 H   0  0  0  0  0  0
  -11.3684  -29.5762   49.9739 H   0  0  0  0  0  0
   -2.8718  -29.6921   43.5141 H   0  0  0  0  0  0
   -3.2411  -31.3696   44.0396 H   0  0  0  0  0  0
   -2.1841  -31.2393   41.7414 H   0  0  0  0  0  0
   -3.7999  -32.0238   41.7337 H   0  0  0  0  0  0
   -2.2487  -30.7064   39.4689 H   0  0  0  0  0  0
   -3.6033  -29.7551   38.7712 H   0  0  0  0  0  0
   -3.8594  -31.4690   39.2441 H   0  0  0  0  0  0
   -5.4961  -29.0656   40.2914 H   0  0  0  0  0  0
   -5.7464  -30.7689   40.8038 H   0  0  0  0  0  0
   -6.6228  -29.3629   42.5363 H   0  0  0  0  0  0
   -5.1570  -28.3246   42.5306 H   0  0  0  0  0  0
  1  2  1  0  0  0
  1 34  1  0  0  0
  1 35  1  0  0  0
  1 36  1  0  0  0
  2  3  1  0  0  0
  2 37  1  0  0  0
  2 38  1  0  0  0
  3  4  1  0  0  0
  3 39  1  0  0  0
  3 40  1  0  0  0
  4  5  2  0  0  0
  4 14  1  0  0  0
  5  6  1  0  0  0
  6  7  1  0  0  0
  6  8  1  0  0  0
  7 41  1  0  0  0
  7 42  1  0  0  0
  7 43  1  0  0  0
  8  9  1  0  0  0
  8 14  2  0  0  0
  9 10  2  0  0  0
  9 11  1  0  0  0
 11 12  1  0  0  0
 11 44  1  0  0  0
 12 13  2  0  0  0
 12 15  1  0  0  0
 13 14  1  0  0  0
 15 16  2  0  0  0
 15 20  1  0  0  0
 16 17  1  0  0  0
 16 45  1  0  0  0
 17 18  2  0  0  0
 17 24  1  0  0  0
 18 19  1  0  0  0
 18 46  1  0  0  0
 19 20  2  0  0  0
 19 47  1  0  0  0
 20 21  1  0  0  0
 21 22  1  0  0  0
 22 23  1  0  0  0
 22 48  1  0  0  0
 22 49  1  0  0  0
 23 50  1  0  0  0
 23 51  1  0  0  0
 23 52  1  0  0  0
 24 25  2  0  0  0
 24 26  2  0  0  0
 24 27  1  0  0  0
 27 28  1  0  0  0
 27 33  1  0  0  0
 28 29  1  0  0  0
 28 53  1  0  0  0
 28 54  1  0  0  0
 29 30  1  0  0  0
 29 55  1  0  0  0
 29 56  1  0  0  0
 30 31  1  0  0  0
 30 32  1  0  0  0
 31 57  1  0  0  0
 31 58  1  0  0  0
 31 59  1  0  0  0
 32 33  1  0  0  0
 32 60  1  0  0  0
 32 61  1  0  0  0
 33 62  1  0  0  0
 33 63  1  0  0  0
M  END
> <s_m_source_file>
../3jwq_ligand.sdf

> <i_m_source_file_index>
1

> <s_epik_input>
W0NIM11bQ0gyXVtDSDJdYyhubjFbQ0gzXSljKGMxMiluYyhbbkhdYzI9TyktYzNbY0hdYyhbY0hdW2NIXWMzT1tDSDJdW0NIM10pUyg9TykoPU8pTjRbQ0gyXVtDSDJdW05IK10oW0NIM10pW0NIMl1bQ0gyXTQ=

> <s_epik_cmdline>
J2VwaWtfYXBwJywgJy1pbWFlJywgJ2xpZ2FuZF9wcm8ubWFlJywgJy1vbWFlJywgJ2xpZ2FuZF9wcmVwLm1hZScsICctbXMnLCAnMScsICctcGgnLCAnNycsICctcGh0JywgJzAuNScsICctbnQn

> <r_lp_tautomer_probability>
1

> <r_epik_Ionization_Penalty>
  0.1911

> <r_epik_Ionization_Penalty_Charging>
  0.0000

> <r_epik_Ionization_Penalty_Neutral>
  0.1911

> <r_epik_State_Penalty>
  0.1740

> <r_epik_Charging_Adjusted_Penalty>
0.17398267960302

> <i_epik_Tot_Q>
0

> <i_epik_Tot_abs_Q>
0

$$$$
