3jxw_ligand
                    3D
 Schrodinger Suite 2020-3.
 43 46  0  0  1  0            999 V2000
  -23.8040  -30.7810   -2.2150 C   0  0  0  0  0  0
  -22.3860  -30.7450   -2.6910 N   0  3  0  0  0  0
  -22.1930  -31.5690    2.5440 O   0  0  0  0  0  0
  -23.1440  -34.5910    2.5860 S   0  0  0  0  0  0
  -21.8330  -29.4130   -3.0940 C   0  0  0  0  0  0
  -22.1860  -33.5700   -1.0310 N   0  0  0  0  0  0
  -21.3750  -31.6060   -2.0380 C   0  0  0  0  0  0
  -21.7900  -31.6270    0.2900 N   0  0  0  0  0  0
  -21.8280  -32.3440   -0.8610 C   0  0  0  0  0  0
  -22.5990  -34.2130    0.1530 C   0  0  0  0  0  0
  -23.0350  -35.5720    0.2340 C   0  0  0  0  0  0
  -23.1460  -36.5070   -0.7790 C   0  0  0  0  0  0
  -23.6160  -37.7740   -0.4540 C   0  0  0  0  0  0
  -23.7640  -38.8040   -1.5420 C   0  0  0  0  0  0
  -24.1970  -38.3980   -2.7600 C   0  0  0  0  0  0
  -24.4620  -39.0820   -4.0390 C   0  0  0  0  0  0
  -25.2410  -38.3800   -5.1440 C   0  0  0  0  0  0
  -23.7730  -38.6160   -5.2980 C   0  0  0  0  0  0
  -23.9480  -38.0730    0.8640 C   0  0  0  0  0  0
  -23.8420  -37.1700    1.9080 C   0  0  0  0  0  0
  -23.3810  -35.9290    1.5360 C   0  0  0  0  0  0
  -22.5960  -33.5390    1.3380 C   0  0  0  0  0  0
  -22.1910  -32.1800    1.4910 C   0  0  0  0  0  0
  -24.4088  -30.0821   -2.8114 H   0  0  0  0  0  0
  -23.8427  -30.4875   -1.1556 H   0  0  0  0  0  0
  -24.2030  -31.7998   -2.3281 H   0  0  0  0  0  0
  -22.5730  -31.3021   -3.6209 H   0  0  0  0  0  0
  -22.6242  -28.8170   -3.5722 H   0  0  0  0  0  0
  -21.0048  -29.5592   -3.8030 H   0  0  0  0  0  0
  -21.4638  -28.8845   -2.2028 H   0  0  0  0  0  0
  -21.0189  -32.3612   -2.7542 H   0  0  0  0  0  0
  -20.5278  -30.9886   -1.7046 H   0  0  0  0  0  0
  -21.4353  -30.5858    0.2780 H   0  0  0  0  0  0
  -22.8724  -36.2572   -1.8041 H   0  0  0  0  0  0
  -23.5299  -39.8644   -1.3669 H   0  0  0  0  0  0
  -24.4305  -37.3375   -2.9353 H   0  0  0  0  0  0
  -24.5514  -40.0280   -3.4848 H   0  0  0  0  0  0
  -26.0315  -39.0481   -5.5166 H   0  0  0  0  0  0
  -25.6954  -37.4610   -4.7453 H   0  0  0  0  0  0
  -22.9865  -37.8918   -5.0390 H   0  0  0  0  0  0
  -23.3226  -39.4789   -5.8104 H   0  0  0  0  0  0
  -24.3124  -39.0758    1.0871 H   0  0  0  0  0  0
  -24.1016  -37.4211    2.9364 H   0  0  0  0  0  0
  1  2  1  0  0  0
  1 24  1  0  0  0
  1 25  1  0  0  0
  1 26  1  0  0  0
  2  5  1  0  0  0
  2  7  1  0  0  0
  2 27  1  0  0  0
  3 23  2  0  0  0
  4 21  1  0  0  0
  4 22  1  0  0  0
  5 28  1  0  0  0
  5 29  1  0  0  0
  5 30  1  0  0  0
  6  9  2  0  0  0
  6 10  1  0  0  0
  7  9  1  0  0  0
  7 31  1  0  0  0
  7 32  1  0  0  0
  8  9  1  0  0  0
  8 23  1  0  0  0
  8 33  1  0  0  0
 10 11  1  0  0  0
 10 22  2  0  0  0
 11 12  2  0  0  0
 11 21  1  0  0  0
 12 13  1  0  0  0
 12 34  1  0  0  0
 13 14  1  0  0  0
 13 19  2  0  0  0
 14 15  2  0  0  0
 14 35  1  0  0  0
 15 16  1  0  0  0
 15 36  1  0  0  0
 16 17  1  0  0  0
 16 18  1  0  0  0
 16 37  1  0  0  0
 17 18  1  0  0  0
 17 38  1  0  0  0
 17 39  1  0  0  0
 18 40  1  0  0  0
 18 41  1  0  0  0
 19 20  1  0  0  0
 19 42  1  0  0  0
 20 21  2  0  0  0
 20 43  1  0  0  0
 22 23  1  0  0  0
M  CHG  1   2   1
M  END
> <s_m_source_file>
../3jxw_ligand.sdf

> <i_m_source_file_index>
1

> <s_epik_input>
W0NIM11bTkgrXShbQ0gzXSlbQ0gyXWMobjEpW25IXWMoPU8pYzJzYyhjM2MxMilbY0hdW2NIXWMoW2NIXTMpL1tDSF09W0NIXS9bQ0hdNFtDSDJdW0NIMl00

> <s_epik_cmdline>
J2VwaWtfYXBwJywgJy1pbWFlJywgJ2xpZ2FuZF9wcm8ubWFlJywgJy1vbWFlJywgJ2xpZ2FuZF9wcmVwLm1hZScsICctbXMnLCAnMScsICctcGgnLCAnNycsICctcGh0JywgJzAuNScsICctbnQn

> <r_lp_tautomer_probability>
1

> <r_epik_Ionization_Penalty>
  0.2614

> <r_epik_Ionization_Penalty_Charging>
  0.2614

> <r_epik_Ionization_Penalty_Neutral>
  0.0000

> <r_epik_State_Penalty>
 -0.0000

> <r_epik_Charging_Adjusted_Penalty>
0.261420421334273

> <i_epik_Tot_Q>
1

> <i_epik_Tot_abs_Q>
1

$$$$
