3jyr_ligand
                    3D
 Schrodinger Suite 2020-3.
 88 91  0  0  1  0            999 V2000
   22.3770   -8.7970   17.0440 C   0  0  2  0  0  0
   23.4350   -7.7180   17.3630 C   0  0  1  0  0  0
   24.6690   -7.8500   16.4820 C   0  0  2  0  0  0
   25.3240   -9.2300   16.5740 C   0  0  1  0  0  0
   24.3120  -10.3310   16.4460 C   0  0  0  0  0  0
   24.7850  -11.7240   16.1080 C   0  0  0  0  0  0
   22.9960  -10.1250   16.6280 C   0  0  0  0  0  0
   22.9240   -6.3910   17.1640 O   0  0  0  0  0  0
   25.6190   -6.8420   16.8600 O   0  0  0  0  0  0
   26.3010   -9.3380   15.5240 O   0  0  0  0  0  0
   24.9570  -12.4460   17.3300 O   0  0  0  0  0  0
   17.3090   -8.1560   15.2270 C   0  0  2  0  0  0
   17.6650   -8.0190   16.7110 C   0  0  1  0  0  0
   19.1810   -7.8220   16.8860 C   0  0  2  0  0  0
   20.0340   -8.8340   16.1080 C   0  0  1  0  0  0
   19.5150   -9.0210   14.6760 C   0  0  1  0  0  0
   20.1640  -10.2520   14.0300 C   0  0  0  0  0  0
   21.4270   -8.3680   16.0280 N   0  3  0  0  0  0
   16.9600   -6.9210   17.3060 O   0  0  0  0  0  0
   19.4990   -7.8650   18.2920 O   0  0  0  0  0  0
   18.0900   -9.1850   14.6270 O   0  0  0  0  0  0
   15.6510   -4.1670   12.1430 C   0  0  2  0  0  0
   14.8650   -4.6500   13.3580 C   0  0  1  0  0  0
   15.8500   -5.2780   14.3420 C   0  0  2  0  0  0
   16.5660   -6.4740   13.6900 C   0  0  1  0  0  0
   17.2260   -6.0320   12.3750 C   0  0  1  0  0  0
   17.7110   -7.2420   11.5760 C   0  0  0  0  0  0
   14.1970   -3.5200   13.9460 O   0  0  0  0  0  0
   15.1500   -5.6700   15.5440 O   0  0  0  0  0  0
   17.5970   -6.9430   14.5420 O   0  0  0  0  0  0
   16.2760   -5.3130   11.5660 O   0  0  0  0  0  0
   18.7060   -6.7910   10.6440 O   0  0  0  0  0  0
   17.9050    0.5850   11.5080 C   0  0  1  0  0  0
   16.4010    0.3700   11.6360 C   0  0  1  0  0  0
   16.0800   -0.9150   12.4030 C   0  0  2  0  0  0
   16.7810   -2.0850   11.7170 C   0  0  1  0  0  0
   18.2810   -1.7940   11.5870 C   0  0  1  0  0  0
   19.0190   -2.9350   10.8620 C   0  0  0  0  0  0
   18.4780    0.7960   12.7940 O   0  0  0  0  0  0
   15.8780    1.5110   12.3160 O   0  0  0  0  0  0
   14.6710   -1.1520   12.4370 O   0  0  0  0  0  0
   16.6340   -3.2180   12.5570 O   0  0  0  0  0  0
   18.5240   -0.5460   10.8930 O   0  0  0  0  0  0
   20.4440   -2.7750   11.0140 O   0  0  0  0  0  0
   21.7809   -8.9446   17.9566 H   0  0  0  0  0  0
   23.6903   -7.8064   18.4293 H   0  0  0  0  0  0
   24.3819   -7.6643   15.4365 H   0  0  0  0  0  0
   25.8455   -9.3592   17.5339 H   0  0  0  0  0  0
   24.0350  -12.2227   15.4765 H   0  0  0  0  0  0
   25.7403  -11.6654   15.5658 H   0  0  0  0  0  0
   22.2840  -10.9494   16.4753 H   0  0  0  0  0  0
   22.0237   -6.0617   17.7035 H   0  0  0  0  0  0
   25.3269   -5.7815   16.8551 H   0  0  0  0  0  0
   27.1233   -8.6101   15.4609 H   0  0  0  0  0  0
   25.2997  -13.4910   17.3078 H   0  0  0  0  0  0
   16.2457   -8.3955   15.0785 H   0  0  0  0  0  0
   17.3161   -8.9070   17.2585 H   0  0  0  0  0  0
   19.4569   -6.8207   16.5237 H   0  0  0  0  0  0
   20.0184   -9.7902   16.6516 H   0  0  0  0  0  0
   19.7116   -8.0971   14.1123 H   0  0  0  0  0  0
   21.2586  -10.1462   14.0573 H   0  0  0  0  0  0
   19.8298  -10.3370   12.9855 H   0  0  0  0  0  0
   19.8690  -11.1553   14.5841 H   0  0  0  0  0  0
   21.3504   -7.2707   16.0377 H   0  0  0  0  0  0
   21.7721   -8.7028   15.0386 H   0  0  0  0  0  0
   15.8608   -6.8925   17.2765 H   0  0  0  0  0  0
   18.9759   -7.1999   18.9948 H   0  0  0  0  0  0
   15.0475   -3.6678   11.3706 H   0  0  0  0  0  0
   14.0674   -5.3622   13.0999 H   0  0  0  0  0  0
   16.5947   -4.5403   14.6755 H   0  0  0  0  0  0
   15.8668   -7.3123   13.5545 H   0  0  0  0  0  0
   18.0562   -5.3435   12.5912 H   0  0  0  0  0  0
   18.1434   -7.9851   12.2622 H   0  0  0  0  0  0
   16.8627   -7.6899   11.0377 H   0  0  0  0  0  0
   13.4536   -2.9562   13.3634 H   0  0  0  0  0  0
   14.5891   -4.9214   16.1228 H   0  0  0  0  0  0
   19.1894   -7.5090    9.9652 H   0  0  0  0  0  0
   18.1462    1.4626   10.8902 H   0  0  0  0  0  0
   15.9093    0.3171   10.6534 H   0  0  0  0  0  0
   16.3684   -0.8241   13.4606 H   0  0  0  0  0  0
   16.3257   -2.3140   10.7422 H   0  0  0  0  0  0
   18.6883   -1.6496   12.5986 H   0  0  0  0  0  0
   18.7151   -3.9003   11.2930 H   0  0  0  0  0  0
   18.7645   -2.9147    9.7920 H   0  0  0  0  0  0
   18.1269    1.6274   13.4229 H   0  0  0  0  0  0
   16.0230    2.5167   11.8946 H   0  0  0  0  0  0
   13.9997   -0.4116   12.8965 H   0  0  0  0  0  0
   21.1309   -3.5033   10.5583 H   0  0  0  0  0  0
  1  2  1  0  0  0
  1  7  1  0  0  0
  1 18  1  0  0  0
  1 45  1  0  0  0
  2  3  1  0  0  0
  2  8  1  0  0  0
  2 46  1  0  0  0
  3  4  1  0  0  0
  3  9  1  0  0  0
  3 47  1  0  0  0
  4  5  1  0  0  0
  4 10  1  0  0  0
  4 48  1  0  0  0
  5  6  1  0  0  0
  5  7  2  0  0  0
  6 11  1  0  0  0
  6 49  1  0  0  0
  6 50  1  0  0  0
  7 51  1  0  0  0
  8 52  1  0  0  0
  9 53  1  0  0  0
 10 54  1  0  0  0
 11 55  1  0  0  0
 12 13  1  0  0  0
 12 21  1  0  0  0
 12 30  1  0  0  0
 12 56  1  0  0  0
 13 14  1  0  0  0
 13 19  1  0  0  0
 13 57  1  0  0  0
 14 15  1  0  0  0
 14 20  1  0  0  0
 14 58  1  0  0  0
 15 16  1  0  0  0
 15 18  1  0  0  0
 15 59  1  0  0  0
 16 17  1  0  0  0
 16 21  1  0  0  0
 16 60  1  0  0  0
 17 61  1  0  0  0
 17 62  1  0  0  0
 17 63  1  0  0  0
 18 64  1  0  0  0
 18 65  1  0  0  0
 19 66  1  0  0  0
 20 67  1  0  0  0
 22 23  1  0  0  0
 22 31  1  0  0  0
 22 42  1  0  0  0
 22 68  1  0  0  0
 23 24  1  0  0  0
 23 28  1  0  0  0
 23 69  1  0  0  0
 24 25  1  0  0  0
 24 29  1  0  0  0
 24 70  1  0  0  0
 25 26  1  0  0  0
 25 30  1  0  0  0
 25 71  1  0  0  0
 26 27  1  0  0  0
 26 31  1  0  0  0
 26 72  1  0  0  0
 27 32  1  0  0  0
 27 73  1  0  0  0
 27 74  1  0  0  0
 28 75  1  0  0  0
 29 76  1  0  0  0
 32 77  1  0  0  0
 33 34  1  0  0  0
 33 39  1  0  0  0
 33 43  1  0  0  0
 33 78  1  0  0  0
 34 35  1  0  0  0
 34 40  1  0  0  0
 34 79  1  0  0  0
 35 36  1  0  0  0
 35 41  1  0  0  0
 35 80  1  0  0  0
 36 37  1  0  0  0
 36 42  1  0  0  0
 36 81  1  0  0  0
 37 38  1  0  0  0
 37 43  1  0  0  0
 37 82  1  0  0  0
 38 44  1  0  0  0
 38 83  1  0  0  0
 38 84  1  0  0  0
 39 85  1  0  0  0
 40 86  1  0  0  0
 41 87  1  0  0  0
 44 88  1  0  0  0
M  CHG  1  18   1
M  END
> <s_m_source_file>
../3jyr_ligand.sdf

> <i_m_source_file_index>
1

> <s_epik_input>
W09IXVtDSDJdQyg9W0NIXTEpW0NAQEhdKFtPSF0pW0NASF0oW09IXSlbQ0BASF0oW09IXSlbQ0BIXTFbTkgyK11bQ0BIXShbQ0BIXShPMilbQ0gzXSlbQ0BIXShbT0hdKVtDQEBIXShbT0hdKVtDQEhdMk9bQ0BIXShbQ0BIXShPMylbQ0gyXVtPSF0pW0NASF0oW09IXSlbQ0BASF0oW09IXSlbQ0BIXTNPW0NASF0oW0NASF0oTzQpW0NIMl1bT0hdKVtDQEhdKFtPSF0pW0NAQEhdKFtPSF0pW0NASF00W09IXQ==

> <s_epik_cmdline>
J2VwaWtfYXBwJywgJy1pbWFlJywgJ2xpZ2FuZF9wcm8ubWFlJywgJy1vbWFlJywgJ2xpZ2FuZF9wcmVwLm1hZScsICctbXMnLCAnMScsICctcGgnLCAnNycsICctcGh0JywgJzAuNScsICctbnQn

> <r_epik_Ionization_Penalty>
  0.1167

> <r_epik_Ionization_Penalty_Charging>
  0.1167

> <r_epik_Ionization_Penalty_Neutral>
  0.0001

> <r_epik_State_Penalty>
  0.1063

> <r_epik_Charging_Adjusted_Penalty>
0.222957502643002

> <i_epik_Tot_Q>
1

> <i_epik_Tot_abs_Q>
1

> <s_epik_Chemistry_Notes>
This compound contains an acetal/aminal-like group ( X-CH(R)-Y where X, Y are N, S, or O) that may be acid/base labile, releasing an aldehyde.

$$$$
