3jzb_ligand
                    3D
 Schrodinger Suite 2020-3.
 42 43  0  0  1  0            999 V2000
   25.2850   37.4200   34.4250 C   0  0  1  0  0  0
   27.8220   39.0230   30.3480 C   0  0  3  0  0  0
   25.8560   38.8320   34.4270 C   0  0  0  0  0  0
   28.1110   40.1440   29.3190 C   0  0  0  0  0  0
   26.6850   39.2400   33.2280 C   0  0  1  0  0  0
   29.4720   40.1500   28.7260 C   0  0  0  0  0  0
   26.9030   38.2820   32.0950 C   0  0  1  0  0  0
   30.5140   39.1780   29.0610 C   0  0  2  0  0  0
   26.3640   36.8310   32.1160 C   0  0  1  0  0  0
   30.1980   38.0660   30.1120 C   0  0  0  0  0  0
   25.5310   36.3950   33.3040 C   0  0  0  0  0  0
   28.8290   37.9970   30.7480 C   0  0  0  0  0  0
   25.0340   36.8900   35.8050 C   0  0  0  0  0  0
   23.6530   36.9530   36.2710 C   0  0  0  0  0  0
   26.8940   41.3110   32.9000 I   0  0  0  0  0  0
   30.0480   41.5810   27.3320 I   0  0  0  0  0  0
   25.9820   35.8530   30.3270 I   0  0  0  0  0  0
   22.9020   36.6920   35.3870 O   0  0  0  0  0  0
   26.5940   38.8780   30.9100 O   0  0  0  0  0  0
   31.7790   39.2920   28.4610 O   0  0  0  0  0  0
   23.5720   36.3750   37.5600 O   0  0  0  0  0  0
   24.3114   37.6660   33.9760 H   0  0  0  0  0  0
   27.1279   39.5334   31.0319 H   0  0  0  0  0  0
   25.0332   39.5602   34.4789 H   0  0  0  0  0  0
   26.5144   38.9600   35.2988 H   0  0  0  0  0  0
   27.3775   40.9074   29.0203 H   0  0  0  0  0  0
   27.2035   38.3306   33.5659 H   0  0  0  0  0  0
   27.9974   38.1763   32.1268 H   0  0  0  0  0  0
   31.1918   39.3675   28.2156 H   0  0  0  0  0  0
   27.1728   36.7867   32.8602 H   0  0  0  0  0  0
   30.3269   37.0766   29.6489 H   0  0  0  0  0  0
   30.8841   38.1632   30.9663 H   0  0  0  0  0  0
   26.0546   35.5197   33.7159 H   0  0  0  0  0  0
   24.5673   36.0789   32.8782 H   0  0  0  0  0  0
   29.0115   38.0650   31.8306 H   0  0  0  0  0  0
   28.4485   36.9945   30.5025 H   0  0  0  0  0  0
   25.3238   35.8298   35.8489 H   0  0  0  0  0  0
   25.6287   37.4630   36.5317 H   0  0  0  0  0  0
   23.0820   37.8911   36.3344 H   0  0  0  0  0  0
   23.0178   37.1760   34.4060 H   0  0  0  0  0  0
   31.9688   40.0866   27.7244 H   0  0  0  0  0  0
   24.2979   36.6583   38.3364 H   0  0  0  0  0  0
  1  3  1  0  0  0
  1 11  1  0  0  0
  1 13  1  0  0  0
  1 22  1  0  0  0
  2  4  1  0  0  0
  2 12  1  0  0  0
  2 19  1  0  0  0
  2 23  1  0  0  0
  3  5  1  0  0  0
  3 24  1  0  0  0
  3 25  1  0  0  0
  4  6  2  0  0  0
  4 26  1  0  0  0
  5  7  1  0  0  0
  5 15  1  0  0  0
  5 27  1  0  0  0
  6  8  1  0  0  0
  6 16  1  0  0  0
  7  9  1  0  0  0
  7 19  1  0  0  0
  7 28  1  0  0  0
  8 10  1  0  0  0
  8 20  1  0  0  0
  8 29  1  0  0  0
  9 11  1  0  0  0
  9 17  1  0  0  0
  9 30  1  0  0  0
 10 12  1  0  0  0
 10 31  1  0  0  0
 10 32  1  0  0  0
 11 33  1  0  0  0
 11 34  1  0  0  0
 12 35  1  0  0  0
 12 36  1  0  0  0
 13 14  1  0  0  0
 13 37  1  0  0  0
 13 38  1  0  0  0
 14 18  1  0  0  0
 14 21  1  0  0  0
 14 39  1  0  0  0
 18 40  1  0  0  0
 20 41  1  0  0  0
 21 42  1  0  0  0
M  END
> <s_m_source_file>
../3jzb_ligand.sdf

> <i_m_source_file_index>
1

> <s_epik_input>
W09IXVtDSF0oW09IXSlbQ0gyXVtDQEhdMVtDSDJdW0NASF0oSSlbQ0BASF0oW0NASF0oSSlbQ0gyXTEpT1tDSF0yW0NIXT1DKEkpW0NAQEhdKFtPSF0pW0NIMl1bQ0gyXTI=

> <s_epik_cmdline>
J2VwaWtfYXBwJywgJy1pbWFlJywgJ2xpZ2FuZF9wcm8ubWFlJywgJy1vbWFlJywgJ2xpZ2FuZF9wcmVwLm1hZScsICctbXMnLCAnMScsICctcGgnLCAnNycsICctcGh0JywgJzAuNScsICctbnQn

> <r_lp_tautomer_probability>
1

> <r_epik_Ionization_Penalty>
  0.0001

> <r_epik_Ionization_Penalty_Charging>
  0.0000

> <r_epik_Ionization_Penalty_Neutral>
  0.0001

> <r_epik_State_Penalty>
 -0.0000

> <r_epik_Charging_Adjusted_Penalty>
0

> <i_epik_Tot_Q>
0

> <i_epik_Tot_abs_Q>
0

> <s_epik_Chemistry_Notes>
This compound contains an acetal/aminal-like group ( X-CH(R)-Y where X, Y are N, S, or O) that may be acid/base labile, releasing an aldehyde.

$$$$
