3jzc_ligand
                    3D
 Schrodinger Suite 2020-3.
 29 30  0  0  1  0            999 V2000
  -15.1780  -16.1660  -27.1220 C   0  0  0  0  0  0
  -14.1820  -12.1380  -29.7980 C   0  0  0  0  0  0
  -14.7800  -16.2920  -28.4460 C   0  0  0  0  0  0
  -13.6610  -11.4270  -30.8670 C   0  0  0  0  0  0
  -14.1640  -15.2250  -29.1020 C   0  0  0  0  0  0
  -14.4820  -10.6100  -31.6330 C   0  0  0  0  0  0
  -13.9630  -14.0110  -28.4400 C   0  0  0  0  0  0
  -15.8340  -10.5030  -31.3360 C   0  0  0  0  0  0
  -14.3880  -13.8850  -27.1200 C   0  0  0  0  0  0
  -16.3610  -11.2140  -30.2720 C   0  0  0  0  0  0
  -14.9870  -14.9570  -26.4690 C   0  0  0  0  0  0
  -15.5390  -12.0330  -29.5080 C   0  0  0  0  0  0
  -15.8870  -17.3080  -26.3710 C   0  0  0  0  0  0
  -15.0610  -18.5540  -26.0240 C   0  0  0  0  0  0
  -13.5550  -15.4750  -31.1120 I   0  0  0  0  0  0
  -13.6400   -9.5340  -33.2320 I   0  0  0  0  0  0
  -14.0740  -12.0760  -26.0930 I   0  0  0  0  0  0
  -13.8870  -18.3880  -25.6230 O   0  0  0  0  0  0
  -13.3600  -12.9450  -29.0620 O   0  0  0  0  0  0
  -16.6350   -9.7060  -32.0820 O   0  0  0  0  0  0
  -15.6830  -19.6470  -26.0880 O   0  5  0  0  0  0
  -14.9495  -17.2292  -28.9761 H   0  0  0  0  0  0
  -12.6012  -11.5094  -31.1080 H   0  0  0  0  0  0
  -17.4213  -11.1314  -30.0333 H   0  0  0  0  0  0
  -15.3103  -14.8466  -25.4339 H   0  0  0  0  0  0
  -15.9599  -12.5972  -28.6757 H   0  0  0  0  0  0
  -16.2647  -16.9344  -25.4078 H   0  0  0  0  0  0
  -16.7279  -17.6782  -26.9759 H   0  0  0  0  0  0
  -16.2153   -9.1412  -32.9275 H   0  0  0  0  0  0
  1  3  2  0  0  0
  1 11  1  0  0  0
  1 13  1  0  0  0
  2  4  2  0  0  0
  2 12  1  0  0  0
  2 19  1  0  0  0
  3  5  1  0  0  0
  3 22  1  0  0  0
  4  6  1  0  0  0
  4 23  1  0  0  0
  5  7  2  0  0  0
  5 15  1  0  0  0
  6  8  2  0  0  0
  6 16  1  0  0  0
  7  9  1  0  0  0
  7 19  1  0  0  0
  8 10  1  0  0  0
  8 20  1  0  0  0
  9 11  2  0  0  0
  9 17  1  0  0  0
 10 12  2  0  0  0
 10 24  1  0  0  0
 11 25  1  0  0  0
 12 26  1  0  0  0
 13 14  1  0  0  0
 13 27  1  0  0  0
 13 28  1  0  0  0
 14 18  2  0  0  0
 14 21  1  0  0  0
 20 29  1  0  0  0
M  CHG  1  21  -1
M  END
> <s_m_source_file>
../3jzc_ligand.sdf

> <i_m_source_file_index>
1

> <s_epik_input>
Tz1DKFtPSF0pW0NIMl1jMVtjSF1jKEkpYyhjKEkpW2NIXTEpT2MyW2NIXWMoSSljKFtPSF0pW2NIXVtjSF0y

> <s_epik_cmdline>
J2VwaWtfYXBwJywgJy1pbWFlJywgJ2xpZ2FuZF9wcm8ubWFlJywgJy1vbWFlJywgJ2xpZ2FuZF9wcmVwLm1hZScsICctbXMnLCAnMScsICctcGgnLCAnNycsICctcGh0JywgJzAuNScsICctbnQn

> <r_lp_tautomer_probability>
1

> <r_epik_Ionization_Penalty>
  0.1130

> <r_epik_Ionization_Penalty_Charging>
  0.0003

> <r_epik_Ionization_Penalty_Neutral>
  0.1127

> <r_epik_State_Penalty>
  0.1024

> <r_epik_Charging_Adjusted_Penalty>
0.102726817600857

> <i_epik_Tot_Q>
-1

> <i_epik_Tot_abs_Q>
1

$$$$
