3jzf_ligand
                    3D
 Schrodinger Suite 2020-3.
 53 56  0  0  1  0            999 V2000
   39.9820  -27.6550   36.7180 N   0  0  0  0  0  0
   40.1150  -26.2650   36.5810 C   0  0  0  0  0  0
   40.9710  -25.7210   35.8460 O   0  0  0  0  0  0
   39.0290  -25.4170   37.2110 C   0  0  0  0  0  0
   39.1520  -23.9970   37.1780 C   0  0  0  0  0  0
   38.1470  -23.0000   37.6620 C   0  0  0  0  0  0
   36.9990  -23.7620   38.2120 C   0  0  0  0  0  0
   35.8270  -23.2900   38.7690 N   0  0  0  0  0  0
   35.3700  -21.9010   38.7320 C   0  0  0  0  0  0
   34.4470  -21.6970   37.5120 C   0  0  0  0  0  0
   33.6200  -20.4390   37.7710 C   0  0  0  0  0  0
   34.2450  -19.1770   37.1830 C   0  0  0  0  0  0
   34.5900  -19.2830   35.6920 C   0  0  0  0  0  0
   34.6090  -20.7220   35.1540 C   0  0  0  0  0  0
   35.2950  -21.6080   36.2130 C   0  0  0  0  0  0
   35.0690  -24.3610   39.1520 C   0  0  0  0  0  0
   33.8710  -24.1730   39.7400 N   0  0  0  0  0  0
   33.2170  -25.2700   40.4110 C   0  0  0  0  0  0
   33.7590  -25.6410   41.7890 C   0  0  0  0  0  0
   34.4820  -24.7670   42.6420 C   0  0  0  0  0  0
   34.9130  -25.2450   43.9210 C   0  0  0  0  0  0
   34.6340  -26.5750   44.3540 C   0  0  0  0  0  0
   33.9190  -27.4460   43.5110 C   0  0  0  0  0  0
   33.4940  -26.9670   42.2390 C   0  0  0  0  0  0
   32.6250  -28.0110   41.1810 Cl  0  0  0  0  0  0
   35.6730  -25.4870   38.8410 N   0  0  0  0  0  0
   36.8480  -25.1590   38.2600 C   0  0  0  0  0  0
   37.8530  -26.0050   37.7620 C   0  0  0  0  0  0
   40.7378  -28.3254   36.2828 H   0  0  0  0  0  0
   39.1220  -28.0744   37.2606 H   0  0  0  0  0  0
   40.0738  -23.5962   36.7564 H   0  0  0  0  0  0
   38.2408  -21.9149   37.6186 H   0  0  0  0  0  0
   34.8155  -21.6728   39.6542 H   0  0  0  0  0  0
   36.2388  -21.2312   38.6513 H   0  0  0  0  0  0
   33.7516  -22.5390   37.3794 H   0  0  0  0  0  0
   32.6231  -20.5565   37.3212 H   0  0  0  0  0  0
   33.5171  -20.2846   38.8552 H   0  0  0  0  0  0
   33.5452  -18.3355   37.2936 H   0  0  0  0  0  0
   35.1801  -18.9486   37.7154 H   0  0  0  0  0  0
   33.8459  -18.7268   35.1030 H   0  0  0  0  0  0
   35.5892  -18.8580   35.5157 H   0  0  0  0  0  0
   33.5774  -21.0621   34.9801 H   0  0  0  0  0  0
   35.1694  -20.7524   34.2080 H   0  0  0  0  0  0
   36.2789  -21.1751   36.4464 H   0  0  0  0  0  0
   35.4282  -22.6156   35.7923 H   0  0  0  0  0  0
   33.3918  -23.1834   39.7084 H   0  0  0  0  0  0
   32.1543  -25.0278   40.5596 H   0  0  0  0  0  0
   33.3035  -26.1790   39.7976 H   0  0  0  0  0  0
   34.7058  -23.7474   42.3282 H   0  0  0  0  0  0
   35.4676  -24.5765   44.5795 H   0  0  0  0  0  0
   34.9728  -26.9150   45.3326 H   0  0  0  0  0  0
   33.6953  -28.4655   43.8250 H   0  0  0  0  0  0
   37.7360  -27.0882   37.7962 H   0  0  0  0  0  0
  1  2  1  0  0  0
  1 29  1  0  0  0
  1 30  1  0  0  0
  2  3  2  0  0  0
  2  4  1  0  0  0
  4  5  1  0  0  0
  4 28  2  0  0  0
  5  6  2  0  0  0
  5 31  1  0  0  0
  6  7  1  0  0  0
  6 32  1  0  0  0
  7  8  1  0  0  0
  7 27  2  0  0  0
  8  9  1  0  0  0
  8 16  1  0  0  0
  9 10  1  0  0  0
  9 33  1  0  0  0
  9 34  1  0  0  0
 10 11  1  0  0  0
 10 15  1  0  0  0
 10 35  1  0  0  0
 11 12  1  0  0  0
 11 36  1  0  0  0
 11 37  1  0  0  0
 12 13  1  0  0  0
 12 38  1  0  0  0
 12 39  1  0  0  0
 13 14  1  0  0  0
 13 40  1  0  0  0
 13 41  1  0  0  0
 14 15  1  0  0  0
 14 42  1  0  0  0
 14 43  1  0  0  0
 15 44  1  0  0  0
 15 45  1  0  0  0
 16 17  1  0  0  0
 16 26  2  0  0  0
 17 18  1  0  0  0
 17 46  1  0  0  0
 18 19  1  0  0  0
 18 47  1  0  0  0
 18 48  1  0  0  0
 19 20  2  0  0  0
 19 24  1  0  0  0
 20 21  1  0  0  0
 20 49  1  0  0  0
 21 22  2  0  0  0
 21 50  1  0  0  0
 22 23  1  0  0  0
 22 51  1  0  0  0
 23 24  2  0  0  0
 23 52  1  0  0  0
 24 25  1  0  0  0
 26 27  1  0  0  0
 27 28  1  0  0  0
 28 53  1  0  0  0
M  END
> <s_m_source_file>
../3jzf_ligand.sdf

> <i_m_source_file_index>
1

> <s_epik_input>
W0NIMl0xW0NIMl1bQ0gyXVtDSDJdW0NIMl1bQ0hdMVtDSDJdbjJjKG5jKGMyMylbY0hdYyhDKD1PKVtOSDJdKVtjSF1bY0hdMylbTkhdW0NIMl1jNFtjSF1bY0hdW2NIXVtjSF1jNENs

> <s_epik_cmdline>
J2VwaWtfYXBwJywgJy1pbWFlJywgJ2xpZ2FuZF9wcm8ubWFlJywgJy1vbWFlJywgJ2xpZ2FuZF9wcmVwLm1hZScsICctbXMnLCAnMScsICctcGgnLCAnNycsICctcGh0JywgJzAuNScsICctbnQn

> <r_epik_Ionization_Penalty>
  0.2552

> <r_epik_Ionization_Penalty_Charging>
  0.0000

> <r_epik_Ionization_Penalty_Neutral>
  0.2552

> <r_epik_State_Penalty>
  0.2467

> <r_epik_Charging_Adjusted_Penalty>
0.246689105524431

> <i_epik_Tot_Q>
0

> <i_epik_Tot_abs_Q>
0

$$$$
