3jzh_ligand
                    3D
 Schrodinger Suite 2020-3.
 92 92  0  0  1  0            999 V2000
   21.6060    6.3190  -26.2990 N   0  3  0  0  0  0
   20.2710    6.9640  -26.2520 C   0  0  2  0  0  0
   20.1640    8.4390  -26.7600 C   0  0  0  0  0  0
   20.6760    9.3430  -26.1250 O   0  0  0  0  0  0
   19.7880    6.8800  -24.8200 C   0  0  0  0  0  0
   18.3640    7.2800  -24.6870 C   0  0  0  0  0  0
   17.6420    7.2150  -25.7320 O   0  5  0  0  0  0
   17.9490    7.6700  -23.5550 O   0  0  0  0  0  0
   19.4270    8.6470  -27.8610 N   0  0  0  0  0  0
   19.2960    9.9010  -28.6660 C   0  0  2  0  0  0
   18.1430   10.8050  -28.0820 C   0  0  0  0  0  0
   17.0520   10.3010  -27.8270 O   0  0  0  0  0  0
   18.8840    9.4700  -30.1090 C   0  0  0  0  0  0
   19.9290    9.6900  -31.2470 C   0  0  0  0  0  0
   21.3430    9.7410  -31.0150 C   0  0  0  0  0  0
   19.4610    9.7930  -32.6070 C   0  0  0  0  0  0
   22.2780    9.9320  -32.1330 C   0  0  0  0  0  0
   20.3660    9.9940  -33.7290 C   0  0  0  0  0  0
   21.7660   10.0580  -33.4930 C   0  0  0  0  0  0
   18.3740   12.1130  -27.8840 N   0  0  0  0  0  0
   17.3300   13.0570  -27.3810 C   0  0  1  0  0  0
   17.8750   14.3360  -26.6880 C   0  0  0  0  0  0
   16.7980   15.1740  -25.9720 C   0  0  0  0  0  0
   17.2470   16.5260  -25.3950 C   0  0  0  0  0  0
   16.1340   17.2780  -24.6190 C   0  0  0  0  0  0
   16.5730   18.5190  -23.9080 N   0  3  0  0  0  0
   16.3990   13.4150  -28.5260 C   0  0  0  0  0  0
   15.2310   13.7690  -28.3410 O   0  0  0  0  0  0
   17.2930   18.2800  -22.6270 C   0  0  0  0  0  0
   15.3410   19.2220  -23.5270 C   0  0  0  0  0  0
   17.4110   19.3380  -24.8330 C   0  0  0  0  0  0
   16.9540   13.2500  -29.7240 N   0  0  0  0  0  0
   16.3640   13.6370  -31.0060 C   0  0  2  0  0  0
   16.6500   12.6260  -32.1590 C   0  0  0  0  0  0
   17.6440   11.9070  -32.1420 O   0  0  0  0  0  0
   16.9440   15.0070  -31.4070 C   0  0  2  0  0  0
   16.3060   15.4230  -32.5890 O   0  0  0  0  0  0
   18.5340   14.9550  -31.6510 C   0  0  0  0  0  0
   15.8160   12.6100  -33.1880 N   0  0  0  0  0  0
   16.1260   11.8020  -34.3830 C   0  0  2  0  0  0
   16.8640   12.5810  -35.4590 C   0  0  0  0  0  0
   17.3280   11.9610  -36.4120 O   0  0  0  0  0  0
   14.8540   11.1410  -34.9560 C   0  0  0  0  0  0
   13.5640   11.8310  -34.4880 C   0  0  0  0  0  0
   12.5140   11.1500  -34.4960 O   0  0  0  0  0  0
   13.5940   13.0280  -34.0900 O   0  5  0  0  0  0
   16.9964   13.8312  -35.3754 O   0  5  0  0  0  0
   21.9961    6.3580  -27.3268 H   0  0  0  0  0  0
   21.5178    5.2700  -25.9798 H   0  0  0  0  0  0
   22.2940    6.8507  -25.6253 H   0  0  0  0  0  0
   19.6734    6.3656  -26.9555 H   0  0  0  0  0  0
   19.8887    5.8457  -24.4592 H   0  0  0  0  0  0
   20.3922    7.5488  -24.1894 H   0  0  0  0  0  0
   18.8739    7.7433  -28.1567 H   0  0  0  0  0  0
   20.2615   10.4268  -28.6296 H   0  0  0  0  0  0
   18.6611    8.3929  -30.1203 H   0  0  0  0  0  0
   17.9909   10.0325  -30.4188 H   0  0  0  0  0  0
   21.7280    9.6372  -30.0006 H   0  0  0  0  0  0
   18.3912    9.7176  -32.8017 H   0  0  0  0  0  0
   23.3508    9.9793  -31.9463 H   0  0  0  0  0  0
   19.9736   10.0945  -34.7410 H   0  0  0  0  0  0
   22.4549   10.2008  -34.3256 H   0  0  0  0  0  0
   19.3856   12.4813  -28.1098 H   0  0  0  0  0  0
   16.7943   12.4928  -26.6034 H   0  0  0  0  0  0
   18.6205   14.0531  -25.9302 H   0  0  0  0  0  0
   18.3449   14.9881  -27.4390 H   0  0  0  0  0  0
   15.9848   15.4046  -26.6760 H   0  0  0  0  0  0
   16.3959   14.6045  -25.1211 H   0  0  0  0  0  0
   18.0814   16.3674  -24.6960 H   0  0  0  0  0  0
   17.5746   17.1835  -26.2138 H   0  0  0  0  0  0
   15.3421   17.5840  -25.3184 H   0  0  0  0  0  0
   15.7091   16.6139  -23.8519 H   0  0  0  0  0  0
   16.6617   17.6760  -21.9587 H   0  0  0  0  0  0
   17.5175   19.2440  -22.1472 H   0  0  0  0  0  0
   18.2318   17.7434  -22.8287 H   0  0  0  0  0  0
   14.7525   18.5882  -22.8473 H   0  0  0  0  0  0
   14.7498   19.4406  -24.4285 H   0  0  0  0  0  0
   15.5981   20.1637  -23.0198 H   0  0  0  0  0  0
   18.3217   18.7792  -25.0945 H   0  0  0  0  0  0
   17.6885   20.2807  -24.3387 H   0  0  0  0  0  0
   16.8403   19.5576  -25.7474 H   0  0  0  0  0  0
   17.9460   12.7755  -29.6960 H   0  0  0  0  0  0
   15.2829   13.6578  -30.8040 H   0  0  0  0  0  0
   16.6682   15.7529  -30.6470 H   0  0  0  0  0  0
   15.2106   15.5197  -32.6180 H   0  0  0  0  0  0
   19.0362   14.6298  -30.7279 H   0  0  0  0  0  0
   18.8948   15.9555  -31.9318 H   0  0  0  0  0  0
   18.7577   14.2441  -32.4601 H   0  0  0  0  0  0
   14.8896   13.2019  -33.1494 H   0  0  0  0  0  0
   16.8227   11.0377  -34.0083 H   0  0  0  0  0  0
   14.8804   11.1864  -36.0547 H   0  0  0  0  0  0
   14.8097   10.0903  -34.6335 H   0  0  0  0  0  0
  1  2  1  0  0  0
  1 48  1  0  0  0
  1 49  1  0  0  0
  1 50  1  0  0  0
  2  3  1  0  0  0
  2  5  1  0  0  0
  2 51  1  0  0  0
  3  4  2  0  0  0
  3  9  1  0  0  0
  5  6  1  0  0  0
  5 52  1  0  0  0
  5 53  1  0  0  0
  6  7  1  0  0  0
  6  8  2  0  0  0
  9 10  1  0  0  0
  9 54  1  0  0  0
 10 11  1  0  0  0
 10 13  1  0  0  0
 10 55  1  0  0  0
 11 12  2  0  0  0
 11 20  1  0  0  0
 13 14  1  0  0  0
 13 56  1  0  0  0
 13 57  1  0  0  0
 14 15  2  0  0  0
 14 16  1  0  0  0
 15 17  1  0  0  0
 15 58  1  0  0  0
 16 18  2  0  0  0
 16 59  1  0  0  0
 17 19  2  0  0  0
 17 60  1  0  0  0
 18 19  1  0  0  0
 18 61  1  0  0  0
 19 62  1  0  0  0
 20 21  1  0  0  0
 20 63  1  0  0  0
 21 22  1  0  0  0
 21 27  1  0  0  0
 21 64  1  0  0  0
 22 23  1  0  0  0
 22 65  1  0  0  0
 22 66  1  0  0  0
 23 24  1  0  0  0
 23 67  1  0  0  0
 23 68  1  0  0  0
 24 25  1  0  0  0
 24 69  1  0  0  0
 24 70  1  0  0  0
 25 26  1  0  0  0
 25 71  1  0  0  0
 25 72  1  0  0  0
 26 29  1  0  0  0
 26 30  1  0  0  0
 26 31  1  0  0  0
 27 28  2  0  0  0
 27 32  1  0  0  0
 29 73  1  0  0  0
 29 74  1  0  0  0
 29 75  1  0  0  0
 30 76  1  0  0  0
 30 77  1  0  0  0
 30 78  1  0  0  0
 31 79  1  0  0  0
 31 80  1  0  0  0
 31 81  1  0  0  0
 32 33  1  0  0  0
 32 82  1  0  0  0
 33 34  1  0  0  0
 33 36  1  0  0  0
 33 83  1  0  0  0
 34 35  2  0  0  0
 34 39  1  0  0  0
 36 37  1  0  0  0
 36 38  1  0  0  0
 36 84  1  0  0  0
 37 85  1  0  0  0
 38 86  1  0  0  0
 38 87  1  0  0  0
 38 88  1  0  0  0
 39 40  1  0  0  0
 39 89  1  0  0  0
 40 41  1  0  0  0
 40 43  1  0  0  0
 40 90  1  0  0  0
 41 42  2  0  0  0
 41 47  1  0  0  0
 43 44  1  0  0  0
 43 91  1  0  0  0
 43 92  1  0  0  0
 44 45  2  0  0  0
 44 46  1  0  0  0
M  CHG  5   1   1   7  -1  26   1  46  -1  47  -1
M  END
> <s_m_source_file>
../3jzh_ligand.sdf

> <i_m_source_file_index>
1

> <s_epik_input>
W2NIXTFbY0hdW2NIXVtjSF1bY0hdYzFbQ0gyXVtDQEhdKFtOSF1DKD1PKVtDQEBIXShbTkgzK10pW0NIMl1DKD1PKVtPSF0pQyg9TylbTkhdW0NAQEhdKFtDSDJdW0NIMl1bQ0gyXVtDSDJdW04rXShbQ0gzXSkoW0NIM10pW0NIM10pQyg9TylbTkhdW0NAQEhdKFtDQEhdKFtPSF0pW0NIM10pQyg9TylbTkhdW0NASF0oQyg9TylbT0hdKVtDSDJdQyg9TylbT0hd

> <s_epik_cmdline>
J2VwaWtfYXBwJywgJy1pbWFlJywgJ2xpZ2FuZF9wcm8ubWFlJywgJy1vbWFlJywgJ2xpZ2FuZF9wcmVwLm1hZScsICctbXMnLCAnMScsICctcGgnLCAnNycsICctcGh0JywgJzAuNScsICctbnQn

> <r_epik_Ionization_Penalty>
  0.0224

> <r_epik_Ionization_Penalty_Charging>
  0.0224

> <r_epik_Ionization_Penalty_Neutral>
  0.0000

> <r_epik_State_Penalty>
  0.0167

> <r_epik_Charging_Adjusted_Penalty>
0.0390964118007469

> <i_epik_Tot_Q>
-1

> <i_epik_Tot_abs_Q>
5

$$$$
