3jzi_ligand
                    3D
 Schrodinger Suite 2020-3.
 60 63  0  0  1  0            999 V2000
  -15.1330   -2.0860   -1.8480 N   0  0  0  0  0  0
  -15.2760   -1.9930   -0.4970 C   0  0  0  0  0  0
  -16.1540   -2.5870    0.1130 O   0  0  0  0  0  0
  -14.3240   -1.1100    0.2190 C   0  0  0  0  0  0
  -14.5980   -0.8590    1.5810 C   0  0  0  0  0  0
  -13.7900   -0.0110    2.3630 C   0  0  0  0  0  0
  -14.1360    0.1790    3.7150 N   0  0  0  0  0  0
  -12.6730    0.5530    1.6860 C   0  0  0  0  0  0
  -11.6900    1.3960    2.0710 N   0  0  0  0  0  0
  -11.5940    1.9870    3.3740 C   0  0  0  0  0  0
  -10.7160    1.3160    4.3720 C   0  0  2  0  0  0
  -10.6120    1.8320    5.8020 C   0  0  0  0  0  0
  -10.6320    0.6870    6.7860 C   0  0  0  0  0  0
  -11.4110   -0.4950    6.2780 C   0  0  0  0  0  0
  -10.6190   -1.4790    5.4190 C   0  0  0  0  0  0
   -9.6120   -0.9610    4.3690 C   0  0  0  0  0  0
   -9.5550    0.4880    3.8840 C   0  0  2  0  0  0
   -8.3060    1.1370    4.2190 O   0  0  0  0  0  0
  -10.8460    1.6360    1.0130 C   0  0  0  0  0  0
   -9.7810    2.4690    1.1850 N   0  0  0  0  0  0
   -9.0000    2.9530    0.1020 C   0  0  0  0  0  0
   -9.6430    4.1030   -0.6160 C   0  0  0  0  0  0
  -10.4530    5.0780    0.0580 C   0  0  0  0  0  0
  -11.0300    6.1410   -0.6710 C   0  0  0  0  0  0
  -10.8070    6.2610   -2.0600 C   0  0  0  0  0  0
  -10.0090    5.3020   -2.7340 C   0  0  0  0  0  0
   -9.4260    4.2290   -2.0100 C   0  0  0  0  0  0
   -8.4580    3.0750   -2.8710 Cl  0  0  0  0  0  0
  -11.2410    0.9590   -0.0370 N   0  3  0  0  0  0
  -12.3640    0.3050    0.3500 C   0  0  0  0  0  0
  -13.1850   -0.5440   -0.4020 C   0  0  0  0  0  0
  -15.8118   -2.7266   -2.4301 H   0  0  0  0  0  0
  -14.3387   -1.5205   -2.3572 H   0  0  0  0  0  0
  -15.4625   -1.3368    2.0420 H   0  0  0  0  0  0
  -15.0289   -0.3126    4.1285 H   0  0  0  0  0  0
  -13.5133    0.8190    4.3574 H   0  0  0  0  0  0
  -11.2015    3.0107    3.2843 H   0  0  0  0  0  0
  -12.5910    2.0159    3.8379 H   0  0  0  0  0  0
  -11.5179    0.5721    4.4880 H   0  0  0  0  0  0
   -9.6709    2.3884    5.9235 H   0  0  0  0  0  0
  -11.4615    2.4977    6.0143 H   0  0  0  0  0  0
   -9.6020    0.3547    6.9828 H   0  0  0  0  0  0
  -11.0959    1.0196    7.7263 H   0  0  0  0  0  0
  -11.8025   -1.0698    7.1303 H   0  0  0  0  0  0
  -12.2483   -0.1431    5.6575 H   0  0  0  0  0  0
  -10.0117   -2.1265    6.0686 H   0  0  0  0  0  0
  -11.3152   -2.0970    4.8330 H   0  0  0  0  0  0
   -8.5868   -1.1168    4.7361 H   0  0  0  0  0  0
   -9.7510   -1.5096    3.4257 H   0  0  0  0  0  0
   -9.5811    0.4645    2.7846 H   0  0  0  0  0  0
   -8.1346    2.1837    3.9274 H   0  0  0  0  0  0
   -9.5355    2.7650    2.2156 H   0  0  0  0  0  0
   -8.0250    3.2967    0.4779 H   0  0  0  0  0  0
   -8.8471    2.1457   -0.6294 H   0  0  0  0  0  0
  -10.6225    4.9979    1.1317 H   0  0  0  0  0  0
  -11.6521    6.8742   -0.1576 H   0  0  0  0  0  0
  -11.2478    7.0900   -2.6137 H   0  0  0  0  0  0
   -9.8432    5.3887   -3.8078 H   0  0  0  0  0  0
  -12.9519   -0.7644   -1.4437 H   0  0  0  0  0  0
  -10.6679    1.0139   -0.9743 H   0  0  0  0  0  0
  1  2  1  0  0  0
  1 32  1  0  0  0
  1 33  1  0  0  0
  2  3  2  0  0  0
  2  4  1  0  0  0
  4  5  1  0  0  0
  4 31  2  0  0  0
  5  6  2  0  0  0
  5 34  1  0  0  0
  6  7  1  0  0  0
  6  8  1  0  0  0
  7 35  1  0  0  0
  7 36  1  0  0  0
  8  9  1  0  0  0
  8 30  2  0  0  0
  9 10  1  0  0  0
  9 19  1  0  0  0
 10 11  1  0  0  0
 10 37  1  0  0  0
 10 38  1  0  0  0
 11 12  1  0  0  0
 11 17  1  0  0  0
 11 39  1  0  0  0
 12 13  1  0  0  0
 12 40  1  0  0  0
 12 41  1  0  0  0
 13 14  1  0  0  0
 13 42  1  0  0  0
 13 43  1  0  0  0
 14 15  1  0  0  0
 14 44  1  0  0  0
 14 45  1  0  0  0
 15 16  1  0  0  0
 15 46  1  0  0  0
 15 47  1  0  0  0
 16 17  1  0  0  0
 16 48  1  0  0  0
 16 49  1  0  0  0
 17 18  1  0  0  0
 17 50  1  0  0  0
 18 51  1  0  0  0
 19 20  1  0  0  0
 19 29  2  0  0  0
 20 21  1  0  0  0
 20 52  1  0  0  0
 21 22  1  0  0  0
 21 53  1  0  0  0
 21 54  1  0  0  0
 22 23  2  0  0  0
 22 27  1  0  0  0
 23 24  1  0  0  0
 23 55  1  0  0  0
 24 25  2  0  0  0
 24 56  1  0  0  0
 25 26  1  0  0  0
 25 57  1  0  0  0
 26 27  2  0  0  0
 26 58  1  0  0  0
 27 28  1  0  0  0
 29 30  1  0  0  0
 29 60  1  0  0  0
 30 31  1  0  0  0
 31 59  1  0  0  0
M  CHG  1  29   1
M  END
> <s_m_source_file>
../3jzi_ligand.sdf

> <i_m_source_file_index>
1

> <s_epik_input>
Q2xjMVtjSF1bY0hdW2NIXVtjSF1jMVtDSDJdW05IXWMobmMoYzIzKVtjSF1jKEMoPU8pW05IMl0pW2NIXWMyW05IMl0pbjNbQ0gyXVtDQEBIXTRbQ0gyXVtDSDJdW0NIMl1bQ0gyXVtDSDJdW0NAQEhdNFtPSF0=

> <s_epik_cmdline>
J2VwaWtfYXBwJywgJy1pbWFlJywgJ2xpZ2FuZF9wcm8ubWFlJywgJy1vbWFlJywgJ2xpZ2FuZF9wcmVwLm1hZScsICctbXMnLCAnMScsICctcGgnLCAnNycsICctcGh0JywgJzAuNScsICctbnQn

> <r_epik_Ionization_Penalty>
  0.0978

> <r_epik_Ionization_Penalty_Charging>
  0.0977

> <r_epik_Ionization_Penalty_Neutral>
  0.0000

> <r_epik_State_Penalty>
  0.0879

> <r_epik_Charging_Adjusted_Penalty>
0.185599578272133

> <i_epik_Tot_Q>
1

> <i_epik_Tot_abs_Q>
1

$$$$
