3jzj_ligand
                    3D
 Schrodinger Suite 2020-3.
 88 91  0  0  1  0            999 V2000
   -6.0420  -11.6920   22.0660 C   0  0  2  0  0  0
   -5.2600  -12.6370   21.1710 C   0  0  1  0  0  0
   -5.6700  -12.3930   19.7070 C   0  0  2  0  0  0
   -7.1690  -12.7090   19.5240 C   0  0  1  0  0  0
   -8.0380  -12.2100   20.6470 C   0  0  0  0  0  0
   -9.5270  -12.1680   20.3750 C   0  0  0  0  0  0
   -7.5200  -11.8330   21.8210 C   0  0  0  0  0  0
   -3.8390  -12.4280   21.3010 O   0  0  0  0  0  0
   -4.8460  -13.1240   18.7690 O   0  0  0  0  0  0
   -7.6040  -12.1590   18.2570 O   0  0  0  0  0  0
  -10.3360  -11.7450   21.4930 O   0  0  0  0  0  0
   -4.5980   -6.7660   23.9230 C   0  0  2  0  0  0
   -3.7890   -7.9900   24.3240 C   0  0  1  0  0  0
   -3.8910   -8.9920   23.1810 C   0  0  2  0  0  0
   -5.3420   -9.4350   23.0530 C   0  0  1  0  0  0
   -6.2490   -8.2080   22.9010 C   0  0  1  0  0  0
   -7.7240   -8.5720   23.1490 C   0  0  0  0  0  0
   -5.5310  -10.3080   21.8860 N   0  3  0  0  0  0
   -2.4350   -7.6590   24.6230 O   0  0  0  0  0  0
   -3.1000  -10.1810   23.3960 O   0  0  0  0  0  0
   -5.9650   -7.2100   23.8940 O   0  0  0  0  0  0
   -4.2140   -2.6780   20.4680 C   0  0  2  0  0  0
   -3.0140   -2.9620   21.3470 C   0  0  1  0  0  0
   -2.9370   -4.4540   21.6900 C   0  0  2  0  0  0
   -4.2280   -4.8550   22.3780 C   0  0  1  0  0  0
   -5.3940   -4.5070   21.4620 C   0  0  1  0  0  0
   -6.7320   -4.7780   22.1450 C   0  0  0  0  0  0
   -1.8450   -2.5070   20.6680 O   0  0  0  0  0  0
   -1.8450   -4.6210   22.5750 O   0  0  0  0  0  0
   -4.1280   -6.2500   22.6310 O   0  0  0  0  0  0
   -5.3850   -3.1160   21.1120 O   0  0  0  0  0  0
   -7.8250   -4.6390   21.1900 O   0  0  0  0  0  0
   -4.1030   -2.6350   15.1440 C   0  0  1  0  0  0
   -3.3320   -1.6570   15.9970 C   0  0  1  0  0  0
   -3.0410   -2.2360   17.3670 C   0  0  2  0  0  0
   -4.3590   -2.6120   18.0290 C   0  0  1  0  0  0
   -5.2370   -3.4850   17.1480 C   0  0  1  0  0  0
   -6.6510   -3.6990   17.7060 C   0  0  0  0  0  0
   -3.3370   -3.8050   15.0840 O   0  0  0  0  0  0
   -2.0960   -1.2480   15.3730 O   0  0  0  0  0  0
   -2.3730   -1.2460   18.1530 O   0  0  0  0  0  0
   -4.0600   -3.3850   19.2310 O   0  0  0  0  0  0
   -5.3640   -2.9470   15.7900 O   0  0  0  0  0  0
   -7.2850   -2.4180   17.6550 O   0  0  0  0  0  0
   -5.8930  -11.9320   23.1291 H   0  0  0  0  0  0
   -5.4298  -13.6739   21.4966 H   0  0  0  0  0  0
   -5.4559  -11.3502   19.4299 H   0  0  0  0  0  0
   -7.3245  -13.7975   19.4929 H   0  0  0  0  0  0
   -9.7300  -11.4651   19.5536 H   0  0  0  0  0  0
   -9.8767  -13.1721   20.0932 H   0  0  0  0  0  0
   -8.1843  -11.6081   22.6684 H   0  0  0  0  0  0
   -3.3515  -12.5554   22.2788 H   0  0  0  0  0  0
   -3.7533  -12.9981   18.7825 H   0  0  0  0  0  0
   -7.0731  -12.4244   17.3309 H   0  0  0  0  0  0
  -11.4294  -11.6840   21.3888 H   0  0  0  0  0  0
   -4.5325   -5.9080   24.6082 H   0  0  0  0  0  0
   -4.1292   -8.4146   25.2800 H   0  0  0  0  0  0
   -3.4792   -8.5270   22.2732 H   0  0  0  0  0  0
   -5.6065  -10.0288   23.9404 H   0  0  0  0  0  0
   -6.0462   -7.7845   21.9062 H   0  0  0  0  0  0
   -8.0384   -9.3402   22.4272 H   0  0  0  0  0  0
   -8.3488   -7.6751   23.0254 H   0  0  0  0  0  0
   -7.8388   -8.9607   24.1716 H   0  0  0  0  0  0
   -4.5366  -10.3424   21.4170 H   0  0  0  0  0  0
   -6.2209   -9.7433   21.2417 H   0  0  0  0  0  0
   -2.2083   -6.9449   25.4284 H   0  0  0  0  0  0
   -2.0097  -10.1016   23.5179 H   0  0  0  0  0  0
   -4.3511   -1.6078   20.2538 H   0  0  0  0  0  0
   -3.0494   -2.3828   22.2815 H   0  0  0  0  0  0
   -2.7428   -5.1043   20.8243 H   0  0  0  0  0  0
   -4.3914   -4.3857   23.3594 H   0  0  0  0  0  0
   -5.2726   -5.0818   20.5320 H   0  0  0  0  0  0
   -6.7366   -5.8009   22.5496 H   0  0  0  0  0  0
   -6.8776   -4.0589   22.9646 H   0  0  0  0  0  0
   -1.7625   -1.4542   20.3601 H   0  0  0  0  0  0
   -0.8253   -4.3770   22.2424 H   0  0  0  0  0  0
   -8.8634   -4.8005   21.5152 H   0  0  0  0  0  0
   -4.2989   -2.2772   14.1224 H   0  0  0  0  0  0
   -3.9352   -0.7411   16.0824 H   0  0  0  0  0  0
   -2.3607   -3.0985   17.3106 H   0  0  0  0  0  0
   -4.8979   -1.6859   18.2777 H   0  0  0  0  0  0
   -4.7050   -4.4456   17.0830 H   0  0  0  0  0  0
   -7.1832   -4.4338   17.0841 H   0  0  0  0  0  0
   -6.5851   -4.0719   18.7388 H   0  0  0  0  0  0
   -2.3366   -3.7846   14.6270 H   0  0  0  0  0  0
   -2.1088   -0.8018   14.3676 H   0  0  0  0  0  0
   -1.3991   -0.8510   17.8282 H   0  0  0  0  0  0
   -8.3216   -2.3031   18.0046 H   0  0  0  0  0  0
  1  2  1  0  0  0
  1  7  1  0  0  0
  1 18  1  0  0  0
  1 45  1  0  0  0
  2  3  1  0  0  0
  2  8  1  0  0  0
  2 46  1  0  0  0
  3  4  1  0  0  0
  3  9  1  0  0  0
  3 47  1  0  0  0
  4  5  1  0  0  0
  4 10  1  0  0  0
  4 48  1  0  0  0
  5  6  1  0  0  0
  5  7  2  0  0  0
  6 11  1  0  0  0
  6 49  1  0  0  0
  6 50  1  0  0  0
  7 51  1  0  0  0
  8 52  1  0  0  0
  9 53  1  0  0  0
 10 54  1  0  0  0
 11 55  1  0  0  0
 12 13  1  0  0  0
 12 21  1  0  0  0
 12 30  1  0  0  0
 12 56  1  0  0  0
 13 14  1  0  0  0
 13 19  1  0  0  0
 13 57  1  0  0  0
 14 15  1  0  0  0
 14 20  1  0  0  0
 14 58  1  0  0  0
 15 16  1  0  0  0
 15 18  1  0  0  0
 15 59  1  0  0  0
 16 17  1  0  0  0
 16 21  1  0  0  0
 16 60  1  0  0  0
 17 61  1  0  0  0
 17 62  1  0  0  0
 17 63  1  0  0  0
 18 64  1  0  0  0
 18 65  1  0  0  0
 19 66  1  0  0  0
 20 67  1  0  0  0
 22 23  1  0  0  0
 22 31  1  0  0  0
 22 42  1  0  0  0
 22 68  1  0  0  0
 23 24  1  0  0  0
 23 28  1  0  0  0
 23 69  1  0  0  0
 24 25  1  0  0  0
 24 29  1  0  0  0
 24 70  1  0  0  0
 25 26  1  0  0  0
 25 30  1  0  0  0
 25 71  1  0  0  0
 26 27  1  0  0  0
 26 31  1  0  0  0
 26 72  1  0  0  0
 27 32  1  0  0  0
 27 73  1  0  0  0
 27 74  1  0  0  0
 28 75  1  0  0  0
 29 76  1  0  0  0
 32 77  1  0  0  0
 33 34  1  0  0  0
 33 39  1  0  0  0
 33 43  1  0  0  0
 33 78  1  0  0  0
 34 35  1  0  0  0
 34 40  1  0  0  0
 34 79  1  0  0  0
 35 36  1  0  0  0
 35 41  1  0  0  0
 35 80  1  0  0  0
 36 37  1  0  0  0
 36 42  1  0  0  0
 36 81  1  0  0  0
 37 38  1  0  0  0
 37 43  1  0  0  0
 37 82  1  0  0  0
 38 44  1  0  0  0
 38 83  1  0  0  0
 38 84  1  0  0  0
 39 85  1  0  0  0
 40 86  1  0  0  0
 41 87  1  0  0  0
 44 88  1  0  0  0
M  CHG  1  18   1
M  END
> <s_m_source_file>
../3jzj_ligand.sdf

> <i_m_source_file_index>
1

> <s_epik_input>
W09IXVtDSDJdQyg9W0NIXTEpW0NAQEhdKFtPSF0pW0NASF0oW09IXSlbQ0BASF0oW09IXSlbQ0BIXTFbTkgyK11bQ0BIXShbQ0BIXShPMilbQ0gzXSlbQ0BIXShbT0hdKVtDQEBIXShbT0hdKVtDQEhdMk9bQ0BIXShbQ0BIXShPMylbQ0gyXVtPSF0pW0NASF0oW09IXSlbQ0BASF0oW09IXSlbQ0BIXTNPW0NASF0oW0NASF0oTzQpW0NIMl1bT0hdKVtDQEhdKFtPSF0pW0NAQEhdKFtPSF0pW0NASF00W09IXQ==

> <s_epik_cmdline>
J2VwaWtfYXBwJywgJy1pbWFlJywgJ2xpZ2FuZF9wcm8ubWFlJywgJy1vbWFlJywgJ2xpZ2FuZF9wcmVwLm1hZScsICctbXMnLCAnMScsICctcGgnLCAnNycsICctcGh0JywgJzAuNScsICctbnQn

> <r_epik_Ionization_Penalty>
  0.1167

> <r_epik_Ionization_Penalty_Charging>
  0.1167

> <r_epik_Ionization_Penalty_Neutral>
  0.0001

> <r_epik_State_Penalty>
  0.1063

> <r_epik_Charging_Adjusted_Penalty>
0.222957502643002

> <i_epik_Tot_Q>
1

> <i_epik_Tot_abs_Q>
1

> <s_epik_Chemistry_Notes>
This compound contains an acetal/aminal-like group ( X-CH(R)-Y where X, Y are N, S, or O) that may be acid/base labile, releasing an aldehyde.

$$$$
