3jzk_ligand
                    3D
 Schrodinger Suite 2020-3.
 47 52  0  0  1  0            999 V2000
   10.0160  -15.8340   25.9040 C   0  0  0  0  0  0
   11.3370  -16.6150   24.0060 N   0  0  0  0  0  0
    6.7510  -15.3200   22.7390 O   0  0  0  0  0  0
   10.3610  -13.8190   30.0390 Br  0  0  0  0  0  0
    9.4980  -16.6000   27.0400 C   0  0  0  0  0  0
   13.0110  -16.4650   22.7090 N   0  0  0  0  0  0
    6.0780  -10.4650   27.3190 Br  0  0  0  0  0  0
    9.5530  -16.0100   28.3530 C   0  0  0  0  0  0
   10.8510  -15.3140   21.9490 N   0  0  0  0  0  0
   10.1260  -14.7080   28.3830 C   0  0  0  0  0  0
   12.2740  -17.2910   24.6340 N   0  0  0  0  0  0
   10.6280  -13.9280   27.3240 C   0  0  0  0  0  0
   10.5760  -14.5140   26.0360 C   0  0  0  0  0  0
    7.5570  -15.2740   23.9390 C   0  0  1  0  0  0
   13.3460  -17.1960   23.8070 C   0  0  0  0  0  0
    9.0140  -15.5700   23.5600 C   0  0  0  0  0  0
    9.9510  -16.4060   24.5430 C   0  0  2  0  0  0
   11.7460  -16.0910   22.8150 C   0  0  0  0  0  0
    9.4760  -15.1150   22.3550 C   0  0  0  0  0  0
    9.1340  -13.6140   20.3190 C   0  0  0  0  0  0
    8.1400  -12.9550   19.4880 C   0  0  0  0  0  0
    6.7380  -13.1050   19.7220 C   0  0  0  0  0  0
    6.2480  -13.9250   20.8090 C   0  0  0  0  0  0
    7.2080  -14.5800   21.6480 C   0  0  0  0  0  0
    8.6210  -14.4320   21.4110 C   0  0  0  0  0  0
    6.2730  -14.1710   25.6790 C   0  0  0  0  0  0
    7.3350  -13.9900   24.7200 C   0  0  0  0  0  0
    8.0400  -12.7240   24.5300 C   0  0  0  0  0  0
    7.6610  -11.5880   25.3260 C   0  0  0  0  0  0
    6.5900  -11.7940   26.2730 C   0  0  0  0  0  0
    5.8780  -13.0410   26.4820 C   0  0  0  0  0  0
    9.0795  -17.5959   26.8948 H   0  0  0  0  0  0
    9.1874  -16.5170   29.2460 H   0  0  0  0  0  0
   11.2280  -14.8920   21.0057 H   0  0  0  0  0  0
   11.0338  -12.9295   27.4863 H   0  0  0  0  0  0
   10.9514  -13.9780   25.1642 H   0  0  0  0  0  0
    7.1959  -16.0668   24.6106 H   0  0  0  0  0  0
   14.3250  -17.6374   23.9936 H   0  0  0  0  0  0
    9.5208  -17.4096   24.6761 H   0  0  0  0  0  0
   10.2027  -13.5028   20.1359 H   0  0  0  0  0  0
    8.4738  -12.3276   18.6616 H   0  0  0  0  0  0
    6.0274  -12.5942   19.0721 H   0  0  0  0  0  0
    5.1786  -14.0413   20.9849 H   0  0  0  0  0  0
    5.7818  -15.1373   25.7936 H   0  0  0  0  0  0
    8.8413  -12.6421   23.7957 H   0  0  0  0  0  0
    8.1558  -10.6225   25.2203 H   0  0  0  0  0  0
    5.0767  -13.1200   27.2167 H   0  0  0  0  0  0
  1  5  2  0  0  0
  1 13  1  0  0  0
  1 17  1  0  0  0
  2 11  1  0  0  0
  2 17  1  0  0  0
  2 18  1  0  0  0
  3 14  1  0  0  0
  3 24  1  0  0  0
  4 10  1  0  0  0
  5  8  1  0  0  0
  5 32  1  0  0  0
  6 15  1  0  0  0
  6 18  2  0  0  0
  7 30  1  0  0  0
  8 10  2  0  0  0
  8 33  1  0  0  0
  9 18  1  0  0  0
  9 19  1  0  0  0
  9 34  1  0  0  0
 10 12  1  0  0  0
 11 15  2  0  0  0
 12 13  2  0  0  0
 12 35  1  0  0  0
 13 36  1  0  0  0
 14 16  1  0  0  0
 14 27  1  0  0  0
 14 37  1  0  0  0
 15 38  1  0  0  0
 16 17  1  0  0  0
 16 19  2  0  0  0
 17 39  1  0  0  0
 19 25  1  0  0  0
 20 21  2  0  0  0
 20 25  1  0  0  0
 20 40  1  0  0  0
 21 22  1  0  0  0
 21 41  1  0  0  0
 22 23  2  0  0  0
 22 42  1  0  0  0
 23 24  1  0  0  0
 23 43  1  0  0  0
 24 25  2  0  0  0
 26 27  2  0  0  0
 26 31  1  0  0  0
 26 44  1  0  0  0
 27 28  1  0  0  0
 28 29  2  0  0  0
 28 45  1  0  0  0
 29 30  1  0  0  0
 29 46  1  0  0  0
 30 31  2  0  0  0
 31 47  1  0  0  0
M  END
> <s_m_source_file>
../3jzk_ligand.sdf

> <i_m_source_file_index>
1

> <s_epik_input>
W2NIXTFbY0hdYyhCcilbY0hdW2NIXWMxW0NASF0yQyg9QzNbTkhdYyhuMjQpbltjSF1uNClbQ0BASF0oYzVbY0hdW2NIXWMoQnIpW2NIXVtjSF01KU9jNmMzW2NIXVtjSF1bY0hdW2NIXTY=

> <s_epik_cmdline>
J2VwaWtfYXBwJywgJy1pbWFlJywgJ2xpZ2FuZF9wcm8ubWFlJywgJy1vbWFlJywgJ2xpZ2FuZF9wcmVwLm1hZScsICctbXMnLCAnMScsICctcGgnLCAnNycsICctcGh0JywgJzAuNScsICctbnQn

> <r_lp_tautomer_probability>
1

> <r_epik_Ionization_Penalty>
  0.0001

> <r_epik_Ionization_Penalty_Charging>
  0.0000

> <r_epik_Ionization_Penalty_Neutral>
  0.0001

> <r_epik_State_Penalty>
 -0.0000

> <r_epik_Charging_Adjusted_Penalty>
5.65700552693779e-15

> <i_epik_Tot_Q>
0

> <i_epik_Tot_abs_Q>
0

> <s_epik_Chemistry_Notes>
This compound has an imine and may undergo hydrolysis.

$$$$
