3jzo_ligand
                    3D
 Schrodinger Suite 2020-3.
204208  0  0  1  0            999 V2000
   23.8630    9.1910    5.9250 N   0  3  0  0  0  0
   24.8040    9.1600    7.0850 C   0  0  2  0  0  0
   23.9900    9.2290    8.3640 C   0  0  0  0  0  0
   24.5060    9.0050    9.4490 O   0  0  0  0  0  0
   25.7650   10.3570    7.0260 C   0  0  0  0  0  0
   26.7880   10.3380    5.8870 C   0  0  0  0  0  0
   27.5840   11.6460    5.8530 C   0  0  0  0  0  0
   27.7160    9.1530    6.0860 C   0  0  0  0  0  0
   22.7140    9.5590    8.2260 N   0  0  0  0  0  0
   21.8120    9.6340    9.3750 C   0  0  2  0  0  0
   20.7770    8.5130    9.2240 C   0  0  0  0  0  0
   20.5090    8.0570    8.1140 O   0  0  0  0  0  0
   21.0630   11.0040    9.4320 C   0  0  2  0  0  0
   20.1860   11.1370    8.3020 O   0  0  0  0  0  0
   22.0720   12.1750    9.4100 C   0  0  0  0  0  0
   20.2130    8.0560   10.3370 N   0  0  0  0  0  0
   19.1830    7.0210   10.2600 C   0  0  2  0  0  0
   18.0380    7.5410    9.3820 C   0  0  0  0  0  0
   17.5750    6.8400    8.4980 O   0  0  0  0  0  0
   18.6580    6.6810   11.6570 C   0  0  0  0  0  0
   17.4300    5.8060   11.6400 C   0  0  0  0  0  0
   17.5290    4.4670   11.3170 C   0  0  0  0  0  0
   16.1670    6.3610   11.8500 C   0  0  0  0  0  0
   16.3860    3.6740   11.1860 C   0  0  0  0  0  0
   15.0190    5.5870   11.7260 C   0  0  0  0  0  0
   15.1330    4.2280   11.3850 C   0  0  0  0  0  0
   17.5880    8.7740    9.6250 N   0  0  0  0  0  0
   16.4740    9.3470    8.8520 C   0  0  2  0  0  0
   16.7150    9.3190    7.3360 C   0  0  0  0  0  0
   15.7980    9.0310    6.5610 O   0  0  0  0  0  0
   16.1880   10.7950    9.2810 C   0  0  0  0  0  0
   16.1470   11.0090   10.7850 C   0  0  0  0  0  0
   17.5160   11.3860   11.3640 C   0  0  0  0  0  0
   17.8570   12.5950   11.3340 O   0  0  0  0  0  0
   18.2450   10.4780   11.8280 O   0  0  0  0  0  0
   17.9380    9.6410    6.9230 N   0  0  0  0  0  0
   18.3080    9.6410    5.5040 C   0  0  2  0  0  0
   18.0910    8.2590    4.8840 C   0  0  0  0  0  0
   17.4780    8.1370    3.8290 O   0  0  0  0  0  0
   19.7780   10.0430    5.3490 C   0  0  0  0  0  0
   20.3140    9.8360    3.9680 C   0  0  0  0  0  0
   20.0150   10.6780    2.9190 N   0  0  0  0  0  0
   21.0700    8.8360    3.4480 C   0  0  0  0  0  0
   20.5630   10.2050    1.8110 C   0  0  0  0  0  0
   21.2060    9.0870    2.1040 N   0  0  0  0  0  0
   18.6150    7.2260    5.5330 N   0  0  0  0  0  0
   18.4600    5.8430    5.0570 C   0  0  2  0  0  0
   17.0070    5.3810    5.1270 C   0  0  0  0  0  0
   16.4910    4.7950    4.1740 O   0  0  0  0  0  0
   19.3110    4.9090    5.9030 C   0  0  0  0  0  0
   20.7940    5.1670    5.7230 C   0  0  0  0  0  0
   21.5960    5.5360    6.7960 C   0  0  0  0  0  0
   21.3750    5.0690    4.4570 C   0  0  0  0  0  0
   22.9580    5.8080    6.6130 C   0  0  0  0  0  0
   22.7230    5.3370    4.2570 C   0  0  0  0  0  0
   23.5040    5.7040    5.3310 C   0  0  0  0  0  0
   24.8290    5.9620    5.1090 O   0  0  0  0  0  0
   16.3420    5.6740    6.2480 N   0  0  0  0  0  0
   14.9620    5.2420    6.4320 C   0  0  2  0  0  0
   13.9940    5.8160    5.3900 C   0  0  0  0  0  0
   13.1140    5.1190    4.8840 O   0  0  0  0  0  0
   14.4890    5.5690    7.8530 C   0  0  0  0  0  0
   13.1300    4.9830    8.1770 C   0  0  0  0  0  0
   11.9200    5.6100    8.1190 C   0  0  0  0  0  0
   12.8640    3.6270    8.5650 C   0  0  0  0  0  0
   10.9110    4.7270    8.4530 N   0  0  0  0  0  0
   11.4620    3.5020    8.7300 C   0  0  0  0  0  0
   13.6770    2.5060    8.7850 C   0  0  0  0  0  0
   10.8500    2.2970    9.1120 C   0  0  0  0  0  0
   13.0660    1.2950    9.1690 C   0  0  0  0  0  0
   11.6660    1.2060    9.3270 C   0  0  0  0  0  0
   14.1610    7.0870    5.0740 N   0  0  0  0  0  0
   13.2990    7.7520    4.1140 C   0  0  2  0  0  0
   13.3430    7.0640    2.7490 C   0  0  0  0  0  0
   12.3730    7.1330    1.9920 O   0  0  0  0  0  0
   13.7220    9.2210    3.9830 C   0  0  0  0  0  0
   14.4540    6.4010    2.4500 N   0  0  0  0  0  0
   14.6260    5.7120    1.1710 C   0  0  2  0  0  0
   13.6850    4.5420    0.9840 C   0  0  0  0  0  0
   13.4220    4.1380   -0.1480 O   0  0  0  0  0  0
   16.0560    5.1900    1.0210 C   0  0  0  0  0  0
   17.1260    6.2360    1.2390 C   0  0  0  0  0  0
   17.0360    7.3650    0.2320 C   0  0  0  0  0  0
   16.0040    8.0350    0.1280 O   0  0  0  0  0  0
   18.1200    7.5850   -0.5170 N   0  0  0  0  0  0
   13.1710    3.9930    2.0810 N   0  0  0  0  0  0
   12.2880    2.8510    1.9770 C   0  0  2  0  0  0
   10.9110    3.1430    1.3860 C   0  0  0  0  0  0
   10.2060    2.2200    1.0010 O   0  0  0  0  0  0
   12.1440    2.1750    3.3340 C   0  0  0  0  0  0
   13.4780    1.7350    3.9610 C   0  0  0  0  0  0
   13.1570    1.0390    5.2880 C   0  0  0  0  0  0
   14.2550    0.7970    3.0350 C   0  0  0  0  0  0
   10.5360    4.4080    1.3210 N   0  0  0  0  0  0
    9.2450    4.7780    0.7390 C   0  0  2  0  0  0
    9.4550    5.8430   -0.3240 C   0  0  0  0  0  0
   10.3920    6.6370   -0.2380 O   0  0  0  0  0  0
    8.2880    5.3400    1.7990 C   0  0  2  0  0  0
    8.9470    6.3940    2.5190 O   0  0  0  0  0  0
    7.8800    4.2430    2.7660 C   0  0  0  0  0  0
    8.5810    5.8460   -1.3280 N   0  0  0  0  0  0
    8.6530    6.8210   -2.4050 C   0  0  2  0  0  0
    8.0240    8.1290   -1.9450 C   0  0  0  0  0  0
    7.2550    8.1070   -0.9490 O   0  0  0  0  0  0
    7.9020    6.3060   -3.6320 C   0  0  0  0  0  0
    6.5100    6.2580   -3.3630 O   0  0  0  0  0  0
    8.2770    9.1630   -2.6040 O   0  0  0  0  0  0
   23.1825    8.3286    5.9818 H   0  0  0  0  0  0
   24.4357    9.1451    4.9870 H   0  0  0  0  0  0
   23.2780   10.1221    5.9522 H   0  0  0  0  0  0
   25.3779    8.2226    7.0416 H   0  0  0  0  0  0
   25.1875   11.2852    6.9035 H   0  0  0  0  0  0
   26.3460   10.4071    7.9587 H   0  0  0  0  0  0
   26.2695   10.2330    4.9226 H   0  0  0  0  0  0
   26.8948   12.4910    5.7083 H   0  0  0  0  0  0
   28.3052   11.6148    5.0230 H   0  0  0  0  0  0
   28.1237   11.7716    6.8033 H   0  0  0  0  0  0
   27.1260    8.2248    6.1076 H   0  0  0  0  0  0
   28.2564    9.2662    7.0374 H   0  0  0  0  0  0
   28.4379    9.1094    5.2572 H   0  0  0  0  0  0
   22.3378    9.7794    7.2161 H   0  0  0  0  0  0
   22.4445    9.5092   10.2663 H   0  0  0  0  0  0
   20.4158   11.0525   10.3201 H   0  0  0  0  0  0
   19.3891   10.3975    8.1342 H   0  0  0  0  0  0
   22.7525   12.0888   10.2699 H   0  0  0  0  0  0
   21.5277   13.1291    9.4674 H   0  0  0  0  0  0
   22.6537   12.1403    8.4771 H   0  0  0  0  0  0
   20.5198    8.4550   11.3151 H   0  0  0  0  0  0
   19.6533    6.1282    9.8221 H   0  0  0  0  0  0
   19.4363    6.1461   12.2210 H   0  0  0  0  0  0
   18.3945    7.6090   12.1856 H   0  0  0  0  0  0
   18.5122    4.0226   11.1621 H   0  0  0  0  0  0
   16.0795    7.4148   12.1146 H   0  0  0  0  0  0
   16.4809    2.6194   10.9272 H   0  0  0  0  0  0
   14.0373    6.0307   11.8920 H   0  0  0  0  0  0
   14.2392    3.6134   11.2778 H   0  0  0  0  0  0
   18.0663    9.3642   10.4205 H   0  0  0  0  0  0
   15.6338    8.6813    9.0988 H   0  0  0  0  0  0
   16.9724   11.4566    8.8846 H   0  0  0  0  0  0
   15.2102   11.1081    8.8862 H   0  0  0  0  0  0
   15.4449   11.8224   11.0206 H   0  0  0  0  0  0
   15.8148   10.0835   11.2781 H   0  0  0  0  0  0
   18.8321   12.9017   11.7404 H   0  0  0  0  0  0
   18.6826    9.9134    7.6855 H   0  0  0  0  0  0
   17.6463   10.3754    5.0214 H   0  0  0  0  0  0
   19.8935   11.1102    5.5891 H   0  0  0  0  0  0
   20.3961    9.4441    6.0340 H   0  0  0  0  0  0
   21.5418    7.9470    3.8920 H   0  0  0  0  0  0
   20.4957   10.6604    0.8230 H   0  0  0  0  0  0
   19.1799    7.4305    6.4544 H   0  0  0  0  0  0
   18.7963    5.8528    4.0097 H   0  0  0  0  0  0
   19.0655    5.0511    6.9658 H   0  0  0  0  0  0
   19.1077    3.8668    5.6159 H   0  0  0  0  0  0
   21.1602    5.6148    7.7920 H   0  0  0  0  0  0
   20.7576    4.7760    3.6079 H   0  0  0  0  0  0
   23.5827    6.0966    7.4583 H   0  0  0  0  0  0
   23.1584    5.2578    3.2609 H   0  0  0  0  0  0
   25.4795    6.2573    5.9454 H   0  0  0  0  0  0
   16.8484    6.2486    7.0376 H   0  0  0  0  0  0
   15.0118    4.1547    6.2729 H   0  0  0  0  0  0
   15.2080    5.1649    8.5808 H   0  0  0  0  0  0
   14.4187    6.6601    7.9741 H   0  0  0  0  0  0
   11.7708    6.6553    7.8486 H   0  0  0  0  0  0
   14.7581    2.5695    8.6618 H   0  0  0  0  0  0
    9.7692    2.2265    9.2342 H   0  0  0  0  0  0
   13.6835    0.4145    9.3465 H   0  0  0  0  0  0
   11.2212    0.2565    9.6247 H   0  0  0  0  0  0
   14.9774    7.6432    5.5579 H   0  0  0  0  0  0
   12.2822    7.6632    4.5241 H   0  0  0  0  0  0
   13.6856    9.7026    4.9713 H   0  0  0  0  0  0
   13.0367    9.7401    3.2967 H   0  0  0  0  0  0
   14.7469    9.2735    3.5870 H   0  0  0  0  0  0
   15.2594    6.3797    3.1989 H   0  0  0  0  0  0
   14.3791    6.4934    0.4372 H   0  0  0  0  0  0
   16.2333    4.3903    1.7552 H   0  0  0  0  0  0
   16.1966    4.7926    0.0050 H   0  0  0  0  0  0
   17.0183    6.6664    2.2455 H   0  0  0  0  0  0
   18.1183    5.7710    1.1433 H   0  0  0  0  0  0
   19.0154    6.9596   -0.3858 H   0  0  0  0  0  0
   18.1173    8.3916   -1.2650 H   0  0  0  0  0  0
   13.4184    4.4088    3.0689 H   0  0  0  0  0  0
   12.8203    2.2186    1.2512 H   0  0  0  0  0  0
   11.6676    2.8700    4.0411 H   0  0  0  0  0  0
   11.5220    1.2736    3.2305 H   0  0  0  0  0  0
   14.1222    2.6111    4.1268 H   0  0  0  0  0  0
   12.5992    1.7289    5.9383 H   0  0  0  0  0  0
   14.0938    0.7446    5.7836 H   0  0  0  0  0  0
   12.5475    0.1439    5.0945 H   0  0  0  0  0  0
   14.4752    1.3146    2.0897 H   0  0  0  0  0  0
   13.6510   -0.0993    2.8303 H   0  0  0  0  0  0
   15.1973    0.5014    3.5194 H   0  0  0  0  0  0
   11.2072    5.1874    1.7109 H   0  0  0  0  0  0
    8.8426    3.8482    0.3107 H   0  0  0  0  0  0
    7.3959    5.7868    1.3359 H   0  0  0  0  0  0
    9.3160    7.2800    1.9816 H   0  0  0  0  0  0
    7.3755    3.4364    2.2138 H   0  0  0  0  0  0
    7.1940    4.6557    3.5204 H   0  0  0  0  0  0
    8.7749    3.8421    3.2644 H   0  0  0  0  0  0
    7.7883    5.0834   -1.3286 H   0  0  0  0  0  0
    9.7208    6.9548   -2.6330 H   0  0  0  0  0  0
    6.7868    9.0373   -0.5950 H   0  0  0  0  0  0
    8.0835    6.9796   -4.4824 H   0  0  0  0  0  0
    8.2576    5.2956   -3.8822 H   0  0  0  0  0  0
    5.8117    5.9095   -4.1382 H   0  0  0  0  0  0
  1  2  1  0  0  0
  1108  1  0  0  0
  1109  1  0  0  0
  1110  1  0  0  0
  2  3  1  0  0  0
  2  5  1  0  0  0
  2111  1  0  0  0
  3  4  2  0  0  0
  3  9  1  0  0  0
  5  6  1  0  0  0
  5112  1  0  0  0
  5113  1  0  0  0
  6  7  1  0  0  0
  6  8  1  0  0  0
  6114  1  0  0  0
  7115  1  0  0  0
  7116  1  0  0  0
  7117  1  0  0  0
  8118  1  0  0  0
  8119  1  0  0  0
  8120  1  0  0  0
  9 10  1  0  0  0
  9121  1  0  0  0
 10 11  1  0  0  0
 10 13  1  0  0  0
 10122  1  0  0  0
 11 12  2  0  0  0
 11 16  1  0  0  0
 13 14  1  0  0  0
 13 15  1  0  0  0
 13123  1  0  0  0
 14124  1  0  0  0
 15125  1  0  0  0
 15126  1  0  0  0
 15127  1  0  0  0
 16 17  1  0  0  0
 16128  1  0  0  0
 17 18  1  0  0  0
 17 20  1  0  0  0
 17129  1  0  0  0
 18 19  2  0  0  0
 18 27  1  0  0  0
 20 21  1  0  0  0
 20130  1  0  0  0
 20131  1  0  0  0
 21 22  2  0  0  0
 21 23  1  0  0  0
 22 24  1  0  0  0
 22132  1  0  0  0
 23 25  2  0  0  0
 23133  1  0  0  0
 24 26  2  0  0  0
 24134  1  0  0  0
 25 26  1  0  0  0
 25135  1  0  0  0
 26136  1  0  0  0
 27 28  1  0  0  0
 27137  1  0  0  0
 28 29  1  0  0  0
 28 31  1  0  0  0
 28138  1  0  0  0
 29 30  2  0  0  0
 29 36  1  0  0  0
 31 32  1  0  0  0
 31139  1  0  0  0
 31140  1  0  0  0
 32 33  1  0  0  0
 32141  1  0  0  0
 32142  1  0  0  0
 33 34  1  0  0  0
 33 35  2  0  0  0
 34143  1  0  0  0
 36 37  1  0  0  0
 36144  1  0  0  0
 37 38  1  0  0  0
 37 40  1  0  0  0
 37145  1  0  0  0
 38 39  2  0  0  0
 38 46  1  0  0  0
 40 41  1  0  0  0
 40146  1  0  0  0
 40147  1  0  0  0
 41 42  2  0  0  0
 41 43  1  0  0  0
 42 44  1  0  0  0
 43 45  2  0  0  0
 43148  1  0  0  0
 44 45  1  0  0  0
 44149  1  0  0  0
 46 47  1  0  0  0
 46150  1  0  0  0
 47 48  1  0  0  0
 47 50  1  0  0  0
 47151  1  0  0  0
 48 49  2  0  0  0
 48 58  1  0  0  0
 50 51  1  0  0  0
 50152  1  0  0  0
 50153  1  0  0  0
 51 52  2  0  0  0
 51 53  1  0  0  0
 52 54  1  0  0  0
 52154  1  0  0  0
 53 55  2  0  0  0
 53155  1  0  0  0
 54 56  2  0  0  0
 54156  1  0  0  0
 55 56  1  0  0  0
 55157  1  0  0  0
 56 57  1  0  0  0
 57158  1  0  0  0
 58 59  1  0  0  0
 58159  1  0  0  0
 59 60  1  0  0  0
 59 62  1  0  0  0
 59160  1  0  0  0
 60 61  2  0  0  0
 60 72  1  0  0  0
 62 63  1  0  0  0
 62161  1  0  0  0
 62162  1  0  0  0
 63 64  2  0  0  0
 63 65  1  0  0  0
 64 66  1  0  0  0
 64163  1  0  0  0
 65 67  2  0  0  0
 65 68  1  0  0  0
 66 67  1  0  0  0
 67 69  1  0  0  0
 68 70  2  0  0  0
 68164  1  0  0  0
 69 71  2  0  0  0
 69165  1  0  0  0
 70 71  1  0  0  0
 70166  1  0  0  0
 71167  1  0  0  0
 72 73  1  0  0  0
 72168  1  0  0  0
 73 74  1  0  0  0
 73 76  1  0  0  0
 73169  1  0  0  0
 74 75  2  0  0  0
 74 77  1  0  0  0
 76170  1  0  0  0
 76171  1  0  0  0
 76172  1  0  0  0
 77 78  1  0  0  0
 77173  1  0  0  0
 78 79  1  0  0  0
 78 81  1  0  0  0
 78174  1  0  0  0
 79 80  2  0  0  0
 79 86  1  0  0  0
 81 82  1  0  0  0
 81175  1  0  0  0
 81176  1  0  0  0
 82 83  1  0  0  0
 82177  1  0  0  0
 82178  1  0  0  0
 83 84  2  0  0  0
 83 85  1  0  0  0
 85179  1  0  0  0
 85180  1  0  0  0
 86 87  1  0  0  0
 86181  1  0  0  0
 87 88  1  0  0  0
 87 90  1  0  0  0
 87182  1  0  0  0
 88 89  2  0  0  0
 88 94  1  0  0  0
 90 91  1  0  0  0
 90183  1  0  0  0
 90184  1  0  0  0
 91 92  1  0  0  0
 91 93  1  0  0  0
 91185  1  0  0  0
 92186  1  0  0  0
 92187  1  0  0  0
 92188  1  0  0  0
 93189  1  0  0  0
 93190  1  0  0  0
 93191  1  0  0  0
 94 95  1  0  0  0
 94192  1  0  0  0
 95 96  1  0  0  0
 95 98  1  0  0  0
 95193  1  0  0  0
 96 97  2  0  0  0
 96101  1  0  0  0
 98 99  1  0  0  0
 98100  1  0  0  0
 98194  1  0  0  0
 99195  1  0  0  0
100196  1  0  0  0
100197  1  0  0  0
100198  1  0  0  0
101102  1  0  0  0
101199  1  0  0  0
102103  1  0  0  0
102105  1  0  0  0
102200  1  0  0  0
103104  1  0  0  0
103107  2  0  0  0
104201  1  0  0  0
105106  1  0  0  0
105202  1  0  0  0
105203  1  0  0  0
106204  1  0  0  0
M  CHG  1   1   1
M  END
> <s_m_source_file>
../3jzo_ligand.sdf

> <i_m_source_file_index>
1

> <s_epik_input>
W0NIM11bQ0hdKFtDSDNdKVtDSDJdW0NASF0oW05IMytdKUMoPU8pW05IXVtDQEBIXShbQ0BIXShbT0hdKVtDSDNdKUMoPU8pW05IXVtDQEBIXShbQ0gyXWMxW2NIXVtjSF1bY0hdW2NIXVtjSF0xKUMoPU8pW05IXVtDQEBIXShbQ0gyXVtDSDJdQyg9TylbT0hdKUMoPU8pW05IXVtDQEBIXShbQ0gyXUMyPU5bQ0gyXU49W0NIXTIpQyg9TylbTkhdW0NAQEhdKFtDSDJdYzNbY0hdW2NIXWMoW09IXSlbY0hdW2NIXTMpQyg9TylbTkhdW0NAQEhdKFtDSDJdYzRbY0hdW25IXWMoYzQ1KVtjSF1bY0hdW2NIXVtjSF01KUMoPU8pW05IXVtDQEBIXShbQ0gzXSlDKD1PKVtOSF1bQ0BASF0oW0NIMl1bQ0gyXUMoPU8pW05IMl0pQyg9TylbTkhdW0NAQEhdKFtDSDJdW0NIXShbQ0gzXSlbQ0gzXSlDKD1PKVtOSF1bQ0BASF0oW0NASF0oW09IXSlbQ0gzXSlDKD1PKVtOSF1bQ0BIXShDKD1PKVtPSF0pW0NIMl1bT0hd

> <s_epik_cmdline>
J2VwaWtfYXBwJywgJy1pbWFlJywgJ2xpZ2FuZF9wcm8ubWFlJywgJy1vbWFlJywgJ2xpZ2FuZF9wcmVwLm1hZScsICctbXMnLCAnMScsICctcGgnLCAnNycsICctcGh0JywgJzAuNScsICctbnQn

> <s_epik_pKa_notes>
Molecule size exceeds maximum supported for generating protonation states

> <s_epik_Chemistry_Notes>
This compound has an imine and may undergo hydrolysis.

$$$$
