3jzq_ligand
                    3D
 Schrodinger Suite 2020-3.
209214  0  0  1  0            999 V2000
   28.7760   34.2360   -9.2220 N   0  3  0  0  0  0
   29.9890   34.3380   -8.3360 C   0  0  2  0  0  0
   29.7990   33.5220   -7.0590 C   0  0  0  0  0  0
   28.6810   33.1380   -6.7190 O   0  0  0  0  0  0
   30.2130   35.7950   -7.9380 C   0  0  0  0  0  0
   30.4580   36.7410   -9.1000 C   0  0  0  0  0  0
   31.7500   36.4240   -9.8670 C   0  0  0  0  0  0
   32.6730   35.8090   -9.2970 O   0  0  0  0  0  0
   31.8400   36.8150  -11.0460 O   0  0  0  0  0  0
   30.8800   33.2920   -6.3340 N   0  0  0  0  0  0
   30.7960   32.5440   -5.0990 C   0  0  2  0  0  0
   30.4140   33.4630   -3.9300 C   0  0  0  0  0  0
   30.4470   34.6980   -4.0410 O   0  0  0  0  0  0
   32.1150   31.9710   -4.7320 C   0  0  2  0  0  0
   32.9970   33.0490   -4.4100 O   0  0  0  0  0  0
   32.6960   31.1650   -5.8990 C   0  0  0  0  0  0
   30.0600   32.8420   -2.8080 N   0  0  0  0  0  0
   29.7270   33.6070   -1.6160 C   0  0  2  0  0  0
   30.9280   34.4770   -1.1970 C   0  0  0  0  0  0
   30.7870   35.6690   -0.8440 O   0  0  0  0  0  0
   29.3720   32.6810   -0.4440 C   0  0  0  0  0  0
   29.2040   33.4270    0.8580 C   0  0  0  0  0  0
   28.0450   34.1870    1.1010 C   0  0  0  0  0  0
   30.2320   33.4520    1.7930 C   0  0  0  0  0  0
   27.9350   34.9680    2.2760 C   0  0  0  0  0  0
   30.1260   34.2230    2.9590 C   0  0  0  0  0  0
   28.9760   34.9790    3.1940 C   0  0  0  0  0  0
   32.1120   33.8900   -1.2000 N   0  0  0  0  0  0
   33.2850   34.6450   -0.8070 C   0  0  2  0  0  0
   33.5100   35.9010   -1.6960 C   0  0  0  0  0  0
   33.8300   36.9870   -1.2050 O   0  0  0  0  0  0
   34.5070   33.7190   -0.8460 C   0  0  0  0  0  0
   35.8200   34.3890   -0.5110 C   0  0  0  0  0  0
   36.4150   35.1670   -1.6910 C   0  0  0  0  0  0
   36.3120   34.6980   -2.8540 O   0  0  0  0  0  0
   37.0030   36.2470   -1.4520 O   0  0  0  0  0  0
   33.3070   35.7530   -2.9940 N   0  0  0  0  0  0
   33.4990   36.8580   -3.9280 C   0  0  2  0  0  0
   32.5800   38.0300   -3.5680 C   0  0  0  0  0  0
   33.0250   39.1760   -3.4760 O   0  0  0  0  0  0
   33.2120   36.3740   -5.3550 C   0  0  0  0  0  0
   33.3270   37.4430   -6.4010 C   0  0  0  0  0  0
   34.4330   37.5800   -7.2100 N   0  0  0  0  0  0
   32.4740   38.4270   -6.7680 C   0  0  0  0  0  0
   34.2580   38.6040   -8.0280 C   0  0  0  0  0  0
   33.0790   39.1370   -7.7780 N   0  0  0  0  0  0
   31.2950   37.7330   -3.3950 N   0  0  0  0  0  0
   30.3150   38.7510   -3.0250 C   0  0  2  0  0  0
   30.6050   39.3670   -1.6620 C   0  0  0  0  0  0
   30.6100   40.6060   -1.5020 O   0  0  0  0  0  0
   28.9060   38.1560   -2.9520 C   0  0  0  0  0  0
   28.3460   37.7620   -4.2530 C   0  0  0  0  0  0
   28.2390   36.4910   -4.7620 C   0  0  0  0  0  0
   27.7340   38.6310   -5.2030 C   0  0  0  0  0  0
   27.5830   36.5230   -5.9770 N   0  0  0  0  0  0
   27.2680   37.8230   -6.2740 C   0  0  0  0  0  0
   27.5300   40.0210   -5.2570 C   0  0  0  0  0  0
   26.6000   38.3590   -7.3790 C   0  0  0  0  0  0
   26.8690   40.5540   -6.3550 C   0  0  0  0  0  0
   26.4150   39.7240   -7.4060 C   0  0  0  0  0  0
   30.8460   38.5180   -0.6700 N   0  0  0  0  0  0
   31.0790   39.0190    0.6850 C   0  0  2  0  0  0
   32.3330   39.8490    0.8670 C   0  0  0  0  0  0
   32.3090   40.9020    1.5550 O   0  0  0  0  0  0
   31.1430   37.8710    1.7090 C   0  0  0  0  0  0
   31.1040   38.3590    3.1440 C   0  0  0  0  0  0
   32.1670   38.6140    3.9750 C   0  0  0  0  0  0
   29.9220   38.6770    3.8970 C   0  0  0  0  0  0
   31.7150   39.0710    5.1980 N   0  0  0  0  0  0
   30.3430   39.1190    5.1730 C   0  0  0  0  0  0
   28.5460   38.6350    3.6110 C   0  0  0  0  0  0
   29.4330   39.5120    6.1700 C   0  0  0  0  0  0
   27.6460   39.0210    4.5980 C   0  0  0  0  0  0
   28.0980   39.4560    5.8660 C   0  0  0  0  0  0
   33.4300   39.3820    0.2700 N   0  0  0  0  0  0
   34.6970   40.0790    0.4400 C   0  0  2  0  0  0
   34.6510   41.4910   -0.1340 C   0  0  0  0  0  0
   35.4820   42.3120    0.2050 O   0  0  0  0  0  0
   35.8470   39.3100   -0.2300 C   0  0  0  0  0  0
   35.6490   39.2800   -1.6220 O   0  0  0  0  0  0
   33.6890   41.7730   -0.9950 N   0  0  0  0  0  0
   33.6570   43.1010   -1.5710 C   0  0  2  0  0  0
   32.5970   44.0360   -1.0050 C   0  0  0  0  0  0
   32.3540   45.1210   -1.5400 O   0  0  0  0  0  0
   33.5560   42.9630   -3.0730 C   0  0  0  0  0  0
   34.6900   42.0570   -3.5680 C   0  0  0  0  0  0
   34.9530   42.2520   -4.9980 C   0  0  0  0  0  0
   35.5660   43.2510   -5.3900 O   0  0  0  0  0  0
   34.4710   41.3160   -5.8230 N   0  0  0  0  0  0
   31.9600   43.6270    0.0850 N   0  0  0  0  0  0
   30.9740   44.5190    0.7200 C   0  0  2  0  0  0
   31.7770   45.7380    1.1880 C   0  0  0  0  0  0
   32.8650   45.5750    1.6870 O   0  0  0  0  0  0
   30.3880   43.8580    1.9630 C   0  0  0  0  0  0
   29.3840   42.7740    1.6320 C   0  0  0  0  0  0
   28.9070   42.1930    2.9090 C   0  0  0  0  0  0
   28.2460   43.3290    0.7640 C   0  0  0  0  0  0
   31.2300   46.9370    1.0660 N   0  0  0  0  0  0
   31.9480   48.1610    1.4980 C   0  0  2  0  0  0
   33.1270   48.5580    0.6090 C   0  0  0  0  0  0
   34.0690   49.2430    1.0570 O   0  0  0  0  0  0
   32.4220   48.0460    2.9540 C   0  0  0  0  0  0
   31.2630   47.8680    3.9640 C   0  0  0  0  0  0
   31.8590   47.7030    5.3700 C   0  0  0  0  0  0
   30.2960   49.0650    3.9220 C   0  0  0  0  0  0
   33.0530   48.1240   -0.6490 N   0  0  0  0  0  0
   34.0420   48.4290   -1.6820 C   0  0  2  0  0  0
   33.3340   49.0880   -2.8580 C   0  0  0  0  0  0
   32.1130   49.3250   -2.7380 O   0  0  0  0  0  0
   34.7590   47.1720   -2.1660 C   0  0  0  0  0  0
   35.7310   46.7590   -1.2050 O   0  0  0  0  0  0
   34.0010   49.3710   -3.8830 O   0  0  0  0  0  0
   28.6174   33.1854   -9.5069 H   0  0  0  0  0  0
   28.9309   34.8420  -10.1269 H   0  0  0  0  0  0
   27.8935   34.6061   -8.6795 H   0  0  0  0  0  0
   30.8436   33.9473   -8.9079 H   0  0  0  0  0  0
   29.3268   36.1699   -7.4050 H   0  0  0  0  0  0
   31.0926   35.8646   -7.2812 H   0  0  0  0  0  0
   29.6213   36.6729   -9.8109 H   0  0  0  0  0  0
   30.5364   37.7716   -8.7236 H   0  0  0  0  0  0
   33.6003   35.5798   -9.8426 H   0  0  0  0  0  0
   31.8511   33.6764   -6.6792 H   0  0  0  0  0  0
   30.0602   31.7556   -5.3159 H   0  0  0  0  0  0
   32.0083   31.3449   -3.8339 H   0  0  0  0  0  0
   32.7448   33.7406   -3.5926 H   0  0  0  0  0  0
   32.0167   30.3358   -6.1460 H   0  0  0  0  0  0
   33.6784   30.7614   -5.6127 H   0  0  0  0  0  0
   32.8099   31.8194   -6.7758 H   0  0  0  0  0  0
   30.0200   31.7430   -2.7852 H   0  0  0  0  0  0
   28.8572   34.2127   -1.9104 H   0  0  0  0  0  0
   28.4260   32.1627   -0.6597 H   0  0  0  0  0  0
   30.1731   31.9398   -0.3066 H   0  0  0  0  0  0
   27.2274   34.1741    0.3802 H   0  0  0  0  0  0
   31.1329   32.8641    1.6173 H   0  0  0  0  0  0
   27.0371   35.5581    2.4592 H   0  0  0  0  0  0
   30.9415   34.2323    3.6822 H   0  0  0  0  0  0
   28.8955   35.5792    4.1003 H   0  0  0  0  0  0
   32.2109   32.8358   -1.4981 H   0  0  0  0  0  0
   33.0719   34.9755    0.2203 H   0  0  0  0  0  0
   34.3725   32.9036   -0.1200 H   0  0  0  0  0  0
   34.6149   33.2966   -1.8559 H   0  0  0  0  0  0
   35.6688   35.0996    0.3149 H   0  0  0  0  0  0
   36.5540   33.6272   -0.2095 H   0  0  0  0  0  0
   36.7350   35.2473   -3.7080 H   0  0  0  0  0  0
   32.9860   34.7685   -3.3652 H   0  0  0  0  0  0
   34.5488   37.1711   -3.8281 H   0  0  0  0  0  0
   33.9256   35.5812   -5.6237 H   0  0  0  0  0  0
   32.1870   35.9784   -5.4089 H   0  0  0  0  0  0
   31.4723   38.7154   -6.4166 H   0  0  0  0  0  0
   34.9675   38.9484   -8.7804 H   0  0  0  0  0  0
   30.9771   36.6897   -3.5377 H   0  0  0  0  0  0
   30.4193   39.4990   -3.8248 H   0  0  0  0  0  0
   28.9210   37.2541   -2.3224 H   0  0  0  0  0  0
   28.2178   38.8955   -2.5168 H   0  0  0  0  0  0
   28.6162   35.5899   -4.2785 H   0  0  0  0  0  0
   27.8836   40.6668   -4.4532 H   0  0  0  0  0  0
   26.2399   37.7223   -8.1871 H   0  0  0  0  0  0
   26.6972   41.6291   -6.4079 H   0  0  0  0  0  0
   25.9064   40.1750   -8.2581 H   0  0  0  0  0  0
   30.8703   37.4363   -0.8682 H   0  0  0  0  0  0
   30.2063   39.6778    0.8048 H   0  0  0  0  0  0
   30.2854   37.1985    1.5600 H   0  0  0  0  0  0
   32.0782   37.3085    1.5713 H   0  0  0  0  0  0
   33.2149   38.4760    3.7086 H   0  0  0  0  0  0
   28.1916   38.3061    2.6341 H   0  0  0  0  0  0
   29.7765   39.8486    7.1482 H   0  0  0  0  0  0
   26.5762   38.9880    4.3917 H   0  0  0  0  0  0
   27.3676   39.7534    6.6184 H   0  0  0  0  0  0
   33.3805   38.4740   -0.3489 H   0  0  0  0  0  0
   34.8229   40.1207    1.5320 H   0  0  0  0  0  0
   36.8011   39.8104   -0.0080 H   0  0  0  0  0  0
   35.8742   38.2806    0.1569 H   0  0  0  0  0  0
   36.3765   38.7694   -2.2701 H   0  0  0  0  0  0
   32.9262   41.0325   -1.2775 H   0  0  0  0  0  0
   34.6134   43.5508   -1.2660 H   0  0  0  0  0  0
   32.5846   42.5189   -3.3359 H   0  0  0  0  0  0
   33.6436   43.9555   -3.5391 H   0  0  0  0  0  0
   35.6111   42.2853   -3.0116 H   0  0  0  0  0  0
   34.4154   41.0042   -3.4063 H   0  0  0  0  0  0
   33.9329   40.4476   -5.4151 H   0  0  0  0  0  0
   34.6127   41.4146   -6.9094 H   0  0  0  0  0  0
   32.1609   42.6346    0.5148 H   0  0  0  0  0  0
   30.1711   44.7419    0.0019 H   0  0  0  0  0  0
   31.1971   43.3991    2.5502 H   0  0  0  0  0  0
   29.8757   44.6156    2.5742 H   0  0  0  0  0  0
   29.8545   41.9592    1.0621 H   0  0  0  0  0  0
   29.7656   41.8144    3.4829 H   0  0  0  0  0  0
   28.2130   41.3659    2.6989 H   0  0  0  0  0  0
   28.3883   42.9675    3.4931 H   0  0  0  0  0  0
   28.6628   43.7442   -0.1654 H   0  0  0  0  0  0
   27.7175   44.1210    1.3148 H   0  0  0  0  0  0
   27.5422   42.5194    0.5206 H   0  0  0  0  0  0
   30.2215   47.0146    0.6338 H   0  0  0  0  0  0
   31.1771   48.9377    1.3867 H   0  0  0  0  0  0
   33.0861   47.1750    3.0557 H   0  0  0  0  0  0
   32.9684   48.9584    3.2349 H   0  0  0  0  0  0
   30.6800   46.9727    3.7021 H   0  0  0  0  0  0
   32.5459   46.8439    5.3785 H   0  0  0  0  0  0
   31.0487   47.5318    6.0939 H   0  0  0  0  0  0
   32.4092   48.6151    5.6444 H   0  0  0  0  0  0
   29.8809   49.1656    2.9083 H   0  0  0  0  0  0
   30.8383   49.9840    4.1890 H   0  0  0  0  0  0
   29.4778   48.9007    4.6386 H   0  0  0  0  0  0
   32.1801   47.4997   -0.8905 H   0  0  0  0  0  0
   34.7740   49.1035   -1.2137 H   0  0  0  0  0  0
   34.0265   46.3638   -2.3080 H   0  0  0  0  0  0
   35.2629   47.3820   -3.1210 H   0  0  0  0  0  0
   36.3442   45.8651   -1.3921 H   0  0  0  0  0  0
   33.5101   49.8474   -4.7444 H   0  0  0  0  0  0
  1  2  1  0  0  0
  1113  1  0  0  0
  1114  1  0  0  0
  1115  1  0  0  0
  2  3  1  0  0  0
  2  5  1  0  0  0
  2116  1  0  0  0
  3  4  2  0  0  0
  3 10  1  0  0  0
  5  6  1  0  0  0
  5117  1  0  0  0
  5118  1  0  0  0
  6  7  1  0  0  0
  6119  1  0  0  0
  6120  1  0  0  0
  7  8  1  0  0  0
  7  9  2  0  0  0
  8121  1  0  0  0
 10 11  1  0  0  0
 10122  1  0  0  0
 11 12  1  0  0  0
 11 14  1  0  0  0
 11123  1  0  0  0
 12 13  2  0  0  0
 12 17  1  0  0  0
 14 15  1  0  0  0
 14 16  1  0  0  0
 14124  1  0  0  0
 15125  1  0  0  0
 16126  1  0  0  0
 16127  1  0  0  0
 16128  1  0  0  0
 17 18  1  0  0  0
 17129  1  0  0  0
 18 19  1  0  0  0
 18 21  1  0  0  0
 18130  1  0  0  0
 19 20  2  0  0  0
 19 28  1  0  0  0
 21 22  1  0  0  0
 21131  1  0  0  0
 21132  1  0  0  0
 22 23  2  0  0  0
 22 24  1  0  0  0
 23 25  1  0  0  0
 23133  1  0  0  0
 24 26  2  0  0  0
 24134  1  0  0  0
 25 27  2  0  0  0
 25135  1  0  0  0
 26 27  1  0  0  0
 26136  1  0  0  0
 27137  1  0  0  0
 28 29  1  0  0  0
 28138  1  0  0  0
 29 30  1  0  0  0
 29 32  1  0  0  0
 29139  1  0  0  0
 30 31  2  0  0  0
 30 37  1  0  0  0
 32 33  1  0  0  0
 32140  1  0  0  0
 32141  1  0  0  0
 33 34  1  0  0  0
 33142  1  0  0  0
 33143  1  0  0  0
 34 35  1  0  0  0
 34 36  2  0  0  0
 35144  1  0  0  0
 37 38  1  0  0  0
 37145  1  0  0  0
 38 39  1  0  0  0
 38 41  1  0  0  0
 38146  1  0  0  0
 39 40  2  0  0  0
 39 47  1  0  0  0
 41 42  1  0  0  0
 41147  1  0  0  0
 41148  1  0  0  0
 42 43  2  0  0  0
 42 44  1  0  0  0
 43 45  1  0  0  0
 44 46  2  0  0  0
 44149  1  0  0  0
 45 46  1  0  0  0
 45150  1  0  0  0
 47 48  1  0  0  0
 47151  1  0  0  0
 48 49  1  0  0  0
 48 51  1  0  0  0
 48152  1  0  0  0
 49 50  2  0  0  0
 49 61  1  0  0  0
 51 52  1  0  0  0
 51153  1  0  0  0
 51154  1  0  0  0
 52 53  2  0  0  0
 52 54  1  0  0  0
 53 55  1  0  0  0
 53155  1  0  0  0
 54 56  2  0  0  0
 54 57  1  0  0  0
 55 56  1  0  0  0
 56 58  1  0  0  0
 57 59  2  0  0  0
 57156  1  0  0  0
 58 60  2  0  0  0
 58157  1  0  0  0
 59 60  1  0  0  0
 59158  1  0  0  0
 60159  1  0  0  0
 61 62  1  0  0  0
 61160  1  0  0  0
 62 63  1  0  0  0
 62 65  1  0  0  0
 62161  1  0  0  0
 63 64  2  0  0  0
 63 75  1  0  0  0
 65 66  1  0  0  0
 65162  1  0  0  0
 65163  1  0  0  0
 66 67  2  0  0  0
 66 68  1  0  0  0
 67 69  1  0  0  0
 67164  1  0  0  0
 68 70  2  0  0  0
 68 71  1  0  0  0
 69 70  1  0  0  0
 70 72  1  0  0  0
 71 73  2  0  0  0
 71165  1  0  0  0
 72 74  2  0  0  0
 72166  1  0  0  0
 73 74  1  0  0  0
 73167  1  0  0  0
 74168  1  0  0  0
 75 76  1  0  0  0
 75169  1  0  0  0
 76 77  1  0  0  0
 76 79  1  0  0  0
 76170  1  0  0  0
 77 78  2  0  0  0
 77 81  1  0  0  0
 79 80  1  0  0  0
 79171  1  0  0  0
 79172  1  0  0  0
 80173  1  0  0  0
 81 82  1  0  0  0
 81174  1  0  0  0
 82 83  1  0  0  0
 82 85  1  0  0  0
 82175  1  0  0  0
 83 84  2  0  0  0
 83 90  1  0  0  0
 85 86  1  0  0  0
 85176  1  0  0  0
 85177  1  0  0  0
 86 87  1  0  0  0
 86178  1  0  0  0
 86179  1  0  0  0
 87 88  2  0  0  0
 87 89  1  0  0  0
 89180  1  0  0  0
 89181  1  0  0  0
 90 91  1  0  0  0
 90182  1  0  0  0
 91 92  1  0  0  0
 91 94  1  0  0  0
 91183  1  0  0  0
 92 93  2  0  0  0
 92 98  1  0  0  0
 94 95  1  0  0  0
 94184  1  0  0  0
 94185  1  0  0  0
 95 96  1  0  0  0
 95 97  1  0  0  0
 95186  1  0  0  0
 96187  1  0  0  0
 96188  1  0  0  0
 96189  1  0  0  0
 97190  1  0  0  0
 97191  1  0  0  0
 97192  1  0  0  0
 98 99  1  0  0  0
 98193  1  0  0  0
 99100  1  0  0  0
 99102  1  0  0  0
 99194  1  0  0  0
100101  2  0  0  0
100106  1  0  0  0
102103  1  0  0  0
102195  1  0  0  0
102196  1  0  0  0
103104  1  0  0  0
103105  1  0  0  0
103197  1  0  0  0
104198  1  0  0  0
104199  1  0  0  0
104200  1  0  0  0
105201  1  0  0  0
105202  1  0  0  0
105203  1  0  0  0
106107  1  0  0  0
106204  1  0  0  0
107108  1  0  0  0
107110  1  0  0  0
107205  1  0  0  0
108109  2  0  0  0
108112  1  0  0  0
110111  1  0  0  0
110206  1  0  0  0
110207  1  0  0  0
111208  1  0  0  0
112209  1  0  0  0
M  CHG  1   1   1
M  END
> <s_m_source_file>
../3jzq_ligand.sdf

> <i_m_source_file_index>
1

> <s_epik_input>
W09IXUMoPU8pW0NIMl1bQ0gyXVtDQEhdKFtOSDMrXSlDKD1PKVtOSF1bQ0BASF0oW0NASF0oW09IXSlbQ0gzXSlDKD1PKVtOSF1bQ0BASF0oW0NIMl1jMVtjSF1bY0hdW2NIXVtjSF1bY0hdMSlDKD1PKVtOSF1bQ0BASF0oW0NIMl1bQ0gyXUMoPU8pW09IXSlDKD1PKVtOSF1bQ0BASF0oW0NIMl1DMj1OW0NIMl1OPVtDSF0yKUMoPU8pW05IXVtDQEBIXShbQ0gyXWMzW2NIXVtuSF1jKGMzNClbY0hdW2NIXVtjSF1bY0hdNClDKD1PKVtOSF1bQ0BASF0oW0NIMl1jNVtjSF1bbkhdYyhjNTYpW2NIXVtjSF1bY0hdW2NIXTYpQyg9TylbTkhdW0NAQEhdKFtDSDJdW09IXSlDKD1PKVtOSF1bQ0BASF0oW0NIMl1bQ0gyXUMoPU8pW05IMl0pQyg9TylbTkhdW0NAQEhdKFtDSDJdW0NIXShbQ0gzXSlbQ0gzXSlDKD1PKVtOSF1bQ0BASF0oW0NIMl1bQ0hdKFtDSDNdKVtDSDNdKUMoPU8pW05IXVtDQEhdKEMoPU8pW09IXSlbQ0gyXVtPSF0=

> <s_epik_cmdline>
J2VwaWtfYXBwJywgJy1pbWFlJywgJ2xpZ2FuZF9wcm8ubWFlJywgJy1vbWFlJywgJ2xpZ2FuZF9wcmVwLm1hZScsICctbXMnLCAnMScsICctcGgnLCAnNycsICctcGh0JywgJzAuNScsICctbnQn

> <s_epik_pKa_notes>
Molecule size exceeds maximum supported for generating protonation states

> <s_epik_Chemistry_Notes>
This compound has an imine and may undergo hydrolysis.

$$$$
