3jzr_ligand
                    3D
 Schrodinger Suite 2020-3.
206211  0  0  1  0            999 V2000
    1.2450   -6.8280    1.9930 N   0  3  0  0  0  0
    0.2640   -7.6820    2.7230 C   0  0  2  0  0  0
    0.6930   -9.1420    2.7840 C   0  0  0  0  0  0
    0.3130   -9.8610    3.7120 O   0  0  0  0  0  0
   -1.1100   -7.6130    2.0550 C   0  0  0  0  0  0
   -1.8710   -6.3190    2.3060 C   0  0  0  0  0  0
   -3.1900   -6.3670    1.5740 C   0  0  0  0  0  0
   -2.0850   -6.1440    3.8070 C   0  0  0  0  0  0
    1.4820   -9.5780    1.8020 N   0  0  0  0  0  0
    1.9330  -10.9600    1.7690 C   0  0  2  0  0  0
    2.9790  -11.2420    2.8550 C   0  0  0  0  0  0
    3.6370  -10.3200    3.3590 O   0  0  0  0  0  0
    2.5590  -11.3330    0.4010 C   0  0  2  0  0  0
    3.8390  -10.7010    0.2680 O   0  0  0  0  0  0
    1.6250  -10.9500   -0.7650 C   0  0  0  0  0  0
    3.1150  -12.5190    3.2160 N   0  0  0  0  0  0
    4.0800  -12.9340    4.2310 C   0  0  2  0  0  0
    5.4720  -12.4350    3.8930 C   0  0  0  0  0  0
    6.1770  -11.9300    4.7610 O   0  0  0  0  0  0
    4.1550  -14.4670    4.3730 C   0  0  0  0  0  0
    5.3930  -14.9310    5.1030 C   0  0  0  0  0  0
    5.5170  -14.7280    6.4820 C   0  0  0  0  0  0
    6.4740  -15.4630    4.4020 C   0  0  0  0  0  0
    6.7040  -15.0450    7.1590 C   0  0  0  0  0  0
    7.6670  -15.7850    5.0590 C   0  0  0  0  0  0
    7.7840  -15.5710    6.4440 C   0  0  0  0  0  0
    5.8820  -12.6000    2.6410 N   0  0  0  0  0  0
    7.2180  -12.1700    2.2450 C   0  0  2  0  0  0
    7.3770  -10.6490    2.2940 C   0  0  0  0  0  0
    8.4630  -10.1460    2.5860 O   0  0  0  0  0  0
    7.5710  -12.7450    0.8680 C   0  0  0  0  0  0
    7.7480  -14.2790    0.9170 C   0  0  0  0  0  0
    8.4790  -14.8520   -0.2900 C   0  0  0  0  0  0
    7.9150  -14.8350   -1.4100 O   0  0  0  0  0  0
    9.6290  -15.3190   -0.1150 O   0  0  0  0  0  0
    6.2980   -9.9140    2.0360 N   0  0  0  0  0  0
    6.3610   -8.4590    2.1190 C   0  0  2  0  0  0
    6.7420   -8.0890    3.5620 C   0  0  0  0  0  0
    7.7350   -7.4000    3.7980 O   0  0  0  0  0  0
    5.0010   -7.8420    1.7610 C   0  0  0  0  0  0
    4.9380   -6.3600    1.9640 C   0  0  0  0  0  0
    5.4360   -5.4590    1.0470 N   0  0  0  0  0  0
    4.4780   -5.6210    3.0020 C   0  0  0  0  0  0
    5.2870   -4.2310    1.5110 C   0  0  0  0  0  0
    4.7090   -4.3010    2.6970 N   0  0  0  0  0  0
    5.9580   -8.5650    4.5230 N   0  0  0  0  0  0
    6.2170   -8.2890    5.9350 C   0  0  2  0  0  0
    7.5990   -8.7810    6.3760 C   0  0  0  0  0  0
    8.3350   -8.0580    7.0340 O   0  0  0  0  0  0
    5.1380   -8.9490    6.8070 C   0  0  0  0  0  0
    3.7560   -8.4140    6.5550 C   0  0  0  0  0  0
    2.6490   -9.1270    6.1830 C   0  0  0  0  0  0
    3.3430   -7.0440    6.6290 C   0  0  0  0  0  0
    1.5720   -8.2830    6.0180 N   0  0  0  0  0  0
    1.9720   -6.9990    6.2860 C   0  0  0  0  0  0
    4.0010   -5.8480    6.9540 C   0  0  0  0  0  0
    1.2470   -5.8030    6.2490 C   0  0  0  0  0  0
    3.2830   -4.6610    6.9180 C   0  0  0  0  0  0
    1.9150   -4.6490    6.5680 C   0  0  0  0  0  0
    7.9490  -10.0090    5.9990 N   0  0  0  0  0  0
    9.2320  -10.5890    6.3770 C   0  0  2  0  0  0
   10.4190   -9.7920    5.8300 C   0  0  0  0  0  0
   11.4420   -9.6280    6.5130 O   0  0  0  0  0  0
    9.3110  -12.0470    5.8980 C   0  0  0  0  0  0
   10.4610  -12.8110    6.5090 C   0  0  0  0  0  0
   11.6910  -13.0430    5.9530 C   0  0  0  0  0  0
   10.5100  -13.3550    7.8330 C   0  0  0  0  0  0
   12.5020  -13.6930    6.8550 N   0  0  0  0  0  0
   11.8010  -13.8950    8.0140 C   0  0  0  0  0  0
    9.5840  -13.4380    8.8850 C   0  0  0  0  0  0
   12.1950  -14.5040    9.2100 C   0  0  0  0  0  0
    9.9810  -14.0520   10.0810 C   0  0  0  0  0  0
   11.2750  -14.5740   10.2260 C   0  0  0  0  0  0
   10.2850   -9.2970    4.6000 N   0  0  0  0  0  0
   11.3450   -8.5160    3.9780 C   0  0  2  0  0  0
   11.6400   -7.2100    4.7310 C   0  0  0  0  0  0
   12.7420   -6.6820    4.6300 O   0  0  0  0  0  0
   10.9870   -8.2150    2.5290 C   0  0  0  0  0  0
   10.6740   -6.7090    5.5010 N   0  0  0  0  0  0
   10.8840   -5.4570    6.2510 C   0  0  2  0  0  0
   11.8730   -5.5850    7.4090 C   0  0  0  0  0  0
   12.4220   -4.5860    7.8720 O   0  0  0  0  0  0
    9.5640   -4.9170    6.8030 C   0  0  0  0  0  0
    8.5090   -4.7010    5.7400 C   0  0  0  0  0  0
    7.2580   -4.0270    6.2780 C   0  0  0  0  0  0
    6.8080   -4.3090    7.3980 O   0  0  0  0  0  0
    6.6770   -3.1370    5.4740 N   0  0  0  0  0  0
   12.0970   -6.8050    7.8850 N   0  0  0  0  0  0
   13.0280   -7.0120    8.9800 C   0  0  2  0  0  0
   14.4660   -6.7190    8.5840 C   0  0  0  0  0  0
   15.2940   -6.3770    9.4280 O   0  0  0  0  0  0
   12.9460   -8.4490    9.5040 C   0  0  0  0  0  0
   11.7970   -8.7250   10.4600 C   0  0  0  0  0  0
   10.5470   -9.0720    9.6650 C   0  0  0  0  0  0
   12.1810   -9.8540   11.4010 C   0  0  0  0  0  0
   14.7630   -6.8620    7.2980 N   0  0  0  0  0  0
   16.1150   -6.6380    6.7930 C   0  0  2  0  0  0
   16.2040   -5.3880    5.9140 C   0  0  0  0  0  0
   15.3770   -5.1930    5.0220 O   0  0  0  0  0  0
   16.5860   -7.8470    5.9620 C   0  0  2  0  0  0
   15.6720   -8.0590    4.8800 O   0  0  0  0  0  0
   16.6230   -9.0920    6.8100 C   0  0  0  0  0  0
   17.2070   -4.5490    6.1640 N   0  0  0  0  0  0
   17.4020   -3.3210    5.3870 C   0  0  2  0  0  0
   18.2070   -3.5860    4.1170 C   0  0  0  0  0  0
   18.5350   -4.7670    3.8590 O   0  0  0  0  0  0
   18.1270   -2.2600    6.2220 C   0  0  0  0  0  0
   17.3890   -1.9110    7.3800 O   0  0  0  0  0  0
   18.5060   -2.6070    3.3960 O   0  0  0  0  0  0
    2.2254   -6.8909    2.4878 H   0  0  0  0  0  0
    0.8978   -5.7842    1.9984 H   0  0  0  0  0  0
    1.3353   -7.1791    0.9545 H   0  0  0  0  0  0
    0.2365   -7.2722    3.7434 H   0  0  0  0  0  0
   -0.9932   -7.7085    0.9654 H   0  0  0  0  0  0
   -1.7413   -8.4324    2.4293 H   0  0  0  0  0  0
   -1.3018   -5.4586    1.9241 H   0  0  0  0  0  0
   -3.0071   -6.4934    0.4967 H   0  0  0  0  0  0
   -3.7387   -5.4291    1.7452 H   0  0  0  0  0  0
   -3.7855   -7.2135    1.9466 H   0  0  0  0  0  0
   -1.1099   -6.1122    4.3151 H   0  0  0  0  0  0
   -2.6731   -6.9890    4.1945 H   0  0  0  0  0  0
   -2.6263   -5.2046    3.9931 H   0  0  0  0  0  0
    1.7917   -8.8793    1.0108 H   0  0  0  0  0  0
    1.0020  -11.5143    1.9589 H   0  0  0  0  0  0
    2.7763  -12.4100    0.3475 H   0  0  0  0  0  0
    4.6194  -10.8748    1.0235 H   0  0  0  0  0  0
    0.6532  -11.4489   -0.6354 H   0  0  0  0  0  0
    2.0766  -11.2682   -1.7162 H   0  0  0  0  0  0
    1.4790   -9.8598   -0.7749 H   0  0  0  0  0  0
    2.4753  -13.2681    2.7264 H   0  0  0  0  0  0
    3.6991  -12.4643    5.1499 H   0  0  0  0  0  0
    3.2806  -14.8263    4.9354 H   0  0  0  0  0  0
    4.1632  -14.9278    3.3742 H   0  0  0  0  0  0
    4.6762  -14.3162    7.0401 H   0  0  0  0  0  0
    6.3890  -15.6304    3.3283 H   0  0  0  0  0  0
    6.7836  -14.8825    8.2339 H   0  0  0  0  0  0
    8.5040  -16.2009    4.4982 H   0  0  0  0  0  0
    8.7137  -15.8145    6.9583 H   0  0  0  0  0  0
    5.2113  -13.0623    1.9017 H   0  0  0  0  0  0
    7.8910  -12.5914    3.0062 H   0  0  0  0  0  0
    6.7655  -12.5123    0.1560 H   0  0  0  0  0  0
    8.5126  -12.2992    0.5149 H   0  0  0  0  0  0
    8.3283  -14.5528    1.8105 H   0  0  0  0  0  0
    6.7601  -14.7609    0.9596 H   0  0  0  0  0  0
    8.4299  -15.2451   -2.2913 H   0  0  0  0  0  0
    5.3554  -10.4088    1.7591 H   0  0  0  0  0  0
    7.1153   -8.1202    1.3936 H   0  0  0  0  0  0
    4.7777   -8.0363    0.7016 H   0  0  0  0  0  0
    4.2177   -8.2913    2.3892 H   0  0  0  0  0  0
    3.9970   -5.8895    3.9542 H   0  0  0  0  0  0
    5.5895   -3.3158    1.0020 H   0  0  0  0  0  0
    5.0947   -9.1817    4.2325 H   0  0  0  0  0  0
    6.1832   -7.1922    6.0110 H   0  0  0  0  0  0
    5.1150  -10.0303    6.6061 H   0  0  0  0  0  0
    5.3695   -8.7782    7.8687 H   0  0  0  0  0  0
    2.6227  -10.2070    6.0380 H   0  0  0  0  0  0
    5.0556   -5.8512    7.2294 H   0  0  0  0  0  0
    0.1916   -5.7892    5.9770 H   0  0  0  0  0  0
    3.7825   -3.7238    7.1636 H   0  0  0  0  0  0
    1.3779   -3.7007    6.5511 H   0  0  0  0  0  0
    7.2422  -10.5888    5.3872 H   0  0  0  0  0  0
    9.2453  -10.5256    7.4751 H   0  0  0  0  0  0
    8.3826  -12.5721    6.1669 H   0  0  0  0  0  0
    9.4408  -12.0677    4.8059 H   0  0  0  0  0  0
   11.9846  -12.7549    4.9436 H   0  0  0  0  0  0
    8.5779  -13.0336    8.7741 H   0  0  0  0  0  0
   13.1995  -14.9096    9.3311 H   0  0  0  0  0  0
    9.2755  -14.1247   10.9087 H   0  0  0  0  0  0
   11.5563  -15.0461   11.1673 H   0  0  0  0  0  0
    9.3500   -9.4889    4.0532 H   0  0  0  0  0  0
   12.2299   -9.1668    4.0363 H   0  0  0  0  0  0
   10.7779   -9.1564    1.9998 H   0  0  0  0  0  0
   11.8287   -7.7001    2.0427 H   0  0  0  0  0  0
   10.0958   -7.5710    2.4977 H   0  0  0  0  0  0
    9.7129   -7.2391    5.5737 H   0  0  0  0  0  0
   11.3135   -4.7901    5.4889 H   0  0  0  0  0  0
    9.1538   -5.6290    7.5343 H   0  0  0  0  0  0
    9.7406   -3.9484    7.2935 H   0  0  0  0  0  0
    8.9173   -4.0626    4.9426 H   0  0  0  0  0  0
    8.2112   -5.6715    5.3164 H   0  0  0  0  0  0
    7.1133   -2.9193    4.4880 H   0  0  0  0  0  0
    5.7611   -2.6201    5.7964 H   0  0  0  0  0  0
   11.5697   -7.6626    7.4418 H   0  0  0  0  0  0
   12.6969   -6.2820    9.7333 H   0  0  0  0  0  0
   12.8225   -9.1412    8.6581 H   0  0  0  0  0  0
   13.8707   -8.6947   10.0468 H   0  0  0  0  0  0
   11.5860   -7.8302   11.0640 H   0  0  0  0  0  0
   10.2953   -8.2370    8.9946 H   0  0  0  0  0  0
    9.7108   -9.2519   10.3566 H   0  0  0  0  0  0
   10.7313   -9.9780    9.0690 H   0  0  0  0  0  0
   13.0859   -9.5736   11.9600 H   0  0  0  0  0  0
   12.3778  -10.7660   10.8183 H   0  0  0  0  0  0
   11.3573  -10.0399   12.1060 H   0  0  0  0  0  0
   13.9597   -7.1572    6.6070 H   0  0  0  0  0  0
   16.7144   -6.4995    7.7049 H   0  0  0  0  0  0
   17.5778   -7.6645    5.5227 H   0  0  0  0  0  0
   15.5006   -7.2627    4.1408 H   0  0  0  0  0  0
   17.3217   -8.9450    7.6468 H   0  0  0  0  0  0
   16.9576   -9.9426    6.1980 H   0  0  0  0  0  0
   15.6168   -9.2972    7.2042 H   0  0  0  0  0  0
   17.9004   -4.7992    6.9805 H   0  0  0  0  0  0
   16.3852   -2.9920    5.1265 H   0  0  0  0  0  0
   19.1152   -4.9910    2.9517 H   0  0  0  0  0  0
   19.1058   -2.6489    6.5392 H   0  0  0  0  0  0
   18.2715   -1.3529    5.6169 H   0  0  0  0  0  0
   17.7848   -1.1591    8.0785 H   0  0  0  0  0  0
  1  2  1  0  0  0
  1110  1  0  0  0
  1111  1  0  0  0
  1112  1  0  0  0
  2  3  1  0  0  0
  2  5  1  0  0  0
  2113  1  0  0  0
  3  4  2  0  0  0
  3  9  1  0  0  0
  5  6  1  0  0  0
  5114  1  0  0  0
  5115  1  0  0  0
  6  7  1  0  0  0
  6  8  1  0  0  0
  6116  1  0  0  0
  7117  1  0  0  0
  7118  1  0  0  0
  7119  1  0  0  0
  8120  1  0  0  0
  8121  1  0  0  0
  8122  1  0  0  0
  9 10  1  0  0  0
  9123  1  0  0  0
 10 11  1  0  0  0
 10 13  1  0  0  0
 10124  1  0  0  0
 11 12  2  0  0  0
 11 16  1  0  0  0
 13 14  1  0  0  0
 13 15  1  0  0  0
 13125  1  0  0  0
 14126  1  0  0  0
 15127  1  0  0  0
 15128  1  0  0  0
 15129  1  0  0  0
 16 17  1  0  0  0
 16130  1  0  0  0
 17 18  1  0  0  0
 17 20  1  0  0  0
 17131  1  0  0  0
 18 19  2  0  0  0
 18 27  1  0  0  0
 20 21  1  0  0  0
 20132  1  0  0  0
 20133  1  0  0  0
 21 22  2  0  0  0
 21 23  1  0  0  0
 22 24  1  0  0  0
 22134  1  0  0  0
 23 25  2  0  0  0
 23135  1  0  0  0
 24 26  2  0  0  0
 24136  1  0  0  0
 25 26  1  0  0  0
 25137  1  0  0  0
 26138  1  0  0  0
 27 28  1  0  0  0
 27139  1  0  0  0
 28 29  1  0  0  0
 28 31  1  0  0  0
 28140  1  0  0  0
 29 30  2  0  0  0
 29 36  1  0  0  0
 31 32  1  0  0  0
 31141  1  0  0  0
 31142  1  0  0  0
 32 33  1  0  0  0
 32143  1  0  0  0
 32144  1  0  0  0
 33 34  1  0  0  0
 33 35  2  0  0  0
 34145  1  0  0  0
 36 37  1  0  0  0
 36146  1  0  0  0
 37 38  1  0  0  0
 37 40  1  0  0  0
 37147  1  0  0  0
 38 39  2  0  0  0
 38 46  1  0  0  0
 40 41  1  0  0  0
 40148  1  0  0  0
 40149  1  0  0  0
 41 42  2  0  0  0
 41 43  1  0  0  0
 42 44  1  0  0  0
 43 45  2  0  0  0
 43150  1  0  0  0
 44 45  1  0  0  0
 44151  1  0  0  0
 46 47  1  0  0  0
 46152  1  0  0  0
 47 48  1  0  0  0
 47 50  1  0  0  0
 47153  1  0  0  0
 48 49  2  0  0  0
 48 60  1  0  0  0
 50 51  1  0  0  0
 50154  1  0  0  0
 50155  1  0  0  0
 51 52  2  0  0  0
 51 53  1  0  0  0
 52 54  1  0  0  0
 52156  1  0  0  0
 53 55  2  0  0  0
 53 56  1  0  0  0
 54 55  1  0  0  0
 55 57  1  0  0  0
 56 58  2  0  0  0
 56157  1  0  0  0
 57 59  2  0  0  0
 57158  1  0  0  0
 58 59  1  0  0  0
 58159  1  0  0  0
 59160  1  0  0  0
 60 61  1  0  0  0
 60161  1  0  0  0
 61 62  1  0  0  0
 61 64  1  0  0  0
 61162  1  0  0  0
 62 63  2  0  0  0
 62 74  1  0  0  0
 64 65  1  0  0  0
 64163  1  0  0  0
 64164  1  0  0  0
 65 66  2  0  0  0
 65 67  1  0  0  0
 66 68  1  0  0  0
 66165  1  0  0  0
 67 69  2  0  0  0
 67 70  1  0  0  0
 68 69  1  0  0  0
 69 71  1  0  0  0
 70 72  2  0  0  0
 70166  1  0  0  0
 71 73  2  0  0  0
 71167  1  0  0  0
 72 73  1  0  0  0
 72168  1  0  0  0
 73169  1  0  0  0
 74 75  1  0  0  0
 74170  1  0  0  0
 75 76  1  0  0  0
 75 78  1  0  0  0
 75171  1  0  0  0
 76 77  2  0  0  0
 76 79  1  0  0  0
 78172  1  0  0  0
 78173  1  0  0  0
 78174  1  0  0  0
 79 80  1  0  0  0
 79175  1  0  0  0
 80 81  1  0  0  0
 80 83  1  0  0  0
 80176  1  0  0  0
 81 82  2  0  0  0
 81 88  1  0  0  0
 83 84  1  0  0  0
 83177  1  0  0  0
 83178  1  0  0  0
 84 85  1  0  0  0
 84179  1  0  0  0
 84180  1  0  0  0
 85 86  2  0  0  0
 85 87  1  0  0  0
 87181  1  0  0  0
 87182  1  0  0  0
 88 89  1  0  0  0
 88183  1  0  0  0
 89 90  1  0  0  0
 89 92  1  0  0  0
 89184  1  0  0  0
 90 91  2  0  0  0
 90 96  1  0  0  0
 92 93  1  0  0  0
 92185  1  0  0  0
 92186  1  0  0  0
 93 94  1  0  0  0
 93 95  1  0  0  0
 93187  1  0  0  0
 94188  1  0  0  0
 94189  1  0  0  0
 94190  1  0  0  0
 95191  1  0  0  0
 95192  1  0  0  0
 95193  1  0  0  0
 96 97  1  0  0  0
 96194  1  0  0  0
 97 98  1  0  0  0
 97100  1  0  0  0
 97195  1  0  0  0
 98 99  2  0  0  0
 98103  1  0  0  0
100101  1  0  0  0
100102  1  0  0  0
100196  1  0  0  0
101197  1  0  0  0
102198  1  0  0  0
102199  1  0  0  0
102200  1  0  0  0
103104  1  0  0  0
103201  1  0  0  0
104105  1  0  0  0
104107  1  0  0  0
104202  1  0  0  0
105106  1  0  0  0
105109  2  0  0  0
106203  1  0  0  0
107108  1  0  0  0
107204  1  0  0  0
107205  1  0  0  0
108206  1  0  0  0
M  CHG  1   1   1
M  END
> <s_m_source_file>
../3jzr_ligand.sdf

> <i_m_source_file_index>
1

> <s_epik_input>
W0NIM11bQ0hdKFtDSDNdKVtDSDJdW0NASF0oW05IMytdKUMoPU8pW05IXVtDQEBIXShbQ0BIXShbT0hdKVtDSDNdKUMoPU8pW05IXVtDQEBIXShbQ0gyXWMxW2NIXVtjSF1bY0hdW2NIXVtjSF0xKUMoPU8pW05IXVtDQEBIXShbQ0gyXVtDSDJdQyg9TylbT0hdKUMoPU8pW05IXVtDQEBIXShbQ0gyXUMyPU5bQ0gyXU49W0NIXTIpQyg9TylbTkhdW0NAQEhdKFtDSDJdYzNbY0hdW25IXWMoYzM0KVtjSF1bY0hdW2NIXVtjSF00KUMoPU8pW05IXVtDQEBIXShbQ0gyXWM1W2NIXVtuSF1jKGM1NilbY0hdW2NIXVtjSF1bY0hdNilDKD1PKVtOSF1bQ0BASF0oW0NIM10pQyg9TylbTkhdW0NAQEhdKFtDSDJdW0NIMl1DKD1PKVtOSDJdKUMoPU8pW05IXVtDQEBIXShbQ0gyXVtDSF0oW0NIM10pW0NIM10pQyg9TylbTkhdW0NAQEhdKFtDQEhdKFtPSF0pW0NIM10pQyg9TylbTkhdW0NASF0oQyg9TylbT0hdKVtDSDJdW09IXQ==

> <s_epik_cmdline>
J2VwaWtfYXBwJywgJy1pbWFlJywgJ2xpZ2FuZF9wcm8ubWFlJywgJy1vbWFlJywgJ2xpZ2FuZF9wcmVwLm1hZScsICctbXMnLCAnMScsICctcGgnLCAnNycsICctcGh0JywgJzAuNScsICctbnQn

> <s_epik_pKa_notes>
Molecule size exceeds maximum supported for generating protonation states

> <s_epik_Chemistry_Notes>
This compound has an imine and may undergo hydrolysis.

$$$$
