3jzs_ligand
                    3D
 Schrodinger Suite 2020-3.
209214  0  0  1  0            999 V2000
  -11.3360    0.6570    8.7380 N   0  3  0  0  0  0
  -12.1200    0.0100    7.6320 C   0  0  2  0  0  0
  -11.4030    0.0400    6.2870 C   0  0  0  0  0  0
  -10.5310    0.8730    6.0560 O   0  0  0  0  0  0
  -13.4790    0.6870    7.5300 C   0  0  0  0  0  0
  -14.2630    0.5920    8.8160 C   0  0  0  0  0  0
  -14.2570   -0.8200    9.3500 C   0  0  0  0  0  0
  -13.2170   -1.2230    9.9390 O   0  0  0  0  0  0
  -15.2730   -1.5420    9.1570 O   0  0  0  0  0  0
  -11.7930   -0.8570    5.4010 N   0  0  0  0  0  0
  -11.1740   -0.9760    4.0790 C   0  0  2  0  0  0
  -11.6380    0.0810    3.1170 C   0  0  0  0  0  0
  -12.6240    0.7210    3.3750 O   0  0  0  0  0  0
  -11.4810   -2.3270    3.4620 C   0  0  2  0  0  0
  -12.8880   -2.4150    3.1670 O   0  0  0  0  0  0
  -11.1170   -3.4050    4.4440 C   0  0  0  0  0  0
  -10.9200    0.2440    2.0030 N   0  0  0  0  0  0
  -11.3110    1.2670    1.0300 C   0  0  2  0  0  0
  -12.7350    0.9670    0.5360 C   0  0  0  0  0  0
  -13.5780    1.8620    0.4610 O   0  0  0  0  0  0
  -10.3550    1.2890   -0.1620 C   0  0  0  0  0  0
  -10.8580    2.1110   -1.2650 C   0  0  0  0  0  0
  -10.8510    3.5040   -1.1680 C   0  0  0  0  0  0
  -11.4930    1.5060   -2.3340 C   0  0  0  0  0  0
  -11.4820    4.2850   -2.1120 C   0  0  0  0  0  0
  -12.1360    2.2780   -3.3020 C   0  0  0  0  0  0
  -12.1310    3.6910   -3.1730 C   0  0  0  0  0  0
  -12.9780   -0.2950    0.1680 N   0  0  0  0  0  0
  -14.2920   -0.7150   -0.3050 C   0  0  2  0  0  0
  -15.3920   -0.3740    0.7070 C   0  0  0  0  0  0
  -16.4850    0.0310    0.3200 O   0  0  0  0  0  0
  -14.2930   -2.2240   -0.6150 C   0  0  0  0  0  0
  -13.6470   -2.5930   -1.9730 C   0  0  0  0  0  0
  -13.1050   -4.0700   -2.0270 C   0  0  0  0  0  0
  -11.8790   -4.2450   -2.1570 O   0  0  0  0  0  0
  -13.8860   -5.0460   -1.9260 O   0  0  0  0  0  0
  -15.1320   -0.5620    1.9970 N   0  0  0  0  0  0
  -16.1220   -0.2230    3.0380 C   0  0  2  0  0  0
  -16.4670    1.2690    2.9780 C   0  0  0  0  0  0
  -17.6520    1.6450    2.9000 O   0  0  0  0  0  0
  -15.5990   -0.5540    4.4490 C   0  0  0  0  0  0
  -16.3830    0.0890    5.5640 C   0  0  0  0  0  0
  -17.5370   -0.4600    6.0820 N   0  0  0  0  0  0
  -16.1930    1.2520    6.2360 C   0  0  0  0  0  0
  -18.0240    0.3350    7.0200 C   0  0  0  0  0  0
  -17.2280    1.3820    7.1340 N   0  0  0  0  0  0
  -15.4490    2.1370    3.0350 N   0  0  0  0  0  0
  -15.7420    3.5600    2.9430 C   0  0  2  0  0  0
  -16.4510    3.9380    1.6090 C   0  0  0  0  0  0
  -17.3850    4.7190    1.5830 O   0  0  0  0  0  0
  -14.4460    4.3640    3.0420 C   0  0  0  0  0  0
  -13.7620    4.1530    4.3550 C   0  0  0  0  0  0
  -12.5330    3.6100    4.5610 C   0  0  0  0  0  0
  -14.3040    4.4370    5.6360 C   0  0  0  0  0  0
  -12.2760    3.5360    5.9030 N   0  0  0  0  0  0
  -13.3440    4.0370    6.5860 C   0  0  0  0  0  0
  -15.5080    4.9900    6.0740 C   0  0  0  0  0  0
  -13.5520    4.1640    7.9560 C   0  0  0  0  0  0
  -15.7230    5.1190    7.4500 C   0  0  0  0  0  0
  -14.7400    4.7060    8.3730 C   0  0  0  0  0  0
  -15.9880    3.3620    0.5170 N   0  0  0  0  0  0
  -16.5420    3.7440   -0.7470 C   0  0  2  0  0  0
  -17.9770    3.2940   -0.8920 C   0  0  0  0  0  0
  -18.8240    4.0570   -1.3960 O   0  0  0  0  0  0
  -15.6650    3.2330   -1.8940 C   0  0  0  0  0  0
  -16.0190    4.0060   -3.1470 C   0  0  0  0  0  0
  -16.9490    3.6760   -4.0950 C   0  0  0  0  0  0
  -15.5350    5.3050   -3.4900 C   0  0  0  0  0  0
  -17.0780    4.7090   -5.0290 N   0  0  0  0  0  0
  -16.2330    5.7230   -4.6660 C   0  0  0  0  0  0
  -14.5730    6.1660   -2.9190 C   0  0  0  0  0  0
  -16.0060    6.9730   -5.2700 C   0  0  0  0  0  0
  -14.3410    7.4090   -3.5240 C   0  0  0  0  0  0
  -15.0600    7.7960   -4.6830 C   0  0  0  0  0  0
  -18.2760    2.0870   -0.4090 N   0  0  0  0  0  0
  -19.6370    1.5390   -0.5350 C   0  0  2  0  0  0
  -20.6510    2.4820    0.1370 C   0  0  0  0  0  0
  -21.8350    2.5360   -0.2460 O   0  0  0  0  0  0
  -19.6870    0.1200    0.0800 C   0  0  0  0  0  0
  -19.5570    0.2240    1.4960 O   0  0  0  0  0  0
  -20.2110    3.2530    1.1300 N   0  0  0  0  0  0
  -21.1320    4.1960    1.7550 C   0  0  2  0  0  0
  -21.6100    5.2460    0.7750 C   0  0  0  0  0  0
  -22.7350    5.7490    0.8930 O   0  0  0  0  0  0
  -20.5000    4.8700    2.9610 C   0  0  0  0  0  0
  -20.1060    3.8880    4.0300 C   0  0  0  0  0  0
  -19.7470    4.5570    5.3480 C   0  0  0  0  0  0
  -19.4420    3.8740    6.3330 O   0  0  0  0  0  0
  -19.7800    5.8940    5.3790 N   0  0  0  0  0  0
  -20.7730    5.6120   -0.2080 N   0  0  0  0  0  0
  -21.2080    6.6010   -1.2020 C   0  0  2  0  0  0
  -22.2780    6.0310   -2.1220 C   0  0  0  0  0  0
  -22.9090    6.7830   -2.8620 O   0  0  0  0  0  0
  -20.0260    7.0310   -2.0760 C   0  0  0  0  0  0
  -19.0950    8.0750   -1.4510 C   0  0  0  0  0  0
  -17.7250    8.0760   -2.1490 C   0  0  0  0  0  0
  -19.7420    9.4500   -1.6170 C   0  0  0  0  0  0
  -22.4780    4.7080   -2.0940 N   0  0  0  0  0  0
  -23.4580    4.0750   -2.9820 C   0  0  2  0  0  0
  -24.7380    3.7110   -2.2240 C   0  0  0  0  0  0
  -25.6690    3.0930   -2.7640 O   0  0  0  0  0  0
  -22.8380    2.8160   -3.6460 C   0  0  0  0  0  0
  -21.4910    2.9870   -4.3420 C   0  0  0  0  0  0
  -20.9790    1.6450   -4.8910 C   0  0  0  0  0  0
  -21.6310    3.9480   -5.4850 C   0  0  0  0  0  0
  -24.7310    4.0800   -0.9480 N   0  0  0  0  0  0
  -25.8040    3.8680   -0.0030 C   0  0  2  0  0  0
  -26.8090    5.0220   -0.0860 C   0  0  0  0  0  0
  -26.6040    5.9950   -0.8590 O   0  0  0  0  0  0
  -25.2240    3.8340    1.4160 C   0  0  0  0  0  0
  -26.2540    3.8040    2.3600 O   0  0  0  0  0  0
  -27.7950    4.9400    0.6680 O   0  0  0  0  0  0
  -10.3510    0.1743    8.8201 H   0  0  0  0  0  0
  -11.8799    0.5442    9.6875 H   0  0  0  0  0  0
  -11.2031    1.7262    8.5163 H   0  0  0  0  0  0
  -12.2313   -1.0512    7.8993 H   0  0  0  0  0  0
  -13.3411    1.7522    7.2926 H   0  0  0  0  0  0
  -14.0688    0.2075    6.7349 H   0  0  0  0  0  0
  -13.8137    1.2559    9.5692 H   0  0  0  0  0  0
  -15.3044    0.8959    8.6339 H   0  0  0  0  0  0
  -13.1744   -2.2457   10.3419 H   0  0  0  0  0  0
  -12.6148   -1.5303    5.6861 H   0  0  0  0  0  0
  -10.1005   -0.8409    4.2775 H   0  0  0  0  0  0
  -10.9444   -2.4619    2.5113 H   0  0  0  0  0  0
  -13.3478   -1.7056    2.4632 H   0  0  0  0  0  0
  -10.0431   -3.3439    4.6742 H   0  0  0  0  0  0
  -11.3432   -4.3894    4.0084 H   0  0  0  0  0  0
  -11.6983   -3.2706    5.3681 H   0  0  0  0  0  0
  -10.0382   -0.3860    1.8144 H   0  0  0  0  0  0
  -11.2540    2.2303    1.5579 H   0  0  0  0  0  0
   -9.3849    1.7004    0.1536 H   0  0  0  0  0  0
  -10.2141    0.2649   -0.5380 H   0  0  0  0  0  0
  -10.3385    3.9811   -0.3326 H   0  0  0  0  0  0
  -11.4912    0.4195   -2.4209 H   0  0  0  0  0  0
  -11.4679    5.3710   -2.0197 H   0  0  0  0  0  0
  -12.6354    1.8021   -4.1459 H   0  0  0  0  0  0
  -12.6408    4.3072   -3.9136 H   0  0  0  0  0  0
  -12.1565   -1.0240    0.2289 H   0  0  0  0  0  0
  -14.4583   -0.1311   -1.2223 H   0  0  0  0  0  0
  -13.7319   -2.7590    0.1654 H   0  0  0  0  0  0
  -15.3291   -2.5926   -0.6396 H   0  0  0  0  0  0
  -14.3923   -2.4852   -2.7749 H   0  0  0  0  0  0
  -12.7976   -1.9222   -2.1693 H   0  0  0  0  0  0
  -13.4919   -6.0722   -1.9656 H   0  0  0  0  0  0
  -14.1551   -0.9796    2.2822 H   0  0  0  0  0  0
  -17.0011   -0.8417    2.8047 H   0  0  0  0  0  0
  -15.6410   -1.6414    4.6099 H   0  0  0  0  0  0
  -14.5589   -0.2091    4.5448 H   0  0  0  0  0  0
  -15.4153    2.0277    6.1770 H   0  0  0  0  0  0
  -18.9291    0.1561    7.6005 H   0  0  0  0  0  0
  -14.4095    1.7957    3.1487 H   0  0  0  0  0  0
  -16.4039    3.7413    3.8027 H   0  0  0  0  0  0
  -13.7596    4.0532    2.2406 H   0  0  0  0  0  0
  -14.6705    5.4358    2.9373 H   0  0  0  0  0  0
  -11.8534    3.2823    3.7743 H   0  0  0  0  0  0
  -16.2644    5.3144    5.3594 H   0  0  0  0  0  0
  -12.7962    3.8435    8.6730 H   0  0  0  0  0  0
  -16.6595    5.5429    7.8125 H   0  0  0  0  0  0
  -14.9289    4.8202    9.4404 H   0  0  0  0  0  0
  -15.1933    2.6028    0.5623 H   0  0  0  0  0  0
  -16.5387    4.8438   -0.7241 H   0  0  0  0  0  0
  -14.6054    3.3884   -1.6427 H   0  0  0  0  0  0
  -15.8517    2.1600   -2.0484 H   0  0  0  0  0  0
  -17.5093    2.7414   -4.1188 H   0  0  0  0  0  0
  -14.0220    5.8704   -2.0262 H   0  0  0  0  0  0
  -16.5516    7.2805   -6.1621 H   0  0  0  0  0  0
  -13.5996    8.0855   -3.0987 H   0  0  0  0  0  0
  -14.8618    8.7721   -5.1258 H   0  0  0  0  0  0
  -17.4904    1.4994    0.0885 H   0  0  0  0  0  0
  -19.8630    1.4842   -1.6101 H   0  0  0  0  0  0
  -20.6471   -0.3547   -0.1708 H   0  0  0  0  0  0
  -18.8622   -0.4845   -0.3252 H   0  0  0  0  0  0
  -19.5692   -0.6835    2.1176 H   0  0  0  0  0  0
  -19.1703    3.1865    1.4801 H   0  0  0  0  0  0
  -21.9843    3.5768    2.0714 H   0  0  0  0  0  0
  -19.5943    5.4095    2.6468 H   0  0  0  0  0  0
  -21.2156    5.5801    3.4011 H   0  0  0  0  0  0
  -20.9422    3.1995    4.2216 H   0  0  0  0  0  0
  -19.2284    3.3150    3.6961 H   0  0  0  0  0  0
  -20.0575    6.4584    4.4765 H   0  0  0  0  0  0
  -19.5296    6.4290    6.3070 H   0  0  0  0  0  0
  -19.7655    5.1750   -0.2713 H   0  0  0  0  0  0
  -21.6124    7.4357   -0.6106 H   0  0  0  0  0  0
  -19.4023    6.1546   -2.3062 H   0  0  0  0  0  0
  -20.4024    7.4692   -3.0121 H   0  0  0  0  0  0
  -18.9464    7.8378   -0.3872 H   0  0  0  0  0  0
  -17.2538    7.0888   -2.0332 H   0  0  0  0  0  0
  -17.0825    8.8446   -1.6945 H   0  0  0  0  0  0
  -17.8586    8.2954   -3.2186 H   0  0  0  0  0  0
  -20.7231    9.4560   -1.1196 H   0  0  0  0  0  0
  -19.8723    9.6671   -2.6875 H   0  0  0  0  0  0
  -19.0962   10.2163   -1.1634 H   0  0  0  0  0  0
  -21.8948    4.0941   -1.3919 H   0  0  0  0  0  0
  -23.7040    4.8362   -3.7370 H   0  0  0  0  0  0
  -22.6780    2.0402   -2.8828 H   0  0  0  0  0  0
  -23.5217    2.4347   -4.4188 H   0  0  0  0  0  0
  -20.7756    3.3920   -3.6112 H   0  0  0  0  0  0
  -20.8707    0.9279   -4.0640 H   0  0  0  0  0  0
  -20.0032    1.7956   -5.3759 H   0  0  0  0  0  0
  -21.6968    1.2516   -5.6258 H   0  0  0  0  0  0
  -21.9970    4.9146   -5.1086 H   0  0  0  0  0  0
  -22.3462    3.5451   -6.2173 H   0  0  0  0  0  0
  -20.6525    4.0890   -5.9674 H   0  0  0  0  0  0
  -23.8086    4.5869   -0.6282 H   0  0  0  0  0  0
  -26.2693    2.9116   -0.2837 H   0  0  0  0  0  0
  -27.3314    6.8185   -0.9114 H   0  0  0  0  0  0
  -24.6006    2.9357    1.5359 H   0  0  0  0  0  0
  -24.6100    4.7313    1.5827 H   0  0  0  0  0  0
  -26.0156    3.7772    3.4335 H   0  0  0  0  0  0
  1  2  1  0  0  0
  1113  1  0  0  0
  1114  1  0  0  0
  1115  1  0  0  0
  2  3  1  0  0  0
  2  5  1  0  0  0
  2116  1  0  0  0
  3  4  2  0  0  0
  3 10  1  0  0  0
  5  6  1  0  0  0
  5117  1  0  0  0
  5118  1  0  0  0
  6  7  1  0  0  0
  6119  1  0  0  0
  6120  1  0  0  0
  7  8  1  0  0  0
  7  9  2  0  0  0
  8121  1  0  0  0
 10 11  1  0  0  0
 10122  1  0  0  0
 11 12  1  0  0  0
 11 14  1  0  0  0
 11123  1  0  0  0
 12 13  2  0  0  0
 12 17  1  0  0  0
 14 15  1  0  0  0
 14 16  1  0  0  0
 14124  1  0  0  0
 15125  1  0  0  0
 16126  1  0  0  0
 16127  1  0  0  0
 16128  1  0  0  0
 17 18  1  0  0  0
 17129  1  0  0  0
 18 19  1  0  0  0
 18 21  1  0  0  0
 18130  1  0  0  0
 19 20  2  0  0  0
 19 28  1  0  0  0
 21 22  1  0  0  0
 21131  1  0  0  0
 21132  1  0  0  0
 22 23  2  0  0  0
 22 24  1  0  0  0
 23 25  1  0  0  0
 23133  1  0  0  0
 24 26  2  0  0  0
 24134  1  0  0  0
 25 27  2  0  0  0
 25135  1  0  0  0
 26 27  1  0  0  0
 26136  1  0  0  0
 27137  1  0  0  0
 28 29  1  0  0  0
 28138  1  0  0  0
 29 30  1  0  0  0
 29 32  1  0  0  0
 29139  1  0  0  0
 30 31  2  0  0  0
 30 37  1  0  0  0
 32 33  1  0  0  0
 32140  1  0  0  0
 32141  1  0  0  0
 33 34  1  0  0  0
 33142  1  0  0  0
 33143  1  0  0  0
 34 35  2  0  0  0
 34 36  1  0  0  0
 36144  1  0  0  0
 37 38  1  0  0  0
 37145  1  0  0  0
 38 39  1  0  0  0
 38 41  1  0  0  0
 38146  1  0  0  0
 39 40  2  0  0  0
 39 47  1  0  0  0
 41 42  1  0  0  0
 41147  1  0  0  0
 41148  1  0  0  0
 42 43  2  0  0  0
 42 44  1  0  0  0
 43 45  1  0  0  0
 44 46  2  0  0  0
 44149  1  0  0  0
 45 46  1  0  0  0
 45150  1  0  0  0
 47 48  1  0  0  0
 47151  1  0  0  0
 48 49  1  0  0  0
 48 51  1  0  0  0
 48152  1  0  0  0
 49 50  2  0  0  0
 49 61  1  0  0  0
 51 52  1  0  0  0
 51153  1  0  0  0
 51154  1  0  0  0
 52 53  2  0  0  0
 52 54  1  0  0  0
 53 55  1  0  0  0
 53155  1  0  0  0
 54 56  2  0  0  0
 54 57  1  0  0  0
 55 56  1  0  0  0
 56 58  1  0  0  0
 57 59  2  0  0  0
 57156  1  0  0  0
 58 60  2  0  0  0
 58157  1  0  0  0
 59 60  1  0  0  0
 59158  1  0  0  0
 60159  1  0  0  0
 61 62  1  0  0  0
 61160  1  0  0  0
 62 63  1  0  0  0
 62 65  1  0  0  0
 62161  1  0  0  0
 63 64  2  0  0  0
 63 75  1  0  0  0
 65 66  1  0  0  0
 65162  1  0  0  0
 65163  1  0  0  0
 66 67  2  0  0  0
 66 68  1  0  0  0
 67 69  1  0  0  0
 67164  1  0  0  0
 68 70  2  0  0  0
 68 71  1  0  0  0
 69 70  1  0  0  0
 70 72  1  0  0  0
 71 73  2  0  0  0
 71165  1  0  0  0
 72 74  2  0  0  0
 72166  1  0  0  0
 73 74  1  0  0  0
 73167  1  0  0  0
 74168  1  0  0  0
 75 76  1  0  0  0
 75169  1  0  0  0
 76 77  1  0  0  0
 76 79  1  0  0  0
 76170  1  0  0  0
 77 78  2  0  0  0
 77 81  1  0  0  0
 79 80  1  0  0  0
 79171  1  0  0  0
 79172  1  0  0  0
 80173  1  0  0  0
 81 82  1  0  0  0
 81174  1  0  0  0
 82 83  1  0  0  0
 82 85  1  0  0  0
 82175  1  0  0  0
 83 84  2  0  0  0
 83 90  1  0  0  0
 85 86  1  0  0  0
 85176  1  0  0  0
 85177  1  0  0  0
 86 87  1  0  0  0
 86178  1  0  0  0
 86179  1  0  0  0
 87 88  2  0  0  0
 87 89  1  0  0  0
 89180  1  0  0  0
 89181  1  0  0  0
 90 91  1  0  0  0
 90182  1  0  0  0
 91 92  1  0  0  0
 91 94  1  0  0  0
 91183  1  0  0  0
 92 93  2  0  0  0
 92 98  1  0  0  0
 94 95  1  0  0  0
 94184  1  0  0  0
 94185  1  0  0  0
 95 96  1  0  0  0
 95 97  1  0  0  0
 95186  1  0  0  0
 96187  1  0  0  0
 96188  1  0  0  0
 96189  1  0  0  0
 97190  1  0  0  0
 97191  1  0  0  0
 97192  1  0  0  0
 98 99  1  0  0  0
 98193  1  0  0  0
 99100  1  0  0  0
 99102  1  0  0  0
 99194  1  0  0  0
100101  2  0  0  0
100106  1  0  0  0
102103  1  0  0  0
102195  1  0  0  0
102196  1  0  0  0
103104  1  0  0  0
103105  1  0  0  0
103197  1  0  0  0
104198  1  0  0  0
104199  1  0  0  0
104200  1  0  0  0
105201  1  0  0  0
105202  1  0  0  0
105203  1  0  0  0
106107  1  0  0  0
106204  1  0  0  0
107108  1  0  0  0
107110  1  0  0  0
107205  1  0  0  0
108109  1  0  0  0
108112  2  0  0  0
109206  1  0  0  0
110111  1  0  0  0
110207  1  0  0  0
110208  1  0  0  0
111209  1  0  0  0
M  CHG  1   1   1
M  END
> <s_m_source_file>
../3jzs_ligand.sdf

> <i_m_source_file_index>
1

> <s_epik_input>
W09IXUMoPU8pW0NIMl1bQ0gyXVtDQEhdKFtOSDMrXSlDKD1PKVtOSF1bQ0BASF0oW0NASF0oW09IXSlbQ0gzXSlDKD1PKVtOSF1bQ0BASF0oW0NIMl1jMVtjSF1bY0hdW2NIXVtjSF1bY0hdMSlDKD1PKVtOSF1bQ0BASF0oW0NIMl1bQ0gyXUMoPU8pW09IXSlDKD1PKVtOSF1bQ0BASF0oW0NIMl1DMj1OW0NIMl1OPVtDSF0yKUMoPU8pW05IXVtDQEBIXShbQ0gyXWMzW2NIXVtuSF1jKGMzNClbY0hdW2NIXVtjSF1bY0hdNClDKD1PKVtOSF1bQ0BASF0oW0NIMl1jNVtjSF1bbkhdYyhjNTYpW2NIXVtjSF1bY0hdW2NIXTYpQyg9TylbTkhdW0NAQEhdKFtDSDJdW09IXSlDKD1PKVtOSF1bQ0BASF0oW0NIMl1bQ0gyXUMoPU8pW05IMl0pQyg9TylbTkhdW0NAQEhdKFtDSDJdW0NIXShbQ0gzXSlbQ0gzXSlDKD1PKVtOSF1bQ0BASF0oW0NIMl1bQ0hdKFtDSDNdKVtDSDNdKUMoPU8pW05IXVtDQEhdKEMoPU8pW09IXSlbQ0gyXVtPSF0=

> <s_epik_cmdline>
J2VwaWtfYXBwJywgJy1pbWFlJywgJ2xpZ2FuZF9wcm8ubWFlJywgJy1vbWFlJywgJ2xpZ2FuZF9wcmVwLm1hZScsICctbXMnLCAnMScsICctcGgnLCAnNycsICctcGh0JywgJzAuNScsICctbnQn

> <s_epik_pKa_notes>
Molecule size exceeds maximum supported for generating protonation states

> <s_epik_Chemistry_Notes>
This compound has an imine and may undergo hydrolysis.

$$$$
