3k05_ligand
                    3D
 Schrodinger Suite 2020-3.
 72 72  0  0  1  0            999 V2000
    8.6600  -15.6940  -30.6370 N   0  3  0  0  0  0
    8.7300  -14.3420  -30.0070 C   0  0  1  0  0  0
    8.7880  -14.4390  -28.4870 C   0  0  0  0  0  0
    7.5530  -14.9800  -28.0550 O   0  0  0  0  0  0
    9.9110  -13.5510  -30.5040 C   0  0  0  0  0  0
   10.9190  -14.1170  -30.9210 O   0  0  0  0  0  0
    7.4610  -15.4760  -26.5380 P   0  0  0  0  0  0
    8.0890  -14.3840  -25.5990 O   0  0  0  0  0  0
    8.1980  -16.8710  -26.4330 O   0  5  0  0  0  0
    5.8840  -15.6660  -26.3260 O   0  5  0  0  0  0
    9.7520  -12.2350  -30.4920 N   0  0  0  0  0  0
   10.7830  -11.3280  -30.9340 C   0  0  2  0  0  0
   11.7040  -10.9140  -29.7920 C   0  0  0  0  0  0
   11.2500  -10.7040  -28.6670 O   0  0  0  0  0  0
   10.1430  -10.0870  -31.5510 C   0  0  0  0  0  0
    9.2880  -10.4120  -32.7670 C   0  0  0  0  0  0
   10.1060  -11.0230  -33.8810 C   0  0  0  0  0  0
   10.3340  -12.2440  -33.9410 O   0  0  0  0  0  0
   10.5800  -10.1710  -34.7720 N   0  0  0  0  0  0
   12.9880  -10.7900  -30.1120 N   0  0  0  0  0  0
   13.9940  -10.2280  -29.2210 C   0  0  2  0  0  0
   14.4580   -8.8860  -29.7690 C   0  0  0  0  0  0
   14.4270   -8.6510  -30.9760 O   0  0  0  0  0  0
   15.1780  -11.1960  -29.0700 C   0  0  0  0  0  0
   14.7890  -12.4510  -28.3240 C   0  0  0  0  0  0
   15.8900  -13.4900  -28.2680 C   0  0  0  0  0  0
   17.0620  -13.1410  -28.0440 O   0  5  0  0  0  0
   15.5610  -14.6780  -28.4260 O   0  0  0  0  0  0
   14.8800   -8.0190  -28.8550 N   0  0  0  0  0  0
   15.1960   -6.6220  -29.1410 C   0  0  2  0  0  0
   16.5690   -6.2360  -28.5710 C   0  0  0  0  0  0
   17.1120   -6.9090  -27.7080 O   0  0  0  0  0  0
   14.1130   -5.6940  -28.5330 C   0  0  0  0  0  0
   12.7610   -5.9740  -29.1080 C   0  0  0  0  0  0
   11.9280   -6.9290  -28.5320 C   0  0  0  0  0  0
   12.3210   -5.3170  -30.2510 C   0  0  0  0  0  0
   10.7090   -7.2180  -29.0760 C   0  0  0  0  0  0
   11.1010   -5.6080  -30.8200 C   0  0  0  0  0  0
   10.2810   -6.5480  -30.2120 C   0  0  0  0  0  0
    9.0570   -6.8310  -30.7620 O   0  0  0  0  0  0
   17.1080   -5.1170  -29.0240 N   0  0  0  0  0  0
    7.7857  -16.2355  -30.2468 H   0  0  0  0  0  0
    9.5752  -16.2565  -30.4005 H   0  0  0  0  0  0
    8.5675  -15.5859  -31.7278 H   0  0  0  0  0  0
    7.8101  -13.8242  -30.3163 H   0  0  0  0  0  0
    9.6215  -15.0938  -28.1929 H   0  0  0  0  0  0
    8.9416  -13.4365  -28.0612 H   0  0  0  0  0  0
    8.7917  -11.8408  -30.1281 H   0  0  0  0  0  0
   11.3582  -11.9017  -31.6756 H   0  0  0  0  0  0
    9.4981   -9.5981  -30.8059 H   0  0  0  0  0  0
   10.9305   -9.3880  -31.8693 H   0  0  0  0  0  0
    8.5029  -11.1280  -32.4824 H   0  0  0  0  0  0
    8.8233   -9.4897  -33.1457 H   0  0  0  0  0  0
   10.3541   -9.0982  -34.6816 H   0  0  0  0  0  0
   11.2006  -10.5342  -35.6044 H   0  0  0  0  0  0
   13.2753  -11.1411  -31.1141 H   0  0  0  0  0  0
   13.5074  -10.0855  -28.2448 H   0  0  0  0  0  0
   15.5431  -11.4869  -30.0660 H   0  0  0  0  0  0
   15.9873  -10.7014  -28.5129 H   0  0  0  0  0  0
   14.5267  -12.1947  -27.2869 H   0  0  0  0  0  0
   13.9229  -12.9169  -28.8168 H   0  0  0  0  0  0
   14.9870   -8.4088  -27.8320 H   0  0  0  0  0  0
   15.2155   -6.5597  -30.2391 H   0  0  0  0  0  0
   14.0661   -5.8490  -27.4450 H   0  0  0  0  0  0
   14.3689   -4.6450  -28.7432 H   0  0  0  0  0  0
   12.2533   -7.4538  -27.6337 H   0  0  0  0  0  0
   12.9545   -4.5558  -30.7064 H   0  0  0  0  0  0
   10.0729   -7.9750  -28.6173 H   0  0  0  0  0  0
   10.7841   -5.1071  -31.7348 H   0  0  0  0  0  0
    8.3996   -7.5745  -30.2877 H   0  0  0  0  0  0
   16.5931   -4.5341  -29.8019 H   0  0  0  0  0  0
   18.0714   -4.7689  -28.6230 H   0  0  0  0  0  0
  1  2  1  0  0  0
  1 42  1  0  0  0
  1 43  1  0  0  0
  1 44  1  0  0  0
  2  3  1  0  0  0
  2  5  1  0  0  0
  2 45  1  0  0  0
  3  4  1  0  0  0
  3 46  1  0  0  0
  3 47  1  0  0  0
  4  7  1  0  0  0
  5  6  2  0  0  0
  5 11  1  0  0  0
  7  8  2  0  0  0
  7  9  1  0  0  0
  7 10  1  0  0  0
 11 12  1  0  0  0
 11 48  1  0  0  0
 12 13  1  0  0  0
 12 15  1  0  0  0
 12 49  1  0  0  0
 13 14  2  0  0  0
 13 20  1  0  0  0
 15 16  1  0  0  0
 15 50  1  0  0  0
 15 51  1  0  0  0
 16 17  1  0  0  0
 16 52  1  0  0  0
 16 53  1  0  0  0
 17 18  2  0  0  0
 17 19  1  0  0  0
 19 54  1  0  0  0
 19 55  1  0  0  0
 20 21  1  0  0  0
 20 56  1  0  0  0
 21 22  1  0  0  0
 21 24  1  0  0  0
 21 57  1  0  0  0
 22 23  2  0  0  0
 22 29  1  0  0  0
 24 25  1  0  0  0
 24 58  1  0  0  0
 24 59  1  0  0  0
 25 26  1  0  0  0
 25 60  1  0  0  0
 25 61  1  0  0  0
 26 27  1  0  0  0
 26 28  2  0  0  0
 29 30  1  0  0  0
 29 62  1  0  0  0
 30 31  1  0  0  0
 30 33  1  0  0  0
 30 63  1  0  0  0
 31 32  2  0  0  0
 31 41  1  0  0  0
 33 34  1  0  0  0
 33 64  1  0  0  0
 33 65  1  0  0  0
 34 35  2  0  0  0
 34 36  1  0  0  0
 35 37  1  0  0  0
 35 66  1  0  0  0
 36 38  2  0  0  0
 36 67  1  0  0  0
 37 39  2  0  0  0
 37 68  1  0  0  0
 38 39  1  0  0  0
 38 69  1  0  0  0
 39 40  1  0  0  0
 40 70  1  0  0  0
 41 71  1  0  0  0
 41 72  1  0  0  0
M  CHG  4   1   1   9  -1  10  -1  27  -1
M  END
> <s_m_source_file>
../3k05_ligand.sdf

> <i_m_source_file_index>
1

> <s_epik_input>
Tz1QKFtPSF0pKFtPSF0pT1tDSDJdW0NASF0oW05IMytdKUMoPU8pW05IXVtDQEBIXShbQ0gyXVtDSDJdQyg9TylbTkgyXSlDKD1PKVtOSF1bQ0BASF0oW0NIMl1bQ0gyXUMoPU8pW09IXSlDKD1PKVtOSF1bQ0BIXShDKD1PKVtOSDJdKVtDSDJdYzFbY0hdW2NIXWMoW09IXSlbY0hdW2NIXTE=

> <s_epik_cmdline>
J2VwaWtfYXBwJywgJy1pbWFlJywgJ2xpZ2FuZF9wcm8ubWFlJywgJy1vbWFlJywgJ2xpZ2FuZF9wcmVwLm1hZScsICctbXMnLCAnMScsICctcGgnLCAnNycsICctcGh0JywgJzAuNScsICctbnQn

> <r_lp_tautomer_probability>
0.999999999997365

> <r_epik_Ionization_Penalty>
  0.3663

> <r_epik_Ionization_Penalty_Charging>
  0.3653

> <r_epik_Ionization_Penalty_Neutral>
  0.0011

> <r_epik_State_Penalty>
  0.2912

> <r_epik_Charging_Adjusted_Penalty>
0.656428760714221

> <i_epik_Tot_Q>
-2

> <i_epik_Tot_abs_Q>
4

$$$$
