3k0h_ligand
                    3D
 Schrodinger Suite 2020-3.
 67 68  0  0  1  0            999 V2000
  -27.5940   54.7170    6.2350 N   0  3  0  0  0  0
  -26.2340   54.5760    5.6640 C   0  0  1  0  0  0
  -26.2340   53.5200    4.5790 C   0  0  0  0  0  0
  -26.3590   52.2540    5.1630 O   0  0  0  0  0  0
  -25.7600   55.8920    5.0790 C   0  0  0  0  0  0
  -26.5640   56.6960    4.6220 O   0  0  0  0  0  0
  -27.5890   51.5100    4.4900 P   0  0  0  0  0  0
  -27.2330   51.0480    2.9980 O   0  5  0  0  0  0
  -28.7530   52.6170    4.5700 O   0  5  0  0  0  0
  -27.9690   50.1700    5.2720 O   0  0  0  0  0  0
  -24.4460   56.1280    5.1060 N   0  0  0  0  0  0
  -23.9510   57.2970    4.4040 C   0  0  2  0  0  0
  -24.0330   57.0350    2.9160 C   0  0  0  0  0  0
  -23.8880   55.8920    2.4880 O   0  0  0  0  0  0
  -22.4910   57.3780    4.8530 C   0  0  0  0  0  0
  -22.4550   56.6000    6.1630 C   0  0  0  0  0  0
  -23.4040   55.4760    5.9150 C   0  0  0  0  0  0
  -24.2990   58.0740    2.1350 N   0  0  0  0  0  0
  -24.2380   57.9630    0.6880 C   0  0  2  0  0  0
  -23.0450   58.7790    0.2320 C   0  0  0  0  0  0
  -22.6130   59.7120    0.9190 O   0  0  0  0  0  0
  -25.4860   58.5450    0.0200 C   0  0  2  0  0  0
  -25.9510   59.6630    0.7860 O   0  0  0  0  0  0
  -26.6040   57.5060   -0.0810 C   0  0  0  0  0  0
  -22.5000   58.4170   -0.9220 N   0  0  0  0  0  0
  -21.3760   59.1370   -1.4930 C   0  0  2  0  0  0
  -21.7660   59.5680   -2.8950 C   0  0  0  0  0  0
  -21.7330   58.7710   -3.8460 O   0  0  0  0  0  0
  -20.1400   58.2360   -1.5290 C   0  0  0  0  0  0
  -19.8580   57.5590   -0.2230 C   0  0  0  0  0  0
  -20.5080   56.3790    0.1100 C   0  0  0  0  0  0
  -18.9630   58.1130    0.6780 C   0  0  0  0  0  0
  -20.2800   55.7620    1.3020 C   0  0  0  0  0  0
  -18.7180   57.4920    1.8950 C   0  0  0  0  0  0
  -19.3850   56.3140    2.2070 C   0  0  0  0  0  0
  -22.1610   60.8260   -3.0140 N   0  0  0  0  0  0
  -27.9179   53.7525    6.6532 H   0  0  0  0  0  0
  -28.2932   55.0273    5.4445 H   0  0  0  0  0  0
  -27.5805   55.4759    7.0312 H   0  0  0  0  0  0
  -25.5699   54.2754    6.4878 H   0  0  0  0  0  0
  -27.0790   53.6951    3.8969 H   0  0  0  0  0  0
  -25.2908   53.5733    4.0155 H   0  0  0  0  0  0
  -24.5404   58.1981    4.6289 H   0  0  0  0  0  0
  -21.8460   56.9235    4.0866 H   0  0  0  0  0  0
  -22.2081   58.4318    4.9923 H   0  0  0  0  0  0
  -21.4293   56.2517    6.3545 H   0  0  0  0  0  0
  -22.7803   57.2530    6.9863 H   0  0  0  0  0  0
  -23.8515   55.0783    6.8378 H   0  0  0  0  0  0
  -22.9555   54.6522    5.3404 H   0  0  0  0  0  0
  -24.5696   59.0324    2.6022 H   0  0  0  0  0  0
  -24.1555   56.8904    0.4584 H   0  0  0  0  0  0
  -25.2342   58.9230   -0.9818 H   0  0  0  0  0  0
  -25.2850   60.5190    0.9697 H   0  0  0  0  0  0
  -26.2524   56.6450   -0.6684 H   0  0  0  0  0  0
  -27.4781   57.9548   -0.5755 H   0  0  0  0  0  0
  -26.8855   57.1710    0.9282 H   0  0  0  0  0  0
  -22.9208   57.5475   -1.4482 H   0  0  0  0  0  0
  -21.1719   60.0106   -0.8565 H   0  0  0  0  0  0
  -20.2817   57.4493   -2.2846 H   0  0  0  0  0  0
  -19.2555   58.8370   -1.7868 H   0  0  0  0  0  0
  -21.2132   55.9386   -0.5949 H   0  0  0  0  0  0
  -18.4486   59.0414    0.4298 H   0  0  0  0  0  0
  -20.8000   54.8354    1.5450 H   0  0  0  0  0  0
  -18.0083   57.9250    2.5999 H   0  0  0  0  0  0
  -19.2051   55.8231    3.1634 H   0  0  0  0  0  0
  -22.1686   61.4857   -2.1338 H   0  0  0  0  0  0
  -22.4816   61.2115   -3.9931 H   0  0  0  0  0  0
  1  2  1  0  0  0
  1 37  1  0  0  0
  1 38  1  0  0  0
  1 39  1  0  0  0
  2  3  1  0  0  0
  2  5  1  0  0  0
  2 40  1  0  0  0
  3  4  1  0  0  0
  3 41  1  0  0  0
  3 42  1  0  0  0
  4  7  1  0  0  0
  5  6  2  0  0  0
  5 11  1  0  0  0
  7  8  1  0  0  0
  7  9  1  0  0  0
  7 10  2  0  0  0
 11 12  1  0  0  0
 11 17  1  0  0  0
 12 13  1  0  0  0
 12 15  1  0  0  0
 12 43  1  0  0  0
 13 14  2  0  0  0
 13 18  1  0  0  0
 15 16  1  0  0  0
 15 44  1  0  0  0
 15 45  1  0  0  0
 16 17  1  0  0  0
 16 46  1  0  0  0
 16 47  1  0  0  0
 17 48  1  0  0  0
 17 49  1  0  0  0
 18 19  1  0  0  0
 18 50  1  0  0  0
 19 20  1  0  0  0
 19 22  1  0  0  0
 19 51  1  0  0  0
 20 21  2  0  0  0
 20 25  1  0  0  0
 22 23  1  0  0  0
 22 24  1  0  0  0
 22 52  1  0  0  0
 23 53  1  0  0  0
 24 54  1  0  0  0
 24 55  1  0  0  0
 24 56  1  0  0  0
 25 26  1  0  0  0
 25 57  1  0  0  0
 26 27  1  0  0  0
 26 29  1  0  0  0
 26 58  1  0  0  0
 27 28  2  0  0  0
 27 36  1  0  0  0
 29 30  1  0  0  0
 29 59  1  0  0  0
 29 60  1  0  0  0
 30 31  2  0  0  0
 30 32  1  0  0  0
 31 33  1  0  0  0
 31 61  1  0  0  0
 32 34  2  0  0  0
 32 62  1  0  0  0
 33 35  2  0  0  0
 33 63  1  0  0  0
 34 35  1  0  0  0
 34 64  1  0  0  0
 35 65  1  0  0  0
 36 66  1  0  0  0
 36 67  1  0  0  0
M  CHG  3   1   1   8  -1   9  -1
M  END
> <s_m_source_file>
../3k0h_ligand.sdf

> <i_m_source_file_index>
1

> <s_epik_input>
W09IXVAoPU8pKFtPSF0pT1tDSDJdW0NASF0oW05IMytdKUMoPU8pTjFbQ0BASF0oW0NIMl1bQ0gyXVtDSDJdMSlDKD1PKVtOSF1bQ0BASF0oW0NASF0oW09IXSlbQ0gzXSlDKD1PKVtOSF1bQ0BIXShDKD1PKVtOSDJdKVtDSDJdYzJbY0hdW2NIXVtjSF1bY0hdW2NIXTI=

> <s_epik_cmdline>
J2VwaWtfYXBwJywgJy1pbWFlJywgJ2xpZ2FuZF9wcm8ubWFlJywgJy1vbWFlJywgJ2xpZ2FuZF9wcmVwLm1hZScsICctbXMnLCAnMScsICctcGgnLCAnNycsICctcGh0JywgJzAuNScsICctbnQn

> <r_epik_Ionization_Penalty>
  0.3321

> <r_epik_Ionization_Penalty_Charging>
  0.3321

> <r_epik_Ionization_Penalty_Neutral>
  0.0000

> <r_epik_State_Penalty>
  0.2659

> <r_epik_Charging_Adjusted_Penalty>
0.598012240788009

> <i_epik_Tot_Q>
-1

> <i_epik_Tot_abs_Q>
3

$$$$
