3k0k_ligand
                    3D
 Schrodinger Suite 2020-3.
 65 66  0  0  1  0            999 V2000
  -27.7900   54.9330    6.0630 N   0  3  0  0  0  0
  -26.3780   54.6480    5.6870 C   0  0  1  0  0  0
  -26.3120   53.4960    4.6930 C   0  0  0  0  0  0
  -26.5210   52.2770    5.3560 O   0  0  0  0  0  0
  -25.7920   55.8950    5.0620 C   0  0  0  0  0  0
  -26.5300   56.7390    4.5650 O   0  0  0  0  0  0
  -27.4470   51.3100    4.4940 P   0  0  0  0  0  0
  -26.8170   50.9630    3.0650 O   0  0  0  0  0  0
  -28.8040   52.1510    4.3360 O   0  5  0  0  0  0
  -27.7010   49.8900    5.1870 O   0  5  0  0  0  0
  -24.4640   56.0320    5.1000 N   0  0  0  0  0  0
  -23.8760   57.1850    4.4320 C   0  0  2  0  0  0
  -23.8620   56.9600    2.9370 C   0  0  0  0  0  0
  -23.7860   55.8180    2.4980 O   0  0  0  0  0  0
  -22.4470   57.2160    4.9860 C   0  0  0  0  0  0
  -22.5060   56.3850    6.2640 C   0  0  0  0  0  0
  -23.4820   55.3050    5.9190 C   0  0  0  0  0  0
  -23.9630   58.0330    2.1590 N   0  0  0  0  0  0
  -23.8190   57.9290    0.7100 C   0  0  2  0  0  0
  -22.5280   58.5980    0.2610 C   0  0  0  0  0  0
  -21.9410   59.3930    0.9910 O   0  0  0  0  0  0
  -24.9890   58.5790   -0.0280 C   0  0  2  0  0  0
  -25.1270   59.9450    0.3940 O   0  0  0  0  0  0
  -26.2830   57.8270    0.2500 C   0  0  0  0  0  0
  -22.0780   58.2720   -0.9420 N   0  0  0  0  0  0
  -20.8370   58.8400   -1.4460 C   0  0  2  0  0  0
  -21.0110   59.2750   -2.8900 C   0  0  0  0  0  0
  -21.2770   58.4580   -3.7880 O   0  5  0  0  0  0
  -19.6950   57.8170   -1.3450 C   0  0  0  0  0  0
  -19.6360   57.1050   -0.0290 C   0  0  0  0  0  0
  -20.3170   55.9170    0.1560 C   0  0  0  0  0  0
  -18.9100   57.6310    1.0220 C   0  0  0  0  0  0
  -20.2780   55.2660    1.3530 C   0  0  0  0  0  0
  -18.8610   56.9810    2.2400 C   0  0  0  0  0  0
  -19.5520   55.7990    2.4050 C   0  0  0  0  0  0
  -20.8760   60.4620   -3.1800 O   0  0  0  0  0  0
  -28.2356   54.0373    6.5202 H   0  0  0  0  0  0
  -28.3605   55.2081    5.1637 H   0  0  0  0  0  0
  -27.8171   55.7643    6.7829 H   0  0  0  0  0  0
  -25.8228   54.3704    6.5951 H   0  0  0  0  0  0
  -27.0893   53.6285    3.9260 H   0  0  0  0  0  0
  -25.3222   53.4818    4.2133 H   0  0  0  0  0  0
  -24.4570   58.1004    4.6175 H   0  0  0  0  0  0
  -21.7580   56.7799    4.2477 H   0  0  0  0  0  0
  -22.1552   58.2568    5.1897 H   0  0  0  0  0  0
  -21.5043   55.9921    6.4925 H   0  0  0  0  0  0
  -22.8509   57.0162    7.0962 H   0  0  0  0  0  0
  -23.9834   54.8790    6.8006 H   0  0  0  0  0  0
  -23.0360   54.4947    5.3236 H   0  0  0  0  0  0
  -24.1584   59.0108    2.6235 H   0  0  0  0  0  0
  -23.8015   56.8473    0.5108 H   0  0  0  0  0  0
  -24.7919   58.6061   -1.1099 H   0  0  0  0  0  0
  -24.2881   60.6459    0.2716 H   0  0  0  0  0  0
  -26.1760   56.7811   -0.0736 H   0  0  0  0  0  0
  -27.1078   58.2995   -0.3035 H   0  0  0  0  0  0
  -26.5001   57.8569    1.3279 H   0  0  0  0  0  0
  -22.6509   57.5658   -1.5609 H   0  0  0  0  0  0
  -20.6305   59.7144   -0.8114 H   0  0  0  0  0  0
  -19.8185   57.0514   -2.1251 H   0  0  0  0  0  0
  -18.7311   58.3287   -1.4828 H   0  0  0  0  0  0
  -20.8936   55.4944   -0.6669 H   0  0  0  0  0  0
  -18.3702   58.5686    0.8889 H   0  0  0  0  0  0
  -20.8173   54.3276    1.4819 H   0  0  0  0  0  0
  -18.2814   57.3986    3.0632 H   0  0  0  0  0  0
  -19.5267   55.2834    3.3650 H   0  0  0  0  0  0
  1  2  1  0  0  0
  1 37  1  0  0  0
  1 38  1  0  0  0
  1 39  1  0  0  0
  2  3  1  0  0  0
  2  5  1  0  0  0
  2 40  1  0  0  0
  3  4  1  0  0  0
  3 41  1  0  0  0
  3 42  1  0  0  0
  4  7  1  0  0  0
  5  6  2  0  0  0
  5 11  1  0  0  0
  7  8  2  0  0  0
  7  9  1  0  0  0
  7 10  1  0  0  0
 11 12  1  0  0  0
 11 17  1  0  0  0
 12 13  1  0  0  0
 12 15  1  0  0  0
 12 43  1  0  0  0
 13 14  2  0  0  0
 13 18  1  0  0  0
 15 16  1  0  0  0
 15 44  1  0  0  0
 15 45  1  0  0  0
 16 17  1  0  0  0
 16 46  1  0  0  0
 16 47  1  0  0  0
 17 48  1  0  0  0
 17 49  1  0  0  0
 18 19  1  0  0  0
 18 50  1  0  0  0
 19 20  1  0  0  0
 19 22  1  0  0  0
 19 51  1  0  0  0
 20 21  2  0  0  0
 20 25  1  0  0  0
 22 23  1  0  0  0
 22 24  1  0  0  0
 22 52  1  0  0  0
 23 53  1  0  0  0
 24 54  1  0  0  0
 24 55  1  0  0  0
 24 56  1  0  0  0
 25 26  1  0  0  0
 25 57  1  0  0  0
 26 27  1  0  0  0
 26 29  1  0  0  0
 26 58  1  0  0  0
 27 28  1  0  0  0
 27 36  2  0  0  0
 29 30  1  0  0  0
 29 59  1  0  0  0
 29 60  1  0  0  0
 30 31  2  0  0  0
 30 32  1  0  0  0
 31 33  1  0  0  0
 31 61  1  0  0  0
 32 34  2  0  0  0
 32 62  1  0  0  0
 33 35  2  0  0  0
 33 63  1  0  0  0
 34 35  1  0  0  0
 34 64  1  0  0  0
 35 65  1  0  0  0
M  CHG  4   1   1   9  -1  10  -1  28  -1
M  END
> <s_m_source_file>
../3k0k_ligand.sdf

> <i_m_source_file_index>
1

> <s_epik_input>
Tz1QKFtPSF0pKFtPSF0pT1tDSDJdW0NASF0oW05IMytdKUMoPU8pTjFbQ0BASF0oW0NIMl1bQ0gyXVtDSDJdMSlDKD1PKVtOSF1bQ0BASF0oW0NASF0oW09IXSlbQ0gzXSlDKD1PKVtOSF1bQ0BIXShDKD1PKVtPSF0pW0NIMl1jMltjSF1bY0hdW2NIXVtjSF1bY0hdMg==

> <s_epik_cmdline>
J2VwaWtfYXBwJywgJy1pbWFlJywgJ2xpZ2FuZF9wcm8ubWFlJywgJy1vbWFlJywgJ2xpZ2FuZF9wcmVwLm1hZScsICctbXMnLCAnMScsICctcGgnLCAnNycsICctcGh0JywgJzAuNScsICctbnQn

> <r_epik_Ionization_Penalty>
  0.3323

> <r_epik_Ionization_Penalty_Charging>
  0.3323

> <r_epik_Ionization_Penalty_Neutral>
  0.0000

> <r_epik_State_Penalty>
  0.2659

> <r_epik_Charging_Adjusted_Penalty>
0.59818399620352

> <i_epik_Tot_Q>
-2

> <i_epik_Tot_abs_Q>
4

$$$$
