3k15_ligand
                    3D
 Schrodinger Suite 2020-3.
 67 68  0  0  1  0            999 V2000
  -27.7680   54.9460    6.2900 N   0  3  0  0  0  0
  -26.3990   54.6910    5.7660 C   0  0  1  0  0  0
  -26.4460   53.6750    4.6320 C   0  0  0  0  0  0
  -26.2770   52.3750    5.1330 O   0  0  0  0  0  0
  -25.7850   55.9850    5.2650 C   0  0  0  0  0  0
  -26.4990   56.9250    4.9390 O   0  0  0  0  0  0
  -27.4420   51.4380    4.5800 P   0  0  0  0  0  0
  -27.0600   50.7830    3.1640 O   0  5  0  0  0  0
  -28.7210   52.3990    4.4670 O   0  5  0  0  0  0
  -27.6870   50.1830    5.5370 O   0  0  0  0  0  0
  -24.4530   56.0410    5.2100 N   0  0  0  0  0  0
  -23.8050   57.1880    4.5990 C   0  0  2  0  0  0
  -23.8570   57.0150    3.0880 C   0  0  0  0  0  0
  -23.8670   55.8830    2.6160 O   0  0  0  0  0  0
  -22.3710   57.0710    5.1050 C   0  0  0  0  0  0
  -22.1580   55.5850    5.2630 C   0  0  0  0  0  0
  -23.4960   55.0090    5.6460 C   0  0  0  0  0  0
  -23.9200   58.1090    2.3320 N   0  0  0  0  0  0
  -23.8790   58.0050    0.8670 C   0  0  2  0  0  0
  -22.6630   58.7170    0.2840 C   0  0  0  0  0  0
  -22.0510   59.5730    0.9240 O   0  0  0  0  0  0
  -25.1430   58.5670    0.1980 C   0  0  2  0  0  0
  -25.3410   59.9240    0.6140 O   0  0  0  0  0  0
  -26.3700   57.7400    0.5580 C   0  0  0  0  0  0
  -22.3160   58.3590   -0.9430 N   0  0  0  0  0  0
  -21.1270   58.9100   -1.5790 C   0  0  2  0  0  0
  -21.4130   59.3300   -3.0120 C   0  0  0  0  0  0
  -21.7290   58.4980   -3.8750 O   0  0  0  0  0  0
  -20.0070   57.8750   -1.5670 C   0  0  0  0  0  0
  -19.7400   57.2940   -0.2150 C   0  0  0  0  0  0
  -20.3030   56.0850    0.1530 C   0  0  0  0  0  0
  -18.9230   57.9560    0.6850 C   0  0  0  0  0  0
  -20.0590   55.5490    1.3900 C   0  0  0  0  0  0
  -18.6670   57.4210    1.9320 C   0  0  0  0  0  0
  -19.2370   56.2170    2.2880 C   0  0  0  0  0  0
  -21.2890   60.6260   -3.2610 N   0  0  0  0  0  0
  -28.2042   54.0027    6.6505 H   0  0  0  0  0  0
  -28.3971   55.3577    5.4871 H   0  0  0  0  0  0
  -27.7147   55.6661    7.1198 H   0  0  0  0  0  0
  -25.7990   54.2922    6.5972 H   0  0  0  0  0  0
  -27.4188   53.7390    4.1224 H   0  0  0  0  0  0
  -25.6410   53.8897    3.9137 H   0  0  0  0  0  0
  -24.2911   58.1396    4.8599 H   0  0  0  0  0  0
  -21.6846   57.5114    4.3668 H   0  0  0  0  0  0
  -22.2745   57.6069    6.0607 H   0  0  0  0  0  0
  -21.8022   55.1624    4.3118 H   0  0  0  0  0  0
  -21.4090   55.4033    6.0478 H   0  0  0  0  0  0
  -23.5906   54.8563    6.7312 H   0  0  0  0  0  0
  -23.7106   54.0655    5.1229 H   0  0  0  0  0  0
  -24.0033   59.0956    2.8112 H   0  0  0  0  0  0
  -23.8089   56.9201    0.6993 H   0  0  0  0  0  0
  -25.0212   58.5912   -0.8950 H   0  0  0  0  0  0
  -24.5559   60.6738    0.4366 H   0  0  0  0  0  0
  -26.2170   56.6987    0.2383 H   0  0  0  0  0  0
  -27.2532   58.1538    0.0493 H   0  0  0  0  0  0
  -26.5261   57.7702    1.6465 H   0  0  0  0  0  0
  -22.9421   57.6332   -1.4826 H   0  0  0  0  0  0
  -20.8576   59.7947   -0.9834 H   0  0  0  0  0  0
  -20.2705   57.0419   -2.2352 H   0  0  0  0  0  0
  -19.0729   58.3415   -1.9133 H   0  0  0  0  0  0
  -20.9469   55.5538   -0.5480 H   0  0  0  0  0  0
  -18.4766   58.9105    0.4062 H   0  0  0  0  0  0
  -20.5106   54.5972    1.6696 H   0  0  0  0  0  0
  -18.0177   57.9477    2.6313 H   0  0  0  0  0  0
  -19.0428   55.7905    3.2721 H   0  0  0  0  0  0
  -21.0055   61.3166   -2.4531 H   0  0  0  0  0  0
  -21.4696   61.0109   -4.2755 H   0  0  0  0  0  0
  1  2  1  0  0  0
  1 37  1  0  0  0
  1 38  1  0  0  0
  1 39  1  0  0  0
  2  3  1  0  0  0
  2  5  1  0  0  0
  2 40  1  0  0  0
  3  4  1  0  0  0
  3 41  1  0  0  0
  3 42  1  0  0  0
  4  7  1  0  0  0
  5  6  2  0  0  0
  5 11  1  0  0  0
  7  8  1  0  0  0
  7  9  1  0  0  0
  7 10  2  0  0  0
 11 12  1  0  0  0
 11 17  1  0  0  0
 12 13  1  0  0  0
 12 15  1  0  0  0
 12 43  1  0  0  0
 13 14  2  0  0  0
 13 18  1  0  0  0
 15 16  1  0  0  0
 15 44  1  0  0  0
 15 45  1  0  0  0
 16 17  1  0  0  0
 16 46  1  0  0  0
 16 47  1  0  0  0
 17 48  1  0  0  0
 17 49  1  0  0  0
 18 19  1  0  0  0
 18 50  1  0  0  0
 19 20  1  0  0  0
 19 22  1  0  0  0
 19 51  1  0  0  0
 20 21  2  0  0  0
 20 25  1  0  0  0
 22 23  1  0  0  0
 22 24  1  0  0  0
 22 52  1  0  0  0
 23 53  1  0  0  0
 24 54  1  0  0  0
 24 55  1  0  0  0
 24 56  1  0  0  0
 25 26  1  0  0  0
 25 57  1  0  0  0
 26 27  1  0  0  0
 26 29  1  0  0  0
 26 58  1  0  0  0
 27 28  2  0  0  0
 27 36  1  0  0  0
 29 30  1  0  0  0
 29 59  1  0  0  0
 29 60  1  0  0  0
 30 31  2  0  0  0
 30 32  1  0  0  0
 31 33  1  0  0  0
 31 61  1  0  0  0
 32 34  2  0  0  0
 32 62  1  0  0  0
 33 35  2  0  0  0
 33 63  1  0  0  0
 34 35  1  0  0  0
 34 64  1  0  0  0
 35 65  1  0  0  0
 36 66  1  0  0  0
 36 67  1  0  0  0
M  CHG  3   1   1   8  -1   9  -1
M  END
> <s_m_source_file>
../3k15_ligand.sdf

> <i_m_source_file_index>
1

> <s_epik_input>
W09IXVAoPU8pKFtPSF0pT1tDSDJdW0NASF0oW05IMytdKUMoPU8pTjFbQ0BASF0oW0NIMl1bQ0gyXVtDSDJdMSlDKD1PKVtOSF1bQ0BASF0oW0NASF0oW09IXSlbQ0gzXSlDKD1PKVtOSF1bQ0BIXShDKD1PKVtOSDJdKVtDSDJdYzJbY0hdW2NIXVtjSF1bY0hdW2NIXTI=

> <s_epik_cmdline>
J2VwaWtfYXBwJywgJy1pbWFlJywgJ2xpZ2FuZF9wcm8ubWFlJywgJy1vbWFlJywgJ2xpZ2FuZF9wcmVwLm1hZScsICctbXMnLCAnMScsICctcGgnLCAnNycsICctcGh0JywgJzAuNScsICctbnQn

> <r_epik_Ionization_Penalty>
  0.3321

> <r_epik_Ionization_Penalty_Charging>
  0.3321

> <r_epik_Ionization_Penalty_Neutral>
  0.0000

> <r_epik_State_Penalty>
  0.2659

> <r_epik_Charging_Adjusted_Penalty>
0.598012240788009

> <i_epik_Tot_Q>
-1

> <i_epik_Tot_abs_Q>
3

$$$$
