3k16_ligand
                    3D
 Schrodinger Suite 2020-3.
 65 66  0  0  1  0            999 V2000
  -27.9030   55.1100    6.3210 N   0  3  0  0  0  0
  -26.6170   54.6230    5.7630 C   0  0  1  0  0  0
  -26.8870   53.5930    4.6810 C   0  0  0  0  0  0
  -26.5500   52.3000    5.1250 O   0  0  0  0  0  0
  -25.9750   55.8340    5.1330 C   0  0  0  0  0  0
  -26.6730   56.7240    4.6540 O   0  0  0  0  0  0
  -27.5980   51.3220    4.4150 P   0  0  0  0  0  0
  -27.0450   50.6750    3.0530 O   0  5  0  0  0  0
  -28.8270   52.3370    4.1470 O   0  5  0  0  0  0
  -27.9470   50.0550    5.3320 O   0  0  0  0  0  0
  -24.6430   55.8710    5.0860 N   0  0  0  0  0  0
  -24.1050   57.0410    4.4130 C   0  0  2  0  0  0
  -24.2000   56.8260    2.9130 C   0  0  0  0  0  0
  -24.4430   55.7020    2.4720 O   0  0  0  0  0  0
  -22.6460   57.0550    4.8610 C   0  0  0  0  0  0
  -22.6510   56.3120    6.1610 C   0  0  0  0  0  0
  -23.6450   55.2140    5.9400 C   0  0  0  0  0  0
  -24.0400   57.8890    2.1320 N   0  0  0  0  0  0
  -24.0140   57.7370    0.6810 C   0  0  2  0  0  0
  -22.7990   58.3920    0.0280 C   0  0  0  0  0  0
  -22.1070   59.2110    0.6430 O   0  0  0  0  0  0
  -25.2870   58.2870    0.0490 C   0  0  2  0  0  0
  -25.7580   59.3840    0.8380 O   0  0  0  0  0  0
  -26.3610   57.2040   -0.0210 C   0  0  0  0  0  0
  -22.5490   58.0280   -1.2280 N   0  0  0  0  0  0
  -21.3160   58.4270   -1.9110 C   0  0  2  0  0  0
  -21.5170   58.8150   -3.3780 C   0  0  0  0  0  0
  -20.8470   59.7240   -3.8770 O   0  0  0  0  0  0
  -20.2690   57.3180   -1.8020 C   0  0  0  0  0  0
  -19.8890   56.9930   -0.3920 C   0  0  0  0  0  0
  -20.1910   55.7580    0.1490 C   0  0  0  0  0  0
  -19.3160   57.9530    0.4140 C   0  0  0  0  0  0
  -19.9020   55.4820    1.4540 C   0  0  0  0  0  0
  -18.9950   57.6680    1.7140 C   0  0  0  0  0  0
  -19.3030   56.4350    2.2440 C   0  0  0  0  0  0
  -22.2880   58.1880   -4.1160 O   0  5  0  0  0  0
  -28.4337   54.2750    6.8017 H   0  0  0  0  0  0
  -28.5227   55.5201    5.5100 H   0  0  0  0  0  0
  -27.7057   55.8959    7.0649 H   0  0  0  0  0  0
  -25.9951   54.1685    6.5482 H   0  0  0  0  0  0
  -27.9547   53.6098    4.4171 H   0  0  0  0  0  0
  -26.2855   53.8298    3.7910 H   0  0  0  0  0  0
  -24.6574   57.9579    4.6665 H   0  0  0  0  0  0
  -22.0250   56.5550    4.1032 H   0  0  0  0  0  0
  -22.3097   58.0953    4.9824 H   0  0  0  0  0  0
  -21.6419   55.9251    6.3661 H   0  0  0  0  0  0
  -22.9546   56.9918    6.9707 H   0  0  0  0  0  0
  -24.1248   54.8740    6.8696 H   0  0  0  0  0  0
  -23.2203   54.3492    5.4091 H   0  0  0  0  0  0
  -23.9269   58.8860    2.5827 H   0  0  0  0  0  0
  -23.9465   56.6472    0.5477 H   0  0  0  0  0  0
  -25.0847   58.6857   -0.9560 H   0  0  0  0  0  0
  -25.1147   60.2616    0.9993 H   0  0  0  0  0  0
  -25.9947   56.3631   -0.6282 H   0  0  0  0  0  0
  -27.2706   57.6188   -0.4799 H   0  0  0  0  0  0
  -26.5914   56.8499    0.9947 H   0  0  0  0  0  0
  -23.2945   57.4131   -1.7535 H   0  0  0  0  0  0
  -21.0038   59.3304   -1.3665 H   0  0  0  0  0  0
  -20.6615   56.3971   -2.2580 H   0  0  0  0  0  0
  -19.3529   57.6257   -2.3275 H   0  0  0  0  0  0
  -20.6643   54.9974   -0.4720 H   0  0  0  0  0  0
  -19.1169   58.9469    0.0133 H   0  0  0  0  0  0
  -20.1463   54.5048    1.8706 H   0  0  0  0  0  0
  -18.4959   58.4167    2.3292 H   0  0  0  0  0  0
  -19.0727   56.2150    3.2864 H   0  0  0  0  0  0
  1  2  1  0  0  0
  1 37  1  0  0  0
  1 38  1  0  0  0
  1 39  1  0  0  0
  2  3  1  0  0  0
  2  5  1  0  0  0
  2 40  1  0  0  0
  3  4  1  0  0  0
  3 41  1  0  0  0
  3 42  1  0  0  0
  4  7  1  0  0  0
  5  6  2  0  0  0
  5 11  1  0  0  0
  7  8  1  0  0  0
  7  9  1  0  0  0
  7 10  2  0  0  0
 11 12  1  0  0  0
 11 17  1  0  0  0
 12 13  1  0  0  0
 12 15  1  0  0  0
 12 43  1  0  0  0
 13 14  2  0  0  0
 13 18  1  0  0  0
 15 16  1  0  0  0
 15 44  1  0  0  0
 15 45  1  0  0  0
 16 17  1  0  0  0
 16 46  1  0  0  0
 16 47  1  0  0  0
 17 48  1  0  0  0
 17 49  1  0  0  0
 18 19  1  0  0  0
 18 50  1  0  0  0
 19 20  1  0  0  0
 19 22  1  0  0  0
 19 51  1  0  0  0
 20 21  2  0  0  0
 20 25  1  0  0  0
 22 23  1  0  0  0
 22 24  1  0  0  0
 22 52  1  0  0  0
 23 53  1  0  0  0
 24 54  1  0  0  0
 24 55  1  0  0  0
 24 56  1  0  0  0
 25 26  1  0  0  0
 25 57  1  0  0  0
 26 27  1  0  0  0
 26 29  1  0  0  0
 26 58  1  0  0  0
 27 28  2  0  0  0
 27 36  1  0  0  0
 29 30  1  0  0  0
 29 59  1  0  0  0
 29 60  1  0  0  0
 30 31  2  0  0  0
 30 32  1  0  0  0
 31 33  1  0  0  0
 31 61  1  0  0  0
 32 34  2  0  0  0
 32 62  1  0  0  0
 33 35  2  0  0  0
 33 63  1  0  0  0
 34 35  1  0  0  0
 34 64  1  0  0  0
 35 65  1  0  0  0
M  CHG  4   1   1   8  -1   9  -1  36  -1
M  END
> <s_m_source_file>
../3k16_ligand.sdf

> <i_m_source_file_index>
1

> <s_epik_input>
W09IXVAoPU8pKFtPSF0pT1tDSDJdW0NASF0oW05IMytdKUMoPU8pTjFbQ0BASF0oW0NIMl1bQ0gyXVtDSDJdMSlDKD1PKVtOSF1bQ0BASF0oW0NASF0oW09IXSlbQ0gzXSlDKD1PKVtOSF1bQ0BIXShDKD1PKVtPSF0pW0NIMl1jMltjSF1bY0hdW2NIXVtjSF1bY0hdMg==

> <s_epik_cmdline>
J2VwaWtfYXBwJywgJy1pbWFlJywgJ2xpZ2FuZF9wcm8ubWFlJywgJy1vbWFlJywgJ2xpZ2FuZF9wcmVwLm1hZScsICctbXMnLCAnMScsICctcGgnLCAnNycsICctcGh0JywgJzAuNScsICctbnQn

> <r_epik_Ionization_Penalty>
  0.3323

> <r_epik_Ionization_Penalty_Charging>
  0.3323

> <r_epik_Ionization_Penalty_Neutral>
  0.0000

> <r_epik_State_Penalty>
  0.2659

> <r_epik_Charging_Adjusted_Penalty>
0.59818399620352

> <i_epik_Tot_Q>
-2

> <i_epik_Tot_abs_Q>
4

$$$$
