3k23_ligand
                    3D
 Schrodinger Suite 2020-3.
 84 88  0  0  1  0            999 V2000
   61.0690    1.1580   -6.9920 C   0  0  0  0  0  0
   60.9970    5.9700  -10.4830 F   0  0  0  0  0  0
   61.4420    5.2510   -4.7570 N   0  0  0  0  0  0
   61.8220    1.1090   -8.1950 O   0  0  0  0  0  0
   61.6770    2.3600   -8.7480 C   0  0  0  0  0  0
   64.3560    3.5060   -3.5300 F   0  0  0  0  0  0
   58.1520    6.9810   -2.1160 N   0  0  0  0  0  0
   63.8520    5.2140   -4.8970 O   0  0  0  0  0  0
   60.4940    2.5910   -9.4080 C   0  0  0  0  0  0
   62.4090    2.6410   -3.9310 F   0  0  0  0  0  0
   59.2510    7.7300   -1.9610 N   0  0  0  0  0  0
   57.3310    5.0990    2.2140 O   0  0  0  0  0  0
   60.2640    3.8120   -9.9930 C   0  0  0  0  0  0
   64.1960    1.9570   -5.0160 F   0  0  0  0  0  0
   55.3070    5.6790    3.0210 N   0  0  0  0  0  0
   53.5210    7.3220    3.7490 O   0  0  0  0  0  0
   61.2290    4.7830   -9.9100 C   0  0  0  0  0  0
   54.1880    6.9720    5.9250 N   0  0  0  0  0  0
   62.4160    4.5490   -9.2530 C   0  0  0  0  0  0
   62.6600    3.3290   -8.6550 C   0  0  0  0  0  0
   63.9720    3.1200   -7.9550 C   0  0  0  0  0  0
   64.2110    1.6880   -7.5510 C   0  0  0  0  0  0
   65.0530    3.4130   -8.9720 C   0  0  0  0  0  0
   64.2410    4.0700   -6.8050 C   0  0  0  0  0  0
   63.3480    4.0930   -5.5800 C   0  0  2  0  0  0
   61.8910    4.3840   -5.8380 C   0  0  0  0  0  0
   60.1180    5.1090   -4.3360 C   0  0  0  0  0  0
   59.2480    4.1260   -4.7440 C   0  0  0  0  0  0
   57.9580    4.0540   -4.2850 C   0  0  0  0  0  0
   57.1040    2.9450   -4.7960 C   0  0  0  0  0  0
   57.4460    4.9610   -3.3880 C   0  0  0  0  0  0
   58.3160    5.9350   -2.9810 C   0  0  0  0  0  0
   60.1410    7.1510   -2.7700 C   0  0  0  0  0  0
   59.6130    6.0200   -3.4320 C   0  0  0  0  0  0
   57.0940    7.1040   -1.2360 C   0  0  0  0  0  0
   56.0100    7.8940   -1.5430 C   0  0  0  0  0  0
   54.9750    7.9740   -0.6340 C   0  0  0  0  0  0
   55.0290    7.2760    0.5560 C   0  0  0  0  0  0
   56.1290    6.4940    0.8350 C   0  0  0  0  0  0
   57.1710    6.4040   -0.0610 C   0  0  0  0  0  0
   56.2870    5.7140    2.0690 C   0  0  0  0  0  0
   54.9100    4.3540    3.3960 C   0  0  0  0  0  0
   55.6640    3.9990    4.6620 C   0  0  0  0  0  0
   56.0550    5.3100    5.2610 C   0  0  0  0  0  0
   55.6380    6.3440    4.2390 C   0  0  2  0  0  0
   54.3300    6.9350    4.5750 C   0  0  0  0  0  0
   63.5650    3.0350   -4.5270 C   0  0  0  0  0  0
   61.1316    0.1862   -6.4804 H   0  0  0  0  0  0
   60.0178    1.3820   -7.2263 H   0  0  0  0  0  0
   61.4743    1.9437   -6.3375 H   0  0  0  0  0  0
   62.1367    5.9772   -4.3098 H   0  0  0  0  0  0
   63.8517    6.2005   -5.3836 H   0  0  0  0  0  0
   59.7396    1.8065   -9.4671 H   0  0  0  0  0  0
   59.3277    4.0067  -10.5159 H   0  0  0  0  0  0
   53.2698    7.3825    6.3704 H   0  0  0  0  0  0
   54.9912    6.5914    6.5732 H   0  0  0  0  0  0
   63.1702    5.3344   -9.2046 H   0  0  0  0  0  0
   64.0072    1.0269   -8.4062 H   0  0  0  0  0  0
   63.5428    1.4258   -6.7175 H   0  0  0  0  0  0
   65.2574    1.5661   -7.2344 H   0  0  0  0  0  0
   64.9232    2.7560   -9.8446 H   0  0  0  0  0  0
   66.0397    3.2325   -8.5206 H   0  0  0  0  0  0
   64.9820    4.4636   -9.2902 H   0  0  0  0  0  0
   65.2385    3.8676   -6.3879 H   0  0  0  0  0  0
   64.1992    5.1073   -7.1688 H   0  0  0  0  0  0
   61.2992    3.4568   -5.8342 H   0  0  0  0  0  0
   61.7585    4.8995   -6.8006 H   0  0  0  0  0  0
   59.5956    3.3782   -5.4568 H   0  0  0  0  0  0
   57.6848    2.3285   -5.4978 H   0  0  0  0  0  0
   56.2291    3.3648   -5.3140 H   0  0  0  0  0  0
   56.7677    2.3231   -3.9533 H   0  0  0  0  0  0
   56.4191    4.9079   -3.0265 H   0  0  0  0  0  0
   61.1611    7.5106   -2.9048 H   0  0  0  0  0  0
   55.9698    8.4442   -2.4831 H   0  0  0  0  0  0
   54.1068    8.5940   -0.8575 H   0  0  0  0  0  0
   54.2077    7.3429    1.2695 H   0  0  0  0  0  0
   58.0415    5.7867    0.1609 H   0  0  0  0  0  0
   53.8247    4.3330    3.5742 H   0  0  0  0  0  0
   55.1623    3.6528    2.5869 H   0  0  0  0  0  0
   55.0059    3.4269    5.3325 H   0  0  0  0  0  0
   56.5445    3.3913    4.4062 H   0  0  0  0  0  0
   55.5289    5.4477    6.2172 H   0  0  0  0  0  0
   57.1411    5.3244    5.4347 H   0  0  0  0  0  0
   56.4500    7.0802    4.1460 H   0  0  0  0  0  0
  1  4  1  0  0  0
  1 48  1  0  0  0
  1 49  1  0  0  0
  1 50  1  0  0  0
  2 17  1  0  0  0
  3 26  1  0  0  0
  3 27  1  0  0  0
  3 51  1  0  0  0
  4  5  1  0  0  0
  5  9  2  0  0  0
  5 20  1  0  0  0
  6 47  1  0  0  0
  7 11  1  0  0  0
  7 32  1  0  0  0
  7 35  1  0  0  0
  8 25  1  0  0  0
  8 52  1  0  0  0
  9 13  1  0  0  0
  9 53  1  0  0  0
 10 47  1  0  0  0
 11 33  2  0  0  0
 12 41  2  0  0  0
 13 17  2  0  0  0
 13 54  1  0  0  0
 14 47  1  0  0  0
 15 41  1  0  0  0
 15 42  1  0  0  0
 15 45  1  0  0  0
 16 46  2  0  0  0
 17 19  1  0  0  0
 18 46  1  0  0  0
 18 55  1  0  0  0
 18 56  1  0  0  0
 19 20  2  0  0  0
 19 57  1  0  0  0
 20 21  1  0  0  0
 21 22  1  0  0  0
 21 23  1  0  0  0
 21 24  1  0  0  0
 22 58  1  0  0  0
 22 59  1  0  0  0
 22 60  1  0  0  0
 23 61  1  0  0  0
 23 62  1  0  0  0
 23 63  1  0  0  0
 24 25  1  0  0  0
 24 64  1  0  0  0
 24 65  1  0  0  0
 25 26  1  0  0  0
 25 47  1  0  0  0
 26 66  1  0  0  0
 26 67  1  0  0  0
 27 28  1  0  0  0
 27 34  2  0  0  0
 28 29  2  0  0  0
 28 68  1  0  0  0
 29 30  1  0  0  0
 29 31  1  0  0  0
 30 69  1  0  0  0
 30 70  1  0  0  0
 30 71  1  0  0  0
 31 32  2  0  0  0
 31 72  1  0  0  0
 32 34  1  0  0  0
 33 34  1  0  0  0
 33 73  1  0  0  0
 35 36  2  0  0  0
 35 40  1  0  0  0
 36 37  1  0  0  0
 36 74  1  0  0  0
 37 38  2  0  0  0
 37 75  1  0  0  0
 38 39  1  0  0  0
 38 76  1  0  0  0
 39 40  2  0  0  0
 39 41  1  0  0  0
 40 77  1  0  0  0
 42 43  1  0  0  0
 42 78  1  0  0  0
 42 79  1  0  0  0
 43 44  1  0  0  0
 43 80  1  0  0  0
 43 81  1  0  0  0
 44 45  1  0  0  0
 44 82  1  0  0  0
 44 83  1  0  0  0
 45 46  1  0  0  0
 45 84  1  0  0  0
M  END
> <s_m_source_file>
../3k23_ligand.sdf

> <i_m_source_file_index>
1

> <s_epik_input>
W0NIM11PYzFbY0hdW2NIXWMoRilbY0hdYzFDKFtDSDNdKShbQ0gzXSlbQ0gyXVtDQF0oW09IXSkoQyhGKShGKUYpW0NIMl1bTkhdYyhbY0hdYyhbQ0gzXSlbY0hdMiljKGMyMylbY0hdbm4zLWM0W2NIXVtjSF1bY0hdYyhbY0hdNClDKD1PKU41W0NIMl1bQ0gyXVtDSDJdW0NAQEhdNUMoPU8pW05IMl0=

> <s_epik_cmdline>
J2VwaWtfYXBwJywgJy1pbWFlJywgJ2xpZ2FuZF9wcm8ubWFlJywgJy1vbWFlJywgJ2xpZ2FuZF9wcmVwLm1hZScsICctbXMnLCAnMScsICctcGgnLCAnNycsICctcGh0JywgJzAuNScsICctbnQn

> <r_lp_tautomer_probability>
1

> <r_epik_Ionization_Penalty>
  0.0001

> <r_epik_Ionization_Penalty_Charging>
  0.0000

> <r_epik_Ionization_Penalty_Neutral>
  0.0001

> <r_epik_State_Penalty>
 -0.0000

> <r_epik_Charging_Adjusted_Penalty>
0

> <i_epik_Tot_Q>
0

> <i_epik_Tot_abs_Q>
0

$$$$
