3k26_ligand
                    3D
 Schrodinger Suite 2020-3.
 51 50  0  0  1  0            999 V2000
  -18.7160   29.7240  -28.1530 N   0  3  0  0  0  0
  -17.3920   28.9570  -27.8320 C   0  0  1  0  0  0
  -17.4560   27.5070  -27.3020 C   0  0  0  0  0  0
  -16.8220   27.2250  -25.9100 C   0  0  0  0  0  0
  -16.8080   25.6970  -25.6010 C   0  0  0  0  0  0
  -16.1510   25.2840  -24.2570 C   0  0  0  0  0  0
  -16.6480   24.0340  -23.5600 N   0  3  0  0  0  0
  -16.3870   28.9830  -28.9830 C   0  0  0  0  0  0
  -15.1880   29.0620  -28.7090 O   0  0  0  0  0  0
  -16.9620   24.2060  -22.1250 C   0  0  0  0  0  0
  -15.4650   23.1930  -23.5770 C   0  0  0  0  0  0
  -17.7250   23.3590  -24.3340 C   0  0  0  0  0  0
  -16.8800   28.9360  -30.2500 N   0  0  0  0  0  0
  -16.0680   29.1730  -31.5000 C   0  0  2  0  0  0
  -16.5450   30.3280  -32.4060 C   0  0  0  0  0  0
  -17.4690   31.0660  -32.0520 O   0  0  0  0  0  0
  -15.9980   27.9230  -32.3740 C   0  0  0  0  0  0
  -16.0810   26.6320  -31.6020 C   0  0  0  0  0  0
  -15.8040   25.4180  -32.4740 C   0  0  0  0  0  0
  -16.4340   25.2350  -33.5410 O   0  0  0  0  0  0
  -14.8760   24.5700  -32.0170 N   0  0  0  0  0  0
  -16.0100   30.5330  -33.5000 O   0  5  0  0  0  0
  -19.3921   29.6666  -27.2872 H   0  0  0  0  0  0
  -19.2013   29.2673  -29.0281 H   0  0  0  0  0  0
  -18.4861   30.7777  -28.3695 H   0  0  0  0  0  0
  -17.0440   29.5539  -26.9761 H   0  0  0  0  0  0
  -18.5071   27.1955  -27.2122 H   0  0  0  0  0  0
  -16.9337   26.8376  -28.0013 H   0  0  0  0  0  0
  -15.7869   27.5969  -25.8965 H   0  0  0  0  0  0
  -17.4057   27.7369  -25.1307 H   0  0  0  0  0  0
  -17.8410   25.3206  -25.5658 H   0  0  0  0  0  0
  -16.2519   25.1685  -26.3893 H   0  0  0  0  0  0
  -15.0763   25.1086  -24.4129 H   0  0  0  0  0  0
  -16.2880   26.0885  -23.5194 H   0  0  0  0  0  0
  -16.1223   24.7096  -21.6237 H   0  0  0  0  0  0
  -17.1260   23.2204  -21.6649 H   0  0  0  0  0  0
  -17.8713   24.8159  -22.0192 H   0  0  0  0  0  0
  -14.6601   23.6809  -23.0077 H   0  0  0  0  0  0
  -15.1385   23.0404  -24.6163 H   0  0  0  0  0  0
  -15.7000   22.2204  -23.1199 H   0  0  0  0  0  0
  -18.6284   23.9865  -24.3291 H   0  0  0  0  0  0
  -17.9520   22.3858  -23.8743 H   0  0  0  0  0  0
  -17.3906   23.2058  -25.3707 H   0  0  0  0  0  0
  -17.9529   28.7055  -30.3265 H   0  0  0  0  0  0
  -15.0893   29.4396  -31.0745 H   0  0  0  0  0  0
  -16.8337   27.9285  -33.0893 H   0  0  0  0  0  0
  -15.0451   27.9126  -32.9235 H   0  0  0  0  0  0
  -15.3403   26.6428  -30.7888 H   0  0  0  0  0  0
  -17.0899   26.5228  -31.1775 H   0  0  0  0  0  0
  -14.3542   24.7826  -31.0723 H   0  0  0  0  0  0
  -14.6347   23.6600  -32.5859 H   0  0  0  0  0  0
  1  2  1  0  0  0
  1 23  1  0  0  0
  1 24  1  0  0  0
  1 25  1  0  0  0
  2  3  1  0  0  0
  2  8  1  0  0  0
  2 26  1  0  0  0
  3  4  1  0  0  0
  3 27  1  0  0  0
  3 28  1  0  0  0
  4  5  1  0  0  0
  4 29  1  0  0  0
  4 30  1  0  0  0
  5  6  1  0  0  0
  5 31  1  0  0  0
  5 32  1  0  0  0
  6  7  1  0  0  0
  6 33  1  0  0  0
  6 34  1  0  0  0
  7 10  1  0  0  0
  7 11  1  0  0  0
  7 12  1  0  0  0
  8  9  2  0  0  0
  8 13  1  0  0  0
 10 35  1  0  0  0
 10 36  1  0  0  0
 10 37  1  0  0  0
 11 38  1  0  0  0
 11 39  1  0  0  0
 11 40  1  0  0  0
 12 41  1  0  0  0
 12 42  1  0  0  0
 12 43  1  0  0  0
 13 14  1  0  0  0
 13 44  1  0  0  0
 14 15  1  0  0  0
 14 17  1  0  0  0
 14 45  1  0  0  0
 15 16  2  0  0  0
 15 22  1  0  0  0
 17 18  1  0  0  0
 17 46  1  0  0  0
 17 47  1  0  0  0
 18 19  1  0  0  0
 18 48  1  0  0  0
 18 49  1  0  0  0
 19 20  2  0  0  0
 19 21  1  0  0  0
 21 50  1  0  0  0
 21 51  1  0  0  0
M  CHG  3   1   1   7   1  22  -1
M  END
> <s_m_source_file>
../3k26_ligand.sdf

> <i_m_source_file_index>
1

> <s_epik_input>
W0NIM11bTitdKFtDSDNdKShbQ0gzXSlbQ0gyXVtDSDJdW0NIMl1bQ0gyXVtDQEhdKFtOSDMrXSlDKD1PKVtOSF1bQ0BIXShDKD1PKVtPSF0pW0NIMl1bQ0gyXUMoPU8pW05IMl0=

> <s_epik_cmdline>
J2VwaWtfYXBwJywgJy1pbWFlJywgJ2xpZ2FuZF9wcm8ubWFlJywgJy1vbWFlJywgJ2xpZ2FuZF9wcmVwLm1hZScsICctbXMnLCAnMScsICctcGgnLCAnNycsICctcGh0JywgJzAuNScsICctbnQn

> <r_epik_Ionization_Penalty>
  0.1102

> <r_epik_Ionization_Penalty_Charging>
  0.1102

> <r_epik_Ionization_Penalty_Neutral>
  0.0000

> <r_epik_State_Penalty>
  0.0999

> <r_epik_Charging_Adjusted_Penalty>
0.210049535943338

> <i_epik_Tot_Q>
1

> <i_epik_Tot_abs_Q>
3

$$$$
