3k27_ligand
                    3D
 Schrodinger Suite 2020-3.
114113  0  0  1  0            999 V2000
  -23.6040   38.4940  -26.7950 N   0  3  0  0  0  0
  -23.2640   37.4350  -25.7560 C   0  0  2  0  0  0
  -22.1490   36.4540  -26.3220 C   0  0  0  0  0  0
  -22.2670   35.9540  -27.4830 O   0  0  0  0  0  0
  -24.5800   36.7890  -25.1950 C   0  0  2  0  0  0
  -24.2910   35.6440  -24.3560 O   0  0  0  0  0  0
  -25.6310   36.4790  -26.3500 C   0  0  0  0  0  0
  -21.0530   36.2640  -25.5570 N   0  0  0  0  0  0
  -19.7950   35.7050  -26.1020 C   0  0  2  0  0  0
  -19.9680   34.2750  -26.6390 C   0  0  0  0  0  0
  -20.6700   33.4550  -26.0070 O   0  0  0  0  0  0
  -18.7080   35.7290  -25.0370 C   0  0  0  0  0  0
  -19.3080   33.9600  -27.7580 N   0  0  0  0  0  0
  -19.3880   32.5900  -28.3100 C   0  0  2  0  0  0
  -18.1620   31.7810  -27.9170 C   0  0  0  0  0  0
  -17.0560   32.3310  -27.8230 O   0  0  0  0  0  0
  -19.4510   32.5020  -29.8280 C   0  0  0  0  0  0
  -20.2720   33.4940  -30.6490 C   0  0  0  0  0  0
  -19.3610   34.7350  -31.0100 C   0  0  0  0  0  0
  -18.2590   34.4540  -31.9650 N   0  0  0  0  0  0
  -17.2330   35.2790  -32.2340 C   0  0  0  0  0  0
  -17.1240   36.4640  -31.6180 N   0  3  0  0  0  0
  -16.3020   34.9080  -33.1300 N   0  0  0  0  0  0
  -18.3790   30.4770  -27.7450 N   0  0  0  0  0  0
  -17.2700   29.5630  -27.3740 C   0  0  1  0  0  0
  -17.8080   28.2930  -26.6950 C   0  0  0  0  0  0
  -16.6590   27.5030  -26.0470 C   0  0  0  0  0  0
  -17.2730   26.2190  -25.4480 C   0  0  0  0  0  0
  -16.1450   25.3120  -24.8010 C   0  0  0  0  0  0
  -16.6250   24.0930  -24.0590 N   0  3  0  0  0  0
  -16.4190   29.2270  -28.5680 C   0  0  0  0  0  0
  -15.2620   28.8790  -28.4440 O   0  0  0  0  0  0
  -17.3760   24.3570  -22.8110 C   0  0  0  0  0  0
  -15.4230   23.3940  -23.5390 C   0  0  0  0  0  0
  -17.4600   23.2690  -24.9790 C   0  0  0  0  0  0
  -17.0110   29.3630  -29.7430 N   0  0  0  0  0  0
  -16.3190   29.0320  -30.9940 C   0  0  2  0  0  0
  -16.4920   30.0820  -32.1140 C   0  0  0  0  0  0
  -17.5030   30.7480  -32.1790 O   0  0  0  0  0  0
  -16.8670   27.6900  -31.4580 C   0  0  0  0  0  0
  -16.0940   27.2550  -32.5230 O   0  0  0  0  0  0
  -15.5150   30.1600  -33.0270 N   0  0  0  0  0  0
  -15.6600   30.9890  -34.2460 C   0  0  2  0  0  0
  -16.7530   30.4190  -35.1870 C   0  0  0  0  0  0
  -17.4070   31.1630  -35.9270 O   0  0  0  0  0  0
  -14.2630   31.2160  -34.9660 C   0  0  2  0  0  0
  -13.3720   30.1400  -34.6320 O   0  0  0  0  0  0
  -13.6170   32.5590  -34.5130 C   0  0  0  0  0  0
  -16.9630   29.1020  -35.1210 N   0  0  0  0  0  0
  -17.9840   28.4260  -35.9280 C   0  0  0  0  0  0
  -17.3920   27.9390  -37.2740 C   0  0  0  0  0  0
  -18.1560   27.5520  -38.1990 O   0  5  0  0  0  0
  -16.1437   27.9297  -37.4447 O   0  0  0  0  0  0
  -22.6756   38.9400  -27.1813 H   0  0  0  0  0  0
  -24.2219   39.2772  -26.3316 H   0  0  0  0  0  0
  -24.1602   38.0301  -27.6229 H   0  0  0  0  0  0
  -22.8083   37.9135  -24.8766 H   0  0  0  0  0  0
  -25.0432   37.4655  -24.4617 H   0  0  0  0  0  0
  -23.5782   35.7381  -23.5235 H   0  0  0  0  0  0
  -25.8016   37.3888  -26.9444 H   0  0  0  0  0  0
  -26.5806   36.1497  -25.9029 H   0  0  0  0  0  0
  -25.2370   35.6844  -27.0007 H   0  0  0  0  0  0
  -21.1171   36.5404  -24.4942 H   0  0  0  0  0  0
  -19.5266   36.3660  -26.9393 H   0  0  0  0  0  0
  -18.5894   36.7545  -24.6572 H   0  0  0  0  0  0
  -17.7582   35.3879  -25.4747 H   0  0  0  0  0  0
  -18.9908   35.0619  -24.2094 H   0  0  0  0  0  0
  -18.7037   34.7243  -28.2686 H   0  0  0  0  0  0
  -20.3322   32.2307  -27.8748 H   0  0  0  0  0  0
  -18.4382   32.6087  -30.2438 H   0  0  0  0  0  0
  -19.8671   31.5271  -30.1218 H   0  0  0  0  0  0
  -20.6202   33.0067  -31.5716 H   0  0  0  0  0  0
  -21.1395   33.8275  -30.0606 H   0  0  0  0  0  0
  -19.9783   35.5223  -31.4672 H   0  0  0  0  0  0
  -18.8906   35.1232  -30.0946 H   0  0  0  0  0  0
  -18.2409   33.5044  -32.5200 H   0  0  0  0  0  0
  -17.8821   36.7740  -30.8837 H   0  0  0  0  0  0
  -16.3852   33.9366  -33.6394 H   0  0  0  0  0  0
  -15.4570   35.5758  -33.3537 H   0  0  0  0  0  0
  -19.3960   30.0807  -27.8816 H   0  0  0  0  0  0
  -16.6344   30.1156  -26.6665 H   0  0  0  0  0  0
  -18.5336   28.5725  -25.9170 H   0  0  0  0  0  0
  -18.3013   27.6571  -27.4449 H   0  0  0  0  0  0
  -15.9083   27.2541  -26.8115 H   0  0  0  0  0  0
  -16.1923   28.1136  -25.2600 H   0  0  0  0  0  0
  -18.0027   26.4897  -24.6707 H   0  0  0  0  0  0
  -17.7775   25.6489  -26.2420 H   0  0  0  0  0  0
  -15.4724   24.9447  -25.5901 H   0  0  0  0  0  0
  -15.5692   25.9049  -24.0751 H   0  0  0  0  0  0
  -16.7587   24.9650  -22.1333 H   0  0  0  0  0  0
  -17.6244   23.4026  -22.3237 H   0  0  0  0  0  0
  -18.3029   24.8996  -23.0487 H   0  0  0  0  0  0
  -14.8663   24.0688  -22.8721 H   0  0  0  0  0  0
  -14.7794   23.0964  -24.3800 H   0  0  0  0  0  0
  -15.7327   22.4989  -22.9796 H   0  0  0  0  0  0
  -18.3251   23.8588  -25.3162 H   0  0  0  0  0  0
  -17.8121   22.3714  -24.4496 H   0  0  0  0  0  0
  -16.8588   22.9689  -25.8499 H   0  0  0  0  0  0
  -18.0463   29.7338  -29.7686 H   0  0  0  0  0  0
  -15.2487   29.0025  -30.7418 H   0  0  0  0  0  0
  -16.8144   26.9667  -30.6309 H   0  0  0  0  0  0
  -17.9138   27.8107  -31.7736 H   0  0  0  0  0  0
  -16.3214   26.2964  -33.0123 H   0  0  0  0  0  0
  -14.5894   29.5909  -32.8558 H   0  0  0  0  0  0
  -16.0312   31.9579  -33.8806 H   0  0  0  0  0  0
  -14.3647   31.1869  -36.0609 H   0  0  0  0  0  0
  -13.6483   29.1026  -34.8717 H   0  0  0  0  0  0
  -14.2900   33.3924  -34.7632 H   0  0  0  0  0  0
  -12.6557   32.6961  -35.0298 H   0  0  0  0  0  0
  -13.4492   32.5369  -33.4261 H   0  0  0  0  0  0
  -16.3356   28.5212  -34.4289 H   0  0  0  0  0  0
  -18.3706   27.5563  -35.3766 H   0  0  0  0  0  0
  -18.8082   29.1240  -36.1363 H   0  0  0  0  0  0
  -16.2764   37.1268  -31.8466 H   0  0  0  0  0  0
  1  2  1  0  0  0
  1 54  1  0  0  0
  1 55  1  0  0  0
  1 56  1  0  0  0
  2  3  1  0  0  0
  2  5  1  0  0  0
  2 57  1  0  0  0
  3  4  2  0  0  0
  3  8  1  0  0  0
  5  6  1  0  0  0
  5  7  1  0  0  0
  5 58  1  0  0  0
  6 59  1  0  0  0
  7 60  1  0  0  0
  7 61  1  0  0  0
  7 62  1  0  0  0
  8  9  1  0  0  0
  8 63  1  0  0  0
  9 10  1  0  0  0
  9 12  1  0  0  0
  9 64  1  0  0  0
 10 11  2  0  0  0
 10 13  1  0  0  0
 12 65  1  0  0  0
 12 66  1  0  0  0
 12 67  1  0  0  0
 13 14  1  0  0  0
 13 68  1  0  0  0
 14 15  1  0  0  0
 14 17  1  0  0  0
 14 69  1  0  0  0
 15 16  2  0  0  0
 15 24  1  0  0  0
 17 18  1  0  0  0
 17 70  1  0  0  0
 17 71  1  0  0  0
 18 19  1  0  0  0
 18 72  1  0  0  0
 18 73  1  0  0  0
 19 20  1  0  0  0
 19 74  1  0  0  0
 19 75  1  0  0  0
 20 21  1  0  0  0
 20 76  1  0  0  0
 21 22  2  0  0  0
 21 23  1  0  0  0
 22 77  1  0  0  0
 22114  1  0  0  0
 23 78  1  0  0  0
 23 79  1  0  0  0
 24 25  1  0  0  0
 24 80  1  0  0  0
 25 26  1  0  0  0
 25 31  1  0  0  0
 25 81  1  0  0  0
 26 27  1  0  0  0
 26 82  1  0  0  0
 26 83  1  0  0  0
 27 28  1  0  0  0
 27 84  1  0  0  0
 27 85  1  0  0  0
 28 29  1  0  0  0
 28 86  1  0  0  0
 28 87  1  0  0  0
 29 30  1  0  0  0
 29 88  1  0  0  0
 29 89  1  0  0  0
 30 33  1  0  0  0
 30 34  1  0  0  0
 30 35  1  0  0  0
 31 32  2  0  0  0
 31 36  1  0  0  0
 33 90  1  0  0  0
 33 91  1  0  0  0
 33 92  1  0  0  0
 34 93  1  0  0  0
 34 94  1  0  0  0
 34 95  1  0  0  0
 35 96  1  0  0  0
 35 97  1  0  0  0
 35 98  1  0  0  0
 36 37  1  0  0  0
 36 99  1  0  0  0
 37 38  1  0  0  0
 37 40  1  0  0  0
 37100  1  0  0  0
 38 39  2  0  0  0
 38 42  1  0  0  0
 40 41  1  0  0  0
 40101  1  0  0  0
 40102  1  0  0  0
 41103  1  0  0  0
 42 43  1  0  0  0
 42104  1  0  0  0
 43 44  1  0  0  0
 43 46  1  0  0  0
 43105  1  0  0  0
 44 45  2  0  0  0
 44 49  1  0  0  0
 46 47  1  0  0  0
 46 48  1  0  0  0
 46106  1  0  0  0
 47107  1  0  0  0
 48108  1  0  0  0
 48109  1  0  0  0
 48110  1  0  0  0
 49 50  1  0  0  0
 49111  1  0  0  0
 50 51  1  0  0  0
 50112  1  0  0  0
 50113  1  0  0  0
 51 52  1  0  0  0
 51 53  2  0  0  0
M  CHG  4   1   1  22   1  30   1  52  -1
M  END
> <s_m_source_file>
../3k27_ligand.sdf

> <i_m_source_file_index>
1

> <s_epik_input>
W09IXVtDQEhdKFtDSDNdKVtDQEhdKFtOSDMrXSlDKD1PKVtOSF1bQ0BASF0oW0NIM10pQyg9TylbTkhdW0NAQEhdKFtDSDJdW0NIMl1bQ0gyXVtOSF0vQyg9TlxbSF0pW05IMl0pQyg9TylbTkhdW0NAQEhdKFtDSDJdW0NIMl1bQ0gyXVtDSDJdW04rXShbQ0gzXSkoW0NIM10pW0NIM10pQyg9TylbTkhdW0NAQEhdKFtDSDJdW09IXSlDKD1PKVtOSF1bQ0BASF0oW0NASF0oW09IXSlbQ0gzXSlDKD1PKVtOSF1bQ0gyXUMoPU8pW09IXQ==

> <s_epik_cmdline>
J2VwaWtfYXBwJywgJy1pbWFlJywgJ2xpZ2FuZF9wcm8ubWFlJywgJy1vbWFlJywgJ2xpZ2FuZF9wcmVwLm1hZScsICctbXMnLCAnMScsICctcGgnLCAnNycsICctcGh0JywgJzAuNScsICctbnQn

> <r_epik_Ionization_Penalty>
  0.0811

> <r_epik_Ionization_Penalty_Charging>
  0.0811

> <r_epik_Ionization_Penalty_Neutral>
  0.0000

> <r_epik_State_Penalty>
  0.0717

> <r_epik_Charging_Adjusted_Penalty>
0.152729652969772

> <i_epik_Tot_Q>
2

> <i_epik_Tot_abs_Q>
4

> <s_epik_Chemistry_Notes>
This compound has an imine and may undergo hydrolysis.

$$$$
