3k2f_ligand
                    3D
 Schrodinger Suite 2020-3.
 53 54  0  0  1  0            999 V2000
   -3.2360    6.7890   14.1940 C   0  0  0  0  0  0
   -7.0170    5.9590   12.9240 O   0  0  0  0  0  0
   -5.2880    1.0350   18.1010 O   0  0  0  0  0  0
   -4.2970    6.4700   13.1430 C   0  0  2  0  0  0
   -5.8840    5.9750   13.9000 S   0  0  0  0  0  0
   -5.5960    4.3610   14.5190 C   0  0  0  0  0  0
   -6.4610    3.5580   15.6960 S   0  0  0  0  0  0
   -5.5530    2.2090   15.6930 C   0  0  0  0  0  0
   -5.9310    0.8710   16.7560 S   0  0  0  0  0  0
   -5.4320   -0.3870   16.0890 N   0  0  0  0  0  0
   -6.2250    6.9120   15.0270 O   0  0  0  0  0  0
   -7.5070    0.8350   16.9290 O   0  0  0  0  0  0
   -3.8460    5.3110   12.2520 C   0  0  0  0  0  0
   -3.5040    3.9790   13.0060 C   0  0  1  0  0  0
   -4.5450    3.5160   14.0990 C   0  0  0  0  0  0
   -4.5700    2.3380   14.7840 C   0  0  0  0  0  0
   -3.2390    2.9770   11.9360 N   0  0  0  0  0  0
   -4.3770    2.1420   11.4930 C   0  0  0  0  0  0
   -5.1720    2.8920   10.4400 C   0  0  0  0  0  0
   -1.0430    3.5340   11.7060 O   0  0  0  0  0  0
   -2.0190    2.8610   11.3740 C   0  0  0  0  0  0
   -1.8190    1.9600   10.3760 O   0  0  0  0  0  0
   -0.5590    2.1990    9.6040 C   0  0  0  0  0  0
   -0.4810    4.5570    6.6470 O   0  5  0  0  0  0
    0.1840    3.5720    9.4300 C   0  0  2  0  0  0
   -0.7160    4.6640    9.0720 O   0  0  0  0  0  0
   -1.2960    4.6320    7.8250 N   0  3  0  0  0  0
   -2.7450    4.7140    7.7010 O   0  0  0  0  0  0
    1.4000    3.4910    8.4660 C   0  0  0  0  0  0
    2.6230    3.8780    9.1160 O   0  0  0  0  0  0
    3.6180    3.9680    8.1930 N   0  3  0  0  0  0
    3.8240    5.1940    7.4930 O   0  0  0  0  0  0
    4.4630    2.8450    7.9170 O   0  5  0  0  0  0
   -3.5812    7.6237   14.8218 H   0  0  0  0  0  0
   -2.2974    7.0700   13.6939 H   0  0  0  0  0  0
   -3.0652    5.9031   14.8232 H   0  0  0  0  0  0
   -4.2461    7.3757   12.5209 H   0  0  0  0  0  0
   -5.6522   -1.2537   16.7295 H   0  0  0  0  0  0
   -4.3457   -0.3130   15.9329 H   0  0  0  0  0  0
   -4.6440    5.0676   11.5352 H   0  0  0  0  0  0
   -2.9373    5.6016   11.7044 H   0  0  0  0  0  0
   -2.5879    4.0880   13.6050 H   0  0  0  0  0  0
   -3.8388    1.5494   14.6063 H   0  0  0  0  0  0
   -3.9977    1.2017   11.0665 H   0  0  0  0  0  0
   -5.0252    1.9192   12.3534 H   0  0  0  0  0  0
   -6.0187    2.2724   10.1095 H   0  0  0  0  0  0
   -4.5230    3.1148    9.5802 H   0  0  0  0  0  0
   -5.5505    3.8324   10.8671 H   0  0  0  0  0  0
    0.2514    1.5866   10.0261 H   0  0  0  0  0  0
   -0.7164    1.9233    8.5508 H   0  0  0  0  0  0
    0.5518    3.8838   10.4187 H   0  0  0  0  0  0
    1.5129    2.4584    8.1041 H   0  0  0  0  0  0
    1.2355    4.1632    7.6110 H   0  0  0  0  0  0
  1  4  1  0  0  0
  1 34  1  0  0  0
  1 35  1  0  0  0
  1 36  1  0  0  0
  2  5  2  0  0  0
  3  9  2  0  0  0
  4  5  1  0  0  0
  4 13  1  0  0  0
  4 37  1  0  0  0
  5  6  1  0  0  0
  5 11  2  0  0  0
  6  7  1  0  0  0
  6 15  2  0  0  0
  7  8  1  0  0  0
  8  9  1  0  0  0
  8 16  2  0  0  0
  9 10  1  0  0  0
  9 12  2  0  0  0
 10 38  1  0  0  0
 10 39  1  0  0  0
 13 14  1  0  0  0
 13 40  1  0  0  0
 13 41  1  0  0  0
 14 15  1  0  0  0
 14 17  1  0  0  0
 14 42  1  0  0  0
 15 16  1  0  0  0
 16 43  1  0  0  0
 17 18  1  0  0  0
 17 21  1  0  0  0
 18 19  1  0  0  0
 18 44  1  0  0  0
 18 45  1  0  0  0
 19 46  1  0  0  0
 19 47  1  0  0  0
 19 48  1  0  0  0
 20 21  2  0  0  0
 21 22  1  0  0  0
 22 23  1  0  0  0
 23 25  1  0  0  0
 23 49  1  0  0  0
 23 50  1  0  0  0
 24 27  1  0  0  0
 25 26  1  0  0  0
 25 29  1  0  0  0
 25 51  1  0  0  0
 26 27  1  0  0  0
 27 28  2  0  0  0
 29 30  1  0  0  0
 29 52  1  0  0  0
 29 53  1  0  0  0
 30 31  1  0  0  0
 31 32  2  0  0  0
 31 33  1  0  0  0
M  CHG  4  24  -1  27   1  31   1  33  -1
M  END
> <s_m_source_file>
../3k2f_ligand.sdf

> <i_m_source_file_index>
1

> <s_epik_input>
Tz1TKD1PKShbTkgyXSljKHMxKVtjSF1jKGMxMilbQ0BIXShbQ0gyXVtDQEhdKFtDSDNdKVMyKD1PKT1PKU4oW0NIMl1bQ0gzXSlDKD1PKU9bQ0gyXVtDQEhdKE9bTitdKFtPLV0pPU8pW0NIMl1PW04rXSg9TylbTy1d

> <s_epik_cmdline>
J2VwaWtfYXBwJywgJy1pbWFlJywgJ2xpZ2FuZF9wcm8ubWFlJywgJy1vbWFlJywgJ2xpZ2FuZF9wcmVwLm1hZScsICctbXMnLCAnMScsICctcGgnLCAnNycsICctcGh0JywgJzAuNScsICctbnQn

> <r_epik_Ionization_Penalty>
  0.0291

> <r_epik_Ionization_Penalty_Charging>
  0.0000

> <r_epik_Ionization_Penalty_Neutral>
  0.0291

> <r_epik_State_Penalty>
  0.0239

> <r_epik_Charging_Adjusted_Penalty>
0.0239039711841963

> <i_epik_Tot_Q>
0

> <i_epik_Tot_abs_Q>
4

> <s_epik_Chemistry_Notes>
This compound has an ester and may undergo hydrolysis at high or low pH.

$$$$
