3k37_ligand
                    3D
 Schrodinger Suite 2020-3.
 51 51  0  0  1  0            999 V2000
  -14.0380  -27.0410   11.9390 C   0  0  1  0  0  0
  -13.3540  -26.4240   13.0940 N   0  0  0  0  0  0
  -12.0020  -26.0370   13.0860 C   0  0  0  0  0  0
  -11.2820  -25.8830   11.9320 N   0  3  0  0  0  0
  -11.2960  -25.7790   14.2490 N   0  0  0  0  0  0
  -14.9510  -28.2260   12.2410 C   0  0  2  0  0  0
  -14.2210  -29.5470   12.5420 C   0  0  2  0  0  0
  -15.1400  -30.7300   12.8280 C   0  0  0  0  0  0
  -15.9060  -30.5490   14.1310 C   0  0  0  0  0  0
  -17.3050  -31.0910   13.9850 C   0  0  0  0  0  0
  -14.3500  -32.0320   12.8270 C   0  0  0  0  0  0
  -13.8930  -32.4140   11.4200 C   0  0  0  0  0  0
  -13.2250  -29.4690   13.5860 N   0  0  0  0  0  0
  -11.8700  -29.4200   13.3160 C   0  0  0  0  0  0
  -11.0740  -29.1140   14.5440 C   0  0  0  0  0  0
  -11.3270  -29.6100   12.2360 O   0  0  0  0  0  0
  -15.8330  -28.2950   11.0000 C   0  0  2  0  0  0
  -15.2320  -29.2020   10.0550 O   0  0  0  0  0  0
  -15.8280  -26.9350   10.3100 C   0  0  1  0  0  0
  -17.2640  -26.3890   10.4000 C   0  0  0  0  0  0
  -17.3950  -25.1450   10.2050 O   0  5  0  0  0  0
  -18.1910  -27.2160   10.6380 O   0  0  0  0  0  0
  -14.9610  -26.0620   11.2090 C   0  0  0  0  0  0
  -13.1474  -27.3587   11.3770 H   0  0  0  0  0  0
  -13.9061  -26.2437   14.0282 H   0  0  0  0  0  0
  -11.7587  -26.0660   10.9577 H   0  0  0  0  0  0
  -11.7915  -25.8764   15.2263 H   0  0  0  0  0  0
  -10.2397  -25.4766   14.1956 H   0  0  0  0  0  0
  -15.5201  -28.0727   13.1698 H   0  0  0  0  0  0
  -13.6407  -29.7390   11.6275 H   0  0  0  0  0  0
  -15.8876  -30.7792   12.0226 H   0  0  0  0  0  0
  -15.3902  -31.0903   14.9378 H   0  0  0  0  0  0
  -15.9563  -29.4790   14.3812 H   0  0  0  0  0  0
  -17.8509  -30.9562   14.9304 H   0  0  0  0  0  0
  -17.2594  -32.1618   13.7374 H   0  0  0  0  0  0
  -17.8255  -30.5505   13.1807 H   0  0  0  0  0  0
  -13.4589  -31.9207   13.4623 H   0  0  0  0  0  0
  -14.9805  -32.8438   13.2187 H   0  0  0  0  0  0
  -13.3277  -33.3567   11.4614 H   0  0  0  0  0  0
  -13.2503  -31.6186   11.0146 H   0  0  0  0  0  0
  -14.7719  -32.5417   10.7710 H   0  0  0  0  0  0
  -13.5349  -29.4466   14.6412 H   0  0  0  0  0  0
  -11.7543  -28.9797   15.3979 H   0  0  0  0  0  0
  -10.4969  -28.1909   14.3863 H   0  0  0  0  0  0
  -10.3852  -29.9462   14.7513 H   0  0  0  0  0  0
  -16.8400  -28.6483   11.2666 H   0  0  0  0  0  0
  -15.1143  -30.2652   10.3115 H   0  0  0  0  0  0
  -15.4724  -26.9716    9.2697 H   0  0  0  0  0  0
  -15.5649  -25.5099   11.9442 H   0  0  0  0  0  0
  -14.3555  -25.3530   10.6254 H   0  0  0  0  0  0
  -10.2267  -25.5762   11.9790 H   0  0  0  0  0  0
  1  2  1  0  0  0
  1  6  1  0  0  0
  1 23  1  0  0  0
  1 24  1  0  0  0
  2  3  1  0  0  0
  2 25  1  0  0  0
  3  4  2  0  0  0
  3  5  1  0  0  0
  4 26  1  0  0  0
  4 51  1  0  0  0
  5 27  1  0  0  0
  5 28  1  0  0  0
  6  7  1  0  0  0
  6 17  1  0  0  0
  6 29  1  0  0  0
  7  8  1  0  0  0
  7 13  1  0  0  0
  7 30  1  0  0  0
  8  9  1  0  0  0
  8 11  1  0  0  0
  8 31  1  0  0  0
  9 10  1  0  0  0
  9 32  1  0  0  0
  9 33  1  0  0  0
 10 34  1  0  0  0
 10 35  1  0  0  0
 10 36  1  0  0  0
 11 12  1  0  0  0
 11 37  1  0  0  0
 11 38  1  0  0  0
 12 39  1  0  0  0
 12 40  1  0  0  0
 12 41  1  0  0  0
 13 14  1  0  0  0
 13 42  1  0  0  0
 14 15  1  0  0  0
 14 16  2  0  0  0
 15 43  1  0  0  0
 15 44  1  0  0  0
 15 45  1  0  0  0
 17 18  1  0  0  0
 17 19  1  0  0  0
 17 46  1  0  0  0
 18 47  1  0  0  0
 19 20  1  0  0  0
 19 23  1  0  0  0
 19 48  1  0  0  0
 20 21  1  0  0  0
 20 22  2  0  0  0
 23 49  1  0  0  0
 23 50  1  0  0  0
M  CHG  2   4   1  21  -1
M  END
> <s_m_source_file>
../3k37_ligand.sdf

> <i_m_source_file_index>
1

> <s_epik_input>
W0hdXE49QyhbTkgyXSlcW05IXVtDQEhdMVtDQEhdKFtDQEhdKFtDSF0oW0NIMl1bQ0gzXSlbQ0gyXVtDSDNdKVtOSF1DKD1PKVtDSDNdKVtDQEhdKFtPSF0pW0NASF0oW0NIMl0xKUMoPU8pW09IXQ==

> <s_epik_cmdline>
J2VwaWtfYXBwJywgJy1pbWFlJywgJ2xpZ2FuZF9wcm8ubWFlJywgJy1vbWFlJywgJ2xpZ2FuZF9wcmVwLm1hZScsICctbXMnLCAnMScsICctcGgnLCAnNycsICctcGh0JywgJzAuNScsICctbnQn

> <r_lp_tautomer_probability>
1

> <r_epik_Ionization_Penalty>
  0.0002

> <r_epik_Ionization_Penalty_Charging>
  0.0002

> <r_epik_Ionization_Penalty_Neutral>
  0.0000

> <r_epik_State_Penalty>
 -0.0000

> <r_epik_Charging_Adjusted_Penalty>
0.000191086690329033

> <i_epik_Tot_Q>
0

> <i_epik_Tot_abs_Q>
2

> <s_epik_Chemistry_Notes>
This compound has an imine and may undergo hydrolysis.

$$$$
