3k39_ligand
                    3D
 Schrodinger Suite 2020-3.
 51 51  0  0  1  0            999 V2000
    7.6990   15.7340   25.7490 C   0  0  1  0  0  0
    6.5430   15.5920   24.8770 N   0  0  0  0  0  0
    6.5330   15.8700   23.5220 C   0  0  0  0  0  0
    5.3200   15.8280   22.8430 N   0  0  0  0  0  0
    7.6980   16.2020   22.8670 N   0  3  0  0  0  0
    7.3430   16.2420   27.1190 C   0  0  2  0  0  0
    6.9670   17.7270   27.1430 C   0  0  2  0  0  0
    6.5580   18.2650   28.5240 C   0  0  0  0  0  0
    6.3650   19.7700   28.5150 C   0  0  0  0  0  0
    7.6880   20.4980   28.4730 C   0  0  0  0  0  0
    5.3240   17.6170   29.1000 C   0  0  0  0  0  0
    5.4130   17.5970   30.6010 C   0  0  0  0  0  0
    5.9380   18.0500   26.1890 N   0  0  0  0  0  0
    6.1810   18.8680   25.1060 C   0  0  0  0  0  0
    4.9460   19.0320   24.2750 C   0  0  0  0  0  0
    7.2410   19.4100   24.8120 O   0  0  0  0  0  0
    8.5680   15.8620   27.9500 C   0  0  2  0  0  0
    9.5280   16.9150   27.9560 O   0  0  0  0  0  0
    9.2640   14.7090   27.2520 C   0  0  1  0  0  0
    9.2000   13.5040   28.2120 C   0  0  0  0  0  0
    9.5110   12.3770   27.7720 O   0  5  0  0  0  0
    8.8480   13.7330   29.3750 O   0  0  0  0  0  0
    8.3720   14.4080   26.0560 C   0  0  0  0  0  0
    8.3111   16.4343   25.1617 H   0  0  0  0  0  0
    5.5849   15.2396   25.2868 H   0  0  0  0  0  0
    4.3980   15.5610   23.3802 H   0  0  0  0  0  0
    5.2826   16.0617   21.7688 H   0  0  0  0  0  0
    8.6497   16.2309   23.4179 H   0  0  0  0  0  0
    6.4225   15.7860   27.5124 H   0  0  0  0  0  0
    7.8684   18.2566   26.8009 H   0  0  0  0  0  0
    7.3925   18.0035   29.1913 H   0  0  0  0  0  0
    5.7803   20.0594   27.6293 H   0  0  0  0  0  0
    5.8281   20.0763   29.4249 H   0  0  0  0  0  0
    7.5092   21.5834   28.4676 H   0  0  0  0  0  0
    8.2352   20.2119   27.5626 H   0  0  0  0  0  0
    8.2829   20.2288   29.3582 H   0  0  0  0  0  0
    4.4342   18.1878   28.7959 H   0  0  0  0  0  0
    5.2432   16.5855   28.7266 H   0  0  0  0  0  0
    4.5108   17.1235   31.0155 H   0  0  0  0  0  0
    5.4921   18.6276   30.9774 H   0  0  0  0  0  0
    6.3012   17.0253   30.9080 H   0  0  0  0  0  0
    4.9246   17.6408   26.3134 H   0  0  0  0  0  0
    4.1219   18.4598   24.7261 H   0  0  0  0  0  0
    5.1367   18.6602   23.2575 H   0  0  0  0  0  0
    4.6723   20.0965   24.2311 H   0  0  0  0  0  0
    8.2730   15.6704   28.9923 H   0  0  0  0  0  0
    9.2777   17.8849   28.4105 H   0  0  0  0  0  0
   10.3016   14.9307   26.9618 H   0  0  0  0  0  0
    7.6064   13.6542   26.2918 H   0  0  0  0  0  0
    8.9522   14.0800   25.1809 H   0  0  0  0  0  0
    7.6769   16.4383   21.7929 H   0  0  0  0  0  0
  1  2  1  0  0  0
  1  6  1  0  0  0
  1 23  1  0  0  0
  1 24  1  0  0  0
  2  3  1  0  0  0
  2 25  1  0  0  0
  3  4  1  0  0  0
  3  5  2  0  0  0
  4 26  1  0  0  0
  4 27  1  0  0  0
  5 28  1  0  0  0
  5 51  1  0  0  0
  6  7  1  0  0  0
  6 17  1  0  0  0
  6 29  1  0  0  0
  7  8  1  0  0  0
  7 13  1  0  0  0
  7 30  1  0  0  0
  8  9  1  0  0  0
  8 11  1  0  0  0
  8 31  1  0  0  0
  9 10  1  0  0  0
  9 32  1  0  0  0
  9 33  1  0  0  0
 10 34  1  0  0  0
 10 35  1  0  0  0
 10 36  1  0  0  0
 11 12  1  0  0  0
 11 37  1  0  0  0
 11 38  1  0  0  0
 12 39  1  0  0  0
 12 40  1  0  0  0
 12 41  1  0  0  0
 13 14  1  0  0  0
 13 42  1  0  0  0
 14 15  1  0  0  0
 14 16  2  0  0  0
 15 43  1  0  0  0
 15 44  1  0  0  0
 15 45  1  0  0  0
 17 18  1  0  0  0
 17 19  1  0  0  0
 17 46  1  0  0  0
 18 47  1  0  0  0
 19 20  1  0  0  0
 19 23  1  0  0  0
 19 48  1  0  0  0
 20 21  1  0  0  0
 20 22  2  0  0  0
 23 49  1  0  0  0
 23 50  1  0  0  0
M  CHG  2   5   1  21  -1
M  END
> <s_m_source_file>
../3k39_ligand.sdf

> <i_m_source_file_index>
1

> <s_epik_input>
W0hdXE49QyhbTkgyXSlcW05IXVtDQEhdMVtDQEhdKFtDQEhdKFtDSF0oW0NIMl1bQ0gzXSlbQ0gyXVtDSDNdKVtOSF1DKD1PKVtDSDNdKVtDQEhdKFtPSF0pW0NASF0oW0NIMl0xKUMoPU8pW09IXQ==

> <s_epik_cmdline>
J2VwaWtfYXBwJywgJy1pbWFlJywgJ2xpZ2FuZF9wcm8ubWFlJywgJy1vbWFlJywgJ2xpZ2FuZF9wcmVwLm1hZScsICctbXMnLCAnMScsICctcGgnLCAnNycsICctcGh0JywgJzAuNScsICctbnQn

> <r_lp_tautomer_probability>
1

> <r_epik_Ionization_Penalty>
  0.0002

> <r_epik_Ionization_Penalty_Charging>
  0.0002

> <r_epik_Ionization_Penalty_Neutral>
  0.0000

> <r_epik_State_Penalty>
 -0.0000

> <r_epik_Charging_Adjusted_Penalty>
0.000179684030402543

> <i_epik_Tot_Q>
0

> <i_epik_Tot_abs_Q>
2

> <s_epik_Chemistry_Notes>
This compound has an imine and may undergo hydrolysis.

$$$$
