3k3a_ligand
                    3D
 Schrodinger Suite 2020-3.
 44 44  0  0  1  0            999 V2000
  -10.4550  -28.4260  -13.8380 C   0  0  0  0  0  0
  -10.4410  -27.8540  -12.7150 O   0  5  0  0  0  0
  -10.6240  -29.6120  -14.0270 O   0  0  0  0  0  0
  -10.0320  -27.6750  -14.8490 C   0  0  0  0  0  0
   -9.7990  -26.2270  -14.5020 C   0  0  0  0  0  0
   -8.7580  -25.6160  -15.4680 C   0  0  1  0  0  0
   -8.8030  -26.3860  -16.8060 C   0  0  1  0  0  0
   -7.7760  -25.7500  -17.6650 N   0  0  0  0  0  0
   -7.6880  -24.7780  -18.5730 C   0  0  0  0  0  0
   -8.6470  -24.2420  -19.0970 O   0  0  0  0  0  0
   -6.3030  -24.3790  -19.0440 C   0  0  0  0  0  0
   -8.6970  -27.8430  -16.8930 C   0  0  1  0  0  0
   -9.7080  -28.3830  -15.9090 C   0  0  0  0  0  0
   -8.8760  -28.2020  -18.3110 O   0  0  0  0  0  0
   -8.0080  -29.2810  -18.7050 C   0  0  0  0  0  0
   -7.9900  -29.4270  -20.2170 C   0  0  0  0  0  0
   -8.3930  -30.6240  -18.0740 C   0  0  0  0  0  0
   -9.8290  -30.9120  -18.5250 C   0  0  0  0  0  0
   -7.6530  -28.1180  -20.8180 C   0  0  0  0  0  0
   -8.9510  -24.1430  -15.7420 N   0  3  0  0  0  0
  -10.7448  -25.6722  -14.5894 H   0  0  0  0  0  0
   -9.4244  -26.1528  -13.4704 H   0  0  0  0  0  0
   -7.7782  -25.6865  -14.9731 H   0  0  0  0  0  0
   -9.8458  -26.3409  -17.1530 H   0  0  0  0  0  0
   -6.7345  -26.1020  -17.6294 H   0  0  0  0  0  0
   -5.5468  -24.9453  -18.4805 H   0  0  0  0  0  0
   -6.1548  -23.3020  -18.8763 H   0  0  0  0  0  0
   -6.2027  -24.6003  -20.1168 H   0  0  0  0  0  0
   -7.7159  -28.2654  -16.6303 H   0  0  0  0  0  0
  -10.1729  -29.3656  -16.0772 H   0  0  0  0  0  0
   -7.0303  -28.9564  -18.3194 H   0  0  0  0  0  0
   -7.2358  -30.1744  -20.5042 H   0  0  0  0  0  0
   -8.9809  -29.7534  -20.5657 H   0  0  0  0  0  0
   -7.7034  -31.4055  -18.4258 H   0  0  0  0  0  0
   -8.3304  -30.5458  -16.9786 H   0  0  0  0  0  0
  -10.1616  -31.8704  -18.0998 H   0  0  0  0  0  0
   -9.8646  -30.9660  -19.6231 H   0  0  0  0  0  0
  -10.4915  -30.1063  -18.1758 H   0  0  0  0  0  0
   -7.6369  -28.2110  -21.9139 H   0  0  0  0  0  0
   -6.6632  -27.7954  -20.4628 H   0  0  0  0  0  0
   -8.4084  -27.3743  -20.5242 H   0  0  0  0  0  0
   -8.9203  -23.5866  -14.7936 H   0  0  0  0  0  0
   -9.9249  -23.9851  -16.2285 H   0  0  0  0  0  0
   -8.1484  -23.7849  -16.4034 H   0  0  0  0  0  0
  1  2  1  0  0  0
  1  3  2  0  0  0
  1  4  1  0  0  0
  4  5  1  0  0  0
  4 13  2  0  0  0
  5  6  1  0  0  0
  5 21  1  0  0  0
  5 22  1  0  0  0
  6  7  1  0  0  0
  6 20  1  0  0  0
  6 23  1  0  0  0
  7  8  1  0  0  0
  7 12  1  0  0  0
  7 24  1  0  0  0
  8  9  1  0  0  0
  8 25  1  0  0  0
  9 10  2  0  0  0
  9 11  1  0  0  0
 11 26  1  0  0  0
 11 27  1  0  0  0
 11 28  1  0  0  0
 12 13  1  0  0  0
 12 14  1  0  0  0
 12 29  1  0  0  0
 13 30  1  0  0  0
 14 15  1  0  0  0
 15 16  1  0  0  0
 15 17  1  0  0  0
 15 31  1  0  0  0
 16 19  1  0  0  0
 16 32  1  0  0  0
 16 33  1  0  0  0
 17 18  1  0  0  0
 17 34  1  0  0  0
 17 35  1  0  0  0
 18 36  1  0  0  0
 18 37  1  0  0  0
 18 38  1  0  0  0
 19 39  1  0  0  0
 19 40  1  0  0  0
 19 41  1  0  0  0
 20 42  1  0  0  0
 20 43  1  0  0  0
 20 44  1  0  0  0
M  CHG  2   2  -1  20   1
M  END
> <s_m_source_file>
../3k3a_ligand.sdf

> <i_m_source_file_index>
1

> <s_epik_input>
W09IXUMoPU8pQzE9W0NIXVtDQEhdKFtDQEBIXShbQ0BIXShbQ0gyXTEpW05IMytdKVtOSF1DKD1PKVtDSDNdKU9bQ0hdKFtDSDJdW0NIM10pW0NIMl1bQ0gzXQ==

> <s_epik_cmdline>
J2VwaWtfYXBwJywgJy1pbWFlJywgJ2xpZ2FuZF9wcm8ubWFlJywgJy1vbWFlJywgJ2xpZ2FuZF9wcmVwLm1hZScsICctbXMnLCAnMScsICctcGgnLCAnNycsICctcGh0JywgJzAuNScsICctbnQn

> <r_lp_tautomer_probability>
1

> <r_epik_Ionization_Penalty>
  0.0028

> <r_epik_Ionization_Penalty_Charging>
  0.0028

> <r_epik_Ionization_Penalty_Neutral>
  0.0000

> <r_epik_State_Penalty>
 -0.0000

> <r_epik_Charging_Adjusted_Penalty>
0.00284468522204639

> <i_epik_Tot_Q>
0

> <i_epik_Tot_abs_Q>
2

$$$$
