3k3e_ligand
                    3D
 Schrodinger Suite 2020-3.
 39 41  0  0  1  0            999 V2000
   78.3700   49.9710   39.6290 C   0  0  0  0  0  0
   78.9880   49.8850   38.3870 C   0  0  0  0  0  0
   80.2390   50.4610   38.1910 C   0  0  0  0  0  0
   80.8690   51.1250   39.2370 C   0  0  0  0  0  0
   75.4250   55.1560   42.9860 F   0  0  0  0  0  0
   80.2490   51.2110   40.4790 C   0  0  0  0  0  0
   73.9320   56.3570   41.8900 F   0  0  0  0  0  0
   79.0010   50.6320   40.6780 C   0  0  0  0  0  0
   76.1010   56.5990   41.4460 F   0  0  0  0  0  0
   78.4320   50.6800   41.9010 N   0  0  0  0  0  0
   78.9090   50.1450   42.9300 N   0  0  0  0  0  0
   78.1320   50.3760   44.0100 C   0  0  0  0  0  0
   77.2810   51.3190   42.2040 C   0  0  0  0  0  0
   77.0620   51.1420   43.5640 C   0  0  0  0  0  0
   76.3850   52.0320   41.4690 N   0  0  0  0  0  0
   75.2780   52.5690   42.0510 C   0  0  0  0  0  0
   75.0460   52.4060   43.3820 N   0  0  0  0  0  0
   75.9360   51.6940   44.1580 C   0  0  0  0  0  0
   75.7350   51.5710   45.3670 O   0  0  0  0  0  0
   74.3060   53.3950   41.2230 C   0  0  0  0  0  0
   75.0360   54.6340   40.6990 C   0  0  1  0  0  0
   74.3100   55.1790   39.4670 C   0  0  0  0  0  0
   75.1250   55.7140   41.7830 C   0  0  0  0  0  0
   76.8210   49.2570   39.8590 C   0  0  0  0  0  0
   78.4924   49.3662   37.5665 H   0  0  0  0  0  0
   80.7249   50.3916   37.2177 H   0  0  0  0  0  0
   81.8485   51.5781   39.0840 H   0  0  0  0  0  0
   80.7428   51.7336   41.2982 H   0  0  0  0  0  0
   78.3089   50.0305   45.0285 H   0  0  0  0  0  0
   74.1468   52.8427   43.8411 H   0  0  0  0  0  0
   73.9397   52.7926   40.3786 H   0  0  0  0  0  0
   73.4564   53.7003   41.8514 H   0  0  0  0  0  0
   76.0594   54.3450   40.4175 H   0  0  0  0  0  0
   74.2533   54.3945   38.6980 H   0  0  0  0  0  0
   74.8615   56.0435   39.0690 H   0  0  0  0  0  0
   73.2933   55.4907   39.7485 H   0  0  0  0  0  0
   76.4917   48.7856   38.9213 H   0  0  0  0  0  0
   76.0992   50.0336   40.1523 H   0  0  0  0  0  0
   76.8821   48.4955   40.6505 H   0  0  0  0  0  0
  1  2  2  0  0  0
  1  8  1  0  0  0
  1 24  1  0  0  0
  2  3  1  0  0  0
  2 25  1  0  0  0
  3  4  2  0  0  0
  3 26  1  0  0  0
  4  6  1  0  0  0
  4 27  1  0  0  0
  5 23  1  0  0  0
  6  8  2  0  0  0
  6 28  1  0  0  0
  7 23  1  0  0  0
  8 10  1  0  0  0
  9 23  1  0  0  0
 10 11  1  0  0  0
 10 13  1  0  0  0
 11 12  2  0  0  0
 12 14  1  0  0  0
 12 29  1  0  0  0
 13 14  2  0  0  0
 13 15  1  0  0  0
 14 18  1  0  0  0
 15 16  2  0  0  0
 16 17  1  0  0  0
 16 20  1  0  0  0
 17 18  1  0  0  0
 17 30  1  0  0  0
 18 19  2  0  0  0
 20 21  1  0  0  0
 20 31  1  0  0  0
 20 32  1  0  0  0
 21 22  1  0  0  0
 21 23  1  0  0  0
 21 33  1  0  0  0
 22 34  1  0  0  0
 22 35  1  0  0  0
 22 36  1  0  0  0
 24 37  1  0  0  0
 24 38  1  0  0  0
 24 39  1  0  0  0
M  END
> <s_m_source_file>
../3k3e_ligand.sdf

> <i_m_source_file_index>
1

> <s_epik_input>
W0NIM11jMVtjSF1bY0hdW2NIXVtjSF1jMS1uMm5bY0hdYyhjMjMpYyg9TylbbkhdYyhuMylbQ0gyXVtDQEBIXShbQ0gzXSlDKEYpKEYpRg==

> <s_epik_cmdline>
J2VwaWtfYXBwJywgJy1pbWFlJywgJ2xpZ2FuZF9wcm8ubWFlJywgJy1vbWFlJywgJ2xpZ2FuZF9wcmVwLm1hZScsICctbXMnLCAnMScsICctcGgnLCAnNycsICctcGh0JywgJzAuNScsICctbnQn

> <r_lp_tautomer_probability>
1

> <r_epik_Ionization_Penalty>
  0.0024

> <r_epik_Ionization_Penalty_Charging>
  0.0024

> <r_epik_Ionization_Penalty_Neutral>
  0.0000

> <r_epik_State_Penalty>
 -0.0000

> <r_epik_Charging_Adjusted_Penalty>
0.00236636817021033

> <i_epik_Tot_Q>
0

> <i_epik_Tot_abs_Q>
0

$$$$
