3k3g_ligand
                    3D
 Schrodinger Suite 2020-3.
 14 13  0  0  1  0            999 V2000
   49.4320  -12.4050    6.8790 N   0  0  0  0  0  0
   49.0360  -12.4070    9.1200 N   0  0  0  0  0  0
   50.0550  -13.0220    5.6890 C   0  0  0  0  0  0
   49.2280  -13.0580   10.4340 C   0  0  0  0  0  0
   50.2770  -14.0270    8.2010 O   0  0  0  0  0  0
   49.6080  -12.9920    8.0690 C   0  0  0  0  0  0
   48.8396  -11.4841    6.7745 H   0  0  0  0  0  0
   48.4433  -11.4834    9.0452 H   0  0  0  0  0  0
   49.8170  -12.4224    4.7981 H   0  0  0  0  0  0
   49.6657  -14.0425    5.5589 H   0  0  0  0  0  0
   51.1459  -13.0602    5.8245 H   0  0  0  0  0  0
   48.7081  -12.4774   11.2103 H   0  0  0  0  0  0
   50.3020  -13.1030   10.6674 H   0  0  0  0  0  0
   48.8167  -14.0777   10.4016 H   0  0  0  0  0  0
  1  3  1  0  0  0
  1  6  1  0  0  0
  1  7  1  0  0  0
  2  4  1  0  0  0
  2  6  1  0  0  0
  2  8  1  0  0  0
  3  9  1  0  0  0
  3 10  1  0  0  0
  3 11  1  0  0  0
  4 12  1  0  0  0
  4 13  1  0  0  0
  4 14  1  0  0  0
  5  6  2  0  0  0
M  END
> <s_m_source_file>
../3k3g_ligand.sdf

> <i_m_source_file_index>
1

> <s_epik_input>
W0NIM11bTkhdQyg9TylbTkhdW0NIM10=

> <s_epik_cmdline>
J2VwaWtfYXBwJywgJy1pbWFlJywgJ2xpZ2FuZF9wcm8ubWFlJywgJy1vbWFlJywgJ2xpZ2FuZF9wcmVwLm1hZScsICctbXMnLCAnMScsICctcGgnLCAnNycsICctcGh0JywgJzAuNScsICctbnQn

> <r_lp_tautomer_probability>
1

> <r_epik_Ionization_Penalty>
  0.0001

> <r_epik_Ionization_Penalty_Charging>
  0.0000

> <r_epik_Ionization_Penalty_Neutral>
  0.0001

> <r_epik_State_Penalty>
 -0.0000

> <r_epik_Charging_Adjusted_Penalty>
0

> <i_epik_Tot_Q>
0

> <i_epik_Tot_abs_Q>
0

$$$$
