3k3h_ligand
                    3D
 Schrodinger Suite 2020-3.
 39 41  0  0  1  0            999 V2000
   78.0880   50.0110   40.0220 C   0  0  0  0  0  0
   78.7280   49.9150   38.7900 C   0  0  0  0  0  0
   80.0090   50.4320   38.6230 C   0  0  0  0  0  0
   80.6460   51.0480   39.6930 C   0  0  0  0  0  0
   72.4730   55.5060   40.2650 F   0  0  0  0  0  0
   80.0040   51.1470   40.9240 C   0  0  0  0  0  0
   73.7690   54.5420   38.7430 F   0  0  0  0  0  0
   78.7250   50.6300   41.0910 C   0  0  0  0  0  0
   74.2860   56.5550   39.5190 F   0  0  0  0  0  0
   78.1300   50.7570   42.3010 N   0  0  0  0  0  0
   78.6290   50.3750   43.3820 N   0  0  0  0  0  0
   77.8650   50.7350   44.4380 C   0  0  0  0  0  0
   76.9670   51.4020   42.5380 C   0  0  0  0  0  0
   76.7750   51.4130   43.9120 C   0  0  0  0  0  0
   76.0560   52.0070   41.7300 N   0  0  0  0  0  0
   74.9650   52.6270   42.2560 C   0  0  0  0  0  0
   74.7600   52.6490   43.6000 N   0  0  0  0  0  0
   75.6620   52.0460   44.4520 C   0  0  0  0  0  0
   75.4860   52.0920   45.6680 O   0  0  0  0  0  0
   73.9960   53.3530   41.3370 C   0  0  0  0  0  0
   74.5880   54.7140   40.9600 C   0  0  2  0  0  0
   74.5870   55.6410   42.1770 C   0  0  0  0  0  0
   73.7550   55.3440   39.8410 C   0  0  0  0  0  0
   76.5210   49.3210   40.2000 C   0  0  0  0  0  0
   78.2238   49.4329   37.9525 H   0  0  0  0  0  0
   80.5099   50.3541   37.6581 H   0  0  0  0  0  0
   81.6497   51.4543   39.5683 H   0  0  0  0  0  0
   80.5067   51.6322   41.7607 H   0  0  0  0  0  0
   78.0652   50.5332   45.4903 H   0  0  0  0  0  0
   73.8347   52.7548   40.4281 H   0  0  0  0  0  0
   73.0369   53.4974   41.8559 H   0  0  0  0  0  0
   75.6229   54.5718   40.6153 H   0  0  0  0  0  0
   75.1853   55.1896   42.9822 H   0  0  0  0  0  0
   73.5540   55.7873   42.5256 H   0  0  0  0  0  0
   75.0210   56.6126   41.8982 H   0  0  0  0  0  0
   76.2013   48.8853   39.2419 H   0  0  0  0  0  0
   75.8086   50.1023   40.5034 H   0  0  0  0  0  0
   76.5518   48.5345   40.9684 H   0  0  0  0  0  0
   73.8715   53.1493   44.0127 H   0  0  0  0  0  0
  1  2  2  0  0  0
  1  8  1  0  0  0
  1 24  1  0  0  0
  2  3  1  0  0  0
  2 25  1  0  0  0
  3  4  2  0  0  0
  3 26  1  0  0  0
  4  6  1  0  0  0
  4 27  1  0  0  0
  5 23  1  0  0  0
  6  8  2  0  0  0
  6 28  1  0  0  0
  7 23  1  0  0  0
  8 10  1  0  0  0
  9 23  1  0  0  0
 10 11  1  0  0  0
 10 13  1  0  0  0
 11 12  2  0  0  0
 12 14  1  0  0  0
 12 29  1  0  0  0
 13 14  2  0  0  0
 13 15  1  0  0  0
 14 18  1  0  0  0
 15 16  2  0  0  0
 16 17  1  0  0  0
 16 20  1  0  0  0
 17 18  1  0  0  0
 17 39  1  0  0  0
 18 19  2  0  0  0
 20 21  1  0  0  0
 20 30  1  0  0  0
 20 31  1  0  0  0
 21 22  1  0  0  0
 21 23  1  0  0  0
 21 32  1  0  0  0
 22 33  1  0  0  0
 22 34  1  0  0  0
 22 35  1  0  0  0
 24 36  1  0  0  0
 24 37  1  0  0  0
 24 38  1  0  0  0
M  END
> <s_m_source_file>
../3k3h_ligand.sdf

> <i_m_source_file_index>
1

> <s_epik_input>
W0NIM11jMVtjSF1bY0hdW2NIXVtjSF1jMS1uMm5bY0hdYyhjMjMpYyg9TyluYyhbbkhdMylbQ0gyXVtDQEhdKFtDSDNdKUMoRikoRilG

> <s_epik_cmdline>
J2VwaWtfYXBwJywgJy1pbWFlJywgJ2xpZ2FuZF9wcm8ubWFlJywgJy1vbWFlJywgJ2xpZ2FuZF9wcmVwLm1hZScsICctbXMnLCAnMScsICctcGgnLCAnNycsICctcGh0JywgJzAuNScsICctbnQn

> <r_lp_tautomer_probability>
1

> <r_epik_Ionization_Penalty>
  0.0024

> <r_epik_Ionization_Penalty_Charging>
  0.0024

> <r_epik_Ionization_Penalty_Neutral>
  0.0000

> <r_epik_State_Penalty>
 -0.0000

> <r_epik_Charging_Adjusted_Penalty>
0.00236636817021033

> <i_epik_Tot_Q>
0

> <i_epik_Tot_abs_Q>
0

$$$$
