3k3i_ligand
                    3D
 Schrodinger Suite 2020-3.
 38 41  0  0  1  0            999 V2000
    2.1460    3.7520  -17.7100 N   0  0  1  0  0  0
   -0.0120    2.8810  -15.1770 N   0  0  0  0  0  0
    1.1940    3.3600  -15.5430 C   0  0  0  0  0  0
    3.9100    2.1980  -18.5350 C   0  0  0  0  0  0
    4.2510    1.9190  -17.2070 C   0  0  0  0  0  0
    4.7380    1.7160  -19.5770 C   0  0  0  0  0  0
    5.3770    1.1660  -16.8800 C   0  0  0  0  0  0
    6.1810    0.6800  -17.9170 C   0  0  0  0  0  0
   -1.7960    3.5100  -13.4710 C   0  0  0  0  0  0
   -2.4340    4.5810  -12.8230 C   0  0  0  0  0  0
   -3.6500    4.3380  -12.1570 C   0  0  0  0  0  0
   -5.7690    2.7530  -11.1620 Br  0  0  0  0  0  0
   -4.1530    3.0400  -12.1540 C   0  0  0  0  0  0
   -2.3050    2.2070  -13.4210 C   0  0  0  0  0  0
   -3.4990    1.9650  -12.7420 C   0  0  0  0  0  0
   -0.4950    3.7000  -14.1860 C   0  0  0  0  0  0
    1.5330    4.4310  -14.7550 N   0  3  0  0  0  0
    0.4810    4.6520  -13.9060 C   0  0  0  0  0  0
    2.0090    2.7610  -16.6070 C   0  0  2  0  0  0
    2.6820    3.0200  -18.9030 C   0  0  0  0  0  0
    3.3840    2.4170  -16.0520 C   0  0  0  0  0  0
    5.8470    0.9450  -19.2370 C   0  0  0  0  0  0
    1.1617    4.1885  -17.9351 H   0  0  0  0  0  0
    4.5133    1.9425  -20.6193 H   0  0  0  0  0  0
    5.6261    0.9600  -15.8390 H   0  0  0  0  0  0
    7.0702    0.0929  -17.6874 H   0  0  0  0  0  0
   -1.9964    5.5792  -12.8357 H   0  0  0  0  0  0
   -4.1842    5.1456  -11.6564 H   0  0  0  0  0  0
   -1.7734    1.3895  -13.9080 H   0  0  0  0  0  0
   -3.9087    0.9572  -12.6745 H   0  0  0  0  0  0
    0.3116    5.3970  -13.1146 H   0  0  0  0  0  0
    1.5040    1.8582  -16.9809 H   0  0  0  0  0  0
    1.9093    2.3423  -19.2950 H   0  0  0  0  0  0
    2.9636    3.7443  -19.6815 H   0  0  0  0  0  0
    3.2988    1.6276  -15.2907 H   0  0  0  0  0  0
    3.8463    3.3093  -15.6047 H   0  0  0  0  0  0
    6.4713    0.5375  -20.0322 H   0  0  0  0  0  0
    2.5057    4.9267  -14.8894 H   0  0  0  0  0  0
  1 19  1  0  0  0
  1 20  1  0  0  0
  1 23  1  0  0  0
  2  3  2  0  0  0
  2 16  1  0  0  0
  3 17  1  0  0  0
  3 19  1  0  0  0
  4  5  2  0  0  0
  4  6  1  0  0  0
  4 20  1  0  0  0
  5  7  1  0  0  0
  5 21  1  0  0  0
  6 22  2  0  0  0
  6 24  1  0  0  0
  7  8  2  0  0  0
  7 25  1  0  0  0
  8 22  1  0  0  0
  8 26  1  0  0  0
  9 10  2  0  0  0
  9 14  1  0  0  0
  9 16  1  0  0  0
 10 11  1  0  0  0
 10 27  1  0  0  0
 11 13  2  0  0  0
 11 28  1  0  0  0
 12 13  1  0  0  0
 13 15  1  0  0  0
 14 15  2  0  0  0
 14 29  1  0  0  0
 15 30  1  0  0  0
 16 18  2  0  0  0
 17 18  1  0  0  0
 17 38  1  0  0  0
 18 31  1  0  0  0
 19 21  1  0  0  0
 19 32  1  0  0  0
 20 33  1  0  0  0
 20 34  1  0  0  0
 21 35  1  0  0  0
 21 36  1  0  0  0
 22 37  1  0  0  0
M  CHG  1  17   1
M  END
> <s_m_source_file>
../3k3i_ligand.sdf

> <i_m_source_file_index>
1

> <s_epik_input>
W2NIXTFbY0hdW2NIXVtjSF1jKGMxMilbQ0gyXVtDQEhdKFtOSDIrXVtDSDJdMiljM25jKFtjSF1bbkhdMyktYzRbY0hdW2NIXWMoQnIpW2NIXVtjSF00

> <s_epik_cmdline>
J2VwaWtfYXBwJywgJy1pbWFlJywgJ2xpZ2FuZF9wcm8ubWFlJywgJy1vbWFlJywgJ2xpZ2FuZF9wcmVwLm1hZScsICctbXMnLCAnMScsICctcGgnLCAnNycsICctcGh0JywgJzAuNScsICctbnQn

> <r_lp_tautomer_probability>
1

> <r_epik_Ionization_Penalty>
  0.1994

> <r_epik_Ionization_Penalty_Charging>
  0.0880

> <r_epik_Ionization_Penalty_Neutral>
  0.1114

> <r_epik_State_Penalty>
 -0.0000

> <r_epik_Charging_Adjusted_Penalty>
0.0879766824075465

> <i_epik_Tot_Q>
1

> <i_epik_Tot_abs_Q>
1

> <s_epik_Chemistry_Notes>
This compound has an imine and may undergo hydrolysis.

$$$$
