3k48_ligand
                    3D
 Schrodinger Suite 2020-3.
255264  0  0  1  0            999 V2000
    7.9020  -20.9940   25.9280 N   0  3  0  0  0  0
    9.2030  -21.3810   25.2960 C   0  0  2  0  0  0
    9.3730  -20.6580   23.9480 C   0  0  0  0  0  0
    8.9770  -19.4910   23.8220 O   0  0  0  0  0  0
    9.2800  -22.9070   25.1290 C   0  0  0  0  0  0
    8.8990  -23.5800   26.3100 O   0  0  0  0  0  0
    9.9690  -21.3450   22.9610 N   0  0  0  0  0  0
   10.2220  -20.7920   21.6260 C   0  0  0  0  0  0
   11.6160  -20.2160   21.5920 C   0  0  0  0  0  0
   12.3420  -20.3920   20.6200 O   0  0  0  0  0  0
   11.9650  -19.5180   22.6750 N   0  0  0  0  0  0
   13.2970  -18.9910   22.9240 C   0  0  2  0  0  0
   14.1360  -20.0330   23.5950 C   0  0  0  0  0  0
   15.3140  -19.8170   23.8660 O   0  0  0  0  0  0
   13.2110  -17.7820   23.8480 C   0  0  0  0  0  0
   12.4800  -16.6860   23.2310 C   0  0  0  0  0  0
   11.2090  -16.3020   23.4930 C   0  0  0  0  0  0
   12.9560  -15.8410   22.1860 C   0  0  0  0  0  0
   10.8600  -15.2540   22.6890 N   0  0  0  0  0  0
   11.9190  -14.9490   21.8710 C   0  0  0  0  0  0
   14.1680  -15.7470   21.4880 C   0  0  0  0  0  0
   12.0530  -13.9650   20.8810 C   0  0  0  0  0  0
   14.3000  -14.7770   20.5110 C   0  0  0  0  0  0
   13.2510  -13.9000   20.2160 C   0  0  0  0  0  0
   13.5170  -21.1750   23.8850 N   0  0  0  0  0  0
   14.1920  -22.2700   24.5500 C   0  0  2  0  0  0
   14.5750  -23.3590   23.5680 C   0  0  0  0  0  0
   14.9030  -24.4650   23.9520 O   0  0  0  0  0  0
   13.3090  -22.7840   25.6780 C   0  0  0  0  0  0
   13.0600  -21.4780   26.9190 S   0  0  0  0  0  0
   14.5600  -23.0220   22.2790 N   0  0  0  0  0  0
   15.1300  -23.8720   21.2520 C   0  0  2  0  0  0
   16.6370  -24.0340   21.5210 C   0  0  0  0  0  0
   17.3100  -23.0690   21.8800 O   0  0  0  0  0  0
   14.8940  -23.2290   19.8850 C   0  0  0  0  0  0
   15.3250  -24.1090   18.7440 C   0  0  0  0  0  0
   16.5440  -24.2380   18.5170 O   0  0  0  0  0  0
   14.4450  -24.6610   18.0640 O   0  0  0  0  0  0
   17.1740  -25.2550   21.3550 N   0  0  0  0  0  0
   18.5970  -25.4700   21.6780 C   0  0  2  0  0  0
   19.5790  -24.6810   20.8240 C   0  0  0  0  0  0
   20.6890  -24.4010   21.2700 O   0  0  0  0  0  0
   18.7970  -26.9770   21.4400 C   0  0  0  0  0  0
   17.4310  -27.5590   21.4250 C   0  0  0  0  0  0
   16.5240  -26.4960   20.8960 C   0  0  0  0  0  0
   19.1800  -24.3430   19.6050 N   0  0  0  0  0  0
   20.0470  -23.6010   18.6850 C   0  0  2  0  0  0
   20.3550  -22.1700   19.1320 C   0  0  0  0  0  0
   21.3900  -21.6120   18.7680 O   0  0  0  0  0  0
   19.4330  -23.5920   17.2930 C   0  0  0  0  0  0
   19.5110  -24.9440   16.6200 C   0  0  0  0  0  0
   18.7890  -24.9440   15.3070 C   0  0  0  0  0  0
   17.3440  -24.8240   15.4790 N   0  0  0  0  0  0
   16.4860  -24.5140   14.5080 C   0  0  0  0  0  0
   16.9040  -24.2940   13.2610 N   0  0  0  0  0  0
   15.1950  -24.4190   14.7920 N   0  0  0  0  0  0
   19.4530  -21.5840   19.9170 N   0  0  0  0  0  0
   19.6340  -20.2420   20.4740 C   0  0  2  0  0  0
   19.1450  -20.1740   21.9320 C   0  0  0  0  0  0
   18.6610  -19.1430   22.3900 O   0  0  0  0  0  0
   18.9250  -19.2000   19.5850 C   0  0  0  0  0  0
   17.4880  -19.5000   19.3020 C   0  0  0  0  0  0
   16.4370  -19.2650   20.1250 C   0  0  0  0  0  0
   16.9400  -20.0820   18.1100 C   0  0  0  0  0  0
   15.2670  -19.6730   19.5370 N   0  0  0  0  0  0
   15.5440  -20.1750   18.2940 C   0  0  0  0  0  0
   17.4890  -20.5320   16.9050 C   0  0  0  0  0  0
   14.6840  -20.7080   17.3170 C   0  0  0  0  0  0
   16.6220  -21.0520   15.9200 C   0  0  0  0  0  0
   15.2420  -21.1390   16.1410 C   0  0  0  0  0  0
   19.3030  -21.2790   22.6600 N   0  0  0  0  0  0
   18.8490  -21.3810   24.0540 C   0  0  2  0  0  0
   19.5390  -20.3480   24.9030 C   0  0  0  0  0  0
   20.7430  -20.1290   24.7660 O   0  0  0  0  0  0
   19.1490  -22.7660   24.6310 C   0  0  0  0  0  0
   18.6730  -23.0180   26.0540 C   0  0  0  0  0  0
   17.3740  -23.4500   26.3090 C   0  0  0  0  0  0
   19.5340  -22.8840   27.1350 C   0  0  0  0  0  0
   16.9380  -23.7210   27.6110 C   0  0  0  0  0  0
   19.1070  -23.1450   28.4440 C   0  0  0  0  0  0
   17.8070  -23.5590   28.6780 C   0  0  0  0  0  0
   17.3780  -23.8290   29.9650 O   0  0  0  0  0  0
   18.7460  -19.7120   25.7570 N   0  0  0  0  0  0
   19.2300  -18.8130   26.7810 C   0  0  2  0  0  0
   18.5980  -19.2690   28.0890 C   0  0  0  0  0  0
   17.3790  -19.1690   28.2560 O   0  0  0  0  0  0
   18.8130  -17.3710   26.4760 C   0  0  0  0  0  0
   19.4090  -16.3770   27.4530 C   0  0  0  0  0  0
   20.0410  -16.8250   28.4250 O   0  0  0  0  0  0
   19.2630  -15.1530   27.2490 O   0  0  0  0  0  0
   19.4120  -19.7570   29.0330 N   0  0  0  0  0  0
   18.8510  -20.2030   30.3190 C   0  0  2  0  0  0
   17.9490  -19.1470   30.9740 C   0  0  0  0  0  0
   16.9010  -19.4890   31.5340 O   0  0  0  0  0  0
   20.0900  -20.4430   31.1770 C   0  0  0  0  0  0
   21.2050  -20.6580   30.2020 C   0  0  0  0  0  0
   20.8740  -19.8980   28.9700 C   0  0  0  0  0  0
   18.3840  -17.8850   30.8790 N   0  0  0  0  0  0
   17.6880  -16.6850   31.3910 C   0  0  2  0  0  0
   16.1700  -16.6860   31.1820 C   0  0  0  0  0  0
   15.4370  -16.1980   32.0330 O   0  0  0  0  0  0
   18.3010  -15.4410   30.7140 C   0  0  0  0  0  0
   17.9570  -14.1290   31.3710 C   0  0  0  0  0  0
   17.0860  -13.2340   30.7510 C   0  0  0  0  0  0
   18.5280  -13.7650   32.5790 C   0  0  0  0  0  0
   16.7720  -12.0120   31.3360 C   0  0  0  0  0  0
   18.2140  -12.5450   33.1710 C   0  0  0  0  0  0
   17.3370  -11.6690   32.5450 C   0  0  0  0  0  0
   15.7080  -17.2360   30.0570 N   0  0  0  0  0  0
   14.2820  -17.2860   29.7490 C   0  0  2  0  0  0
   13.6390  -18.6700   29.6680 C   0  0  0  0  0  0
   12.6580  -18.8350   28.9330 O   0  0  0  0  0  0
   14.0410  -16.6640   28.3850 C   0  0  0  0  0  0
   14.8080  -15.4410   28.0790 C   0  0  0  0  0  0
   14.0130  -14.7450   26.6450 S   0  0  0  0  0  0
   14.9070  -13.2030   26.5790 C   0  0  0  0  0  0
   14.1390  -19.6790   30.3870 N   0  0  0  0  0  0
   13.5300  -21.0100   30.2580 C   0  0  2  0  0  0
   12.9090  -21.5000   31.5580 C   0  0  0  0  0  0
   13.2780  -22.5220   32.1290 O   0  0  0  0  0  0
   14.4920  -21.9850   29.5790 C   0  0  0  0  0  0
   14.8780  -21.3960   27.8540 S   0  0  0  0  0  0
   11.9280  -20.6970   31.9860 N   0  0  0  0  0  0
   11.0050  -20.9380   33.1030 C   0  0  2  0  0  0
   11.4840  -20.4690   34.5120 C   0  0  0  0  0  0
   11.7880  -19.2810   34.6310 O   0  0  0  0  0  0
   10.3410  -22.3330   33.0910 C   0  0  0  0  0  0
    9.0990  -22.3600   32.2030 C   0  0  0  0  0  0
    8.1450  -21.1910   32.5100 C   0  0  0  0  0  0
    7.8080  -20.4330   31.5660 O   0  0  0  0  0  0
    7.7580  -21.0220   33.6950 O   0  0  0  0  0  0
   11.5250  -21.3290   35.5360 N   0  0  0  0  0  0
   11.8040  -20.9200   36.9350 C   0  0  2  0  0  0
   10.5380  -21.0270   37.8200 C   0  0  0  0  0  0
    9.6340  -20.1750   37.7690 O   0  0  0  0  0  0
   12.3920  -19.4860   37.0080 C   0  0  0  0  0  0
   12.9790  -19.1470   38.3440 C   0  0  0  0  0  0
   12.9720  -17.8670   38.8750 N   0  0  0  0  0  0
   13.5840  -19.9440   39.2640 C   0  0  0  0  0  0
   13.5630  -17.8950   40.0620 C   0  0  0  0  0  0
   13.9380  -19.1440   40.3200 N   0  0  0  0  0  0
   10.4211  -22.0009   38.6108 O   0  0  0  0  0  0
    7.8604  -19.9007   26.0414 H   0  0  0  0  0  0
    7.8192  -21.4687   26.9169 H   0  0  0  0  0  0
    7.0706  -21.3284   25.2900 H   0  0  0  0  0  0
   10.0101  -21.0625   25.9721 H   0  0  0  0  0  0
    8.6066  -23.2215   24.3181 H   0  0  0  0  0  0
   10.3119  -23.1972   24.8820 H   0  0  0  0  0  0
    8.9039  -24.6795   26.3425 H   0  0  0  0  0  0
   10.2728  -22.3758   23.1960 H   0  0  0  0  0  0
   10.1312  -21.5907   20.8751 H   0  0  0  0  0  0
    9.4877  -20.0016   21.4113 H   0  0  0  0  0  0
   11.1615  -19.3504   23.4073 H   0  0  0  0  0  0
   13.7191  -18.7285   21.9427 H   0  0  0  0  0  0
   12.6926  -18.0657   24.7758 H   0  0  0  0  0  0
   14.2255  -17.4307   24.0876 H   0  0  0  0  0  0
   10.5586  -16.7618   24.2370 H   0  0  0  0  0  0
   14.9911  -16.4258   21.7111 H   0  0  0  0  0  0
   11.2380  -13.2793   20.6492 H   0  0  0  0  0  0
   15.2377  -14.6945   19.9614 H   0  0  0  0  0  0
   13.3887  -13.1474   19.4396 H   0  0  0  0  0  0
   12.4583  -21.2718   23.6026 H   0  0  0  0  0  0
   15.1277  -21.8655   24.9633 H   0  0  0  0  0  0
   12.3330  -23.0866   25.2708 H   0  0  0  0  0  0
   13.7912  -23.6496   26.1558 H   0  0  0  0  0  0
   14.0955  -22.0635   22.0043 H   0  0  0  0  0  0
   14.6180  -24.8442   21.3039 H   0  0  0  0  0  0
   13.8218  -23.0176   19.7594 H   0  0  0  0  0  0
   15.4631  -22.2900   19.8183 H   0  0  0  0  0  0
   16.8846  -24.8761   17.6882 H   0  0  0  0  0  0
   18.7713  -25.1062   22.7014 H   0  0  0  0  0  0
   19.3108  -27.1315   20.4797 H   0  0  0  0  0  0
   19.4054  -27.3991   22.2534 H   0  0  0  0  0  0
   17.4178  -28.4466   20.7755 H   0  0  0  0  0  0
   17.1444  -27.8481   22.4469 H   0  0  0  0  0  0
   15.5093  -26.5556   21.3165 H   0  0  0  0  0  0
   16.4662  -26.4950   19.7975 H   0  0  0  0  0  0
   18.1671  -24.6353   19.2910 H   0  0  0  0  0  0
   20.9921  -24.1634   18.7051 H   0  0  0  0  0  0
   18.3727  -23.3075   17.3618 H   0  0  0  0  0  0
   19.9670  -22.8668   16.6614 H   0  0  0  0  0  0
   20.5646  -25.2031   16.4388 H   0  0  0  0  0  0
   19.0530  -25.7041   17.2700 H   0  0  0  0  0  0
   19.1347  -24.0953   14.6985 H   0  0  0  0  0  0
   18.9952  -25.8845   14.7751 H   0  0  0  0  0  0
   16.8917  -24.9943   16.4671 H   0  0  0  0  0  0
   17.9740  -24.3711   13.0179 H   0  0  0  0  0  0
   16.1788  -24.0354   12.4754 H   0  0  0  0  0  0
   14.8429  -24.5991   15.8185 H   0  0  0  0  0  0
   18.5398  -22.1544   20.1421 H   0  0  0  0  0  0
   20.7187  -20.0595   20.4646 H   0  0  0  0  0  0
   18.9551  -18.2168   20.0774 H   0  0  0  0  0  0
   19.4360  -19.1390   18.6128 H   0  0  0  0  0  0
   16.5112  -18.8150   21.1150 H   0  0  0  0  0  0
   18.5637  -20.4822   16.7302 H   0  0  0  0  0  0
   13.6098  -20.7762   17.4890 H   0  0  0  0  0  0
   17.0342  -21.3920   14.9700 H   0  0  0  0  0  0
   14.6004  -21.5565   15.3650 H   0  0  0  0  0  0
   19.7954  -22.1363   22.1778 H   0  0  0  0  0  0
   17.7654  -21.1934   24.0300 H   0  0  0  0  0  0
   18.6669  -23.5346   24.0091 H   0  0  0  0  0  0
   20.2364  -22.9314   24.6409 H   0  0  0  0  0  0
   16.6820  -23.5799   25.4769 H   0  0  0  0  0  0
   20.5631  -22.5693   26.9619 H   0  0  0  0  0  0
   15.9165  -24.0589   27.7854 H   0  0  0  0  0  0
   19.7984  -23.0220   29.2777 H   0  0  0  0  0  0
   16.3433  -24.1575   30.1423 H   0  0  0  0  0  0
   17.6669  -19.8995   25.6550 H   0  0  0  0  0  0
   20.3281  -18.8753   26.7960 H   0  0  0  0  0  0
   19.1508  -17.0976   25.4655 H   0  0  0  0  0  0
   17.7177  -17.2864   26.5319 H   0  0  0  0  0  0
   19.6915  -14.4233   27.9518 H   0  0  0  0  0  0
   18.2200  -21.0898   30.1595 H   0  0  0  0  0  0
   20.2719  -19.5637   31.8125 H   0  0  0  0  0  0
   19.9309  -21.3274   31.8115 H   0  0  0  0  0  0
   22.1475  -20.2936   30.6366 H   0  0  0  0  0  0
   21.2950  -21.7313   29.9788 H   0  0  0  0  0  0
   21.1507  -20.4434   28.0557 H   0  0  0  0  0  0
   21.3383  -18.9009   28.9568 H   0  0  0  0  0  0
   19.3513  -17.7826   30.3654 H   0  0  0  0  0  0
   17.8506  -16.7184   32.4784 H   0  0  0  0  0  0
   19.3980  -15.5217   30.7231 H   0  0  0  0  0  0
   17.9467  -15.3772   29.6746 H   0  0  0  0  0  0
   16.6431  -13.4969   29.7903 H   0  0  0  0  0  0
   19.2292  -14.4395   33.0703 H   0  0  0  0  0  0
   16.0822  -11.3288   30.8405 H   0  0  0  0  0  0
   18.6581  -12.2762   34.1295 H   0  0  0  0  0  0
   17.0962  -10.7125   33.0089 H   0  0  0  0  0  0
   16.4382  -17.6597   29.3518 H   0  0  0  0  0  0
   13.8699  -16.7447   30.6134 H   0  0  0  0  0  0
   14.3023  -17.3890   27.6001 H   0  0  0  0  0  0
   12.9806  -16.3874   28.2903 H   0  0  0  0  0  0
   14.7653  -14.7566   28.9391 H   0  0  0  0  0  0
   15.8554  -15.7068   27.8736 H   0  0  0  0  0  0
   14.5474  -12.6069   25.7273 H   0  0  0  0  0  0
   15.9810  -13.4068   26.4565 H   0  0  0  0  0  0
   14.7439  -12.6444   27.5124 H   0  0  0  0  0  0
   14.9908  -19.5274   31.0663 H   0  0  0  0  0  0
   12.6719  -20.8890   29.5805 H   0  0  0  0  0  0
   15.4244  -22.0442   30.1596 H   0  0  0  0  0  0
   14.0285  -22.9812   29.5272 H   0  0  0  0  0  0
   11.8514  -19.7695   31.3995 H   0  0  0  0  0  0
   10.2282  -20.2170   32.8083 H   0  0  0  0  0  0
   11.0561  -23.0762   32.7085 H   0  0  0  0  0  0
   10.0412  -22.6052   34.1137 H   0  0  0  0  0  0
    9.4012  -22.2887   31.1477 H   0  0  0  0  0  0
    8.5527  -23.3009   32.3652 H   0  0  0  0  0  0
    7.0764  -20.1936   33.9381 H   0  0  0  0  0  0
   11.3386  -22.3869   35.2990 H   0  0  0  0  0  0
   12.5573  -21.6426   37.2821 H   0  0  0  0  0  0
   13.1921  -19.3793   36.2606 H   0  0  0  0  0  0
   11.5979  -18.7532   36.8022 H   0  0  0  0  0  0
   13.8100  -21.0202   39.2894 H   0  0  0  0  0  0
   13.7157  -17.0370   40.7167 H   0  0  0  0  0  0
    9.5271  -22.0897   39.2455 H   0  0  0  0  0  0
  1  2  1  0  0  0
  1143  1  0  0  0
  1144  1  0  0  0
  1145  1  0  0  0
  2  3  1  0  0  0
  2  5  1  0  0  0
  2146  1  0  0  0
  3  4  2  0  0  0
  3  7  1  0  0  0
  5  6  1  0  0  0
  5147  1  0  0  0
  5148  1  0  0  0
  6149  1  0  0  0
  7  8  1  0  0  0
  7150  1  0  0  0
  8  9  1  0  0  0
  8151  1  0  0  0
  8152  1  0  0  0
  9 10  2  0  0  0
  9 11  1  0  0  0
 11 12  1  0  0  0
 11153  1  0  0  0
 12 13  1  0  0  0
 12 15  1  0  0  0
 12154  1  0  0  0
 13 14  2  0  0  0
 13 25  1  0  0  0
 15 16  1  0  0  0
 15155  1  0  0  0
 15156  1  0  0  0
 16 17  2  0  0  0
 16 18  1  0  0  0
 17 19  1  0  0  0
 17157  1  0  0  0
 18 20  2  0  0  0
 18 21  1  0  0  0
 19 20  1  0  0  0
 20 22  1  0  0  0
 21 23  2  0  0  0
 21158  1  0  0  0
 22 24  2  0  0  0
 22159  1  0  0  0
 23 24  1  0  0  0
 23160  1  0  0  0
 24161  1  0  0  0
 25 26  1  0  0  0
 25162  1  0  0  0
 26 27  1  0  0  0
 26 29  1  0  0  0
 26163  1  0  0  0
 27 28  2  0  0  0
 27 31  1  0  0  0
 29 30  1  0  0  0
 29164  1  0  0  0
 29165  1  0  0  0
 30122  1  0  0  0
 31 32  1  0  0  0
 31166  1  0  0  0
 32 33  1  0  0  0
 32 35  1  0  0  0
 32167  1  0  0  0
 33 34  2  0  0  0
 33 39  1  0  0  0
 35 36  1  0  0  0
 35168  1  0  0  0
 35169  1  0  0  0
 36 37  1  0  0  0
 36 38  2  0  0  0
 37170  1  0  0  0
 39 40  1  0  0  0
 39 45  1  0  0  0
 40 41  1  0  0  0
 40 43  1  0  0  0
 40171  1  0  0  0
 41 42  2  0  0  0
 41 46  1  0  0  0
 43 44  1  0  0  0
 43172  1  0  0  0
 43173  1  0  0  0
 44 45  1  0  0  0
 44174  1  0  0  0
 44175  1  0  0  0
 45176  1  0  0  0
 45177  1  0  0  0
 46 47  1  0  0  0
 46178  1  0  0  0
 47 48  1  0  0  0
 47 50  1  0  0  0
 47179  1  0  0  0
 48 49  2  0  0  0
 48 57  1  0  0  0
 50 51  1  0  0  0
 50180  1  0  0  0
 50181  1  0  0  0
 51 52  1  0  0  0
 51182  1  0  0  0
 51183  1  0  0  0
 52 53  1  0  0  0
 52184  1  0  0  0
 52185  1  0  0  0
 53 54  1  0  0  0
 53186  1  0  0  0
 54 55  1  0  0  0
 54 56  2  0  0  0
 55187  1  0  0  0
 55188  1  0  0  0
 56189  1  0  0  0
 57 58  1  0  0  0
 57190  1  0  0  0
 58 59  1  0  0  0
 58 61  1  0  0  0
 58191  1  0  0  0
 59 60  2  0  0  0
 59 71  1  0  0  0
 61 62  1  0  0  0
 61192  1  0  0  0
 61193  1  0  0  0
 62 63  2  0  0  0
 62 64  1  0  0  0
 63 65  1  0  0  0
 63194  1  0  0  0
 64 66  2  0  0  0
 64 67  1  0  0  0
 65 66  1  0  0  0
 66 68  1  0  0  0
 67 69  2  0  0  0
 67195  1  0  0  0
 68 70  2  0  0  0
 68196  1  0  0  0
 69 70  1  0  0  0
 69197  1  0  0  0
 70198  1  0  0  0
 71 72  1  0  0  0
 71199  1  0  0  0
 72 73  1  0  0  0
 72 75  1  0  0  0
 72200  1  0  0  0
 73 74  2  0  0  0
 73 83  1  0  0  0
 75 76  1  0  0  0
 75201  1  0  0  0
 75202  1  0  0  0
 76 77  2  0  0  0
 76 78  1  0  0  0
 77 79  1  0  0  0
 77203  1  0  0  0
 78 80  2  0  0  0
 78204  1  0  0  0
 79 81  2  0  0  0
 79205  1  0  0  0
 80 81  1  0  0  0
 80206  1  0  0  0
 81 82  1  0  0  0
 82207  1  0  0  0
 83 84  1  0  0  0
 83208  1  0  0  0
 84 85  1  0  0  0
 84 87  1  0  0  0
 84209  1  0  0  0
 85 86  2  0  0  0
 85 91  1  0  0  0
 87 88  1  0  0  0
 87210  1  0  0  0
 87211  1  0  0  0
 88 89  2  0  0  0
 88 90  1  0  0  0
 90212  1  0  0  0
 91 92  1  0  0  0
 91 97  1  0  0  0
 92 93  1  0  0  0
 92 95  1  0  0  0
 92213  1  0  0  0
 93 94  2  0  0  0
 93 98  1  0  0  0
 95 96  1  0  0  0
 95214  1  0  0  0
 95215  1  0  0  0
 96 97  1  0  0  0
 96216  1  0  0  0
 96217  1  0  0  0
 97218  1  0  0  0
 97219  1  0  0  0
 98 99  1  0  0  0
 98220  1  0  0  0
 99100  1  0  0  0
 99102  1  0  0  0
 99221  1  0  0  0
100101  2  0  0  0
100109  1  0  0  0
102103  1  0  0  0
102222  1  0  0  0
102223  1  0  0  0
103104  2  0  0  0
103105  1  0  0  0
104106  1  0  0  0
104224  1  0  0  0
105107  2  0  0  0
105225  1  0  0  0
106108  2  0  0  0
106226  1  0  0  0
107108  1  0  0  0
107227  1  0  0  0
108228  1  0  0  0
109110  1  0  0  0
109229  1  0  0  0
110111  1  0  0  0
110113  1  0  0  0
110230  1  0  0  0
111112  2  0  0  0
111117  1  0  0  0
113114  1  0  0  0
113231  1  0  0  0
113232  1  0  0  0
114115  1  0  0  0
114233  1  0  0  0
114234  1  0  0  0
115116  1  0  0  0
116235  1  0  0  0
116236  1  0  0  0
116237  1  0  0  0
117118  1  0  0  0
117238  1  0  0  0
118119  1  0  0  0
118121  1  0  0  0
118239  1  0  0  0
119120  2  0  0  0
119123  1  0  0  0
121122  1  0  0  0
121240  1  0  0  0
121241  1  0  0  0
123124  1  0  0  0
123242  1  0  0  0
124125  1  0  0  0
124127  1  0  0  0
124243  1  0  0  0
125126  2  0  0  0
125132  1  0  0  0
127128  1  0  0  0
127244  1  0  0  0
127245  1  0  0  0
128129  1  0  0  0
128246  1  0  0  0
128247  1  0  0  0
129130  2  0  0  0
129131  1  0  0  0
131248  1  0  0  0
132133  1  0  0  0
132249  1  0  0  0
133134  1  0  0  0
133136  1  0  0  0
133250  1  0  0  0
134135  2  0  0  0
134142  1  0  0  0
136137  1  0  0  0
136251  1  0  0  0
136252  1  0  0  0
137138  2  0  0  0
137139  1  0  0  0
138140  1  0  0  0
139141  2  0  0  0
139253  1  0  0  0
140141  1  0  0  0
140254  1  0  0  0
142255  1  0  0  0
M  CHG  1   1   1
M  END
> <s_m_source_file>
../3k48_ligand.sdf

> <i_m_source_file_index>
1

> <s_epik_input>
W2NIXTFbY0hdW2NIXVtjSF1jKGMxMilbbkhdW2NIXWMyW0NIMl1bQ0BIXShbTkhdQyg9TylbQ0gyXVtOSF1DKD1PKVtDQEBIXShbTkgzK10pW0NIMl1bT0hdKUMoPU8pW05IXVtDQEhdKEMoPU8pW05IXVtDQEhdKEMzPU8pW0NIMl1DKD1PKVtPSF0pW0NIMl1TU1tDSDJdW0NAQEhdKEMoPU8pW05IXVtDQEBIXShbQ0gyXVtDSDJdQyg9TylbT0hdKUMoPU8pW05IXVtDQEhdKEMoPU8pW09IXSlbQ0gyXUM0PU5bQ0gyXU49W0NIXTQpW05IXUMoPU8pW0NASF0oW0NIMl1bQ0gyXVNbQ0gzXSlbTkhdQyg9TylbQ0BIXShbQ0gyXWM1W2NIXVtjSF1bY0hdW2NIXVtjSF01KVtOSF1DKD1PKVtDQEhdKFtDSDJdW0NIMl1bQ0gyXTYpTjZDKD1PKVtDQEhdKFtDSDJdQyg9TylbT0hdKVtOSF1DKD1PKVtDQEhdKFtDSDJdYzdbY0hdW2NIXWMoW09IXSlbY0hdW2NIXTcpW05IXUMoPU8pW0NAQEhdKFtOSF1DKD1PKVtDQEBIXShbTkhdQyg9TylbQ0BASF0oTjM4KVtDSDJdW0NIMl1bQ0gyXTgpW0NIMl1bQ0gyXVtDSDJdW05IXS9DKFtOSDJdKT1OXFtIXSlbQ0gyXWM5W2NIXVtuSF1jKGMxOSlbY0hdW2NIXVtjSF1bY0hdMQ==

> <s_epik_cmdline>
J2VwaWtfYXBwJywgJy1pbWFlJywgJ2xpZ2FuZF9wcm8ubWFlJywgJy1vbWFlJywgJ2xpZ2FuZF9wcmVwLm1hZScsICctbXMnLCAnMScsICctcGgnLCAnNycsICctcGh0JywgJzAuNScsICctbnQn

> <s_epik_pKa_notes>
Molecule size exceeds maximum supported for generating protonation states

> <s_epik_Chemistry_Notes>
This compound has an imine and may undergo hydrolysis.

$$$$
