3k4d_ligand
                    3D
 Schrodinger Suite 2020-3.
 21 21  0  0  1  0            999 V2000
  -21.5210  -27.9660   -1.1480 C   0  0  0  0  0  0
  -23.4170  -26.4870   -0.8390 N   0  0  0  0  0  0
  -22.0500  -28.7430   -1.9020 O   0  0  0  0  0  0
  -22.4040  -27.2600   -0.1290 C   0  0  1  0  0  0
  -23.0800  -28.2150    0.8280 C   0  0  2  0  0  0
  -24.0610  -27.4450    1.7120 C   0  0  1  0  0  0
  -22.0970  -28.8040    1.6680 O   0  0  0  0  0  0
  -24.6680  -26.2480   -0.3950 C   0  0  0  0  0  0
  -25.8800  -25.9180    1.6650 O   0  0  0  0  0  0
  -25.3680  -25.4940   -1.0420 O   0  0  0  0  0  0
  -25.1990  -26.8900    0.8840 C   0  0  2  0  0  0
  -24.6420  -28.3880    2.5970 O   0  0  0  0  0  0
  -20.3220  -27.7470   -1.1610 O   0  5  0  0  0  0
  -23.1847  -26.0450   -1.8191 H   0  0  0  0  0  0
  -21.7824  -26.5751    0.4664 H   0  0  0  0  0  0
  -23.5677  -29.0322    0.2763 H   0  0  0  0  0  0
  -23.5546  -26.6504    2.2795 H   0  0  0  0  0  0
  -21.2889  -29.4077    1.2293 H   0  0  0  0  0  0
  -26.3311  -26.2030    2.6269 H   0  0  0  0  0  0
  -25.9306  -27.6742    0.6396 H   0  0  0  0  0  0
  -24.0088  -28.9346    3.3113 H   0  0  0  0  0  0
  1  3  2  0  0  0
  1  4  1  0  0  0
  1 13  1  0  0  0
  2  4  1  0  0  0
  2  8  1  0  0  0
  2 14  1  0  0  0
  4  5  1  0  0  0
  4 15  1  0  0  0
  5  6  1  0  0  0
  5  7  1  0  0  0
  5 16  1  0  0  0
  6 11  1  0  0  0
  6 12  1  0  0  0
  6 17  1  0  0  0
  7 18  1  0  0  0
  8 10  2  0  0  0
  8 11  1  0  0  0
  9 11  1  0  0  0
  9 19  1  0  0  0
 11 20  1  0  0  0
 12 21  1  0  0  0
M  CHG  1  13  -1
M  END
> <s_m_source_file>
../3k4d_ligand.sdf

> <i_m_source_file_index>
1

> <s_epik_input>
Tz1DKFtPSF0pW0NASF0xW05IXUMoPU8pW0NASF0oW09IXSlbQ0BASF0oW09IXSlbQ0BASF0xW09IXQ==

> <s_epik_cmdline>
J2VwaWtfYXBwJywgJy1pbWFlJywgJ2xpZ2FuZF9wcm8ubWFlJywgJy1vbWFlJywgJ2xpZ2FuZF9wcmVwLm1hZScsICctbXMnLCAnMScsICctcGgnLCAnNycsICctcGh0JywgJzAuNScsICctbnQn

> <r_lp_tautomer_probability>
1

> <r_epik_Ionization_Penalty>
  0.0001

> <r_epik_Ionization_Penalty_Charging>
  0.0001

> <r_epik_Ionization_Penalty_Neutral>
  0.0000

> <r_epik_State_Penalty>
 -0.0000

> <r_epik_Charging_Adjusted_Penalty>
7.95078936310172e-05

> <i_epik_Tot_Q>
-1

> <i_epik_Tot_abs_Q>
1

$$$$
