3k4q_ligand
                    3D
 Schrodinger Suite 2020-3.
 42 42  0  0  1  0            999 V2000
   -5.4270   11.5670   35.3950 C   0  0  2  0  0  0
   -6.2860   12.4390   35.9960 O   0  0  0  0  0  0
   -6.3460   13.8460   35.4360 S   0  0  0  0  0  0
   -6.2250   10.5000   34.6730 C   0  0  1  0  0  0
   -5.3510   14.6690   36.1360 O   0  0  0  0  0  0
   -8.6190   10.3110   35.6880 S   0  0  0  0  0  0
   -5.2410    9.5270   34.0600 C   0  0  1  0  0  0
   -7.7320   14.1040   35.8650 O   0  5  0  0  0  0
   -6.3230    8.3920   32.1870 S   0  0  0  0  0  0
   -3.9130    9.3270   34.7570 C   0  0  2  0  0  0
   -6.2920   14.0400   33.9770 O   0  0  0  0  0  0
   -2.3910    7.6710   33.6890 S   0  0  0  0  0  0
   -3.3430   10.6370   35.3290 C   0  0  1  0  0  0
   -0.8480   11.2490   35.2760 S   0  0  0  0  0  0
   -4.3470   11.1260   36.3570 C   0  0  1  0  0  0
   -3.5770   12.4480   38.5140 S   0  0  0  0  0  0
   -7.2150    9.7940   35.3990 O   0  0  0  0  0  0
   -5.8900    8.3120   33.6510 O   0  0  0  0  0  0
   -3.1400    8.9750   33.6450 O   0  0  0  0  0  0
   -2.0420   10.5110   35.8820 O   0  0  0  0  0  0
   -3.8010   12.2710   37.0000 O   0  0  0  0  0  0
   -8.5550   11.0220   36.9940 O   0  5  0  0  0  0
   -6.8450    7.0600   31.8270 O   0  0  0  0  0  0
   -2.1770    7.0670   32.3710 O   0  0  0  0  0  0
   -0.8470   11.0760   33.8220 O   0  0  0  0  0  0
   -2.6660   11.3620   38.9410 O   0  5  0  0  0  0
   -9.1090   11.2830   34.7160 O   0  0  0  0  0  0
   -5.1220    8.8340   31.4090 O   0  5  0  0  0  0
   -3.0370    6.7150   34.5830 O   0  0  0  0  0  0
   -0.9350   12.6770   35.6060 O   0  0  0  0  0  0
   -4.8520   12.4100   39.2470 O   0  0  0  0  0  0
   -9.4470    9.1240   35.8710 O   0  0  0  0  0  0
   -7.2760    9.4620   31.9380 O   0  0  0  0  0  0
   -1.0740    8.1920   34.1620 O   0  5  0  0  0  0
    0.3930   10.6750   35.8290 O   0  5  0  0  0  0
   -2.9610   13.7750   38.6620 O   0  0  0  0  0  0
   -4.8989   12.1491   34.6253 H   0  0  0  0  0  0
   -6.8934   11.0165   33.9683 H   0  0  0  0  0  0
   -4.9211    9.9905   33.1151 H   0  0  0  0  0  0
   -3.9227    8.5753   35.5600 H   0  0  0  0  0  0
   -3.1301   11.3755   34.5421 H   0  0  0  0  0  0
   -4.6343   10.4555   37.1803 H   0  0  0  0  0  0
  1  2  1  0  0  0
  1  4  1  0  0  0
  1 15  1  0  0  0
  1 37  1  0  0  0
  2  3  1  0  0  0
  3  5  2  0  0  0
  3  8  1  0  0  0
  3 11  2  0  0  0
  4  7  1  0  0  0
  4 17  1  0  0  0
  4 38  1  0  0  0
  6 17  1  0  0  0
  6 22  1  0  0  0
  6 27  2  0  0  0
  6 32  2  0  0  0
  7 10  1  0  0  0
  7 18  1  0  0  0
  7 39  1  0  0  0
  9 18  1  0  0  0
  9 23  2  0  0  0
  9 28  1  0  0  0
  9 33  2  0  0  0
 10 13  1  0  0  0
 10 19  1  0  0  0
 10 40  1  0  0  0
 12 19  1  0  0  0
 12 24  2  0  0  0
 12 29  2  0  0  0
 12 34  1  0  0  0
 13 15  1  0  0  0
 13 20  1  0  0  0
 13 41  1  0  0  0
 14 20  1  0  0  0
 14 25  2  0  0  0
 14 30  2  0  0  0
 14 35  1  0  0  0
 15 21  1  0  0  0
 15 42  1  0  0  0
 16 21  1  0  0  0
 16 26  1  0  0  0
 16 31  2  0  0  0
 16 36  2  0  0  0
M  CHG  6   8  -1  22  -1  26  -1  28  -1  34  -1  35  -1
M  END
> <s_m_source_file>
../3k4q_ligand.sdf

> <i_m_source_file_index>
1

> <s_epik_input>
Tz1TKD1PKShbT0hdKU9bQ0BASF0xW0NASF0oT1MoPU8pKD1PKVtPSF0pW0NASF0oT1MoPU8pKD1PKVtPSF0pW0NAQEhdKE9TKD1PKSg9TylbT0hdKVtDQEhdKE9TKD1PKSg9TylbT0hdKVtDQEhdMU9TKD1PKSg9TylbT0hd

> <s_epik_cmdline>
J2VwaWtfYXBwJywgJy1pbWFlJywgJ2xpZ2FuZF9wcm8ubWFlJywgJy1vbWFlJywgJ2xpZ2FuZF9wcmVwLm1hZScsICctbXMnLCAnMScsICctcGgnLCAnNycsICctcGh0JywgJzAuNScsICctbnQn

> <r_lp_tautomer_probability>
1

> <r_epik_Ionization_Penalty>
  0.0000

> <r_epik_Ionization_Penalty_Charging>
  0.0000

> <r_epik_Ionization_Penalty_Neutral>
  0.0000

> <r_epik_State_Penalty>
 -0.0000

> <r_epik_Charging_Adjusted_Penalty>
5.91707911737939e-10

> <i_epik_Tot_Q>
-6

> <i_epik_Tot_abs_Q>
6

$$$$
