3k54_ligand
                    3D
 Schrodinger Suite 2020-3.
 59 62  0  0  1  0            999 V2000
  -14.2950   -4.4390    1.1320 C   0  0  0  0  0  0
  -15.4330   -4.5540    1.9400 C   0  0  0  0  0  0
  -15.5720   -4.5200    3.4190 C   0  0  0  0  0  0
  -20.4830   -6.3450   -7.3550 N   0  0  0  0  0  0
  -14.5870   -4.1280    8.4070 C   0  0  0  0  0  0
  -14.3140   -5.3180    7.7380 C   0  0  0  0  0  0
  -14.2940   -5.3970    6.3330 C   0  0  0  0  0  0
  -13.9970   -6.7560    5.7400 C   0  0  0  0  0  0
  -17.6210   -4.9810   -2.0970 C   0  0  0  0  0  0
  -17.9880   -5.0860   -3.4200 C   0  0  0  0  0  0
  -19.3460   -5.2400   -3.6950 C   0  0  0  0  0  0
  -19.9060   -5.1660   -1.4500 C   0  0  0  0  0  0
  -20.9560   -5.2090   -0.3630 C   0  0  0  0  0  0
  -18.9710   -4.9140   -6.0670 C   0  0  0  0  0  0
  -21.2120   -5.7860   -5.1200 C   0  0  0  0  0  0
  -20.7360   -7.2570   -8.4670 C   0  0  0  0  0  0
  -21.9360   -8.0950   -8.0500 C   0  0  0  0  0  0
  -16.2990   -4.8520   -1.7600 N   0  0  0  0  0  0
  -15.8850   -4.7340   -0.4750 C   0  0  0  0  0  0
  -14.5830   -4.5440   -0.2000 N   0  0  0  0  0  0
  -16.8940   -4.8120    0.9770 S   0  0  0  0  0  0
  -14.4840   -4.2780    4.1730 N   0  0  0  0  0  0
  -14.5250   -4.2730    5.5470 C   0  0  0  0  0  0
  -14.7930   -3.0770    6.2340 C   0  0  0  0  0  0
  -14.8230   -2.9920    7.6340 C   0  0  0  0  0  0
  -15.0970   -1.5690    5.3200 Cl  0  0  0  0  0  0
  -16.6920   -4.6860    3.8680 O   0  0  0  0  0  0
  -20.2880   -5.2750   -2.7360 N   0  0  0  0  0  0
  -18.5860   -5.0230   -1.1540 N   0  0  0  0  0  0
  -19.8170   -5.3260   -4.9730 N   0  0  0  0  0  0
  -19.0790   -6.0530   -7.0520 C   0  0  0  0  0  0
  -21.5930   -5.7880   -6.5920 C   0  0  0  0  0  0
  -23.1060   -7.4510   -8.5910 O   0  0  0  0  0  0
  -13.2895   -4.2828    1.5226 H   0  0  0  0  0  0
  -14.6152   -4.0860    9.4958 H   0  0  0  0  0  0
  -14.1094   -6.2163    8.3204 H   0  0  0  0  0  0
  -13.8505   -7.4855    6.5502 H   0  0  0  0  0  0
  -13.0839   -6.6980    5.1293 H   0  0  0  0  0  0
  -14.8405   -7.0731    5.1092 H   0  0  0  0  0  0
  -17.2475   -5.0502   -4.2191 H   0  0  0  0  0  0
  -21.9502   -5.3291   -0.8181 H   0  0  0  0  0  0
  -20.9268   -4.2718    0.2122 H   0  0  0  0  0  0
  -20.7548   -6.0573    0.3077 H   0  0  0  0  0  0
  -19.3447   -3.9666   -6.4828 H   0  0  0  0  0  0
  -17.9425   -4.7742   -5.7027 H   0  0  0  0  0  0
  -21.3068   -6.8045   -4.7155 H   0  0  0  0  0  0
  -21.8814   -5.1089   -4.5691 H   0  0  0  0  0  0
  -20.9511   -6.6761   -9.3760 H   0  0  0  0  0  0
  -19.8490   -7.8855   -8.6349 H   0  0  0  0  0  0
  -21.8303   -9.1129   -8.4534 H   0  0  0  0  0  0
  -21.9886   -8.1393   -6.9522 H   0  0  0  0  0  0
  -15.5295   -4.8415   -2.5460 H   0  0  0  0  0  0
  -13.5159   -4.0743    3.6922 H   0  0  0  0  0  0
  -15.0309   -2.0375    8.1175 H   0  0  0  0  0  0
  -18.6046   -6.9451   -6.6171 H   0  0  0  0  0  0
  -18.5546   -5.7732   -7.9776 H   0  0  0  0  0  0
  -21.7913   -4.7603   -6.9303 H   0  0  0  0  0  0
  -22.4906   -6.4047   -6.7471 H   0  0  0  0  0  0
  -24.1023   -7.8831   -8.4157 H   0  0  0  0  0  0
  1  2  2  0  0  0
  1 20  1  0  0  0
  1 34  1  0  0  0
  2  3  1  0  0  0
  2 21  1  0  0  0
  3 22  1  0  0  0
  3 27  2  0  0  0
  4 16  1  0  0  0
  4 31  1  0  0  0
  4 32  1  0  0  0
  5  6  2  0  0  0
  5 25  1  0  0  0
  5 35  1  0  0  0
  6  7  1  0  0  0
  6 36  1  0  0  0
  7  8  1  0  0  0
  7 23  2  0  0  0
  8 37  1  0  0  0
  8 38  1  0  0  0
  8 39  1  0  0  0
  9 10  2  0  0  0
  9 18  1  0  0  0
  9 29  1  0  0  0
 10 11  1  0  0  0
 10 40  1  0  0  0
 11 28  2  0  0  0
 11 30  1  0  0  0
 12 13  1  0  0  0
 12 28  1  0  0  0
 12 29  2  0  0  0
 13 41  1  0  0  0
 13 42  1  0  0  0
 13 43  1  0  0  0
 14 30  1  0  0  0
 14 31  1  0  0  0
 14 44  1  0  0  0
 14 45  1  0  0  0
 15 30  1  0  0  0
 15 32  1  0  0  0
 15 46  1  0  0  0
 15 47  1  0  0  0
 16 17  1  0  0  0
 16 48  1  0  0  0
 16 49  1  0  0  0
 17 33  1  0  0  0
 17 50  1  0  0  0
 17 51  1  0  0  0
 18 19  1  0  0  0
 18 52  1  0  0  0
 19 20  2  0  0  0
 19 21  1  0  0  0
 22 23  1  0  0  0
 22 53  1  0  0  0
 23 24  1  0  0  0
 24 25  2  0  0  0
 24 26  1  0  0  0
 25 54  1  0  0  0
 31 55  1  0  0  0
 31 56  1  0  0  0
 32 57  1  0  0  0
 32 58  1  0  0  0
 33 59  1  0  0  0
M  END
> <s_m_source_file>
../3k54_ligand.sdf

> <i_m_source_file_index>
1

> <s_epik_input>
W0NIM11jMVtjSF1bY0hdW2NIXWMoQ2wpYzFbTkhdQyg9TyljMltjSF1uYyhzMilbTkhdYzNbY0hdYyhuYyhuMylbQ0gzXSlOKFtDSDJdW0NIMl00KVtDSDJdW0NIMl1bTkgrXTRbQ0gyXVtDSDJdW09IXQ==

> <s_epik_cmdline>
J2VwaWtfYXBwJywgJy1pbWFlJywgJ2xpZ2FuZF9wcm8ubWFlJywgJy1vbWFlJywgJ2xpZ2FuZF9wcmVwLm1hZScsICctbXMnLCAnMScsICctcGgnLCAnNycsICctcGh0JywgJzAuNScsICctbnQn

> <r_lp_tautomer_probability>
0.999999999985434

> <r_epik_Ionization_Penalty>
  0.5787

> <r_epik_Ionization_Penalty_Charging>
  0.0000

> <r_epik_Ionization_Penalty_Neutral>
  0.5787

> <r_epik_State_Penalty>
  0.4045

> <r_epik_Charging_Adjusted_Penalty>
0.404525148573214

> <i_epik_Tot_Q>
0

> <i_epik_Tot_abs_Q>
0

$$$$
