3k5d_ligand
                    3D
 Schrodinger Suite 2020-3.
 89 88  0  0  1  0            999 V2000
    3.2040    7.3270   28.8540 C   0  0  0  0  0  0
    3.9620    7.4530   29.8440 O   0  0  0  0  0  0
    3.8210    7.1200   27.5150 C   0  0  0  0  0  0
    1.8540    7.3650   28.9110 N   0  0  0  0  0  0
    1.1910    7.6010   30.1850 C   0  0  2  0  0  0
    1.0610    6.3140   30.9770 C   0  0  0  0  0  0
    0.8770    5.2740   30.3610 O   0  0  0  0  0  0
   -0.1120    8.4700   30.1280 C   0  0  0  0  0  0
   -1.3520    7.8840   29.3890 C   0  0  0  0  0  0
   -1.0350    7.6270   27.8940 C   0  0  0  0  0  0
   -2.5450    8.8520   29.4920 C   0  0  0  0  0  0
    1.1600    6.3920   32.3300 N   0  0  0  0  0  0
    1.0580    5.2230   33.1830 C   0  0  2  0  0  0
   -0.0620    5.4590   34.1780 C   0  0  0  0  0  0
    0.1940    5.6830   35.3600 O   0  0  0  0  0  0
    2.3990    4.8730   33.9040 C   0  0  0  0  0  0
    3.4650    4.3590   32.8960 C   0  0  0  0  0  0
    5.0840    4.3490   33.7130 S   0  0  0  0  0  0
    5.6870    6.0000   33.2390 C   0  0  0  0  0  0
   -1.3400    5.4090   33.7120 N   0  0  0  0  0  0
   -2.5110    5.6340   34.5730 C   0  0  2  0  0  0
   -3.1970    4.2820   34.9500 C   0  0  1  0  0  0
   -3.9420    3.7700   33.8320 O   0  0  0  0  0  0
   -3.4780    6.6650   33.9230 C   0  0  0  0  0  0
   -2.8680    8.0660   33.6110 C   0  0  0  0  0  0
   -3.9420    8.9100   32.8690 C   0  0  0  0  0  0
   -2.4310    8.8390   34.8860 C   0  0  0  0  0  0
   -2.3250    3.1700   35.6230 C   0  0  0  0  0  0
   -3.0600    2.2520   36.6480 C   0  0  1  0  0  0
   -2.3110    0.8990   36.7820 C   0  0  0  0  0  0
   -3.1640    2.8470   38.0420 C   0  0  0  0  0  0
   -2.3070    3.6260   38.4360 O   0  0  0  0  0  0
   -4.4570    2.9680   40.1460 C   0  0  0  0  0  0
   -4.2310    2.4700   38.7950 N   0  0  0  0  0  0
   -5.8970    2.6680   40.6250 C   0  0  0  0  0  0
   -6.0620    2.8680   42.1560 C   0  0  0  0  0  0
   -6.0320    4.3670   42.5490 C   0  0  0  0  0  0
    4.9165    7.1101   27.6137 H   0  0  0  0  0  0
    3.5208    7.9372   26.8427 H   0  0  0  0  0  0
    3.4816    6.1598   27.0994 H   0  0  0  0  0  0
    1.2567    7.2183   27.9990 H   0  0  0  0  0  0
    1.9307    8.2293   30.7028 H   0  0  0  0  0  0
   -0.4606    8.6757   31.1508 H   0  0  0  0  0  0
    0.1026    9.4196   29.6159 H   0  0  0  0  0  0
   -1.6195    6.9310   29.8688 H   0  0  0  0  0  0
   -0.1831    6.9358   27.8134 H   0  0  0  0  0  0
   -0.7825    8.5788   27.4038 H   0  0  0  0  0  0
   -1.9144    7.1840   27.4036 H   0  0  0  0  0  0
   -2.7753    9.0387   30.5513 H   0  0  0  0  0  0
   -3.4219    8.4070   28.9990 H   0  0  0  0  0  0
   -2.2901    9.8018   28.9992 H   0  0  0  0  0  0
    1.3231    7.3848   32.7747 H   0  0  0  0  0  0
    0.8044    4.3945   32.5053 H   0  0  0  0  0  0
    2.7928    5.7713   34.4020 H   0  0  0  0  0  0
    2.2186    4.0879   34.6530 H   0  0  0  0  0  0
    3.2037    3.3403   32.5736 H   0  0  0  0  0  0
    3.4931    5.0247   32.0207 H   0  0  0  0  0  0
    6.6881    6.1611   33.6655 H   0  0  0  0  0  0
    4.9973    6.7663   33.6226 H   0  0  0  0  0  0
    5.7399    6.0701   32.1425 H   0  0  0  0  0  0
   -1.4774    5.1894   32.6429 H   0  0  0  0  0  0
   -2.1176    6.0796   35.4986 H   0  0  0  0  0  0
   -3.9500    4.5339   35.7113 H   0  0  0  0  0  0
   -4.6017    4.4378   33.2585 H   0  0  0  0  0  0
   -3.8450    6.2696   32.9644 H   0  0  0  0  0  0
   -4.3295    6.8439   34.5960 H   0  0  0  0  0  0
   -1.9666    7.9099   33.0002 H   0  0  0  0  0  0
   -4.2642    8.3778   31.9618 H   0  0  0  0  0  0
   -3.5143    9.8843   32.5901 H   0  0  0  0  0  0
   -4.8075    9.0651   33.5300 H   0  0  0  0  0  0
   -1.6698    8.2561   35.4253 H   0  0  0  0  0  0
   -3.3035    8.9944   35.5376 H   0  0  0  0  0  0
   -2.0104    9.8137   34.5977 H   0  0  0  0  0  0
   -1.9217    2.5013   34.8483 H   0  0  0  0  0  0
   -1.4945    3.6375   36.1723 H   0  0  0  0  0  0
   -4.0874    2.1329   36.2735 H   0  0  0  0  0  0
   -2.2144    0.4336   35.7900 H   0  0  0  0  0  0
   -2.8775    0.2306   37.4470 H   0  0  0  0  0  0
   -1.3103    1.0741   37.2039 H   0  0  0  0  0  0
   -3.7514    2.4847   40.8377 H   0  0  0  0  0  0
   -4.3024    4.0569   40.1661 H   0  0  0  0  0  0
   -4.9396    1.7590   38.3452 H   0  0  0  0  0  0
   -6.6009    3.3424   40.1154 H   0  0  0  0  0  0
   -6.1523    1.6246   40.3882 H   0  0  0  0  0  0
   -7.0251    2.4462   42.4792 H   0  0  0  0  0  0
   -5.2427    2.3571   42.6830 H   0  0  0  0  0  0
   -6.1517    4.4629   43.6383 H   0  0  0  0  0  0
   -6.8527    4.8955   42.0420 H   0  0  0  0  0  0
   -5.0703    4.8064   42.2457 H   0  0  0  0  0  0
  1  2  2  0  0  0
  1  3  1  0  0  0
  1  4  1  0  0  0
  3 38  1  0  0  0
  3 39  1  0  0  0
  3 40  1  0  0  0
  4  5  1  0  0  0
  4 41  1  0  0  0
  5  6  1  0  0  0
  5  8  1  0  0  0
  5 42  1  0  0  0
  6  7  2  0  0  0
  6 12  1  0  0  0
  8  9  1  0  0  0
  8 43  1  0  0  0
  8 44  1  0  0  0
  9 10  1  0  0  0
  9 11  1  0  0  0
  9 45  1  0  0  0
 10 46  1  0  0  0
 10 47  1  0  0  0
 10 48  1  0  0  0
 11 49  1  0  0  0
 11 50  1  0  0  0
 11 51  1  0  0  0
 12 13  1  0  0  0
 12 52  1  0  0  0
 13 14  1  0  0  0
 13 16  1  0  0  0
 13 53  1  0  0  0
 14 15  2  0  0  0
 14 20  1  0  0  0
 16 17  1  0  0  0
 16 54  1  0  0  0
 16 55  1  0  0  0
 17 18  1  0  0  0
 17 56  1  0  0  0
 17 57  1  0  0  0
 18 19  1  0  0  0
 19 58  1  0  0  0
 19 59  1  0  0  0
 19 60  1  0  0  0
 20 21  1  0  0  0
 20 61  1  0  0  0
 21 22  1  0  0  0
 21 24  1  0  0  0
 21 62  1  0  0  0
 22 23  1  0  0  0
 22 28  1  0  0  0
 22 63  1  0  0  0
 23 64  1  0  0  0
 24 25  1  0  0  0
 24 65  1  0  0  0
 24 66  1  0  0  0
 25 26  1  0  0  0
 25 27  1  0  0  0
 25 67  1  0  0  0
 26 68  1  0  0  0
 26 69  1  0  0  0
 26 70  1  0  0  0
 27 71  1  0  0  0
 27 72  1  0  0  0
 27 73  1  0  0  0
 28 29  1  0  0  0
 28 74  1  0  0  0
 28 75  1  0  0  0
 29 30  1  0  0  0
 29 31  1  0  0  0
 29 76  1  0  0  0
 30 77  1  0  0  0
 30 78  1  0  0  0
 30 79  1  0  0  0
 31 32  2  0  0  0
 31 34  1  0  0  0
 33 34  1  0  0  0
 33 35  1  0  0  0
 33 80  1  0  0  0
 33 81  1  0  0  0
 34 82  1  0  0  0
 35 36  1  0  0  0
 35 83  1  0  0  0
 35 84  1  0  0  0
 36 37  1  0  0  0
 36 85  1  0  0  0
 36 86  1  0  0  0
 37 87  1  0  0  0
 37 88  1  0  0  0
 37 89  1  0  0  0
M  END
> <s_m_source_file>
../3k5d_ligand.sdf

> <i_m_source_file_index>
1

> <s_epik_input>
Tz1DKFtDSDNdKVtOSF1bQ0BASF0oW0NIMl1bQ0hdKFtDSDNdKVtDSDNdKUMoPU8pW05IXVtDQEBIXShbQ0gyXVtDSDJdU1tDSDNdKUMoPU8pW05IXVtDQEBIXShbQ0gyXVtDSF0oW0NIM10pW0NIM10pW0NAQEhdKFtPSF0pW0NIMl1bQ0BASF0oW0NIM10pQyg9TylbTkhdW0NIMl1bQ0gyXVtDSDJdW0NIM10=

> <s_epik_cmdline>
J2VwaWtfYXBwJywgJy1pbWFlJywgJ2xpZ2FuZF9wcm8ubWFlJywgJy1vbWFlJywgJ2xpZ2FuZF9wcmVwLm1hZScsICctbXMnLCAnMScsICctcGgnLCAnNycsICctcGh0JywgJzAuNScsICctbnQn

> <r_lp_tautomer_probability>
1

> <r_epik_Ionization_Penalty>
  0.0000

> <r_epik_Ionization_Penalty_Charging>
  0.0000

> <r_epik_Ionization_Penalty_Neutral>
  0.0000

> <r_epik_State_Penalty>
 -0.0000

> <r_epik_Charging_Adjusted_Penalty>
0

> <i_epik_Tot_Q>
0

> <i_epik_Tot_abs_Q>
0

$$$$
