3k5f_ligand
                    3D
 Schrodinger Suite 2020-3.
 83 84  0  0  1  0            999 V2000
    5.3980   12.3450   27.3600 N   0  0  0  0  0  0
    4.4390   13.4230   27.5040 C   0  0  2  0  0  0
    4.9510   14.8010   27.0400 C   0  0  1  0  0  0
    5.9910   15.2350   27.9560 O   0  0  0  0  0  0
    5.5030   14.7330   25.6000 C   0  0  0  0  0  0
    5.4720   16.1790   25.0290 C   0  0  1  0  0  0
    6.4290   16.3060   23.8230 C   0  0  0  0  0  0
    4.0800   16.5060   24.5070 C   0  0  0  0  0  0
    3.3990   15.6480   23.9640 O   0  0  0  0  0  0
    3.6610   17.7610   24.6840 N   0  0  0  0  0  0
    2.3260   18.1390   24.1970 C   0  0  0  0  0  0
    1.9920   19.5650   24.6590 C   0  0  0  0  0  0
    0.8220   20.1520   23.8200 C   0  0  0  0  0  0
   -0.5160   19.4390   24.1580 C   0  0  0  0  0  0
    3.9200   13.5130   28.9450 C   0  0  0  0  0  0
    3.4990   12.1220   29.4440 C   0  0  0  0  0  0
    2.5630   11.3550   28.7230 C   0  0  0  0  0  0
    2.1950   10.0720   29.1780 C   0  0  0  0  0  0
    2.7570    9.5620   30.3670 C   0  0  0  0  0  0
    3.6810   10.3360   31.0900 C   0  0  0  0  0  0
    4.0530   11.6070   30.6260 C   0  0  0  0  0  0
    5.2480   11.5000   26.3220 C   0  0  0  0  0  0
    4.3640   11.6110   25.4850 O   0  0  0  0  0  0
    6.2560   10.3740   26.2340 C   0  0  1  0  0  0
    5.9140    9.3680   27.3790 C   0  0  0  0  0  0
    6.8850    8.1560   27.3990 C   0  0  2  0  0  0
    6.9590    7.4770   25.9830 C   0  0  0  0  0  0
    7.3610    8.5040   24.8940 C   0  0  0  0  0  0
    6.2940    9.6490   24.8550 C   0  0  0  0  0  0
    6.4440    7.1220   28.5230 C   0  0  0  0  0  0
    6.3920    7.8410   29.8130 N   0  0  0  0  0  0
    7.5030    8.4410   30.2950 C   0  0  0  0  0  0
    8.5850    8.3920   29.7250 O   0  0  0  0  0  0
    7.3570    9.2020   31.5980 C   0  0  0  0  0  0
    5.0450    6.5250   28.2770 C   0  0  0  0  0  0
    7.4340    5.9340   28.5790 C   0  0  0  0  0  0
    6.2168   12.2365   28.0865 H   0  0  0  0  0  0
    3.6479   13.0989   26.8118 H   0  0  0  0  0  0
    4.1490   15.5525   27.0846 H   0  0  0  0  0  0
    5.7707   15.3393   29.0287 H   0  0  0  0  0  0
    6.5325   14.3461   25.6199 H   0  0  0  0  0  0
    4.8716   14.0643   24.9965 H   0  0  0  0  0  0
    5.7539   16.8711   25.8362 H   0  0  0  0  0  0
    7.4562   16.0790   24.1445 H   0  0  0  0  0  0
    6.3867   17.3317   23.4278 H   0  0  0  0  0  0
    6.1255   15.5977   23.0380 H   0  0  0  0  0  0
    4.2956   18.5073   25.1843 H   0  0  0  0  0  0
    2.3117   18.0988   23.0978 H   0  0  0  0  0  0
    1.5776   17.4404   24.5992 H   0  0  0  0  0  0
    1.6970   19.5475   25.7186 H   0  0  0  0  0  0
    2.8765   20.2072   24.5353 H   0  0  0  0  0  0
    0.7158   21.2247   24.0392 H   0  0  0  0  0  0
    1.0342   20.0158   22.7493 H   0  0  0  0  0  0
   -1.3255   19.8722   23.5522 H   0  0  0  0  0  0
   -0.7442   19.5745   25.2255 H   0  0  0  0  0  0
   -0.4258   18.3655   23.9357 H   0  0  0  0  0  0
    4.7146   13.9046   29.5971 H   0  0  0  0  0  0
    3.0513   14.1868   28.9804 H   0  0  0  0  0  0
    2.1216   11.7547   27.8100 H   0  0  0  0  0  0
    1.4784    9.4762   28.6126 H   0  0  0  0  0  0
    2.4757    8.5712   30.7238 H   0  0  0  0  0  0
    4.1099    9.9478   32.0138 H   0  0  0  0  0  0
    4.7768   12.1980   31.1872 H   0  0  0  0  0  0
    7.2499   10.8323   26.3446 H   0  0  0  0  0  0
    5.9842    9.8800   28.3500 H   0  0  0  0  0  0
    4.8918    8.9865   27.2388 H   0  0  0  0  0  0
    7.8914    8.5328   27.6337 H   0  0  0  0  0  0
    7.7078    6.6715   26.0013 H   0  0  0  0  0  0
    5.9753    7.0573   25.7257 H   0  0  0  0  0  0
    8.3485    8.9251   25.1338 H   0  0  0  0  0  0
    7.4037    8.0032   23.9156 H   0  0  0  0  0  0
    5.3045    9.2198   24.6390 H   0  0  0  0  0  0
    6.5602   10.3706   24.0686 H   0  0  0  0  0  0
    5.4501    7.8872   30.3793 H   0  0  0  0  0  0
    6.3176    9.1292   31.9507 H   0  0  0  0  0  0
    7.6162   10.2587   31.4364 H   0  0  0  0  0  0
    8.0313    8.7702   32.3523 H   0  0  0  0  0  0
    4.3035    7.3361   28.2293 H   0  0  0  0  0  0
    4.7883    5.8414   29.0996 H   0  0  0  0  0  0
    5.0446    5.9714   27.3265 H   0  0  0  0  0  0
    8.4518    6.3128   28.7539 H   0  0  0  0  0  0
    7.4051    5.3874   27.6249 H   0  0  0  0  0  0
    7.1488    5.2574   29.3980 H   0  0  0  0  0  0
  1  2  1  0  0  0
  1 22  1  0  0  0
  1 37  1  0  0  0
  2  3  1  0  0  0
  2 15  1  0  0  0
  2 38  1  0  0  0
  3  4  1  0  0  0
  3  5  1  0  0  0
  3 39  1  0  0  0
  4 40  1  0  0  0
  5  6  1  0  0  0
  5 41  1  0  0  0
  5 42  1  0  0  0
  6  7  1  0  0  0
  6  8  1  0  0  0
  6 43  1  0  0  0
  7 44  1  0  0  0
  7 45  1  0  0  0
  7 46  1  0  0  0
  8  9  2  0  0  0
  8 10  1  0  0  0
 10 11  1  0  0  0
 10 47  1  0  0  0
 11 12  1  0  0  0
 11 48  1  0  0  0
 11 49  1  0  0  0
 12 13  1  0  0  0
 12 50  1  0  0  0
 12 51  1  0  0  0
 13 14  1  0  0  0
 13 52  1  0  0  0
 13 53  1  0  0  0
 14 54  1  0  0  0
 14 55  1  0  0  0
 14 56  1  0  0  0
 15 16  1  0  0  0
 15 57  1  0  0  0
 15 58  1  0  0  0
 16 17  2  0  0  0
 16 21  1  0  0  0
 17 18  1  0  0  0
 17 59  1  0  0  0
 18 19  2  0  0  0
 18 60  1  0  0  0
 19 20  1  0  0  0
 19 61  1  0  0  0
 20 21  2  0  0  0
 20 62  1  0  0  0
 21 63  1  0  0  0
 22 23  2  0  0  0
 22 24  1  0  0  0
 24 25  1  0  0  0
 24 29  1  0  0  0
 24 64  1  0  0  0
 25 26  1  0  0  0
 25 65  1  0  0  0
 25 66  1  0  0  0
 26 27  1  0  0  0
 26 30  1  0  0  0
 26 67  1  0  0  0
 27 28  1  0  0  0
 27 68  1  0  0  0
 27 69  1  0  0  0
 28 29  1  0  0  0
 28 70  1  0  0  0
 28 71  1  0  0  0
 29 72  1  0  0  0
 29 73  1  0  0  0
 30 31  1  0  0  0
 30 35  1  0  0  0
 30 36  1  0  0  0
 31 32  1  0  0  0
 31 74  1  0  0  0
 32 33  2  0  0  0
 32 34  1  0  0  0
 34 75  1  0  0  0
 34 76  1  0  0  0
 34 77  1  0  0  0
 35 78  1  0  0  0
 35 79  1  0  0  0
 35 80  1  0  0  0
 36 81  1  0  0  0
 36 82  1  0  0  0
 36 83  1  0  0  0
M  END
> <s_m_source_file>
../3k5f_ligand.sdf

> <i_m_source_file_index>
1

> <s_epik_input>
Tz1DKFtDSDNdKVtOSF1DKFtDSDNdKShbQ0gzXSlbQ0BASF0oW0NIMl1bQ0gyXVtDSDJdMSlbQ0gyXVtDQEBIXTFDKD1PKVtOSF1bQ0BASF0oW0NIMl1jMltjSF1bY0hdW2NIXVtjSF1bY0hdMilbQ0BASF0oW09IXSlbQ0gyXVtDQEBIXShbQ0gzXSlDKD1PKVtOSF1bQ0gyXVtDSDJdW0NIMl1bQ0gzXQ==

> <s_epik_cmdline>
J2VwaWtfYXBwJywgJy1pbWFlJywgJ2xpZ2FuZF9wcm8ubWFlJywgJy1vbWFlJywgJ2xpZ2FuZF9wcmVwLm1hZScsICctbXMnLCAnMScsICctcGgnLCAnNycsICctcGh0JywgJzAuNScsICctbnQn

> <r_lp_tautomer_probability>
1

> <r_epik_Ionization_Penalty>
  0.0000

> <r_epik_Ionization_Penalty_Charging>
  0.0000

> <r_epik_Ionization_Penalty_Neutral>
  0.0000

> <r_epik_State_Penalty>
 -0.0000

> <r_epik_Charging_Adjusted_Penalty>
0

> <i_epik_Tot_Q>
0

> <i_epik_Tot_abs_Q>
0

$$$$
