3k5g_ligand
                    3D
 Schrodinger Suite 2020-3.
 93 96  0  0  1  0            999 V2000
   27.6370    8.2520   19.5530 N   0  0  0  0  0  0
   28.5930    9.3660   19.2720 C   0  0  0  0  0  0
   29.7890    9.5810   20.2450 C   0  0  0  0  0  0
   30.4600    8.2180   20.5230 C   0  0  0  0  0  0
   29.4070    7.2850   21.1720 C   0  0  0  0  0  0
   28.0530    7.2720   20.4590 C   0  0  0  0  0  0
   27.3750    6.3040   20.7620 O   0  0  0  0  0  0
   26.2700    8.1580   18.8900 C   0  0  0  0  0  0
   26.2680    6.8450   17.9980 C   0  0  2  0  0  0
   27.4310    6.8230   16.9450 C   0  0  0  0  0  0
   27.5270    5.5230   16.1050 C   0  0  1  0  0  0
   26.1260    5.1630   15.4930 C   0  0  0  0  0  0
   25.0420    5.0610   16.6010 C   0  0  0  0  0  0
   24.9010    6.4230   17.3500 C   0  0  0  0  0  0
   28.6210    5.7200   15.0800 C   0  0  0  0  0  0
   28.3560    5.9510   13.9040 O   0  0  0  0  0  0
   29.9080    5.6310   15.5430 N   0  0  0  0  0  0
   31.1040    5.7940   14.7090 C   0  0  2  0  0  0
   31.7840    4.4230   14.4310 C   0  0  2  0  0  0
   32.9750    4.5940   13.6490 O   0  0  0  0  0  0
   30.8440    3.4930   13.6170 C   0  0  0  0  0  0
   31.5050    2.2430   13.1800 N   0  3  0  0  0  0
   30.7800    1.4800   12.1190 C   0  0  0  0  0  0
   30.7080    2.2840   10.7970 C   0  0  0  0  0  0
   31.8860    2.7240   10.1500 C   0  0  0  0  0  0
   31.8370    3.4630    8.9350 C   0  0  0  0  0  0
   30.5690    3.7540    8.3730 C   0  0  0  0  0  0
   29.3790    3.3170    9.0130 C   0  0  0  0  0  0
   29.4450    2.5830   10.2200 C   0  0  0  0  0  0
   33.1400    3.9240    8.2400 C   0  0  0  0  0  0
   33.6320    5.2620    8.8310 C   0  0  0  0  0  0
   34.2950    2.8890    8.2110 C   0  0  0  0  0  0
   32.0740    6.7870   15.4350 C   0  0  0  0  0  0
   31.5320    8.1840   15.7920 C   0  0  0  0  0  0
   30.4350    8.7880   15.1050 C   0  0  0  0  0  0
   29.9820   10.0820   15.4740 C   0  0  0  0  0  0
   30.6180   10.7780   16.5280 C   0  0  0  0  0  0
   31.7090   10.1870   17.2170 C   0  0  0  0  0  0
   32.1590    8.8950   16.8490 C   0  0  0  0  0  0
   25.9590    9.4170   17.9870 C   0  0  0  0  0  0
   25.0780    8.2000   19.9150 C   0  0  0  0  0  0
   29.0568    9.2114   18.2866 H   0  0  0  0  0  0
   28.0517   10.3236   19.2763 H   0  0  0  0  0  0
   30.5165   10.2665   19.7859 H   0  0  0  0  0  0
   29.4218   10.0135   21.1874 H   0  0  0  0  0  0
   30.8171    7.7854   19.5768 H   0  0  0  0  0  0
   31.3110    8.3606   21.2052 H   0  0  0  0  0  0
   29.7821    6.2509   21.1693 H   0  0  0  0  0  0
   29.2222    7.6053   22.2080 H   0  0  0  0  0  0
   26.4525    6.0513   18.7369 H   0  0  0  0  0  0
   27.2963    7.6502   16.2326 H   0  0  0  0  0  0
   28.3955    6.9373   17.4614 H   0  0  0  0  0  0
   27.8336    4.6580   16.7114 H   0  0  0  0  0  0
   25.8265    5.9437   14.7783 H   0  0  0  0  0  0
   26.1905    4.1956   14.9734 H   0  0  0  0  0  0
   24.0753    4.8007   16.1453 H   0  0  0  0  0  0
   25.3282    4.2825   17.3235 H   0  0  0  0  0  0
   24.1391    6.3187   18.1365 H   0  0  0  0  0  0
   24.5829    7.1925   16.6312 H   0  0  0  0  0  0
   30.0114    5.4221   16.6180 H   0  0  0  0  0  0
   30.7628    6.2006   13.7455 H   0  0  0  0  0  0
   32.0955    3.9787   15.3879 H   0  0  0  0  0  0
   33.7958    5.2212   14.0270 H   0  0  0  0  0  0
   29.9780    3.2147   14.2356 H   0  0  0  0  0  0
   30.4968    4.0202   12.7162 H   0  0  0  0  0  0
   32.5002    2.4771   12.7740 H   0  0  0  0  0  0
   31.6099    1.5640   14.0390 H   0  0  0  0  0  0
   31.3052    0.5333   11.9245 H   0  0  0  0  0  0
   29.7545    1.2679   12.4557 H   0  0  0  0  0  0
   32.8546    2.4915   10.5926 H   0  0  0  0  0  0
   30.5066    4.3177    7.4422 H   0  0  0  0  0  0
   28.4096    3.5485    8.5716 H   0  0  0  0  0  0
   28.5290    2.2476   10.7063 H   0  0  0  0  0  0
   32.8518    4.0564    7.1867 H   0  0  0  0  0  0
   32.8022    5.9840    8.8445 H   0  0  0  0  0  0
   34.4515    5.6567    8.2125 H   0  0  0  0  0  0
   33.9929    5.0989    9.8572 H   0  0  0  0  0  0
   33.9284    1.9422    7.7877 H   0  0  0  0  0  0
   34.6585    2.7165    9.2348 H   0  0  0  0  0  0
   35.1171    3.2743    7.5900 H   0  0  0  0  0  0
   32.3982    6.3499   16.3909 H   0  0  0  0  0  0
   32.9527    6.9717   14.7996 H   0  0  0  0  0  0
   29.9430    8.2526   14.2930 H   0  0  0  0  0  0
   29.1450   10.5384   14.9455 H   0  0  0  0  0  0
   30.2694   11.7709   16.8120 H   0  0  0  0  0  0
   32.1996   10.7259   18.0275 H   0  0  0  0  0  0
   32.9948    8.4424   17.3826 H   0  0  0  0  0  0
   26.7316    9.5104   17.2095 H   0  0  0  0  0  0
   25.9547   10.3233   18.6104 H   0  0  0  0  0  0
   24.9743    9.2936   17.5125 H   0  0  0  0  0  0
   25.1706    7.3604   20.6197 H   0  0  0  0  0  0
   24.1247    8.1197   19.3722 H   0  0  0  0  0  0
   25.1050    9.1493   20.4701 H   0  0  0  0  0  0
  1  2  1  0  0  0
  1  6  1  0  0  0
  1  8  1  0  0  0
  2  3  1  0  0  0
  2 42  1  0  0  0
  2 43  1  0  0  0
  3  4  1  0  0  0
  3 44  1  0  0  0
  3 45  1  0  0  0
  4  5  1  0  0  0
  4 46  1  0  0  0
  4 47  1  0  0  0
  5  6  1  0  0  0
  5 48  1  0  0  0
  5 49  1  0  0  0
  6  7  2  0  0  0
  8  9  1  0  0  0
  8 40  1  0  0  0
  8 41  1  0  0  0
  9 10  1  0  0  0
  9 14  1  0  0  0
  9 50  1  0  0  0
 10 11  1  0  0  0
 10 51  1  0  0  0
 10 52  1  0  0  0
 11 12  1  0  0  0
 11 15  1  0  0  0
 11 53  1  0  0  0
 12 13  1  0  0  0
 12 54  1  0  0  0
 12 55  1  0  0  0
 13 14  1  0  0  0
 13 56  1  0  0  0
 13 57  1  0  0  0
 14 58  1  0  0  0
 14 59  1  0  0  0
 15 16  2  0  0  0
 15 17  1  0  0  0
 17 18  1  0  0  0
 17 60  1  0  0  0
 18 19  1  0  0  0
 18 33  1  0  0  0
 18 61  1  0  0  0
 19 20  1  0  0  0
 19 21  1  0  0  0
 19 62  1  0  0  0
 20 63  1  0  0  0
 21 22  1  0  0  0
 21 64  1  0  0  0
 21 65  1  0  0  0
 22 23  1  0  0  0
 22 66  1  0  0  0
 22 67  1  0  0  0
 23 24  1  0  0  0
 23 68  1  0  0  0
 23 69  1  0  0  0
 24 25  2  0  0  0
 24 29  1  0  0  0
 25 26  1  0  0  0
 25 70  1  0  0  0
 26 27  2  0  0  0
 26 30  1  0  0  0
 27 28  1  0  0  0
 27 71  1  0  0  0
 28 29  2  0  0  0
 28 72  1  0  0  0
 29 73  1  0  0  0
 30 31  1  0  0  0
 30 32  1  0  0  0
 30 74  1  0  0  0
 31 75  1  0  0  0
 31 76  1  0  0  0
 31 77  1  0  0  0
 32 78  1  0  0  0
 32 79  1  0  0  0
 32 80  1  0  0  0
 33 34  1  0  0  0
 33 81  1  0  0  0
 33 82  1  0  0  0
 34 35  2  0  0  0
 34 39  1  0  0  0
 35 36  1  0  0  0
 35 83  1  0  0  0
 36 37  2  0  0  0
 36 84  1  0  0  0
 37 38  1  0  0  0
 37 85  1  0  0  0
 38 39  2  0  0  0
 38 86  1  0  0  0
 39 87  1  0  0  0
 40 88  1  0  0  0
 40 89  1  0  0  0
 40 90  1  0  0  0
 41 91  1  0  0  0
 41 92  1  0  0  0
 41 93  1  0  0  0
M  CHG  1  22   1
M  END
> <s_m_source_file>
../3k5g_ligand.sdf

> <i_m_source_file_index>
1

> <s_epik_input>
Tz1DMVtDSDJdW0NIMl1bQ0gyXVtDSDJdTjFDKFtDSDNdKShbQ0gzXSlbQ0BASF0yW0NIMl1bQ0BASF0oW0NIMl1bQ0gyXVtDSDJdMilDKD1PKVtOSF1bQ0BASF0oW0NIMl1jM1tjSF1bY0hdW2NIXVtjSF1bY0hdMylbQ0BIXShbT0hdKVtDSDJdW05IMitdW0NIMl1jNFtjSF1jKFtDSF0oW0NIM10pW0NIM10pW2NIXVtjSF1bY0hdNA==

> <s_epik_cmdline>
J2VwaWtfYXBwJywgJy1pbWFlJywgJ2xpZ2FuZF9wcm8ubWFlJywgJy1vbWFlJywgJ2xpZ2FuZF9wcmVwLm1hZScsICctbXMnLCAnMScsICctcGgnLCAnNycsICctcGh0JywgJzAuNScsICctbnQn

> <r_epik_Ionization_Penalty>
  0.0196

> <r_epik_Ionization_Penalty_Charging>
  0.0196

> <r_epik_Ionization_Penalty_Neutral>
  0.0000

> <r_epik_State_Penalty>
  0.0157

> <r_epik_Charging_Adjusted_Penalty>
0.0353181703315489

> <i_epik_Tot_Q>
1

> <i_epik_Tot_abs_Q>
1

$$$$
