3k5i_ligand
                    3D
 Schrodinger Suite 2020-3.
 32 33  0  0  1  0            999 V2000
  -22.5420    8.7420   44.9130 N   0  0  0  0  0  0
  -23.4360    8.6950   43.8910 C   0  0  0  0  0  0
  -24.3140    7.6920   43.8960 N   0  3  0  0  0  0
  -23.8520    7.0000   44.9900 C   0  0  0  0  0  0
  -22.7520    7.5670   45.5830 C   0  0  0  0  0  0
  -22.1000    7.1250   46.6810 N   0  0  0  0  0  0
  -21.6450    9.7990   45.3900 C   0  0  1  0  0  0
  -21.9520   11.1660   44.7920 C   0  0  1  0  0  0
  -22.7320   11.7760   45.9650 C   0  0  1  0  0  0
  -21.8770   11.3090   47.1290 C   0  0  2  0  0  0
  -21.8290    9.9080   46.7720 O   0  0  0  0  0  0
  -20.6550   11.7830   44.7510 O   0  0  0  0  0  0
  -22.7080   13.2030   45.9470 O   0  0  0  0  0  0
  -22.2140   11.6620   48.5650 C   0  0  0  0  0  0
  -21.8090   10.6380   49.5190 O   0  0  0  0  0  0
  -22.0790   10.8100   51.1170 P   0  0  0  0  0  0
  -21.9460   12.3180   51.6380 O   0  5  0  0  0  0
  -21.0710   10.0330   51.9220 O   0  0  0  0  0  0
  -23.4480   10.3230   51.5600 O   0  5  0  0  0  0
  -23.4353    9.4456   43.1006 H   0  0  0  0  0  0
  -24.3172    6.0838   45.3536 H   0  0  0  0  0  0
  -21.2248    7.6737   47.0591 H   0  0  0  0  0  0
  -22.4444    6.2165   47.1967 H   0  0  0  0  0  0
  -20.6148    9.4880   45.1621 H   0  0  0  0  0  0
  -22.4238   11.2462   43.8015 H   0  0  0  0  0  0
  -23.8082   11.5490   45.9825 H   0  0  0  0  0  0
  -20.8984   11.8060   47.2017 H   0  0  0  0  0  0
  -19.9296   11.4877   43.9786 H   0  0  0  0  0  0
  -23.2679   13.7528   45.1762 H   0  0  0  0  0  0
  -21.7024   12.5953   48.8429 H   0  0  0  0  0  0
  -23.3013   11.7964   48.6641 H   0  0  0  0  0  0
  -25.1026    7.6476   43.1305 H   0  0  0  0  0  0
  1  2  1  0  0  0
  1  5  1  0  0  0
  1  7  1  0  0  0
  2  3  2  0  0  0
  2 20  1  0  0  0
  3  4  1  0  0  0
  3 32  1  0  0  0
  4  5  2  0  0  0
  4 21  1  0  0  0
  5  6  1  0  0  0
  6 22  1  0  0  0
  6 23  1  0  0  0
  7  8  1  0  0  0
  7 11  1  0  0  0
  7 24  1  0  0  0
  8  9  1  0  0  0
  8 12  1  0  0  0
  8 25  1  0  0  0
  9 10  1  0  0  0
  9 13  1  0  0  0
  9 26  1  0  0  0
 10 11  1  0  0  0
 10 14  1  0  0  0
 10 27  1  0  0  0
 12 28  1  0  0  0
 13 29  1  0  0  0
 14 15  1  0  0  0
 14 30  1  0  0  0
 14 31  1  0  0  0
 15 16  1  0  0  0
 16 17  1  0  0  0
 16 18  2  0  0  0
 16 19  1  0  0  0
M  CHG  3   3   1  17  -1  19  -1
M  END
> <s_m_source_file>
../3k5i_ligand.sdf

> <i_m_source_file_index>
1

> <s_epik_input>
W05IMl1jMVtjSF1uW2NIXW4xW0NASF0yW0NASF0oW09IXSlbQ0BIXShbT0hdKVtDQEhdKE8yKVtDSDJdT1AoPU8pKFtPSF0pW09IXQ==

> <s_epik_cmdline>
J2VwaWtfYXBwJywgJy1pbWFlJywgJ2xpZ2FuZF9wcm8ubWFlJywgJy1vbWFlJywgJ2xpZ2FuZF9wcmVwLm1hZScsICctbXMnLCAnMScsICctcGgnLCAnNycsICctcGh0JywgJzAuNScsICctbnQn

> <r_epik_Ionization_Penalty>
  0.4722

> <r_epik_Ionization_Penalty_Charging>
  0.1008

> <r_epik_Ionization_Penalty_Neutral>
  0.3714

> <r_epik_State_Penalty>
  0.3688

> <r_epik_Charging_Adjusted_Penalty>
0.469615137505892

> <i_epik_Tot_Q>
-1

> <i_epik_Tot_abs_Q>
3

> <s_epik_Chemistry_Notes>
This compound contains an acetal/aminal-like group ( X-CH(R)-Y where X, Y are N, S, or O) that may be acid/base labile, releasing an aldehyde.

$$$$
