3k5k_ligand
                    3D
 Schrodinger Suite 2020-3.
 82 85  0  0  1  0            999 V2000
  -38.7770   15.9130   47.5210 N   0  0  0  0  0  0
  -37.4490   15.6330   47.5040 C   0  0  0  0  0  0
  -37.0030   14.4500   48.0140 N   0  3  0  0  0  0
  -37.8570   13.5280   48.5240 C   0  0  0  0  0  0
  -39.2230   13.8220   48.5450 C   0  0  0  0  0  0
  -39.6740   15.0420   48.0260 C   0  0  0  0  0  0
  -41.9220   11.0810   50.0540 C   0  0  0  0  0  0
  -38.5760    5.9330   48.4780 C   0  0  0  0  0  0
  -36.2480    5.8140   48.7130 C   0  0  0  0  0  0
  -35.3610   20.3800   48.6450 C   0  0  0  0  0  0
  -44.4990   19.1530   46.1560 C   0  0  0  0  0  0
  -37.3950   12.3090   49.0460 C   0  0  0  0  0  0
  -40.1330   12.9040   49.0760 C   0  0  0  0  0  0
  -36.4600    8.2880   50.5860 C   0  0  0  0  0  0
  -34.3000   16.8470   48.1410 C   0  0  0  0  0  0
  -36.6090    9.6460   49.8580 C   0  0  0  0  0  0
  -41.7860   16.5160   46.0070 C   0  0  0  0  0  0
  -41.6870   17.6730   48.1980 C   0  0  0  0  0  0
  -37.5320    7.2360   50.2180 C   0  0  0  0  0  0
  -34.9220   18.0370   48.9040 C   0  0  0  0  0  0
  -35.1320   16.2510   46.9870 C   0  0  0  0  0  0
  -42.9960   17.3670   45.5810 C   0  0  0  0  0  0
  -42.9380   18.5040   47.8710 C   0  0  0  0  0  0
  -36.9170   18.8200   47.7460 C   0  0  0  0  0  0
  -37.1060   17.8550   46.5700 C   0  0  0  0  0  0
  -40.9950   15.2560   48.0730 N   0  0  0  0  0  0
  -40.5330   10.7670   50.1180 O   0  0  0  0  0  0
  -37.9330   10.1690   50.1010 O   0  0  0  0  0  0
  -39.6770   11.6860   49.5940 C   0  0  0  0  0  0
  -38.3080   11.3800   49.5720 C   0  0  0  0  0  0
  -41.8670   16.3200   47.5160 C   0  0  2  0  0  0
  -37.3920    6.7200   48.8310 N   0  3  0  0  0  0
  -35.4850   19.0550   47.9960 N   0  3  1  0  0  0
  -43.1620   18.5950   46.4070 N   0  3  2  0  0  0
  -36.5810   16.5440   47.0050 N   0  0  0  0  0  0
  -42.5037   10.2647   50.5072 H   0  0  0  0  0  0
  -42.2218   11.2052   49.0029 H   0  0  0  0  0  0
  -42.1123   12.0153   50.6025 H   0  0  0  0  0  0
  -38.4704    5.5522   47.4514 H   0  0  0  0  0  0
  -39.4715    6.5686   48.5430 H   0  0  0  0  0  0
  -38.6752    5.0874   49.1745 H   0  0  0  0  0  0
  -36.1730    5.4512   47.6773 H   0  0  0  0  0  0
  -36.3855    4.9595   49.3919 H   0  0  0  0  0  0
  -35.3260    6.3507   48.9812 H   0  0  0  0  0  0
  -34.3007   20.5911   48.8479 H   0  0  0  0  0  0
  -35.9222   20.3788   49.5910 H   0  0  0  0  0  0
  -35.7679   21.1544   47.9782 H   0  0  0  0  0  0
  -44.6697   19.2224   45.0715 H   0  0  0  0  0  0
  -44.5676   20.1558   46.6029 H   0  0  0  0  0  0
  -45.2599   18.4983   46.6058 H   0  0  0  0  0  0
  -36.3285   12.0838   49.0430 H   0  0  0  0  0  0
  -41.1979   13.1363   49.0869 H   0  0  0  0  0  0
  -35.4833    7.8456   50.3405 H   0  0  0  0  0  0
  -36.5287    8.4450   51.6726 H   0  0  0  0  0  0
  -33.3460   17.1586   47.6906 H   0  0  0  0  0  0
  -34.1216   16.0164   48.8397 H   0  0  0  0  0  0
  -35.8564   10.3514   50.2401 H   0  0  0  0  0  0
  -36.4606    9.5012   48.7777 H   0  0  0  0  0  0
  -41.8216   15.5445   45.4923 H   0  0  0  0  0  0
  -40.8567   17.0395   45.7382 H   0  0  0  0  0  0
  -40.7940   18.1883   47.8145 H   0  0  0  0  0  0
  -41.6012   17.5529   49.2880 H   0  0  0  0  0  0
  -37.4536    6.3779   50.9018 H   0  0  0  0  0  0
  -38.5322    7.6852   50.3066 H   0  0  0  0  0  0
  -35.7335   17.6735   49.5516 H   0  0  0  0  0  0
  -34.1501   18.5212   49.5203 H   0  0  0  0  0  0
  -34.7573   16.6369   46.0275 H   0  0  0  0  0  0
  -35.0449   15.1545   47.0004 H   0  0  0  0  0  0
  -42.8724   17.6820   44.5344 H   0  0  0  0  0  0
  -43.9157   16.7714   45.6785 H   0  0  0  0  0  0
  -43.8205   18.0343   48.3300 H   0  0  0  0  0  0
  -42.8161   19.5223   48.2688 H   0  0  0  0  0  0
  -37.4012   19.7800   47.5140 H   0  0  0  0  0  0
  -37.3714   18.3893   48.6504 H   0  0  0  0  0  0
  -38.1753   17.7846   46.3217 H   0  0  0  0  0  0
  -36.5506   18.2279   45.6968 H   0  0  0  0  0  0
  -41.4347   14.4345   48.6576 H   0  0  0  0  0  0
  -42.8548   15.8971   47.7514 H   0  0  0  0  0  0
  -37.2602    7.5818   48.1603 H   0  0  0  0  0  0
  -34.9409   19.0024   47.0414 H   0  0  0  0  0  0
  -42.3450   19.2515   46.0731 H   0  0  0  0  0  0
  -35.9265   14.2240   48.0186 H   0  0  0  0  0  0
  1  2  2  0  0  0
  1  6  1  0  0  0
  2  3  1  0  0  0
  2 35  1  0  0  0
  3  4  2  0  0  0
  3 82  1  0  0  0
  4  5  1  0  0  0
  4 12  1  0  0  0
  5  6  2  0  0  0
  5 13  1  0  0  0
  6 26  1  0  0  0
  7 27  1  0  0  0
  7 36  1  0  0  0
  7 37  1  0  0  0
  7 38  1  0  0  0
  8 32  1  0  0  0
  8 39  1  0  0  0
  8 40  1  0  0  0
  8 41  1  0  0  0
  9 32  1  0  0  0
  9 42  1  0  0  0
  9 43  1  0  0  0
  9 44  1  0  0  0
 10 33  1  0  0  0
 10 45  1  0  0  0
 10 46  1  0  0  0
 10 47  1  0  0  0
 11 34  1  0  0  0
 11 48  1  0  0  0
 11 49  1  0  0  0
 11 50  1  0  0  0
 12 30  2  0  0  0
 12 51  1  0  0  0
 13 29  2  0  0  0
 13 52  1  0  0  0
 14 16  1  0  0  0
 14 19  1  0  0  0
 14 53  1  0  0  0
 14 54  1  0  0  0
 15 20  1  0  0  0
 15 21  1  0  0  0
 15 55  1  0  0  0
 15 56  1  0  0  0
 16 28  1  0  0  0
 16 57  1  0  0  0
 16 58  1  0  0  0
 17 22  1  0  0  0
 17 31  1  0  0  0
 17 59  1  0  0  0
 17 60  1  0  0  0
 18 23  1  0  0  0
 18 31  1  0  0  0
 18 61  1  0  0  0
 18 62  1  0  0  0
 19 32  1  0  0  0
 19 63  1  0  0  0
 19 64  1  0  0  0
 20 33  1  0  0  0
 20 65  1  0  0  0
 20 66  1  0  0  0
 21 35  1  0  0  0
 21 67  1  0  0  0
 21 68  1  0  0  0
 22 34  1  0  0  0
 22 69  1  0  0  0
 22 70  1  0  0  0
 23 34  1  0  0  0
 23 71  1  0  0  0
 23 72  1  0  0  0
 24 25  1  0  0  0
 24 33  1  0  0  0
 24 73  1  0  0  0
 24 74  1  0  0  0
 25 35  1  0  0  0
 25 75  1  0  0  0
 25 76  1  0  0  0
 26 31  1  0  0  0
 26 77  1  0  0  0
 27 29  1  0  0  0
 28 30  1  0  0  0
 29 30  1  0  0  0
 31 78  1  0  0  0
 32 79  1  0  0  0
 33 80  1  0  0  0
 34 81  1  0  0  0
M  CHG  4   3   1  32   1  33   1  34   1
M  END
> <s_m_source_file>
../3k5k_ligand.sdf

> <i_m_source_file_index>
1

> <s_epik_input>
W0NIM11bTkBIK10xW0NIMl1bQ0gyXVtDSDJdTihbQ0gyXVtDSDJdMSljKG4yKW5jKFtOSF1bQ0BASF0zW0NIMl1bQ0gyXVtOQEBIK10oW0NIM10pW0NIMl1bQ0gyXTMpYyhjMjQpW2NIXWMoT1tDSDNdKWMoW2NIXTQpT1tDSDJdW0NIMl1bQ0gyXVtOSCtdKFtDSDNdKVtDSDNd

> <s_epik_cmdline>
J2VwaWtfYXBwJywgJy1pbWFlJywgJ2xpZ2FuZF9wcm8ubWFlJywgJy1vbWFlJywgJ2xpZ2FuZF9wcmVwLm1hZScsICctbXMnLCAnMScsICctcGgnLCAnNycsICctcGh0JywgJzAuNScsICctbnQn

> <r_lp_tautomer_probability>
1

> <r_epik_Ionization_Penalty>
  0.0452

> <r_epik_Ionization_Penalty_Charging>
  0.0452

> <r_epik_Ionization_Penalty_Neutral>
  0.0000

> <r_epik_State_Penalty>
 -0.0000

> <r_epik_Charging_Adjusted_Penalty>
0.045151795235288

> <i_epik_Tot_Q>
4

> <i_epik_Tot_abs_Q>
4

$$$$
