3k5u_ligand
                    3D
 Schrodinger Suite 2020-3.
 42 45  0  0  1  0            999 V2000
   -4.4370  -30.5870    9.6760 C   0  0  0  0  0  0
   -3.4870  -32.0960    5.5850 C   0  0  0  0  0  0
   -2.8700  -32.8540    4.6080 C   0  0  0  0  0  0
   -2.7970  -32.5120    3.2670 C   0  0  0  0  0  0
   -2.0850  -33.3120    2.3840 C   0  0  0  0  0  0
   -1.5640  -34.5360    2.8100 C   0  0  0  0  0  0
   -1.4940  -34.8140    4.1790 C   0  0  0  0  0  0
   -2.2470  -34.0300    5.0540 C   0  0  0  0  0  0
   -4.7640  -28.9360    4.4230 C   0  0  0  0  0  0
   -5.4030  -28.2510    3.4060 C   0  0  0  0  0  0
   -6.1070  -28.9490    2.4200 C   0  0  0  0  0  0
   -6.0620  -30.3430    2.4350 C   0  0  0  0  0  0
   -3.8240  -31.5750    9.0540 N   0  0  0  0  0  0
   -3.8210  -31.6010    7.7190 C   0  0  0  0  0  0
   -3.1970  -32.4680    6.8720 O   0  0  0  0  0  0
   -4.5200  -30.6580    6.9630 C   0  0  0  0  0  0
   -5.9870  -28.7640    7.0820 N   0  0  0  0  0  0
   -5.2200  -29.6860    7.6640 C   0  0  0  0  0  0
   -5.1140  -29.6700    9.0090 N   0  0  0  0  0  0
   -5.6490  -30.9990    3.6130 C   0  0  0  0  0  0
   -4.3130  -30.9980    5.6250 C   0  0  0  0  0  0
   -4.8980  -30.3180    4.5670 C   0  0  0  0  0  0
   -8.0290  -28.3500    8.4710 C   0  0  0  0  0  0
   -6.7290  -27.7610    7.8700 C   0  0  0  0  0  0
   -8.7000  -27.3760    9.2920 O   0  0  0  0  0  0
   -4.3839  -30.5259   10.7630 H   0  0  0  0  0  0
   -3.2989  -31.6145    2.9056 H   0  0  0  0  0  0
   -1.9321  -32.9843    1.3557 H   0  0  0  0  0  0
   -1.2150  -35.2682    2.0818 H   0  0  0  0  0  0
   -0.8667  -35.6231    4.5532 H   0  0  0  0  0  0
   -2.3525  -34.3342    6.0953 H   0  0  0  0  0  0
   -4.1418  -28.3846    5.1279 H   0  0  0  0  0  0
   -5.3577  -27.1624    3.3728 H   0  0  0  0  0  0
   -6.6770  -28.4169    1.6584 H   0  0  0  0  0  0
   -6.3415  -30.9159    1.5508 H   0  0  0  0  0  0
   -6.0586  -28.7637    5.9843 H   0  0  0  0  0  0
   -5.9186  -32.0423    3.7770 H   0  0  0  0  0  0
   -8.7043  -28.6535    7.6575 H   0  0  0  0  0  0
   -7.7831  -29.2258    9.0894 H   0  0  0  0  0  0
   -6.0972  -27.4035    8.6965 H   0  0  0  0  0  0
   -7.0003  -26.9138    7.2229 H   0  0  0  0  0  0
   -9.6431  -27.6364    9.7947 H   0  0  0  0  0  0
  1 13  2  0  0  0
  1 19  1  0  0  0
  1 26  1  0  0  0
  2  3  1  0  0  0
  2 15  1  0  0  0
  2 21  2  0  0  0
  3  4  2  0  0  0
  3  8  1  0  0  0
  4  5  1  0  0  0
  4 27  1  0  0  0
  5  6  2  0  0  0
  5 28  1  0  0  0
  6  7  1  0  0  0
  6 29  1  0  0  0
  7  8  2  0  0  0
  7 30  1  0  0  0
  8 31  1  0  0  0
  9 10  2  0  0  0
  9 22  1  0  0  0
  9 32  1  0  0  0
 10 11  1  0  0  0
 10 33  1  0  0  0
 11 12  2  0  0  0
 11 34  1  0  0  0
 12 20  1  0  0  0
 12 35  1  0  0  0
 13 14  1  0  0  0
 14 15  1  0  0  0
 14 16  2  0  0  0
 16 18  1  0  0  0
 16 21  1  0  0  0
 17 18  1  0  0  0
 17 24  1  0  0  0
 17 36  1  0  0  0
 18 19  2  0  0  0
 20 22  2  0  0  0
 20 37  1  0  0  0
 21 22  1  0  0  0
 23 24  1  0  0  0
 23 25  1  0  0  0
 23 38  1  0  0  0
 23 39  1  0  0  0
 24 40  1  0  0  0
 24 41  1  0  0  0
 25 42  1  0  0  0
M  END
> <s_m_source_file>
../3k5u_ligand.sdf

> <i_m_source_file_index>
1

> <s_epik_input>
W2NIXTFbY0hdW2NIXVtjSF1bY0hdYzEtYyhjKGMyMyljKG5bY0hdbjIpW05IXVtDSDJdW0NIMl1bT0hdKWMobzMpLWM0W2NIXVtjSF1bY0hdW2NIXVtjSF00

> <s_epik_cmdline>
J2VwaWtfYXBwJywgJy1pbWFlJywgJ2xpZ2FuZF9wcm8ubWFlJywgJy1vbWFlJywgJ2xpZ2FuZF9wcmVwLm1hZScsICctbXMnLCAnMScsICctcGgnLCAnNycsICctcGh0JywgJzAuNScsICctbnQn

> <r_lp_tautomer_probability>
1

> <r_epik_Ionization_Penalty>
  0.0000

> <r_epik_Ionization_Penalty_Charging>
  0.0000

> <r_epik_Ionization_Penalty_Neutral>
  0.0000

> <r_epik_State_Penalty>
 -0.0000

> <r_epik_Charging_Adjusted_Penalty>
0

> <i_epik_Tot_Q>
0

> <i_epik_Tot_abs_Q>
0

$$$$
