3k5x_ligand
                    3D
 Schrodinger Suite 2020-3.
 27 26  0  0  1  0            999 V2000
  -24.9770   32.0890  -15.4850 C   0  0  0  0  0  0
  -23.7790   30.1720  -16.4460 N   0  3  0  0  0  0
  -24.4010   30.6870  -15.2160 C   0  0  2  0  0  0
  -25.6610   29.4480  -14.7410 P   0  0  2  0  0  0
  -26.2570   29.8510  -13.0780 C   0  0  0  0  0  0
  -27.7880   30.0400  -12.8560 C   0  0  1  0  0  0
  -28.6010   28.8240  -13.3640 C   0  0  0  0  0  0
  -28.0390   30.4630  -11.3930 C   0  0  0  0  0  0
  -27.6100   31.8570  -10.9160 C   0  0  0  0  0  0
  -25.0960   28.0730  -14.7130 O   0  0  0  0  0  0
  -26.8740   29.5180  -15.7730 O   0  5  0  0  0  0
  -29.8290   28.9360  -13.4050 O   0  0  0  0  0  0
  -27.9860   27.7990  -13.7320 O   0  5  0  0  0  0
  -27.8840   32.8360  -11.6360 O   0  5  0  0  0  0
  -27.0080   31.9010   -9.8270 O   0  0  0  0  0  0
  -24.1618   32.7731  -15.7633 H   0  0  0  0  0  0
  -25.4744   32.4614  -14.5773 H   0  0  0  0  0  0
  -25.7064   32.0343  -16.3066 H   0  0  0  0  0  0
  -23.0056   30.8754  -16.7880 H   0  0  0  0  0  0
  -24.5462   30.0625  -17.2267 H   0  0  0  0  0  0
  -23.3203   29.1931  -16.2428 H   0  0  0  0  0  0
  -23.5801   30.9250  -14.5236 H   0  0  0  0  0  0
  -25.9717   29.0485  -12.3818 H   0  0  0  0  0  0
  -25.8086   30.7996  -12.7476 H   0  0  0  0  0  0
  -28.1797   30.8637  -13.4709 H   0  0  0  0  0  0
  -29.1179   30.4287  -11.1814 H   0  0  0  0  0  0
  -27.5106   29.7750  -10.7166 H   0  0  0  0  0  0
  1  3  1  0  0  0
  1 16  1  0  0  0
  1 17  1  0  0  0
  1 18  1  0  0  0
  2  3  1  0  0  0
  2 19  1  0  0  0
  2 20  1  0  0  0
  2 21  1  0  0  0
  3  4  1  0  0  0
  3 22  1  0  0  0
  4  5  1  0  0  0
  4 10  2  0  0  0
  4 11  1  0  0  0
  5  6  1  0  0  0
  5 23  1  0  0  0
  5 24  1  0  0  0
  6  7  1  0  0  0
  6  8  1  0  0  0
  6 25  1  0  0  0
  7 12  2  0  0  0
  7 13  1  0  0  0
  8  9  1  0  0  0
  8 26  1  0  0  0
  8 27  1  0  0  0
  9 14  1  0  0  0
  9 15  2  0  0  0
M  CHG  4   2   1  11  -1  13  -1  14  -1
M  END
> <s_m_source_file>
../3k5x_ligand.sdf

> <i_m_source_file_index>
1

> <s_epik_input>
W0NIM11bQ0BIXShbTkgzK10pW1BAXSg9TykoW09IXSlbQ0gyXVtDQEBIXShDKD1PKVtPSF0pW0NIMl1DKD1PKVtPSF0=

> <s_epik_cmdline>
J2VwaWtfYXBwJywgJy1pbWFlJywgJ2xpZ2FuZF9wcm8ubWFlJywgJy1vbWFlJywgJ2xpZ2FuZF9wcmVwLm1hZScsICctbXMnLCAnMScsICctcGgnLCAnNycsICctcGh0JywgJzAuNScsICctbnQn

> <r_lp_tautomer_probability>
1

> <r_epik_Ionization_Penalty>
  0.0060

> <r_epik_Ionization_Penalty_Charging>
  0.0060

> <r_epik_Ionization_Penalty_Neutral>
  0.0000

> <r_epik_State_Penalty>
 -0.0000

> <r_epik_Charging_Adjusted_Penalty>
0.00601686916357255

> <i_epik_Tot_Q>
-2

> <i_epik_Tot_abs_Q>
4

$$$$
