3k7f_ligand
                    3D
 Schrodinger Suite 2020-3.
 51 53  0  0  1  0            999 V2000
  -44.9300   46.9130    7.4350 C   0  0  0  0  0  0
  -44.4330   45.6170    7.3080 C   0  0  0  0  0  0
  -44.4250   44.7690    8.4130 C   0  0  0  0  0  0
  -44.9310   45.2130    9.6360 C   0  0  0  0  0  0
  -45.4330   46.5060    9.7600 C   0  0  0  0  0  0
  -45.4300   47.3620    8.6550 C   0  0  0  0  0  0
  -43.8960   43.3490    8.3220 C   0  0  0  0  0  0
  -43.3560   42.9290    6.9580 C   0  0  0  0  0  0
  -42.6810   41.5610    7.1250 C   0  0  0  0  0  0
  -42.3650   40.8890    5.7890 C   0  0  0  0  0  0
  -41.4530   39.6730    6.0040 C   0  0  0  0  0  0
  -40.0130   40.0820    6.3410 C   0  0  0  0  0  0
  -39.1440   38.8480    6.5800 C   0  0  2  0  0  0
  -39.6200   38.1450    7.7340 O   0  0  0  0  0  0
  -37.6950   39.2320    6.8400 C   0  0  0  0  0  0
  -36.5260   38.6410    6.6510 N   0  0  0  0  0  0
  -35.6030   39.4840    7.1030 C   0  0  0  0  0  0
  -36.2120   40.5700    7.5710 C   0  0  0  0  0  0
  -37.5430   40.4250    7.4150 O   0  0  0  0  0  0
  -35.5750   41.7690    8.1620 C   0  0  0  0  0  0
  -34.2700   41.7360    8.4620 N   0  0  0  0  0  0
  -33.6660   42.8180    8.9890 C   0  0  0  0  0  0
  -34.3770   43.9810    9.2520 C   0  0  0  0  0  0
  -35.7300   44.0340    8.9460 C   0  0  0  0  0  0
  -36.3350   42.9130    8.3910 C   0  0  0  0  0  0
  -32.2080   42.7220    9.3060 C   0  0  0  0  0  0
  -31.6220   41.6470    9.0450 O   0  5  0  0  0  0
  -31.6300   43.7020    9.8210 O   0  0  0  0  0  0
  -44.9274   47.5802    6.5730 H   0  0  0  0  0  0
  -44.0522   45.2685    6.3480 H   0  0  0  0  0  0
  -44.9332   44.5449   10.4973 H   0  0  0  0  0  0
  -45.8273   46.8497   10.7163 H   0  0  0  0  0  0
  -45.8173   48.3766    8.7477 H   0  0  0  0  0  0
  -43.0675   43.2200    9.0341 H   0  0  0  0  0  0
  -44.7021   42.6411    8.5652 H   0  0  0  0  0  0
  -44.1866   42.8608    6.2400 H   0  0  0  0  0  0
  -42.6277   43.6747    6.6065 H   0  0  0  0  0  0
  -41.7343   41.6836    7.6715 H   0  0  0  0  0  0
  -43.3459   40.8905    7.6892 H   0  0  0  0  0  0
  -43.3005   40.5559    5.3158 H   0  0  0  0  0  0
  -41.8556   41.6066    5.1290 H   0  0  0  0  0  0
  -41.8401   39.0670    6.8364 H   0  0  0  0  0  0
  -41.4303   39.0651    5.0875 H   0  0  0  0  0  0
  -39.5903   40.6584    5.5048 H   0  0  0  0  0  0
  -40.0108   40.7004    7.2507 H   0  0  0  0  0  0
  -39.2206   38.1738    5.7142 H   0  0  0  0  0  0
  -40.6542   37.7713    7.7626 H   0  0  0  0  0  0
  -34.5264   39.3137    7.0920 H   0  0  0  0  0  0
  -33.8781   44.8434    9.6941 H   0  0  0  0  0  0
  -36.3073   44.9385    9.1376 H   0  0  0  0  0  0
  -37.3949   42.9290    8.1372 H   0  0  0  0  0  0
  1  2  2  0  0  0
  1  6  1  0  0  0
  1 29  1  0  0  0
  2  3  1  0  0  0
  2 30  1  0  0  0
  3  4  2  0  0  0
  3  7  1  0  0  0
  4  5  1  0  0  0
  4 31  1  0  0  0
  5  6  2  0  0  0
  5 32  1  0  0  0
  6 33  1  0  0  0
  7  8  1  0  0  0
  7 34  1  0  0  0
  7 35  1  0  0  0
  8  9  1  0  0  0
  8 36  1  0  0  0
  8 37  1  0  0  0
  9 10  1  0  0  0
  9 38  1  0  0  0
  9 39  1  0  0  0
 10 11  1  0  0  0
 10 40  1  0  0  0
 10 41  1  0  0  0
 11 12  1  0  0  0
 11 42  1  0  0  0
 11 43  1  0  0  0
 12 13  1  0  0  0
 12 44  1  0  0  0
 12 45  1  0  0  0
 13 14  1  0  0  0
 13 15  1  0  0  0
 13 46  1  0  0  0
 14 47  1  0  0  0
 15 16  2  0  0  0
 15 19  1  0  0  0
 16 17  1  0  0  0
 17 18  2  0  0  0
 17 48  1  0  0  0
 18 19  1  0  0  0
 18 20  1  0  0  0
 20 21  2  0  0  0
 20 25  1  0  0  0
 21 22  1  0  0  0
 22 23  2  0  0  0
 22 26  1  0  0  0
 23 24  1  0  0  0
 23 49  1  0  0  0
 24 25  2  0  0  0
 24 50  1  0  0  0
 25 51  1  0  0  0
 26 27  1  0  0  0
 26 28  2  0  0  0
M  CHG  1  27  -1
M  END
> <s_m_source_file>
../3k7f_ligand.sdf

> <i_m_source_file_index>
1

> <s_epik_input>
W2NIXTFbY0hdW2NIXVtjSF1bY0hdYzFbQ0gyXVtDSDJdW0NIMl1bQ0gyXVtDSDJdW0NIMl1bQ0BIXShbT0hdKWMybltjSF1jKG8yKS1jM25jKEMoPU8pW09IXSlbY0hdW2NIXVtjSF0z

> <s_epik_cmdline>
J2VwaWtfYXBwJywgJy1pbWFlJywgJ2xpZ2FuZF9wcm8ubWFlJywgJy1vbWFlJywgJ2xpZ2FuZF9wcmVwLm1hZScsICctbXMnLCAnMScsICctcGgnLCAnNycsICctcGh0JywgJzAuNScsICctbnQn

> <r_lp_tautomer_probability>
1

> <r_epik_Ionization_Penalty>
  0.0040

> <r_epik_Ionization_Penalty_Charging>
  0.0002

> <r_epik_Ionization_Penalty_Neutral>
  0.0038

> <r_epik_State_Penalty>
 -0.0000

> <r_epik_Charging_Adjusted_Penalty>
0.000191693622290839

> <i_epik_Tot_Q>
-1

> <i_epik_Tot_abs_Q>
1

$$$$
