3k84_ligand
                    3D
 Schrodinger Suite 2020-3.
 69 70  0  0  1  0            999 V2000
  -45.0810   -4.5670   -2.3610 C   0  0  0  0  0  0
  -45.2890   -4.7110   -3.7330 C   0  0  0  0  0  0
  -46.4020   -5.3370   -4.2920 C   0  0  0  0  0  0
  -46.3200   -5.3840   -5.8220 C   0  0  0  0  0  0
  -47.4210   -6.2670   -6.4070 C   0  0  0  0  0  0
  -47.4630   -7.6670   -5.7900 C   0  0  0  0  0  0
  -48.3180   -8.6170   -6.6350 C   0  0  0  0  0  0
  -48.4640  -10.0000   -5.9810 C   0  0  0  0  0  0
  -47.1330  -10.7560   -5.9370 C   0  0  0  0  0  0
  -46.5910  -11.0730   -7.3330 C   0  0  0  0  0  0
  -52.0980    1.0650   -1.3990 O   0  0  0  0  0  0
  -46.5020    6.3830   -3.7080 C   0  0  0  0  0  0
  -46.2620    5.0520   -3.3570 C   0  0  0  0  0  0
  -47.7100    6.9830   -3.3180 C   0  0  0  0  0  0
  -47.2280    4.3730   -2.6120 C   0  0  0  0  0  0
  -50.2780    4.8930   -0.7460 N   0  0  0  0  0  0
  -48.5370   -2.4670   -0.3520 C   0  0  0  0  0  0
  -49.8260   -2.0530   -1.0220 C   0  0  0  0  0  0
  -47.7100   -3.2800   -1.3180 C   0  0  0  0  0  0
  -50.5440   -1.0420   -0.1470 C   0  0  0  0  0  0
  -46.5590   -3.9240   -0.5590 C   0  0  0  0  0  0
  -49.9990    0.3710   -0.3870 C   0  0  0  0  0  0
  -48.6180    6.3130   -2.6110 N   0  0  0  0  0  0
  -50.9620    3.9840   -0.2590 N   0  0  0  0  0  0
  -49.4640    3.0140   -1.5440 O   0  0  0  0  0  0
  -45.9580   -5.0500   -1.3960 C   0  0  0  0  0  0
  -48.4030    5.0340   -2.2580 C   0  0  0  0  0  0
  -49.3570    4.3650   -1.5330 C   0  0  0  0  0  0
  -50.5260    2.8040   -0.7030 C   0  0  0  0  0  0
  -51.1380    1.4050   -0.3670 C   0  0  1  0  0  0
  -44.1840   -4.0480   -1.9922 H   0  0  0  0  0  0
  -44.5490   -4.3179   -4.4457 H   0  0  0  0  0  0
  -46.4685   -6.3693   -3.9179 H   0  0  0  0  0  0
  -47.3119   -4.7861   -4.0117 H   0  0  0  0  0  0
  -46.4332   -4.3674   -6.2266 H   0  0  0  0  0  0
  -45.3445   -5.7925   -6.1246 H   0  0  0  0  0  0
  -48.4000   -5.7971   -6.2313 H   0  0  0  0  0  0
  -47.2601   -6.3855   -7.4887 H   0  0  0  0  0  0
  -46.4420   -8.0720   -5.7300 H   0  0  0  0  0  0
  -47.8947   -7.6097   -4.7799 H   0  0  0  0  0  0
  -49.3239   -8.1902   -6.7618 H   0  0  0  0  0  0
  -47.8501   -8.7523   -7.6213 H   0  0  0  0  0  0
  -48.8262   -9.8812   -4.9492 H   0  0  0  0  0  0
  -49.1831  -10.6029   -6.5549 H   0  0  0  0  0  0
  -46.3821  -10.1462   -5.4132 H   0  0  0  0  0  0
  -47.2695  -11.7080   -5.4031 H   0  0  0  0  0  0
  -45.6376  -11.6141   -7.2420 H   0  0  0  0  0  0
  -46.4292  -10.1355   -7.8851 H   0  0  0  0  0  0
  -47.3167  -11.6972   -7.8750 H   0  0  0  0  0  0
  -52.6451    0.1120   -1.3488 H   0  0  0  0  0  0
  -45.7624    6.9471   -4.2762 H   0  0  0  0  0  0
  -45.3402    4.5544   -3.6584 H   0  0  0  0  0  0
  -47.9084    8.0172   -3.5994 H   0  0  0  0  0  0
  -47.0652    3.3382   -2.3107 H   0  0  0  0  0  0
  -47.9755   -1.5701   -0.0515 H   0  0  0  0  0  0
  -48.7642   -3.0726    0.5377 H   0  0  0  0  0  0
  -49.6024   -1.6009   -1.9995 H   0  0  0  0  0  0
  -50.4655   -2.9366   -1.1644 H   0  0  0  0  0  0
  -48.3386   -4.0598   -1.7727 H   0  0  0  0  0  0
  -47.3145   -2.6222   -2.1059 H   0  0  0  0  0  0
  -51.6187   -1.0519   -0.3815 H   0  0  0  0  0  0
  -50.3973   -1.3034    0.9114 H   0  0  0  0  0  0
  -45.7860   -3.1684   -0.3550 H   0  0  0  0  0  0
  -46.9306   -4.3343    0.3916 H   0  0  0  0  0  0
  -49.2758    0.6240    0.4023 H   0  0  0  0  0  0
  -49.5009    0.4103   -1.3670 H   0  0  0  0  0  0
  -46.7804   -5.5917   -1.8862 H   0  0  0  0  0  0
  -45.4207   -5.7322   -0.7208 H   0  0  0  0  0  0
  -51.6826    1.3878    0.5886 H   0  0  0  0  0  0
  1  2  2  0  0  0
  1 26  1  0  0  0
  1 31  1  0  0  0
  2  3  1  0  0  0
  2 32  1  0  0  0
  3  4  1  0  0  0
  3 33  1  0  0  0
  3 34  1  0  0  0
  4  5  1  0  0  0
  4 35  1  0  0  0
  4 36  1  0  0  0
  5  6  1  0  0  0
  5 37  1  0  0  0
  5 38  1  0  0  0
  6  7  1  0  0  0
  6 39  1  0  0  0
  6 40  1  0  0  0
  7  8  1  0  0  0
  7 41  1  0  0  0
  7 42  1  0  0  0
  8  9  1  0  0  0
  8 43  1  0  0  0
  8 44  1  0  0  0
  9 10  1  0  0  0
  9 45  1  0  0  0
  9 46  1  0  0  0
 10 47  1  0  0  0
 10 48  1  0  0  0
 10 49  1  0  0  0
 11 30  1  0  0  0
 11 50  1  0  0  0
 12 13  2  0  0  0
 12 14  1  0  0  0
 12 51  1  0  0  0
 13 15  1  0  0  0
 13 52  1  0  0  0
 14 23  2  0  0  0
 14 53  1  0  0  0
 15 27  2  0  0  0
 15 54  1  0  0  0
 16 24  1  0  0  0
 16 28  2  0  0  0
 17 18  1  0  0  0
 17 19  1  0  0  0
 17 55  1  0  0  0
 17 56  1  0  0  0
 18 20  1  0  0  0
 18 57  1  0  0  0
 18 58  1  0  0  0
 19 21  1  0  0  0
 19 59  1  0  0  0
 19 60  1  0  0  0
 20 22  1  0  0  0
 20 61  1  0  0  0
 20 62  1  0  0  0
 21 26  1  0  0  0
 21 63  1  0  0  0
 21 64  1  0  0  0
 22 30  1  0  0  0
 22 65  1  0  0  0
 22 66  1  0  0  0
 23 27  1  0  0  0
 24 29  2  0  0  0
 25 28  1  0  0  0
 25 29  1  0  0  0
 26 67  1  0  0  0
 26 68  1  0  0  0
 27 28  1  0  0  0
 29 30  1  0  0  0
 30 69  1  0  0  0
M  END
> <s_m_source_file>
../3k84_ligand.sdf

> <i_m_source_file_index>
1

> <s_epik_input>
W0NIM11bQ0gyXVtDSDJdW0NIMl1bQ0gyXVtDSDJdW0NIMl1bQ0gyXS9bQ0hdPVtDSF1cW0NIMl1bQ0gyXVtDSDJdW0NIMl1bQ0gyXVtDSDJdW0NIMl1bQ0BIXShbT0hdKWMobzEpbm5jMS1jMltjSF1bY0hdW2NIXVtjSF1uMg==

> <s_epik_cmdline>
J2VwaWtfYXBwJywgJy1pbWFlJywgJ2xpZ2FuZF9wcm8ubWFlJywgJy1vbWFlJywgJ2xpZ2FuZF9wcmVwLm1hZScsICctbXMnLCAnMScsICctcGgnLCAnNycsICctcGh0JywgJzAuNScsICctbnQn

> <r_lp_tautomer_probability>
1

> <r_epik_Ionization_Penalty>
  0.0002

> <r_epik_Ionization_Penalty_Charging>
  0.0000

> <r_epik_Ionization_Penalty_Neutral>
  0.0002

> <r_epik_State_Penalty>
 -0.0000

> <r_epik_Charging_Adjusted_Penalty>
0

> <i_epik_Tot_Q>
0

> <i_epik_Tot_abs_Q>
0

$$$$
