3k8d_ligand
                    3D
 Schrodinger Suite 2020-3.
 28 28  0  0  1  0            999 V2000
  -14.8500   61.3350  105.1950 C   0  0  0  0  0  0
  -14.1860   61.8610  104.0770 O   0  5  0  0  0  0
  -15.6540   60.4740  104.9980 O   0  0  0  0  0  0
  -14.1620   61.4360  106.6070 C   0  0  2  0  0  0
  -12.7230   62.0220  106.5640 C   0  0  0  0  0  0
  -11.6390   60.9670  106.1850 C   0  0  1  0  0  0
  -10.3410   61.4940  106.3790 O   0  0  0  0  0  0
  -11.8550   59.6140  106.9280 C   0  0  1  0  0  0
  -11.7000   59.8000  108.3120 O   0  0  0  0  0  0
  -13.3230   59.1870  106.6950 C   0  0  2  0  0  0
  -14.2380   60.1510  107.2430 O   0  0  0  0  0  0
  -13.6180   57.7870  107.3190 C   0  0  2  0  0  0
  -12.9990   56.8310  106.4760 O   0  0  0  0  0  0
  -15.1640   57.5730  107.3680 C   0  0  0  0  0  0
  -15.7480   57.7870  106.0930 O   0  0  0  0  0  0
  -14.7207   62.0981  107.2849 H   0  0  0  0  0  0
  -12.6773   62.8275  105.8162 H   0  0  0  0  0  0
  -12.4615   62.4251  107.5535 H   0  0  0  0  0  0
  -11.6374   60.7784  105.1013 H   0  0  0  0  0  0
  -10.0582   62.4469  105.9078 H   0  0  0  0  0  0
  -11.1076   58.8563  106.6500 H   0  0  0  0  0  0
  -10.7263   60.1095  108.7197 H   0  0  0  0  0  0
  -13.5217   59.1939  105.6131 H   0  0  0  0  0  0
  -13.1750   57.6258  108.3129 H   0  0  0  0  0  0
  -11.9082   56.8468  106.3346 H   0  0  0  0  0  0
  -15.3816   56.5430  107.6870 H   0  0  0  0  0  0
  -15.6096   58.2802  108.0830 H   0  0  0  0  0  0
  -16.8341   57.6749  105.9597 H   0  0  0  0  0  0
  1  2  1  0  0  0
  1  3  2  0  0  0
  1  4  1  0  0  0
  4  5  1  0  0  0
  4 11  1  0  0  0
  4 16  1  0  0  0
  5  6  1  0  0  0
  5 17  1  0  0  0
  5 18  1  0  0  0
  6  7  1  0  0  0
  6  8  1  0  0  0
  6 19  1  0  0  0
  7 20  1  0  0  0
  8  9  1  0  0  0
  8 10  1  0  0  0
  8 21  1  0  0  0
  9 22  1  0  0  0
 10 11  1  0  0  0
 10 12  1  0  0  0
 10 23  1  0  0  0
 12 13  1  0  0  0
 12 14  1  0  0  0
 12 24  1  0  0  0
 13 25  1  0  0  0
 14 15  1  0  0  0
 14 26  1  0  0  0
 14 27  1  0  0  0
 15 28  1  0  0  0
M  CHG  1   2  -1
M  END
> <s_m_source_file>
../3k8d_ligand.sdf

> <i_m_source_file_index>
1

> <s_epik_input>
W09IXUMoPU8pW0NAQEhdMVtDSDJdW0NAQEhdKFtPSF0pW0NAQEhdKFtPSF0pW0NASF0oTzEpW0NASF0oW09IXSlbQ0gyXVtPSF0=

> <s_epik_cmdline>
J2VwaWtfYXBwJywgJy1pbWFlJywgJ2xpZ2FuZF9wcm8ubWFlJywgJy1vbWFlJywgJ2xpZ2FuZF9wcmVwLm1hZScsICctbXMnLCAnMScsICctcGgnLCAnNycsICctcGh0JywgJzAuNScsICctbnQn

> <r_lp_tautomer_probability>
1

> <r_epik_Ionization_Penalty>
  0.0001

> <r_epik_Ionization_Penalty_Charging>
  0.0001

> <r_epik_Ionization_Penalty_Neutral>
  0.0000

> <r_epik_State_Penalty>
 -0.0000

> <r_epik_Charging_Adjusted_Penalty>
0.000112584510964622

> <i_epik_Tot_Q>
-1

> <i_epik_Tot_abs_Q>
1

$$$$
