3k8o_ligand
                    3D
 Schrodinger Suite 2020-3.
 34 35  0  0  1  0            999 V2000
  -44.5540   -1.1850   -0.6890 O   0  0  0  0  0  0
  -43.2180   -1.6590   -0.8700 C   0  0  0  0  0  0
  -43.1120   -2.3930   -2.2130 C   0  0  1  0  0  0
  -44.0800   -3.4520   -2.2870 O   0  0  0  0  0  0
  -43.2790   -1.4640   -3.4150 C   0  0  1  0  0  0
  -43.2310   -2.3160   -4.6770 C   0  0  0  0  0  0
  -42.9040   -1.5390   -5.8410 O   0  0  0  0  0  0
  -44.5590   -0.8100   -3.3010 N   0  0  1  0  0  0
  -44.8600    0.3600   -4.0870 C   0  0  0  0  0  0
  -44.6800    1.5640   -3.2090 C   0  0  0  0  0  0
  -43.4410    2.3030   -2.9820 C   0  0  0  0  0  0
  -42.1980    2.0970   -3.4680 N   0  0  0  0  0  0
  -41.2170    2.9300   -3.0980 C   0  0  0  0  0  0
  -41.4320    3.9730   -2.2520 N   0  0  0  0  0  0
  -45.6340    2.2190   -2.4510 C   0  0  0  0  0  0
  -45.0800    3.2720   -1.7910 N   0  0  0  0  0  0
  -43.7690    3.3730   -2.0600 C   0  0  3  0  0  0
  -42.6250    4.2520   -1.6950 C   0  0  0  0  0  0
  -42.7550    5.2230   -0.9150 O   0  0  0  0  0  0
  -44.8223   -0.6310    0.2227 H   0  0  0  0  0  0
  -42.5225   -0.8069   -0.8625 H   0  0  0  0  0  0
  -42.9603   -2.3499   -0.0537 H   0  0  0  0  0  0
  -42.1241   -2.8738   -2.2663 H   0  0  0  0  0  0
  -44.1128   -4.2230   -1.5031 H   0  0  0  0  0  0
  -42.5239   -0.6650   -3.4533 H   0  0  0  0  0  0
  -42.4671   -3.0991   -4.5619 H   0  0  0  0  0  0
  -44.2131   -2.7832   -4.8416 H   0  0  0  0  0  0
  -42.8344   -2.0254   -6.8252 H   0  0  0  0  0  0
  -45.3572   -1.5165   -3.5726 H   0  0  0  0  0  0
  -44.1759    0.4100   -4.9469 H   0  0  0  0  0  0
  -45.8978    0.3029   -4.4470 H   0  0  0  0  0  0
  -40.1963    2.7821   -3.4806 H   0  0  0  0  0  0
  -40.6034    4.6464   -1.9875 H   0  0  0  0  0  0
  -46.7052    1.9984   -2.3337 H   0  0  0  0  0  0
  1  2  1  0  0  0
  1 20  1  0  0  0
  2  3  1  0  0  0
  2 21  1  0  0  0
  2 22  1  0  0  0
  3  4  1  0  0  0
  3  5  1  0  0  0
  3 23  1  0  0  0
  4 24  1  0  0  0
  5  6  1  0  0  0
  5  8  1  0  0  0
  5 25  1  0  0  0
  6  7  1  0  0  0
  6 26  1  0  0  0
  6 27  1  0  0  0
  7 28  1  0  0  0
  8  9  1  0  0  0
  8 29  1  0  0  0
  9 10  1  0  0  0
  9 30  1  0  0  0
  9 31  1  0  0  0
 10 11  2  0  0  0
 10 15  1  0  0  0
 11 12  1  0  0  0
 11 17  1  0  0  0
 12 13  2  0  0  0
 13 14  1  0  0  0
 13 32  1  0  0  0
 14 18  1  0  0  0
 14 33  1  0  0  0
 15 16  2  0  0  0
 15 34  1  0  0  0
 16 17  1  0  0  0
 17 18  1  0  0  0
 18 19  2  0  0  0
M  END
> <s_m_source_file>
../3k8o_ligand.sdf

> <i_m_source_file_index>
1

> <s_epik_input>
W09IXVtDSDJdW0NAQEhdKFtPSF0pW0NAQEhdKFtDSDJdW09IXSlbTkgyK11bQ0gyXUM9MVtDSF09TltDSF0oQzEyKUMoPU8pW05IXVtDSF09TjI=

> <s_epik_cmdline>
J2VwaWtfYXBwJywgJy1pbWFlJywgJ2xpZ2FuZF9wcm8ubWFlJywgJy1vbWFlJywgJ2xpZ2FuZF9wcmVwLm1hZScsICctbXMnLCAnMScsICctcGgnLCAnNycsICctcGh0JywgJzAuNScsICctbnQn

> <r_lp_tautomer_probability>
1

> <r_epik_Ionization_Penalty>
  0.0005

> <r_epik_Ionization_Penalty_Charging>
  0.0000

> <r_epik_Ionization_Penalty_Neutral>
  0.0005

> <r_epik_State_Penalty>
 -0.0000

> <r_epik_Charging_Adjusted_Penalty>
0

> <i_epik_Tot_Q>
0

> <i_epik_Tot_abs_Q>
0

> <s_epik_Chemistry_Notes>
This compound has an imine and may undergo hydrolysis.

$$$$
