3k8q_ligand
                    3D
 Schrodinger Suite 2020-3.
 31 32  0  0  1  0            999 V2000
   13.5820    8.6130   55.8030 N   0  0  0  0  0  0
   12.8260    8.9380   56.8700 C   0  0  0  0  0  0
   12.9660   10.1000   57.5260 N   0  0  0  0  0  0
   13.9120   10.9840   57.1120 C   0  0  0  0  0  0
   14.6340   10.7580   55.9170 C   0  0  0  0  0  0
   14.5560    9.4240   55.3290 C   0  0  0  0  0  0
   15.2240    9.1190   54.3140 O   0  0  0  0  0  0
   15.6390   11.7880   55.7830 N   0  3  0  0  0  0
   15.2810   12.6930   56.7570 C   0  0  0  0  0  0
   14.2300   12.2470   57.5760 C   0  0  0  0  0  0
   14.6380   12.8270   59.8540 N   0  0  1  0  0  0
   13.6670   12.9790   58.7680 C   0  0  0  0  0  0
   14.8310   11.5130   60.4760 C   0  0  0  0  0  0
   13.9640   11.3940   61.7230 C   0  0  0  0  0  0
   16.2940   11.1840   60.8190 C   0  0  0  0  0  0
   17.1840   12.3160   60.7860 O   0  0  0  0  0  0
   13.9400   12.6120   62.4980 O   0  0  0  0  0  0
   13.4179    7.6576   55.2832 H   0  0  0  0  0  0
   12.0719    8.2298   57.2133 H   0  0  0  0  0  0
   15.7317   13.6814   56.9300 H   0  0  0  0  0  0
   15.6393   13.1032   59.4919 H   0  0  0  0  0  0
   13.5274   14.0402   58.5142 H   0  0  0  0  0  0
   12.6983   12.5378   59.0452 H   0  0  0  0  0  0
   14.5050   10.8125   59.6930 H   0  0  0  0  0  0
   12.9302   11.1588   61.4297 H   0  0  0  0  0  0
   14.3544   10.5913   62.3658 H   0  0  0  0  0  0
   16.3471   10.7647   61.8346 H   0  0  0  0  0  0
   16.6834   10.4498   60.0984 H   0  0  0  0  0  0
   18.2513   12.1834   61.0167 H   0  0  0  0  0  0
   13.3505   12.6623   63.4254 H   0  0  0  0  0  0
   16.4263   11.6924   55.0208 H   0  0  0  0  0  0
  1  2  1  0  0  0
  1  6  1  0  0  0
  1 18  1  0  0  0
  2  3  2  0  0  0
  2 19  1  0  0  0
  3  4  1  0  0  0
  4  5  2  0  0  0
  4 10  1  0  0  0
  5  6  1  0  0  0
  5  8  1  0  0  0
  6  7  2  0  0  0
  8  9  1  0  0  0
  8 31  1  0  0  0
  9 10  2  0  0  0
  9 20  1  0  0  0
 10 12  1  0  0  0
 11 12  1  0  0  0
 11 13  1  0  0  0
 11 21  1  0  0  0
 12 22  1  0  0  0
 12 23  1  0  0  0
 13 14  1  0  0  0
 13 15  1  0  0  0
 13 24  1  0  0  0
 14 17  1  0  0  0
 14 25  1  0  0  0
 14 26  1  0  0  0
 15 16  1  0  0  0
 15 27  1  0  0  0
 15 28  1  0  0  0
 16 29  1  0  0  0
 17 30  1  0  0  0
M  CHG  1   8   1
M  END
> <s_m_source_file>
../3k8q_ligand.sdf

> <i_m_source_file_index>
1

> <s_epik_input>
bjFbY0hdW25IXWMoPU8pYyhjMTIpW25IXVtjSF1jMltDSDJdW05IMitdW0NIXShbQ0gyXVtPSF0pW0NIMl1bT0hd

> <s_epik_cmdline>
J2VwaWtfYXBwJywgJy1pbWFlJywgJ2xpZ2FuZF9wcm8ubWFlJywgJy1vbWFlJywgJ2xpZ2FuZF9wcmVwLm1hZScsICctbXMnLCAnMScsICctcGgnLCAnNycsICctcGh0JywgJzAuNScsICctbnQn

> <r_epik_Ionization_Penalty>
  0.1794

> <r_epik_Ionization_Penalty_Charging>
  0.0000

> <r_epik_Ionization_Penalty_Neutral>
  0.1794

> <r_epik_State_Penalty>
  0.1686

> <r_epik_Charging_Adjusted_Penalty>
0.168614506850625

> <i_epik_Tot_Q>
1

> <i_epik_Tot_abs_Q>
1

$$$$
