3k97_ligand
                    3D
 Schrodinger Suite 2020-3.
 40 42  0  0  1  0            999 V2000
   67.4650   78.9670   22.8120 N   0  0  0  0  0  0
   67.9820   79.8930   23.8650 C   0  0  1  0  0  0
   69.4610   79.6540   24.3000 C   0  0  0  0  0  0
   70.4200   79.0410   23.4040 C   0  0  0  0  0  0
   71.7620   78.8180   23.7990 C   0  0  0  0  0  0
   72.1930   79.1950   25.0890 C   0  0  0  0  0  0
   69.9230   80.0350   25.6240 C   0  0  0  0  0  0
   68.3240   76.4470   24.7470 C   0  0  0  0  0  0
   67.1970   75.5530   26.7450 C   0  0  0  0  0  0
   65.8860   76.6740   24.9940 C   0  0  0  0  0  0
   67.8230   81.2830   23.2210 C   0  0  0  0  0  0
   67.9440   81.0460   21.7170 C   0  0  0  0  0  0
   67.3770   79.6480   21.5120 C   0  0  0  0  0  0
   71.2850   79.7960   25.9920 C   0  0  0  0  0  0
   69.0280   80.6810   26.6570 C   0  0  0  0  0  0
   67.0680   76.9080   24.2400 C   0  0  0  0  0  0
   68.3880   75.7710   25.9980 C   0  0  0  0  0  0
   65.9470   76.0010   26.2440 C   0  0  0  0  0  0
   64.6610   77.0720   24.5790 O   0  0  0  0  0  0
   67.2480   74.9130   27.9510 O   0  5  0  0  0  0
   67.0050   77.6310   22.9250 C   0  0  0  0  0  0
   66.5210   77.0000   21.9840 O   0  0  0  0  0  0
   69.9240   75.2350   26.5690 Cl  0  0  0  0  0  0
   67.3981   79.7294   24.7827 H   0  0  0  0  0  0
   70.1022   78.7449   22.4043 H   0  0  0  0  0  0
   72.4632   78.3543   23.1052 H   0  0  0  0  0  0
   73.2265   79.0229   25.3897 H   0  0  0  0  0  0
   69.2354   76.6141   24.1730 H   0  0  0  0  0  0
   66.8401   81.6997   23.4861 H   0  0  0  0  0  0
   68.6157   81.9507   23.5894 H   0  0  0  0  0  0
   67.3643   81.8096   21.1777 H   0  0  0  0  0  0
   69.0011   81.1103   21.4195 H   0  0  0  0  0  0
   67.9634   79.0915   20.7661 H   0  0  0  0  0  0
   66.3255   79.6933   21.1922 H   0  0  0  0  0  0
   71.6290   80.0822   26.9859 H   0  0  0  0  0  0
   68.0171   80.8036   26.2410 H   0  0  0  0  0  0
   69.4344   81.6662   26.9295 H   0  0  0  0  0  0
   68.9814   80.0432   27.5520 H   0  0  0  0  0  0
   65.0357   75.8292   26.8168 H   0  0  0  0  0  0
   64.5494   77.5980   23.6194 H   0  0  0  0  0  0
  1  2  1  0  0  0
  1 13  1  0  0  0
  1 21  1  0  0  0
  2  3  1  0  0  0
  2 11  1  0  0  0
  2 24  1  0  0  0
  3  4  2  0  0  0
  3  7  1  0  0  0
  4  5  1  0  0  0
  4 25  1  0  0  0
  5  6  2  0  0  0
  5 26  1  0  0  0
  6 14  1  0  0  0
  6 27  1  0  0  0
  7 14  2  0  0  0
  7 15  1  0  0  0
  8 16  2  0  0  0
  8 17  1  0  0  0
  8 28  1  0  0  0
  9 17  2  0  0  0
  9 18  1  0  0  0
  9 20  1  0  0  0
 10 16  1  0  0  0
 10 18  2  0  0  0
 10 19  1  0  0  0
 11 12  1  0  0  0
 11 29  1  0  0  0
 11 30  1  0  0  0
 12 13  1  0  0  0
 12 31  1  0  0  0
 12 32  1  0  0  0
 13 33  1  0  0  0
 13 34  1  0  0  0
 14 35  1  0  0  0
 15 36  1  0  0  0
 15 37  1  0  0  0
 15 38  1  0  0  0
 16 21  1  0  0  0
 17 23  1  0  0  0
 18 39  1  0  0  0
 19 40  1  0  0  0
 21 22  2  0  0  0
M  CHG  1  20  -1
M  END
> <s_m_source_file>
../3k97_ligand.sdf

> <i_m_source_file_index>
1

> <s_epik_input>
W09IXWMxYyhDbClbY0hdYyhjKFtjSF0xKVtPSF0pQyg9TylOMltDQEhdKFtDSDJdW0NIMl1bQ0gyXTIpYzNbY0hdW2NIXVtjSF1bY0hdYzNbQ0gzXQ==

> <s_epik_cmdline>
J2VwaWtfYXBwJywgJy1pbWFlJywgJ2xpZ2FuZF9wcm8ubWFlJywgJy1vbWFlJywgJ2xpZ2FuZF9wcmVwLm1hZScsICctbXMnLCAnMScsICctcGgnLCAnNycsICctcGh0JywgJzAuNScsICctbnQn

> <r_lp_tautomer_probability>
1

> <r_epik_Ionization_Penalty>
  0.2881

> <r_epik_Ionization_Penalty_Charging>
  0.2830

> <r_epik_Ionization_Penalty_Neutral>
  0.0051

> <r_epik_State_Penalty>
 -0.0000

> <r_epik_Charging_Adjusted_Penalty>
0.283039847116257

> <i_epik_Tot_Q>
-1

> <i_epik_Tot_abs_Q>
1

$$$$
