3k98_ligand
                    3D
 Schrodinger Suite 2020-3.
 41 43  0  0  1  0            999 V2000
   16.6200   -3.0070   50.7400 N   0  0  0  0  0  0
   17.4940   -2.8140   54.3950 C   0  0  0  0  0  0
   17.2390   -3.0700   53.0220 C   0  0  0  0  0  0
   17.6420   -4.2930   52.4180 C   0  0  0  0  0  0
   17.2630   -4.3190   50.9710 C   0  0  0  0  0  0
   16.5500   -2.1880   52.0110 C   0  0  2  0  0  0
   15.6290   -1.2800   49.2250 C   0  0  0  0  0  0
   14.5590    1.3200   48.9020 C   0  0  0  0  0  0
   16.4800   -0.1950   48.8460 C   0  0  0  0  0  0
   12.8770   -3.0860   52.8820 C   0  0  0  0  0  0
   18.1660   -3.8070   55.1530 C   0  0  0  0  0  0
   18.5670   -5.0320   54.5400 C   0  0  0  0  0  0
   18.3030   -5.2810   53.1630 C   0  0  0  0  0  0
   16.2080   -2.6440   49.4180 C   0  0  0  0  0  0
   14.2440   -1.0610   49.4310 C   0  0  0  0  0  0
   13.7150    0.2360   49.2700 C   0  0  0  0  0  0
   15.9450    1.1040   48.6850 C   0  0  0  0  0  0
   17.8210   -0.4140   48.6430 O   0  0  0  0  0  0
   14.0310    2.5820   48.7560 O   0  5  0  0  0  0
   12.0410    0.4630   49.5390 Cl  0  0  0  0  0  0
   16.3190   -3.3590   48.4220 O   0  0  0  0  0  0
   15.0980   -1.9600   52.5160 C   0  0  0  0  0  0
   14.2750   -3.0800   52.4530 N   0  0  0  0  0  0
   11.9010   -2.7960   51.7640 C   0  0  0  0  0  0
   14.7350   -0.8640   52.9300 O   0  0  0  0  0  0
   17.1809   -1.8770   54.8556 H   0  0  0  0  0  0
   16.5466   -5.1230   50.7466 H   0  0  0  0  0  0
   18.1414   -4.4172   50.3162 H   0  0  0  0  0  0
   17.0131   -1.2037   51.8473 H   0  0  0  0  0  0
   12.6235   -4.0748   53.2918 H   0  0  0  0  0  0
   12.7277   -2.3190   53.6562 H   0  0  0  0  0  0
   18.3771   -3.6338   56.2082 H   0  0  0  0  0  0
   19.0822   -5.7870   55.1338 H   0  0  0  0  0  0
   18.6078   -6.2186   52.6981 H   0  0  0  0  0  0
   13.5928   -1.8888   49.7117 H   0  0  0  0  0  0
   16.5917    1.9327   48.3966 H   0  0  0  0  0  0
   18.2384   -1.4240   48.7679 H   0  0  0  0  0  0
   14.7315   -3.9974   52.0531 H   0  0  0  0  0  0
   10.8745   -2.8170   52.1588 H   0  0  0  0  0  0
   12.0071   -3.5580   50.9778 H   0  0  0  0  0  0
   12.1114   -1.8021   51.3422 H   0  0  0  0  0  0
  1  5  1  0  0  0
  1  6  1  0  0  0
  1 14  1  0  0  0
  2  3  2  0  0  0
  2 11  1  0  0  0
  2 26  1  0  0  0
  3  4  1  0  0  0
  3  6  1  0  0  0
  4  5  1  0  0  0
  4 13  2  0  0  0
  5 27  1  0  0  0
  5 28  1  0  0  0
  6 22  1  0  0  0
  6 29  1  0  0  0
  7  9  2  0  0  0
  7 14  1  0  0  0
  7 15  1  0  0  0
  8 16  1  0  0  0
  8 17  2  0  0  0
  8 19  1  0  0  0
  9 17  1  0  0  0
  9 18  1  0  0  0
 10 23  1  0  0  0
 10 24  1  0  0  0
 10 30  1  0  0  0
 10 31  1  0  0  0
 11 12  2  0  0  0
 11 32  1  0  0  0
 12 13  1  0  0  0
 12 33  1  0  0  0
 13 34  1  0  0  0
 14 21  2  0  0  0
 15 16  2  0  0  0
 15 35  1  0  0  0
 16 20  1  0  0  0
 17 36  1  0  0  0
 18 37  1  0  0  0
 22 23  1  0  0  0
 22 25  2  0  0  0
 23 38  1  0  0  0
 24 39  1  0  0  0
 24 40  1  0  0  0
 24 41  1  0  0  0
M  CHG  1  19  -1
M  END
> <s_m_source_file>
../3k98_ligand.sdf

> <i_m_source_file_index>
1

> <s_epik_input>
W2NIXTFbY0hdW2NIXVtjSF1jKGMxMilbQ0gyXU4oW0NASF0yQyg9TylbTkhdW0NIMl1bQ0gzXSlDKD1PKWMzYyhbT0hdKVtjSF1jKFtPSF0pYyhDbClbY0hdMw==

> <s_epik_cmdline>
J2VwaWtfYXBwJywgJy1pbWFlJywgJ2xpZ2FuZF9wcm8ubWFlJywgJy1vbWFlJywgJ2xpZ2FuZF9wcmVwLm1hZScsICctbXMnLCAnMScsICctcGgnLCAnNycsICctcGh0JywgJzAuNScsICctbnQn

> <r_lp_tautomer_probability>
1

> <r_epik_Ionization_Penalty>
  0.2260

> <r_epik_Ionization_Penalty_Charging>
  0.2188

> <r_epik_Ionization_Penalty_Neutral>
  0.0072

> <r_epik_State_Penalty>
 -0.0000

> <r_epik_Charging_Adjusted_Penalty>
0.218794728952372

> <i_epik_Tot_Q>
-1

> <i_epik_Tot_abs_Q>
1

$$$$
