3k9x_ligand
                    3D
 Schrodinger Suite 2020-3.
 71 75  0  0  1  0            999 V2000
   -3.4890    8.5340   24.8720 C   0  0  0  0  0  0
    3.0780    6.0130   25.5820 N   0  0  0  0  0  0
    0.8180    6.3350   24.0420 O   0  0  0  0  0  0
   -2.9220    7.9800   23.7230 C   0  0  0  0  0  0
   -2.8700    8.5350   26.0810 N   0  0  0  0  0  0
    8.3070    4.7780   26.6490 O   0  0  0  0  0  0
   -1.6400    7.4410   23.8270 C   0  0  0  0  0  0
    1.1840    7.4420   26.0400 N   0  3  0  0  0  0
    3.9920   12.6780   28.3460 O   0  0  0  0  0  0
    2.3670    6.8890   26.3660 C   0  0  0  0  0  0
    2.9510    7.4920   27.4810 N   0  0  0  0  0  0
    4.5110    8.9200   28.7340 O   0  0  0  0  0  0
    0.4170    6.9750   25.0120 C   0  0  0  0  0  0
    5.4050   13.2200   29.9820 N   0  0  0  0  0  0
   -1.6150    8.0060   26.1600 C   0  0  0  0  0  0
    2.9600   10.5040   29.4180 N   0  0  0  0  0  0
   -0.9680    7.4740   25.0490 C   0  0  0  0  0  0
    8.8510    4.8850   25.3750 C   0  0  0  0  0  0
    7.8950    5.2090   24.4340 C   0  0  0  0  0  0
   10.3080    4.6970   25.2640 C   0  0  0  0  0  0
    4.3890    5.6510   25.9040 C   0  0  0  0  0  0
    5.3300    5.6960   24.8320 C   0  0  0  0  0  0
    6.6380    5.3730   25.1750 C   0  0  0  0  0  0
    4.7240    5.3750   27.2480 C   0  0  0  0  0  0
    6.0590    5.0650   27.5920 C   0  0  0  0  0  0
    6.9590    5.0690   26.5430 C   0  0  0  0  0  0
    5.8440   14.4190   29.2670 C   0  0  0  0  0  0
    4.0080   11.1810   30.2320 C   0  0  0  0  0  0
    4.3940   12.4460   29.4730 C   0  0  0  0  0  0
    6.1930   12.9310   31.2040 C   0  0  0  0  0  0
    7.0860   14.8790   30.0230 C   0  0  0  0  0  0
    7.0700   14.2050   31.3690 C   0  0  0  0  0  0
    1.2450    7.9250   29.2070 C   0  0  0  0  0  0
    3.3330    9.3290   28.7980 C   0  0  0  0  0  0
    2.2000    8.5680   28.1720 C   0  0  1  0  0  0
    1.5500   10.9460   29.5640 C   0  0  0  0  0  0
    0.1100    8.8470   29.7170 C   0  0  0  0  0  0
    0.6990   10.0380   30.4980 C   0  0  0  0  0  0
   -4.4769    8.9881   24.7952 H   0  0  0  0  0  0
    2.6166    5.5821   24.6812 H   0  0  0  0  0  0
   -3.4629    7.9691   22.7767 H   0  0  0  0  0  0
   -1.1635    6.9944   22.9543 H   0  0  0  0  0  0
    3.9418    7.1884   27.8501 H   0  0  0  0  0  0
   -1.1037    7.9999   27.1226 H   0  0  0  0  0  0
    8.0428    5.3204   23.3598 H   0  0  0  0  0  0
   10.7211    4.4421   26.2511 H   0  0  0  0  0  0
   10.7711    5.6267   24.9017 H   0  0  0  0  0  0
   10.5196    3.8819   24.5563 H   0  0  0  0  0  0
    5.0432    5.9648   23.8153 H   0  0  0  0  0  0
    3.9538    5.4011   28.0188 H   0  0  0  0  0  0
    6.3587    4.8381   28.6151 H   0  0  0  0  0  0
    6.0713   14.1603   28.2223 H   0  0  0  0  0  0
    5.0446   15.1742   29.2921 H   0  0  0  0  0  0
    3.6004   11.4261   31.2239 H   0  0  0  0  0  0
    4.8731   10.5112   30.3463 H   0  0  0  0  0  0
    5.5103   12.7764   32.0525 H   0  0  0  0  0  0
    6.7938   12.0231   31.0467 H   0  0  0  0  0  0
    7.9858   14.5916   29.4593 H   0  0  0  0  0  0
    7.0602   15.9725   30.1397 H   0  0  0  0  0  0
    6.6264   14.8589   32.1343 H   0  0  0  0  0  0
    8.0847   13.9141   31.6786 H   0  0  0  0  0  0
    0.7578    7.0460   28.7598 H   0  0  0  0  0  0
    1.8191    7.6151   30.0927 H   0  0  0  0  0  0
    1.5806    9.2068   27.5252 H   0  0  0  0  0  0
    1.5259   11.9614   29.9864 H   0  0  0  0  0  0
    1.0622   10.9474   28.5781 H   0  0  0  0  0  0
   -0.4653    9.2284   28.8605 H   0  0  0  0  0  0
   -0.5558    8.2761   30.3809 H   0  0  0  0  0  0
    1.3325    9.6508   31.3096 H   0  0  0  0  0  0
   -0.1274   10.6244   30.9259 H   0  0  0  0  0  0
    0.8033    8.3023   26.6101 H   0  0  0  0  0  0
  1  4  2  0  0  0
  1  5  1  0  0  0
  1 39  1  0  0  0
  2 10  1  0  0  0
  2 21  1  0  0  0
  2 40  1  0  0  0
  3 13  2  0  0  0
  4  7  1  0  0  0
  4 41  1  0  0  0
  5 15  2  0  0  0
  6 18  1  0  0  0
  6 26  1  0  0  0
  7 17  2  0  0  0
  7 42  1  0  0  0
  8 10  2  0  0  0
  8 13  1  0  0  0
  8 71  1  0  0  0
  9 29  2  0  0  0
 10 11  1  0  0  0
 11 35  1  0  0  0
 11 43  1  0  0  0
 12 34  2  0  0  0
 13 17  1  0  0  0
 14 27  1  0  0  0
 14 29  1  0  0  0
 14 30  1  0  0  0
 15 17  1  0  0  0
 15 44  1  0  0  0
 16 28  1  0  0  0
 16 34  1  0  0  0
 16 36  1  0  0  0
 18 19  2  0  0  0
 18 20  1  0  0  0
 19 23  1  0  0  0
 19 45  1  0  0  0
 20 46  1  0  0  0
 20 47  1  0  0  0
 20 48  1  0  0  0
 21 22  1  0  0  0
 21 24  2  0  0  0
 22 23  2  0  0  0
 22 49  1  0  0  0
 23 26  1  0  0  0
 24 25  1  0  0  0
 24 50  1  0  0  0
 25 26  2  0  0  0
 25 51  1  0  0  0
 27 31  1  0  0  0
 27 52  1  0  0  0
 27 53  1  0  0  0
 28 29  1  0  0  0
 28 54  1  0  0  0
 28 55  1  0  0  0
 30 32  1  0  0  0
 30 56  1  0  0  0
 30 57  1  0  0  0
 31 32  1  0  0  0
 31 58  1  0  0  0
 31 59  1  0  0  0
 32 60  1  0  0  0
 32 61  1  0  0  0
 33 35  1  0  0  0
 33 37  1  0  0  0
 33 62  1  0  0  0
 33 63  1  0  0  0
 34 35  1  0  0  0
 35 64  1  0  0  0
 36 38  1  0  0  0
 36 65  1  0  0  0
 36 66  1  0  0  0
 37 38  1  0  0  0
 37 67  1  0  0  0
 37 68  1  0  0  0
 38 69  1  0  0  0
 38 70  1  0  0  0
M  CHG  1   8   1
M  END
> <s_m_source_file>
../3k9x_ligand.sdf

> <i_m_source_file_index>
1

> <s_epik_input>
W2NIXTFuW2NIXVtjSF1bY0hdYzFDKD1PKS9OPUMoXFtOSF1jKFtjSF0yKVtjSF1bY0hdYyhjMjMpb2MoW2NIXTMpW0NIM10pW05IXVtDQEBIXShbQ0gyXVtDSDJdW0NIMl1bQ0gyXTQpQyg9TylONFtDSDJdQyg9TylONVtDSDJdW0NIMl1bQ0gyXVtDSDJdNQ==

> <s_epik_cmdline>
J2VwaWtfYXBwJywgJy1pbWFlJywgJ2xpZ2FuZF9wcm8ubWFlJywgJy1vbWFlJywgJ2xpZ2FuZF9wcmVwLm1hZScsICctbXMnLCAnMScsICctcGgnLCAnNycsICctcGh0JywgJzAuNScsICctbnQn

> <r_lp_tautomer_probability>
1

> <r_epik_Ionization_Penalty>
  0.0023

> <r_epik_Ionization_Penalty_Charging>
  0.0019

> <r_epik_Ionization_Penalty_Neutral>
  0.0004

> <r_epik_State_Penalty>
 -0.0000

> <r_epik_Charging_Adjusted_Penalty>
0.00189101930758654

> <i_epik_Tot_Q>
1

> <i_epik_Tot_abs_Q>
1

> <s_epik_Chemistry_Notes>
This compound has an imine and may undergo hydrolysis.

$$$$
