3ka2_ligand
                    3D
 Schrodinger Suite 2020-3.
126125  0  0  1  0            999 V2000
    6.6430    3.7890    8.2830 C   0  0  0  0  0  0
    7.3770    4.6520    8.7590 O   0  0  0  0  0  0
    6.9890    3.1190    6.9840 C   0  0  0  0  0  0
    5.3890    3.5700    8.6950 N   0  0  0  0  0  0
    4.5990    4.4880    9.5140 C   0  0  2  0  0  0
    3.8840    3.7660   10.6680 C   0  0  0  0  0  0
    3.4490    4.3990   11.6290 O   0  0  0  0  0  0
    3.5150    5.2470    8.6990 C   0  0  2  0  0  0
    2.5020    4.3440    8.2210 O   0  0  0  0  0  0
    4.1230    6.0280    7.5390 C   0  0  0  0  0  0
    3.7410    2.4500   10.5710 N   0  0  0  0  0  0
    3.1920    1.6740   11.6860 C   0  0  2  0  0  0
    4.2560    0.7440   12.2780 C   0  0  0  0  0  0
    4.6720   -0.2530   11.6730 O   0  0  0  0  0  0
    1.9430    0.8570   11.2680 C   0  0  2  0  0  0
    0.9070    1.7550   10.5830 C   0  0  0  0  0  0
    1.3310    0.1070   12.4730 C   0  0  0  0  0  0
    0.5930    3.0520   11.3120 C   0  0  0  0  0  0
    5.2850    1.0370   13.0440 N   0  0  0  0  0  0
    6.4100    0.3360   13.6340 C   0  0  2  0  0  0
    6.0270   -0.2220   14.9890 C   0  0  0  0  0  0
    7.6150    1.2730   13.7230 C   0  0  0  0  0  0
    8.2520    1.5300   12.3500 C   0  0  0  0  0  0
    8.3210    0.2760   11.4770 C   0  0  0  0  0  0
    9.7240    0.0240   11.0020 C   0  0  0  0  0  0
    4.9850   -1.2200   14.8280 N   0  3  0  0  0  0
    5.0020   -2.3190   15.7890 C   0  0  2  0  0  0
    6.1700   -3.2230   15.4860 C   0  0  0  0  0  0
    6.6100   -3.3090   14.3570 O   0  0  0  0  0  0
    3.6970   -3.0940   15.6210 C   0  0  0  0  0  0
    3.5490   -4.3990   16.4160 C   0  0  0  0  0  0
    3.2780   -5.5890   15.4830 C   0  0  0  0  0  0
    1.8620   -5.5830   14.9490 C   0  0  0  0  0  0
    6.4420   -3.8360   16.6210 N   0  0  0  0  0  0
    7.4600   -4.8480   16.3440 C   0  0  2  0  0  0
    7.4710   -5.9040   17.4440 C   0  0  0  0  0  0
    7.5990   -5.5980   18.6260 O   0  0  0  0  0  0
    8.8420   -4.2100   16.2130 C   0  0  0  0  0  0
    9.9800   -5.2050   16.0190 C   0  0  0  0  0  0
   10.4850   -5.8120   17.3200 C   0  0  0  0  0  0
   10.5850   -5.1200   18.3240 O   0  0  0  0  0  0
   10.8100   -7.1060   17.3050 N   0  0  0  0  0  0
    7.3310   -7.1630   17.0490 N   0  0  0  0  0  0
    7.3190   -8.2530   17.9980 C   0  0  2  0  0  0
    8.5960   -9.0500   17.7640 C   0  0  1  0  0  0
    8.8530   -9.5160   16.6400 O   0  0  0  0  0  0
    6.0960   -9.1580   17.8070 C   0  0  0  0  0  0
    4.7750   -8.4830   17.4120 C   0  0  0  0  0  0
    4.2360   -9.0430   16.0700 C   0  0  0  0  0  0
    3.1760  -10.0620   16.1310 N   0  0  0  0  0  0
    3.2660  -11.2920   16.6510 C   0  0  0  0  0  0
    4.3620  -11.7290   17.2540 N   0  3  0  0  0  0
    2.2150  -12.1020   16.5920 N   0  0  0  0  0  0
    9.7670   -8.4420   17.9390 N   0  3  0  0  0  0
    8.0316    3.3490    6.7192 H   0  0  0  0  0  0
    6.3199    3.4867    6.1922 H   0  0  0  0  0  0
    6.8689    2.0307    7.0894 H   0  0  0  0  0  0
    4.9567    2.6123    8.3696 H   0  0  0  0  0  0
    5.3790    5.1691    9.8851 H   0  0  0  0  0  0
    2.9752    5.9474    9.3533 H   0  0  0  0  0  0
    1.9595    3.7011    8.9298 H   0  0  0  0  0  0
    4.8943    6.7124    7.9221 H   0  0  0  0  0  0
    3.3359    6.6079    7.0349 H   0  0  0  0  0  0
    4.5774    5.3271    6.8233 H   0  0  0  0  0  0
    4.0393    1.9424    9.6419 H   0  0  0  0  0  0
    2.9061    2.4368   12.4252 H   0  0  0  0  0  0
    2.2557    0.1008   10.5329 H   0  0  0  0  0  0
    1.2698    2.0370    9.5836 H   0  0  0  0  0  0
   -0.0442    1.2108   10.4876 H   0  0  0  0  0  0
    2.0999   -0.5263   12.9397 H   0  0  0  0  0  0
    0.4973   -0.5224   12.1282 H   0  0  0  0  0  0
    0.9603    0.8359   13.2087 H   0  0  0  0  0  0
   -0.1566    3.6206   10.7422 H   0  0  0  0  0  0
    1.5113    3.6499   11.4085 H   0  0  0  0  0  0
    0.1973    2.8236   12.3126 H   0  0  0  0  0  0
    5.1562    2.1154   13.2183 H   0  0  0  0  0  0
    6.6464   -0.5067   12.9677 H   0  0  0  0  0  0
    6.9080   -0.6856   15.4569 H   0  0  0  0  0  0
    5.6574    0.5922   15.6297 H   0  0  0  0  0  0
    7.2972    2.2405   14.1388 H   0  0  0  0  0  0
    8.3792    0.8265   14.3761 H   0  0  0  0  0  0
    7.6613    2.2823   11.8068 H   0  0  0  0  0  0
    9.2795    1.8987   12.4857 H   0  0  0  0  0  0
    7.9849   -0.5948   12.0590 H   0  0  0  0  0  0
    7.6702    0.4039   10.5995 H   0  0  0  0  0  0
    9.7427   -0.8818   10.3781 H   0  0  0  0  0  0
   10.3855   -0.1147   11.8698 H   0  0  0  0  0  0
   10.0708    0.8840   10.4103 H   0  0  0  0  0  0
    3.9999   -0.7408   14.9274 H   0  0  0  0  0  0
    5.0696   -1.6813   13.8330 H   0  0  0  0  0  0
    5.1111   -1.9081   16.8035 H   0  0  0  0  0  0
    2.8525   -2.4622   15.9336 H   0  0  0  0  0  0
    3.5720   -3.3772   14.5655 H   0  0  0  0  0  0
    4.4759   -4.5949   16.9750 H   0  0  0  0  0  0
    2.7089   -4.3062   17.1200 H   0  0  0  0  0  0
    3.9672   -5.5478   14.6266 H   0  0  0  0  0  0
    3.4326   -6.5289   16.0332 H   0  0  0  0  0  0
    1.7156   -6.4503   14.2884 H   0  0  0  0  0  0
    1.6879   -4.6566   14.3819 H   0  0  0  0  0  0
    1.1533   -5.6377   15.7885 H   0  0  0  0  0  0
    6.0547   -3.7108   17.6429 H   0  0  0  0  0  0
    7.1716   -5.3048   15.3858 H   0  0  0  0  0  0
    8.8538   -3.5362   15.3436 H   0  0  0  0  0  0
    9.0692   -3.6370   17.1241 H   0  0  0  0  0  0
    9.6382   -6.0330   15.3805 H   0  0  0  0  0  0
   10.8313   -4.6996   15.5396 H   0  0  0  0  0  0
   10.7036   -7.6891   16.3784 H   0  0  0  0  0  0
   11.1844   -7.5897   18.2193 H   0  0  0  0  0  0
    7.2226   -7.3686   15.9738 H   0  0  0  0  0  0
    7.2708   -7.8059   19.0019 H   0  0  0  0  0  0
    8.4564   -9.9181   18.4250 H   0  0  0  0  0  0
    8.1022  -10.1210   16.1106 H   0  0  0  0  0  0
    6.3011   -9.8882   17.0103 H   0  0  0  0  0  0
    5.8833   -9.6900   18.7460 H   0  0  0  0  0  0
    4.0228   -8.6636   18.1941 H   0  0  0  0  0  0
    4.9354   -7.4005   17.3005 H   0  0  0  0  0  0
    3.8129   -8.2214   15.4734 H   0  0  0  0  0  0
    5.0587   -9.5149   15.5128 H   0  0  0  0  0  0
    2.1794   -9.8443   15.7193 H   0  0  0  0  0  0
    5.2491  -11.0818   17.3192 H   0  0  0  0  0  0
    1.2905  -11.7683   16.0981 H   0  0  0  0  0  0
    2.2691  -13.1065   17.0370 H   0  0  0  0  0  0
    9.7747   -7.9352   18.9152 H   0  0  0  0  0  0
    9.9185   -7.7012   17.1401 H   0  0  0  0  0  0
   10.5755   -9.1871   17.9063 H   0  0  0  0  0  0
    4.3847  -12.7389   17.6893 H   0  0  0  0  0  0
  1  2  2  0  0  0
  1  3  1  0  0  0
  1  4  1  0  0  0
  3 55  1  0  0  0
  3 56  1  0  0  0
  3 57  1  0  0  0
  4  5  1  0  0  0
  4 58  1  0  0  0
  5  6  1  0  0  0
  5  8  1  0  0  0
  5 59  1  0  0  0
  6  7  2  0  0  0
  6 11  1  0  0  0
  8  9  1  0  0  0
  8 10  1  0  0  0
  8 60  1  0  0  0
  9 61  1  0  0  0
 10 62  1  0  0  0
 10 63  1  0  0  0
 10 64  1  0  0  0
 11 12  1  0  0  0
 11 65  1  0  0  0
 12 13  1  0  0  0
 12 15  1  0  0  0
 12 66  1  0  0  0
 13 14  2  0  0  0
 13 19  1  0  0  0
 15 16  1  0  0  0
 15 17  1  0  0  0
 15 67  1  0  0  0
 16 18  1  0  0  0
 16 68  1  0  0  0
 16 69  1  0  0  0
 17 70  1  0  0  0
 17 71  1  0  0  0
 17 72  1  0  0  0
 18 73  1  0  0  0
 18 74  1  0  0  0
 18 75  1  0  0  0
 19 20  1  0  0  0
 19 76  1  0  0  0
 20 21  1  0  0  0
 20 22  1  0  0  0
 20 77  1  0  0  0
 21 26  1  0  0  0
 21 78  1  0  0  0
 21 79  1  0  0  0
 22 23  1  0  0  0
 22 80  1  0  0  0
 22 81  1  0  0  0
 23 24  1  0  0  0
 23 82  1  0  0  0
 23 83  1  0  0  0
 24 25  1  0  0  0
 24 84  1  0  0  0
 24 85  1  0  0  0
 25 86  1  0  0  0
 25 87  1  0  0  0
 25 88  1  0  0  0
 26 27  1  0  0  0
 26 89  1  0  0  0
 26 90  1  0  0  0
 27 28  1  0  0  0
 27 30  1  0  0  0
 27 91  1  0  0  0
 28 29  2  0  0  0
 28 34  1  0  0  0
 30 31  1  0  0  0
 30 92  1  0  0  0
 30 93  1  0  0  0
 31 32  1  0  0  0
 31 94  1  0  0  0
 31 95  1  0  0  0
 32 33  1  0  0  0
 32 96  1  0  0  0
 32 97  1  0  0  0
 33 98  1  0  0  0
 33 99  1  0  0  0
 33100  1  0  0  0
 34 35  1  0  0  0
 34101  1  0  0  0
 35 36  1  0  0  0
 35 38  1  0  0  0
 35102  1  0  0  0
 36 37  2  0  0  0
 36 43  1  0  0  0
 38 39  1  0  0  0
 38103  1  0  0  0
 38104  1  0  0  0
 39 40  1  0  0  0
 39105  1  0  0  0
 39106  1  0  0  0
 40 41  2  0  0  0
 40 42  1  0  0  0
 42107  1  0  0  0
 42108  1  0  0  0
 43 44  1  0  0  0
 43109  1  0  0  0
 44 45  1  0  0  0
 44 47  1  0  0  0
 44110  1  0  0  0
 45 46  1  0  0  0
 45 54  1  0  0  0
 45111  1  0  0  0
 46112  1  0  0  0
 47 48  1  0  0  0
 47113  1  0  0  0
 47114  1  0  0  0
 48 49  1  0  0  0
 48115  1  0  0  0
 48116  1  0  0  0
 49 50  1  0  0  0
 49117  1  0  0  0
 49118  1  0  0  0
 50 51  1  0  0  0
 50119  1  0  0  0
 51 52  2  0  0  0
 51 53  1  0  0  0
 52120  1  0  0  0
 52126  1  0  0  0
 53121  1  0  0  0
 53122  1  0  0  0
 54123  1  0  0  0
 54124  1  0  0  0
 54125  1  0  0  0
M  CHG  3  26   1  52   1  54   1
M  END
> <s_m_source_file>
../3ka2_ligand.sdf

> <i_m_source_file_index>
1

> <s_epik_input>
Tz1DKFtDSDNdKVtOSF1bQ0BASF0oW0NASF0oW09IXSlbQ0gzXSlDKD1PKVtOSF1bQ0BASF0oW0NAQEhdKFtDSDNdKVtDSDJdW0NIM10pQyg9TylbTkhdW0NAQEhdKFtDSDJdW0NIMl1bQ0gyXVtDSDNdKVtDSDJdW05IMitdW0NAQEhdKFtDSDJdW0NIMl1bQ0gyXVtDSDNdKUMoPU8pW05IXVtDQEBIXShbQ0gyXVtDSDJdQyg9TylbTkgyXSlDKD1PKVtOSF1bQ0BIXShbQ0BASF0oW09IXSlbTkgzK10pW0NIMl1bQ0gyXVtDSDJdW05IXS9DKD1OXFtIXSlbTkgyXQ==

> <s_epik_cmdline>
J2VwaWtfYXBwJywgJy1pbWFlJywgJ2xpZ2FuZF9wcm8ubWFlJywgJy1vbWFlJywgJ2xpZ2FuZF9wcmVwLm1hZScsICctbXMnLCAnMScsICctcGgnLCAnNycsICctcGh0JywgJzAuNScsICctbnQn

> <r_epik_Ionization_Penalty>
  0.6793

> <r_epik_Ionization_Penalty_Charging>
  0.3821

> <r_epik_Ionization_Penalty_Neutral>
  0.2973

> <r_epik_State_Penalty>
  0.2906

> <r_epik_Charging_Adjusted_Penalty>
0.672667635502638

> <i_epik_Tot_Q>
3

> <i_epik_Tot_abs_Q>
3

> <s_epik_Chemistry_Notes>
This compound has an imine and may undergo hydrolysis. This compound contains an acetal/aminal-like group ( X-CH(R)-Y where X, Y are N, S, or O) that may be acid/base labile, releasing an aldehyde.

$$$$
