3kac_ligand
                    3D
 Schrodinger Suite 2020-3.
 23 24  0  0  1  0            999 V2000
   43.9090    5.9710   -3.4080 C   0  0  0  0  0  0
   44.7800    6.1860   -2.3450 C   0  0  0  0  0  0
   44.9830    5.1880   -1.3990 C   0  0  0  0  0  0
   43.2410    4.7580   -3.5250 C   0  0  0  0  0  0
   42.9540    2.5350   -2.4400 N   0  0  0  0  0  0
   43.4460    3.7620   -2.5780 C   0  0  0  0  0  0
   44.3140    3.9760   -1.5190 C   0  0  0  0  0  0
   44.3140    2.8710   -0.7820 N   0  3  0  0  0  0
   43.4840    1.9920   -1.3440 C   0  0  0  0  0  0
   43.1880    0.5860   -0.8170 C   0  0  0  0  0  0
   43.6770   -0.4810   -1.7980 C   0  0  0  0  0  0
   42.9710   -1.8160   -1.5530 C   0  0  0  0  0  0
   42.3060   -2.3420   -2.4430 O   0  0  0  0  0  0
   43.0620   -2.3770   -0.4620 O   0  5  0  0  0  0
   43.7504    6.7541   -4.1494 H   0  0  0  0  0  0
   45.3036    7.1376   -2.2538 H   0  0  0  0  0  0
   45.6650    5.3556   -0.5654 H   0  0  0  0  0  0
   42.5581    4.5883   -4.3574 H   0  0  0  0  0  0
   43.6989    0.4404    0.1462 H   0  0  0  0  0  0
   42.1033    0.4672   -0.6783 H   0  0  0  0  0  0
   43.4683   -0.1555   -2.8278 H   0  0  0  0  0  0
   44.7600   -0.6264   -1.6718 H   0  0  0  0  0  0
   44.9388    2.8125    0.1214 H   0  0  0  0  0  0
  1  2  2  0  0  0
  1  4  1  0  0  0
  1 15  1  0  0  0
  2  3  1  0  0  0
  2 16  1  0  0  0
  3  7  2  0  0  0
  3 17  1  0  0  0
  4  6  2  0  0  0
  4 18  1  0  0  0
  5  6  1  0  0  0
  5  9  2  0  0  0
  6  7  1  0  0  0
  7  8  1  0  0  0
  8  9  1  0  0  0
  8 23  1  0  0  0
  9 10  1  0  0  0
 10 11  1  0  0  0
 10 19  1  0  0  0
 10 20  1  0  0  0
 11 12  1  0  0  0
 11 21  1  0  0  0
 11 22  1  0  0  0
 12 13  2  0  0  0
 12 14  1  0  0  0
M  CHG  2   8   1  14  -1
M  END
> <s_m_source_file>
../3kac_ligand.sdf

> <i_m_source_file_index>
1

> <s_epik_input>
W2NIXTFbY0hdW2NIXVtjSF1jKGMxMilbbkhdYyhuMilbQ0gyXVtDSDJdQyg9TylbT0hd

> <s_epik_cmdline>
J2VwaWtfYXBwJywgJy1pbWFlJywgJ2xpZ2FuZF9wcm8ubWFlJywgJy1vbWFlJywgJ2xpZ2FuZF9wcmVwLm1hZScsICctbXMnLCAnMScsICctcGgnLCAnNycsICctcGh0JywgJzAuNScsICctbnQn

> <r_epik_Ionization_Penalty>
  0.0021

> <r_epik_Ionization_Penalty_Charging>
  0.0021

> <r_epik_Ionization_Penalty_Neutral>
  0.0000

> <r_epik_State_Penalty>
  0.0002

> <r_epik_Charging_Adjusted_Penalty>
0.00222594373923499

> <i_epik_Tot_Q>
0

> <i_epik_Tot_abs_Q>
2

> <s_epik_Chemistry_Notes>
This compound has an imine and may undergo hydrolysis.

$$$$
