3kad_ligand
                    3D
 Schrodinger Suite 2020-3.
 43 45  0  0  1  0            999 V2000
   31.4660  -15.0670   -0.1880 C   0  0  0  0  0  0
   31.9410  -15.3660   -1.4600 C   0  0  0  0  0  0
   31.2360  -16.2400   -2.2790 C   0  0  0  0  0  0
   30.2850  -15.6430    0.2660 C   0  0  0  0  0  0
   29.5810  -16.5170   -0.5540 C   0  0  0  0  0  0
   30.0550  -16.8150   -1.8230 C   0  0  0  0  0  0
   29.1850  -17.6770   -2.3880 N   0  3  0  0  0  0
   28.1910  -17.9160   -1.5030 C   0  0  0  0  0  0
   28.4340  -17.2060   -0.3790 N   0  0  0  0  0  0
   27.0080  -18.8260   -1.7310 C   0  0  0  0  0  0
   25.8530  -18.0210   -2.3130 C   0  0  1  0  0  0
   26.1370  -17.6710   -3.6920 N   0  0  0  0  0  0
   26.4370  -16.4250   -4.0450 C   0  0  0  0  0  0
   26.4700  -15.4990   -3.2510 O   0  0  0  0  0  0
   26.7420  -16.1930   -5.5050 C   0  0  0  0  0  0
   28.0570  -15.4330   -5.6350 C   0  0  0  0  0  0
   28.5960  -15.5950   -7.0370 C   0  0  0  0  0  0
   28.2010  -16.6790   -7.8130 C   0  0  0  0  0  0
   28.6970  -16.8280   -9.1030 C   0  0  0  0  0  0
   29.5880  -15.8930   -9.6170 C   0  0  0  0  0  0
   29.9830  -14.8090   -8.8410 C   0  0  0  0  0  0
   29.4870  -14.6600   -7.5510 C   0  0  0  0  0  0
   24.5830  -18.8110   -2.1940 C   0  0  0  0  0  0
   24.1120  -19.3410   -3.2230 O   0  5  0  0  0  0
   24.0440  -18.9080   -1.0710 O   0  0  0  0  0  0
   32.0195  -14.3810    0.4532 H   0  0  0  0  0  0
   32.8673  -14.9145   -1.8153 H   0  0  0  0  0  0
   31.6080  -16.4741   -3.2764 H   0  0  0  0  0  0
   29.9118  -15.4096    1.2632 H   0  0  0  0  0  0
   27.2895  -19.6242   -2.4336 H   0  0  0  0  0  0
   26.6987  -19.2720   -0.7742 H   0  0  0  0  0  0
   25.7228  -17.0618   -1.7906 H   0  0  0  0  0  0
   26.1068  -18.4448   -4.4732 H   0  0  0  0  0  0
   26.8256  -17.1612   -6.0204 H   0  0  0  0  0  0
   25.9318  -15.6042   -5.9598 H   0  0  0  0  0  0
   27.8858  -14.3661   -5.4291 H   0  0  0  0  0  0
   28.7848  -15.8334   -4.9139 H   0  0  0  0  0  0
   27.5023  -17.4120   -7.4098 H   0  0  0  0  0  0
   28.3873  -17.6778   -9.7113 H   0  0  0  0  0  0
   29.9771  -16.0096  -10.6285 H   0  0  0  0  0  0
   30.6817  -14.0760   -9.2442 H   0  0  0  0  0  0
   29.7967  -13.8102   -6.9427 H   0  0  0  0  0  0
   29.3651  -18.0518   -3.4064 H   0  0  0  0  0  0
  1  2  2  0  0  0
  1  4  1  0  0  0
  1 26  1  0  0  0
  2  3  1  0  0  0
  2 27  1  0  0  0
  3  6  2  0  0  0
  3 28  1  0  0  0
  4  5  2  0  0  0
  4 29  1  0  0  0
  5  6  1  0  0  0
  5  9  1  0  0  0
  6  7  1  0  0  0
  7  8  1  0  0  0
  7 43  1  0  0  0
  8  9  2  0  0  0
  8 10  1  0  0  0
 10 11  1  0  0  0
 10 30  1  0  0  0
 10 31  1  0  0  0
 11 12  1  0  0  0
 11 23  1  0  0  0
 11 32  1  0  0  0
 12 13  1  0  0  0
 12 33  1  0  0  0
 13 14  2  0  0  0
 13 15  1  0  0  0
 15 16  1  0  0  0
 15 34  1  0  0  0
 15 35  1  0  0  0
 16 17  1  0  0  0
 16 36  1  0  0  0
 16 37  1  0  0  0
 17 18  2  0  0  0
 17 22  1  0  0  0
 18 19  1  0  0  0
 18 38  1  0  0  0
 19 20  2  0  0  0
 19 39  1  0  0  0
 20 21  1  0  0  0
 20 40  1  0  0  0
 21 22  2  0  0  0
 21 41  1  0  0  0
 22 42  1  0  0  0
 23 24  1  0  0  0
 23 25  2  0  0  0
M  CHG  2   7   1  24  -1
M  END
> <s_m_source_file>
../3kad_ligand.sdf

> <i_m_source_file_index>
1

> <s_epik_input>
W2NIXTFbY0hdW2NIXVtjSF1jKGMxMilbbkhdYyhuMilbQ0gyXVtDQEhdKEMoPU8pW09IXSlbTkhdQyg9TylbQ0gyXVtDSDJdYzNbY0hdW2NIXVtjSF1bY0hdW2NIXTM=

> <s_epik_cmdline>
J2VwaWtfYXBwJywgJy1pbWFlJywgJ2xpZ2FuZF9wcm8ubWFlJywgJy1vbWFlJywgJ2xpZ2FuZF9wcmVwLm1hZScsICctbXMnLCAnMScsICctcGgnLCAnNycsICctcGh0JywgJzAuNScsICctbnQn

> <r_lp_tautomer_probability>
0.999202636296236

> <r_epik_Ionization_Penalty>
  0.0001

> <r_epik_Ionization_Penalty_Charging>
  0.0001

> <r_epik_Ionization_Penalty_Neutral>
  0.0000

> <r_epik_State_Penalty>
  0.0001

> <r_epik_Charging_Adjusted_Penalty>
0.000253241056395064

> <i_epik_Tot_Q>
0

> <i_epik_Tot_abs_Q>
2

> <s_epik_Chemistry_Notes>
This compound has an imine and may undergo hydrolysis.

$$$$
