3kaf_ligand
                    3D
 Schrodinger Suite 2020-3.
 40 43  0  0  1  0            999 V2000
   39.4250  -18.6440   13.8430 C   0  0  0  0  0  0
   39.5920  -20.0110   13.6630 C   0  0  0  0  0  0
   39.3950  -20.5720   12.3980 C   0  0  0  0  0  0
   39.0440  -19.8190   11.2720 C   0  0  0  0  0  0
   38.8480  -16.5370   12.6120 N   0  3  0  0  0  0
   39.0750  -17.8420   12.7620 C   0  0  0  0  0  0
   38.8810  -18.4580   11.4310 C   0  0  0  0  0  0
   38.5540  -17.4610   10.6150 N   0  0  0  0  0  0
   38.5370  -16.3020   11.3270 C   0  0  3  0  0  0
   38.2230  -14.9440   10.7320 C   0  0  0  0  0  0
   39.4590  -14.0650   10.4470 C   0  0  2  0  0  0
   38.9880  -12.7680    9.8200 C   0  0  0  0  0  0
   40.5630  -14.6250    9.6610 N   0  0  0  0  0  0
   38.7250  -12.7230    8.5820 O   0  5  0  0  0  0
   38.8700  -11.7700   10.5820 O   0  0  0  0  0  0
   40.8110  -15.8950    9.2800 C   0  0  0  0  0  0
   40.5640  -16.2580    7.8460 C   0  0  0  0  0  0
   41.2420  -16.7450   10.0490 O   0  0  0  0  0  0
   40.0610  -15.4570    6.7990 C   0  0  0  0  0  0
   40.9320  -17.9190    7.3540 S   0  0  0  0  0  0
   40.4510  -17.6430    5.7510 C   0  0  0  0  0  0
   39.9910  -16.2320    5.5810 C   0  0  0  0  0  0
   39.5440  -15.7990    4.3260 C   0  0  0  0  0  0
   39.5440  -16.7200    3.2730 C   0  0  0  0  0  0
   39.9870  -18.0550    3.4450 C   0  0  0  0  0  0
   40.4550  -18.5410    4.6780 C   0  0  0  0  0  0
   39.5695  -18.1986   14.8384 H   0  0  0  0  0  0
   39.8780  -20.6469   14.5138 H   0  0  0  0  0  0
   39.5289  -21.6604   12.3119 H   0  0  0  0  0  0
   38.9069  -20.3148   10.2997 H   0  0  0  0  0  0
   37.6983  -15.0758    9.7742 H   0  0  0  0  0  0
   37.5834  -14.3787   11.4258 H   0  0  0  0  0  0
   39.9744  -13.9436   11.4112 H   0  0  0  0  0  0
   41.3592  -13.9663    9.2840 H   0  0  0  0  0  0
   39.7691  -14.4111    6.8944 H   0  0  0  0  0  0
   39.2059  -14.7739    4.1743 H   0  0  0  0  0  0
   39.1930  -16.4014    2.2915 H   0  0  0  0  0  0
   39.9640  -18.7300    2.5894 H   0  0  0  0  0  0
   40.8040  -19.5672    4.7927 H   0  0  0  0  0  0
   38.9326  -15.8612   13.4758 H   0  0  0  0  0  0
  1  2  2  0  0  0
  1  6  1  0  0  0
  1 27  1  0  0  0
  2  3  1  0  0  0
  2 28  1  0  0  0
  3  4  2  0  0  0
  3 29  1  0  0  0
  4  7  1  0  0  0
  4 30  1  0  0  0
  5  6  2  0  0  0
  5  9  1  0  0  0
  5 40  1  0  0  0
  6  7  1  0  0  0
  7  8  2  0  0  0
  8  9  1  0  0  0
  9 10  1  0  0  0
 10 11  1  0  0  0
 10 31  1  0  0  0
 10 32  1  0  0  0
 11 12  1  0  0  0
 11 13  1  0  0  0
 11 33  1  0  0  0
 12 14  1  0  0  0
 12 15  2  0  0  0
 13 16  1  0  0  0
 13 34  1  0  0  0
 16 17  1  0  0  0
 16 18  2  0  0  0
 17 19  2  0  0  0
 17 20  1  0  0  0
 19 22  1  0  0  0
 19 35  1  0  0  0
 20 21  1  0  0  0
 21 22  2  0  0  0
 21 26  1  0  0  0
 22 23  1  0  0  0
 23 24  2  0  0  0
 23 36  1  0  0  0
 24 25  1  0  0  0
 24 37  1  0  0  0
 25 26  2  0  0  0
 25 38  1  0  0  0
 26 39  1  0  0  0
M  CHG  2   5   1  14  -1
M  END
> <s_m_source_file>
../3kaf_ligand.sdf

> <i_m_source_file_index>
1

> <s_epik_input>
W2NIXTFbY0hdW2NIXVtjSF1jKGMxMik9TltDSF0oTj0yKVtDSDJdW0NASF0oQyg9TylbT0hdKVtOSF1DKD1PKWMoczMpW2NIXWMoYzM0KVtjSF1bY0hdW2NIXVtjSF00

> <s_epik_cmdline>
J2VwaWtfYXBwJywgJy1pbWFlJywgJ2xpZ2FuZF9wcm8ubWFlJywgJy1vbWFlJywgJ2xpZ2FuZF9wcmVwLm1hZScsICctbXMnLCAnMScsICctcGgnLCAnNycsICctcGh0JywgJzAuNScsICctbnQn

> <r_epik_Ionization_Penalty>
  0.0591

> <r_epik_Ionization_Penalty_Charging>
  0.0591

> <r_epik_Ionization_Penalty_Neutral>
  0.0000

> <r_epik_State_Penalty>
  0.0512

> <r_epik_Charging_Adjusted_Penalty>
0.110293557782836

> <i_epik_Tot_Q>
0

> <i_epik_Tot_abs_Q>
2

> <s_epik_Chemistry_Notes>
This compound has an imine and may undergo hydrolysis.

$$$$
