3kag_ligand
                    3D
 Schrodinger Suite 2020-3.
 37 39  0  0  1  0            999 V2000
  -31.6940   24.2470   26.6670 C   0  0  0  0  0  0
  -31.6130   23.7120   25.3860 C   0  0  0  0  0  0
  -32.6650   23.8830   24.4930 C   0  0  0  0  0  0
  -32.8260   24.9520   27.0570 C   0  0  0  0  0  0
  -35.0510   25.7340   26.2590 N   0  0  0  0  0  0
  -33.8760   25.1210   26.1630 C   0  0  0  0  0  0
  -33.7960   24.5890   24.8860 C   0  0  0  0  0  0
  -34.9260   24.9010   24.2590 N   0  3  0  0  0  0
  -35.6910   25.5990   25.0970 C   0  0  0  0  0  0
  -37.0800   26.1570   24.7780 C   0  0  0  0  0  0
  -36.9790   27.5190   24.0880 C   0  0  2  0  0  0
  -38.3560   28.1850   24.0690 C   0  0  0  0  0  0
  -38.7620   28.8030   25.0510 O   0  0  0  0  0  0
  -39.0700   28.1090   23.0700 O   0  5  0  0  0  0
  -36.5020   27.3360   22.7100 N   0  0  0  0  0  0
  -35.2570   27.6330   22.3490 C   0  0  0  0  0  0
  -34.9330   27.3810   20.8750 C   0  0  0  0  0  0
  -34.4060   28.0780   23.1180 O   0  0  0  0  0  0
  -35.2560   28.2180   19.8250 C   0  0  0  0  0  0
  -34.7990   27.6450   18.6810 O   0  0  0  0  0  0
  -34.2010   26.4610   19.0650 C   0  0  0  0  0  0
  -34.2920   26.3200   20.3930 C   0  0  0  0  0  0
  -35.9980   29.5520   19.9320 C   0  0  0  0  0  0
  -30.8684   24.1131   27.3660 H   0  0  0  0  0  0
  -30.7246   23.1585   25.0819 H   0  0  0  0  0  0
  -32.6030   23.4649   23.4883 H   0  0  0  0  0  0
  -32.8901   25.3711   28.0611 H   0  0  0  0  0  0
  -37.6099   25.4619   24.1102 H   0  0  0  0  0  0
  -37.6506   26.2758   25.7109 H   0  0  0  0  0  0
  -36.2489   28.1601   24.6037 H   0  0  0  0  0  0
  -37.1821   26.9423   21.9403 H   0  0  0  0  0  0
  -33.7268   25.7492   18.3892 H   0  0  0  0  0  0
  -33.9084   25.4831   20.9766 H   0  0  0  0  0  0
  -36.2406   29.7531   20.9859 H   0  0  0  0  0  0
  -36.9269   29.5030   19.3448 H   0  0  0  0  0  0
  -35.3599   30.3588   19.5422 H   0  0  0  0  0  0
  -35.0854   24.5783   23.2195 H   0  0  0  0  0  0
  1  2  2  0  0  0
  1  4  1  0  0  0
  1 24  1  0  0  0
  2  3  1  0  0  0
  2 25  1  0  0  0
  3  7  2  0  0  0
  3 26  1  0  0  0
  4  6  2  0  0  0
  4 27  1  0  0  0
  5  6  1  0  0  0
  5  9  2  0  0  0
  6  7  1  0  0  0
  7  8  1  0  0  0
  8  9  1  0  0  0
  8 37  1  0  0  0
  9 10  1  0  0  0
 10 11  1  0  0  0
 10 28  1  0  0  0
 10 29  1  0  0  0
 11 12  1  0  0  0
 11 15  1  0  0  0
 11 30  1  0  0  0
 12 13  2  0  0  0
 12 14  1  0  0  0
 15 16  1  0  0  0
 15 31  1  0  0  0
 16 17  1  0  0  0
 16 18  2  0  0  0
 17 19  2  0  0  0
 17 22  1  0  0  0
 19 20  1  0  0  0
 19 23  1  0  0  0
 20 21  1  0  0  0
 21 22  2  0  0  0
 21 32  1  0  0  0
 22 33  1  0  0  0
 23 34  1  0  0  0
 23 35  1  0  0  0
 23 36  1  0  0  0
M  CHG  2   8   1  14  -1
M  END
> <s_m_source_file>
../3kag_ligand.sdf

> <i_m_source_file_index>
1

> <s_epik_input>
W2NIXTFbY0hdW2NIXVtjSF1jKGMxMilbbkhdYyhuMilbQ0gyXVtDQEhdKEMoPU8pW09IXSlbTkhdQyg9TyljM2MoW0NIM10pb1tjSF1bY0hdMw==

> <s_epik_cmdline>
J2VwaWtfYXBwJywgJy1pbWFlJywgJ2xpZ2FuZF9wcm8ubWFlJywgJy1vbWFlJywgJ2xpZ2FuZF9wcmVwLm1hZScsICctbXMnLCAnMScsICctcGgnLCAnNycsICctcGh0JywgJzAuNScsICctbnQn

> <r_epik_Ionization_Penalty>
  0.0001

> <r_epik_Ionization_Penalty_Charging>
  0.0001

> <r_epik_Ionization_Penalty_Neutral>
  0.0000

> <r_epik_State_Penalty>
  0.0001

> <r_epik_Charging_Adjusted_Penalty>
0.000204841613519863

> <i_epik_Tot_Q>
0

> <i_epik_Tot_abs_Q>
2

> <s_epik_Chemistry_Notes>
This compound has an imine and may undergo hydrolysis.

$$$$
