3kah_ligand
                    3D
 Schrodinger Suite 2020-3.
 47 50  0  0  1  0            999 V2000
   32.0150  -24.0450  -15.6130 C   0  0  0  0  0  0
   32.1730  -24.7840  -14.4460 C   0  0  0  0  0  0
   33.3600  -25.4680  -14.2110 C   0  0  0  0  0  0
   33.0430  -23.9890  -16.5460 C   0  0  0  0  0  0
   35.3530  -24.7970  -17.0060 N   0  0  0  0  0  0
   34.2290  -24.6740  -16.3090 C   0  0  0  0  0  0
   34.3870  -25.4110  -15.1460 C   0  0  0  0  0  0
   35.6000  -25.9510  -15.1850 N   0  3  0  0  0  0
   36.1900  -25.5760  -16.3200 C   0  0  0  0  0  0
   37.5980  -25.9760  -16.7640 C   0  0  0  0  0  0
   37.5500  -27.1330  -17.7640 C   0  0  2  0  0  0
   38.9740  -27.5070  -18.1810 C   0  0  0  0  0  0
   39.3330  -27.3840  -19.3510 O   0  0  0  0  0  0
   39.7750  -27.9340  -17.3500 O   0  5  0  0  0  0
   36.7820  -26.7260  -18.9490 N   0  0  0  0  0  0
   35.5200  -27.1020  -19.1330 C   0  0  0  0  0  0
   34.8740  -26.5870  -20.4210 C   0  0  0  0  0  0
   34.8900  -27.8080  -18.3480 O   0  0  0  0  0  0
   33.5760  -26.4220  -20.6240 N   0  0  0  0  0  0
   33.3790  -25.9940  -21.7610 N   0  0  0  0  0  0
   34.5610  -25.8550  -22.3710 C   0  0  0  0  0  0
   35.5170  -26.2310  -21.5220 C   0  0  0  0  0  0
   32.5180  -26.7100  -19.6290 C   0  0  0  0  0  0
   34.7590  -25.3960  -23.6680 C   0  0  0  0  0  0
   35.9150  -25.7400  -24.3580 C   0  0  0  0  0  0
   36.1120  -25.2820  -25.6560 C   0  0  0  0  0  0
   35.1530  -24.4780  -26.2620 C   0  0  0  0  0  0
   33.9970  -24.1340  -25.5720 C   0  0  0  0  0  0
   33.8000  -24.5930  -24.2740 C   0  0  0  0  0  0
   31.0837  -23.5090  -15.7962 H   0  0  0  0  0  0
   31.3656  -24.8270  -13.7150 H   0  0  0  0  0  0
   33.4851  -26.0474  -13.2962 H   0  0  0  0  0  0
   32.9198  -23.4097  -17.4610 H   0  0  0  0  0  0
   38.0895  -25.1163  -17.2428 H   0  0  0  0  0  0
   38.1831  -26.2915  -15.8876 H   0  0  0  0  0  0
   37.0365  -28.0010  -17.3249 H   0  0  0  0  0  0
   37.2497  -26.0916  -19.7163 H   0  0  0  0  0  0
   36.5929  -26.2428  -21.6961 H   0  0  0  0  0  0
   32.9783  -27.0803  -18.7011 H   0  0  0  0  0  0
   31.8356  -27.4739  -20.0301 H   0  0  0  0  0  0
   31.9541  -25.7897  -19.4166 H   0  0  0  0  0  0
   36.6673  -26.3688  -23.8818 H   0  0  0  0  0  0
   37.0178  -25.5531  -26.1982 H   0  0  0  0  0  0
   35.3081  -24.1174  -27.2789 H   0  0  0  0  0  0
   33.2449  -23.5047  -26.0478 H   0  0  0  0  0  0
   32.8936  -24.3230  -23.7320 H   0  0  0  0  0  0
   35.9465  -26.5854  -14.3559 H   0  0  0  0  0  0
  1  2  2  0  0  0
  1  4  1  0  0  0
  1 30  1  0  0  0
  2  3  1  0  0  0
  2 31  1  0  0  0
  3  7  2  0  0  0
  3 32  1  0  0  0
  4  6  2  0  0  0
  4 33  1  0  0  0
  5  6  1  0  0  0
  5  9  2  0  0  0
  6  7  1  0  0  0
  7  8  1  0  0  0
  8  9  1  0  0  0
  8 47  1  0  0  0
  9 10  1  0  0  0
 10 11  1  0  0  0
 10 34  1  0  0  0
 10 35  1  0  0  0
 11 12  1  0  0  0
 11 15  1  0  0  0
 11 36  1  0  0  0
 12 13  2  0  0  0
 12 14  1  0  0  0
 15 16  1  0  0  0
 15 37  1  0  0  0
 16 17  1  0  0  0
 16 18  2  0  0  0
 17 19  1  0  0  0
 17 22  2  0  0  0
 19 20  1  0  0  0
 19 23  1  0  0  0
 20 21  2  0  0  0
 21 22  1  0  0  0
 21 24  1  0  0  0
 22 38  1  0  0  0
 23 39  1  0  0  0
 23 40  1  0  0  0
 23 41  1  0  0  0
 24 25  2  0  0  0
 24 29  1  0  0  0
 25 26  1  0  0  0
 25 42  1  0  0  0
 26 27  2  0  0  0
 26 43  1  0  0  0
 27 28  1  0  0  0
 27 44  1  0  0  0
 28 29  2  0  0  0
 28 45  1  0  0  0
 29 46  1  0  0  0
M  CHG  2   8   1  14  -1
M  END
> <s_m_source_file>
../3kah_ligand.sdf

> <i_m_source_file_index>
1

> <s_epik_input>
W2NIXTFbY0hdW2NIXVtjSF1jKGMxMilbbkhdYyhuMilbQ0gyXVtDQEhdKEMoPU8pW09IXSlbTkhdQyg9TyljM24oW0NIM10pbmMoW2NIXTMpLWM0W2NIXVtjSF1bY0hdW2NIXVtjSF00

> <s_epik_cmdline>
J2VwaWtfYXBwJywgJy1pbWFlJywgJ2xpZ2FuZF9wcm8ubWFlJywgJy1vbWFlJywgJ2xpZ2FuZF9wcmVwLm1hZScsICctbXMnLCAnMScsICctcGgnLCAnNycsICctcGh0JywgJzAuNScsICctbnQn

> <r_epik_Ionization_Penalty>
  0.0001

> <r_epik_Ionization_Penalty_Charging>
  0.0001

> <r_epik_Ionization_Penalty_Neutral>
  0.0000

> <r_epik_State_Penalty>
  0.0001

> <r_epik_Charging_Adjusted_Penalty>
0.000185402472209484

> <i_epik_Tot_Q>
0

> <i_epik_Tot_abs_Q>
2

> <s_epik_Chemistry_Notes>
This compound has an imine and may undergo hydrolysis.

$$$$
