3kai_ligand
                    3D
 Schrodinger Suite 2020-3.
 50 53  0  0  1  0            999 V2000
   38.9240  -18.7680   10.7350 C   0  0  0  0  0  0
   38.7970  -16.4410   11.3420 C   0  0  0  0  0  0
   39.2600  -16.7480   12.6160 C   0  0  0  0  0  0
   38.4720  -14.9920   10.9740 C   0  0  0  0  0  0
   39.5060  -14.4290    9.9980 C   0  0  2  0  0  0
   39.1790  -12.9650    9.6960 C   0  0  0  0  0  0
   39.4780  -15.2060    8.7510 N   0  0  0  0  0  0
   38.7960  -12.6310    8.5760 O   0  0  0  0  0  0
   39.2970  -12.1070   10.5700 O   0  5  0  0  0  0
   40.5250  -15.9160    8.3390 C   0  0  0  0  0  0
   38.6290  -17.4510   10.4020 C   0  0  0  0  0  0
   41.5900  -15.9880    8.9490 O   0  0  0  0  0  0
   40.3200  -16.6630    7.0190 C   0  0  0  0  0  0
   40.7450  -17.8880    6.7490 N   0  0  0  0  0  0
   40.4210  -18.2010    5.6030 N   0  0  0  0  0  0
   39.7570  -17.1770    5.0570 C   0  0  0  0  0  0
   39.6900  -16.1940    5.9540 C   0  0  0  0  0  0
   39.2280  -17.1440    3.7720 C   0  0  0  0  0  0
   38.9360  -15.9250    3.1720 C   0  0  0  0  0  0
   38.4070  -15.8910    1.8870 C   0  0  0  0  0  0
   38.1690  -17.0770    1.2020 C   0  0  0  0  0  0
   38.4610  -18.2970    1.8020 C   0  0  0  0  0  0
   38.9900  -18.3300    3.0870 C   0  0  0  0  0  0
   41.4960  -18.7520    7.6870 C   0  0  0  0  0  0
   39.3880  -19.0740   12.0100 C   0  0  0  0  0  0
   39.5560  -18.0640   12.9500 C   0  0  0  0  0  0
   40.0190  -18.3710   14.2240 C   0  0  0  0  0  0
   40.3140  -19.6880   14.5580 C   0  0  0  0  0  0
   40.1460  -20.6980   13.6180 C   0  0  0  0  0  0
   39.6830  -20.3910   12.3440 C   0  0  0  0  0  0
   38.7918  -19.5599    9.9978 H   0  0  0  0  0  0
   39.3910  -15.9561   13.3535 H   0  0  0  0  0  0
   37.4799  -14.9475   10.5011 H   0  0  0  0  0  0
   38.4725  -14.3737   11.8838 H   0  0  0  0  0  0
   40.5194  -14.5195   10.4161 H   0  0  0  0  0  0
   38.5721  -15.2121    8.1270 H   0  0  0  0  0  0
   38.2657  -17.2102    9.4030 H   0  0  0  0  0  0
   39.2195  -15.2178    5.8364 H   0  0  0  0  0  0
   39.1219  -14.9950    3.7093 H   0  0  0  0  0  0
   38.1788  -14.9346    1.4166 H   0  0  0  0  0  0
   37.7535  -17.0506    0.1946 H   0  0  0  0  0  0
   38.2751  -19.2271    1.2649 H   0  0  0  0  0  0
   39.2183  -19.2862    3.5577 H   0  0  0  0  0  0
   41.6457  -18.2183    8.6372 H   0  0  0  0  0  0
   42.4735  -19.0045    7.2503 H   0  0  0  0  0  0
   40.9269  -19.6753    7.8707 H   0  0  0  0  0  0
   40.1509  -17.5792   14.9614 H   0  0  0  0  0  0
   40.6771  -19.9285   15.5572 H   0  0  0  0  0  0
   40.3773  -21.7305   13.8799 H   0  0  0  0  0  0
   39.5511  -21.1828   11.6066 H   0  0  0  0  0  0
  1 11  2  0  0  0
  1 25  1  0  0  0
  1 31  1  0  0  0
  2  3  2  0  0  0
  2  4  1  0  0  0
  2 11  1  0  0  0
  3 26  1  0  0  0
  3 32  1  0  0  0
  4  5  1  0  0  0
  4 33  1  0  0  0
  4 34  1  0  0  0
  5  6  1  0  0  0
  5  7  1  0  0  0
  5 35  1  0  0  0
  6  8  2  0  0  0
  6  9  1  0  0  0
  7 10  1  0  0  0
  7 36  1  0  0  0
 10 12  2  0  0  0
 10 13  1  0  0  0
 11 37  1  0  0  0
 13 14  1  0  0  0
 13 17  2  0  0  0
 14 15  1  0  0  0
 14 24  1  0  0  0
 15 16  2  0  0  0
 16 17  1  0  0  0
 16 18  1  0  0  0
 17 38  1  0  0  0
 18 19  2  0  0  0
 18 23  1  0  0  0
 19 20  1  0  0  0
 19 39  1  0  0  0
 20 21  2  0  0  0
 20 40  1  0  0  0
 21 22  1  0  0  0
 21 41  1  0  0  0
 22 23  2  0  0  0
 22 42  1  0  0  0
 23 43  1  0  0  0
 24 44  1  0  0  0
 24 45  1  0  0  0
 24 46  1  0  0  0
 25 26  2  0  0  0
 25 30  1  0  0  0
 26 27  1  0  0  0
 27 28  2  0  0  0
 27 47  1  0  0  0
 28 29  1  0  0  0
 28 48  1  0  0  0
 29 30  2  0  0  0
 29 49  1  0  0  0
 30 50  1  0  0  0
M  CHG  1   9  -1
M  END
> <s_m_source_file>
../3kai_ligand.sdf

> <i_m_source_file_index>
1

> <s_epik_input>
W2NIXTFbY0hdW2NIXVtjSF1jKGMxMilbY0hdYyhbY0hdW2NIXTIpW0NIMl1bQ0BIXShDKD1PKVtPSF0pW05IXUMoPU8pYzNuKFtDSDNdKW5jKFtjSF0zKS1jNFtjSF1bY0hdW2NIXVtjSF1bY0hdNA==

> <s_epik_cmdline>
J2VwaWtfYXBwJywgJy1pbWFlJywgJ2xpZ2FuZF9wcm8ubWFlJywgJy1vbWFlJywgJ2xpZ2FuZF9wcmVwLm1hZScsICctbXMnLCAnMScsICctcGgnLCAnNycsICctcGh0JywgJzAuNScsICctbnQn

> <r_lp_tautomer_probability>
1

> <r_epik_Ionization_Penalty>
  0.0002

> <r_epik_Ionization_Penalty_Charging>
  0.0002

> <r_epik_Ionization_Penalty_Neutral>
  0.0000

> <r_epik_State_Penalty>
 -0.0000

> <r_epik_Charging_Adjusted_Penalty>
0.000195374695789968

> <i_epik_Tot_Q>
-1

> <i_epik_Tot_abs_Q>
1

$$$$
