3kb7_ligand
                    3D
 Schrodinger Suite 2020-3.
 62 66  0  0  1  0            999 V2000
   42.3370  -12.3940   17.6890 N   0  0  0  0  0  0
   43.6170  -12.8200   17.5630 C   0  0  0  0  0  0
   44.0040  -13.4420   16.4160 N   0  0  0  0  0  0
   41.4510  -12.6200   16.6960 C   0  0  0  0  0  0
   41.8400  -13.2620   15.5050 C   0  0  0  0  0  0
   43.1620  -13.6280   15.3640 C   0  0  0  0  0  0
   41.1010  -15.0100   13.9670 C   0  0  0  0  0  0
   40.8660  -13.5510   14.3700 C   0  0  0  0  0  0
   42.5280  -14.9780   13.4060 C   0  0  0  0  0  0
   43.6300  -14.4550   14.2270 C   0  0  0  0  0  0
   44.8250  -14.9220   13.8770 N   0  0  0  0  0  0
   44.6610  -15.8160   12.7820 N   0  0  0  0  0  0
   43.3190  -15.9150   12.5700 C   0  0  0  0  0  0
   42.6180  -16.7060   11.5010 C   0  0  0  0  0  0
   43.2440  -17.7910   11.0530 N   0  0  0  0  0  0
   41.5080  -16.4190   11.0700 O   0  0  0  0  0  0
   46.2210  -14.6910   14.3180 C   0  0  0  0  0  0
   44.5070  -12.6200   18.5800 N   0  0  0  0  0  0
   45.7920  -13.0980   18.5740 C   0  0  0  0  0  0
   46.1720  -14.3020   17.9810 C   0  0  0  0  0  0
   47.5020  -14.7130   18.0040 C   0  0  0  0  0  0
   48.4430  -13.9000   18.6230 C   0  0  0  0  0  0
   48.0830  -12.6980   19.2020 C   0  0  0  0  0  0
   46.7550  -12.3100   19.1800 C   0  0  0  0  0  0
   46.3880  -11.1280   19.7710 O   0  0  0  0  0  0
   47.3570  -10.4700   20.5950 C   0  0  0  0  0  0
   47.9580  -15.9180   17.3980 N   0  0  0  0  0  0
   47.2130  -17.1310   17.7040 C   0  0  0  0  0  0
   47.5160  -18.2510   16.7120 C   0  0  0  0  0  0
   48.9450  -18.3110   16.4530 N   0  3  0  0  0  0
   49.6950  -17.0990   16.1700 C   0  0  0  0  0  0
   49.4160  -16.0330   17.2300 C   0  0  0  0  0  0
   49.3770  -19.5100   15.7420 C   0  0  0  0  0  0
   40.4163  -12.2998   16.8184 H   0  0  0  0  0  0
   41.0064  -15.6549   14.8531 H   0  0  0  0  0  0
   40.3548  -15.3076   13.2156 H   0  0  0  0  0  0
   39.8355  -13.3990   14.7235 H   0  0  0  0  0  0
   41.0695  -12.8706   13.5300 H   0  0  0  0  0  0
   44.2409  -18.0497   11.4394 H   0  0  0  0  0  0
   42.7647  -18.4294   10.2962 H   0  0  0  0  0  0
   46.2266  -13.9883   15.1643 H   0  0  0  0  0  0
   46.8030  -14.2678   13.4861 H   0  0  0  0  0  0
   46.6693  -15.6455   14.6309 H   0  0  0  0  0  0
   44.2063  -12.0465   19.4692 H   0  0  0  0  0  0
   45.4216  -14.9261   17.4957 H   0  0  0  0  0  0
   49.4857  -14.2163   18.6526 H   0  0  0  0  0  0
   48.8356  -12.0636   19.6701 H   0  0  0  0  0  0
   46.9256   -9.5421   20.9985 H   0  0  0  0  0  0
   48.2466  -10.2299   19.9943 H   0  0  0  0  0  0
   47.6430  -11.1327   21.4251 H   0  0  0  0  0  0
   47.4811  -17.4816   18.7116 H   0  0  0  0  0  0
   46.1344  -16.9186   17.6646 H   0  0  0  0  0  0
   47.1831  -19.2120   17.1311 H   0  0  0  0  0  0
   46.9845  -18.0587   15.7683 H   0  0  0  0  0  0
   49.2939  -18.4141   17.4911 H   0  0  0  0  0  0
   50.7713  -17.3260   16.1679 H   0  0  0  0  0  0
   49.4009  -16.7074   15.1850 H   0  0  0  0  0  0
   49.8254  -15.0643   16.9075 H   0  0  0  0  0  0
   49.8736  -16.3241   18.1870 H   0  0  0  0  0  0
   48.7408  -20.3586   16.0339 H   0  0  0  0  0  0
   50.4236  -19.7312   15.9983 H   0  0  0  0  0  0
   49.2922  -19.3440   14.6579 H   0  0  0  0  0  0
  1  2  2  0  0  0
  1  4  1  0  0  0
  2  3  1  0  0  0
  2 18  1  0  0  0
  3  6  2  0  0  0
  4  5  2  0  0  0
  4 34  1  0  0  0
  5  6  1  0  0  0
  5  8  1  0  0  0
  6 10  1  0  0  0
  7  8  1  0  0  0
  7  9  1  0  0  0
  7 35  1  0  0  0
  7 36  1  0  0  0
  8 37  1  0  0  0
  8 38  1  0  0  0
  9 10  2  0  0  0
  9 13  1  0  0  0
 10 11  1  0  0  0
 11 12  1  0  0  0
 11 17  1  0  0  0
 12 13  2  0  0  0
 13 14  1  0  0  0
 14 15  1  0  0  0
 14 16  2  0  0  0
 15 39  1  0  0  0
 15 40  1  0  0  0
 17 41  1  0  0  0
 17 42  1  0  0  0
 17 43  1  0  0  0
 18 19  1  0  0  0
 18 44  1  0  0  0
 19 20  2  0  0  0
 19 24  1  0  0  0
 20 21  1  0  0  0
 20 45  1  0  0  0
 21 22  2  0  0  0
 21 27  1  0  0  0
 22 23  1  0  0  0
 22 46  1  0  0  0
 23 24  2  0  0  0
 23 47  1  0  0  0
 24 25  1  0  0  0
 25 26  1  0  0  0
 26 48  1  0  0  0
 26 49  1  0  0  0
 26 50  1  0  0  0
 27 28  1  0  0  0
 27 32  1  0  0  0
 28 29  1  0  0  0
 28 51  1  0  0  0
 28 52  1  0  0  0
 29 30  1  0  0  0
 29 53  1  0  0  0
 29 54  1  0  0  0
 30 31  1  0  0  0
 30 33  1  0  0  0
 30 55  1  0  0  0
 31 32  1  0  0  0
 31 56  1  0  0  0
 31 57  1  0  0  0
 32 58  1  0  0  0
 32 59  1  0  0  0
 33 60  1  0  0  0
 33 61  1  0  0  0
 33 62  1  0  0  0
M  CHG  1  30   1
M  END
> <s_m_source_file>
../3kb7_ligand.sdf

> <i_m_source_file_index>
1

> <s_epik_input>
W0NIM11uMW5jKEMoPU8pW05IMl0pYyhbQ0gyXVtDSDJdMiljMWMoYzIzKW5jKG5bY0hdMylbTkhdYzRbY0hdYyhbY0hdW2NIXWM0T1tDSDNdKU41W0NIMl1bQ0gyXVtOSCtdKFtDSDNdKVtDSDJdW0NIMl01

> <s_epik_cmdline>
J2VwaWtfYXBwJywgJy1pbWFlJywgJ2xpZ2FuZF9wcm8ubWFlJywgJy1vbWFlJywgJ2xpZ2FuZF9wcmVwLm1hZScsICctbXMnLCAnMScsICctcGgnLCAnNycsICctcGh0JywgJzAuNScsICctbnQn

> <r_lp_tautomer_probability>
1

> <r_epik_Ionization_Penalty>
  0.0458

> <r_epik_Ionization_Penalty_Charging>
  0.0424

> <r_epik_Ionization_Penalty_Neutral>
  0.0035

> <r_epik_State_Penalty>
 -0.0000

> <r_epik_Charging_Adjusted_Penalty>
0.0423698333111448

> <i_epik_Tot_Q>
1

> <i_epik_Tot_abs_Q>
1

$$$$
