3kba_ligand
                    3D
 Schrodinger Suite 2020-3.
 49 51  0  0  1  0            999 V2000
   -0.1650   -8.7890   22.1950 C   0  0  0  0  0  0
   -1.3060   -9.7290   22.3430 C   0  0  0  0  0  0
   -1.4100  -10.8030   21.4580 C   0  0  0  0  0  0
   -2.4550  -11.7100   21.5860 C   0  0  0  0  0  0
   -3.4330  -11.5150   22.5570 C   0  0  0  0  0  0
   -3.3220  -10.4570   23.4540 C   0  0  0  0  0  0
   -2.2820   -9.5410   23.3290 C   0  0  0  0  0  0
   -2.1950   -8.4160   24.3000 C   0  0  0  0  0  0
   -3.3280   -8.1100   25.1100 N   0  0  0  0  0  0
   -4.1000   -6.9470   24.8250 C   0  0  1  0  0  0
   -3.3990   -5.6290   24.8970 C   0  0  0  0  0  0
   -3.1310   -5.2460   23.4420 C   0  0  0  0  0  0
   -3.9050   -6.1610   22.6220 N   0  0  3  0  0  0
   -4.7670   -6.9470   23.5040 C   0  0  0  0  0  0
   -3.7230   -5.5970   21.1220 S   0  0  0  0  0  0
   -3.1370   -6.8660   20.0840 C   0  0  0  0  0  0
   -2.8210   -4.5020   21.1500 O   0  0  0  0  0  0
   -4.9790   -5.1660   20.6430 O   0  0  0  0  0  0
   -3.5200   -8.7700   26.3520 C   0  0  0  0  0  0
   -4.6060   -8.4300   27.1590 C   0  0  0  0  0  0
   -4.7930   -9.0480   28.3910 C   0  0  0  0  0  0
   -3.8980  -10.0220   28.8140 C   0  0  0  0  0  0
   -4.1100  -10.6660   30.1350 C   0  0  0  0  0  0
   -4.2790  -11.1670   31.1350 N   0  0  0  0  0  0
   -2.8280  -10.3870   27.9910 C   0  0  0  0  0  0
   -1.6390  -11.5060   28.5170 Cl  0  0  0  0  0  0
   -2.6160   -9.7370   26.7790 C   0  0  0  0  0  0
    0.4777   -9.1202   21.3660 H   0  0  0  0  0  0
    0.4188   -8.7713   23.1271 H   0  0  0  0  0  0
   -0.5468   -7.7796   21.9823 H   0  0  0  0  0  0
   -0.6716  -10.9304   20.6664 H   0  0  0  0  0  0
   -2.5089  -12.5752   20.9252 H   0  0  0  0  0  0
   -4.2860  -12.1912   22.6148 H   0  0  0  0  0  0
   -4.0513  -10.3455   24.2563 H   0  0  0  0  0  0
   -1.3878   -8.6150   25.0203 H   0  0  0  0  0  0
   -1.9825   -7.4814   23.7603 H   0  0  0  0  0  0
   -4.8003   -7.0817   25.6625 H   0  0  0  0  0  0
   -4.0480   -4.8954   25.3977 H   0  0  0  0  0  0
   -2.4648   -5.7412   25.4667 H   0  0  0  0  0  0
   -3.4461   -4.2058   23.2727 H   0  0  0  0  0  0
   -2.0561   -5.3427   23.2294 H   0  0  0  0  0  0
   -4.8683   -7.9816   23.1444 H   0  0  0  0  0  0
   -5.7641   -6.4918   23.5967 H   0  0  0  0  0  0
   -2.1575   -7.2124   20.4454 H   0  0  0  0  0  0
   -3.0347   -6.4826   19.0581 H   0  0  0  0  0  0
   -3.8486   -7.7048   20.0927 H   0  0  0  0  0  0
   -5.3142   -7.6734   26.8211 H   0  0  0  0  0  0
   -5.6376   -8.7693   29.0211 H   0  0  0  0  0  0
   -1.7475   -9.9840   26.1684 H   0  0  0  0  0  0
  1  2  1  0  0  0
  1 28  1  0  0  0
  1 29  1  0  0  0
  1 30  1  0  0  0
  2  3  2  0  0  0
  2  7  1  0  0  0
  3  4  1  0  0  0
  3 31  1  0  0  0
  4  5  2  0  0  0
  4 32  1  0  0  0
  5  6  1  0  0  0
  5 33  1  0  0  0
  6  7  2  0  0  0
  6 34  1  0  0  0
  7  8  1  0  0  0
  8  9  1  0  0  0
  8 35  1  0  0  0
  8 36  1  0  0  0
  9 10  1  0  0  0
  9 19  1  0  0  0
 10 11  1  0  0  0
 10 14  1  0  0  0
 10 37  1  0  0  0
 11 12  1  0  0  0
 11 38  1  0  0  0
 11 39  1  0  0  0
 12 13  1  0  0  0
 12 40  1  0  0  0
 12 41  1  0  0  0
 13 14  1  0  0  0
 13 15  1  0  0  0
 14 42  1  0  0  0
 14 43  1  0  0  0
 15 16  1  0  0  0
 15 17  2  0  0  0
 15 18  2  0  0  0
 16 44  1  0  0  0
 16 45  1  0  0  0
 16 46  1  0  0  0
 19 20  2  0  0  0
 19 27  1  0  0  0
 20 21  1  0  0  0
 20 47  1  0  0  0
 21 22  2  0  0  0
 21 48  1  0  0  0
 22 23  1  0  0  0
 22 25  1  0  0  0
 23 24  3  0  0  0
 25 26  1  0  0  0
 25 27  2  0  0  0
 27 49  1  0  0  0
M  END
> <s_m_source_file>
../3kba_ligand.sdf

> <i_m_source_file_index>
1

> <s_epik_input>
W0NIM11jMVtjSF1bY0hdW2NIXVtjSF1jMVtDSDJdTihbQ0BIXTJbQ0gyXVtDSDJdTihbQ0gyXTIpUyg9TykoPU8pW0NIM10pYzNbY0hdW2NIXWMoQyNOKWMoQ2wpW2NIXTM=

> <s_epik_cmdline>
J2VwaWtfYXBwJywgJy1pbWFlJywgJ2xpZ2FuZF9wcm8ubWFlJywgJy1vbWFlJywgJ2xpZ2FuZF9wcmVwLm1hZScsICctbXMnLCAnMScsICctcGgnLCAnNycsICctcGh0JywgJzAuNScsICctbnQn

> <r_lp_tautomer_probability>
1

> <r_epik_Ionization_Penalty>
  0.0000

> <r_epik_Ionization_Penalty_Charging>
  0.0000

> <r_epik_Ionization_Penalty_Neutral>
  0.0000

> <r_epik_State_Penalty>
 -0.0000

> <r_epik_Charging_Adjusted_Penalty>
0

> <i_epik_Tot_Q>
0

> <i_epik_Tot_abs_Q>
0

$$$$
