3kbz_ligand
                    3D
 Schrodinger Suite 2020-3.
 28 30  0  0  1  0            999 V2000
   19.1950   60.2110   16.2870 C   0  0  0  0  0  0
   19.5140   61.2060   15.3430 C   0  0  0  0  0  0
   20.8510   61.6260   15.1790 C   0  0  0  0  0  0
   21.8660   61.0470   15.9600 C   0  0  0  0  0  0
   21.5150   60.0670   16.8810 C   0  0  0  0  0  0
   20.2060   59.6740   17.0270 C   0  0  0  0  0  0
   22.4540   59.2920   17.8420 C   0  0  0  0  0  0
   21.3660   58.4490   18.4850 C   0  0  0  0  0  0
   20.1410   58.6580   18.0410 C   0  0  0  0  0  0
   21.3760   57.2700   19.6740 S   0  0  0  0  0  0
   19.6740   57.0690   19.5600 C   0  0  0  0  0  0
   19.1280   57.9120   18.6040 N   0  0  0  0  0  0
   18.9050   56.1220   20.3750 N   0  0  0  0  0  0
   17.8990   59.7630   16.4840 O   0  0  0  0  0  0
   16.9690   60.6900   15.9840 C   0  0  0  0  0  0
   15.2870   60.0580   16.2380 P   0  0  0  0  0  0
   14.3060   60.8680   15.4440 O   0  5  0  0  0  0
   15.2250   58.6290   15.7960 O   0  5  0  0  0  0
   14.9490   60.1490   17.6920 O   0  0  0  0  0  0
   18.7258   61.6530   14.7372 H   0  0  0  0  0  0
   21.0960   62.3972   14.4487 H   0  0  0  0  0  0
   22.9041   61.3592   15.8461 H   0  0  0  0  0  0
   23.2024   58.7384   17.2560 H   0  0  0  0  0  0
   22.9634   60.0028   18.5093 H   0  0  0  0  0  0
   19.4184   55.4882   21.1130 H   0  0  0  0  0  0
   17.8150   56.0458   20.2480 H   0  0  0  0  0  0
   17.0845   61.6472   16.5135 H   0  0  0  0  0  0
   17.1447   60.8422   14.9088 H   0  0  0  0  0  0
  1  2  2  0  0  0
  1  6  1  0  0  0
  1 14  1  0  0  0
  2  3  1  0  0  0
  2 20  1  0  0  0
  3  4  2  0  0  0
  3 21  1  0  0  0
  4  5  1  0  0  0
  4 22  1  0  0  0
  5  6  2  0  0  0
  5  7  1  0  0  0
  6  9  1  0  0  0
  7  8  1  0  0  0
  7 23  1  0  0  0
  7 24  1  0  0  0
  8  9  2  0  0  0
  8 10  1  0  0  0
  9 12  1  0  0  0
 10 11  1  0  0  0
 11 12  2  0  0  0
 11 13  1  0  0  0
 13 25  1  0  0  0
 13 26  1  0  0  0
 14 15  1  0  0  0
 15 16  1  0  0  0
 15 27  1  0  0  0
 15 28  1  0  0  0
 16 17  1  0  0  0
 16 18  1  0  0  0
 16 19  2  0  0  0
M  CHG  2  17  -1  18  -1
M  END
> <s_m_source_file>
../3kbz_ligand.sdf

> <i_m_source_file_index>
1

> <s_epik_input>
W09IXVAoPU8pKFtPSF0pW0NIMl1PYyhbY0hdW2NIXVtjSF0xKWMoYzEyKWMzYyhbQ0gyXTIpc2MobjMpW05IMl0=

> <s_epik_cmdline>
J2VwaWtfYXBwJywgJy1pbWFlJywgJ2xpZ2FuZF9wcm8ubWFlJywgJy1vbWFlJywgJ2xpZ2FuZF9wcmVwLm1hZScsICctbXMnLCAnMScsICctcGgnLCAnNycsICctcGh0JywgJzAuNScsICctbnQn

> <r_lp_tautomer_probability>
1

> <r_epik_Ionization_Penalty>
  0.3222

> <r_epik_Ionization_Penalty_Charging>
  0.3194

> <r_epik_Ionization_Penalty_Neutral>
  0.0028

> <r_epik_State_Penalty>
  0.3138

> <r_epik_Charging_Adjusted_Penalty>
0.633192864105832

> <i_epik_Tot_Q>
-2

> <i_epik_Tot_abs_Q>
2

$$$$
