3kc0_ligand
                    3D
 Schrodinger Suite 2020-3.
 26 28  0  0  1  0            999 V2000
   15.5400   60.3180   15.6290 P   0  0  0  0  0  0
   14.6390   61.2530   14.8730 O   0  5  0  0  0  0
   15.1220   60.2950   17.0680 O   0  0  0  0  0  0
   15.4370   58.9340   15.0530 O   0  5  0  0  0  0
   17.2630   60.8880   15.5070 C   0  0  0  0  0  0
   18.0440   60.0960   16.3590 O   0  0  0  0  0  0
   19.3810   60.4550   16.3010 C   0  0  0  0  0  0
   20.2650   59.7650   17.0810 C   0  0  0  0  0  0
   21.6000   60.0900   17.0510 C   0  0  0  0  0  0
   22.0790   61.1050   16.2470 C   0  0  0  0  0  0
   21.1890   61.8100   15.4540 C   0  0  0  0  0  0
   19.8350   61.4860   15.4800 C   0  0  0  0  0  0
   22.4800   59.2150   17.9910 C   0  0  0  0  0  0
   21.3330   58.3720   18.5080 C   0  0  0  0  0  0
   20.1420   58.6650   18.0230 C   0  0  0  0  0  0
   21.1800   57.0350   19.6470 S   0  0  0  0  0  0
   19.4430   57.0120   19.3350 C   0  0  0  0  0  0
   19.0490   57.9500   18.4390 N   0  0  0  0  0  0
   17.6107   60.7847   14.4685 H   0  0  0  0  0  0
   17.3223   61.9437   15.8102 H   0  0  0  0  0  0
   23.1416   61.3478   16.2365 H   0  0  0  0  0  0
   21.5469   62.6151   14.8122 H   0  0  0  0  0  0
   19.1303   62.0384   14.8585 H   0  0  0  0  0  0
   23.2384   58.6857   17.3955 H   0  0  0  0  0  0
   22.9783   59.8586   18.7309 H   0  0  0  0  0  0
   18.7564   56.3141   19.8143 H   0  0  0  0  0  0
  1  2  1  0  0  0
  1  3  2  0  0  0
  1  4  1  0  0  0
  1  5  1  0  0  0
  5  6  1  0  0  0
  5 19  1  0  0  0
  5 20  1  0  0  0
  6  7  1  0  0  0
  7  8  2  0  0  0
  7 12  1  0  0  0
  8  9  1  0  0  0
  8 15  1  0  0  0
  9 10  2  0  0  0
  9 13  1  0  0  0
 10 11  1  0  0  0
 10 21  1  0  0  0
 11 12  2  0  0  0
 11 22  1  0  0  0
 12 23  1  0  0  0
 13 14  1  0  0  0
 13 24  1  0  0  0
 13 25  1  0  0  0
 14 15  2  0  0  0
 14 16  1  0  0  0
 15 18  1  0  0  0
 16 17  1  0  0  0
 17 18  2  0  0  0
 17 26  1  0  0  0
M  CHG  2   2  -1   4  -1
M  END
> <s_m_source_file>
../3kc0_ligand.sdf

> <i_m_source_file_index>
1

> <s_epik_input>
W09IXVAoPU8pKFtPSF0pW0NIMl1PYzFbY0hdW2NIXVtjSF1jKGMxMilbQ0gyXWMzYzJuW2NIXXMz

> <s_epik_cmdline>
J2VwaWtfYXBwJywgJy1pbWFlJywgJ2xpZ2FuZF9wcm8ubWFlJywgJy1vbWFlJywgJ2xpZ2FuZF9wcmVwLm1hZScsICctbXMnLCAnMScsICctcGgnLCAnNycsICctcGh0JywgJzAuNScsICctbnQn

> <r_lp_tautomer_probability>
1

> <r_epik_Ionization_Penalty>
  0.3194

> <r_epik_Ionization_Penalty_Charging>
  0.3194

> <r_epik_Ionization_Penalty_Neutral>
  0.0000

> <r_epik_State_Penalty>
  0.3138

> <r_epik_Charging_Adjusted_Penalty>
0.633192864105832

> <i_epik_Tot_Q>
-2

> <i_epik_Tot_abs_Q>
2

$$$$
