3kc1_ligand
                    3D
 Schrodinger Suite 2020-3.
 30 32  0  0  1  0            999 V2000
   21.4810   59.5520   17.1310 C   0  0  0  0  0  0
   20.1440   59.3110   17.3450 C   0  0  0  0  0  0
   19.1640   60.0040   16.6910 C   0  0  0  0  0  0
   19.5470   60.9980   15.7680 C   0  0  0  0  0  0
   20.9070   61.2580   15.5360 C   0  0  0  0  0  0
   21.8890   60.5260   16.2260 C   0  0  0  0  0  0
   22.3770   58.6250   18.0020 C   0  0  0  0  0  0
   21.2390   57.8850   18.6770 C   0  0  0  0  0  0
   20.0160   58.2580   18.3220 C   0  0  0  0  0  0
   21.1890   56.6540   19.8150 S   0  0  0  0  0  0
   19.4740   56.6610   19.7960 C   0  0  0  0  0  0
   18.9580   57.6030   18.9190 N   0  0  0  0  0  0
   17.8380   59.7180   16.9470 O   0  0  0  0  0  0
   17.0110   60.4050   16.0400 C   0  0  0  0  0  0
   14.9930   59.9330   17.7720 O   0  0  0  0  0  0
   23.3110   60.7870   15.9930 C   0  0  0  0  0  0
   23.5670   61.9400   15.3460 N   0  0  0  0  0  0
   24.2090   60.0260   16.3380 O   0  0  0  0  0  0
   15.2840   59.9270   16.3050 P   0  0  0  0  0  0
   14.3740   60.8930   15.6120 O   0  5  0  0  0  0
   15.0690   58.5500   15.7530 O   0  5  0  0  0  0
   18.7857   61.5660   15.2332 H   0  0  0  0  0  0
   21.2012   62.0268   14.8215 H   0  0  0  0  0  0
   23.0193   58.0164   17.3485 H   0  0  0  0  0  0
   23.0049   59.2389   18.6645 H   0  0  0  0  0  0
   18.8585   55.9990   20.4052 H   0  0  0  0  0  0
   17.1172   61.4888   16.1955 H   0  0  0  0  0  0
   17.3055   60.1516   15.0109 H   0  0  0  0  0  0
   22.7385   62.6004   15.0504 H   0  0  0  0  0  0
   24.6046   62.2213   15.1132 H   0  0  0  0  0  0
  1  2  2  0  0  0
  1  6  1  0  0  0
  1  7  1  0  0  0
  2  3  1  0  0  0
  2  9  1  0  0  0
  3  4  2  0  0  0
  3 13  1  0  0  0
  4  5  1  0  0  0
  4 22  1  0  0  0
  5  6  2  0  0  0
  5 23  1  0  0  0
  6 16  1  0  0  0
  7  8  1  0  0  0
  7 24  1  0  0  0
  7 25  1  0  0  0
  8  9  2  0  0  0
  8 10  1  0  0  0
  9 12  1  0  0  0
 10 11  1  0  0  0
 11 12  2  0  0  0
 11 26  1  0  0  0
 13 14  1  0  0  0
 14 19  1  0  0  0
 14 27  1  0  0  0
 14 28  1  0  0  0
 15 19  2  0  0  0
 16 17  1  0  0  0
 16 18  2  0  0  0
 17 29  1  0  0  0
 17 30  1  0  0  0
 19 20  1  0  0  0
 19 21  1  0  0  0
M  CHG  2  20  -1  21  -1
M  END
> <s_m_source_file>
../3kc1_ligand.sdf

> <i_m_source_file_index>
1

> <s_epik_input>
bjFbY0hdc2MoW0NIMl0yKWMxYyhjMjMpYyhPW0NIMl1QKD1PKShbT0hdKVtPSF0pW2NIXVtjSF1jM0MoPU8pW05IMl0=

> <s_epik_cmdline>
J2VwaWtfYXBwJywgJy1pbWFlJywgJ2xpZ2FuZF9wcm8ubWFlJywgJy1vbWFlJywgJ2xpZ2FuZF9wcmVwLm1hZScsICctbXMnLCAnMScsICctcGgnLCAnNycsICctcGh0JywgJzAuNScsICctbnQn

> <r_lp_tautomer_probability>
1

> <r_epik_Ionization_Penalty>
  0.3194

> <r_epik_Ionization_Penalty_Charging>
  0.3194

> <r_epik_Ionization_Penalty_Neutral>
  0.0000

> <r_epik_State_Penalty>
  0.3138

> <r_epik_Charging_Adjusted_Penalty>
0.633192864105832

> <i_epik_Tot_Q>
-2

> <i_epik_Tot_abs_Q>
2

$$$$
