3kc3_ligand
                    3D
 Schrodinger Suite 2020-3.
 38 42  0  0  1  0            999 V2000
   -8.2630   61.6110   -6.9080 C   0  0  0  0  0  0
   -6.9460   61.9610   -7.1100 C   0  0  0  0  0  0
   -8.8130   60.4690   -7.4320 C   0  0  0  0  0  0
   -6.0680   61.1860   -7.8570 C   0  0  0  0  0  0
   -7.6450   51.3230  -11.6390 C   0  0  0  0  0  0
   -7.4630   50.1710  -12.3830 C   0  0  0  0  0  0
   -8.1420   58.4300   -8.8800 C   0  0  0  0  0  0
   -5.4570   54.9720  -12.1090 C   0  0  0  0  0  0
   -6.9830   55.7840  -10.4140 C   0  0  0  0  0  0
   -3.8190   56.7050  -12.6410 C   0  0  0  0  0  0
   -7.9730   59.6620   -8.1800 C   0  0  0  0  0  0
   -6.6440   60.0420   -8.3710 C   0  0  0  0  0  0
   -7.0280   52.4680  -12.0770 C   0  0  0  0  0  0
   -6.5400   54.7840  -11.2700 C   0  0  0  0  0  0
   -4.9130   56.2340  -11.9460 C   0  0  0  0  0  0
   -6.4330   57.0550  -10.2840 C   0  0  0  0  0  0
   -6.9040   58.1400   -9.4380 C   0  0  0  0  0  0
   -5.3410   57.2750  -11.0970 C   0  0  3  0  0  0
   -6.1770   51.2600  -13.8670 C   0  0  0  0  0  0
   -5.4280   51.2150  -15.0520 N   0  0  0  0  0  0
   -4.5600   58.3630  -11.2720 N   0  0  0  0  0  0
   -6.7430   50.0980  -13.5050 N   0  0  0  0  0  0
   -3.6560   57.9940  -12.2010 N   0  0  0  0  0  0
   -6.2790   52.4410  -13.1990 N   0  0  0  0  0  0
   -7.2390   53.5820  -11.2660 N   0  5  0  0  0  0
   -5.9800   59.1210   -9.1350 O   0  0  0  0  0  0
   -8.8929   62.2677   -6.3079 H   0  0  0  0  0  0
   -6.5773   62.8851   -6.6648 H   0  0  0  0  0  0
   -9.8589   60.2099   -7.2677 H   0  0  0  0  0  0
   -5.0247   61.4554   -8.0214 H   0  0  0  0  0  0
   -8.2568   51.3214  -10.7369 H   0  0  0  0  0  0
   -7.9413   49.2581  -12.0280 H   0  0  0  0  0  0
   -9.0543   57.8388   -8.9601 H   0  0  0  0  0  0
   -5.1394   54.1655  -12.7863 H   0  0  0  0  0  0
   -7.8514   55.4954   -9.8036 H   0  0  0  0  0  0
   -3.3016   56.0527  -13.3599 H   0  0  0  0  0  0
   -5.3331   50.2701  -15.6071 H   0  0  0  0  0  0
   -4.9355   52.1246  -15.4262 H   0  0  0  0  0  0
  1  2  2  0  0  0
  1  3  1  0  0  0
  1 27  1  0  0  0
  2  4  1  0  0  0
  2 28  1  0  0  0
  3 11  2  0  0  0
  3 29  1  0  0  0
  4 12  2  0  0  0
  4 30  1  0  0  0
  5  6  2  0  0  0
  5 13  1  0  0  0
  5 31  1  0  0  0
  6 22  1  0  0  0
  6 32  1  0  0  0
  7 11  1  0  0  0
  7 17  2  0  0  0
  7 33  1  0  0  0
  8 14  2  0  0  0
  8 15  1  0  0  0
  8 34  1  0  0  0
  9 14  1  0  0  0
  9 16  2  0  0  0
  9 35  1  0  0  0
 10 15  2  0  0  0
 10 23  1  0  0  0
 10 36  1  0  0  0
 11 12  1  0  0  0
 12 26  1  0  0  0
 13 24  2  0  0  0
 13 25  1  0  0  0
 14 25  1  0  0  0
 15 18  1  0  0  0
 16 17  1  0  0  0
 16 18  1  0  0  0
 17 26  1  0  0  0
 18 21  1  0  0  0
 19 20  1  0  0  0
 19 22  2  0  0  0
 19 24  1  0  0  0
 20 37  1  0  0  0
 20 38  1  0  0  0
 21 23  2  0  0  0
M  CHG  1  25  -1
M  END
> <s_m_source_file>
../3kc3_ligand.sdf

> <i_m_source_file_index>
1

> <s_epik_input>
W2NIXTFbY0hdW2NIXVtjSF1jKGMxMilvYyhbY0hdMilDKFtDSF0oQzM0KU49TltDSF09NCk9W0NIXUMoPVtDSF0zKVtOSF1jNVtjSF1bY0hdbmMobjUpW05IMl0=

> <s_epik_cmdline>
J2VwaWtfYXBwJywgJy1pbWFlJywgJ2xpZ2FuZF9wcm8ubWFlJywgJy1vbWFlJywgJ2xpZ2FuZF9wcmVwLm1hZScsICctbXMnLCAnMScsICctcGgnLCAnNycsICctcGh0JywgJzAuNScsICctbnQn

> <r_lp_tautomer_probability>
1

> <r_epik_Ionization_Penalty>
  0.0041

> <r_epik_Ionization_Penalty_Charging>
  0.0000

> <r_epik_Ionization_Penalty_Neutral>
  0.0041

> <r_epik_State_Penalty>
 -0.0000

> <r_epik_Charging_Adjusted_Penalty>
0

> <i_epik_Tot_Q>
-1

> <i_epik_Tot_abs_Q>
1

> <s_epik_Chemistry_Notes>
This compound has an imine and may undergo hydrolysis.

$$$$
