3kd7_ligand
                    3D
 Schrodinger Suite 2020-3.
 82 81  0  0  1  0            999 V2000
  -26.4400  -14.0850  -17.0450 C   0  0  0  0  0  0
  -27.1680  -13.1390  -16.7440 O   0  0  0  0  0  0
  -25.6580  -14.1080  -18.3270 C   0  0  0  0  0  0
  -26.3780  -15.2000  -16.3180 N   0  0  0  0  0  0
  -25.8440  -15.2210  -14.9550 C   0  0  2  0  0  0
  -24.3480  -14.9090  -14.9210 C   0  0  0  0  0  0
  -23.6080  -15.2550  -15.8460 O   0  0  0  0  0  0
  -26.1250  -16.5660  -14.2770 C   0  0  0  0  0  0
  -27.5940  -16.7960  -13.9330 C   0  0  0  0  0  0
  -27.8660  -18.1770  -12.8030 S   0  0  0  0  0  0
  -27.3690  -17.4580  -11.2370 C   0  0  0  0  0  0
  -23.9160  -14.2590  -13.8430 N   0  0  0  0  0  0
  -22.5420  -13.7740  -13.7260 C   0  0  2  0  0  0
  -21.7090  -14.6050  -12.7500 C   0  0  0  0  0  0
  -22.2120  -15.0590  -11.7200 O   0  0  0  0  0  0
  -22.5280  -12.2940  -13.3210 C   0  0  0  0  0  0
  -23.3010  -11.3560  -14.2640 C   0  0  0  0  0  0
  -22.7540  -11.3360  -15.6880 C   0  0  0  0  0  0
  -21.5280  -11.1640  -15.8680 O   0  5  0  0  0  0
  -23.5590  -11.4830  -16.6320 O   0  0  0  0  0  0
  -20.4340  -14.7930  -13.0900 N   0  0  0  0  0  0
  -19.5060  -15.6020  -12.2930 C   0  0  2  0  0  0
  -18.7040  -14.7510  -11.3020 C   0  0  0  0  0  0
  -18.9790  -13.5630  -11.1320 O   0  0  0  0  0  0
  -18.5610  -16.3870  -13.2130 C   0  0  0  0  0  0
  -19.2520  -17.4480  -14.0680 C   0  0  0  0  0  0
  -18.2940  -18.2110  -14.9730 C   0  0  0  0  0  0
  -17.0630  -18.0210  -14.8600 O   0  5  0  0  0  0
  -18.7790  -19.0100  -15.8020 O   0  0  0  0  0  0
  -17.7220  -15.3700  -10.6470 N   0  0  0  0  0  0
  -16.8590  -14.6830   -9.6790 C   0  0  2  0  0  0
  -15.4010  -15.1320   -9.7710 C   0  0  0  0  0  0
  -15.1190  -16.3200   -9.9530 O   0  0  0  0  0  0
  -17.3430  -14.8700   -8.2150 C   0  0  0  0  0  0
  -18.3590  -13.8010   -7.8370 C   0  0  0  0  0  0
  -17.8960  -16.2740   -7.9890 C   0  0  0  0  0  0
  -14.4870  -14.1710   -9.6390 N   0  0  0  0  0  0
  -13.0520  -14.4470   -9.6420 C   0  0  2  0  0  0
  -12.3770  -13.8710   -8.3980 C   0  0  0  0  0  0
  -12.2190  -12.6570   -8.2520 O   0  5  0  0  0  0
  -12.3910  -13.9030  -10.9170 C   0  0  0  0  0  0
  -12.8390  -14.6370  -12.1720 C   0  0  0  0  0  0
  -14.0310  -14.5370  -12.5360 O   0  5  0  0  0  0
  -11.9920  -15.3070  -12.8020 O   0  0  0  0  0  0
  -11.9730  -14.6110   -7.5000 O   0  0  0  0  0  0
  -25.7767  -13.1455  -18.8462 H   0  0  0  0  0  0
  -26.0307  -14.9195  -18.9693 H   0  0  0  0  0  0
  -24.5939  -14.2758  -18.1044 H   0  0  0  0  0  0
  -26.7472  -16.1283  -16.7784 H   0  0  0  0  0  0
  -26.3858  -14.4159  -14.4371 H   0  0  0  0  0  0
  -25.8170  -17.3844  -14.9443 H   0  0  0  0  0  0
  -25.5589  -16.6276  -13.3359 H   0  0  0  0  0  0
  -28.0038  -15.8947  -13.4537 H   0  0  0  0  0  0
  -28.1570  -17.0099  -14.8535 H   0  0  0  0  0  0
  -27.4849  -18.2046  -10.4375 H   0  0  0  0  0  0
  -28.0008  -16.5847  -11.0176 H   0  0  0  0  0  0
  -26.3165  -17.1438  -11.2954 H   0  0  0  0  0  0
  -24.6304  -14.0906  -13.0236 H   0  0  0  0  0  0
  -22.1217  -13.9048  -14.7341 H   0  0  0  0  0  0
  -22.9801  -12.1823  -12.3245 H   0  0  0  0  0  0
  -21.4901  -11.9306  -13.2955 H   0  0  0  0  0  0
  -24.3517  -11.6769  -14.3201 H   0  0  0  0  0  0
  -23.2520  -10.3269  -13.8787 H   0  0  0  0  0  0
  -20.0869  -14.3087  -14.0146 H   0  0  0  0  0  0
  -20.1489  -16.2889  -11.7231 H   0  0  0  0  0  0
  -18.0616  -15.6923  -13.9044 H   0  0  0  0  0  0
  -17.8052  -16.9062  -12.6054 H   0  0  0  0  0  0
  -19.7448  -18.1822  -13.4137 H   0  0  0  0  0  0
  -20.0037  -16.9678  -14.7117 H   0  0  0  0  0  0
  -17.5709  -16.4392  -10.8567 H   0  0  0  0  0  0
  -16.9470  -13.6343   -9.9992 H   0  0  0  0  0  0
  -16.4858  -14.7531   -7.5356 H   0  0  0  0  0  0
  -17.9261  -12.8052   -8.0129 H   0  0  0  0  0  0
  -18.6214  -13.9042   -6.7738 H   0  0  0  0  0  0
  -19.2635  -13.9213   -8.4513 H   0  0  0  0  0  0
  -17.1362  -17.0173   -8.2722 H   0  0  0  0  0  0
  -18.7963  -16.4170   -8.6047 H   0  0  0  0  0  0
  -18.1542  -16.3999   -6.9272 H   0  0  0  0  0  0
  -14.8482  -13.1383   -9.5248 H   0  0  0  0  0  0
  -12.9742  -15.5440   -9.6200 H   0  0  0  0  0  0
  -12.6487  -12.8406  -11.0389 H   0  0  0  0  0  0
  -11.2990  -14.0086  -10.8376 H   0  0  0  0  0  0
  1  2  2  0  0  0
  1  3  1  0  0  0
  1  4  1  0  0  0
  3 46  1  0  0  0
  3 47  1  0  0  0
  3 48  1  0  0  0
  4  5  1  0  0  0
  4 49  1  0  0  0
  5  6  1  0  0  0
  5  8  1  0  0  0
  5 50  1  0  0  0
  6  7  2  0  0  0
  6 12  1  0  0  0
  8  9  1  0  0  0
  8 51  1  0  0  0
  8 52  1  0  0  0
  9 10  1  0  0  0
  9 53  1  0  0  0
  9 54  1  0  0  0
 10 11  1  0  0  0
 11 55  1  0  0  0
 11 56  1  0  0  0
 11 57  1  0  0  0
 12 13  1  0  0  0
 12 58  1  0  0  0
 13 14  1  0  0  0
 13 16  1  0  0  0
 13 59  1  0  0  0
 14 15  2  0  0  0
 14 21  1  0  0  0
 16 17  1  0  0  0
 16 60  1  0  0  0
 16 61  1  0  0  0
 17 18  1  0  0  0
 17 62  1  0  0  0
 17 63  1  0  0  0
 18 19  1  0  0  0
 18 20  2  0  0  0
 21 22  1  0  0  0
 21 64  1  0  0  0
 22 23  1  0  0  0
 22 25  1  0  0  0
 22 65  1  0  0  0
 23 24  2  0  0  0
 23 30  1  0  0  0
 25 26  1  0  0  0
 25 66  1  0  0  0
 25 67  1  0  0  0
 26 27  1  0  0  0
 26 68  1  0  0  0
 26 69  1  0  0  0
 27 28  1  0  0  0
 27 29  2  0  0  0
 30 31  1  0  0  0
 30 70  1  0  0  0
 31 32  1  0  0  0
 31 34  1  0  0  0
 31 71  1  0  0  0
 32 33  2  0  0  0
 32 37  1  0  0  0
 34 35  1  0  0  0
 34 36  1  0  0  0
 34 72  1  0  0  0
 35 73  1  0  0  0
 35 74  1  0  0  0
 35 75  1  0  0  0
 36 76  1  0  0  0
 36 77  1  0  0  0
 36 78  1  0  0  0
 37 38  1  0  0  0
 37 79  1  0  0  0
 38 39  1  0  0  0
 38 41  1  0  0  0
 38 80  1  0  0  0
 39 40  1  0  0  0
 39 45  2  0  0  0
 41 42  1  0  0  0
 41 81  1  0  0  0
 41 82  1  0  0  0
 42 43  1  0  0  0
 42 44  2  0  0  0
M  CHG  4  19  -1  28  -1  40  -1  43  -1
M  END
> <s_m_source_file>
../3kd7_ligand.sdf

> <i_m_source_file_index>
1

> <s_epik_input>
W0NIM11TW0NIMl1bQ0gyXVtDQEhdKFtOSF1DKD1PKVtDSDNdKUMoPU8pW05IXVtDQEBIXShbQ0gyXVtDSDJdQyg9TylbT0hdKUMoPU8pW05IXVtDQEBIXShbQ0gyXVtDSDJdQyg9TylbT0hdKUMoPU8pW05IXVtDQEBIXShbQ0hdKFtDSDNdKVtDSDNdKUMoPU8pW05IXVtDQEhdKEMoPU8pW09IXSlbQ0gyXUMoPU8pW09IXQ==

> <s_epik_cmdline>
J2VwaWtfYXBwJywgJy1pbWFlJywgJ2xpZ2FuZF9wcm8ubWFlJywgJy1vbWFlJywgJ2xpZ2FuZF9wcmVwLm1hZScsICctbXMnLCAnMScsICctcGgnLCAnNycsICctcGh0JywgJzAuNScsICctbnQn

> <r_lp_tautomer_probability>
1

> <r_epik_Ionization_Penalty>
  0.0049

> <r_epik_Ionization_Penalty_Charging>
  0.0049

> <r_epik_Ionization_Penalty_Neutral>
  0.0000

> <r_epik_State_Penalty>
 -0.0000

> <r_epik_Charging_Adjusted_Penalty>
0.00493139741622348

> <i_epik_Tot_Q>
-4

> <i_epik_Tot_abs_Q>
4

$$$$
