3kdb_ligand
                    3D
 Schrodinger Suite 2020-3.
 86 90  0  0  1  0            999 V2000
   16.1720   19.7610   18.2460 O   0  0  0  0  0  0
   14.9720   19.9080   18.3080 C   0  0  0  0  0  0
   14.1210   18.7160   18.6630 C   0  0  0  0  0  0
   12.8480   19.0910   19.2010 O   0  0  0  0  0  0
   11.9660   18.0460   19.3610 C   0  0  0  0  0  0
   11.9330   17.2500   20.6250 C   0  0  0  0  0  0
   12.8260   17.5730   21.7930 C   0  0  0  0  0  0
   11.0230   16.2040   20.7220 C   0  0  0  0  0  0
   10.1730   15.8850   19.6630 C   0  0  0  0  0  0
   10.1750   16.5910   18.4640 C   0  0  0  0  0  0
   11.0410   17.6600   18.2630 C   0  0  0  0  0  0
   11.0320   18.4150   16.9610 C   0  0  0  0  0  0
   14.3550   21.0610   18.0380 N   0  0  0  0  0  0
   15.1500   22.1960   17.5930 C   0  0  1  0  0  0
   14.5770   22.8430   16.3280 C   0  0  0  0  0  0
   14.3260   21.7680   15.2890 C   0  0  0  0  0  0
   15.3940   21.2690   14.5290 C   0  0  0  0  0  0
   15.1610   20.2750   13.5830 C   0  0  0  0  0  0
   13.8700   19.7640   13.3920 C   0  0  0  0  0  0
   12.8060   20.2570   14.1440 C   0  0  0  0  0  0
   13.0280   21.2600   15.0940 C   0  0  0  0  0  0
   15.2960   23.1430   18.7730 C   0  0  2  0  0  0
   14.1300   23.9720   18.8530 O   0  0  0  0  0  0
   16.5830   23.9190   18.6370 C   0  0  0  0  0  0
   16.6550   24.9000   17.9030 O   0  0  0  0  0  0
   17.6330   23.4390   19.3100 N   0  0  0  0  0  0
   17.7160   22.1440   20.0110 C   0  0  0  0  0  0
   19.3760   21.9540   20.5290 S   0  0  0  0  0  0
   19.7650   23.6750   20.5160 C   0  0  0  0  0  0
   21.2650   23.8740   20.3390 C   0  0  0  0  0  0
   19.2720   24.3150   21.8220 C   0  0  0  0  0  0
   18.8770   24.2240   19.3950 C   0  0  1  0  0  0
   19.5800   24.2790   18.0540 C   0  0  0  0  0  0
   19.5990   23.3000   17.3280 O   0  0  0  0  0  0
   20.1530   25.4420   17.7460 N   0  0  0  0  0  0
   21.0700   25.5670   16.6340 C   0  0  1  0  0  0
   20.4350   26.1520   15.4360 C   0  0  0  0  0  0
   19.1930   25.8790   14.8800 C   0  0  0  0  0  0
   18.8180   26.5860   13.7300 C   0  0  0  0  0  0
   19.6550   27.5570   13.1540 C   0  0  0  0  0  0
   20.9130   27.8650   13.6900 C   0  0  0  0  0  0
   21.3060   27.1690   14.8340 C   0  0  0  0  0  0
   22.5760   27.2890   15.6250 C   0  0  0  0  0  0
   22.1730   26.6000   16.9330 C   0  0  1  0  0  0
   21.6980   27.6060   17.8290 O   0  0  0  0  0  0
   13.9426   18.1114   17.7616 H   0  0  0  0  0  0
   14.6405   18.1060   19.4167 H   0  0  0  0  0  0
   13.4742   18.4234   21.5348 H   0  0  0  0  0  0
   13.4476   16.6976   22.0324 H   0  0  0  0  0  0
   12.2087   17.8340   22.6653 H   0  0  0  0  0  0
   10.9726   15.6223   21.6424 H   0  0  0  0  0  0
    9.4809   15.0510   19.7792 H   0  0  0  0  0  0
    9.4868   16.3015   17.6698 H   0  0  0  0  0  0
   11.7829   19.2180   16.9976 H   0  0  0  0  0  0
   10.0358   18.8517   16.7973 H   0  0  0  0  0  0
   11.2708   17.7270   16.1366 H   0  0  0  0  0  0
   13.2650   21.1618   18.1468 H   0  0  0  0  0  0
   16.1427   21.8231   17.3006 H   0  0  0  0  0  0
   13.6314   23.3495   16.5714 H   0  0  0  0  0  0
   15.2953   23.5770   15.9340 H   0  0  0  0  0  0
   16.4013   21.6577   14.6785 H   0  0  0  0  0  0
   15.9886   19.8912   12.9864 H   0  0  0  0  0  0
   13.6983   18.9801   12.6544 H   0  0  0  0  0  0
   11.8015   19.8618   13.9925 H   0  0  0  0  0  0
   12.1964   21.6476   15.6825 H   0  0  0  0  0  0
   15.3156   22.6262   19.7438 H   0  0  0  0  0  0
   13.1352   23.5137   18.9541 H   0  0  0  0  0  0
   17.0358   22.1508   20.8755 H   0  0  0  0  0  0
   17.4269   21.3356   19.3233 H   0  0  0  0  0  0
   21.7963   23.4421   21.1999 H   0  0  0  0  0  0
   21.4869   24.9494   20.2731 H   0  0  0  0  0  0
   21.5948   23.3743   19.4162 H   0  0  0  0  0  0
   19.8816   23.9504   22.6619 H   0  0  0  0  0  0
   18.2190   24.0440   21.9884 H   0  0  0  0  0  0
   19.3623   25.4090   21.7511 H   0  0  0  0  0  0
   18.5963   25.2586   19.6417 H   0  0  0  0  0  0
   19.9128   26.3209   18.3623 H   0  0  0  0  0  0
   21.3839   24.5233   16.4851 H   0  0  0  0  0  0
   18.5295   25.1372   15.3245 H   0  0  0  0  0  0
   17.8520   26.3775   13.2701 H   0  0  0  0  0  0
   19.3157   28.0865   12.2637 H   0  0  0  0  0  0
   21.5570   28.6162   13.2327 H   0  0  0  0  0  0
   23.3900   26.7762   15.0916 H   0  0  0  0  0  0
   22.8315   28.3517   15.7494 H   0  0  0  0  0  0
   23.0208   26.1224   17.4460 H   0  0  0  0  0  0
   21.3538   27.3276   18.8360 H   0  0  0  0  0  0
  1  2  2  0  0  0
  2  3  1  0  0  0
  2 13  1  0  0  0
  3  4  1  0  0  0
  3 46  1  0  0  0
  3 47  1  0  0  0
  4  5  1  0  0  0
  5  6  2  0  0  0
  5 11  1  0  0  0
  6  7  1  0  0  0
  6  8  1  0  0  0
  7 48  1  0  0  0
  7 49  1  0  0  0
  7 50  1  0  0  0
  8  9  2  0  0  0
  8 51  1  0  0  0
  9 10  1  0  0  0
  9 52  1  0  0  0
 10 11  2  0  0  0
 10 53  1  0  0  0
 11 12  1  0  0  0
 12 54  1  0  0  0
 12 55  1  0  0  0
 12 56  1  0  0  0
 13 14  1  0  0  0
 13 57  1  0  0  0
 14 15  1  0  0  0
 14 22  1  0  0  0
 14 58  1  0  0  0
 15 16  1  0  0  0
 15 59  1  0  0  0
 15 60  1  0  0  0
 16 17  2  0  0  0
 16 21  1  0  0  0
 17 18  1  0  0  0
 17 61  1  0  0  0
 18 19  2  0  0  0
 18 62  1  0  0  0
 19 20  1  0  0  0
 19 63  1  0  0  0
 20 21  2  0  0  0
 20 64  1  0  0  0
 21 65  1  0  0  0
 22 23  1  0  0  0
 22 24  1  0  0  0
 22 66  1  0  0  0
 23 67  1  0  0  0
 24 25  2  0  0  0
 24 26  1  0  0  0
 26 27  1  0  0  0
 26 32  1  0  0  0
 27 28  1  0  0  0
 27 68  1  0  0  0
 27 69  1  0  0  0
 28 29  1  0  0  0
 29 30  1  0  0  0
 29 31  1  0  0  0
 29 32  1  0  0  0
 30 70  1  0  0  0
 30 71  1  0  0  0
 30 72  1  0  0  0
 31 73  1  0  0  0
 31 74  1  0  0  0
 31 75  1  0  0  0
 32 33  1  0  0  0
 32 76  1  0  0  0
 33 34  2  0  0  0
 33 35  1  0  0  0
 35 36  1  0  0  0
 35 77  1  0  0  0
 36 37  1  0  0  0
 36 44  1  0  0  0
 36 78  1  0  0  0
 37 38  2  0  0  0
 37 42  1  0  0  0
 38 39  1  0  0  0
 38 79  1  0  0  0
 39 40  2  0  0  0
 39 80  1  0  0  0
 40 41  1  0  0  0
 40 81  1  0  0  0
 41 42  2  0  0  0
 41 82  1  0  0  0
 42 43  1  0  0  0
 43 44  1  0  0  0
 43 83  1  0  0  0
 43 84  1  0  0  0
 44 45  1  0  0  0
 44 85  1  0  0  0
 45 86  1  0  0  0
M  END
> <s_m_source_file>
../3kdb_ligand.sdf

> <i_m_source_file_index>
1

> <s_epik_input>
W0NIM11jMVtjSF1bY0hdW2NIXWMoW0NIM10pYzFPW0NIMl1DKD1PKVtOSF1bQ0BASF0oW0NIMl1jMltjSF1bY0hdW2NIXVtjSF1bY0hdMilbQ0BIXShbT0hdKUMoPU8pTihbQ0gyXVNDMyhbQ0gzXSlbQ0gzXSlbQ0BASF0zQyg9TylbTkhdW0NAQEhdNFtDQEhdKFtPSF0pW0NIMl1jKGM0NSlbY0hdW2NIXVtjSF1bY0hdNQ==

> <s_epik_cmdline>
J2VwaWtfYXBwJywgJy1pbWFlJywgJ2xpZ2FuZF9wcm8ubWFlJywgJy1vbWFlJywgJ2xpZ2FuZF9wcmVwLm1hZScsICctbXMnLCAnMScsICctcGgnLCAnNycsICctcGh0JywgJzAuNScsICctbnQn

> <r_lp_tautomer_probability>
1

> <r_epik_Ionization_Penalty>
  0.0036

> <r_epik_Ionization_Penalty_Charging>
  0.0000

> <r_epik_Ionization_Penalty_Neutral>
  0.0036

> <r_epik_State_Penalty>
 -0.0000

> <r_epik_Charging_Adjusted_Penalty>
0

> <i_epik_Tot_Q>
0

> <i_epik_Tot_abs_Q>
0

> <s_epik_Chemistry_Notes>
This compound contains an acetal/aminal-like group ( X-CH(R)-Y where X, Y are N, S, or O) that may be acid/base labile, releasing an aldehyde.

$$$$
