3kdd_ligand
                    3D
 Schrodinger Suite 2020-3.
 80 84  0  0  1  0            999 V2000
   20.9360   27.7840   13.9310 F   0  0  0  0  0  0
   14.4870   22.1630   14.0230 S   0  0  0  0  0  0
   21.8310   26.5760   18.4360 F   0  0  0  0  0  0
   18.3120   24.8540   17.3280 N   0  0  0  0  0  0
   20.1430   26.5120   16.2750 O   0  0  0  0  0  0
   14.5650   22.9520   16.4800 N   0  0  0  0  0  0
   14.3210   23.1510   18.7030 O   0  0  0  0  0  0
   12.7750   20.1510   17.7610 N   0  0  0  0  0  0
   14.8870   20.1430   16.9220 O   0  0  0  0  0  0
   15.5370   25.5580   18.6490 O   0  0  0  0  0  0
   10.3050   19.0900   18.0860 O   0  0  0  0  0  0
   18.5390   23.4190   15.6150 O   0  0  0  0  0  0
   18.8880   24.4270   16.2010 C   0  0  0  0  0  0
   17.3440   24.0400   18.0450 C   0  0  2  0  0  0
   15.9400   24.5570   17.7100 C   0  0  1  0  0  0
   17.6560   24.0460   19.5430 C   0  0  0  0  0  0
   14.8800   23.4820   17.6680 C   0  0  0  0  0  0
   13.4670   21.9680   16.3660 C   0  0  1  0  0  0
   13.0320   21.7570   14.9090 C   0  0  0  0  0  0
   15.2200   23.2390   15.1980 C   0  0  0  0  0  0
   13.7810   20.6630   17.0470 C   0  0  0  0  0  0
   20.0300   25.2410   15.6370 C   0  0  0  0  0  0
   19.0230   23.4480   19.7890 C   0  0  0  0  0  0
   19.1960   22.0620   19.7970 C   0  0  0  0  0  0
   20.4580   21.5220   20.0270 C   0  0  0  0  0  0
   21.5480   22.3650   20.2370 C   0  0  0  0  0  0
   21.3800   23.7500   20.2270 C   0  0  0  0  0  0
   20.1130   24.2890   20.0070 C   0  0  0  0  0  0
   11.9340   22.7570   14.5910 C   0  0  0  0  0  0
   12.5540   20.3490   14.5550 C   0  0  0  0  0  0
   12.7160   18.7520   18.1230 C   0  0  1  0  0  0
   12.9200   18.5560   19.5700 C   0  0  0  0  0  0
   13.8460   19.2030   20.3720 C   0  0  0  0  0  0
   13.8510   18.8560   21.7200 C   0  0  0  0  0  0
   11.3370   18.1130   17.9220 C   0  0  1  0  0  0
   12.0610   17.6130   20.0750 C   0  0  0  0  0  0
   12.0500   17.2580   21.4170 C   0  0  0  0  0  0
   12.9700   17.9010   22.2350 C   0  0  0  0  0  0
   11.1530   17.0670   19.0160 C   0  0  0  0  0  0
   23.8070   28.4700   16.0460 C   0  0  0  0  0  0
   22.9650   28.4430   14.9370 C   0  0  0  0  0  0
   21.7370   27.7920   15.0110 C   0  0  0  0  0  0
   21.3510   27.1650   16.1920 C   0  0  0  0  0  0
   22.1970   27.1830   17.2930 C   0  0  0  0  0  0
   23.4240   27.8360   17.2230 C   0  0  0  0  0  0
   18.5863   25.8479   17.7114 H   0  0  0  0  0  0
   11.9726   20.8347   18.0751 H   0  0  0  0  0  0
   16.1776   26.4341   18.8278 H   0  0  0  0  0  0
   10.2442   19.9465   17.3985 H   0  0  0  0  0  0
   17.4404   23.0005   17.6983 H   0  0  0  0  0  0
   15.9875   25.0323   16.7191 H   0  0  0  0  0  0
   17.6410   25.0805   19.9165 H   0  0  0  0  0  0
   16.8998   23.4523   20.0774 H   0  0  0  0  0  0
   12.6368   22.4201   16.9285 H   0  0  0  0  0  0
   16.3006   23.0409   15.2525 H   0  0  0  0  0  0
   15.0535   24.2828   14.8933 H   0  0  0  0  0  0
   19.8518   25.3853   14.5612 H   0  0  0  0  0  0
   20.9615   24.6741   15.7815 H   0  0  0  0  0  0
   18.3442   21.4045   19.6234 H   0  0  0  0  0  0
   20.5939   20.4406   20.0429 H   0  0  0  0  0  0
   22.5367   21.9400   20.4099 H   0  0  0  0  0  0
   22.2343   24.4069   20.3902 H   0  0  0  0  0  0
   19.9746   25.3702   20.0055 H   0  0  0  0  0  0
   12.2766   23.7709   14.8453 H   0  0  0  0  0  0
   11.0363   22.5151   15.1788 H   0  0  0  0  0  0
   11.6939   22.7092   13.5186 H   0  0  0  0  0  0
   13.3483   19.6235   14.7848 H   0  0  0  0  0  0
   12.3137   20.3022   13.4826 H   0  0  0  0  0  0
   11.6560   20.1080   15.1429 H   0  0  0  0  0  0
   13.5176   18.3469   17.4880 H   0  0  0  0  0  0
   14.5348   19.9451   19.9684 H   0  0  0  0  0  0
   14.5599   19.3413   22.3909 H   0  0  0  0  0  0
   11.2231   17.7149   16.9029 H   0  0  0  0  0  0
   11.3560   16.5140   21.8081 H   0  0  0  0  0  0
   13.0056   17.6567   23.2967 H   0  0  0  0  0  0
   10.0952   17.0319   19.3156 H   0  0  0  0  0  0
   11.4593   16.0812   18.6360 H   0  0  0  0  0  0
   24.7649   28.9873   15.9915 H   0  0  0  0  0  0
   23.2677   28.9318   14.0109 H   0  0  0  0  0  0
   24.0843   27.8505   18.0901 H   0  0  0  0  0  0
  1 42  1  0  0  0
  2 19  1  0  0  0
  2 20  1  0  0  0
  3 44  1  0  0  0
  4 13  1  0  0  0
  4 14  1  0  0  0
  4 46  1  0  0  0
  5 22  1  0  0  0
  5 43  1  0  0  0
  6 17  1  0  0  0
  6 18  1  0  0  0
  6 20  1  0  0  0
  7 17  2  0  0  0
  8 21  1  0  0  0
  8 31  1  0  0  0
  8 47  1  0  0  0
  9 21  2  0  0  0
 10 15  1  0  0  0
 10 48  1  0  0  0
 11 35  1  0  0  0
 11 49  1  0  0  0
 12 13  2  0  0  0
 13 22  1  0  0  0
 14 15  1  0  0  0
 14 16  1  0  0  0
 14 50  1  0  0  0
 15 17  1  0  0  0
 15 51  1  0  0  0
 16 23  1  0  0  0
 16 52  1  0  0  0
 16 53  1  0  0  0
 18 19  1  0  0  0
 18 21  1  0  0  0
 18 54  1  0  0  0
 19 29  1  0  0  0
 19 30  1  0  0  0
 20 55  1  0  0  0
 20 56  1  0  0  0
 22 57  1  0  0  0
 22 58  1  0  0  0
 23 24  2  0  0  0
 23 28  1  0  0  0
 24 25  1  0  0  0
 24 59  1  0  0  0
 25 26  2  0  0  0
 25 60  1  0  0  0
 26 27  1  0  0  0
 26 61  1  0  0  0
 27 28  2  0  0  0
 27 62  1  0  0  0
 28 63  1  0  0  0
 29 64  1  0  0  0
 29 65  1  0  0  0
 29 66  1  0  0  0
 30 67  1  0  0  0
 30 68  1  0  0  0
 30 69  1  0  0  0
 31 32  1  0  0  0
 31 35  1  0  0  0
 31 70  1  0  0  0
 32 33  2  0  0  0
 32 36  1  0  0  0
 33 34  1  0  0  0
 33 71  1  0  0  0
 34 38  2  0  0  0
 34 72  1  0  0  0
 35 39  1  0  0  0
 35 73  1  0  0  0
 36 37  2  0  0  0
 36 39  1  0  0  0
 37 38  1  0  0  0
 37 74  1  0  0  0
 38 75  1  0  0  0
 39 76  1  0  0  0
 39 77  1  0  0  0
 40 41  2  0  0  0
 40 45  1  0  0  0
 40 78  1  0  0  0
 41 42  1  0  0  0
 41 79  1  0  0  0
 42 43  2  0  0  0
 43 44  1  0  0  0
 44 45  2  0  0  0
 45 80  1  0  0  0
M  END
> <s_m_source_file>
../3kdd_ligand.sdf

> <i_m_source_file_index>
1

> <s_epik_input>
RmMxW2NIXVtjSF1bY0hdYyhGKWMxT1tDSDJdQyg9TylbTkhdW0NAQEhdKFtDSDJdYzJbY0hdW2NIXVtjSF1bY0hdW2NIXTIpW0NASF0oW09IXSlDKD1PKU4oW0NIMl1TQzMoW0NIM10pW0NIM10pW0NAQEhdM0MoPU8pW05IXVtDQEBIXTRbQ0BIXShbT0hdKVtDSDJdYyhjNDUpW2NIXVtjSF1bY0hdW2NIXTU=

> <s_epik_cmdline>
J2VwaWtfYXBwJywgJy1pbWFlJywgJ2xpZ2FuZF9wcm8ubWFlJywgJy1vbWFlJywgJ2xpZ2FuZF9wcmVwLm1hZScsICctbXMnLCAnMScsICctcGgnLCAnNycsICctcGh0JywgJzAuNScsICctbnQn

> <r_lp_tautomer_probability>
1

> <r_epik_Ionization_Penalty>
  0.0036

> <r_epik_Ionization_Penalty_Charging>
  0.0000

> <r_epik_Ionization_Penalty_Neutral>
  0.0036

> <r_epik_State_Penalty>
 -0.0000

> <r_epik_Charging_Adjusted_Penalty>
0

> <i_epik_Tot_Q>
0

> <i_epik_Tot_abs_Q>
0

> <s_epik_Chemistry_Notes>
This compound contains an acetal/aminal-like group ( X-CH(R)-Y where X, Y are N, S, or O) that may be acid/base labile, releasing an aldehyde.

$$$$
