3kdt_ligand
                    3D
 Schrodinger Suite 2020-3.
 51 53  0  0  1  0            999 V2000
    0.7750   17.1400   -8.1040 C   0  0  0  0  0  0
    1.9370   17.2450   -9.0650 C   0  0  0  0  0  0
    3.2110   16.6640   -8.9570 C   0  0  0  0  0  0
    3.8940   17.0490  -10.0430 N   0  0  0  0  0  0
    3.0600   17.8140  -10.7780 C   0  0  0  0  0  0
    1.9200   17.9160  -10.1670 O   0  0  0  0  0  0
    3.4880   18.4620  -12.0520 C   0  0  0  0  0  0
    2.6210   18.8410  -13.0830 C   0  0  0  0  0  0
    3.1520   19.4660  -14.2120 C   0  0  0  0  0  0
    4.5300   19.7200  -14.2870 C   0  0  0  0  0  0
    5.3840   19.3560  -13.2520 C   0  0  0  0  0  0
    4.8530   18.7370  -12.1390 C   0  0  0  0  0  0
    5.2700   20.4970  -15.6560 Cl  0  0  0  0  0  0
    3.7690   15.7740   -7.8760 C   0  0  0  0  0  0
    2.6810   15.1100   -7.1990 O   0  0  0  0  0  0
    2.7930   13.9700   -6.5350 C   0  0  0  0  0  0
    4.0260   13.6090   -5.9810 C   0  0  0  0  0  0
    4.1240   12.4110   -5.2980 C   0  0  0  0  0  0
    3.0210   11.5810   -5.1520 C   0  0  0  0  0  0
    1.7900   11.9430   -5.6830 C   0  0  0  0  0  0
    1.6850   13.1370   -6.3850 C   0  0  0  0  0  0
    0.6280   11.0050   -5.5240 C   0  0  0  0  0  0
    0.2710   10.5680   -6.8690 N   0  0  0  0  0  0
    1.1580    9.7170   -7.6680 C   0  0  0  0  0  0
    0.9050    8.2530   -7.4100 C   0  0  0  0  0  0
    1.8000    7.4600   -7.6350 O   0  0  0  0  0  0
   -0.2670    7.8290   -6.9510 O   0  5  0  0  0  0
   -0.8670   11.0040   -7.4070 C   0  0  0  0  0  0
   -1.6470   11.6520   -6.7330 O   0  0  0  0  0  0
   -1.1360   10.7410   -8.6810 O   0  0  0  0  0  0
   -2.0690    9.6790   -9.0220 C   0  0  0  0  0  0
    1.0614   16.5086   -7.2500 H   0  0  0  0  0  0
   -0.0873   16.6913   -8.6189 H   0  0  0  0  0  0
    0.5053   18.1437   -7.7437 H   0  0  0  0  0  0
    1.5504   18.6515  -13.0056 H   0  0  0  0  0  0
    2.4977   19.7563  -15.0340 H   0  0  0  0  0  0
    6.4534   19.5560  -13.3186 H   0  0  0  0  0  0
    5.5101   18.4586  -11.3151 H   0  0  0  0  0  0
    4.4359   15.0241   -8.3264 H   0  0  0  0  0  0
    4.3352   16.3828   -7.1557 H   0  0  0  0  0  0
    4.8936   14.2605   -6.0860 H   0  0  0  0  0  0
    5.0807   12.1141   -4.8682 H   0  0  0  0  0  0
    3.1220   10.6372   -4.6161 H   0  0  0  0  0  0
    0.7289   13.4250   -6.8220 H   0  0  0  0  0  0
    0.9283   10.1522   -4.8975 H   0  0  0  0  0  0
   -0.2084   11.5352   -5.0451 H   0  0  0  0  0  0
    0.9907    9.9147   -8.7371 H   0  0  0  0  0  0
    2.2051    9.9380   -7.4138 H   0  0  0  0  0  0
   -2.1631    9.6108  -10.1158 H   0  0  0  0  0  0
   -3.0528    9.9001   -8.5824 H   0  0  0  0  0  0
   -1.6968    8.7227   -8.6257 H   0  0  0  0  0  0
  1  2  1  0  0  0
  1 32  1  0  0  0
  1 33  1  0  0  0
  1 34  1  0  0  0
  2  3  2  0  0  0
  2  6  1  0  0  0
  3  4  1  0  0  0
  3 14  1  0  0  0
  4  5  2  0  0  0
  5  6  1  0  0  0
  5  7  1  0  0  0
  7  8  2  0  0  0
  7 12  1  0  0  0
  8  9  1  0  0  0
  8 35  1  0  0  0
  9 10  2  0  0  0
  9 36  1  0  0  0
 10 11  1  0  0  0
 10 13  1  0  0  0
 11 12  2  0  0  0
 11 37  1  0  0  0
 12 38  1  0  0  0
 14 15  1  0  0  0
 14 39  1  0  0  0
 14 40  1  0  0  0
 15 16  1  0  0  0
 16 17  2  0  0  0
 16 21  1  0  0  0
 17 18  1  0  0  0
 17 41  1  0  0  0
 18 19  2  0  0  0
 18 42  1  0  0  0
 19 20  1  0  0  0
 19 43  1  0  0  0
 20 21  2  0  0  0
 20 22  1  0  0  0
 21 44  1  0  0  0
 22 23  1  0  0  0
 22 45  1  0  0  0
 22 46  1  0  0  0
 23 24  1  0  0  0
 23 28  1  0  0  0
 24 25  1  0  0  0
 24 47  1  0  0  0
 24 48  1  0  0  0
 25 26  2  0  0  0
 25 27  1  0  0  0
 28 29  2  0  0  0
 28 30  1  0  0  0
 30 31  1  0  0  0
 31 49  1  0  0  0
 31 50  1  0  0  0
 31 51  1  0  0  0
M  CHG  1  27  -1
M  END
> <s_m_source_file>
../3kdt_ligand.sdf

> <i_m_source_file_index>
1

> <s_epik_input>
W2NIXTFbY0hdYyhDbClbY0hdW2NIXWMxLWMobzIpbmMoYzJbQ0gzXSlbQ0gyXU9jM1tjSF1bY0hdW2NIXWMoW2NIXTMpW0NIMl1OKFtDSDJdQyg9TylbT0hdKUMoPU8pT1tDSDNd

> <s_epik_cmdline>
J2VwaWtfYXBwJywgJy1pbWFlJywgJ2xpZ2FuZF9wcm8ubWFlJywgJy1vbWFlJywgJ2xpZ2FuZF9wcmVwLm1hZScsICctbXMnLCAnMScsICctcGgnLCAnNycsICctcGh0JywgJzAuNScsICctbnQn

> <r_lp_tautomer_probability>
1

> <r_epik_Ionization_Penalty>
  0.0002

> <r_epik_Ionization_Penalty_Charging>
  0.0002

> <r_epik_Ionization_Penalty_Neutral>
  0.0000

> <r_epik_State_Penalty>
 -0.0000

> <r_epik_Charging_Adjusted_Penalty>
0.00021290844511682

> <i_epik_Tot_Q>
-1

> <i_epik_Tot_abs_Q>
1

> <s_epik_Chemistry_Notes>
This compound has an ester and may undergo hydrolysis at high or low pH.

$$$$
