3kdu_ligand
                    3D
 Schrodinger Suite 2020-3.
 61 64  0  0  1  0            999 V2000
   27.6340   48.4050   16.6830 C   0  0  0  0  0  0
   28.3160   47.2920   17.4400 C   0  0  0  0  0  0
   28.0440   45.9620   17.1270 C   0  0  0  0  0  0
   28.6780   44.9410   17.8390 C   0  0  0  0  0  0
   29.5960   45.2270   18.8560 C   0  0  0  0  0  0
   29.8470   46.5680   19.1520 C   0  0  0  0  0  0
   29.2170   47.6020   18.4550 C   0  0  0  0  0  0
   30.2080   44.2640   19.5560 O   0  0  0  0  0  0
   30.9210   43.2700   19.0120 C   0  0  0  0  0  0
   30.6620   42.8660   17.8900 O   0  0  0  0  0  0
   31.9280   42.6760   19.6680 N   0  0  0  0  0  0
   32.2230   43.0200   21.0660 C   0  0  0  0  0  0
   33.5290   43.7690   21.1140 C   0  0  0  0  0  0
   34.6960   43.1210   21.5160 C   0  0  0  0  0  0
   35.9020   43.8180   21.5310 C   0  0  0  0  0  0
   35.9270   45.1550   21.1510 C   0  0  0  0  0  0
   34.7570   45.8000   20.7450 C   0  0  0  0  0  0
   33.5550   45.1060   20.7240 C   0  0  0  0  0  0
   34.7660   47.0780   20.3700 O   0  0  0  0  0  0
   35.8380   47.5700   19.5370 C   0  0  0  0  0  0
   35.3840   48.6360   18.5690 C   0  0  0  0  0  0
   34.2630   49.4830   18.5980 C   0  0  0  0  0  0
   34.3290   50.2150   17.5370 O   0  0  0  0  0  0
   35.3790   49.9150   16.8360 C   0  0  0  0  0  0
   36.0670   48.9370   17.4440 N   0  0  0  0  0  0
   35.7530   50.5990   15.5770 C   0  0  0  0  0  0
   36.9770   50.3440   14.9600 C   0  0  0  0  0  0
   37.2970   51.0300   13.7880 C   0  0  0  0  0  0
   36.3870   51.9490   13.2610 C   0  0  0  0  0  0
   35.1700   52.2010   13.8870 C   0  0  0  0  0  0
   34.8520   51.5240   15.0560 C   0  0  0  0  0  0
   36.7660   52.8120   11.8070 Cl  0  0  0  0  0  0
   33.1360   49.5830   19.6090 C   0  0  0  0  0  0
   32.7320   41.6720   18.9520 C   0  0  0  0  0  0
   32.3940   40.2470   19.3450 C   0  0  0  0  0  0
   33.2020   39.3410   19.1780 O   0  0  0  0  0  0
   31.2110   39.9470   19.8710 O   0  5  0  0  0  0
   26.9626   47.9752   15.9250 H   0  0  0  0  0  0
   28.3920   49.0306   16.1890 H   0  0  0  0  0  0
   27.0502   49.0206   17.3832 H   0  0  0  0  0  0
   27.3402   45.7194   16.3308 H   0  0  0  0  0  0
   28.4535   43.9020   17.5980 H   0  0  0  0  0  0
   30.5517   46.8143   19.9463 H   0  0  0  0  0  0
   29.4290   48.6419   18.7036 H   0  0  0  0  0  0
   31.4157   43.6507   21.4666 H   0  0  0  0  0  0
   32.2986   42.0987   21.6622 H   0  0  0  0  0  0
   34.6649   42.0739   21.8172 H   0  0  0  0  0  0
   36.8204   43.3182   21.8388 H   0  0  0  0  0  0
   36.8681   45.7046   21.1701 H   0  0  0  0  0  0
   32.6390   45.6032   20.4049 H   0  0  0  0  0  0
   36.6249   48.0047   20.1709 H   0  0  0  0  0  0
   36.2571   46.7394   18.9501 H   0  0  0  0  0  0
   37.6723   49.6208   15.3861 H   0  0  0  0  0  0
   38.2488   50.8503   13.2881 H   0  0  0  0  0  0
   34.4728   52.9236   13.4630 H   0  0  0  0  0  0
   33.9054   51.7147   15.5618 H   0  0  0  0  0  0
   33.3053   48.8590   20.4197 H   0  0  0  0  0  0
   32.1788   49.3621   19.1141 H   0  0  0  0  0  0
   33.1069   50.6004   20.0262 H   0  0  0  0  0  0
   32.5599   41.7683   17.8698 H   0  0  0  0  0  0
   33.7982   41.8331   19.1695 H   0  0  0  0  0  0
  1  2  1  0  0  0
  1 38  1  0  0  0
  1 39  1  0  0  0
  1 40  1  0  0  0
  2  3  2  0  0  0
  2  7  1  0  0  0
  3  4  1  0  0  0
  3 41  1  0  0  0
  4  5  2  0  0  0
  4 42  1  0  0  0
  5  6  1  0  0  0
  5  8  1  0  0  0
  6  7  2  0  0  0
  6 43  1  0  0  0
  7 44  1  0  0  0
  8  9  1  0  0  0
  9 10  2  0  0  0
  9 11  1  0  0  0
 11 12  1  0  0  0
 11 34  1  0  0  0
 12 13  1  0  0  0
 12 45  1  0  0  0
 12 46  1  0  0  0
 13 14  2  0  0  0
 13 18  1  0  0  0
 14 15  1  0  0  0
 14 47  1  0  0  0
 15 16  2  0  0  0
 15 48  1  0  0  0
 16 17  1  0  0  0
 16 49  1  0  0  0
 17 18  2  0  0  0
 17 19  1  0  0  0
 18 50  1  0  0  0
 19 20  1  0  0  0
 20 21  1  0  0  0
 20 51  1  0  0  0
 20 52  1  0  0  0
 21 22  2  0  0  0
 21 25  1  0  0  0
 22 23  1  0  0  0
 22 33  1  0  0  0
 23 24  1  0  0  0
 24 25  2  0  0  0
 24 26  1  0  0  0
 26 27  2  0  0  0
 26 31  1  0  0  0
 27 28  1  0  0  0
 27 53  1  0  0  0
 28 29  2  0  0  0
 28 54  1  0  0  0
 29 30  1  0  0  0
 29 32  1  0  0  0
 30 31  2  0  0  0
 30 55  1  0  0  0
 31 56  1  0  0  0
 33 57  1  0  0  0
 33 58  1  0  0  0
 33 59  1  0  0  0
 34 35  1  0  0  0
 34 60  1  0  0  0
 34 61  1  0  0  0
 35 36  2  0  0  0
 35 37  1  0  0  0
M  CHG  1  37  -1
M  END
> <s_m_source_file>
../3kdu_ligand.sdf

> <i_m_source_file_index>
1

> <s_epik_input>
W0NIM11jMVtjSF1bY0hdYyhbY0hdW2NIXTEpT0MoPU8pTihbQ0gyXUMoPU8pW09IXSlbQ0gyXWMyW2NIXVtjSF1bY0hdYyhbY0hdMilPW0NIMl1jM2MoW0NIM10pb2MobjMpLWM0W2NIXVtjSF1jKENsKVtjSF1bY0hdNA==

> <s_epik_cmdline>
J2VwaWtfYXBwJywgJy1pbWFlJywgJ2xpZ2FuZF9wcm8ubWFlJywgJy1vbWFlJywgJ2xpZ2FuZF9wcmVwLm1hZScsICctbXMnLCAnMScsICctcGgnLCAnNycsICctcGh0JywgJzAuNScsICctbnQn

> <r_lp_tautomer_probability>
1

> <r_epik_Ionization_Penalty>
  0.0002

> <r_epik_Ionization_Penalty_Charging>
  0.0002

> <r_epik_Ionization_Penalty_Neutral>
  0.0000

> <r_epik_State_Penalty>
 -0.0000

> <r_epik_Charging_Adjusted_Penalty>
0.000162803880652179

> <i_epik_Tot_Q>
-1

> <i_epik_Tot_abs_Q>
1

$$$$
