3kec_ligand
                    3D
 Schrodinger Suite 2020-3.
 53 56  0  0  1  0            999 V2000
   82.0980    9.6500   35.7790 C   0  0  0  0  0  0
   82.7220   10.8580   36.0090 C   0  0  0  0  0  0
   86.2950    9.9820   35.6580 C   0  0  0  0  0  0
   86.9950    8.9940   35.0160 N   0  0  0  0  0  0
   88.4260    9.1780   34.9210 C   0  0  0  0  0  0
   89.7000   10.9030   31.2400 C   0  0  0  0  0  0
   90.1860    9.6850   31.6570 C   0  0  0  0  0  0
   89.7650    9.1390   32.8490 C   0  0  0  0  0  0
   88.8550    9.8030   33.6370 C   0  0  0  0  0  0
   88.3670   11.0240   33.2210 C   0  0  0  0  0  0
   88.7870   11.5710   32.0270 C   0  0  0  0  0  0
   82.8550    8.5290   35.5030 C   0  0  0  0  0  0
   84.0950   10.9380   35.9650 C   0  0  0  0  0  0
   84.8380    9.8150   35.6910 C   0  0  0  0  0  0
   84.2340    8.6000   35.4580 C   0  0  0  0  0  0
   86.7990   10.9750   36.1690 O   0  0  0  0  0  0
   90.1690   11.4700   29.9610 C   0  0  0  0  0  0
   90.1810   12.7300   29.8510 O   0  5  0  0  0  0
   90.5280   10.6420   29.0800 O   0  0  0  0  0  0
   80.6850   12.2450   36.0680 N   0  0  0  0  0  0
   80.5640   13.4890   36.5520 N   0  0  3  0  0  0
   81.6710   14.0570   37.0550 N   0  0  0  0  0  0
   82.6070   13.1310   36.9020 N   0  0  0  0  0  0
   81.9900   12.0560   36.3110 C   0  0  0  0  0  0
   79.3030   14.1920   36.5280 C   0  0  0  0  0  0
   79.3940   17.4220   33.7590 C   0  0  0  0  0  0
   78.5060   17.4310   34.8210 C   0  0  0  0  0  0
   78.4990   16.3730   35.7050 C   0  0  0  0  0  0
   79.3630   15.3110   35.5430 C   0  0  0  0  0  0
   80.2510   15.3110   34.4800 C   0  0  0  0  0  0
   80.2670   16.3680   33.5890 C   0  0  0  0  0  0
   79.4330   18.4670   32.8370 O   0  0  0  0  0  0
   78.2980   19.3070   33.0240 C   0  0  0  0  0  0
   81.0108    9.5805   35.8150 H   0  0  0  0  0  0
   86.5260    8.0972   34.5850 H   0  0  0  0  0  0
   88.7667    9.8310   35.7380 H   0  0  0  0  0  0
   88.9272    8.2019   34.9986 H   0  0  0  0  0  0
   90.9080    9.1496   31.0405 H   0  0  0  0  0  0
   90.1560    8.1735   33.1700 H   0  0  0  0  0  0
   87.6459   11.5591   33.8390 H   0  0  0  0  0  0
   88.3953   12.5356   31.7043 H   0  0  0  0  0  0
   82.3587    7.5763   35.3183 H   0  0  0  0  0  0
   84.5924   11.8906   36.1472 H   0  0  0  0  0  0
   84.8306    7.7136   35.2428 H   0  0  0  0  0  0
   78.5012   13.4969   36.2384 H   0  0  0  0  0  0
   79.0915   14.5999   37.5275 H   0  0  0  0  0  0
   77.8191   18.2663   34.9570 H   0  0  0  0  0  0
   77.8015   16.3763   36.5426 H   0  0  0  0  0  0
   80.9386   14.4760   34.3457 H   0  0  0  0  0  0
   80.9679   16.3683   32.7542 H   0  0  0  0  0  0
   78.3284   20.1317   32.2967 H   0  0  0  0  0  0
   78.3098   19.7174   34.0445 H   0  0  0  0  0  0
   77.3793   18.7205   32.8752 H   0  0  0  0  0  0
  1  2  2  0  0  0
  1 12  1  0  0  0
  1 34  1  0  0  0
  2 13  1  0  0  0
  2 24  1  0  0  0
  3  4  1  0  0  0
  3 14  1  0  0  0
  3 16  2  0  0  0
  4  5  1  0  0  0
  4 35  1  0  0  0
  5  9  1  0  0  0
  5 36  1  0  0  0
  5 37  1  0  0  0
  6  7  2  0  0  0
  6 11  1  0  0  0
  6 17  1  0  0  0
  7  8  1  0  0  0
  7 38  1  0  0  0
  8  9  2  0  0  0
  8 39  1  0  0  0
  9 10  1  0  0  0
 10 11  2  0  0  0
 10 40  1  0  0  0
 11 41  1  0  0  0
 12 15  2  0  0  0
 12 42  1  0  0  0
 13 14  2  0  0  0
 13 43  1  0  0  0
 14 15  1  0  0  0
 15 44  1  0  0  0
 17 18  1  0  0  0
 17 19  2  0  0  0
 20 21  1  0  0  0
 20 24  2  0  0  0
 21 22  1  0  0  0
 21 25  1  0  0  0
 22 23  2  0  0  0
 23 24  1  0  0  0
 25 29  1  0  0  0
 25 45  1  0  0  0
 25 46  1  0  0  0
 26 27  2  0  0  0
 26 31  1  0  0  0
 26 32  1  0  0  0
 27 28  1  0  0  0
 27 47  1  0  0  0
 28 29  2  0  0  0
 28 48  1  0  0  0
 29 30  1  0  0  0
 30 31  2  0  0  0
 30 49  1  0  0  0
 31 50  1  0  0  0
 32 33  1  0  0  0
 33 51  1  0  0  0
 33 52  1  0  0  0
 33 53  1  0  0  0
M  CHG  1  18  -1
M  END
> <s_m_source_file>
../3kec_ligand.sdf

> <i_m_source_file_index>
1

> <s_epik_input>
W0NIM11PYzFbY0hdW2NIXWMoW2NIXVtjSF0xKVtDSDJdbjJuYyhubjIpLWMzW2NIXVtjSF1bY0hdYyhbY0hdMylDKD1PKVtOSF1bQ0gyXWMoW2NIXVtjSF00KVtjSF1bY0hdYzRDKD1PKVtPSF0=

> <s_epik_cmdline>
J2VwaWtfYXBwJywgJy1pbWFlJywgJ2xpZ2FuZF9wcm8ubWFlJywgJy1vbWFlJywgJ2xpZ2FuZF9wcmVwLm1hZScsICctbXMnLCAnMScsICctcGgnLCAnNycsICctcGh0JywgJzAuNScsICctbnQn

> <r_lp_tautomer_probability>
1

> <r_epik_Ionization_Penalty>
  0.0008

> <r_epik_Ionization_Penalty_Charging>
  0.0008

> <r_epik_Ionization_Penalty_Neutral>
  0.0000

> <r_epik_State_Penalty>
 -0.0000

> <r_epik_Charging_Adjusted_Penalty>
0.000845811612453534

> <i_epik_Tot_Q>
-1

> <i_epik_Tot_abs_Q>
1

$$$$
