3ked_ligand
                    3D
 Schrodinger Suite 2020-3.
 19 18  0  0  1  0            999 V2000
  -49.0580   48.2760    6.2950 N   0  3  0  0  0  0
  -48.7580   47.4260    7.5100 C   0  0  2  0  0  0
  -47.9490   46.1570    7.0720 C   0  0  0  0  0  0
  -48.2970   45.6630    6.0220 O   0  0  0  0  0  0
  -50.0730   47.0430    8.2630 C   0  0  0  0  0  0
  -49.6910   46.3910    9.6420 C   0  0  0  0  0  0
  -49.2280   44.9620    9.6120 N   0  3  0  0  0  0
  -47.0020   45.7480    7.7210 O   0  5  0  0  0  0
  -48.1175   48.5309    5.7846 H   0  0  0  0  0  0
  -49.5662   49.1993    6.6099 H   0  0  0  0  0  0
  -49.7084   47.7158    5.6071 H   0  0  0  0  0  0
  -48.1466   48.0344    8.1927 H   0  0  0  0  0  0
  -50.6760   47.9475    8.4311 H   0  0  0  0  0  0
  -50.6473   46.3269    7.6569 H   0  0  0  0  0  0
  -48.8692   46.9599   10.1014 H   0  0  0  0  0  0
  -50.5653   46.4060   10.3094 H   0  0  0  0  0  0
  -48.9944   44.6307   10.6346 H   0  0  0  0  0  0
  -48.3273   44.8815    8.9857 H   0  0  0  0  0  0
  -50.0233   44.3276    9.1937 H   0  0  0  0  0  0
  1  2  1  0  0  0
  1  9  1  0  0  0
  1 10  1  0  0  0
  1 11  1  0  0  0
  2  3  1  0  0  0
  2  5  1  0  0  0
  2 12  1  0  0  0
  3  4  2  0  0  0
  3  8  1  0  0  0
  5  6  1  0  0  0
  5 13  1  0  0  0
  5 14  1  0  0  0
  6  7  1  0  0  0
  6 15  1  0  0  0
  6 16  1  0  0  0
  7 17  1  0  0  0
  7 18  1  0  0  0
  7 19  1  0  0  0
M  CHG  3   1   1   7   1   8  -1
M  END
> <s_m_source_file>
../3ked_ligand.sdf

> <i_m_source_file_index>
1

> <s_epik_input>
Tz1DKFtPSF0pW0NAQEhdKFtOSDMrXSlbQ0gyXVtDSDJdW05IMytd

> <s_epik_cmdline>
J2VwaWtfYXBwJywgJy1pbWFlJywgJ2xpZ2FuZF9wcm8ubWFlJywgJy1vbWFlJywgJ2xpZ2FuZF9wcmVwLm1hZScsICctbXMnLCAnMScsICctcGgnLCAnNycsICctcGh0JywgJzAuNScsICctbnQn

> <r_lp_tautomer_probability>
1

> <r_epik_Ionization_Penalty>
  0.0099

> <r_epik_Ionization_Penalty_Charging>
  0.0099

> <r_epik_Ionization_Penalty_Neutral>
  0.0000

> <r_epik_State_Penalty>
 -0.0000

> <r_epik_Charging_Adjusted_Penalty>
0.0098627764483289

> <i_epik_Tot_Q>
1

> <i_epik_Tot_abs_Q>
3

$$$$
