3kej_ligand
                    3D
 Schrodinger Suite 2020-3.
 48 51  0  0  1  0            999 V2000
   47.1460   18.4200   15.4830 C   0  0  0  0  0  0
   46.9490   17.2380   14.7990 C   0  0  0  0  0  0
   46.1510   16.2590   15.3470 C   0  0  0  0  0  0
   45.5600   16.4650   16.5730 C   0  0  0  0  0  0
   45.7480   17.6420   17.2630 C   0  0  0  0  0  0
   46.5440   18.6230   16.7080 C   0  0  0  0  0  0
   47.5670   16.9880   13.4820 C   0  0  0  0  0  0
   48.7320   17.4180   13.3040 O   0  0  0  0  0  0
   46.8670   16.3570   12.6410 O   0  5  0  0  0  0
   45.0650   17.7820   18.5860 C   0  0  0  0  0  0
   45.0940   19.1470   19.0680 N   0  0  3  0  0  0
   46.1170   19.5550   19.8200 N   0  0  0  0  0  0
   45.8280   20.8230   20.0620 N   0  0  0  0  0  0
   44.6470   21.1040   19.4310 C   0  0  0  0  0  0
   44.1450   20.0540   18.7740 N   0  0  0  0  0  0
   44.0850   22.4290   19.4450 C   0  0  0  0  0  0
   44.9110   23.4960   19.7330 C   0  0  0  0  0  0
   44.3890   24.7710   19.6930 C   0  0  0  0  0  0
   43.1210   25.0560   19.3700 N   0  0  0  0  0  0
   42.3490   23.9920   19.1020 C   0  0  0  0  0  0
   42.7680   22.6790   19.1250 C   0  0  0  0  0  0
   45.3010   25.9020   19.9820 C   0  0  0  0  0  0
   44.7740   27.1290   19.6830 N   0  0  0  0  0  0
   45.5380   28.3470   19.8460 C   0  0  0  0  0  0
   46.6090   28.5590   18.8320 C   0  0  0  0  0  0
   46.4390   25.7070   20.3870 O   0  0  0  0  0  0
   46.9120   27.6180   17.8620 C   0  0  0  0  0  0
   47.9120   27.8440   16.9420 C   0  0  0  0  0  0
   48.6330   29.0190   16.9700 C   0  0  0  0  0  0
   48.3190   29.9470   17.9380 C   0  0  0  0  0  0
   47.3210   29.7360   18.8620 C   0  0  0  0  0  0
   48.9940   31.0980   17.9850 F   0  0  0  0  0  0
   47.7796   19.1964   15.0541 H   0  0  0  0  0  0
   45.9877   15.3237   14.8117 H   0  0  0  0  0  0
   44.9334   15.6844   17.0045 H   0  0  0  0  0  0
   46.6979   19.5622   17.2394 H   0  0  0  0  0  0
   44.0136   17.4732   18.4903 H   0  0  0  0  0  0
   45.5683   17.1445   19.3278 H   0  0  0  0  0  0
   45.9583   23.3334   19.9878 H   0  0  0  0  0  0
   41.3066   24.1810   18.8454 H   0  0  0  0  0  0
   42.0800   21.8648   18.8975 H   0  0  0  0  0  0
   43.7403   27.1740   19.3097 H   0  0  0  0  0  0
   44.8644   29.2141   19.7788 H   0  0  0  0  0  0
   46.0316   28.3415   20.8290 H   0  0  0  0  0  0
   46.3506   26.6844   17.8260 H   0  0  0  0  0  0
   48.1346   27.0896   16.1874 H   0  0  0  0  0  0
   49.4274   29.2077   16.2479 H   0  0  0  0  0  0
   47.0965   30.4951   19.6114 H   0  0  0  0  0  0
  1  2  2  0  0  0
  1  6  1  0  0  0
  1 33  1  0  0  0
  2  3  1  0  0  0
  2  7  1  0  0  0
  3  4  2  0  0  0
  3 34  1  0  0  0
  4  5  1  0  0  0
  4 35  1  0  0  0
  5  6  2  0  0  0
  5 10  1  0  0  0
  6 36  1  0  0  0
  7  8  2  0  0  0
  7  9  1  0  0  0
 10 11  1  0  0  0
 10 37  1  0  0  0
 10 38  1  0  0  0
 11 12  1  0  0  0
 11 15  1  0  0  0
 12 13  2  0  0  0
 13 14  1  0  0  0
 14 15  2  0  0  0
 14 16  1  0  0  0
 16 17  2  0  0  0
 16 21  1  0  0  0
 17 18  1  0  0  0
 17 39  1  0  0  0
 18 19  2  0  0  0
 18 22  1  0  0  0
 19 20  1  0  0  0
 20 21  2  0  0  0
 20 40  1  0  0  0
 21 41  1  0  0  0
 22 23  1  0  0  0
 22 26  2  0  0  0
 23 24  1  0  0  0
 23 42  1  0  0  0
 24 25  1  0  0  0
 24 43  1  0  0  0
 24 44  1  0  0  0
 25 27  2  0  0  0
 25 31  1  0  0  0
 27 28  1  0  0  0
 27 45  1  0  0  0
 28 29  2  0  0  0
 28 46  1  0  0  0
 29 30  1  0  0  0
 29 47  1  0  0  0
 30 31  2  0  0  0
 30 32  1  0  0  0
 31 48  1  0  0  0
M  CHG  1   9  -1
M  END
> <s_m_source_file>
../3kej_ligand.sdf

> <i_m_source_file_index>
1

> <s_epik_input>
Tz1DKFtPSF0pYzFbY0hdW2NIXWMoW2NIXVtjSF0xKVtDSDJdbjJubmMobjIpLWMzW2NIXWMobltjSF1bY0hdMylDKD1PKVtOSF1bQ0gyXWM0W2NIXVtjSF1bY0hdYyhGKVtjSF00

> <s_epik_cmdline>
J2VwaWtfYXBwJywgJy1pbWFlJywgJ2xpZ2FuZF9wcm8ubWFlJywgJy1vbWFlJywgJ2xpZ2FuZF9wcmVwLm1hZScsICctbXMnLCAnMScsICctcGgnLCAnNycsICctcGh0JywgJzAuNScsICctbnQn

> <r_lp_tautomer_probability>
1

> <r_epik_Ionization_Penalty>
  0.0012

> <r_epik_Ionization_Penalty_Charging>
  0.0012

> <r_epik_Ionization_Penalty_Neutral>
  0.0000

> <r_epik_State_Penalty>
 -0.0000

> <r_epik_Charging_Adjusted_Penalty>
0.00116506686952552

> <i_epik_Tot_Q>
-1

> <i_epik_Tot_abs_Q>
1

$$$$
