3kek_ligand
                    3D
 Schrodinger Suite 2020-3.
 58 61  0  0  1  0            999 V2000
   45.7610   16.9670   16.8730 C   0  0  2  0  0  0
   46.1890   15.5530   16.5290 C   0  0  0  0  0  0
   46.5830   15.4360   15.0660 C   0  0  0  0  0  0
   47.7560   16.3670   14.8590 C   0  0  2  0  0  0
   47.3790   17.8150   15.0840 C   0  0  0  0  0  0
   46.8100   18.0060   16.4880 C   0  0  0  0  0  0
   45.3010   17.0310   18.3230 C   0  0  0  0  0  0
   45.4300   18.3580   18.8920 N   0  0  0  0  0  0
   44.5840   19.3570   18.5920 N   0  0  0  0  0  0
   45.1080   20.3520   19.3110 C   0  0  0  0  0  0
   46.2310   20.0110   20.0190 N   0  0  0  0  0  0
   46.4220   18.7520   19.7360 C   0  0  0  0  0  0
   44.5610   21.6850   19.2910 C   0  0  0  0  0  0
   43.2650   21.8830   18.8570 C   0  0  0  0  0  0
   42.7790   23.1710   18.7800 C   0  0  0  0  0  0
   43.4850   24.2570   19.1070 N   0  0  0  0  0  0
   44.7350   24.0290   19.5410 C   0  0  0  0  0  0
   45.3210   22.7810   19.6430 C   0  0  0  0  0  0
   41.3840   23.3900   18.3110 C   0  0  0  0  0  0
   45.5260   25.2270   19.8950 C   0  0  0  0  0  0
   46.6710   25.1310   20.3160 O   0  0  0  0  0  0
   44.8650   26.4080   19.6710 N   0  0  0  0  0  0
   45.5080   27.7020   19.7770 C   0  0  0  0  0  0
   46.5950   27.9880   18.7870 C   0  0  0  0  0  0
   47.3330   29.1440   18.9480 C   0  0  0  0  0  0
   48.3450   29.4490   18.0630 C   0  0  0  0  0  0
   48.6110   28.6020   17.0120 C   0  0  0  0  0  0
   47.8800   27.4480   16.8300 C   0  0  0  0  0  0
   46.8710   27.1470   17.7250 C   0  0  0  0  0  0
   48.1550   16.2680   13.3900 C   0  0  0  0  0  0
   49.3930   16.1030   13.2450 O   0  0  0  0  0  0
   49.5970   28.9210   16.1560 F   0  0  0  0  0  0
   47.2580   16.3480   12.5040 O   0  5  0  0  0  0
   44.8903   17.2333   16.2557 H   0  0  0  0  0  0
   47.0535   15.2708   17.1479 H   0  0  0  0  0  0
   45.3569   14.8604   16.7238 H   0  0  0  0  0  0
   46.8638   14.3959   14.8440 H   0  0  0  0  0  0
   45.7328   15.7294   14.4327 H   0  0  0  0  0  0
   48.5450   16.0805   15.5699 H   0  0  0  0  0  0
   48.2713   18.4481   14.9704 H   0  0  0  0  0  0
   46.6201   18.1152   14.3465 H   0  0  0  0  0  0
   46.3625   19.0101   16.5254 H   0  0  0  0  0  0
   47.6534   17.9540   17.1923 H   0  0  0  0  0  0
   44.2423   16.7390   18.3850 H   0  0  0  0  0  0
   45.9072   16.3432   18.9307 H   0  0  0  0  0  0
   47.2327   18.1264   20.1095 H   0  0  0  0  0  0
   42.6373   21.0359   18.5802 H   0  0  0  0  0  0
   46.3481   22.6670   19.9896 H   0  0  0  0  0  0
   40.9195   22.4208   18.0768 H   0  0  0  0  0  0
   41.3951   24.0189   17.4086 H   0  0  0  0  0  0
   40.8062   23.8922   19.1009 H   0  0  0  0  0  0
   43.8008   26.3432   19.4004 H   0  0  0  0  0  0
   44.7590   28.4959   19.6404 H   0  0  0  0  0  0
   45.9706   27.8013   20.7700 H   0  0  0  0  0  0
   47.1148   29.8171   19.7771 H   0  0  0  0  0  0
   48.9322   30.3577   18.1954 H   0  0  0  0  0  0
   48.0943   26.7831   15.9933 H   0  0  0  0  0  0
   46.2864   26.2367   17.5922 H   0  0  0  0  0  0
  1  2  1  0  0  0
  1  6  1  0  0  0
  1  7  1  0  0  0
  1 34  1  0  0  0
  2  3  1  0  0  0
  2 35  1  0  0  0
  2 36  1  0  0  0
  3  4  1  0  0  0
  3 37  1  0  0  0
  3 38  1  0  0  0
  4  5  1  0  0  0
  4 30  1  0  0  0
  4 39  1  0  0  0
  5  6  1  0  0  0
  5 40  1  0  0  0
  5 41  1  0  0  0
  6 42  1  0  0  0
  6 43  1  0  0  0
  7  8  1  0  0  0
  7 44  1  0  0  0
  7 45  1  0  0  0
  8  9  1  0  0  0
  8 12  1  0  0  0
  9 10  2  0  0  0
 10 11  1  0  0  0
 10 13  1  0  0  0
 11 12  2  0  0  0
 12 46  1  0  0  0
 13 14  2  0  0  0
 13 18  1  0  0  0
 14 15  1  0  0  0
 14 47  1  0  0  0
 15 16  2  0  0  0
 15 19  1  0  0  0
 16 17  1  0  0  0
 17 18  2  0  0  0
 17 20  1  0  0  0
 18 48  1  0  0  0
 19 49  1  0  0  0
 19 50  1  0  0  0
 19 51  1  0  0  0
 20 21  2  0  0  0
 20 22  1  0  0  0
 22 23  1  0  0  0
 22 52  1  0  0  0
 23 24  1  0  0  0
 23 53  1  0  0  0
 23 54  1  0  0  0
 24 25  2  0  0  0
 24 29  1  0  0  0
 25 26  1  0  0  0
 25 55  1  0  0  0
 26 27  2  0  0  0
 26 56  1  0  0  0
 27 28  1  0  0  0
 27 32  1  0  0  0
 28 29  2  0  0  0
 28 57  1  0  0  0
 29 58  1  0  0  0
 30 31  2  0  0  0
 30 33  1  0  0  0
M  CHG  1  33  -1
M  END
> <s_m_source_file>
../3kek_ligand.sdf

> <i_m_source_file_index>
1

> <s_epik_input>
W0NIMl0xW0NIMl1bQ0BIXShDKD1PKVtPSF0pW0NIMl1bQ0gyXVtDQEhdMVtDSDJdbjJuYyhuW2NIXTIpLWMzW2NIXWMoW0NIM10pbmMoW2NIXTMpQyg9TylbTkhdW0NIMl1jNFtjSF1bY0hdYyhGKVtjSF1bY0hdNA==

> <s_epik_cmdline>
J2VwaWtfYXBwJywgJy1pbWFlJywgJ2xpZ2FuZF9wcm8ubWFlJywgJy1vbWFlJywgJ2xpZ2FuZF9wcmVwLm1hZScsICctbXMnLCAnMScsICctcGgnLCAnNycsICctcGh0JywgJzAuNScsICctbnQn

> <r_lp_tautomer_probability>
1

> <r_epik_Ionization_Penalty>
  0.0038

> <r_epik_Ionization_Penalty_Charging>
  0.0036

> <r_epik_Ionization_Penalty_Neutral>
  0.0001

> <r_epik_State_Penalty>
 -0.0000

> <r_epik_Charging_Adjusted_Penalty>
0.00362572488352347

> <i_epik_Tot_Q>
-1

> <i_epik_Tot_abs_Q>
1

$$$$
