3kfa_ligand
                    3D
 Schrodinger Suite 2020-3.
 66 71  0  0  1  0            999 V2000
   18.3370   -9.3260    9.5910 C   0  0  0  0  0  0
   12.5540   -4.6400   18.5400 F   0  0  0  0  0  0
   17.3090   -9.9130   10.2840 N   0  0  0  0  0  0
   15.5850   -7.6620   16.2180 O   0  0  0  0  0  0
   19.0160   -8.4720    3.6040 C   0  0  0  0  0  0
   11.5440   -6.4890   18.4420 F   0  0  0  0  0  0
   16.2160   -8.5610   18.2140 N   0  0  0  0  0  0
   17.1530  -10.1670   11.7090 C   0  0  0  0  0  0
   11.5280   -5.3580   20.2760 F   0  0  0  0  0  0
   15.7310   -6.9880   22.6820 N   0  0  0  0  0  0
   18.1240  -10.1410   12.5790 C   0  0  0  0  0  0
   15.8040   -7.1560   24.8800 N   0  0  0  0  0  0
   17.8880  -10.3490   14.0070 C   0  0  0  0  0  0
   16.6760   -9.9370    8.1730 N   0  0  0  0  0  0
   18.3440  -11.5240   14.6490 C   0  0  0  0  0  0
   19.5060   -8.8290   10.0310 N   0  0  0  0  0  0
   18.1290  -11.7160   16.0400 C   0  0  0  0  0  0
   19.9620   -8.2670    7.7600 N   0  0  0  0  0  0
   17.4380  -10.7280   16.7830 C   0  0  0  0  0  0
   18.4280   -8.7350    6.0170 N   0  0  0  0  0  0
   16.9650   -9.5530   16.1430 C   0  0  0  0  0  0
   17.1960   -9.3610   14.7560 C   0  0  0  0  0  0
   19.0520  -12.5990   13.8860 C   0  0  0  0  0  0
   16.2190   -8.5150   16.8550 C   0  0  0  0  0  0
   15.4590   -7.8040   19.0800 C   0  0  0  0  0  0
   15.9110   -7.7140   20.3770 C   0  0  0  0  0  0
   15.2170   -6.9790   21.3740 C   0  0  0  0  0  0
   14.0220   -6.3230   21.0000 C   0  0  0  0  0  0
   13.5240   -6.3960   19.6660 C   0  0  0  0  0  0
   14.2550   -7.1460   18.7190 C   0  0  0  0  0  0
   12.2520   -5.7120   19.2270 C   0  0  0  0  0  0
   17.0550   -6.9300   23.0430 C   0  0  0  0  0  0
   14.9670   -7.1280   23.8220 C   0  0  0  0  0  0
   19.3030   -8.0120    5.0290 C   0  0  0  0  0  0
   17.0650   -7.0390   24.4280 C   0  0  0  0  0  0
   16.3040  -10.2880    9.4400 C   0  0  0  0  0  0
   18.2180   -7.0480   25.3310 C   0  0  0  0  0  0
   20.2890   -8.9560    4.3150 C   0  0  0  0  0  0
   17.9100   -9.3430    8.2460 C   0  0  0  0  0  0
   18.7780   -8.7780    7.3300 C   0  0  0  0  0  0
   20.3100   -8.2980    9.0650 C   0  0  0  0  0  0
   18.0601   -9.0158    3.5798 H   0  0  0  0  0  0
   18.9566   -7.5963    2.9410 H   0  0  0  0  0  0
   16.8748   -9.2662   18.7419 H   0  0  0  0  0  0
   16.1274  -10.3934   12.0360 H   0  0  0  0  0  0
   19.1563   -9.9586   12.2458 H   0  0  0  0  0  0
   18.4934  -12.6177   16.5322 H   0  0  0  0  0  0
   17.2688  -10.8706   17.8503 H   0  0  0  0  0  0
   17.5056   -9.2284    5.6768 H   0  0  0  0  0  0
   16.8419   -8.4544   14.2653 H   0  0  0  0  0  0
   19.1397  -12.3024   12.8304 H   0  0  0  0  0  0
   18.4806  -13.5362   13.9573 H   0  0  0  0  0  0
   20.0561  -12.7486   14.3095 H   0  0  0  0  0  0
   16.8346   -8.2252   20.6484 H   0  0  0  0  0  0
   13.4707   -5.7503   21.7458 H   0  0  0  0  0  0
   13.8888   -7.2206   17.6951 H   0  0  0  0  0  0
   17.9155   -6.8215   22.3828 H   0  0  0  0  0  0
   13.8803   -7.2027   23.8612 H   0  0  0  0  0  0
   19.3828   -7.0471    5.5511 H   0  0  0  0  0  0
   15.3733  -10.7786    9.7251 H   0  0  0  0  0  0
   17.8696   -7.1490   26.3695 H   0  0  0  0  0  0
   18.7768   -6.1068   25.2216 H   0  0  0  0  0  0
   18.8736   -7.8949   25.0801 H   0  0  0  0  0  0
   20.2761  -10.0538    4.3830 H   0  0  0  0  0  0
   21.1726   -8.6344    3.7442 H   0  0  0  0  0  0
   21.2735   -7.8813    9.3585 H   0  0  0  0  0  0
  1  3  1  0  0  0
  1 16  1  0  0  0
  1 39  2  0  0  0
  2 31  1  0  0  0
  3  8  1  0  0  0
  3 36  1  0  0  0
  4 24  2  0  0  0
  5 34  1  0  0  0
  5 38  1  0  0  0
  5 42  1  0  0  0
  5 43  1  0  0  0
  6 31  1  0  0  0
  7 24  1  0  0  0
  7 25  1  0  0  0
  7 44  1  0  0  0
  8 11  2  0  0  0
  8 45  1  0  0  0
  9 31  1  0  0  0
 10 27  1  0  0  0
 10 32  1  0  0  0
 10 33  1  0  0  0
 11 13  1  0  0  0
 11 46  1  0  0  0
 12 33  2  0  0  0
 12 35  1  0  0  0
 13 15  2  0  0  0
 13 22  1  0  0  0
 14 36  2  0  0  0
 14 39  1  0  0  0
 15 17  1  0  0  0
 15 23  1  0  0  0
 16 41  2  0  0  0
 17 19  2  0  0  0
 17 47  1  0  0  0
 18 40  2  0  0  0
 18 41  1  0  0  0
 19 21  1  0  0  0
 19 48  1  0  0  0
 20 34  1  0  0  0
 20 40  1  0  0  0
 20 49  1  0  0  0
 21 22  2  0  0  0
 21 24  1  0  0  0
 22 50  1  0  0  0
 23 51  1  0  0  0
 23 52  1  0  0  0
 23 53  1  0  0  0
 25 26  2  0  0  0
 25 30  1  0  0  0
 26 27  1  0  0  0
 26 54  1  0  0  0
 27 28  2  0  0  0
 28 29  1  0  0  0
 28 55  1  0  0  0
 29 30  2  0  0  0
 29 31  1  0  0  0
 30 56  1  0  0  0
 32 35  2  0  0  0
 32 57  1  0  0  0
 33 58  1  0  0  0
 34 38  1  0  0  0
 34 59  1  0  0  0
 35 37  1  0  0  0
 36 60  1  0  0  0
 37 61  1  0  0  0
 37 62  1  0  0  0
 37 63  1  0  0  0
 38 64  1  0  0  0
 38 65  1  0  0  0
 39 40  1  0  0  0
 41 66  1  0  0  0
M  END
> <s_m_source_file>
../3kfa_ligand.sdf

> <i_m_source_file_index>
1

> <s_epik_input>
W0NIMl0xW0NIMl1bQ0hdMVtOSF1jKG5bY0hdbjIpYyhjMjMpbltjSF1uMy9bQ0hdPVtDSF0vYzRjKFtDSDNdKVtjSF1bY0hdYyhbY0hdNClDKD1PKVtOSF1jNVtjSF1jKFtjSF1jKFtjSF01KUMoRikoRilGKS1uNltjSF1jKFtDSDNdKW5bY0hdNg==

> <s_epik_cmdline>
J2VwaWtfYXBwJywgJy1pbWFlJywgJ2xpZ2FuZF9wcm8ubWFlJywgJy1vbWFlJywgJ2xpZ2FuZF9wcmVwLm1hZScsICctbXMnLCAnMScsICctcGgnLCAnNycsICctcGh0JywgJzAuNScsICctbnQn

> <r_lp_tautomer_probability>
1

> <r_epik_Ionization_Penalty>
  0.1511

> <r_epik_Ionization_Penalty_Charging>
  0.1503

> <r_epik_Ionization_Penalty_Neutral>
  0.0007

> <r_epik_State_Penalty>
  0.1396

> <r_epik_Charging_Adjusted_Penalty>
0.28997481999385

> <i_epik_Tot_Q>
0

> <i_epik_Tot_abs_Q>
0

$$$$
