3kfn_ligand
                    3D
 Schrodinger Suite 2020-3.
124127  0  0  1  0            999 V2000
   15.4390   21.4320   17.2840 N   0  0  0  0  0  0
   14.5350   20.7770   16.3060 C   0  0  2  0  0  0
   16.9730   24.2050   17.7580 N   0  0  0  0  0  0
   14.2880   19.5050   17.0590 C   0  0  0  0  0  0
   15.3400   20.2110   15.1250 C   0  0  0  0  0  0
   15.9660   21.3950   14.4540 C   0  0  0  0  0  0
   15.0880   22.2730   13.8240 C   0  0  0  0  0  0
   14.5860   18.5560   16.3840 O   0  0  0  0  0  0
   15.6120   23.4040   13.2100 C   0  0  0  0  0  0
   16.9800   23.5990   13.2590 C   0  0  0  0  0  0
   13.9570   23.0910   17.3340 O   0  0  0  0  0  0
   17.8570   22.7210   13.9060 C   0  0  0  0  0  0
   17.3490   21.5860   14.5280 C   0  0  0  0  0  0
   16.1170   23.3510   18.6010 C   0  0  2  0  0  0
   15.1390   22.6130   17.6980 C   0  0  0  0  0  0
   15.5090   24.1020   19.8030 C   0  0  0  0  0  0
   18.4480   27.4890   10.5540 C   0  0  0  0  0  0
   17.3260   27.5620    9.7360 C   0  0  0  0  0  0
   18.8900   25.2110   15.6500 N   0  0  0  0  0  0
   16.0350   27.5980   10.2740 C   0  0  0  0  0  0
   15.8950   27.5590   11.6580 C   0  0  0  0  0  0
   17.0290   27.4970   12.4680 C   0  0  0  0  0  0
   19.0470   23.7360   18.6950 O   0  0  0  0  0  0
   18.9100   25.3110   16.9250 C   0  0  0  0  0  0
   18.2350   24.3190   17.8270 C   0  0  0  0  0  0
   19.6020   26.4200   17.6700 C   0  0  0  0  0  0
    4.7810   17.5900   19.8240 O   0  0  0  0  0  0
    5.2680   18.2120   18.9020 C   0  0  0  0  0  0
    4.8270   19.4680   18.6870 O   0  0  0  0  0  0
    4.0070   20.1010   19.7100 C   0  0  0  0  0  0
    3.7130   21.5740   19.6040 C   0  0  0  0  0  0
    2.8230   22.1580   20.4880 C   0  0  0  0  0  0
    2.5910   23.5130   20.3850 C   0  0  0  0  0  0
    3.1910   24.2980   19.4000 C   0  0  0  0  0  0
    4.0590   23.7060   18.5120 C   0  0  0  0  0  0
    4.3150   22.3570   18.6370 C   0  0  0  0  0  0
    6.2350   17.6730   18.1600 N   0  0  0  0  0  0
    6.5100   16.8020   17.2810 C   0  0  0  0  0  0
    5.4670   15.9280   16.6210 C   0  0  0  0  0  0
    7.9640   16.7810   17.0270 C   0  0  0  0  0  0
    8.5970   15.6450   17.3300 O   0  0  0  0  0  0
    8.5860   17.8390   16.5990 N   0  0  0  0  0  0
   10.0080   17.6790   16.3650 C   0  0  1  0  0  0
   10.2860   17.6270   14.8810 C   0  0  0  0  0  0
   11.7870   17.5690   14.6320 C   0  0  0  0  0  0
    9.5120   16.5410   14.1170 C   0  0  0  0  0  0
   10.7270   18.8230   17.0960 C   0  0  0  0  0  0
   10.3260   20.0410   16.7740 O   0  0  0  0  0  0
   11.6450   18.6110   17.9530 N   0  0  0  0  0  0
   12.3620   19.6940   18.6190 C   0  0  1  0  0  0
   12.0450   19.9120   20.0780 C   0  0  0  0  0  0
   10.5960   20.0040   20.4210 C   0  0  0  0  0  0
    9.9560   18.8600   20.8930 C   0  0  0  0  0  0
    8.6070   19.0370   21.1810 C   0  0  0  0  0  0
    7.9400   20.2490   21.0330 C   0  0  0  0  0  0
    8.5950   21.3830   20.5540 C   0  0  0  0  0  0
    9.9320   21.2150   20.2630 C   0  0  0  0  0  0
   13.8100   19.3370   18.4650 C   0  0  1  0  0  0
   14.3440   18.0580   18.8660 O   0  0  0  0  0  0
   16.5300   24.7330   20.7590 C   0  0  0  0  0  0
   14.4310   23.3470   20.5770 C   0  0  0  0  0  0
   19.6140   25.8460   14.6870 C   0  0  0  0  0  0
   20.6410   25.4050   14.1760 O   0  0  0  0  0  0
   19.2560   27.0520   14.2080 O   0  0  0  0  0  0
   19.5440   27.3830   12.8170 C   0  0  0  0  0  0
   18.3140   27.4590   11.9390 C   0  0  0  0  0  0
   16.3396   20.9082   17.6370 H   0  0  0  0  0  0
   13.7143   21.4411   15.9972 H   0  0  0  0  0  0
   16.5232   24.8291   16.9718 H   0  0  0  0  0  0
   16.1042   19.5154   15.5020 H   0  0  0  0  0  0
   14.6629   19.6768   14.4422 H   0  0  0  0  0  0
   14.0157   22.0779   13.8127 H   0  0  0  0  0  0
   14.9624   24.1179   12.7036 H   0  0  0  0  0  0
   17.3958   24.4798   12.7697 H   0  0  0  0  0  0
   18.9276   22.9249   13.9221 H   0  0  0  0  0  0
   17.9969   20.8801   15.0476 H   0  0  0  0  0  0
   16.7557   22.5924   19.0770 H   0  0  0  0  0  0
   14.9870   24.9310   19.3028 H   0  0  0  0  0  0
   19.4414   27.4550   10.1066 H   0  0  0  0  0  0
   17.4548   27.5918    8.6540 H   0  0  0  0  0  0
   15.1608   27.6552    9.6254 H   0  0  0  0  0  0
   14.9023   27.5768   12.1077 H   0  0  0  0  0  0
   16.9035   27.4777   13.5506 H   0  0  0  0  0  0
   20.0727   27.1067   16.9510 H   0  0  0  0  0  0
   20.3730   25.9938   18.3287 H   0  0  0  0  0  0
   18.8662   26.9702   18.2749 H   0  0  0  0  0  0
    3.0162   19.6237   19.7330 H   0  0  0  0  0  0
    4.4917   19.9871   20.6909 H   0  0  0  0  0  0
    2.3176   21.5612   21.2473 H   0  0  0  0  0  0
    1.9158   23.9872   21.0973 H   0  0  0  0  0  0
    2.9752   25.3645   19.3350 H   0  0  0  0  0  0
    4.5348   24.2916   17.7254 H   0  0  0  0  0  0
    5.0185   21.8905   17.9474 H   0  0  0  0  0  0
    4.4728   16.1793   17.0191 H   0  0  0  0  0  0
    5.6891   14.8710   16.8296 H   0  0  0  0  0  0
    5.4805   16.0980   15.5343 H   0  0  0  0  0  0
    8.1039   18.8102   16.4136 H   0  0  0  0  0  0
   10.3371   16.7094   16.7669 H   0  0  0  0  0  0
    9.8975   18.5719   14.4734 H   0  0  0  0  0  0
   12.2845   18.3669   15.2029 H   0  0  0  0  0  0
   11.9863   17.7070   13.5590 H   0  0  0  0  0  0
   12.1746   16.5913   14.9542 H   0  0  0  0  0  0
    8.4380   16.6335   14.3360 H   0  0  0  0  0  0
    9.8662   15.5483   14.4317 H   0  0  0  0  0  0
    9.6779   16.6640   13.0366 H   0  0  0  0  0  0
   11.8908   17.5642   18.1851 H   0  0  0  0  0  0
   12.0457   20.6276   18.1308 H   0  0  0  0  0  0
   12.4484   19.0769   20.6696 H   0  0  0  0  0  0
   12.5011   20.8544   20.4155 H   0  0  0  0  0  0
   10.4689   17.9074   21.0253 H   0  0  0  0  0  0
    8.0409   18.1786   21.5427 H   0  0  0  0  0  0
    6.8844   20.3134   21.2967 H   0  0  0  0  0  0
    8.0849   22.3368   20.4189 H   0  0  0  0  0  0
   10.4946   22.0716   19.8918 H   0  0  0  0  0  0
   14.2039   20.0181   19.2337 H   0  0  0  0  0  0
   15.4145   17.8427   18.7328 H   0  0  0  0  0  0
   17.2940   25.2697   20.1773 H   0  0  0  0  0  0
   17.0107   23.9434   21.3553 H   0  0  0  0  0  0
   16.0172   25.4382   21.4297 H   0  0  0  0  0  0
   13.7134   22.9053   19.8699 H   0  0  0  0  0  0
   13.9048   24.0433   21.2465 H   0  0  0  0  0  0
   14.8982   22.5485   21.1721 H   0  0  0  0  0  0
   20.0402   28.3635   12.7686 H   0  0  0  0  0  0
   20.2048   26.6160   12.3868 H   0  0  0  0  0  0
  1  2  1  0  0  0
  1 15  1  0  0  0
  1 67  1  0  0  0
  2  4  1  0  0  0
  2  5  1  0  0  0
  2 68  1  0  0  0
  3 14  1  0  0  0
  3 25  1  0  0  0
  3 69  1  0  0  0
  4  8  2  0  0  0
  4 58  1  0  0  0
  5  6  1  0  0  0
  5 70  1  0  0  0
  5 71  1  0  0  0
  6  7  2  0  0  0
  6 13  1  0  0  0
  7  9  1  0  0  0
  7 72  1  0  0  0
  9 10  2  0  0  0
  9 73  1  0  0  0
 10 12  1  0  0  0
 10 74  1  0  0  0
 11 15  2  0  0  0
 12 13  2  0  0  0
 12 75  1  0  0  0
 13 76  1  0  0  0
 14 15  1  0  0  0
 14 16  1  0  0  0
 14 77  1  0  0  0
 16 60  1  0  0  0
 16 61  1  0  0  0
 16 78  1  0  0  0
 17 18  2  0  0  0
 17 66  1  0  0  0
 17 79  1  0  0  0
 18 20  1  0  0  0
 18 80  1  0  0  0
 19 24  2  0  0  0
 19 62  1  0  0  0
 20 21  2  0  0  0
 20 81  1  0  0  0
 21 22  1  0  0  0
 21 82  1  0  0  0
 22 66  2  0  0  0
 22 83  1  0  0  0
 23 25  2  0  0  0
 24 25  1  0  0  0
 24 26  1  0  0  0
 26 84  1  0  0  0
 26 85  1  0  0  0
 26 86  1  0  0  0
 27 28  2  0  0  0
 28 29  1  0  0  0
 28 37  1  0  0  0
 29 30  1  0  0  0
 30 31  1  0  0  0
 30 87  1  0  0  0
 30 88  1  0  0  0
 31 32  2  0  0  0
 31 36  1  0  0  0
 32 33  1  0  0  0
 32 89  1  0  0  0
 33 34  2  0  0  0
 33 90  1  0  0  0
 34 35  1  0  0  0
 34 91  1  0  0  0
 35 36  2  0  0  0
 35 92  1  0  0  0
 36 93  1  0  0  0
 37 38  2  0  0  0
 38 39  1  0  0  0
 38 40  1  0  0  0
 39 94  1  0  0  0
 39 95  1  0  0  0
 39 96  1  0  0  0
 40 41  2  0  0  0
 40 42  1  0  0  0
 42 43  1  0  0  0
 42 97  1  0  0  0
 43 44  1  0  0  0
 43 47  1  0  0  0
 43 98  1  0  0  0
 44 45  1  0  0  0
 44 46  1  0  0  0
 44 99  1  0  0  0
 45100  1  0  0  0
 45101  1  0  0  0
 45102  1  0  0  0
 46103  1  0  0  0
 46104  1  0  0  0
 46105  1  0  0  0
 47 48  2  0  0  0
 47 49  1  0  0  0
 49 50  1  0  0  0
 49106  1  0  0  0
 50 51  1  0  0  0
 50 58  1  0  0  0
 50107  1  0  0  0
 51 52  1  0  0  0
 51108  1  0  0  0
 51109  1  0  0  0
 52 53  2  0  0  0
 52 57  1  0  0  0
 53 54  1  0  0  0
 53110  1  0  0  0
 54 55  2  0  0  0
 54111  1  0  0  0
 55 56  1  0  0  0
 55112  1  0  0  0
 56 57  2  0  0  0
 56113  1  0  0  0
 57114  1  0  0  0
 58 59  1  0  0  0
 58115  1  0  0  0
 59116  1  0  0  0
 60117  1  0  0  0
 60118  1  0  0  0
 60119  1  0  0  0
 61120  1  0  0  0
 61121  1  0  0  0
 61122  1  0  0  0
 62 63  2  0  0  0
 62 64  1  0  0  0
 64 65  1  0  0  0
 65 66  1  0  0  0
 65123  1  0  0  0
 65124  1  0  0  0
M  END
> <s_m_source_file>
../3kfn_ligand.sdf

> <i_m_source_file_index>
1

> <s_epik_input>
W2NIXTFbY0hdW2NIXVtjSF1bY0hdYzFbQ0gyXU9DKD1PKS9OPUMoW0NIM10pL0MoPU8pW05IXVtDQEBIXShbQ0hdKFtDSDNdKVtDSDNdKUMoPU8pW05IXVtDQEBIXShbQ0gyXWMyW2NIXVtjSF1bY0hdW2NIXVtjSF0yKUMoPU8pW0NASF0oW09IXSlbQ0BIXShbQ0gyXWMzW2NIXVtjSF1bY0hdW2NIXVtjSF0zKVtOSF1DKD1PKVtDQEhdKFtDSF0oW0NIM10pW0NIM10pW05IXUMoPU8pQyhcW0NIM10pPU5cQyg9TylPW0NIMl1jNFtjSF1bY0hdW2NIXVtjSF1bY0hdNA==

> <s_epik_cmdline>
J2VwaWtfYXBwJywgJy1pbWFlJywgJ2xpZ2FuZF9wcm8ubWFlJywgJy1vbWFlJywgJ2xpZ2FuZF9wcmVwLm1hZScsICctbXMnLCAnMScsICctcGgnLCAnNycsICctcGh0JywgJzAuNScsICctbnQn

> <r_lp_tautomer_probability>
1

> <r_epik_Ionization_Penalty>
  0.0003

> <r_epik_Ionization_Penalty_Charging>
  0.0000

> <r_epik_Ionization_Penalty_Neutral>
  0.0003

> <r_epik_State_Penalty>
 -0.0000

> <r_epik_Charging_Adjusted_Penalty>
0

> <i_epik_Tot_Q>
0

> <i_epik_Tot_abs_Q>
0

> <s_epik_Chemistry_Notes>
This compound has an ester and may undergo hydrolysis at high or low pH. This compound has an imine and may undergo hydrolysis.

$$$$
