3kgq_ligand
                    3D
 Schrodinger Suite 2020-3.
 18 17  0  0  1  0            999 V2000
    3.8950    0.7110    6.0870 C   0  0  0  0  0  0
    3.1130    0.9690    7.0150 O   0  5  0  0  0  0
    3.8160    1.4190    5.0750 O   0  0  0  0  0  0
    4.9030   -0.4100    6.1880 C   0  0  0  0  0  0
    6.3020    0.1900    6.0690 C   0  0  0  0  0  0
    6.3780    1.3480    6.9520 O   0  0  0  0  0  0
    7.3590   -0.8330    6.4800 C   0  0  0  0  0  0
    8.7480   -0.2500    6.3540 C   0  0  0  0  0  0
    9.2620   -0.0980    5.2240 O   0  0  0  0  0  0
    9.3970    0.0820    7.3750 O   0  5  0  0  0  0
    6.5130    0.6150    4.6180 C   0  0  0  0  0  0
    6.1950   -0.1480    3.6760 O   0  5  0  0  0  0
    6.9990    1.7400    4.3620 O   0  0  0  0  0  0
    4.7916   -0.9170    7.1578 H   0  0  0  0  0  0
    4.7319   -1.1313    5.3754 H   0  0  0  0  0  0
    6.2479    1.2218    8.0370 H   0  0  0  0  0  0
    7.1933   -1.1315    7.5257 H   0  0  0  0  0  0
    7.2855   -1.7175    5.8302 H   0  0  0  0  0  0
  1  2  1  0  0  0
  1  3  2  0  0  0
  1  4  1  0  0  0
  4  5  1  0  0  0
  4 14  1  0  0  0
  4 15  1  0  0  0
  5  6  1  0  0  0
  5  7  1  0  0  0
  5 11  1  0  0  0
  6 16  1  0  0  0
  7  8  1  0  0  0
  7 17  1  0  0  0
  7 18  1  0  0  0
  8  9  2  0  0  0
  8 10  1  0  0  0
 11 12  1  0  0  0
 11 13  2  0  0  0
M  CHG  3   2  -1  10  -1  12  -1
M  END
> <s_m_source_file>
../3kgq_ligand.sdf

> <i_m_source_file_index>
1

> <s_epik_input>
W09IXUMoPU8pW0NIMl1DKFtPSF0pKEMoPU8pW09IXSlbQ0gyXUMoPU8pW09IXQ==

> <s_epik_cmdline>
J2VwaWtfYXBwJywgJy1pbWFlJywgJ2xpZ2FuZF9wcm8ubWFlJywgJy1vbWFlJywgJ2xpZ2FuZF9wcmVwLm1hZScsICctbXMnLCAnMScsICctcGgnLCAnNycsICctcGh0JywgJzAuNScsICctbnQn

> <r_lp_tautomer_probability>
1

> <r_epik_Ionization_Penalty>
  0.0046

> <r_epik_Ionization_Penalty_Charging>
  0.0046

> <r_epik_Ionization_Penalty_Neutral>
  0.0000

> <r_epik_State_Penalty>
 -0.0000

> <r_epik_Charging_Adjusted_Penalty>
0.0045906918398983

> <i_epik_Tot_Q>
-3

> <i_epik_Tot_abs_Q>
3

$$$$
