3khv_ligand
                    3D
 Schrodinger Suite 2020-3.
 22 22  0  0  1  0            999 V2000
  -31.8330   89.8330  -10.8480 C   0  0  0  0  0  0
  -27.0910   85.9170  -12.6690 N   0  3  0  0  0  0
  -31.8060   90.4570  -11.9290 O   0  0  0  0  0  0
  -30.7840   88.9910  -11.1730 C   0  0  0  0  0  0
  -30.0510   88.5180  -10.1830 C   0  0  0  0  0  0
  -29.0160   87.7450  -10.2350 C   0  0  0  0  0  0
  -28.6230   87.4110  -11.4140 C   0  0  0  0  0  0
  -29.3270   87.8610  -12.4710 C   0  0  0  0  0  0
  -30.3950   88.6880  -12.4000 C   0  0  0  0  0  0
  -27.4590   86.4960  -11.4890 C   0  0  0  0  0  0
  -31.6557   90.5315  -10.0169 H   0  0  0  0  0  0
  -32.8170   89.3574  -10.7236 H   0  0  0  0  0  0
  -26.2097   85.2794  -12.5054 H   0  0  0  0  0  0
  -26.8459   86.7005  -13.4011 H   0  0  0  0  0  0
  -27.9208   85.3045  -13.0513 H   0  0  0  0  0  0
  -32.5206   91.2733  -12.1109 H   0  0  0  0  0  0
  -30.3610   88.8209   -9.1829 H   0  0  0  0  0  0
  -28.5076   87.3976   -9.3356 H   0  0  0  0  0  0
  -29.0110   87.5328  -13.4612 H   0  0  0  0  0  0
  -30.8968   89.0752  -13.2867 H   0  0  0  0  0  0
  -27.7041   85.7125  -10.7569 H   0  0  0  0  0  0
  -26.6292   87.1085  -11.1066 H   0  0  0  0  0  0
  1  3  1  0  0  0
  1  4  1  0  0  0
  1 11  1  0  0  0
  1 12  1  0  0  0
  2 10  1  0  0  0
  2 13  1  0  0  0
  2 14  1  0  0  0
  2 15  1  0  0  0
  3 16  1  0  0  0
  4  5  2  0  0  0
  4  9  1  0  0  0
  5  6  1  0  0  0
  5 17  1  0  0  0
  6  7  2  0  0  0
  6 18  1  0  0  0
  7  8  1  0  0  0
  7 10  1  0  0  0
  8  9  2  0  0  0
  8 19  1  0  0  0
  9 20  1  0  0  0
 10 21  1  0  0  0
 10 22  1  0  0  0
M  CHG  1   2   1
M  END
> <s_m_source_file>
../3khv_ligand.sdf

> <i_m_source_file_index>
1

> <s_epik_input>
W09IXVtDSDJdYzFbY0hdW2NIXWMoW2NIXVtjSF0xKVtDSDJdW05IMytd

> <s_epik_cmdline>
J2VwaWtfYXBwJywgJy1pbWFlJywgJ2xpZ2FuZF9wcm8ubWFlJywgJy1vbWFlJywgJ2xpZ2FuZF9wcmVwLm1hZScsICctbXMnLCAnMScsICctcGgnLCAnNycsICctcGh0JywgJzAuNScsICctbnQn

> <r_epik_Ionization_Penalty>
  0.0277

> <r_epik_Ionization_Penalty_Charging>
  0.0276

> <r_epik_Ionization_Penalty_Neutral>
  0.0000

> <r_epik_State_Penalty>
  0.0226

> <r_epik_Charging_Adjusted_Penalty>
0.0502853790746572

> <i_epik_Tot_Q>
1

> <i_epik_Tot_abs_Q>
1

$$$$
