3kiv_ligand
                    3D
 Schrodinger Suite 2020-3.
 22 21  0  0  1  0            999 V2000
    8.2050   11.9810    4.0400 C   0  0  0  0  0  0
    7.7650   12.6130    3.0210 O   0  5  0  0  0  0
    8.2330   10.7450    4.2470 O   0  0  0  0  0  0
    8.8920   12.9020    5.0800 C   0  0  0  0  0  0
    9.5420   14.0690    4.2640 C   0  0  0  0  0  0
   10.0720   15.1500    5.2410 C   0  0  0  0  0  0
   10.7850   14.5700    6.4320 C   0  0  0  0  0  0
   10.9690   15.2760    7.6940 C   0  0  0  0  0  0
   12.0190   14.7800    8.6560 N   0  3  0  0  0  0
    8.1395   13.2830    5.7861 H   0  0  0  0  0  0
    9.6540   12.3300    5.6296 H   0  0  0  0  0  0
   10.3761   13.6765    3.6638 H   0  0  0  0  0  0
    8.7887   14.5146    3.5977 H   0  0  0  0  0  0
   10.7818   15.8044    4.7138 H   0  0  0  0  0  0
    9.2297   15.7497    5.6163 H   0  0  0  0  0  0
   10.2688   13.6552    6.7587 H   0  0  0  0  0  0
   11.8219   14.3273    6.1563 H   0  0  0  0  0  0
   11.2476   16.3209    7.4924 H   0  0  0  0  0  0
   10.0312   15.2509    8.2683 H   0  0  0  0  0  0
   12.0275   15.4194    9.5511 H   0  0  0  0  0  0
   13.0059   14.8144    8.1713 H   0  0  0  0  0  0
   11.7895   13.7444    8.9473 H   0  0  0  0  0  0
  1  4  1  0  0  0
  1  3  2  0  0  0
  1  2  1  0  0  0
  4  5  1  0  0  0
  4 10  1  0  0  0
  4 11  1  0  0  0
  5  6  1  0  0  0
  5 12  1  0  0  0
  5 13  1  0  0  0
  6  7  1  0  0  0
  6 14  1  0  0  0
  6 15  1  0  0  0
  7  8  1  0  0  0
  7 16  1  0  0  0
  7 17  1  0  0  0
  8  9  1  0  0  0
  8 18  1  0  0  0
  8 19  1  0  0  0
  9 20  1  0  0  0
  9 21  1  0  0  0
  9 22  1  0  0  0
M  CHG  2   2  -1   9   1
M  END
> <s_m_source_file>
../3kiv_ligand.sdf

> <i_m_source_file_index>
1

> <s_epik_input>
W09IXUMoPU8pW0NIMl1bQ0gyXVtDSDJdW0NIMl1bQ0gyXVtOSDMrXQ==

> <s_epik_cmdline>
J2VwaWtfYXBwJywgJy1pbWFlJywgJ2xpZ2FuZF9wcm8ubWFlJywgJy1vbWFlJywgJ2xpZ2FuZF9wcmVwLm1hZScsICctbXMnLCAnMScsICctcGgnLCAnNycsICctcGh0JywgJzAuNScsICctbnQn

> <r_lp_tautomer_probability>
1

> <r_epik_Ionization_Penalty>
  0.0044

> <r_epik_Ionization_Penalty_Charging>
  0.0044

> <r_epik_Ionization_Penalty_Neutral>
  0.0000

> <r_epik_State_Penalty>
 -0.0000

> <r_epik_Charging_Adjusted_Penalty>
0.00444028510080784

> <i_epik_Tot_Q>
0

> <i_epik_Tot_abs_Q>
2

$$$$
