3kjd_ligand
                    3D
 Schrodinger Suite 2020-3.
 35 37  0  0  1  0            999 V2000
   -4.5300   34.2590   39.6100 C   0  0  0  0  0  0
   -4.6280   33.8220   40.9280 C   0  0  0  0  0  0
   -5.8530   33.3540   41.4120 C   0  0  0  0  0  0
   -4.0360   34.9800   37.6590 C   0  0  0  0  0  0
   -3.4220   33.8050   41.8730 C   0  0  0  0  0  0
   -3.2780   35.6020   36.4930 C   0  0  1  0  0  0
   -1.8020   37.1720   37.5010 C   0  0  0  0  0  0
   -3.8660   36.9730   36.2380 C   0  0  0  0  0  0
   -6.9920   33.3350   40.6080 C   0  0  0  0  0  0
   -6.8770   33.7760   39.3110 C   0  0  0  0  0  0
   -5.6620   34.2220   38.8080 C   0  0  0  0  0  0
   -5.3070   34.6570   37.6020 N   0  3  0  0  0  0
   -3.5280   34.7750   38.8550 N   0  0  0  0  0  0
   -2.2780   34.2350   41.3790 N   0  0  0  0  0  0
   -3.5000   33.3150   42.9960 O   0  0  0  0  0  0
   -1.8660   35.8350   36.8740 N   0  3  0  0  0  0
   -3.1210   37.8940   37.1790 C   0  0  0  0  0  0
   -3.4370   34.7970   35.2110 C   0  0  0  0  0  0
   -5.9192   32.9964   42.4395 H   0  0  0  0  0  0
   -1.6787   37.0615   38.5885 H   0  0  0  0  0  0
   -0.9473   37.7293   37.0899 H   0  0  0  0  0  0
   -3.7071   37.2501   35.1854 H   0  0  0  0  0  0
   -4.9445   36.9553   36.4536 H   0  0  0  0  0  0
   -7.9466   32.9805   40.9968 H   0  0  0  0  0  0
   -7.7555   33.7756   38.6658 H   0  0  0  0  0  0
   -2.2436   34.6689   40.3688 H   0  0  0  0  0  0
   -1.3578   34.1599   41.9770 H   0  0  0  0  0  0
   -1.5444   35.0577   37.5828 H   0  0  0  0  0  0
   -1.2326   35.7965   35.9755 H   0  0  0  0  0  0
   -3.6846   38.0600   38.1089 H   0  0  0  0  0  0
   -2.9027   38.8622   36.7048 H   0  0  0  0  0  0
   -4.5067   34.6641   34.9918 H   0  0  0  0  0  0
   -2.9631   33.8121   35.3353 H   0  0  0  0  0  0
   -2.9561   35.3330   34.3795 H   0  0  0  0  0  0
   -5.8626   34.7746   36.6600 H   0  0  0  0  0  0
  1  2  2  0  0  0
  1 11  1  0  0  0
  1 13  1  0  0  0
  2  3  1  0  0  0
  2  5  1  0  0  0
  3  9  2  0  0  0
  3 19  1  0  0  0
  4  6  1  0  0  0
  4 12  1  0  0  0
  4 13  2  0  0  0
  5 14  1  0  0  0
  5 15  2  0  0  0
  6  8  1  0  0  0
  6 16  1  0  0  0
  6 18  1  0  0  0
  7 16  1  0  0  0
  7 17  1  0  0  0
  7 20  1  0  0  0
  7 21  1  0  0  0
  8 17  1  0  0  0
  8 22  1  0  0  0
  8 23  1  0  0  0
  9 10  1  0  0  0
  9 24  1  0  0  0
 10 11  2  0  0  0
 10 25  1  0  0  0
 11 12  1  0  0  0
 12 35  1  0  0  0
 14 26  1  0  0  0
 14 27  1  0  0  0
 16 28  1  0  0  0
 16 29  1  0  0  0
 17 30  1  0  0  0
 17 31  1  0  0  0
 18 32  1  0  0  0
 18 33  1  0  0  0
 18 34  1  0  0  0
M  CHG  2  12   1  16   1
M  END
> <s_m_source_file>
../3kjd_ligand.sdf

> <i_m_source_file_index>
1

> <s_epik_input>
W05IMl1DKD1PKWMxW2NIXVtjSF1bY0hdYyhjMTIpW25IXWMobjIpW0NAQF0zKFtDSDNdKVtDSDJdW0NIMl1bQ0gyXVtOSDIrXTM=

> <s_epik_cmdline>
J2VwaWtfYXBwJywgJy1pbWFlJywgJ2xpZ2FuZF9wcm8ubWFlJywgJy1vbWFlJywgJ2xpZ2FuZF9wcmVwLm1hZScsICctbXMnLCAnMScsICctcGgnLCAnNycsICctcGh0JywgJzAuNScsICctbnQn

> <r_epik_Ionization_Penalty>
  0.0014

> <r_epik_Ionization_Penalty_Charging>
  0.0013

> <r_epik_Ionization_Penalty_Neutral>
  0.0000

> <r_epik_State_Penalty>
  0.1498

> <r_epik_Charging_Adjusted_Penalty>
0.151175409822354

> <i_epik_Tot_Q>
2

> <i_epik_Tot_abs_Q>
2

> <s_epik_Chemistry_Notes>
This compound has an imine and may undergo hydrolysis.

$$$$
