3kjf_ligand
                    3D
 Schrodinger Suite 2020-3.
 76 79  0  0  1  0            999 V2000
   16.3620   -2.2790   13.8230 C   0  0  0  0  0  0
   16.7590   -1.1030   12.9950 C   0  0  0  0  0  0
   16.1610   -0.0430   13.1380 O   0  0  0  0  0  0
   17.8880   -1.2770   12.0160 C   0  0  2  0  0  0
   17.5010   -0.5610   10.7350 C   0  0  0  0  0  0
   18.7050   -0.1190    9.9500 C   0  0  0  0  0  0
   18.7170    0.1340    8.7520 O   0  0  0  0  0  0
   19.8100    0.0230   10.7200 O   0  5  0  0  0  0
   18.0240   -2.7010   11.7840 N   0  0  0  0  0  0
   19.1030   -3.4090   12.2490 C   0  0  0  0  0  0
   19.9330   -2.8350   12.9420 O   0  0  0  0  0  0
   19.1830   -4.8870   11.8260 C   0  0  2  0  0  0
   18.6450   -5.7200   12.9280 C   0  0  0  0  0  0
   19.3910   -6.2080   13.9250 C   0  0  0  0  0  0
   18.8070   -7.0660   14.9980 C   0  0  0  0  0  0
   19.3220   -6.6300   16.3600 C   0  0  0  0  0  0
   20.8220   -6.3920   16.3680 C   0  0  0  0  0  0
   21.1810   -5.3010   15.3730 C   0  0  0  0  0  0
   20.8570   -5.9440   14.0480 C   0  0  2  0  0  0
   21.4000   -5.3880   12.8290 N   0  0  0  0  0  0
   20.6200   -5.0000   11.7650 N   0  0  0  0  0  0
   21.4240   -4.6010   10.7360 C   0  0  0  0  0  0
   21.0550   -4.1660    9.6580 O   0  0  0  0  0  0
   22.7080   -4.8060   11.1980 N   0  0  0  0  0  0
   23.9070   -4.5290   10.4410 C   0  0  0  0  0  0
   24.6330   -5.8140   10.0780 C   0  0  2  0  0  0
   25.7930   -5.5130    9.1430 C   0  0  0  0  0  0
   26.8320   -6.6180    9.1690 C   0  0  0  0  0  0
   27.5120   -6.7480    7.8340 C   0  0  0  0  0  0
   27.3430   -6.0480    6.8470 O   0  0  0  0  0  0
   28.3790   -7.7910    7.8360 O   0  5  0  0  0  0
   23.6940   -6.7530    9.4930 N   0  0  0  0  0  0
   23.3290   -7.9120   10.1440 C   0  0  0  0  0  0
   23.4890   -8.1170   11.3400 O   0  0  0  0  0  0
   22.6820   -8.9560    9.2730 C   0  0  0  0  0  0
   22.9760   -8.7860    7.8220 C   0  0  0  0  0  0
   22.0360   -8.2080    7.0020 C   0  0  0  0  0  0
   22.3050   -8.0360    5.6610 C   0  0  0  0  0  0
   23.5090   -8.4460    5.1360 C   0  0  0  0  0  0
   24.4510   -9.0350    5.9540 C   0  0  0  0  0  0
   24.1800   -9.2010    7.2960 C   0  0  0  0  0  0
   22.7190   -5.3070   12.4810 C   0  0  0  0  0  0
   23.6870   -5.6030   13.1710 O   0  0  0  0  0  0
   15.5297   -1.9973   14.4847 H   0  0  0  0  0  0
   17.2189   -2.6058   14.4304 H   0  0  0  0  0  0
   16.0447   -3.1009   13.1643 H   0  0  0  0  0  0
   18.8530   -0.9036   12.3894 H   0  0  0  0  0  0
   16.9079   -1.2372   10.1018 H   0  0  0  0  0  0
   16.9043    0.3303   10.9790 H   0  0  0  0  0  0
   17.2495   -3.2431   11.2216 H   0  0  0  0  0  0
   18.6711   -5.2195   10.9109 H   0  0  0  0  0  0
   17.5659   -5.9307   12.8945 H   0  0  0  0  0  0
   17.7107   -6.9766   14.9829 H   0  0  0  0  0  0
   19.0918   -8.1143   14.8249 H   0  0  0  0  0  0
   18.8295   -5.6917   16.6550 H   0  0  0  0  0  0
   19.0998   -7.4101   17.1030 H   0  0  0  0  0  0
   21.1386   -6.0818   17.3747 H   0  0  0  0  0  0
   21.3421   -7.3205   16.0899 H   0  0  0  0  0  0
   20.5716   -4.4073   15.5731 H   0  0  0  0  0  0
   22.2468   -5.0483   15.4746 H   0  0  0  0  0  0
   21.4503   -6.8701   14.0648 H   0  0  0  0  0  0
   23.6412   -4.0007    9.5135 H   0  0  0  0  0  0
   24.5821   -3.9005   11.0404 H   0  0  0  0  0  0
   25.0246   -6.3157   10.9752 H   0  0  0  0  0  0
   25.4179   -5.4131    8.1138 H   0  0  0  0  0  0
   26.2770   -4.5740    9.4496 H   0  0  0  0  0  0
   27.5913   -6.3895    9.9314 H   0  0  0  0  0  0
   26.3447   -7.5738    9.4118 H   0  0  0  0  0  0
   23.2542   -6.5481    8.5058 H   0  0  0  0  0  0
   23.0418   -9.9530    9.5670 H   0  0  0  0  0  0
   21.5898   -8.9097    9.3950 H   0  0  0  0  0  0
   21.0787   -7.8860    7.4119 H   0  0  0  0  0  0
   21.5604   -7.5730    5.0134 H   0  0  0  0  0  0
   23.7182   -8.3057    4.0755 H   0  0  0  0  0  0
   25.4039   -9.3672    5.5420 H   0  0  0  0  0  0
   24.9234   -9.6637    7.9451 H   0  0  0  0  0  0
  1  2  1  0  0  0
  1 44  1  0  0  0
  1 45  1  0  0  0
  1 46  1  0  0  0
  2  3  2  0  0  0
  2  4  1  0  0  0
  4  5  1  0  0  0
  4  9  1  0  0  0
  4 47  1  0  0  0
  5  6  1  0  0  0
  5 48  1  0  0  0
  5 49  1  0  0  0
  6  7  2  0  0  0
  6  8  1  0  0  0
  9 10  1  0  0  0
  9 50  1  0  0  0
 10 11  2  0  0  0
 10 12  1  0  0  0
 12 13  1  0  0  0
 12 21  1  0  0  0
 12 51  1  0  0  0
 13 14  2  0  0  0
 13 52  1  0  0  0
 14 15  1  0  0  0
 14 19  1  0  0  0
 15 16  1  0  0  0
 15 53  1  0  0  0
 15 54  1  0  0  0
 16 17  1  0  0  0
 16 55  1  0  0  0
 16 56  1  0  0  0
 17 18  1  0  0  0
 17 57  1  0  0  0
 17 58  1  0  0  0
 18 19  1  0  0  0
 18 59  1  0  0  0
 18 60  1  0  0  0
 19 20  1  0  0  0
 19 61  1  0  0  0
 20 21  1  0  0  0
 20 42  1  0  0  0
 21 22  1  0  0  0
 22 23  2  0  0  0
 22 24  1  0  0  0
 24 25  1  0  0  0
 24 42  1  0  0  0
 25 26  1  0  0  0
 25 62  1  0  0  0
 25 63  1  0  0  0
 26 27  1  0  0  0
 26 32  1  0  0  0
 26 64  1  0  0  0
 27 28  1  0  0  0
 27 65  1  0  0  0
 27 66  1  0  0  0
 28 29  1  0  0  0
 28 67  1  0  0  0
 28 68  1  0  0  0
 29 30  2  0  0  0
 29 31  1  0  0  0
 32 33  1  0  0  0
 32 69  1  0  0  0
 33 34  2  0  0  0
 33 35  1  0  0  0
 35 36  1  0  0  0
 35 70  1  0  0  0
 35 71  1  0  0  0
 36 37  2  0  0  0
 36 41  1  0  0  0
 37 38  1  0  0  0
 37 72  1  0  0  0
 38 39  2  0  0  0
 38 73  1  0  0  0
 39 40  1  0  0  0
 39 74  1  0  0  0
 40 41  2  0  0  0
 40 75  1  0  0  0
 41 76  1  0  0  0
 42 43  2  0  0  0
M  CHG  2   8  -1  31  -1
M  END
> <s_m_source_file>
../3kjf_ligand.sdf

> <i_m_source_file_index>
1

> <s_epik_input>
Tz1DKFtPSF0pW0NIMl1bQ0BASF0oQyg9TylbQ0gzXSlbTkhdQyg9TylbQ0BIXShbQ0hdPTEpbihuMltDQEhdKEMxMylbQ0gyXVtDSDJdW0NIMl1bQ0gyXTMpYyg9TyluKGMyPU8pW0NIMl1bQ0BIXShbQ0gyXVtDSDJdQyg9TylbT0hdKVtOSF1DKD1PKVtDSDJdYzRbY0hdW2NIXVtjSF1bY0hdW2NIXTQ=

> <s_epik_cmdline>
J2VwaWtfYXBwJywgJy1pbWFlJywgJ2xpZ2FuZF9wcm8ubWFlJywgJy1vbWFlJywgJ2xpZ2FuZF9wcmVwLm1hZScsICctbXMnLCAnMScsICctcGgnLCAnNycsICctcGh0JywgJzAuNScsICctbnQn

> <r_lp_tautomer_probability>
1

> <r_epik_Ionization_Penalty>
  0.0034

> <r_epik_Ionization_Penalty_Charging>
  0.0034

> <r_epik_Ionization_Penalty_Neutral>
  0.0000

> <r_epik_State_Penalty>
 -0.0000

> <r_epik_Charging_Adjusted_Penalty>
0.00342190963776062

> <i_epik_Tot_Q>
-2

> <i_epik_Tot_abs_Q>
2

$$$$
