3kjn_ligand
                    3D
 Schrodinger Suite 2020-3.
 77 81  0  0  1  0            999 V2000
  -11.9170   36.5420   37.4590 C   0  0  0  0  0  0
  -10.5460   36.4140   36.8770 C   0  0  0  0  0  0
  -10.3370   36.7860   35.7320 O   0  0  0  0  0  0
   -9.4430   35.8270   37.7260 C   0  0  2  0  0  0
   -8.5360   34.9850   36.8460 C   0  0  0  0  0  0
   -7.1950   34.9010   37.5170 C   0  0  0  0  0  0
   -6.7570   35.6990   38.3290 O   0  0  0  0  0  0
   -6.5030   33.8220   37.1070 O   0  5  0  0  0  0
  -10.0810   34.9930   38.7270 N   0  0  0  0  0  0
  -10.0830   35.3600   40.0540 C   0  0  0  0  0  0
   -9.5280   36.3510   40.5110 O   0  0  0  0  0  0
  -10.8620   34.3830   40.8940 C   0  0  2  0  0  0
  -12.3080   34.7500   40.8120 C   0  0  0  0  0  0
  -12.9880   35.3620   41.7890 C   0  0  0  0  0  0
  -14.4440   35.6580   41.6070 C   0  0  0  0  0  0
  -14.8610   37.1110   41.5230 C   0  0  0  0  0  0
  -14.0590   37.9030   40.5070 C   0  0  0  0  0  0
  -14.5270   39.3440   40.4890 C   0  0  0  0  0  0
  -16.0020   39.4070   40.1270 C   0  0  0  0  0  0
  -16.8270   38.5960   41.1060 C   0  0  0  0  0  0
  -16.3360   37.1650   41.1610 C   0  0  0  0  0  0
  -12.3340   35.7270   43.0830 C   0  0  0  0  0  0
  -10.8930   35.6480   42.9430 N   0  0  0  0  0  0
  -10.4320   34.5240   42.2740 N   0  0  0  0  0  0
   -9.1620   34.2400   42.7120 C   0  0  0  0  0  0
   -8.3420   33.5020   42.1870 O   0  0  0  0  0  0
   -8.9740   35.0420   43.8090 N   0  0  0  0  0  0
   -7.6680   35.2530   44.3960 C   0  0  0  0  0  0
   -7.5530   34.5310   45.7230 C   0  0  0  0  0  0
   -7.5990   33.0930   45.5650 N   0  0  0  0  0  0
   -7.6910   32.2690   46.6720 C   0  0  0  0  0  0
   -7.8640   32.6460   47.8250 O   0  0  0  0  0  0
   -7.5460   30.8320   46.3790 C   0  0  0  0  0  0
   -7.9750   30.3540   45.1600 C   0  0  0  0  0  0
   -7.8690   29.0240   44.8090 C   0  0  0  0  0  0
   -7.3030   28.2230   45.7740 C   0  0  0  0  0  0
   -7.0420   26.8830   45.7820 N   0  3  0  0  0  0
   -6.4700   26.5700   46.9790 C   0  0  0  0  0  0
   -6.3540   27.6400   47.7360 N   0  0  0  0  0  0
   -6.8680   28.6770   47.0020 C   0  0  0  0  0  0
   -6.9790   30.0190   47.3390 C   0  0  0  0  0  0
  -10.0330   35.8960   43.9900 C   0  0  0  0  0  0
  -10.1840   36.7070   44.8950 O   0  0  0  0  0  0
  -12.5924   36.9848   36.7122 H   0  0  0  0  0  0
  -11.8790   37.1885   38.3481 H   0  0  0  0  0  0
  -12.2883   35.5468   37.7449 H   0  0  0  0  0  0
   -8.8522   36.5984   38.2417 H   0  0  0  0  0  0
   -8.9681   33.9802   36.7293 H   0  0  0  0  0  0
   -8.4397   35.4596   35.8584 H   0  0  0  0  0  0
  -10.5713   34.0543   38.4295 H   0  0  0  0  0  0
  -10.6962   33.3439   40.5735 H   0  0  0  0  0  0
  -12.8145   34.4844   39.8724 H   0  0  0  0  0  0
  -14.7967   35.2016   40.6704 H   0  0  0  0  0  0
  -15.0111   35.2431   42.4533 H   0  0  0  0  0  0
  -14.6671   37.5708   42.5033 H   0  0  0  0  0  0
  -12.9930   37.8715   40.7764 H   0  0  0  0  0  0
  -14.1978   37.4644   39.5078 H   0  0  0  0  0  0
  -14.3791   39.7900   41.4836 H   0  0  0  0  0  0
  -13.9471   39.9086   39.7441 H   0  0  0  0  0  0
  -16.3421   40.4527   40.1553 H   0  0  0  0  0  0
  -16.1490   39.0009   39.1153 H   0  0  0  0  0  0
  -16.7453   39.0391   42.1095 H   0  0  0  0  0  0
  -17.8802   38.5989   40.7885 H   0  0  0  0  0  0
  -16.4889   36.7007   40.1756 H   0  0  0  0  0  0
  -16.9195   36.6199   41.9176 H   0  0  0  0  0  0
  -12.6172   36.7531   43.3604 H   0  0  0  0  0  0
  -12.6622   35.0309   43.8689 H   0  0  0  0  0  0
   -6.8937   34.8698   43.7151 H   0  0  0  0  0  0
   -7.5102   36.3288   44.5623 H   0  0  0  0  0  0
   -6.5978   34.7931   46.2014 H   0  0  0  0  0  0
   -8.3851   34.8310   46.3770 H   0  0  0  0  0  0
   -7.5608   32.6487   44.5595 H   0  0  0  0  0  0
   -8.4140   31.0520   44.4471 H   0  0  0  0  0  0
   -8.2059   28.6394   43.8464 H   0  0  0  0  0  0
   -6.1518   25.5689   47.2698 H   0  0  0  0  0  0
   -6.6401   30.4057   48.3001 H   0  0  0  0  0  0
   -7.2979   26.2676   44.9069 H   0  0  0  0  0  0
  1  2  1  0  0  0
  1 44  1  0  0  0
  1 45  1  0  0  0
  1 46  1  0  0  0
  2  3  2  0  0  0
  2  4  1  0  0  0
  4  5  1  0  0  0
  4  9  1  0  0  0
  4 47  1  0  0  0
  5  6  1  0  0  0
  5 48  1  0  0  0
  5 49  1  0  0  0
  6  7  2  0  0  0
  6  8  1  0  0  0
  9 10  1  0  0  0
  9 50  1  0  0  0
 10 11  2  0  0  0
 10 12  1  0  0  0
 12 13  1  0  0  0
 12 24  1  0  0  0
 12 51  1  0  0  0
 13 14  2  0  0  0
 13 52  1  0  0  0
 14 15  1  0  0  0
 14 22  1  0  0  0
 15 16  1  0  0  0
 15 53  1  0  0  0
 15 54  1  0  0  0
 16 17  1  0  0  0
 16 21  1  0  0  0
 16 55  1  0  0  0
 17 18  1  0  0  0
 17 56  1  0  0  0
 17 57  1  0  0  0
 18 19  1  0  0  0
 18 58  1  0  0  0
 18 59  1  0  0  0
 19 20  1  0  0  0
 19 60  1  0  0  0
 19 61  1  0  0  0
 20 21  1  0  0  0
 20 62  1  0  0  0
 20 63  1  0  0  0
 21 64  1  0  0  0
 21 65  1  0  0  0
 22 23  1  0  0  0
 22 66  1  0  0  0
 22 67  1  0  0  0
 23 24  1  0  0  0
 23 42  1  0  0  0
 24 25  1  0  0  0
 25 26  2  0  0  0
 25 27  1  0  0  0
 27 28  1  0  0  0
 27 42  1  0  0  0
 28 29  1  0  0  0
 28 68  1  0  0  0
 28 69  1  0  0  0
 29 30  1  0  0  0
 29 70  1  0  0  0
 29 71  1  0  0  0
 30 31  1  0  0  0
 30 72  1  0  0  0
 31 32  2  0  0  0
 31 33  1  0  0  0
 33 34  2  0  0  0
 33 41  1  0  0  0
 34 35  1  0  0  0
 34 73  1  0  0  0
 35 36  2  0  0  0
 35 74  1  0  0  0
 36 37  1  0  0  0
 36 40  1  0  0  0
 37 38  2  0  0  0
 37 77  1  0  0  0
 38 39  1  0  0  0
 38 75  1  0  0  0
 39 40  1  0  0  0
 40 41  2  0  0  0
 41 76  1  0  0  0
 42 43  2  0  0  0
M  CHG  2   8  -1  37   1
M  END
> <s_m_source_file>
../3kjn_ligand.sdf

> <i_m_source_file_index>
1

> <s_epik_input>
W0NIMl0xW0NIMl1bQ0gyXVtDSDJdW0NIMl1bQ0hdMVtDSDJdQyhbQ0gyXTIpPVtDSF1bQ0BASF0oQyg9TylbTkhdW0NASF0oQyg9TylbQ0gzXSlbQ0gyXUMoPU8pW09IXSluKG4yMyljKD1PKW4oYzM9TylbQ0gyXVtDSDJdW05IXUMoPU8pYyhbY0hdW2NIXTQpW2NIXWMoYzQ1KVtuSF1bY0hdbjU=

> <s_epik_cmdline>
J2VwaWtfYXBwJywgJy1pbWFlJywgJ2xpZ2FuZF9wcm8ubWFlJywgJy1vbWFlJywgJ2xpZ2FuZF9wcmVwLm1hZScsICctbXMnLCAnMScsICctcGgnLCAnNycsICctcGh0JywgJzAuNScsICctbnQn

> <r_epik_Ionization_Penalty>
  0.0055

> <r_epik_Ionization_Penalty_Charging>
  0.0009

> <r_epik_Ionization_Penalty_Neutral>
  0.0046

> <r_epik_State_Penalty>
  0.2924

> <r_epik_Charging_Adjusted_Penalty>
0.293255477331682

> <i_epik_Tot_Q>
0

> <i_epik_Tot_abs_Q>
2

$$$$
