3kjq_ligand
                    3D
 Schrodinger Suite 2020-3.
 49 50  0  0  1  0            999 V2000
  -12.8510   37.4490   38.2830 C   0  0  0  0  0  0
  -11.4490   37.3170   37.7640 C   0  0  0  0  0  0
  -11.2020   37.7610   36.6490 O   0  0  0  0  0  0
  -10.4220   36.6220   38.6450 C   0  0  2  0  0  0
   -9.5080   35.7430   37.8030 C   0  0  0  0  0  0
   -8.1710   35.6880   38.4920 C   0  0  0  0  0  0
   -7.7840   36.4950   39.3250 O   0  0  0  0  0  0
   -7.4340   34.6420   38.0710 O   0  5  0  0  0  0
  -11.1950   35.8210   39.5810 N   0  0  0  0  0  0
  -11.3330   36.1030   40.9230 C   0  0  0  0  0  0
  -10.8090   37.0340   41.5210 O   0  0  0  0  0  0
  -12.2370   35.1050   41.5920 C   0  0  2  0  0  0
  -13.6460   35.6000   41.4790 C   0  0  0  0  0  0
  -14.3820   36.0460   42.5040 C   0  0  0  0  0  0
  -13.9220   36.1300   43.9190 C   0  0  1  0  0  0
  -14.6000   35.0490   44.7320 C   0  0  0  0  0  0
  -12.4730   36.0000   43.9450 N   0  0  0  0  0  0
  -11.8920   35.0850   42.9920 N   0  0  0  0  0  0
  -10.7200   34.5620   43.5400 C   0  0  0  0  0  0
   -9.9350   33.8240   42.9690 O   0  0  0  0  0  0
  -10.6490   35.0530   44.8140 N   0  0  0  0  0  0
   -9.4740   34.8880   45.6420 C   0  0  0  0  0  0
   -8.5830   36.1120   45.5790 C   0  0  0  0  0  0
   -7.4940   35.9260   46.6100 C   0  0  0  0  0  0
   -6.6700   37.1630   46.7550 C   0  0  0  0  0  0
   -6.3470   37.9320   45.8630 O   0  0  0  0  0  0
   -6.3060   37.3100   48.0550 O   0  5  0  0  0  0
  -11.6880   35.9140   45.0900 C   0  0  0  0  0  0
  -11.9070   36.4890   46.1510 O   0  0  0  0  0  0
  -13.4703   37.9696   37.5378 H   0  0  0  0  0  0
  -12.8424   38.0255   39.2198 H   0  0  0  0  0  0
  -13.2678   36.4487   38.4718 H   0  0  0  0  0  0
   -9.7895   37.3251   39.2068 H   0  0  0  0  0  0
   -9.9406   34.7348   37.7231 H   0  0  0  0  0  0
   -9.4045   36.1782   36.7981 H   0  0  0  0  0  0
  -11.7202   34.9201   39.2309 H   0  0  0  0  0  0
  -12.1274   34.0957   41.1686 H   0  0  0  0  0  0
  -14.0709   35.5798   40.4646 H   0  0  0  0  0  0
  -15.4136   36.3874   42.3329 H   0  0  0  0  0  0
  -14.1578   37.1117   44.3557 H   0  0  0  0  0  0
  -15.6906   35.1846   44.6851 H   0  0  0  0  0  0
  -14.2670   35.1140   45.7784 H   0  0  0  0  0  0
  -14.3353   34.0626   44.3235 H   0  0  0  0  0  0
   -9.7807   34.7307   46.6866 H   0  0  0  0  0  0
   -8.8992   34.0173   45.2935 H   0  0  0  0  0  0
   -8.1508   36.1994   44.5713 H   0  0  0  0  0  0
   -9.1775   37.0102   45.8021 H   0  0  0  0  0  0
   -7.9476   35.6906   47.5841 H   0  0  0  0  0  0
   -6.8356   35.1000   46.3030 H   0  0  0  0  0  0
  1  2  1  0  0  0
  1 30  1  0  0  0
  1 31  1  0  0  0
  1 32  1  0  0  0
  2  3  2  0  0  0
  2  4  1  0  0  0
  4  5  1  0  0  0
  4  9  1  0  0  0
  4 33  1  0  0  0
  5  6  1  0  0  0
  5 34  1  0  0  0
  5 35  1  0  0  0
  6  7  2  0  0  0
  6  8  1  0  0  0
  9 10  1  0  0  0
  9 36  1  0  0  0
 10 11  2  0  0  0
 10 12  1  0  0  0
 12 13  1  0  0  0
 12 18  1  0  0  0
 12 37  1  0  0  0
 13 14  2  0  0  0
 13 38  1  0  0  0
 14 15  1  0  0  0
 14 39  1  0  0  0
 15 16  1  0  0  0
 15 17  1  0  0  0
 15 40  1  0  0  0
 16 41  1  0  0  0
 16 42  1  0  0  0
 16 43  1  0  0  0
 17 18  1  0  0  0
 17 28  1  0  0  0
 18 19  1  0  0  0
 19 20  2  0  0  0
 19 21  1  0  0  0
 21 22  1  0  0  0
 21 28  1  0  0  0
 22 23  1  0  0  0
 22 44  1  0  0  0
 22 45  1  0  0  0
 23 24  1  0  0  0
 23 46  1  0  0  0
 23 47  1  0  0  0
 24 25  1  0  0  0
 24 48  1  0  0  0
 24 49  1  0  0  0
 25 26  2  0  0  0
 25 27  1  0  0  0
 28 29  2  0  0  0
M  CHG  2   8  -1  27  -1
M  END
> <s_m_source_file>
../3kjq_ligand.sdf

> <i_m_source_file_index>
1

> <s_epik_input>
Tz1DKFtPSF0pW0NIMl1bQ0BASF0oQyg9TylbQ0gzXSlbTkhdQyg9TylbQ0BIXShbQ0hdPVtDSF1bQ0BIXTFbQ0gzXSluKG4xMiljKD1PKW4oYzI9TylbQ0gyXVtDSDJdW0NIMl1DKD1PKVtPSF0=

> <s_epik_cmdline>
J2VwaWtfYXBwJywgJy1pbWFlJywgJ2xpZ2FuZF9wcm8ubWFlJywgJy1vbWFlJywgJ2xpZ2FuZF9wcmVwLm1hZScsICctbXMnLCAnMScsICctcGgnLCAnNycsICctcGh0JywgJzAuNScsICctbnQn

> <r_lp_tautomer_probability>
1

> <r_epik_Ionization_Penalty>
  0.0047

> <r_epik_Ionization_Penalty_Charging>
  0.0047

> <r_epik_Ionization_Penalty_Neutral>
  0.0000

> <r_epik_State_Penalty>
 -0.0000

> <r_epik_Charging_Adjusted_Penalty>
0.00471010100600637

> <i_epik_Tot_Q>
-2

> <i_epik_Tot_abs_Q>
2

$$$$
