3kku_ligand
                    3D
 Schrodinger Suite 2020-3.
 39 41  0  0  1  0            999 V2000
   -5.5420  -36.4310   -0.0900 O   0  0  0  0  0  0
   -0.1270  -36.6070    0.3810 Br  0  0  0  0  0  0
   -0.6660  -39.3060    3.4620 C   0  0  0  0  0  0
   -1.8790  -38.8910    4.0080 C   0  0  0  0  0  0
   -5.1660  -39.1690    7.4190 C   0  0  0  0  0  0
   -5.8960  -38.2040    8.1000 C   0  0  0  0  0  0
   -0.1230  -38.5960    2.3990 C   0  0  0  0  0  0
   -2.5910  -37.8140    3.4980 C   0  0  0  0  0  0
   -5.2100  -39.2530    6.0340 C   0  0  0  0  0  0
   -6.6940  -37.3010    7.4200 C   0  0  0  0  0  0
   -6.7890  -35.3970    2.1840 C   0  0  0  0  0  0
   -7.6110  -36.6110    2.5850 C   0  0  0  0  0  0
   -3.3610  -36.2330    0.6970 C   0  0  0  0  0  0
   -6.2260  -38.1870    4.0100 N   0  0  0  0  0  0
   -5.3620  -35.6640    2.0160 N   0  0  0  0  0  0
   -7.3660  -36.6420    5.0990 N   0  3  0  0  0  0
   -2.7200  -36.0360    1.9270 O   0  0  0  0  0  0
   -4.8420  -36.1010    0.8560 C   0  0  0  0  0  0
   -0.8350  -37.5090    1.8830 C   0  0  0  0  0  0
   -7.0670  -37.1420    3.8720 C   0  0  0  0  0  0
   -2.0520  -37.1190    2.4370 C   0  0  0  0  0  0
   -6.0000  -38.3500    5.3360 C   0  0  0  0  0  0
   -6.7200  -37.3780    6.0280 C   0  0  0  0  0  0
   -0.1495  -40.1774    3.8644 H   0  0  0  0  0  0
   -2.2826  -39.4305    4.8648 H   0  0  0  0  0  0
   -4.5492  -39.8710    7.9802 H   0  0  0  0  0  0
   -5.8396  -38.1570    9.1875 H   0  0  0  0  0  0
    0.8399  -38.8808    1.9751 H   0  0  0  0  0  0
   -3.5513  -37.5256    3.9255 H   0  0  0  0  0  0
   -4.6354  -40.0133    5.5050 H   0  0  0  0  0  0
   -7.2822  -36.5549    7.9543 H   0  0  0  0  0  0
   -7.1576  -35.0053    1.2245 H   0  0  0  0  0  0
   -6.8815  -34.6199    2.9570 H   0  0  0  0  0  0
   -8.6627  -36.3155    2.7134 H   0  0  0  0  0  0
   -7.5390  -37.3782    1.8000 H   0  0  0  0  0  0
   -3.0091  -35.4809   -0.0245 H   0  0  0  0  0  0
   -3.1289  -37.2398    0.3197 H   0  0  0  0  0  0
   -4.6705  -35.5081    2.8572 H   0  0  0  0  0  0
   -8.0373  -35.7755    5.1912 H   0  0  0  0  0  0
  1 18  2  0  0  0
  2 19  1  0  0  0
  3  4  2  0  0  0
  3  7  1  0  0  0
  3 24  1  0  0  0
  4  8  1  0  0  0
  4 25  1  0  0  0
  5  6  2  0  0  0
  5  9  1  0  0  0
  5 26  1  0  0  0
  6 10  1  0  0  0
  6 27  1  0  0  0
  7 19  2  0  0  0
  7 28  1  0  0  0
  8 21  2  0  0  0
  8 29  1  0  0  0
  9 22  2  0  0  0
  9 30  1  0  0  0
 10 23  2  0  0  0
 10 31  1  0  0  0
 11 12  1  0  0  0
 11 15  1  0  0  0
 11 32  1  0  0  0
 11 33  1  0  0  0
 12 20  1  0  0  0
 12 34  1  0  0  0
 12 35  1  0  0  0
 13 17  1  0  0  0
 13 18  1  0  0  0
 13 36  1  0  0  0
 13 37  1  0  0  0
 14 20  2  0  0  0
 14 22  1  0  0  0
 15 18  1  0  0  0
 15 38  1  0  0  0
 16 20  1  0  0  0
 16 23  1  0  0  0
 16 39  1  0  0  0
 17 21  1  0  0  0
 19 21  1  0  0  0
 22 23  1  0  0  0
M  CHG  1  16   1
M  END
> <s_m_source_file>
../3kku_ligand.sdf

> <i_m_source_file_index>
1

> <s_epik_input>
QnJjMVtjSF1bY0hdW2NIXVtjSF1jMU9bQ0gyXUMoPU8pW05IXVtDSDJdW0NIMl1jKG4yKVtuSF1jKGMyMylbY0hdW2NIXVtjSF1bY0hdMw==

> <s_epik_cmdline>
J2VwaWtfYXBwJywgJy1pbWFlJywgJ2xpZ2FuZF9wcm8ubWFlJywgJy1vbWFlJywgJ2xpZ2FuZF9wcmVwLm1hZScsICctbXMnLCAnMScsICctcGgnLCAnNycsICctcGh0JywgJzAuNScsICctbnQn

> <r_epik_Ionization_Penalty>
  0.0000

> <r_epik_Ionization_Penalty_Charging>
  0.0000

> <r_epik_Ionization_Penalty_Neutral>
  0.0000

> <r_epik_State_Penalty>
  0.0001

> <r_epik_Charging_Adjusted_Penalty>
0.000107101501300067

> <i_epik_Tot_Q>
1

> <i_epik_Tot_abs_Q>
1

> <s_epik_Chemistry_Notes>
This compound has an imine and may undergo hydrolysis.

$$$$
