3kl6_ligand
                    3D
 Schrodinger Suite 2020-3.
 58 61  0  0  1  0            999 V2000
    1.8430   -9.1500  -16.5290 C   0  0  0  0  0  0
    4.4350   -8.0650  -16.3690 C   0  0  0  0  0  0
    6.1080   -7.5760  -14.7230 C   0  0  0  0  0  0
    6.3900   -3.9080  -14.3980 C   0  0  0  0  0  0
    5.4380   -3.4900  -15.3520 C   0  0  0  0  0  0
    4.9240   -5.7800  -15.8780 C   0  0  0  0  0  0
   -1.4730  -10.5620  -13.1870 C   0  0  0  0  0  0
   -0.6470  -10.9160  -10.8590 C   0  0  0  0  0  0
    0.9450  -11.1940  -12.7730 C   0  0  0  0  0  0
    0.0020   -9.4580   -8.8660 C   0  0  0  0  0  0
    2.4780   -9.0860  -14.1740 O   0  0  0  0  0  0
    1.7620   -9.8460  -15.1700 C   0  0  1  0  0  0
    3.4910   -9.2420  -17.2640 S   0  0  0  0  0  0
    4.0900  -10.5140  -16.9920 O   0  0  0  0  0  0
    3.3890   -8.7440  -18.5940 O   0  0  0  0  0  0
    5.3910   -8.4820  -15.4340 C   0  0  0  0  0  0
    5.8930   -6.2020  -14.9260 C   0  0  0  0  0  0
    6.6140   -5.2410  -14.2010 C   0  0  0  0  0  0
    7.2870   -2.7420  -13.4710 Cl  0  0  0  0  0  0
    4.7170   -4.3970  -16.0770 C   0  0  0  0  0  0
    4.2010   -6.7420  -16.6030 C   0  0  0  0  0  0
    0.3040   -9.9030  -14.7670 C   0  0  0  0  0  0
   -0.5350   -9.3670  -15.4730 O   0  0  0  0  0  0
   -0.0590  -10.5200  -13.6180 N   0  0  0  0  0  0
   -1.5500  -10.0320  -11.7370 C   0  0  0  0  0  0
    0.8120  -10.7620  -11.3100 C   0  0  0  0  0  0
   -0.7190  -10.6220   -9.4150 N   0  0  0  0  0  0
   -0.6430   -8.9470   -7.5730 C   0  0  0  0  0  0
   -0.8380  -10.1060   -6.5880 C   0  0  0  0  0  0
   -1.4890  -11.2330   -7.2580 N   0  0  0  0  0  0
   -1.4060  -11.4380   -8.5860 C   0  0  0  0  0  0
   -1.9810  -12.4010   -9.0530 O   0  0  0  0  0  0
    1.1367   -9.6241  -17.2264 H   0  0  0  0  0  0
    1.5855   -8.0869  -16.4125 H   0  0  0  0  0  0
    6.8481   -7.9124  -13.9970 H   0  0  0  0  0  0
    5.2747   -2.4245  -15.5137 H   0  0  0  0  0  0
   -2.0784   -9.9303  -13.8537 H   0  0  0  0  0  0
   -1.8392  -11.5983  -13.2313 H   0  0  0  0  0  0
   -1.0214  -11.9465  -10.9480 H   0  0  0  0  0  0
    0.8030  -12.2831  -12.8329 H   0  0  0  0  0  0
    1.9543  -10.9358  -13.1261 H   0  0  0  0  0  0
    1.0415   -9.7416   -8.6447 H   0  0  0  0  0  0
   -0.0063   -8.6409   -9.6024 H   0  0  0  0  0  0
    3.5610   -8.9245  -14.2790 H   0  0  0  0  0  0
    2.2318  -10.8402  -15.1984 H   0  0  0  0  0  0
    5.5608   -9.5470  -15.2758 H   0  0  0  0  0  0
    7.3600   -5.5613  -13.4736 H   0  0  0  0  0  0
    3.9840   -4.0539  -16.8071 H   0  0  0  0  0  0
    3.4623   -6.4348  -17.3433 H   0  0  0  0  0  0
   -1.2029   -8.9886  -11.7091 H   0  0  0  0  0  0
   -2.5903  -10.0819  -11.3831 H   0  0  0  0  0  0
    1.1176   -9.7100  -11.2100 H   0  0  0  0  0  0
    1.4584  -11.3928  -10.6821 H   0  0  0  0  0  0
    0.0077   -8.1883   -7.1136 H   0  0  0  0  0  0
   -1.6215   -8.5001   -7.8031 H   0  0  0  0  0  0
    0.1409  -10.4306   -6.2054 H   0  0  0  0  0  0
   -1.4672   -9.7727   -5.7495 H   0  0  0  0  0  0
   -2.0762  -11.9561   -6.6729 H   0  0  0  0  0  0
  1 12  1  0  0  0
  1 13  1  0  0  0
  1 33  1  0  0  0
  1 34  1  0  0  0
  2 13  1  0  0  0
  2 16  2  0  0  0
  2 21  1  0  0  0
  3 16  1  0  0  0
  3 17  2  0  0  0
  3 35  1  0  0  0
  4  5  1  0  0  0
  4 18  2  0  0  0
  4 19  1  0  0  0
  5 20  2  0  0  0
  5 36  1  0  0  0
  6 17  1  0  0  0
  6 20  1  0  0  0
  6 21  2  0  0  0
  7 24  1  0  0  0
  7 25  1  0  0  0
  7 37  1  0  0  0
  7 38  1  0  0  0
  8 25  1  0  0  0
  8 26  1  0  0  0
  8 27  1  0  0  0
  8 39  1  0  0  0
  9 24  1  0  0  0
  9 26  1  0  0  0
  9 40  1  0  0  0
  9 41  1  0  0  0
 10 27  1  0  0  0
 10 28  1  0  0  0
 10 42  1  0  0  0
 10 43  1  0  0  0
 11 12  1  0  0  0
 11 44  1  0  0  0
 12 22  1  0  0  0
 12 45  1  0  0  0
 13 14  2  0  0  0
 13 15  2  0  0  0
 16 46  1  0  0  0
 17 18  1  0  0  0
 18 47  1  0  0  0
 20 48  1  0  0  0
 21 49  1  0  0  0
 22 23  2  0  0  0
 22 24  1  0  0  0
 25 50  1  0  0  0
 25 51  1  0  0  0
 26 52  1  0  0  0
 26 53  1  0  0  0
 27 31  1  0  0  0
 28 29  1  0  0  0
 28 54  1  0  0  0
 28 55  1  0  0  0
 29 30  1  0  0  0
 29 56  1  0  0  0
 29 57  1  0  0  0
 30 31  1  0  0  0
 30 58  1  0  0  0
 31 32  2  0  0  0
M  END
> <s_m_source_file>
../3kl6_ligand.sdf

> <i_m_source_file_index>
1

> <s_epik_input>
W2NIXTFbY0hdYyhDbClbY0hdYyhjMTIpW2NIXVtjSF1jKFtjSF0yKVMoPU8pKD1PKVtDSDJdW0NAQEhdKFtPSF0pQyg9TylOKFtDSDJdW0NIMl0zKVtDSDJdW0NIMl1bQ0hdM040W0NIMl1bQ0gyXVtDSDJdW05IXUM0PU8=

> <s_epik_cmdline>
J2VwaWtfYXBwJywgJy1pbWFlJywgJ2xpZ2FuZF9wcm8ubWFlJywgJy1vbWFlJywgJ2xpZ2FuZF9wcmVwLm1hZScsICctbXMnLCAnMScsICctcGgnLCAnNycsICctcGh0JywgJzAuNScsICctbnQn

> <r_epik_Ionization_Penalty>
  0.0173

> <r_epik_Ionization_Penalty_Charging>
  0.0000

> <r_epik_Ionization_Penalty_Neutral>
  0.0173

> <r_epik_State_Penalty>
  0.0137

> <r_epik_Charging_Adjusted_Penalty>
0.0136844675924065

> <i_epik_Tot_Q>
0

> <i_epik_Tot_abs_Q>
0

$$$$
