3kl8_ligand
                    3D
 Schrodinger Suite 2020-3.
298299  0  0  1  0            999 V2000
   32.1420  -34.7350   43.4940 N   0  3  0  0  0  0
   32.7850  -34.0970   44.6370 C   0  0  2  0  0  0
   32.1070  -32.7760   44.9850 C   0  0  0  0  0  0
   31.7810  -32.5210   46.1440 O   0  0  0  0  0  0
   34.2720  -33.8670   44.3560 C   0  0  0  0  0  0
   35.0530  -35.1400   44.0700 C   0  0  0  0  0  0
   36.5180  -34.8380   43.7980 C   0  0  0  0  0  0
   37.2990  -36.1100   43.5090 C   0  0  0  0  0  0
   38.7360  -35.8300   43.2380 N   0  3  0  0  0  0
   31.8980  -31.9400   43.9730 N   0  0  0  0  0  0
   32.2980  -32.2740   42.6020 C   0  0  2  0  0  0
   32.9350  -30.9530   42.0930 C   0  0  0  0  0  0
   32.3090  -29.8910   42.2010 O   0  0  0  0  0  0
   31.0690  -32.6110   41.7290 C   0  0  0  0  0  0
   31.3480  -32.6970   40.2180 C   0  0  0  0  0  0
   30.0790  -33.0980   39.4630 C   0  0  0  0  0  0
   29.4350  -34.2540   40.0830 N   0  0  0  0  0  0
   28.1880  -34.6490   39.8430 C   0  0  0  0  0  0
   27.7030  -35.7140   40.4680 N   0  0  0  0  0  0
   27.4250  -33.9850   38.9860 N   0  0  0  0  0  0
   34.1580  -31.0470   41.5640 N   0  0  0  0  0  0
   34.9490  -29.9090   41.0520 C   0  0  2  0  0  0
   34.5250  -29.3500   39.6830 C   0  0  0  0  0  0
   33.8090  -30.0290   38.9470 O   0  0  0  0  0  0
   36.3640  -30.4880   40.9610 C   0  0  0  0  0  0
   36.3910  -31.5670   41.9880 C   0  0  0  0  0  0
   35.0140  -32.1660   41.9960 C   0  0  0  0  0  0
   34.9600  -28.1290   39.3550 N   0  0  0  0  0  0
   34.5890  -27.5000   38.0810 C   0  0  2  0  0  0
   35.2660  -28.1950   36.9110 C   0  0  0  0  0  0
   36.3520  -28.7500   37.0960 O   0  0  0  0  0  0
   35.1410  -26.0670   38.2080 C   0  0  0  0  0  0
   35.6020  -25.9230   39.5900 C   0  0  0  0  0  0
   35.9240  -27.3020   40.0890 C   0  0  0  0  0  0
   34.6470  -28.1580   35.7310 N   0  0  0  0  0  0
   35.2430  -28.8150   34.5820 C   0  0  2  0  0  0
   36.5020  -28.0760   34.1770 C   0  0  0  0  0  0
   36.6090  -26.8750   34.3620 O   0  0  0  0  0  0
   34.2500  -28.9650   33.4320 C   0  0  0  0  0  0
   33.1200  -29.9320   33.7410 C   0  0  0  0  0  0
   32.6860  -30.7420   32.5280 C   0  0  0  0  0  0
   31.7720  -31.8850   32.9470 C   0  0  0  0  0  0
   31.3320  -32.7330   31.8060 N   0  3  0  0  0  0
   37.4640  -28.8130   33.6470 N   0  0  0  0  0  0
   38.7770  -28.2740   33.3650 C   0  0  2  0  0  0
   38.7270  -26.9730   32.5620 C   0  0  0  0  0  0
   39.6130  -26.1310   32.6730 O   0  0  0  0  0  0
   39.6020  -29.3140   32.6280 C   0  0  0  0  0  0
   40.9800  -28.8630   32.1760 C   0  0  0  0  0  0
   41.9380  -28.8400   33.3450 C   0  0  0  0  0  0
   41.4840  -29.7980   31.1130 C   0  0  0  0  0  0
   37.6930  -26.8080   31.7450 N   0  0  0  0  0  0
   37.5170  -25.5860   30.9820 C   0  0  0  0  0  0
   37.2300  -24.3990   31.8820 C   0  0  0  0  0  0
   37.8320  -23.3420   31.7440 O   0  0  0  0  0  0
   36.3040  -24.5800   32.8100 N   0  0  0  0  0  0
   35.9690  -23.5400   33.7710 C   0  0  2  0  0  0
   37.1380  -23.1330   34.6670 C   0  0  0  0  0  0
   37.2530  -21.9690   35.0520 O   0  0  0  0  0  0
   34.8080  -23.9900   34.6480 C   0  0  0  0  0  0
   33.4840  -24.0540   33.9340 C   0  0  0  0  0  0
   32.4770  -24.9500   34.6350 C   0  0  0  0  0  0
   32.8000  -26.0710   35.0410 O   0  0  0  0  0  0
   31.2430  -24.4660   34.7670 N   0  0  0  0  0  0
   38.0080  -24.0750   35.0050 N   0  0  0  0  0  0
   38.9950  -23.7780   36.0330 C   0  0  2  0  0  0
   40.1720  -22.9510   35.5080 C   0  0  0  0  0  0
   40.7120  -22.1040   36.2300 O   0  0  0  0  0  0
   39.4760  -25.0480   36.8320 C   0  0  2  0  0  0
   40.1420  -26.0720   35.9130 C   0  0  0  0  0  0
   38.3470  -25.6750   37.6550 C   0  0  0  0  0  0
   40.8160  -27.2140   36.6600 C   0  0  0  0  0  0
   40.5600  -23.1760   34.2580 N   0  0  0  0  0  0
   41.6880  -22.4550   33.6960 C   0  0  0  0  0  0
   42.9190  -23.3270   33.5820 C   0  0  0  0  0  0
   42.8230  -24.5360   33.7100 O   0  0  0  0  0  0
   44.0800  -22.7190   33.3660 N   0  0  0  0  0  0
   45.2890  -23.4860   33.0590 C   0  0  2  0  0  0
   46.4800  -23.3170   34.0210 C   0  0  0  0  0  0
   47.2590  -22.3660   33.9150 O   0  0  0  0  0  0
   45.7350  -23.1840   31.6340 C   0  0  0  0  0  0
   44.6640  -23.4060   30.6070 C   0  0  0  0  0  0
   44.8930  -22.5790   29.3540 C   0  0  0  0  0  0
   46.2790  -22.6550   28.9140 N   0  0  0  0  0  0
   46.6850  -23.1780   27.7620 C   0  0  0  0  0  0
   45.8080  -23.6710   26.8970 N   0  0  0  0  0  0
   47.9780  -23.1930   27.4690 N   0  0  0  0  0  0
   46.5960  -24.2270   34.9930 N   0  0  0  0  0  0
   47.7720  -24.4130   35.8830 C   0  0  2  0  0  0
   48.3740  -23.2240   36.6650 C   0  0  0  0  0  0
   47.6500  -22.3710   37.1790 O   0  0  0  0  0  0
   48.8920  -25.1240   35.1140 C   0  0  0  0  0  0
   49.2930  -24.3700   33.9840 O   0  0  0  0  0  0
   49.7150  -23.1810   36.7250 N   0  0  0  0  0  0
   50.4420  -22.0700   37.3320 C   0  0  2  0  0  0
   51.9380  -22.3710   37.4330 C   0  0  0  0  0  0
   52.7460  -21.6430   36.8630 O   0  0  0  0  0  0
   49.8830  -21.7570   38.7170 C   0  0  0  0  0  0
   50.6270  -20.6580   39.4300 C   0  0  0  0  0  0
   49.9760  -20.3200   40.7600 C   0  0  0  0  0  0
   50.6100  -19.0760   41.3710 C   0  0  0  0  0  0
   49.9110  -18.6000   42.6000 N   0  3  0  0  0  0
   52.2890  -23.4380   38.1610 N   0  0  0  0  0  0
   53.6720  -23.9150   38.3060 C   0  0  2  0  0  0
   54.1920  -23.3050   39.5870 C   0  0  0  0  0  0
   53.6540  -22.3090   40.0480 O   0  0  0  0  0  0
   54.4770  -23.6740   37.0310 C   0  0  0  0  0  0
   55.9460  -24.0980   37.0560 C   0  0  0  0  0  0
   56.4360  -24.2620   35.5920 C   0  0  0  0  0  0
   57.8570  -23.9520   35.3670 N   0  0  0  0  0  0
   58.4840  -24.0900   34.1960 C   0  0  0  0  0  0
   57.8270  -24.5390   33.1320 N   0  0  0  0  0  0
   59.7720  -23.7840   34.0850 N   0  0  0  0  0  0
   55.2400  -23.9120   40.1460 N   0  0  0  0  0  0
   55.7230  -23.6250   41.5090 C   0  0  2  0  0  0
   57.1950  -24.0040   41.6610 C   0  0  0  0  0  0
   57.5910  -25.0810   41.2460 O   0  0  0  0  0  0
   54.9720  -24.3740   42.6430 C   0  0  0  0  0  0
   55.9030  -24.6890   43.7790 C   0  0  0  0  0  0
   53.7760  -23.5770   43.1350 C   0  0  0  0  0  0
   58.0270  -23.1650   42.2620 N   0  0  0  0  0  0
   59.3790  -23.6500   42.6000 C   0  0  2  0  0  0
   59.9190  -23.1410   43.9500 C   0  0  0  0  0  0
   59.2230  -22.4310   44.6900 O   0  0  0  0  0  0
   60.4420  -23.4270   41.4760 C   0  0  0  0  0  0
   61.5790  -24.4080   41.6500 C   0  0  0  0  0  0
   59.8470  -23.5970   40.0910 C   0  0  0  0  0  0
   61.1560  -23.5230   44.2690 N   0  0  0  0  0  0
   61.7610  -23.1750   45.5520 C   0  0  2  0  0  0
   63.2780  -23.3720   45.5070 C   0  0  0  0  0  0
   63.9527  -22.9474   44.5312 O   0  0  0  0  0  0
   61.1370  -24.0020   46.7190 C   0  0  2  0  0  0
   60.6750  -23.0700   47.8640 C   0  0  0  0  0  0
   62.0940  -25.1490   47.1550 C   0  0  0  0  0  0
   59.3240  -23.4560   48.5270 C   0  0  0  0  0  0
   63.8582  -23.9649   46.4554 O   0  0  0  0  0  0
   31.0757  -34.8922   43.7138 H   0  0  0  0  0  0
   32.6226  -35.7047   43.2971 H   0  0  0  0  0  0
   32.2428  -34.0894   42.6091 H   0  0  0  0  0  0
   32.6565  -34.8038   45.4700 H   0  0  0  0  0  0
   34.3825  -33.2147   43.4772 H   0  0  0  0  0  0
   34.7404  -33.3887   45.2288 H   0  0  0  0  0  0
   34.9891  -35.8123   44.9383 H   0  0  0  0  0  0
   34.6284  -35.6401   43.1870 H   0  0  0  0  0  0
   36.5993  -34.1715   42.9267 H   0  0  0  0  0  0
   36.9607  -34.3474   44.6774 H   0  0  0  0  0  0
   37.2371  -36.7834   44.3766 H   0  0  0  0  0  0
   36.8730  -36.6093   42.6262 H   0  0  0  0  0  0
   39.2616  -36.7747   43.0347 H   0  0  0  0  0  0
   39.1860  -35.3413   44.1147 H   0  0  0  0  0  0
   38.8220  -35.1672   42.3644 H   0  0  0  0  0  0
   31.4114  -30.9764   44.1847 H   0  0  0  0  0  0
   32.9595  -33.1529   42.6093 H   0  0  0  0  0  0
   30.6620  -33.5876   42.0301 H   0  0  0  0  0  0
   30.3000  -31.8361   41.8636 H   0  0  0  0  0  0
   31.6882  -31.7172   39.8516 H   0  0  0  0  0  0
   32.1285  -33.4493   40.0315 H   0  0  0  0  0  0
   29.3689  -32.2579   39.4673 H   0  0  0  0  0  0
   30.3359  -33.3557   38.4249 H   0  0  0  0  0  0
   29.9888  -34.8692   40.8074 H   0  0  0  0  0  0
   28.3325  -36.2680   41.1799 H   0  0  0  0  0  0
   26.6714  -36.0430   40.2743 H   0  0  0  0  0  0
   27.8229  -33.1014   38.4655 H   0  0  0  0  0  0
   34.8033  -29.0653   41.7427 H   0  0  0  0  0  0
   36.5349  -30.8810   39.9479 H   0  0  0  0  0  0
   37.0981  -29.6977   41.1763 H   0  0  0  0  0  0
   37.1484  -32.3159   41.7132 H   0  0  0  0  0  0
   36.6417  -31.1345   42.9678 H   0  0  0  0  0  0
   34.7050  -32.4983   42.9981 H   0  0  0  0  0  0
   34.9133  -33.0000   41.2859 H   0  0  0  0  0  0
   33.5028  -27.5740   37.9242 H   0  0  0  0  0  0
   35.9711  -25.9297   37.4994 H   0  0  0  0  0  0
   34.3425  -25.3451   37.9817 H   0  0  0  0  0  0
   36.4955  -25.2818   39.6135 H   0  0  0  0  0  0
   34.8063  -25.4654   40.1962 H   0  0  0  0  0  0
   35.7577  -27.4175   41.1702 H   0  0  0  0  0  0
   36.9465  -27.6216   39.8391 H   0  0  0  0  0  0
   33.6869  -27.6313   35.6267 H   0  0  0  0  0  0
   35.5116  -29.8292   34.9125 H   0  0  0  0  0  0
   33.7990  -27.9872   33.2072 H   0  0  0  0  0  0
   34.7747  -29.3403   32.5410 H   0  0  0  0  0  0
   33.4452  -30.6397   34.5178 H   0  0  0  0  0  0
   32.2447  -29.3706   34.0998 H   0  0  0  0  0  0
   32.1438  -30.0905   31.8270 H   0  0  0  0  0  0
   33.5732  -31.1593   32.0292 H   0  0  0  0  0  0
   32.3010  -32.5353   33.6592 H   0  0  0  0  0  0
   30.8692  -31.4764   33.4244 H   0  0  0  0  0  0
   30.6776  -33.5357   32.1767 H   0  0  0  0  0  0
   32.2125  -33.1745   31.3164 H   0  0  0  0  0  0
   30.7807  -32.1156   31.0816 H   0  0  0  0  0  0
   37.2414  -29.8661   33.4201 H   0  0  0  0  0  0
   39.2009  -28.0550   34.3561 H   0  0  0  0  0  0
   39.7617  -30.1851   33.2805 H   0  0  0  0  0  0
   39.0678  -29.6294   31.7196 H   0  0  0  0  0  0
   40.9174  -27.8467   31.7599 H   0  0  0  0  0  0
   41.5592  -28.1530   34.1160 H   0  0  0  0  0  0
   42.9259  -28.4982   33.0027 H   0  0  0  0  0  0
   42.0260  -29.8521   33.7669 H   0  0  0  0  0  0
   40.7796  -29.8066   30.2682 H   0  0  0  0  0  0
   41.5707  -30.8128   31.5284 H   0  0  0  0  0  0
   42.4706  -29.4590   30.7643 H   0  0  0  0  0  0
   36.9607  -27.6237   31.6537 H   0  0  0  0  0  0
   38.4336  -25.3745   30.4119 H   0  0  0  0  0  0
   36.6726  -25.7059   30.2873 H   0  0  0  0  0  0
   35.7824  -25.5479   32.8429 H   0  0  0  0  0  0
   35.6988  -22.6869   33.1313 H   0  0  0  0  0  0
   35.0129  -24.9976   35.0389 H   0  0  0  0  0  0
   34.6887  -23.2885   35.4868 H   0  0  0  0  0  0
   33.0503  -23.0449   33.8747 H   0  0  0  0  0  0
   33.6338  -24.4489   32.9183 H   0  0  0  0  0  0
   31.0030  -23.4612   34.3892 H   0  0  0  0  0  0
   30.4640  -25.0711   35.2538 H   0  0  0  0  0  0
   37.9942  -25.0648   34.5254 H   0  0  0  0  0  0
   38.4052  -23.1276   36.6957 H   0  0  0  0  0  0
   40.2421  -24.7388   37.5583 H   0  0  0  0  0  0
   39.3854  -26.5154   35.2489 H   0  0  0  0  0  0
   40.9143  -25.5743   35.3082 H   0  0  0  0  0  0
   37.8949  -24.9082   38.3012 H   0  0  0  0  0  0
   38.7536  -26.4857   38.2774 H   0  0  0  0  0  0
   37.5816  -26.0815   36.9776 H   0  0  0  0  0  0
   41.2707  -27.9072   35.9370 H   0  0  0  0  0  0
   40.0677  -27.7506   37.2618 H   0  0  0  0  0  0
   41.5966  -26.8095   37.3211 H   0  0  0  0  0  0
   40.0201  -23.9148   33.6475 H   0  0  0  0  0  0
   41.4283  -22.0947   32.6896 H   0  0  0  0  0  0
   41.9331  -21.5978   34.3403 H   0  0  0  0  0  0
   44.1242  -21.6213   33.4208 H   0  0  0  0  0  0
   44.9321  -24.5183   33.1891 H   0  0  0  0  0  0
   46.0444  -22.1309   31.5621 H   0  0  0  0  0  0
   46.5821  -23.8339   31.3694 H   0  0  0  0  0  0
   44.6472  -24.4673   30.3183 H   0  0  0  0  0  0
   43.6877  -23.1252   31.0288 H   0  0  0  0  0  0
   44.2486  -22.9532   28.5448 H   0  0  0  0  0  0
   44.6491  -21.5263   29.5598 H   0  0  0  0  0  0
   47.0818  -22.2608   29.5545 H   0  0  0  0  0  0
   44.7343  -23.6606   27.1360 H   0  0  0  0  0  0
   46.1546  -24.0901   25.9409 H   0  0  0  0  0  0
   48.7086  -22.7853   28.1832 H   0  0  0  0  0  0
   45.7135  -24.8740   35.1052 H   0  0  0  0  0  0
   47.2829  -25.0078   36.6685 H   0  0  0  0  0  0
   49.7618  -25.2584   35.7739 H   0  0  0  0  0  0
   48.5355  -26.1070   34.7725 H   0  0  0  0  0  0
   50.0905  -24.7464   33.3264 H   0  0  0  0  0  0
   50.2669  -24.0286   36.2927 H   0  0  0  0  0  0
   50.2797  -21.2204   36.6525 H   0  0  0  0  0  0
   48.8338  -21.4394   38.6257 H   0  0  0  0  0  0
   49.9402  -22.6566   39.3474 H   0  0  0  0  0  0
   51.6619  -20.9790   39.6197 H   0  0  0  0  0  0
   50.6326  -19.7533   38.8044 H   0  0  0  0  0  0
   48.9031  -20.1324   40.6059 H   0  0  0  0  0  0
   50.1047  -21.1622   41.4558 H   0  0  0  0  0  0
   51.6526  -19.2934   41.6463 H   0  0  0  0  0  0
   50.5876  -18.2556   40.6386 H   0  0  0  0  0  0
   50.4184  -17.7038   42.9866 H   0  0  0  0  0  0
   49.9321  -19.3915   43.3636 H   0  0  0  0  0  0
   48.8671  -18.3537   42.3559 H   0  0  0  0  0  0
   51.4687  -23.9670   38.6683 H   0  0  0  0  0  0
   53.7197  -25.0080   38.4204 H   0  0  0  0  0  0
   54.0200  -24.2290   36.1985 H   0  0  0  0  0  0
   54.4803  -22.5992   36.7971 H   0  0  0  0  0  0
   56.5414  -23.3272   37.5672 H   0  0  0  0  0  0
   56.0430  -25.0527   37.5937 H   0  0  0  0  0  0
   56.2886  -25.3036   35.2705 H   0  0  0  0  0  0
   55.8620  -23.5911   34.9359 H   0  0  0  0  0  0
   58.4765  -23.5792   36.1959 H   0  0  0  0  0  0
   56.7603  -24.7955   33.2121 H   0  0  0  0  0  0
   58.3497  -24.6542   32.1710 H   0  0  0  0  0  0
   60.3261  -23.4114   34.9591 H   0  0  0  0  0  0
   55.7516  -24.6649   39.5284 H   0  0  0  0  0  0
   55.5408  -22.5418   41.5679 H   0  0  0  0  0  0
   54.5936  -25.3326   42.2583 H   0  0  0  0  0  0
   56.7604  -25.2654   43.4013 H   0  0  0  0  0  0
   55.3691  -25.2804   44.5374 H   0  0  0  0  0  0
   56.2612  -23.7519   44.2301 H   0  0  0  0  0  0
   53.1084  -23.3575   42.2887 H   0  0  0  0  0  0
   54.1229  -22.6340   43.5826 H   0  0  0  0  0  0
   53.2307  -24.1625   43.8899 H   0  0  0  0  0  0
   57.7349  -22.1337   42.5091 H   0  0  0  0  0  0
   59.1577  -24.7230   42.6987 H   0  0  0  0  0  0
   60.8313  -22.4003   41.5410 H   0  0  0  0  0  0
   62.0150  -24.2898   42.6529 H   0  0  0  0  0  0
   62.3500  -24.2142   40.8898 H   0  0  0  0  0  0
   61.1992  -25.4338   41.5339 H   0  0  0  0  0  0
   59.0186  -22.8856   39.9580 H   0  0  0  0  0  0
   59.4701  -24.6241   39.9774 H   0  0  0  0  0  0
   60.6209  -23.4045   39.3333 H   0  0  0  0  0  0
   61.7233  -24.1154   43.5361 H   0  0  0  0  0  0
   61.5365  -22.1055   45.6775 H   0  0  0  0  0  0
   65.0425  -23.0951   44.5103 H   0  0  0  0  0  0
   60.2191  -24.5040   46.3794 H   0  0  0  0  0  0
   61.4287  -23.0721   48.6652 H   0  0  0  0  0  0
   60.5532  -22.0472   47.4778 H   0  0  0  0  0  0
   62.3654  -25.7537   46.2771 H   0  0  0  0  0  0
   61.5894  -25.7854   47.8969 H   0  0  0  0  0  0
   63.0037  -24.7186   47.5992 H   0  0  0  0  0  0
   59.0873  -22.7352   49.3235 H   0  0  0  0  0  0
   59.4019  -24.4654   48.9571 H   0  0  0  0  0  0
   58.5263  -23.4406   47.7697 H   0  0  0  0  0  0
  1  2  1  0  0  0
  1137  1  0  0  0
  1138  1  0  0  0
  1139  1  0  0  0
  2  3  1  0  0  0
  2  5  1  0  0  0
  2140  1  0  0  0
  3  4  2  0  0  0
  3 10  1  0  0  0
  5  6  1  0  0  0
  5141  1  0  0  0
  5142  1  0  0  0
  6  7  1  0  0  0
  6143  1  0  0  0
  6144  1  0  0  0
  7  8  1  0  0  0
  7145  1  0  0  0
  7146  1  0  0  0
  8  9  1  0  0  0
  8147  1  0  0  0
  8148  1  0  0  0
  9149  1  0  0  0
  9150  1  0  0  0
  9151  1  0  0  0
 10 11  1  0  0  0
 10152  1  0  0  0
 11 12  1  0  0  0
 11 14  1  0  0  0
 11153  1  0  0  0
 12 13  2  0  0  0
 12 21  1  0  0  0
 14 15  1  0  0  0
 14154  1  0  0  0
 14155  1  0  0  0
 15 16  1  0  0  0
 15156  1  0  0  0
 15157  1  0  0  0
 16 17  1  0  0  0
 16158  1  0  0  0
 16159  1  0  0  0
 17 18  1  0  0  0
 17160  1  0  0  0
 18 19  1  0  0  0
 18 20  2  0  0  0
 19161  1  0  0  0
 19162  1  0  0  0
 20163  1  0  0  0
 21 22  1  0  0  0
 21 27  1  0  0  0
 22 23  1  0  0  0
 22 25  1  0  0  0
 22164  1  0  0  0
 23 24  2  0  0  0
 23 28  1  0  0  0
 25 26  1  0  0  0
 25165  1  0  0  0
 25166  1  0  0  0
 26 27  1  0  0  0
 26167  1  0  0  0
 26168  1  0  0  0
 27169  1  0  0  0
 27170  1  0  0  0
 28 29  1  0  0  0
 28 34  1  0  0  0
 29 30  1  0  0  0
 29 32  1  0  0  0
 29171  1  0  0  0
 30 31  2  0  0  0
 30 35  1  0  0  0
 32 33  1  0  0  0
 32172  1  0  0  0
 32173  1  0  0  0
 33 34  1  0  0  0
 33174  1  0  0  0
 33175  1  0  0  0
 34176  1  0  0  0
 34177  1  0  0  0
 35 36  1  0  0  0
 35178  1  0  0  0
 36 37  1  0  0  0
 36 39  1  0  0  0
 36179  1  0  0  0
 37 38  2  0  0  0
 37 44  1  0  0  0
 39 40  1  0  0  0
 39180  1  0  0  0
 39181  1  0  0  0
 40 41  1  0  0  0
 40182  1  0  0  0
 40183  1  0  0  0
 41 42  1  0  0  0
 41184  1  0  0  0
 41185  1  0  0  0
 42 43  1  0  0  0
 42186  1  0  0  0
 42187  1  0  0  0
 43188  1  0  0  0
 43189  1  0  0  0
 43190  1  0  0  0
 44 45  1  0  0  0
 44191  1  0  0  0
 45 46  1  0  0  0
 45 48  1  0  0  0
 45192  1  0  0  0
 46 47  2  0  0  0
 46 52  1  0  0  0
 48 49  1  0  0  0
 48193  1  0  0  0
 48194  1  0  0  0
 49 50  1  0  0  0
 49 51  1  0  0  0
 49195  1  0  0  0
 50196  1  0  0  0
 50197  1  0  0  0
 50198  1  0  0  0
 51199  1  0  0  0
 51200  1  0  0  0
 51201  1  0  0  0
 52 53  1  0  0  0
 52202  1  0  0  0
 53 54  1  0  0  0
 53203  1  0  0  0
 53204  1  0  0  0
 54 55  2  0  0  0
 54 56  1  0  0  0
 56 57  1  0  0  0
 56205  1  0  0  0
 57 58  1  0  0  0
 57 60  1  0  0  0
 57206  1  0  0  0
 58 59  2  0  0  0
 58 65  1  0  0  0
 60 61  1  0  0  0
 60207  1  0  0  0
 60208  1  0  0  0
 61 62  1  0  0  0
 61209  1  0  0  0
 61210  1  0  0  0
 62 63  2  0  0  0
 62 64  1  0  0  0
 64211  1  0  0  0
 64212  1  0  0  0
 65 66  1  0  0  0
 65213  1  0  0  0
 66 67  1  0  0  0
 66 69  1  0  0  0
 66214  1  0  0  0
 67 68  2  0  0  0
 67 73  1  0  0  0
 69 70  1  0  0  0
 69 71  1  0  0  0
 69215  1  0  0  0
 70 72  1  0  0  0
 70216  1  0  0  0
 70217  1  0  0  0
 71218  1  0  0  0
 71219  1  0  0  0
 71220  1  0  0  0
 72221  1  0  0  0
 72222  1  0  0  0
 72223  1  0  0  0
 73 74  1  0  0  0
 73224  1  0  0  0
 74 75  1  0  0  0
 74225  1  0  0  0
 74226  1  0  0  0
 75 76  2  0  0  0
 75 77  1  0  0  0
 77 78  1  0  0  0
 77227  1  0  0  0
 78 79  1  0  0  0
 78 81  1  0  0  0
 78228  1  0  0  0
 79 80  2  0  0  0
 79 88  1  0  0  0
 81 82  1  0  0  0
 81229  1  0  0  0
 81230  1  0  0  0
 82 83  1  0  0  0
 82231  1  0  0  0
 82232  1  0  0  0
 83 84  1  0  0  0
 83233  1  0  0  0
 83234  1  0  0  0
 84 85  1  0  0  0
 84235  1  0  0  0
 85 86  1  0  0  0
 85 87  2  0  0  0
 86236  1  0  0  0
 86237  1  0  0  0
 87238  1  0  0  0
 88 89  1  0  0  0
 88239  1  0  0  0
 89 90  1  0  0  0
 89 92  1  0  0  0
 89240  1  0  0  0
 90 91  2  0  0  0
 90 94  1  0  0  0
 92 93  1  0  0  0
 92241  1  0  0  0
 92242  1  0  0  0
 93243  1  0  0  0
 94 95  1  0  0  0
 94244  1  0  0  0
 95 96  1  0  0  0
 95 98  1  0  0  0
 95245  1  0  0  0
 96 97  2  0  0  0
 96103  1  0  0  0
 98 99  1  0  0  0
 98246  1  0  0  0
 98247  1  0  0  0
 99100  1  0  0  0
 99248  1  0  0  0
 99249  1  0  0  0
100101  1  0  0  0
100250  1  0  0  0
100251  1  0  0  0
101102  1  0  0  0
101252  1  0  0  0
101253  1  0  0  0
102254  1  0  0  0
102255  1  0  0  0
102256  1  0  0  0
103104  1  0  0  0
103257  1  0  0  0
104105  1  0  0  0
104107  1  0  0  0
104258  1  0  0  0
105106  2  0  0  0
105114  1  0  0  0
107108  1  0  0  0
107259  1  0  0  0
107260  1  0  0  0
108109  1  0  0  0
108261  1  0  0  0
108262  1  0  0  0
109110  1  0  0  0
109263  1  0  0  0
109264  1  0  0  0
110111  1  0  0  0
110265  1  0  0  0
111112  1  0  0  0
111113  2  0  0  0
112266  1  0  0  0
112267  1  0  0  0
113268  1  0  0  0
114115  1  0  0  0
114269  1  0  0  0
115116  1  0  0  0
115118  1  0  0  0
115270  1  0  0  0
116117  2  0  0  0
116121  1  0  0  0
118119  1  0  0  0
118120  1  0  0  0
118271  1  0  0  0
119272  1  0  0  0
119273  1  0  0  0
119274  1  0  0  0
120275  1  0  0  0
120276  1  0  0  0
120277  1  0  0  0
121122  1  0  0  0
121278  1  0  0  0
122123  1  0  0  0
122125  1  0  0  0
122279  1  0  0  0
123124  2  0  0  0
123128  1  0  0  0
125126  1  0  0  0
125127  1  0  0  0
125280  1  0  0  0
126281  1  0  0  0
126282  1  0  0  0
126283  1  0  0  0
127284  1  0  0  0
127285  1  0  0  0
127286  1  0  0  0
128129  1  0  0  0
128287  1  0  0  0
129130  1  0  0  0
129132  1  0  0  0
129288  1  0  0  0
130131  1  0  0  0
130136  2  0  0  0
131289  1  0  0  0
132133  1  0  0  0
132134  1  0  0  0
132290  1  0  0  0
133135  1  0  0  0
133291  1  0  0  0
133292  1  0  0  0
134293  1  0  0  0
134294  1  0  0  0
134295  1  0  0  0
135296  1  0  0  0
135297  1  0  0  0
135298  1  0  0  0
M  CHG  4   1   1   9   1  43   1 102   1
M  END
> <s_m_source_file>
../3kl8_ligand.sdf

> <i_m_source_file_index>
1

> <s_epik_input>
W05IMytdW0NIMl1bQ0gyXVtDSDJdW0NIMl1bQ0BIXShbTkgzK10pQyg9TylbTkhdW0NAQEhdKFtDSDJdW0NIMl1bQ0gyXVtOSF0vQyhbTkgyXSk9TlxbSF0pQyg9TylOMVtDQEBIXShbQ0gyXVtDSDJdW0NIMl0xKUMoPU8pTjJbQ0BASF0oW0NIMl1bQ0gyXVtDSDJdMilDKD1PKVtOSF1bQ0BASF0oW0NIMl1bQ0gyXVtDSDJdW0NIMl1bTkgzK10pQyg9TylbTkhdW0NAQEhdKFtDSDJdW0NIXShbQ0gzXSlbQ0gzXSlDKD1PKVtOSF1bQ0gyXUMoPU8pW05IXVtDQEBIXShbQ0gyXVtDSDJdQyg9TylbTkgyXSlDKD1PKVtOSF1bQ0BASF0oW0NAQEhdKFtDSDNdKVtDSDJdW0NIM10pQyg9TylbTkhdW0NIMl1DKD1PKVtOSF1bQ0BASF0oW0NIMl1bQ0gyXVtDSDJdW05IXS9DKFtOSDJdKT1OXFtIXSlDKD1PKVtOSF1bQ0BASF0oW0NIMl1bT0hdKUMoPU8pW05IXVtDQEBIXShbQ0gyXVtDSDJdW0NIMl1bQ0gyXVtOSDMrXSlDKD1PKVtOSF1bQ0BASF0oW0NIMl1bQ0gyXVtDSDJdW05IXS9DKFtOSDJdKT1OXFtIXSlDKD1PKVtOSF1bQ0BASF0oW0NIXShbQ0gzXSlbQ0gzXSlDKD1PKVtOSF1bQ0BASF0oW0NIXShbQ0gzXSlbQ0gzXSlDKD1PKVtOSF1bQ0BIXShDKD1PKVtPSF0pW0NAQEhdKFtDSDNdKVtDSDJdW0NIM10=

> <s_epik_cmdline>
J2VwaWtfYXBwJywgJy1pbWFlJywgJ2xpZ2FuZF9wcm8ubWFlJywgJy1vbWFlJywgJ2xpZ2FuZF9wcmVwLm1hZScsICctbXMnLCAnMScsICctcGgnLCAnNycsICctcGh0JywgJzAuNScsICctbnQn

> <s_epik_pKa_notes>
Molecule size exceeds maximum supported for generating protonation states

> <s_epik_Chemistry_Notes>
This compound has an imine and may undergo hydrolysis.

$$$$
