3km4_ligand
                    3D
 Schrodinger Suite 2020-3.
 82 84  0  0  1  0            999 V2000
   28.6930   -7.8480  -14.3900 C   0  0  1  0  0  0
   27.7630   -3.8300  -12.9020 N   0  0  0  0  0  0
   28.1280   -7.8550  -15.7090 O   0  0  0  0  0  0
   33.4010   -9.2330  -12.5040 Cl  0  0  0  0  0  0
   30.1860   -8.0800  -14.5970 C   0  0  0  0  0  0
   24.6580   -7.8770   -7.3670 N   0  3  0  0  0  0
   25.8140  -10.9840  -10.6280 O   0  0  0  0  0  0
   30.7920   -7.8190  -15.8350 C   0  0  0  0  0  0
   26.2720   -8.7660  -10.6730 N   0  0  0  0  0  0
   28.2170   -1.6900  -13.4900 O   0  0  0  0  0  0
   30.9840   -8.5220  -13.5650 C   0  0  0  0  0  0
   26.1450   -9.9980  -12.5940 N   0  0  0  0  0  0
   32.1490   -8.0400  -16.1270 C   0  0  0  0  0  0
   32.3640   -8.6870  -13.8460 C   0  0  0  0  0  0
   32.9720   -8.4880  -15.0890 C   0  0  0  0  0  0
   28.3820   -6.5660  -13.6210 C   0  0  0  0  0  0
   29.3960   -5.4510  -13.5840 C   0  0  0  0  0  0
   29.1030   -4.3230  -12.5960 C   0  0  0  0  0  0
   27.3940   -2.5930  -13.2740 C   0  0  0  0  0  0
   25.9300   -2.4080  -13.4990 C   0  0  0  0  0  0
   26.2270   -8.6060   -9.2100 C   0  0  2  0  0  0
   24.7950   -8.2240   -8.7950 C   0  0  0  0  0  0
   27.3650   -7.6370   -8.8080 C   0  0  0  0  0  0
   28.7680   -8.0460   -9.2500 C   0  0  0  0  0  0
   29.7510   -6.9060   -9.0760 C   0  0  0  0  0  0
   31.1270   -7.4370   -9.4480 C   0  0  0  0  0  0
   31.5740   -8.5900   -8.5340 C   0  0  0  0  0  0
   29.2470   -9.2660   -8.4250 C   0  0  0  0  0  0
   30.6340   -9.7380   -8.8660 C   0  0  0  0  0  0
   26.0760   -9.9430  -11.2760 C   0  0  0  0  0  0
   27.5230  -11.5740  -13.4270 C   0  0  0  0  0  0
   28.2460  -10.4420  -14.2590 C   0  0  0  0  0  0
   28.0430   -9.0360  -13.5950 C   0  0  2  0  0  0
   26.5080   -8.8920  -13.5100 C   0  0  0  0  0  0
   26.0450  -11.2210  -13.3590 C   0  0  0  0  0  0
   25.1310   -8.8900   -6.4150 C   0  0  0  0  0  0
   26.8996   -4.5086  -12.8389 H   0  0  0  0  0  0
   28.4420   -7.1011  -16.4459 H   0  0  0  0  0  0
   25.2331   -6.9636   -7.1548 H   0  0  0  0  0  0
   23.5973   -7.7054   -7.1315 H   0  0  0  0  0  0
   30.1641   -7.4150  -16.6291 H   0  0  0  0  0  0
   26.4733   -7.8961  -11.3155 H   0  0  0  0  0  0
   30.5736   -8.7351  -12.5779 H   0  0  0  0  0  0
   32.5460   -7.8682  -17.1275 H   0  0  0  0  0  0
   34.0353   -8.6730  -15.2416 H   0  0  0  0  0  0
   27.4812   -6.0954  -14.0418 H   0  0  0  0  0  0
   28.2092   -6.8066  -12.5616 H   0  0  0  0  0  0
   30.3789   -5.8584  -13.3048 H   0  0  0  0  0  0
   29.4620   -4.9823  -14.5769 H   0  0  0  0  0  0
   29.8297   -3.5052  -12.7109 H   0  0  0  0  0  0
   29.1296   -4.6943  -11.5609 H   0  0  0  0  0  0
   25.3993   -3.3366  -13.2419 H   0  0  0  0  0  0
   25.7496   -2.1632  -14.5561 H   0  0  0  0  0  0
   25.5623   -1.5879  -12.8647 H   0  0  0  0  0  0
   26.4258   -9.5570   -8.6942 H   0  0  0  0  0  0
   24.1489   -9.0835   -9.0271 H   0  0  0  0  0  0
   24.4962   -7.3636   -9.4117 H   0  0  0  0  0  0
   27.1778   -6.6477   -9.2510 H   0  0  0  0  0  0
   27.4003   -7.5473   -7.7122 H   0  0  0  0  0  0
   28.7241   -8.2906  -10.3216 H   0  0  0  0  0  0
   29.4667   -6.0728   -9.7356 H   0  0  0  0  0  0
   29.7374   -6.5665   -8.0298 H   0  0  0  0  0  0
   31.1087   -7.8099  -10.4827 H   0  0  0  0  0  0
   31.8675   -6.6281   -9.3629 H   0  0  0  0  0  0
   32.6215   -8.8456   -8.7518 H   0  0  0  0  0  0
   31.4831   -8.2806   -7.4823 H   0  0  0  0  0  0
   29.2967   -8.9923   -7.3608 H   0  0  0  0  0  0
   28.5400  -10.0983   -8.5569 H   0  0  0  0  0  0
   30.6669   -9.9378   -9.9472 H   0  0  0  0  0  0
   30.9467  -10.6385   -8.3171 H   0  0  0  0  0  0
   27.6633  -12.5433  -13.9277 H   0  0  0  0  0  0
   27.9539  -11.6178  -12.4159 H   0  0  0  0  0  0
   29.3240  -10.6552  -14.3086 H   0  0  0  0  0  0
   27.8307  -10.4133  -15.2772 H   0  0  0  0  0  0
   28.5315   -8.9830  -12.6108 H   0  0  0  0  0  0
   26.0071   -9.0386  -14.4783 H   0  0  0  0  0  0
   26.1885   -7.9343  -13.0732 H   0  0  0  0  0  0
   25.4270  -11.9471  -12.8104 H   0  0  0  0  0  0
   25.5815  -11.0072  -14.3334 H   0  0  0  0  0  0
   24.9807   -8.5263   -5.3878 H   0  0  0  0  0  0
   26.2012   -9.0803   -6.5837 H   0  0  0  0  0  0
   24.5654   -9.8222   -6.5604 H   0  0  0  0  0  0
  1  3  1  0  0  0
  1  5  1  0  0  0
  1 16  1  0  0  0
  1 33  1  0  0  0
  2 18  1  0  0  0
  2 19  1  0  0  0
  2 37  1  0  0  0
  3 38  1  0  0  0
  4 14  1  0  0  0
  5  8  2  0  0  0
  5 11  1  0  0  0
  6 22  1  0  0  0
  6 36  1  0  0  0
  6 39  1  0  0  0
  6 40  1  0  0  0
  7 30  2  0  0  0
  8 13  1  0  0  0
  8 41  1  0  0  0
  9 21  1  0  0  0
  9 30  1  0  0  0
  9 42  1  0  0  0
 10 19  2  0  0  0
 11 14  2  0  0  0
 11 43  1  0  0  0
 12 30  1  0  0  0
 12 34  1  0  0  0
 12 35  1  0  0  0
 13 15  2  0  0  0
 13 44  1  0  0  0
 14 15  1  0  0  0
 15 45  1  0  0  0
 16 17  1  0  0  0
 16 46  1  0  0  0
 16 47  1  0  0  0
 17 18  1  0  0  0
 17 48  1  0  0  0
 17 49  1  0  0  0
 18 50  1  0  0  0
 18 51  1  0  0  0
 19 20  1  0  0  0
 20 52  1  0  0  0
 20 53  1  0  0  0
 20 54  1  0  0  0
 21 22  1  0  0  0
 21 23  1  0  0  0
 21 55  1  0  0  0
 22 56  1  0  0  0
 22 57  1  0  0  0
 23 24  1  0  0  0
 23 58  1  0  0  0
 23 59  1  0  0  0
 24 25  1  0  0  0
 24 28  1  0  0  0
 24 60  1  0  0  0
 25 26  1  0  0  0
 25 61  1  0  0  0
 25 62  1  0  0  0
 26 27  1  0  0  0
 26 63  1  0  0  0
 26 64  1  0  0  0
 27 29  1  0  0  0
 27 65  1  0  0  0
 27 66  1  0  0  0
 28 29  1  0  0  0
 28 67  1  0  0  0
 28 68  1  0  0  0
 29 69  1  0  0  0
 29 70  1  0  0  0
 31 32  1  0  0  0
 31 35  1  0  0  0
 31 71  1  0  0  0
 31 72  1  0  0  0
 32 33  1  0  0  0
 32 73  1  0  0  0
 32 74  1  0  0  0
 33 34  1  0  0  0
 33 75  1  0  0  0
 34 76  1  0  0  0
 34 77  1  0  0  0
 35 78  1  0  0  0
 35 79  1  0  0  0
 36 80  1  0  0  0
 36 81  1  0  0  0
 36 82  1  0  0  0
M  CHG  1   6   1
M  END
> <s_m_source_file>
../3km4_ligand.sdf

> <i_m_source_file_index>
1

> <s_epik_input>
Q2xjKFtjSF0xKVtjSF1bY0hdW2NIXWMxW0NAXShbT0hdKShbQ0gyXVtDSDJdW0NIMl1bTkhdQyg9TylbQ0gzXSlbQ0BIXShbQ0gyXVtDSDJdW0NIMl0yKVtDSDJdTjJDKD1PKVtOSF1bQ0BIXShbQ0gyXVtOSDIrXVtDSDNdKVtDSDJdW0NIXTNbQ0gyXVtDSDJdW0NIMl1bQ0gyXVtDSDJdMw==

> <s_epik_cmdline>
J2VwaWtfYXBwJywgJy1pbWFlJywgJ2xpZ2FuZF9wcm8ubWFlJywgJy1vbWFlJywgJ2xpZ2FuZF9wcmVwLm1hZScsICctbXMnLCAnMScsICctcGgnLCAnNycsICctcGh0JywgJzAuNScsICctbnQn

> <r_lp_tautomer_probability>
1

> <r_epik_Ionization_Penalty>
  0.0008

> <r_epik_Ionization_Penalty_Charging>
  0.0007

> <r_epik_Ionization_Penalty_Neutral>
  0.0000

> <r_epik_State_Penalty>
 -0.0000

> <r_epik_Charging_Adjusted_Penalty>
0.000745544300522662

> <i_epik_Tot_Q>
1

> <i_epik_Tot_abs_Q>
1

$$$$
