3kmm_ligand
                    3D
 Schrodinger Suite 2020-3.
 64 67  0  0  1  0            999 V2000
   24.8710   35.3000   82.4700 N   0  0  0  0  0  0
   25.8730   35.9240   83.1370 C   0  0  0  0  0  0
   27.1930   35.6420   82.6750 N   0  0  0  0  0  0
   25.6860   36.7670   84.1810 N   0  0  0  0  0  0
   24.4200   36.9640   84.5600 C   0  0  0  0  0  0
   25.2740   38.6480   86.1870 C   0  0  0  0  0  0
   24.1720   37.8440   85.6500 N   0  0  0  0  0  0
   22.9020   37.9450   86.2640 C   0  0  0  0  0  0
   22.7200   38.6950   87.2330 O   0  0  0  0  0  0
   21.8620   37.1490   85.7430 N   0  0  0  0  0  0
   21.9420   36.5920   84.3710 C   0  0  0  0  0  0
   23.3570   36.3450   83.9290 C   0  0  0  0  0  0
   23.6250   35.5260   82.8630 C   0  0  0  0  0  0
   28.3770   36.3620   83.1090 C   0  0  0  0  0  0
   29.6040   35.9020   82.6210 C   0  0  0  0  0  0
   30.7690   36.5430   82.9870 C   0  0  0  0  0  0
   30.7060   37.6430   83.8320 C   0  0  0  0  0  0
   31.8970   38.2750   84.1720 O   0  0  0  0  0  0
   29.4840   38.1190   84.3330 C   0  0  0  0  0  0
   28.3000   37.4720   83.9650 C   0  0  0  0  0  0
   31.8770   38.8400   85.4830 C   0  0  0  0  0  0
   33.2140   38.5890   86.2130 C   0  0  0  0  0  0
   34.2870   39.4590   85.6670 N   0  3  0  0  0  0
   34.9180   38.8420   84.4790 C   0  0  0  0  0  0
   35.9220   39.8150   83.8420 C   0  0  0  0  0  0
   35.3080   39.7540   86.6990 C   0  0  0  0  0  0
   34.6840   40.5110   87.8810 C   0  0  0  0  0  0
   20.5710   37.1540   86.4140 C   0  0  0  0  0  0
   19.6660   38.2010   86.1740 C   0  0  0  0  0  0
   20.1010   39.5240   85.1140 Cl  0  0  0  0  0  0
   18.4210   38.1990   86.8240 C   0  0  0  0  0  0
   18.0990   37.1650   87.7070 C   0  0  0  0  0  0
   18.9990   36.1250   87.9500 C   0  0  0  0  0  0
   20.2400   36.1160   87.3030 C   0  0  0  0  0  0
   21.3570   34.8210   87.5950 Cl  0  0  0  0  0  0
   27.3598   34.8362   81.9450 H   0  0  0  0  0  0
   26.1862   38.4563   85.6030 H   0  0  0  0  0  0
   25.4479   38.3759   87.2385 H   0  0  0  0  0  0
   25.0147   39.7151   86.1224 H   0  0  0  0  0  0
   21.4040   35.6333   84.3326 H   0  0  0  0  0  0
   21.4850   37.2976   83.6616 H   0  0  0  0  0  0
   22.8004   35.0529   82.3298 H   0  0  0  0  0  0
   29.6396   35.0405   81.9542 H   0  0  0  0  0  0
   31.7309   36.1891   82.6161 H   0  0  0  0  0  0
   29.4584   38.9810   84.9996 H   0  0  0  0  0  0
   27.3367   37.8226   84.3354 H   0  0  0  0  0  0
   31.7117   39.9252   85.4121 H   0  0  0  0  0  0
   31.0646   38.3828   86.0670 H   0  0  0  0  0  0
   33.0932   38.8065   87.2845 H   0  0  0  0  0  0
   33.5108   37.5377   86.0835 H   0  0  0  0  0  0
   33.8259   40.4082   85.3564 H   0  0  0  0  0  0
   35.4474   37.9257   84.7793 H   0  0  0  0  0  0
   34.1424   38.5919   83.7401 H   0  0  0  0  0  0
   36.3821   39.3428   82.9615 H   0  0  0  0  0  0
   36.7039   40.0663   84.5738 H   0  0  0  0  0  0
   35.3989   40.7325   83.5347 H   0  0  0  0  0  0
   35.7388   38.8117   87.0685 H   0  0  0  0  0  0
   36.1039   40.3740   86.2607 H   0  0  0  0  0  0
   35.4590   40.7189   88.6334 H   0  0  0  0  0  0
   33.8905   39.8969   88.3319 H   0  0  0  0  0  0
   34.2557   41.4592   87.5241 H   0  0  0  0  0  0
   17.7075   39.0023   86.6401 H   0  0  0  0  0  0
   17.1333   37.1701   88.2125 H   0  0  0  0  0  0
   18.7360   35.3238   88.6406 H   0  0  0  0  0  0
  1  2  2  0  0  0
  1 13  1  0  0  0
  2  3  1  0  0  0
  2  4  1  0  0  0
  3 14  1  0  0  0
  3 36  1  0  0  0
  4  5  2  0  0  0
  5  7  1  0  0  0
  5 12  1  0  0  0
  6  7  1  0  0  0
  6 37  1  0  0  0
  6 38  1  0  0  0
  6 39  1  0  0  0
  7  8  1  0  0  0
  8  9  2  0  0  0
  8 10  1  0  0  0
 10 11  1  0  0  0
 10 28  1  0  0  0
 11 12  1  0  0  0
 11 40  1  0  0  0
 11 41  1  0  0  0
 12 13  2  0  0  0
 13 42  1  0  0  0
 14 15  2  0  0  0
 14 20  1  0  0  0
 15 16  1  0  0  0
 15 43  1  0  0  0
 16 17  2  0  0  0
 16 44  1  0  0  0
 17 18  1  0  0  0
 17 19  1  0  0  0
 18 21  1  0  0  0
 19 20  2  0  0  0
 19 45  1  0  0  0
 20 46  1  0  0  0
 21 22  1  0  0  0
 21 47  1  0  0  0
 21 48  1  0  0  0
 22 23  1  0  0  0
 22 49  1  0  0  0
 22 50  1  0  0  0
 23 24  1  0  0  0
 23 26  1  0  0  0
 23 51  1  0  0  0
 24 25  1  0  0  0
 24 52  1  0  0  0
 24 53  1  0  0  0
 25 54  1  0  0  0
 25 55  1  0  0  0
 25 56  1  0  0  0
 26 27  1  0  0  0
 26 57  1  0  0  0
 26 58  1  0  0  0
 27 59  1  0  0  0
 27 60  1  0  0  0
 27 61  1  0  0  0
 28 29  2  0  0  0
 28 34  1  0  0  0
 29 30  1  0  0  0
 29 31  1  0  0  0
 31 32  2  0  0  0
 31 62  1  0  0  0
 32 33  1  0  0  0
 32 63  1  0  0  0
 33 34  2  0  0  0
 33 64  1  0  0  0
 34 35  1  0  0  0
M  CHG  1  23   1
M  END
> <s_m_source_file>
../3kmm_ligand.sdf

> <i_m_source_file_index>
1

> <s_epik_input>
Q2xjMVtjSF1bY0hdW2NIXWMoQ2wpYzFOKEMoPU8pTjJbQ0gzXSlbQ0gyXWMoYzIzKVtjSF1uYyhuMylbTkhdYzRbY0hdW2NIXWMoW2NIXVtjSF00KU9bQ0gyXVtDSDJdW05IK10oW0NIMl1bQ0gzXSlbQ0gyXVtDSDNd

> <s_epik_cmdline>
J2VwaWtfYXBwJywgJy1pbWFlJywgJ2xpZ2FuZF9wcm8ubWFlJywgJy1vbWFlJywgJ2xpZ2FuZF9wcmVwLm1hZScsICctbXMnLCAnMScsICctcGgnLCAnNycsICctcGh0JywgJzAuNScsICctbnQn

> <r_lp_tautomer_probability>
0.999999987636

> <r_epik_Ionization_Penalty>
  0.0306

> <r_epik_Ionization_Penalty_Charging>
  0.0248

> <r_epik_Ionization_Penalty_Neutral>
  0.0058

> <r_epik_State_Penalty>
  0.0202

> <r_epik_Charging_Adjusted_Penalty>
0.0449633694247609

> <i_epik_Tot_Q>
1

> <i_epik_Tot_abs_Q>
1

$$$$
