3kmx_ligand
                    3D
 Schrodinger Suite 2020-3.
 35 35  0  0  1  0            999 V2000
   24.4870   11.2810   20.2330 C   0  0  0  0  0  0
   22.4530    8.8070   24.6810 N   0  0  0  0  0  0
   25.6050   11.8530   19.6080 O   0  0  0  0  0  0
   20.4300   10.5390   23.6510 S   0  0  0  0  0  0
   23.1830   13.4880   19.3380 Cl  0  0  0  0  0  0
   24.5610   10.0300   20.9290 C   0  0  0  0  0  0
   21.8010   10.8630   25.7860 N   0  3  0  0  0  0
   23.4070    9.4880   21.5660 C   0  0  0  0  0  0
   22.1650   10.1840   21.5110 C   0  0  0  0  0  0
   22.0840   11.4300   20.8220 C   0  0  0  0  0  0
   23.2400   11.9680   20.1880 C   0  0  0  0  0  0
   26.7140   10.9650   19.4430 C   0  0  0  0  0  0
   27.8650   11.4180   20.3380 C   0  0  0  0  0  0
   28.6880   10.2350   20.8140 C   0  0  0  0  0  0
   29.5140   10.5600   22.0620 C   0  0  0  0  0  0
   20.9360    9.5880   22.1700 C   0  0  0  0  0  0
   21.6760    9.9830   24.7750 C   0  0  0  0  0  0
   22.3113    8.1204   23.8333 H   0  0  0  0  0  0
   23.1998    8.5778   25.4555 H   0  0  0  0  0  0
   25.5066    9.4894   20.9714 H   0  0  0  0  0  0
   22.5336   10.6811   26.5861 H   0  0  0  0  0  0
   23.4748    8.5384   22.0967 H   0  0  0  0  0  0
   21.1381   11.9700   20.7807 H   0  0  0  0  0  0
   26.4116    9.9449   19.7222 H   0  0  0  0  0  0
   27.0397   10.9763   18.3924 H   0  0  0  0  0  0
   28.5211   12.0984   19.7753 H   0  0  0  0  0  0
   27.4616   11.9415   21.2173 H   0  0  0  0  0  0
   28.0184    9.3976   21.0595 H   0  0  0  0  0  0
   29.3828    9.9278   20.0184 H   0  0  0  0  0  0
   30.0888    9.6717   22.3628 H   0  0  0  0  0  0
   28.8410   10.8557   22.8803 H   0  0  0  0  0  0
   30.2054   11.3860   21.8392 H   0  0  0  0  0  0
   21.1677    8.5527   22.4606 H   0  0  0  0  0  0
   20.1164    9.5882   21.4364 H   0  0  0  0  0  0
   21.1705   11.7640   25.8120 H   0  0  0  0  0  0
  1  3  1  0  0  0
  1  6  2  0  0  0
  1 11  1  0  0  0
  2 17  1  0  0  0
  2 18  1  0  0  0
  2 19  1  0  0  0
  3 12  1  0  0  0
  4 16  1  0  0  0
  4 17  1  0  0  0
  5 11  1  0  0  0
  6  8  1  0  0  0
  6 20  1  0  0  0
  7 17  2  0  0  0
  7 21  1  0  0  0
  7 35  1  0  0  0
  8  9  2  0  0  0
  8 22  1  0  0  0
  9 10  1  0  0  0
  9 16  1  0  0  0
 10 11  2  0  0  0
 10 23  1  0  0  0
 12 13  1  0  0  0
 12 24  1  0  0  0
 12 25  1  0  0  0
 13 14  1  0  0  0
 13 26  1  0  0  0
 13 27  1  0  0  0
 14 15  1  0  0  0
 14 28  1  0  0  0
 14 29  1  0  0  0
 15 30  1  0  0  0
 15 31  1  0  0  0
 15 32  1  0  0  0
 16 33  1  0  0  0
 16 34  1  0  0  0
M  CHG  1   7   1
M  END
> <s_m_source_file>
../3kmx_ligand.sdf

> <i_m_source_file_index>
1

> <s_epik_input>
W0NIM11bQ0gyXVtDSDJdW0NIMl1PYzFbY0hdW2NIXWMoW2NIXWMxQ2wpW0NIMl1TQygvW05IMl0pPU5cW0hd

> <s_epik_cmdline>
J2VwaWtfYXBwJywgJy1pbWFlJywgJ2xpZ2FuZF9wcm8ubWFlJywgJy1vbWFlJywgJ2xpZ2FuZF9wcmVwLm1hZScsICctbXMnLCAnMScsICctcGgnLCAnNycsICctcGh0JywgJzAuNScsICctbnQn

> <r_lp_tautomer_probability>
1

> <r_epik_Ionization_Penalty>
  0.0130

> <r_epik_Ionization_Penalty_Charging>
  0.0130

> <r_epik_Ionization_Penalty_Neutral>
  0.0000

> <r_epik_State_Penalty>
  0.0200

> <r_epik_Charging_Adjusted_Penalty>
0.0330650612442442

> <i_epik_Tot_Q>
1

> <i_epik_Tot_abs_Q>
1

> <s_epik_Chemistry_Notes>
This compound has an imine and may undergo hydrolysis.

$$$$
