3kn0_ligand
                    3D
 Schrodinger Suite 2020-3.
 49 51  0  0  1  0            999 V2000
   22.0640   13.0650   24.7090 C   0  0  0  0  0  0
   22.8530   11.0020   25.6470 N   0  3  0  0  0  0
   30.0320   10.5220   22.2070 O   0  0  0  0  0  0
   22.7520   12.3500   25.7180 C   0  0  0  0  0  0
   22.4330    8.9260   24.5940 N   0  0  0  0  0  0
   22.2990   10.2510   24.6050 C   0  0  0  0  0  0
   27.1590   11.0080   20.5200 N   0  3  1  0  0  0
   21.5950   10.9310   23.5650 C   0  0  0  0  0  0
   21.4890   12.3430   23.6370 C   0  0  0  0  0  0
   20.9650   10.1850   22.3940 C   0  0  0  0  0  0
   22.0360    9.5190   21.4740 C   0  0  0  0  0  0
   22.7890   10.5310   20.6120 C   0  0  0  0  0  0
   24.1710   10.3260   20.3520 C   0  0  0  0  0  0
   24.8960   11.2560   19.5540 C   0  0  0  0  0  0
   24.2390   12.3980   19.0120 C   0  0  0  0  0  0
   22.8550   12.6080   19.2690 C   0  0  0  0  0  0
   22.1300   11.6750   20.0680 C   0  0  0  0  0  0
   26.3650   11.0320   19.2800 C   0  0  0  0  0  0
   29.0830    9.8570   21.4970 C   0  0  0  0  0  0
   28.4780   10.4220   20.2360 C   0  0  0  0  0  0
   28.7620    8.6750   22.0390 C   0  0  0  0  0  0
   29.5820    8.5550   23.2180 C   0  0  0  0  0  0
   30.3080    9.6790   23.2590 C   0  0  0  0  0  0
   27.3070   12.3730   21.0600 C   0  0  0  0  0  0
   21.9788   14.1506   24.7569 H   0  0  0  0  0  0
   23.2015   12.8858   26.5540 H   0  0  0  0  0  0
   22.9791    8.4217   25.4048 H   0  0  0  0  0  0
   21.9976    8.3359   23.7741 H   0  0  0  0  0  0
   26.6440   10.3935   21.2730 H   0  0  0  0  0  0
   20.9556   12.8811   22.8534 H   0  0  0  0  0  0
   20.3037    9.3936   22.7766 H   0  0  0  0  0  0
   20.3799   10.8883   21.7833 H   0  0  0  0  0  0
   22.7750    8.9909   22.0945 H   0  0  0  0  0  0
   21.5451    8.8026   20.7989 H   0  0  0  0  0  0
   24.6778    9.4538   20.7649 H   0  0  0  0  0  0
   24.7952   13.1095   18.4017 H   0  0  0  0  0  0
   22.3496   13.4809   18.8557 H   0  0  0  0  0  0
   21.0699   11.8358   20.2639 H   0  0  0  0  0  0
   26.7219   11.8459   18.6318 H   0  0  0  0  0  0
   26.4744   10.0711   18.7559 H   0  0  0  0  0  0
   28.3690    9.6144   19.4972 H   0  0  0  0  0  0
   29.1455   11.1986   19.8345 H   0  0  0  0  0  0
   28.0334    7.9549   21.6665 H   0  0  0  0  0  0
   29.6060    7.7260   23.9253 H   0  0  0  0  0  0
   31.0365    9.9016   24.0387 H   0  0  0  0  0  0
   26.3126   12.7955   21.2664 H   0  0  0  0  0  0
   27.8279   13.0037   20.3246 H   0  0  0  0  0  0
   27.8908   12.3374   21.9916 H   0  0  0  0  0  0
   23.3898   10.4486   26.4316 H   0  0  0  0  0  0
  1  4  2  0  0  0
  1  9  1  0  0  0
  1 25  1  0  0  0
  2  4  1  0  0  0
  2  6  2  0  0  0
  2 49  1  0  0  0
  3 19  1  0  0  0
  3 23  1  0  0  0
  4 26  1  0  0  0
  5  6  1  0  0  0
  5 27  1  0  0  0
  5 28  1  0  0  0
  6  8  1  0  0  0
  7 18  1  0  0  0
  7 20  1  0  0  0
  7 24  1  0  0  0
  7 29  1  0  0  0
  8  9  2  0  0  0
  8 10  1  0  0  0
  9 30  1  0  0  0
 10 11  1  0  0  0
 10 31  1  0  0  0
 10 32  1  0  0  0
 11 12  1  0  0  0
 11 33  1  0  0  0
 11 34  1  0  0  0
 12 13  2  0  0  0
 12 17  1  0  0  0
 13 14  1  0  0  0
 13 35  1  0  0  0
 14 15  2  0  0  0
 14 18  1  0  0  0
 15 16  1  0  0  0
 15 36  1  0  0  0
 16 17  2  0  0  0
 16 37  1  0  0  0
 17 38  1  0  0  0
 18 39  1  0  0  0
 18 40  1  0  0  0
 19 20  1  0  0  0
 19 21  2  0  0  0
 20 41  1  0  0  0
 20 42  1  0  0  0
 21 22  1  0  0  0
 21 43  1  0  0  0
 22 23  2  0  0  0
 22 44  1  0  0  0
 23 45  1  0  0  0
 24 46  1  0  0  0
 24 47  1  0  0  0
 24 48  1  0  0  0
M  CHG  2   2   1   7   1
M  END
> <s_m_source_file>
../3kn0_ligand.sdf

> <i_m_source_file_index>
1

> <s_epik_input>
W05IMl1jMW5bY0hdW2NIXVtjSF1jMVtDSDJdW0NIMl1jMltjSF1jKFtjSF1bY0hdW2NIXTIpW0NIMl1bTkBIK10oW0NIM10pW0NIMl1jM29bY0hdW2NIXVtjSF0z

> <s_epik_cmdline>
J2VwaWtfYXBwJywgJy1pbWFlJywgJ2xpZ2FuZF9wcm8ubWFlJywgJy1vbWFlJywgJ2xpZ2FuZF9wcmVwLm1hZScsICctbXMnLCAnMScsICctcGgnLCAnNycsICctcGh0JywgJzAuNScsICctbnQn

> <r_lp_tautomer_probability>
1

> <r_epik_Ionization_Penalty>
  0.2730

> <r_epik_Ionization_Penalty_Charging>
  0.2730

> <r_epik_Ionization_Penalty_Neutral>
  0.0000

> <r_epik_State_Penalty>
 -0.0000

> <r_epik_Charging_Adjusted_Penalty>
0.273045022656521

> <i_epik_Tot_Q>
2

> <i_epik_Tot_abs_Q>
2

$$$$
