3koo_ligand
                    3D
 Schrodinger Suite 2020-3.
 43 45  0  0  1  0            999 V2000
   75.8010   -8.4220   71.5040 Cl  0  0  0  0  0  0
   75.1260   -8.8050   69.9350 C   0  0  0  0  0  0
   75.2180   -7.8830   68.8990 C   0  0  0  0  0  0
   74.6840   -8.1720   67.6470 C   0  0  0  0  0  0
   74.0480   -9.3790   67.4100 C   0  0  0  0  0  0
   73.4590   -9.7490   66.0710 C   0  0  0  0  0  0
   73.5580   -8.6370   65.1250 N   0  0  0  0  0  0
   74.6880   -8.5020   64.4160 C   0  0  0  0  0  0
   75.5840   -9.2840   64.5770 O   0  0  0  0  0  0
   74.8410   -7.5270   63.5200 N   0  0  0  0  0  0
   76.1050   -7.4060   62.7770 C   0  0  0  0  0  0
   75.7920   -7.1070   61.3060 C   0  0  0  0  0  0
   74.8260   -5.9140   61.1870 C   0  0  0  0  0  0
   74.3760   -5.3700   62.5470 C   0  0  0  0  0  0
   73.7690   -6.5550   63.3010 C   0  0  0  0  0  0
   75.4260   -4.8660   60.4150 O   0  0  0  0  0  0
   76.4870   -4.1480   60.8600 C   0  0  0  0  0  0
   77.2350   -4.5940   61.8570 N   0  0  0  0  0  0
   78.2700   -3.8970   62.2820 C   0  0  0  0  0  0
   78.5540   -2.6950   61.6530 C   0  0  0  0  0  0
   77.7570   -2.2560   60.6060 C   0  0  0  0  0  0
   76.7400   -3.0090   60.2370 N   0  0  0  0  0  0
   73.9560  -10.2930   68.4290 C   0  0  0  0  0  0
   73.1470  -11.7790   68.0410 Cl  0  0  0  0  0  0
   74.4900  -10.0200   69.6910 C   0  0  0  0  0  0
   75.7122   -6.9264   69.0686 H   0  0  0  0  0  0
   74.7673   -7.4400   66.8437 H   0  0  0  0  0  0
   74.0021  -10.6115   65.6573 H   0  0  0  0  0  0
   72.3978  -10.0098   66.1967 H   0  0  0  0  0  0
   72.7175   -7.9369   65.0092 H   0  0  0  0  0  0
   76.7037   -6.5874   63.2029 H   0  0  0  0  0  0
   76.6666   -8.3488   62.8528 H   0  0  0  0  0  0
   76.7241   -6.8641   60.7748 H   0  0  0  0  0  0
   75.3258   -7.9895   60.8436 H   0  0  0  0  0  0
   73.9365   -6.2320   60.6235 H   0  0  0  0  0  0
   75.2448   -4.9621   63.0844 H   0  0  0  0  0  0
   73.6318   -4.5742   62.3956 H   0  0  0  0  0  0
   72.9677   -7.0202   62.7081 H   0  0  0  0  0  0
   73.3654   -6.2294   64.2711 H   0  0  0  0  0  0
   78.8861   -4.2564   63.1062 H   0  0  0  0  0  0
   79.4030   -2.0951   61.9808 H   0  0  0  0  0  0
   77.9663   -1.3127   60.1015 H   0  0  0  0  0  0
   74.4086  -10.7601   70.4871 H   0  0  0  0  0  0
  1  2  1  0  0  0
  2  3  2  0  0  0
  2 25  1  0  0  0
  3  4  1  0  0  0
  3 26  1  0  0  0
  4  5  2  0  0  0
  4 27  1  0  0  0
  5  6  1  0  0  0
  5 23  1  0  0  0
  6  7  1  0  0  0
  6 28  1  0  0  0
  6 29  1  0  0  0
  7  8  1  0  0  0
  7 30  1  0  0  0
  8  9  2  0  0  0
  8 10  1  0  0  0
 10 11  1  0  0  0
 10 15  1  0  0  0
 11 12  1  0  0  0
 11 31  1  0  0  0
 11 32  1  0  0  0
 12 13  1  0  0  0
 12 33  1  0  0  0
 12 34  1  0  0  0
 13 14  1  0  0  0
 13 16  1  0  0  0
 13 35  1  0  0  0
 14 15  1  0  0  0
 14 36  1  0  0  0
 14 37  1  0  0  0
 15 38  1  0  0  0
 15 39  1  0  0  0
 16 17  1  0  0  0
 17 18  2  0  0  0
 17 22  1  0  0  0
 18 19  1  0  0  0
 19 20  2  0  0  0
 19 40  1  0  0  0
 20 21  1  0  0  0
 20 41  1  0  0  0
 21 22  2  0  0  0
 21 42  1  0  0  0
 23 24  1  0  0  0
 23 25  2  0  0  0
 25 43  1  0  0  0
M  END
> <s_m_source_file>
../3koo_ligand.sdf

> <i_m_source_file_index>
1

> <s_epik_input>
Q2xjMVtjSF1bY0hdYyhjKENsKVtjSF0xKVtDSDJdW05IXUMoPU8pTjJbQ0gyXVtDSDJdW0NIXShbQ0gyXVtDSDJdMilPYzNuW2NIXVtjSF1bY0hdbjM=

> <s_epik_cmdline>
J2VwaWtfYXBwJywgJy1pbWFlJywgJ2xpZ2FuZF9wcm8ubWFlJywgJy1vbWFlJywgJ2xpZ2FuZF9wcmVwLm1hZScsICctbXMnLCAnMScsICctcGgnLCAnNycsICctcGh0JywgJzAuNScsICctbnQn

> <r_lp_tautomer_probability>
1

> <r_epik_Ionization_Penalty>
  0.0000

> <r_epik_Ionization_Penalty_Charging>
  0.0000

> <r_epik_Ionization_Penalty_Neutral>
  0.0000

> <r_epik_State_Penalty>
 -0.0000

> <r_epik_Charging_Adjusted_Penalty>
0

> <i_epik_Tot_Q>
0

> <i_epik_Tot_abs_Q>
0

$$$$
