3kqb_ligand
                    3D
 Schrodinger Suite 2020-3.
 59 63  0  0  1  0            999 V2000
   38.9190   35.7510   21.2720 C   0  0  0  0  0  0
   38.2440   36.2550   22.3950 C   0  0  0  0  0  0
   38.6930   26.7360   14.6070 C   0  0  0  0  0  0
   38.2750   34.8280   20.4390 C   0  0  0  0  0  0
   36.4510   32.0370   19.9900 C   0  0  0  0  0  0
   39.2180   27.4260   13.4950 C   0  0  0  0  0  0
   37.3450   26.8990   14.9730 C   0  0  0  0  0  0
   35.8950   31.1360   19.0560 C   0  0  0  0  0  0
   36.9400   35.8220   22.6710 C   0  0  0  0  0  0
   35.7750   33.9240   18.6160 C   0  0  0  0  0  0
   37.0420   28.4310   13.1100 C   0  0  0  0  0  0
   33.2470   28.6910   15.2880 C   0  0  0  0  0  0
   36.3820   33.4310   19.7730 C   0  0  0  0  0  0
   36.9620   34.3880   20.7100 C   0  0  0  0  0  0
   38.3830   28.2770   12.7510 C   0  0  0  0  0  0
   36.5250   27.7630   14.2190 C   0  0  0  0  0  0
   35.2700   31.6520   17.9000 C   0  0  0  0  0  0
   35.2200   33.0360   17.6950 C   0  0  0  0  0  0
   36.2820   34.8950   21.8310 C   0  0  0  0  0  0
   34.6110   28.8150   15.4440 C   0  0  0  0  0  0
   33.1070   27.7780   14.2230 C   0  0  0  0  0  0
   38.8780   28.9660   11.5720 C   0  0  0  0  0  0
   38.7380   30.1840    9.7610 C   0  0  0  0  0  0
   35.3560   29.6420   16.4190 C   0  0  0  0  0  0
   34.1500   35.5420   23.5310 C   0  0  0  0  0  0
   31.8610   27.2770   13.6040 C   0  0  0  0  0  0
   34.2780   27.3450   13.7420 N   0  0  0  0  0  0
   40.0900   28.9300   11.1240 N   0  0  0  0  0  0
   35.1710   27.9790   14.5030 N   0  0  0  0  0  0
   38.0050   29.6770   10.8090 N   0  0  0  0  0  0
   40.0330   29.7040    9.9920 N   0  0  0  0  0  0
   34.7260   30.7960   16.9360 N   0  0  0  0  0  0
   38.3580   30.8980    8.8320 O   0  0  0  0  0  0
   36.4830   29.3160   16.7620 O   0  0  0  0  0  0
   33.7780   34.6220   21.0970 O   0  0  0  0  0  0
   34.6910   33.0830   22.8820 O   0  0  0  0  0  0
   34.6310   33.5280   16.6040 F   0  0  0  0  0  0
   31.2780   28.1370   12.7110 F   0  0  0  0  0  0
   32.0090   26.1490   12.8290 F   0  0  0  0  0  0
   30.8880   27.0000   14.5180 F   0  0  0  0  0  0
   34.6300   34.4100   22.2560 S   0  0  0  0  0  0
   39.9357   36.0754   21.0504 H   0  0  0  0  0  0
   38.7312   36.9788   23.0484 H   0  0  0  0  0  0
   39.3355   26.0727   15.1861 H   0  0  0  0  0  0
   38.7981   34.4419   19.5642 H   0  0  0  0  0  0
   36.9379   31.6534   20.8866 H   0  0  0  0  0  0
   40.2638   27.3003   13.2145 H   0  0  0  0  0  0
   36.9385   26.3630   15.8306 H   0  0  0  0  0  0
   35.9474   30.0604   19.2245 H   0  0  0  0  0  0
   36.4234   36.2074   23.5501 H   0  0  0  0  0  0
   35.7352   34.9979   18.4336 H   0  0  0  0  0  0
   36.3947   29.0785   12.5185 H   0  0  0  0  0  0
   32.4589   29.1847   15.8566 H   0  0  0  0  0  0
   34.0883   36.5583   23.1148 H   0  0  0  0  0  0
   34.8957   35.5214   24.3394 H   0  0  0  0  0  0
   33.1679   35.2492   23.9306 H   0  0  0  0  0  0
   36.9466   29.7432   11.1013 H   0  0  0  0  0  0
   40.8475   29.9640    9.3000 H   0  0  0  0  0  0
   33.7288   31.0002   16.5191 H   0  0  0  0  0  0
  1  2  2  0  0  0
  1  4  1  0  0  0
  1 42  1  0  0  0
  2  9  1  0  0  0
  2 43  1  0  0  0
  3  6  2  0  0  0
  3  7  1  0  0  0
  3 44  1  0  0  0
  4 14  2  0  0  0
  4 45  1  0  0  0
  5  8  2  0  0  0
  5 13  1  0  0  0
  5 46  1  0  0  0
  6 15  1  0  0  0
  6 47  1  0  0  0
  7 16  2  0  0  0
  7 48  1  0  0  0
  8 17  1  0  0  0
  8 49  1  0  0  0
  9 19  2  0  0  0
  9 50  1  0  0  0
 10 13  2  0  0  0
 10 18  1  0  0  0
 10 51  1  0  0  0
 11 15  2  0  0  0
 11 16  1  0  0  0
 11 52  1  0  0  0
 12 20  2  0  0  0
 12 21  1  0  0  0
 12 53  1  0  0  0
 13 14  1  0  0  0
 14 19  1  0  0  0
 15 22  1  0  0  0
 16 29  1  0  0  0
 17 18  2  0  0  0
 17 32  1  0  0  0
 18 37  1  0  0  0
 19 41  1  0  0  0
 20 24  1  0  0  0
 20 29  1  0  0  0
 21 26  1  0  0  0
 21 27  2  0  0  0
 22 28  2  0  0  0
 22 30  1  0  0  0
 23 30  1  0  0  0
 23 31  1  0  0  0
 23 33  2  0  0  0
 24 32  1  0  0  0
 24 34  2  0  0  0
 25 41  1  0  0  0
 25 54  1  0  0  0
 25 55  1  0  0  0
 25 56  1  0  0  0
 26 38  1  0  0  0
 26 39  1  0  0  0
 26 40  1  0  0  0
 27 29  1  0  0  0
 28 31  1  0  0  0
 30 57  1  0  0  0
 31 58  1  0  0  0
 32 59  1  0  0  0
 35 41  2  0  0  0
 36 41  2  0  0  0
M  END
> <s_m_source_file>
../3kqb_ligand.sdf

> <i_m_source_file_index>
1

> <s_epik_input>
W0NIM11TKD1PKSg9TyljMVtjSF1bY0hdW2NIXVtjSF1jMS1jMltjSF1bY0hdYyhjKEYpW2NIXTIpW05IXUMoPU8pYzNbY0hdYyhDKEYpKEYpRilubjMtYyhbY0hdNClbY0hdW2NIXVtjSF1jNC1jNW5bbkhdYyg9TylbbkhdNQ==

> <s_epik_cmdline>
J2VwaWtfYXBwJywgJy1pbWFlJywgJ2xpZ2FuZF9wcm8ubWFlJywgJy1vbWFlJywgJ2xpZ2FuZF9wcmVwLm1hZScsICctbXMnLCAnMScsICctcGgnLCAnNycsICctcGh0JywgJzAuNScsICctbnQn

> <r_lp_tautomer_probability>
1

> <r_epik_Ionization_Penalty>
  0.0177

> <r_epik_Ionization_Penalty_Charging>
  0.0177

> <r_epik_Ionization_Penalty_Neutral>
  0.0000

> <r_epik_State_Penalty>
 -0.0000

> <r_epik_Charging_Adjusted_Penalty>
0.0177251198868663

> <i_epik_Tot_Q>
0

> <i_epik_Tot_abs_Q>
0

$$$$
