3kqc_ligand
                    3D
 Schrodinger Suite 2020-3.
 63 68  0  0  1  0            999 V2000
   38.8060   35.5110   21.2140 C   0  0  0  0  0  0
   38.1360   36.0380   22.3230 C   0  0  0  0  0  0
   38.6250   26.7870   14.6130 C   0  0  0  0  0  0
   38.1490   34.5930   20.3890 C   0  0  0  0  0  0
   36.2260   31.8540   20.0390 C   0  0  0  0  0  0
   35.6110   33.6900   18.5630 C   0  0  0  0  0  0
   39.1210   27.4680   13.4790 C   0  0  0  0  0  0
   37.2630   26.9000   14.9910 C   0  0  0  0  0  0
   35.6390   30.9320   19.1630 C   0  0  0  0  0  0
   35.0190   32.7720   17.6880 C   0  0  0  0  0  0
   36.8210   35.6390   22.5940 C   0  0  0  0  0  0
   36.8950   28.3470   13.0850 C   0  0  0  0  0  0
   36.2140   33.2320   19.7420 C   0  0  0  0  0  0
   36.8310   34.1920   20.6510 C   0  0  0  0  0  0
   38.2350   28.2420   12.7020 C   0  0  0  0  0  0
   33.1800   28.7690   15.1690 C   0  0  0  0  0  0
   36.4080   27.6800   14.2050 C   0  0  0  0  0  0
   35.0160   31.4010   17.9980 C   0  0  0  0  0  0
   36.1570   34.7170   21.7660 C   0  0  0  0  0  0
   34.5420   28.8260   15.3320 C   0  0  0  0  0  0
   32.9930   27.8120   14.1630 C   0  0  0  0  0  0
   38.6940   28.9320   11.5070 C   0  0  0  0  0  0
   35.2320   29.6730   16.2750 C   0  0  0  0  0  0
   38.5710   30.1520    9.6870 C   0  0  0  0  0  0
   32.2690   29.6120   15.9800 C   0  0  0  0  0  0
   33.0350   30.8460   16.5230 C   0  0  0  0  0  0
   34.5260   32.6540   22.8680 C   0  0  0  0  0  0
   31.7390   27.3570   13.5520 C   0  0  0  0  0  0
   34.1410   27.3020   13.7130 N   0  0  0  0  0  0
   39.9120   28.9120   11.0650 N   0  0  0  0  0  0
   35.0640   27.9060   14.4660 N   0  0  0  0  0  0
   37.8180   29.6410   10.7330 N   0  0  0  0  0  0
   39.8640   29.6790    9.9300 N   0  0  0  0  0  0
   34.3990   30.5030   17.0540 N   0  0  0  0  0  0
   36.4410   29.6680   16.3690 O   0  0  0  0  0  0
   38.2220   30.8660    8.7490 O   0  0  0  0  0  0
   34.1140   35.1860   23.3000 O   0  0  0  0  0  0
   33.6650   34.2810   21.0050 O   0  0  0  0  0  0
   30.7510   27.0410   14.4530 F   0  0  0  0  0  0
   31.1870   28.2780   12.6900 F   0  0  0  0  0  0
   31.8960   26.2730   12.7270 F   0  0  0  0  0  0
   34.4900   34.3000   22.2030 S   0  0  0  0  0  0
   39.8302   35.8130   20.9951 H   0  0  0  0  0  0
   38.6351   36.7561   22.9736 H   0  0  0  0  0  0
   39.2979   26.1667   15.2050 H   0  0  0  0  0  0
   38.6714   34.1811   19.5255 H   0  0  0  0  0  0
   36.6959   31.5031   20.9578 H   0  0  0  0  0  0
   35.6030   34.7545   18.3288 H   0  0  0  0  0  0
   40.1744   27.3960   13.2084 H   0  0  0  0  0  0
   36.8890   26.3884   15.8779 H   0  0  0  0  0  0
   35.6662   29.8650   19.3840 H   0  0  0  0  0  0
   34.5590   33.1212   16.7636 H   0  0  0  0  0  0
   36.3040   36.0501   23.4611 H   0  0  0  0  0  0
   36.2176   28.9639   12.4944 H   0  0  0  0  0  0
   31.4303   29.9520   15.3547 H   0  0  0  0  0  0
   31.8815   29.0247   16.8255 H   0  0  0  0  0  0
   33.1659   31.5810   15.7151 H   0  0  0  0  0  0
   32.4616   31.3016   17.3438 H   0  0  0  0  0  0
   35.1448   32.6394   23.7773 H   0  0  0  0  0  0
   34.9530   31.9667   22.1228 H   0  0  0  0  0  0
   33.5025   32.3362   23.1158 H   0  0  0  0  0  0
   36.7569   29.7002   11.0167 H   0  0  0  0  0  0
   40.6829   29.9390    9.2431 H   0  0  0  0  0  0
  1  2  2  0  0  0
  1  4  1  0  0  0
  1 43  1  0  0  0
  2 11  1  0  0  0
  2 44  1  0  0  0
  3  7  2  0  0  0
  3  8  1  0  0  0
  3 45  1  0  0  0
  4 14  2  0  0  0
  4 46  1  0  0  0
  5  9  2  0  0  0
  5 13  1  0  0  0
  5 47  1  0  0  0
  6 10  1  0  0  0
  6 13  2  0  0  0
  6 48  1  0  0  0
  7 15  1  0  0  0
  7 49  1  0  0  0
  8 17  2  0  0  0
  8 50  1  0  0  0
  9 18  1  0  0  0
  9 51  1  0  0  0
 10 18  2  0  0  0
 10 52  1  0  0  0
 11 19  2  0  0  0
 11 53  1  0  0  0
 12 15  2  0  0  0
 12 17  1  0  0  0
 12 54  1  0  0  0
 13 14  1  0  0  0
 14 19  1  0  0  0
 15 22  1  0  0  0
 16 20  2  0  0  0
 16 21  1  0  0  0
 16 25  1  0  0  0
 17 31  1  0  0  0
 18 34  1  0  0  0
 19 42  1  0  0  0
 20 23  1  0  0  0
 20 31  1  0  0  0
 21 28  1  0  0  0
 21 29  2  0  0  0
 22 30  2  0  0  0
 22 32  1  0  0  0
 23 34  1  0  0  0
 23 35  2  0  0  0
 24 32  1  0  0  0
 24 33  1  0  0  0
 24 36  2  0  0  0
 25 26  1  0  0  0
 25 55  1  0  0  0
 25 56  1  0  0  0
 26 34  1  0  0  0
 26 57  1  0  0  0
 26 58  1  0  0  0
 27 42  1  0  0  0
 27 59  1  0  0  0
 27 60  1  0  0  0
 27 61  1  0  0  0
 28 39  1  0  0  0
 28 40  1  0  0  0
 28 41  1  0  0  0
 29 31  1  0  0  0
 30 33  1  0  0  0
 32 62  1  0  0  0
 33 63  1  0  0  0
 37 42  2  0  0  0
 38 42  2  0  0  0
M  END
> <s_m_source_file>
../3kqc_ligand.sdf

> <i_m_source_file_index>
1

> <s_epik_input>
W0NIM11TKD1PKSg9TyljMVtjSF1bY0hdW2NIXVtjSF1jMS1jMltjSF1bY0hdYyhbY0hdW2NIXTIpTihbQ0gyXVtDSDJdMylDKD1PKWMoYzM0KW4obmM0QyhGKShGKUYpLWMoW2NIXTUpW2NIXVtjSF1bY0hdYzUtYzZuW25IXWMoPU8pW25IXTY=

> <s_epik_cmdline>
J2VwaWtfYXBwJywgJy1pbWFlJywgJ2xpZ2FuZF9wcm8ubWFlJywgJy1vbWFlJywgJ2xpZ2FuZF9wcmVwLm1hZScsICctbXMnLCAnMScsICctcGgnLCAnNycsICctcGh0JywgJzAuNScsICctbnQn

> <r_lp_tautomer_probability>
1

> <r_epik_Ionization_Penalty>
  0.0177

> <r_epik_Ionization_Penalty_Charging>
  0.0177

> <r_epik_Ionization_Penalty_Neutral>
  0.0000

> <r_epik_State_Penalty>
 -0.0000

> <r_epik_Charging_Adjusted_Penalty>
0.0177251198868663

> <i_epik_Tot_Q>
0

> <i_epik_Tot_abs_Q>
0

$$$$
