3kqd_ligand
                    3D
 Schrodinger Suite 2020-3.
 73 79  0  0  1  0            999 V2000
   39.8500   35.9380   20.7740 C   0  0  0  0  0  0
   39.4740   36.0840   22.1150 C   0  0  0  0  0  0
   39.4640   26.6230   14.6250 C   0  0  0  0  0  0
   39.1930   35.0090   19.9540 C   0  0  0  0  0  0
   37.5380   31.8770   19.8600 C   0  0  0  0  0  0
   36.8010   33.7620   18.4920 C   0  0  0  0  0  0
   40.0280   27.2560   13.4960 C   0  0  0  0  0  0
   38.4400   35.2990   22.6360 C   0  0  0  0  0  0
   38.1240   26.8420   14.9570 C   0  0  0  0  0  0
   36.8670   30.9950   19.0040 C   0  0  0  0  0  0
   36.1270   32.8810   17.6400 C   0  0  0  0  0  0
   37.9160   28.3310   13.0310 C   0  0  0  0  0  0
   37.5030   33.2660   19.6020 C   0  0  0  0  0  0
   38.1680   34.2130   20.4770 C   0  0  0  0  0  0
   39.2440   28.1090   12.7030 C   0  0  0  0  0  0
   34.1870   28.8980   15.0870 C   0  0  0  0  0  0
   37.7810   34.3690   21.8210 C   0  0  0  0  0  0
   37.3590   27.6920   14.1430 C   0  0  0  0  0  0
   36.1450   31.5010   17.8980 C   0  0  0  0  0  0
   35.5540   28.9190   15.2480 C   0  0  0  0  0  0
   33.9720   27.9330   14.0830 C   0  0  0  0  0  0
   39.7880   28.7710   11.5370 C   0  0  0  0  0  0
   36.2860   29.7550   16.1810 C   0  0  0  0  0  0
   39.7140   30.0150    9.7430 C   0  0  0  0  0  0
   33.3120   29.7780   15.8880 C   0  0  0  0  0  0
   33.3850   35.0380   21.9440 C   0  0  0  0  0  0
   33.1510   34.1470   23.1620 C   0  0  0  0  0  0
   34.1170   30.9830   16.4440 C   0  0  0  0  0  0
   34.7610   34.6310   21.4390 C   0  0  0  0  0  0
   34.4960   33.4820   23.4480 C   0  0  0  0  0  0
   36.6860   33.5470   22.4360 C   0  0  0  0  0  0
   32.7130   27.5030   13.4560 C   0  0  0  0  0  0
   35.1070   27.3860   13.6440 N   0  0  0  0  0  0
   41.0210   28.7390   11.1370 N   0  0  0  0  0  0
   36.0340   27.9840   14.3910 N   0  0  0  0  0  0
   38.9410   29.5060   10.7610 N   0  0  0  0  0  0
   41.0020   29.5170   10.0040 N   0  0  0  0  0  0
   35.4700   30.6210   16.9660 N   0  0  0  0  0  0
   35.4520   34.2990   22.6900 N   0  3  0  0  0  0
   37.5080   29.7120   16.2640 O   0  0  0  0  0  0
   39.3560   30.7370    8.8250 O   0  0  0  0  0  0
   32.8510   26.4510   12.5670 F   0  0  0  0  0  0
   31.7120   27.1720   14.3570 F   0  0  0  0  0  0
   32.2140   28.4790   12.6220 F   0  0  0  0  0  0
   40.6558   36.5483   20.3662 H   0  0  0  0  0  0
   39.9853   36.8069   22.7507 H   0  0  0  0  0  0
   40.0751   25.9618   15.2393 H   0  0  0  0  0  0
   39.4813   34.9070   18.9078 H   0  0  0  0  0  0
   38.0849   31.4939   20.7215 H   0  0  0  0  0  0
   36.7812   34.8337   18.2941 H   0  0  0  0  0  0
   41.0731   27.0823   13.2398 H   0  0  0  0  0  0
   38.1459   35.4112   23.6796 H   0  0  0  0  0  0
   37.6820   26.3624   15.8304 H   0  0  0  0  0  0
   36.9010   29.9214   19.1895 H   0  0  0  0  0  0
   35.5872   33.2662   16.7749 H   0  0  0  0  0  0
   37.3076   29.0016   12.4241 H   0  0  0  0  0  0
   32.4941   30.1551   15.2564 H   0  0  0  0  0  0
   32.8921   29.2090   16.7306 H   0  0  0  0  0  0
   32.6000   34.8507   21.1965 H   0  0  0  0  0  0
   33.3547   36.0939   22.2508 H   0  0  0  0  0  0
   32.8206   34.7647   24.0101 H   0  0  0  0  0  0
   32.3768   33.4016   22.9277 H   0  0  0  0  0  0
   34.2649   31.7249   15.6455 H   0  0  0  0  0  0
   33.5613   31.4436   17.2741 H   0  0  0  0  0  0
   34.6625   33.7730   20.7577 H   0  0  0  0  0  0
   35.2189   35.4748   20.9021 H   0  0  0  0  0  0
   34.6931   33.5038   24.5300 H   0  0  0  0  0  0
   34.4703   32.4385   23.1009 H   0  0  0  0  0  0
   36.4290   32.7160   21.7626 H   0  0  0  0  0  0
   37.0275   33.1446   23.4011 H   0  0  0  0  0  0
   37.8764   29.5811   11.0275 H   0  0  0  0  0  0
   41.8356   29.7687    9.3319 H   0  0  0  0  0  0
   35.7543   35.2044   23.2367 H   0  0  0  0  0  0
  1  2  2  0  0  0
  1  4  1  0  0  0
  1 45  1  0  0  0
  2  8  1  0  0  0
  2 46  1  0  0  0
  3  7  2  0  0  0
  3  9  1  0  0  0
  3 47  1  0  0  0
  4 14  2  0  0  0
  4 48  1  0  0  0
  5 10  2  0  0  0
  5 13  1  0  0  0
  5 49  1  0  0  0
  6 11  1  0  0  0
  6 13  2  0  0  0
  6 50  1  0  0  0
  7 15  1  0  0  0
  7 51  1  0  0  0
  8 17  2  0  0  0
  8 52  1  0  0  0
  9 18  2  0  0  0
  9 53  1  0  0  0
 10 19  1  0  0  0
 10 54  1  0  0  0
 11 19  2  0  0  0
 11 55  1  0  0  0
 12 15  2  0  0  0
 12 18  1  0  0  0
 12 56  1  0  0  0
 13 14  1  0  0  0
 14 17  1  0  0  0
 15 22  1  0  0  0
 16 20  2  0  0  0
 16 21  1  0  0  0
 16 25  1  0  0  0
 17 31  1  0  0  0
 18 35  1  0  0  0
 19 38  1  0  0  0
 20 23  1  0  0  0
 20 35  1  0  0  0
 21 32  1  0  0  0
 21 33  2  0  0  0
 22 34  2  0  0  0
 22 36  1  0  0  0
 23 38  1  0  0  0
 23 40  2  0  0  0
 24 36  1  0  0  0
 24 37  1  0  0  0
 24 41  2  0  0  0
 25 28  1  0  0  0
 25 57  1  0  0  0
 25 58  1  0  0  0
 26 27  1  0  0  0
 26 29  1  0  0  0
 26 59  1  0  0  0
 26 60  1  0  0  0
 27 30  1  0  0  0
 27 61  1  0  0  0
 27 62  1  0  0  0
 28 38  1  0  0  0
 28 63  1  0  0  0
 28 64  1  0  0  0
 29 39  1  0  0  0
 29 65  1  0  0  0
 29 66  1  0  0  0
 30 39  1  0  0  0
 30 67  1  0  0  0
 30 68  1  0  0  0
 31 39  1  0  0  0
 31 69  1  0  0  0
 31 70  1  0  0  0
 32 42  1  0  0  0
 32 43  1  0  0  0
 32 44  1  0  0  0
 33 35  1  0  0  0
 34 37  1  0  0  0
 36 71  1  0  0  0
 37 72  1  0  0  0
 39 73  1  0  0  0
M  CHG  1  39   1
M  END
> <s_m_source_file>
../3kqd_ligand.sdf

> <i_m_source_file_index>
1

> <s_epik_input>
W0NIMl0xW0NIMl1bQ0gyXVtDSDJdW05IK10xW0NIMl1jMltjSF1bY0hdW2NIXVtjSF1jMi1jM1tjSF1bY0hdYyhbY0hdW2NIXTMpTihbQ0gyXVtDSDJdNClDKD1PKWMoYzQ1KW4obmM1QyhGKShGKUYpLWMoW2NIXTYpW2NIXVtjSF1bY0hdYzYtYzduW25IXWMoPU8pW25IXTc=

> <s_epik_cmdline>
J2VwaWtfYXBwJywgJy1pbWFlJywgJ2xpZ2FuZF9wcm8ubWFlJywgJy1vbWFlJywgJ2xpZ2FuZF9wcmVwLm1hZScsICctbXMnLCAnMScsICctcGgnLCAnNycsICctcGh0JywgJzAuNScsICctbnQn

> <r_lp_tautomer_probability>
1

> <r_epik_Ionization_Penalty>
  0.0281

> <r_epik_Ionization_Penalty_Charging>
  0.0281

> <r_epik_Ionization_Penalty_Neutral>
  0.0000

> <r_epik_State_Penalty>
 -0.0000

> <r_epik_Charging_Adjusted_Penalty>
0.0281049121360137

> <i_epik_Tot_Q>
1

> <i_epik_Tot_abs_Q>
1

$$$$
