3kqe_ligand
                    3D
 Schrodinger Suite 2020-3.
 73 79  0  0  1  0            999 V2000
   38.8740   35.7590   21.0710 C   0  0  0  0  0  0
   38.4390   35.9110   22.3910 C   0  0  0  0  0  0
   38.7380   26.5980   14.5640 C   0  0  0  0  0  0
   38.2270   34.8540   20.2250 C   0  0  0  0  0  0
   35.9220   33.6460   18.5920 C   0  0  0  0  0  0
   36.4800   31.7730   20.0630 C   0  0  0  0  0  0
   39.2600   27.2910   13.4580 C   0  0  0  0  0  0
   37.3760   35.1400   22.8730 C   0  0  0  0  0  0
   37.4000   26.7590   14.9290 C   0  0  0  0  0  0
   35.3030   32.7570   17.7020 C   0  0  0  0  0  0
   35.8580   30.8850   19.1750 C   0  0  0  0  0  0
   37.0910   28.3000   13.0870 C   0  0  0  0  0  0
   36.5140   33.1530   19.7760 C   0  0  0  0  0  0
   37.1570   34.0850   20.6960 C   0  0  0  0  0  0
   38.4300   28.1540   12.7200 C   0  0  0  0  0  0
   33.3670   28.6980   15.2420 C   0  0  0  0  0  0
   36.7280   34.2320   22.0270 C   0  0  0  0  0  0
   36.5760   27.6080   14.1810 C   0  0  0  0  0  0
   35.2620   31.3810   18.0010 C   0  0  0  0  0  0
   34.7360   28.7680   15.3600 C   0  0  0  0  0  0
   33.1450   27.7270   14.2450 C   0  0  0  0  0  0
   38.9280   28.8560   11.5570 C   0  0  0  0  0  0
   35.4450   29.6380   16.2760 C   0  0  0  0  0  0
   38.8130   30.1330    9.7910 C   0  0  0  0  0  0
   32.4800   29.5390   16.0790 C   0  0  0  0  0  0
   32.7070   34.3530   21.6370 C   0  0  0  0  0  0
   32.2260   33.6230   22.8840 C   0  0  0  0  0  0
   33.2330   30.7890   16.6070 C   0  0  0  0  0  0
   33.9100   35.1420   22.1120 C   0  0  0  0  0  0
   33.4570   33.4710   23.7700 C   0  0  0  0  0  0
   31.8620   27.2480   13.7090 C   0  0  0  0  0  0
   35.5870   33.4380   22.5960 C   0  0  0  0  0  0
   34.2890   27.2090   13.7660 N   0  0  0  0  0  0
   40.1340   28.8030   11.0880 N   0  0  0  0  0  0
   35.2360   27.8450   14.4760 N   0  0  0  0  0  0
   38.0750   29.6210   10.8380 N   0  0  0  0  0  0
   40.0950   29.6050    9.9780 N   0  0  0  0  0  0
   34.6250   30.4800   17.0730 N   0  0  0  0  0  0
   34.5140   34.2820   23.1400 N   0  3  0  0  0  0
   36.6570   29.6560   16.3240 O   0  0  0  0  0  0
   38.4380   30.8830    8.8950 O   0  0  0  0  0  0
   39.7159   36.3450   20.7025 H   0  0  0  0  0  0
   38.9291   36.6316   23.0457 H   0  0  0  0  0  0
   39.3808   25.9318   15.1394 H   0  0  0  0  0  0
   38.5579   34.7465   19.1920 H   0  0  0  0  0  0
   35.9463   34.7131   18.3712 H   0  0  0  0  0  0
   36.9384   31.3961   20.9773 H   0  0  0  0  0  0
   40.3040   27.1601   13.1734 H   0  0  0  0  0  0
   37.0519   35.2463   23.9083 H   0  0  0  0  0  0
   36.9993   26.2265   15.7916 H   0  0  0  0  0  0
   34.8546   33.1296   16.7810 H   0  0  0  0  0  0
   35.8361   29.8171   19.3924 H   0  0  0  0  0  0
   36.4426   28.9614   12.5124 H   0  0  0  0  0  0
   31.6194   29.8727   15.4806 H   0  0  0  0  0  0
   32.1235   28.9530   16.9390 H   0  0  0  0  0  0
   32.9735   33.6189   20.8623 H   0  0  0  0  0  0
   31.9054   35.0066   21.2626 H   0  0  0  0  0  0
   31.4461   34.2194   23.3801 H   0  0  0  0  0  0
   31.8134   32.6438   22.5995 H   0  0  0  0  0  0
   33.3073   31.5382   15.8050 H   0  0  0  0  0  0
   32.6825   31.2164   17.4581 H   0  0  0  0  0  0
   34.5905   35.3179   21.2658 H   0  0  0  0  0  0
   33.5771   36.1071   22.5215 H   0  0  0  0  0  0
   33.2273   33.8349   24.7823 H   0  0  0  0  0  0
   33.7454   32.4106   23.8182 H   0  0  0  0  0  0
   31.0360   27.7747   14.2094 H   0  0  0  0  0  0
   31.7701   26.1668   13.8892 H   0  0  0  0  0  0
   31.8203   27.4443   12.6275 H   0  0  0  0  0  0
   35.1491   32.8085   21.8073 H   0  0  0  0  0  0
   35.9557   32.7995   23.4123 H   0  0  0  0  0  0
   37.0255   29.7189   11.1525 H   0  0  0  0  0  0
   40.9018   29.8574    9.2742 H   0  0  0  0  0  0
   34.9876   34.9223   23.8987 H   0  0  0  0  0  0
  1  2  2  0  0  0
  1  4  1  0  0  0
  1 42  1  0  0  0
  2  8  1  0  0  0
  2 43  1  0  0  0
  3  7  2  0  0  0
  3  9  1  0  0  0
  3 44  1  0  0  0
  4 14  2  0  0  0
  4 45  1  0  0  0
  5 10  2  0  0  0
  5 13  1  0  0  0
  5 46  1  0  0  0
  6 11  1  0  0  0
  6 13  2  0  0  0
  6 47  1  0  0  0
  7 15  1  0  0  0
  7 48  1  0  0  0
  8 17  2  0  0  0
  8 49  1  0  0  0
  9 18  2  0  0  0
  9 50  1  0  0  0
 10 19  1  0  0  0
 10 51  1  0  0  0
 11 19  2  0  0  0
 11 52  1  0  0  0
 12 15  2  0  0  0
 12 18  1  0  0  0
 12 53  1  0  0  0
 13 14  1  0  0  0
 14 17  1  0  0  0
 15 22  1  0  0  0
 16 20  2  0  0  0
 16 21  1  0  0  0
 16 25  1  0  0  0
 17 32  1  0  0  0
 18 35  1  0  0  0
 19 38  1  0  0  0
 20 23  1  0  0  0
 20 35  1  0  0  0
 21 31  1  0  0  0
 21 33  2  0  0  0
 22 34  2  0  0  0
 22 36  1  0  0  0
 23 38  1  0  0  0
 23 40  2  0  0  0
 24 36  1  0  0  0
 24 37  1  0  0  0
 24 41  2  0  0  0
 25 28  1  0  0  0
 25 54  1  0  0  0
 25 55  1  0  0  0
 26 27  1  0  0  0
 26 29  1  0  0  0
 26 56  1  0  0  0
 26 57  1  0  0  0
 27 30  1  0  0  0
 27 58  1  0  0  0
 27 59  1  0  0  0
 28 38  1  0  0  0
 28 60  1  0  0  0
 28 61  1  0  0  0
 29 39  1  0  0  0
 29 62  1  0  0  0
 29 63  1  0  0  0
 30 39  1  0  0  0
 30 64  1  0  0  0
 30 65  1  0  0  0
 31 66  1  0  0  0
 31 67  1  0  0  0
 31 68  1  0  0  0
 32 39  1  0  0  0
 32 69  1  0  0  0
 32 70  1  0  0  0
 33 35  1  0  0  0
 34 37  1  0  0  0
 36 71  1  0  0  0
 37 72  1  0  0  0
 39 73  1  0  0  0
M  CHG  1  39   1
M  END
> <s_m_source_file>
../3kqe_ligand.sdf

> <i_m_source_file_index>
1

> <s_epik_input>
W0NIMl0xW0NIMl1bQ0gyXVtDSDJdW05IK10xW0NIMl1jMltjSF1bY0hdW2NIXVtjSF1jMi1jM1tjSF1bY0hdYyhbY0hdW2NIXTMpTihbQ0gyXVtDSDJdNClDKD1PKWMoYzQ1KW4obmM1W0NIM10pLWMoW2NIXTYpW2NIXVtjSF1bY0hdYzYtYzduW25IXWMoPU8pW25IXTc=

> <s_epik_cmdline>
J2VwaWtfYXBwJywgJy1pbWFlJywgJ2xpZ2FuZF9wcm8ubWFlJywgJy1vbWFlJywgJ2xpZ2FuZF9wcmVwLm1hZScsICctbXMnLCAnMScsICctcGgnLCAnNycsICctcGh0JywgJzAuNScsICctbnQn

> <r_lp_tautomer_probability>
1

> <r_epik_Ionization_Penalty>
  0.0281

> <r_epik_Ionization_Penalty_Charging>
  0.0281

> <r_epik_Ionization_Penalty_Neutral>
  0.0000

> <r_epik_State_Penalty>
 -0.0000

> <r_epik_Charging_Adjusted_Penalty>
0.0281049121360138

> <i_epik_Tot_Q>
1

> <i_epik_Tot_abs_Q>
1

$$$$
