3kqm_ligand
                    3D
 Schrodinger Suite 2020-3.
  8  8  0  0  1  0            999 V2000
   26.7400   42.5740   16.1100 Br  0  0  0  0  0  0
   27.4980   44.2390   16.7550 C   0  0  0  0  0  0
   28.2280   44.4040   17.9250 C   0  0  0  0  0  0
   28.5990   45.6940   18.0070 N   0  0  0  0  0  0
   28.1170   46.3290   16.8920 C   0  0  0  0  0  0
   27.4400   45.4220   16.1210 N   0  0  0  0  0  0
   28.4598   43.6240   18.6502 H   0  0  0  0  0  0
   28.2509   47.3849   16.6570 H   0  0  0  0  0  0
  1  2  1  0  0  0
  2  3  2  0  0  0
  2  6  1  0  0  0
  3  4  1  0  0  0
  3  7  1  0  0  0
  4  5  1  0  0  0
  5  6  2  0  0  0
  5  8  1  0  0  0
M  END
> <s_m_source_file>
../3kqm_ligand.sdf

> <i_m_source_file_index>
1

> <s_epik_input>
QnJjMVtjSF1bbkhdW2NIXW4x

> <s_epik_cmdline>
J2VwaWtfYXBwJywgJy1pbWFlJywgJ2xpZ2FuZF9wcm8ubWFlJywgJy1vbWFlJywgJ2xpZ2FuZF9wcmVwLm1hZScsICctbXMnLCAnMScsICctcGgnLCAnNycsICctcGh0JywgJzAuNScsICctbnQn

> <r_lp_tautomer_probability>
1

> <r_epik_Ionization_Penalty>
 14.4605

> <r_epik_Ionization_Penalty_Charging>
  0.0000

> <r_epik_Ionization_Penalty_Neutral>
 14.4605

> <r_epik_State_Penalty>
 -0.0000

> <r_epik_Charging_Adjusted_Penalty>
0

> <i_epik_Tot_Q>
0

> <i_epik_Tot_abs_Q>
0

$$$$
