3kqo_ligand
                    3D
 Schrodinger Suite 2020-3.
 13 14  0  0  1  0            999 V2000
   27.6490   44.4100   16.3770 C   0  0  0  0  0  0
   26.4910   42.7050   14.5560 Cl  0  0  0  0  0  0
   27.3180   43.1000   16.0910 C   0  0  0  0  0  0
   27.6150   42.1180   16.9760 N   0  0  0  0  0  0
   28.2490   42.4210   18.1600 C   0  0  0  0  0  0
   28.5800   43.7290   18.4420 N   0  0  0  0  0  0
   28.2810   44.7140   17.5550 C   0  0  0  0  0  0
   28.4880   46.0460   17.5880 N   0  3  0  0  0  0
   27.9840   46.5700   16.4330 C   0  0  0  0  0  0
   27.4630   45.5520   15.6930 N   0  0  0  0  0  0
   28.4881   41.6302   18.8711 H   0  0  0  0  0  0
   27.9444   47.6018   16.0538 H   0  0  0  0  0  0
   28.9878   46.5036   18.4545 H   0  0  0  0  0  0
  1  3  2  0  0  0
  1  7  1  0  0  0
  1 10  1  0  0  0
  2  3  1  0  0  0
  3  4  1  0  0  0
  4  5  2  0  0  0
  5  6  1  0  0  0
  5 11  1  0  0  0
  6  7  2  0  0  0
  7  8  1  0  0  0
  8  9  1  0  0  0
  8 13  1  0  0  0
  9 10  2  0  0  0
  9 12  1  0  0  0
M  CHG  1   8   1
M  END
> <s_m_source_file>
../3kqo_ligand.sdf

> <i_m_source_file_index>
1

> <s_epik_input>
bjFbY0hdW25IXWMoYzEyKW5bY0hdbmMyQ2w=

> <s_epik_cmdline>
J2VwaWtfYXBwJywgJy1pbWFlJywgJ2xpZ2FuZF9wcm8ubWFlJywgJy1vbWFlJywgJ2xpZ2FuZF9wcmVwLm1hZScsICctbXMnLCAnMScsICctcGgnLCAnNycsICctcGh0JywgJzAuNScsICctbnQn

> <r_epik_Ionization_Penalty>
  0.0002

> <r_epik_Ionization_Penalty_Charging>
  0.0000

> <r_epik_Ionization_Penalty_Neutral>
  0.0002

> <r_epik_State_Penalty>
  0.0030

> <r_epik_Charging_Adjusted_Penalty>
0.00299776183058742

> <i_epik_Tot_Q>
1

> <i_epik_Tot_abs_Q>
1

> <s_epik_Chemistry_Notes>
This compound has an imine and may undergo hydrolysis.

$$$$
