3kqr_ligand
                    3D
 Schrodinger Suite 2020-3.
 15 14  0  0  1  0            999 V2000
   17.6950   14.1940   56.2520 C   0  0  0  0  0  0
   18.0060   13.6200   54.8940 C   0  0  0  0  0  0
   15.4830   17.2880   56.8380 O   0  5  0  0  0  0
   17.9730   17.3480   57.2680 O   0  5  0  0  0  0
   16.5610   15.6960   58.5480 O   0  0  0  0  0  0
   16.9680   15.3580   55.9940 O   0  0  0  0  0  0
   18.8160   14.6110   54.1520 N   0  3  0  0  0  0
   16.6900   16.3590   57.2420 P   0  0  0  0  0  0
   17.1062   13.4674   56.8311 H   0  0  0  0  0  0
   18.6340   14.4108   56.7823 H   0  0  0  0  0  0
   18.5687   12.6823   55.0124 H   0  0  0  0  0  0
   17.0672   13.4189   54.3571 H   0  0  0  0  0  0
   19.0568   14.2147   53.1545 H   0  0  0  0  0  0
   19.7475   14.8092   54.7025 H   0  0  0  0  0  0
   18.2459   15.5459   54.0473 H   0  0  0  0  0  0
  1  2  1  0  0  0
  1  6  1  0  0  0
  1  9  1  0  0  0
  1 10  1  0  0  0
  2  7  1  0  0  0
  2 11  1  0  0  0
  2 12  1  0  0  0
  3  8  1  0  0  0
  4  8  1  0  0  0
  5  8  2  0  0  0
  6  8  1  0  0  0
  7 13  1  0  0  0
  7 14  1  0  0  0
  7 15  1  0  0  0
M  CHG  3   3  -1   4  -1   7   1
M  END
> <s_m_source_file>
../3kqr_ligand.sdf

> <i_m_source_file_index>
1

> <s_epik_input>
W05IMytdW0NIMl1bQ0gyXU9QKD1PKShbT0hdKVtPSF0=

> <s_epik_cmdline>
J2VwaWtfYXBwJywgJy1pbWFlJywgJ2xpZ2FuZF9wcm8ubWFlJywgJy1vbWFlJywgJ2xpZ2FuZF9wcmVwLm1hZScsICctbXMnLCAnMScsICctcGgnLCAnNycsICctcGh0JywgJzAuNScsICctbnQn

> <r_epik_Ionization_Penalty>
  0.0861

> <r_epik_Ionization_Penalty_Charging>
  0.0861

> <r_epik_Ionization_Penalty_Neutral>
  0.0000

> <r_epik_State_Penalty>
  0.0743

> <r_epik_Charging_Adjusted_Penalty>
0.160428501023796

> <i_epik_Tot_Q>
-1

> <i_epik_Tot_abs_Q>
3

$$$$
