3kqt_ligand
                    3D
 Schrodinger Suite 2020-3.
 21 22  0  0  1  0            999 V2000
   28.2460   45.4760   17.3130 C   0  0  0  0  0  0
   27.7380   43.4010   18.7370 C   0  0  0  0  0  0
   27.8390   44.1530   17.4690 N   0  0  0  0  0  0
   27.5190   43.6600   16.2080 C   0  0  0  0  0  0
   27.0480   42.3590   15.7660 C   0  0  0  0  0  0
   26.7960   42.1140   14.3610 C   0  0  0  0  0  0
   27.0180   43.1660   13.4020 C   0  0  0  0  0  0
   27.4930   44.4620   13.8350 C   0  0  0  0  0  0
   27.7390   44.7080   15.2520 C   0  0  0  0  0  0
   28.1730   45.8100   15.9180 N   0  3  0  0  0  0
   28.6550   46.3650   18.3690 N   0  0  0  0  0  0
   28.0569   44.0437   19.5708 H   0  0  0  0  0  0
   28.3860   42.5134   18.6895 H   0  0  0  0  0  0
   26.6959   43.0861   18.8945 H   0  0  0  0  0  0
   26.8837   41.5646   16.4940 H   0  0  0  0  0  0
   26.4400   41.1382   14.0306 H   0  0  0  0  0  0
   26.8270   42.9844   12.3443 H   0  0  0  0  0  0
   27.6666   45.2524   13.1048 H   0  0  0  0  0  0
   28.6765   46.0095   19.4098 H   0  0  0  0  0  0
   28.9460   47.3997   18.1351 H   0  0  0  0  0  0
   28.4490   46.8194   15.5790 H   0  0  0  0  0  0
  1  3  1  0  0  0
  1 10  2  0  0  0
  1 11  1  0  0  0
  2  3  1  0  0  0
  2 12  1  0  0  0
  2 13  1  0  0  0
  2 14  1  0  0  0
  3  4  1  0  0  0
  4  5  1  0  0  0
  4  9  2  0  0  0
  5  6  2  0  0  0
  5 15  1  0  0  0
  6  7  1  0  0  0
  6 16  1  0  0  0
  7  8  2  0  0  0
  7 17  1  0  0  0
  8  9  1  0  0  0
  8 18  1  0  0  0
  9 10  1  0  0  0
 10 21  1  0  0  0
 11 19  1  0  0  0
 11 20  1  0  0  0
M  CHG  1  10   1
M  END
> <s_m_source_file>
../3kqt_ligand.sdf

> <i_m_source_file_index>
1

> <s_epik_input>
W0NIM11uMWMoW05IMl0pbmMoYzEyKVtjSF1bY0hdW2NIXVtjSF0y

> <s_epik_cmdline>
J2VwaWtfYXBwJywgJy1pbWFlJywgJ2xpZ2FuZF9wcm8ubWFlJywgJy1vbWFlJywgJ2xpZ2FuZF9wcmVwLm1hZScsICctbXMnLCAnMScsICctcGgnLCAnNycsICctcGh0JywgJzAuNScsICctbnQn

> <r_epik_Ionization_Penalty>
  0.2644

> <r_epik_Ionization_Penalty_Charging>
  0.2644

> <r_epik_Ionization_Penalty_Neutral>
  0.0000

> <r_epik_State_Penalty>
  0.2562

> <r_epik_Charging_Adjusted_Penalty>
0.520583766913017

> <i_epik_Tot_Q>
1

> <i_epik_Tot_abs_Q>
1

$$$$
