3kqw_ligand
                    3D
 Schrodinger Suite 2020-3.
 15 16  0  0  1  0            999 V2000
   28.1610   42.9330   16.9100 C   0  0  0  0  0  0
   27.3190   41.3440   14.8010 Cl  0  0  0  0  0  0
   27.6270   42.9130   15.6050 C   0  0  0  0  0  0
   27.3410   44.1180   14.9350 C   0  0  0  0  0  0
   27.5890   45.3520   15.5630 C   0  0  0  0  0  0
   28.1310   45.3680   16.8720 C   0  0  0  0  0  0
   28.4560   46.3810   17.6930 N   0  3  0  0  0  0
   28.9410   45.8540   18.8740 C   0  0  0  0  0  0
   28.9110   44.4810   18.7640 N   0  0  0  0  0  0
   28.4130   44.1760   17.5430 C   0  0  0  0  0  0
   28.3785   41.9991   17.4283 H   0  0  0  0  0  0
   26.9264   44.0945   13.9272 H   0  0  0  0  0  0
   27.3665   46.2864   15.0478 H   0  0  0  0  0  0
   29.2856   46.4223   19.7379 H   0  0  0  0  0  0
   28.3137   47.4215   17.3657 H   0  0  0  0  0  0
  1  3  2  0  0  0
  1 10  1  0  0  0
  1 11  1  0  0  0
  2  3  1  0  0  0
  3  4  1  0  0  0
  4  5  2  0  0  0
  4 12  1  0  0  0
  5  6  1  0  0  0
  5 13  1  0  0  0
  6  7  1  0  0  0
  6 10  2  0  0  0
  7  8  2  0  0  0
  7 15  1  0  0  0
  8  9  1  0  0  0
  8 14  1  0  0  0
  9 10  1  0  0  0
M  CHG  1   7   1
M  END
> <s_m_source_file>
../3kqw_ligand.sdf

> <i_m_source_file_index>
1

> <s_epik_input>
W2NIXTFbY0hdYyhDbClbY0hdYyhjMTIpW25IXVtjSF1uMg==

> <s_epik_cmdline>
J2VwaWtfYXBwJywgJy1pbWFlJywgJ2xpZ2FuZF9wcm8ubWFlJywgJy1vbWFlJywgJ2xpZ2FuZF9wcmVwLm1hZScsICctbXMnLCAnMScsICctcGgnLCAnNycsICctcGh0JywgJzAuNScsICctbnQn

> <r_epik_Ionization_Penalty>
  0.0068

> <r_epik_Ionization_Penalty_Charging>
  0.0000

> <r_epik_Ionization_Penalty_Neutral>
  0.0068

> <r_epik_State_Penalty>
  0.3343

> <r_epik_Charging_Adjusted_Penalty>
0.334254146089259

> <i_epik_Tot_Q>
1

> <i_epik_Tot_abs_Q>
1

$$$$
