3kr1_ligand
                    3D
 Schrodinger Suite 2020-3.
 17 18  0  0  1  0            999 V2000
   26.7490   40.4510   14.3880 Cl  0  0  0  0  0  0
   27.1720   42.1020   14.8750 C   0  0  0  0  0  0
   27.1810   43.1150   13.9350 C   0  0  0  0  0  0
   27.5120   44.4180   14.3020 C   0  0  0  0  0  0
   27.8360   44.6910   15.6300 C   0  0  0  0  0  0
   27.8350   43.6710   16.5760 C   0  0  0  0  0  0
   27.5020   42.3620   16.1940 C   0  0  0  0  0  0
   28.2030   45.8580   16.2880 N   0  0  0  0  0  0
   28.4240   45.5790   17.6130 C   0  0  0  0  0  0
   28.2010   44.2400   17.8040 N   0  3  0  0  0  0
   28.8220   46.5340   18.5990 N   0  0  0  0  0  0
   26.9272   42.8931   12.8984 H   0  0  0  0  0  0
   27.5175   45.2151   13.5586 H   0  0  0  0  0  0
   27.5032   41.5574   16.9294 H   0  0  0  0  0  0
   28.9810   46.2161   19.6400 H   0  0  0  0  0  0
   28.2735   46.8042   15.7315 H   0  0  0  0  0  0
   28.2643   43.6113   18.7044 H   0  0  0  0  0  0
  1  2  1  0  0  0
  2  3  2  0  0  0
  2  7  1  0  0  0
  3  4  1  0  0  0
  3 12  1  0  0  0
  4  5  2  0  0  0
  4 13  1  0  0  0
  5  6  1  0  0  0
  5  8  1  0  0  0
  6  7  2  0  0  0
  6 10  1  0  0  0
  7 14  1  0  0  0
  8  9  1  0  0  0
  8 16  1  0  0  0
  9 10  1  0  0  0
  9 11  2  0  0  0
 10 17  1  0  0  0
 11 15  1  0  0  0
M  CHG  1  10   1
M  END
> <s_m_source_file>
../3kr1_ligand.sdf

> <i_m_source_file_index>
1

> <s_epik_input>
W2NIXTFbY0hdYyhDbClbY0hdYyhjMTIpW25IXWMobjIpW05IMl0=

> <s_epik_cmdline>
J2VwaWtfYXBwJywgJy1pbWFlJywgJ2xpZ2FuZF9wcm8ubWFlJywgJy1vbWFlJywgJ2xpZ2FuZF9wcmVwLm1hZScsICctbXMnLCAnMScsICctcGgnLCAnNycsICctcGh0JywgJzAuNScsICctbnQn

> <r_epik_Ionization_Penalty>
  0.0000

> <r_epik_Ionization_Penalty_Charging>
  0.0000

> <r_epik_Ionization_Penalty_Neutral>
  0.0000

> <r_epik_State_Penalty>
  0.4107

> <r_epik_Charging_Adjusted_Penalty>
0.410679838952604

> <i_epik_Tot_Q>
1

> <i_epik_Tot_abs_Q>
1

> <s_epik_Chemistry_Notes>
This compound has an imine and may undergo hydrolysis.

$$$$
