3kr4_ligand
                    3D
 Schrodinger Suite 2020-3.
 46 46  0  0  1  0            999 V2000
   84.8320   76.2930   30.1850 N   0  3  0  0  0  0
   85.7750   75.1830   30.1470 C   0  0  2  0  0  0
   85.5270   74.2450   31.3280 C   0  0  0  0  0  0
   84.2390   73.4420   31.3840 C   0  0  0  0  0  0
   84.1080   72.2380   30.6740 C   0  0  0  0  0  0
   83.2110   73.8660   32.2140 C   0  0  0  0  0  0
   82.9350   71.4760   30.7890 C   0  0  0  0  0  0
   82.0370   73.1130   32.3290 C   0  0  0  0  0  0
   81.8900   71.9210   31.6170 C   0  0  0  0  0  0
   87.2530   75.6500   30.2280 C   0  0  2  0  0  0
   87.7150   76.5840   29.2440 O   0  0  0  0  0  0
   88.0330   74.4310   29.8770 C   0  0  0  0  0  0
   87.7090   73.8060   28.8670 O   0  0  0  0  0  0
   89.0330   74.1270   30.7020 N   0  0  0  0  0  0
   89.7930   72.9190   30.4270 C   0  0  1  0  0  0
   91.1820   73.1180   31.0280 C   0  0  0  0  0  0
   92.1760   72.0160   30.6560 C   0  0  0  0  0  0
   92.6890   72.1810   29.2300 C   0  0  0  0  0  0
   93.3240   72.0440   31.6670 C   0  0  0  0  0  0
   88.9950   71.8020   31.0710 C   0  0  0  0  0  0
   88.9640   70.7120   30.4670 O   0  0  0  0  0  0
   88.3610   71.9860   32.1530 O   0  5  0  0  0  0
   83.8049   75.9038   30.1246 H   0  0  0  0  0  0
   85.0206   76.9637   29.3337 H   0  0  0  0  0  0
   84.9585   76.8495   31.1253 H   0  0  0  0  0  0
   85.5612   74.7070   29.1786 H   0  0  0  0  0  0
   86.3225   73.4863   31.3669 H   0  0  0  0  0  0
   85.5271   74.8246   32.2629 H   0  0  0  0  0  0
   84.9190   71.8942   30.0320 H   0  0  0  0  0  0
   83.3185   74.7913   32.7800 H   0  0  0  0  0  0
   82.8346   70.5412   30.2375 H   0  0  0  0  0  0
   81.2327   73.4591   32.9782 H   0  0  0  0  0  0
   80.9718   71.3399   31.7026 H   0  0  0  0  0  0
   87.4132   76.1604   31.1891 H   0  0  0  0  0  0
   87.3191   77.6102   29.2311 H   0  0  0  0  0  0
   89.2918   74.7545   31.5676 H   0  0  0  0  0  0
   89.9124   72.7141   29.3529 H   0  0  0  0  0  0
   91.6017   74.0711   30.6737 H   0  0  0  0  0  0
   91.1077   73.1355   32.1253 H   0  0  0  0  0  0
   91.6725   71.0385   30.6885 H   0  0  0  0  0  0
   91.8408   72.1565   28.5301 H   0  0  0  0  0  0
   93.3837   71.3616   28.9931 H   0  0  0  0  0  0
   93.2127   73.1439   29.1379 H   0  0  0  0  0  0
   92.9207   71.9228   32.6832 H   0  0  0  0  0  0
   93.8529   73.0058   31.5947 H   0  0  0  0  0  0
   94.0238   71.2235   31.4500 H   0  0  0  0  0  0
  1  2  1  0  0  0
  1 23  1  0  0  0
  1 24  1  0  0  0
  1 25  1  0  0  0
  2  3  1  0  0  0
  2 10  1  0  0  0
  2 26  1  0  0  0
  3  4  1  0  0  0
  3 27  1  0  0  0
  3 28  1  0  0  0
  4  5  2  0  0  0
  4  6  1  0  0  0
  5  7  1  0  0  0
  5 29  1  0  0  0
  6  8  2  0  0  0
  6 30  1  0  0  0
  7  9  2  0  0  0
  7 31  1  0  0  0
  8  9  1  0  0  0
  8 32  1  0  0  0
  9 33  1  0  0  0
 10 11  1  0  0  0
 10 12  1  0  0  0
 10 34  1  0  0  0
 11 35  1  0  0  0
 12 13  2  0  0  0
 12 14  1  0  0  0
 14 15  1  0  0  0
 14 36  1  0  0  0
 15 16  1  0  0  0
 15 20  1  0  0  0
 15 37  1  0  0  0
 16 17  1  0  0  0
 16 38  1  0  0  0
 16 39  1  0  0  0
 17 18  1  0  0  0
 17 19  1  0  0  0
 17 40  1  0  0  0
 18 41  1  0  0  0
 18 42  1  0  0  0
 18 43  1  0  0  0
 19 44  1  0  0  0
 19 45  1  0  0  0
 19 46  1  0  0  0
 20 21  2  0  0  0
 20 22  1  0  0  0
M  CHG  2   1   1  22  -1
M  END
> <s_m_source_file>
../3kr4_ligand.sdf

> <i_m_source_file_index>
1

> <s_epik_input>
W0NIM11bQ0hdKFtDSDNdKVtDSDJdW0NAQEhdKEMoPU8pW09IXSlbTkhdQyg9TylbQ0BASF0oW09IXSlbQ0BIXShbTkgzK10pW0NIMl1jMVtjSF1bY0hdW2NIXVtjSF1bY0hdMQ==

> <s_epik_cmdline>
J2VwaWtfYXBwJywgJy1pbWFlJywgJ2xpZ2FuZF9wcm8ubWFlJywgJy1vbWFlJywgJ2xpZ2FuZF9wcmVwLm1hZScsICctbXMnLCAnMScsICctcGgnLCAnNycsICctcGh0JywgJzAuNScsICctbnQn

> <r_epik_Ionization_Penalty>
  0.0352

> <r_epik_Ionization_Penalty_Charging>
  0.0351

> <r_epik_Ionization_Penalty_Neutral>
  0.0000

> <r_epik_State_Penalty>
  0.0291

> <r_epik_Charging_Adjusted_Penalty>
0.0642799853861943

> <i_epik_Tot_Q>
0

> <i_epik_Tot_abs_Q>
2

$$$$
