3kr5_ligand
                    3D
 Schrodinger Suite 2020-3.
 48 49  0  0  1  0            999 V2000
   86.6490   72.6470   28.4520 O   0  0  0  0  0  0
   86.3520   73.3980   29.7240 P   0  0  1  0  0  0
   86.7790   74.8510   29.8080 O   0  5  0  0  0  0
   84.5430   73.3400   29.7330 C   0  0  1  0  0  0
   84.1480   72.4750   30.9290 C   0  0  0  0  0  0
   82.7310   72.6800   31.4010 C   0  0  0  0  0  0
   82.0380   71.3480   31.5150 C   0  0  0  0  0  0
   82.5060   70.2450   30.7840 C   0  0  0  0  0  0
   81.8470   69.0260   30.8770 C   0  0  0  0  0  0
   80.7300   68.9400   31.7060 C   0  0  0  0  0  0
   80.2640   70.0340   32.4500 C   0  0  0  0  0  0
   80.9190   71.2510   32.3530 C   0  0  0  0  0  0
   84.0820   74.7080   29.8070 N   0  3  0  0  0  0
   87.1440   72.5630   31.1050 C   0  0  0  0  0  0
   87.9860   71.4390   30.5560 C   0  0  2  0  0  0
   87.1480   70.2010   30.6450 C   0  0  0  0  0  0
   86.9760   69.5140   29.6140 O   0  5  0  0  0  0
   86.6410   69.9090   31.7490 O   0  0  0  0  0  0
   89.2540   71.3260   31.3960 C   0  0  0  0  0  0
   90.4220   70.7320   30.6260 C   0  0  0  0  0  0
   90.2490   70.1490   29.3660 C   0  0  0  0  0  0
   91.3450   69.6110   28.7070 C   0  0  0  0  0  0
   92.6080   69.6570   29.2960 C   0  0  0  0  0  0
   92.7830   70.2320   30.5490 C   0  0  0  0  0  0
   91.6880   70.7720   31.2130 C   0  0  0  0  0  0
   83.9180   72.9721   28.9060 H   0  0  0  0  0  0
   84.2479   71.4126   30.6620 H   0  0  0  0  0  0
   84.8069   72.7028   31.7798 H   0  0  0  0  0  0
   82.7398   73.1725   32.3846 H   0  0  0  0  0  0
   82.1919   73.3116   30.6795 H   0  0  0  0  0  0
   83.3837   70.3448   30.1454 H   0  0  0  0  0  0
   82.1946   68.1586   30.3159 H   0  0  0  0  0  0
   80.2004   67.9901   31.7787 H   0  0  0  0  0  0
   79.3944   69.9276   33.0986 H   0  0  0  0  0  0
   80.5708   72.1160   32.9174 H   0  0  0  0  0  0
   84.4096   75.2543   28.9102 H   0  0  0  0  0  0
   84.5020   75.1885   30.7029 H   0  0  0  0  0  0
   82.9836   74.7222   29.8642 H   0  0  0  0  0  0
   87.7772   73.2776   31.6512 H   0  0  0  0  0  0
   86.3746   72.1631   31.7818 H   0  0  0  0  0  0
   88.2782   71.6000   29.5078 H   0  0  0  0  0  0
   89.5547   72.3258   31.7424 H   0  0  0  0  0  0
   89.0618   70.6794   32.2649 H   0  0  0  0  0  0
   89.2614   70.1177   28.9059 H   0  0  0  0  0  0
   91.2185   69.1514   27.7268 H   0  0  0  0  0  0
   93.4655   69.2384   28.7691 H   0  0  0  0  0  0
   93.7715   70.2593   31.0075 H   0  0  0  0  0  0
   91.8180   71.2279   32.1945 H   0  0  0  0  0  0
  1  2  2  0  0  0
  2  3  1  0  0  0
  2  4  1  0  0  0
  2 14  1  0  0  0
  4  5  1  0  0  0
  4 13  1  0  0  0
  4 26  1  0  0  0
  5  6  1  0  0  0
  5 27  1  0  0  0
  5 28  1  0  0  0
  6  7  1  0  0  0
  6 29  1  0  0  0
  6 30  1  0  0  0
  7  8  2  0  0  0
  7 12  1  0  0  0
  8  9  1  0  0  0
  8 31  1  0  0  0
  9 10  2  0  0  0
  9 32  1  0  0  0
 10 11  1  0  0  0
 10 33  1  0  0  0
 11 12  2  0  0  0
 11 34  1  0  0  0
 12 35  1  0  0  0
 13 36  1  0  0  0
 13 37  1  0  0  0
 13 38  1  0  0  0
 14 15  1  0  0  0
 14 39  1  0  0  0
 14 40  1  0  0  0
 15 16  1  0  0  0
 15 19  1  0  0  0
 15 41  1  0  0  0
 16 17  1  0  0  0
 16 18  2  0  0  0
 19 20  1  0  0  0
 19 42  1  0  0  0
 19 43  1  0  0  0
 20 21  2  0  0  0
 20 25  1  0  0  0
 21 22  1  0  0  0
 21 44  1  0  0  0
 22 23  2  0  0  0
 22 45  1  0  0  0
 23 24  1  0  0  0
 23 46  1  0  0  0
 24 25  2  0  0  0
 24 47  1  0  0  0
 25 48  1  0  0  0
M  CHG  3   3  -1  13   1  17  -1
M  END
> <s_m_source_file>
../3kr5_ligand.sdf

> <i_m_source_file_index>
1

> <s_epik_input>
W2NIXTFbY0hdW2NIXVtjSF1bY0hdYzFbQ0gyXVtDQEBIXShDKD1PKVtPSF0pW0NIMl1bUEBdKD1PKShbT0hdKVtDQEhdKFtOSDMrXSlbQ0gyXVtDSDJdYzJbY0hdW2NIXVtjSF1bY0hdW2NIXTI=

> <s_epik_cmdline>
J2VwaWtfYXBwJywgJy1pbWFlJywgJ2xpZ2FuZF9wcm8ubWFlJywgJy1vbWFlJywgJ2xpZ2FuZF9wcmVwLm1hZScsICctbXMnLCAnMScsICctcGgnLCAnNycsICctcGh0JywgJzAuNScsICctbnQn

> <r_lp_tautomer_probability>
1

> <r_epik_Ionization_Penalty>
  0.0024

> <r_epik_Ionization_Penalty_Charging>
  0.0024

> <r_epik_Ionization_Penalty_Neutral>
  0.0000

> <r_epik_State_Penalty>
 -0.0000

> <r_epik_Charging_Adjusted_Penalty>
0.00238093528975579

> <i_epik_Tot_Q>
-1

> <i_epik_Tot_abs_Q>
3

$$$$
