3krd_ligand
                    3D
 Schrodinger Suite 2020-3.
 69 68  0  0  1  0            999 V2000
   44.1790   25.9490   50.9970 N   0  0  0  0  0  0
   44.6060   27.3410   51.1230 C   0  0  2  0  0  0
   43.3500   28.2230   51.0300 C   0  0  0  0  0  0
   42.6550   28.0000   49.7750 O   0  0  0  0  0  0
   45.6450   27.7830   50.0330 C   0  0  0  0  0  0
   46.9650   26.9940   49.9580 C   0  0  0  0  0  0
   47.8380   27.6290   48.8430 C   0  0  0  0  0  0
   47.7390   27.0140   51.3140 C   0  0  0  0  0  0
   44.5600   22.7260   52.3130 N   0  0  0  0  0  0
   43.7240   23.6900   51.6270 C   0  0  2  0  0  0
   44.2200   25.0640   52.0030 C   0  0  0  0  0  0
   44.6360   25.3100   53.1890 O   0  0  0  0  0  0
   42.2610   23.4620   52.0720 C   0  0  0  0  0  0
   41.6030   22.1270   51.6240 C   0  0  0  0  0  0
   41.7320   21.8640   50.1100 C   0  0  0  0  0  0
   41.0900   22.5340   49.2900 O   0  0  0  0  0  0
   42.5630   20.9120   49.6880 N   0  0  0  0  0  0
   46.4720   19.7250   52.2730 N   0  0  0  0  0  0
   46.1580   21.0750   52.8690 C   0  0  2  0  0  0
   45.4990   21.9650   51.7750 C   0  0  0  0  0  0
   45.8120   21.9570   50.5580 O   0  0  0  0  0  0
   47.5300   21.6630   53.3590 C   0  0  0  0  0  0
   48.2260   20.8950   54.5040 C   0  0  0  0  0  0
   47.7160   19.9040   55.0260 O   0  0  0  0  0  0
   49.3820   21.3040   54.9430 N   0  0  0  0  0  0
   45.8600   15.2170   50.1550 C   0  0  0  0  0  0
   45.1750   16.4960   50.6930 C   0  0  2  0  0  0
   44.9660   14.0850   49.5690 C   0  0  0  0  0  0
   46.1630   17.5610   51.2440 C   0  0  0  0  0  0
   44.3510   16.1030   51.7800 O   0  0  0  0  0  0
   45.5530   18.8660   51.7730 C   0  0  0  0  0  0
   44.3020   19.0870   51.7500 O   0  0  0  0  0  0
   43.7975   25.5756   50.0352 H   0  0  0  0  0  0
   45.0911   27.3922   52.1089 H   0  0  0  0  0  0
   42.6697   27.9809   51.8598 H   0  0  0  0  0  0
   43.6404   29.2822   51.0911 H   0  0  0  0  0  0
   41.7325   28.5557   49.5508 H   0  0  0  0  0  0
   45.1911   27.6914   49.0352 H   0  0  0  0  0  0
   45.9376   28.8288   50.2080 H   0  0  0  0  0  0
   46.7274   25.9448   49.7284 H   0  0  0  0  0  0
   47.2868   27.6116   47.8912 H   0  0  0  0  0  0
   48.7711   27.0561   48.7370 H   0  0  0  0  0  0
   48.0748   28.6693   49.1106 H   0  0  0  0  0  0
   47.1147   26.5627   52.0992 H   0  0  0  0  0  0
   47.9757   28.0533   51.5858 H   0  0  0  0  0  0
   48.6719   26.4401   51.2122 H   0  0  0  0  0  0
   44.4444   22.5697   53.3957 H   0  0  0  0  0  0
   43.8186   23.5586   50.5390 H   0  0  0  0  0  0
   42.2062   23.4716   53.1706 H   0  0  0  0  0  0
   41.6253   24.2627   51.6662 H   0  0  0  0  0  0
   42.0825   21.2876   52.1489 H   0  0  0  0  0  0
   40.5305   22.1470   51.8674 H   0  0  0  0  0  0
   43.1332   20.3170   50.4166 H   0  0  0  0  0  0
   42.6790   20.7210   48.6109 H   0  0  0  0  0  0
   47.5136   19.3750   52.2221 H   0  0  0  0  0  0
   45.4451   20.9861   53.7020 H   0  0  0  0  0  0
   48.2435   21.6753   52.5219 H   0  0  0  0  0  0
   47.3789   22.6885   53.7271 H   0  0  0  0  0  0
   49.8598   22.1872   54.4939 H   0  0  0  0  0  0
   49.8806   20.7662   55.7629 H   0  0  0  0  0  0
   46.5456   15.4845   49.3375 H   0  0  0  0  0  0
   46.4264   14.7356   50.9658 H   0  0  0  0  0  0
   44.5591   16.9363   49.8950 H   0  0  0  0  0  0
   45.6018   13.2527   49.2328 H   0  0  0  0  0  0
   44.3919   14.4757   48.7159 H   0  0  0  0  0  0
   44.2727   13.7269   50.3443 H   0  0  0  0  0  0
   46.7288   17.1354   52.0859 H   0  0  0  0  0  0
   46.8603   17.8609   50.4479 H   0  0  0  0  0  0
   43.5652   15.3481   51.6296 H   0  0  0  0  0  0
  1  2  1  0  0  0
  1 11  1  0  0  0
  1 33  1  0  0  0
  2  3  1  0  0  0
  2  5  1  0  0  0
  2 34  1  0  0  0
  3  4  1  0  0  0
  3 35  1  0  0  0
  3 36  1  0  0  0
  4 37  1  0  0  0
  5  6  1  0  0  0
  5 38  1  0  0  0
  5 39  1  0  0  0
  6  7  1  0  0  0
  6  8  1  0  0  0
  6 40  1  0  0  0
  7 41  1  0  0  0
  7 42  1  0  0  0
  7 43  1  0  0  0
  8 44  1  0  0  0
  8 45  1  0  0  0
  8 46  1  0  0  0
  9 10  1  0  0  0
  9 20  1  0  0  0
  9 47  1  0  0  0
 10 11  1  0  0  0
 10 13  1  0  0  0
 10 48  1  0  0  0
 11 12  2  0  0  0
 13 14  1  0  0  0
 13 49  1  0  0  0
 13 50  1  0  0  0
 14 15  1  0  0  0
 14 51  1  0  0  0
 14 52  1  0  0  0
 15 16  2  0  0  0
 15 17  1  0  0  0
 17 53  1  0  0  0
 17 54  1  0  0  0
 18 19  1  0  0  0
 18 31  1  0  0  0
 18 55  1  0  0  0
 19 20  1  0  0  0
 19 22  1  0  0  0
 19 56  1  0  0  0
 20 21  2  0  0  0
 22 23  1  0  0  0
 22 57  1  0  0  0
 22 58  1  0  0  0
 23 24  2  0  0  0
 23 25  1  0  0  0
 25 59  1  0  0  0
 25 60  1  0  0  0
 26 27  1  0  0  0
 26 28  1  0  0  0
 26 61  1  0  0  0
 26 62  1  0  0  0
 27 29  1  0  0  0
 27 30  1  0  0  0
 27 63  1  0  0  0
 28 64  1  0  0  0
 28 65  1  0  0  0
 28 66  1  0  0  0
 29 31  1  0  0  0
 29 67  1  0  0  0
 29 68  1  0  0  0
 30 69  1  0  0  0
 31 32  2  0  0  0
M  END
> <s_m_source_file>
../3krd_ligand.sdf

> <i_m_source_file_index>
1

> <s_epik_input>
W0NIM11bQ0hdKFtDSDNdKVtDSDJdW0NAQEhdKFtDSDJdW09IXSlbTkhdQyg9TylbQ0BIXShbQ0gyXVtDSDJdQyg9TylbTkgyXSlbTkhdQyg9TylbQ0BIXShbQ0gyXUMoPU8pW05IMl0pW05IXUMoPU8pW0NIMl1bQ0BIXShbT0hdKVtDSDJdW0NIM10=

> <s_epik_cmdline>
J2VwaWtfYXBwJywgJy1pbWFlJywgJ2xpZ2FuZF9wcm8ubWFlJywgJy1vbWFlJywgJ2xpZ2FuZF9wcmVwLm1hZScsICctbXMnLCAnMScsICctcGgnLCAnNycsICctcGh0JywgJzAuNScsICctbnQn

> <r_lp_tautomer_probability>
1

> <r_epik_Ionization_Penalty>
  0.0000

> <r_epik_Ionization_Penalty_Charging>
  0.0000

> <r_epik_Ionization_Penalty_Neutral>
  0.0000

> <r_epik_State_Penalty>
 -0.0000

> <r_epik_Charging_Adjusted_Penalty>
0

> <i_epik_Tot_Q>
0

> <i_epik_Tot_abs_Q>
0

$$$$
