3krj_ligand
                    3D
 Schrodinger Suite 2020-3.
 53 56  0  0  1  0            999 V2000
    7.7680   24.7790    4.4760 N   0  0  0  0  0  0
    8.1750   25.1810    5.4830 C   0  0  0  0  0  0
    8.6640   25.6850    6.7230 C   0  0  0  0  0  0
    9.6850   25.1970    7.5110 C   0  0  0  0  0  0
    9.7520   26.0480    8.6010 N   0  0  0  0  0  0
    8.8160   26.9840    8.4530 C   0  0  0  0  0  0
    8.1150   26.8190    7.3340 N   0  0  0  0  0  0
    8.6330   28.0060    9.5170 C   0  0  0  0  0  0
    9.2090   27.8790   10.6010 O   0  0  0  0  0  0
    7.8330   29.0140    9.1550 N   0  0  0  0  0  0
    7.3740   30.0960    9.9440 C   0  0  0  0  0  0
    7.5780   30.0390   11.3340 C   0  0  0  0  0  0
    7.1030   31.0480   12.1630 C   0  0  0  0  0  0
    6.4090   32.1570   11.6490 C   0  0  0  0  0  0
    6.1930   32.2330   10.2430 C   0  0  0  0  0  0
    6.6610   31.1950    9.3810 C   0  0  0  0  0  0
    6.4460   31.2990    7.9140 C   0  0  0  0  0  0
    5.7060   30.3750    7.2560 C   0  0  0  0  0  0
    5.5000   30.3350    5.7470 C   0  0  0  0  0  0
    6.6530   31.0070    4.9870 C   0  0  0  0  0  0
    6.9740   32.3660    5.6180 C   0  0  0  0  0  0
    7.3450   32.2360    7.1110 C   0  0  0  0  0  0
    5.9640   33.1700   12.7240 C   0  0  0  0  0  0
    4.4620   33.0150   13.1030 C   0  0  0  0  0  0
    3.7380   34.3240   13.4510 C   0  0  0  0  0  0
    4.6730   35.1550   14.1950 N   0  3  0  0  0  0
    5.5460   35.7390   13.1880 C   0  0  0  0  0  0
    6.4540   34.6400   12.5900 C   0  0  0  0  0  0
   10.3085   24.3243    7.3165 H   0  0  0  0  0  0
    7.4475   29.0680    8.1262 H   0  0  0  0  0  0
    8.1145   29.1942   11.7660 H   0  0  0  0  0  0
    7.2726   30.9778   13.2374 H   0  0  0  0  0  0
    5.6667   33.0897    9.8220 H   0  0  0  0  0  0
    5.1988   29.5759    7.8165 H   0  0  0  0  0  0
    5.4344   29.2888    5.4135 H   0  0  0  0  0  0
    4.5686   30.8608    5.4900 H   0  0  0  0  0  0
    7.5458   30.3661    5.0338 H   0  0  0  0  0  0
    6.3626   31.1551    3.9364 H   0  0  0  0  0  0
    7.8243   32.8233    5.0909 H   0  0  0  0  0  0
    6.0962   33.0240    5.5378 H   0  0  0  0  0  0
    7.2957   33.2479    7.5395 H   0  0  0  0  0  0
    8.3821   31.8716    7.1497 H   0  0  0  0  0  0
    6.5582   32.8535   13.5939 H   0  0  0  0  0  0
    3.9151   32.5690   12.2592 H   0  0  0  0  0  0
    4.3716   32.3629   13.9842 H   0  0  0  0  0  0
    3.4276   34.8289   12.5243 H   0  0  0  0  0  0
    2.8508   34.1011   14.0620 H   0  0  0  0  0  0
    4.1178   35.9277   14.7470 H   0  0  0  0  0  0
    5.2348   34.5298   14.9046 H   0  0  0  0  0  0
    4.9364   36.1851   12.3884 H   0  0  0  0  0  0
    6.1702   36.5176   13.6508 H   0  0  0  0  0  0
    7.4246   34.7505   13.0958 H   0  0  0  0  0  0
    6.5643   34.8942   11.5255 H   0  0  0  0  0  0
  1  2  3  0  0  0
  2  3  1  0  0  0
  3  4  2  0  0  0
  3  7  1  0  0  0
  4  5  1  0  0  0
  4 29  1  0  0  0
  5  6  1  0  0  0
  6  7  2  0  0  0
  6  8  1  0  0  0
  8  9  2  0  0  0
  8 10  1  0  0  0
 10 11  1  0  0  0
 10 30  1  0  0  0
 11 12  2  0  0  0
 11 16  1  0  0  0
 12 13  1  0  0  0
 12 31  1  0  0  0
 13 14  2  0  0  0
 13 32  1  0  0  0
 14 15  1  0  0  0
 14 23  1  0  0  0
 15 16  2  0  0  0
 15 33  1  0  0  0
 16 17  1  0  0  0
 17 18  2  0  0  0
 17 22  1  0  0  0
 18 19  1  0  0  0
 18 34  1  0  0  0
 19 20  1  0  0  0
 19 35  1  0  0  0
 19 36  1  0  0  0
 20 21  1  0  0  0
 20 37  1  0  0  0
 20 38  1  0  0  0
 21 22  1  0  0  0
 21 39  1  0  0  0
 21 40  1  0  0  0
 22 41  1  0  0  0
 22 42  1  0  0  0
 23 24  1  0  0  0
 23 28  1  0  0  0
 23 43  1  0  0  0
 24 25  1  0  0  0
 24 44  1  0  0  0
 24 45  1  0  0  0
 25 26  1  0  0  0
 25 46  1  0  0  0
 25 47  1  0  0  0
 26 27  1  0  0  0
 26 48  1  0  0  0
 26 49  1  0  0  0
 27 28  1  0  0  0
 27 50  1  0  0  0
 27 51  1  0  0  0
 28 52  1  0  0  0
 28 53  1  0  0  0
M  CHG  1  26   1
M  END
> <s_m_source_file>
../3krj_ligand.sdf

> <i_m_source_file_index>
1

> <s_epik_input>
TiNDYzFbY0hdW25IXWMobjEpQyg9TylbTkhdYzJbY0hdW2NIXWMoW0NIXTNbQ0gyXVtDSDJdW05IMitdW0NIMl1bQ0gyXTMpW2NIXWMyQzQ9W0NIXVtDSDJdW0NIMl1bQ0gyXVtDSDJdNA==

> <s_epik_cmdline>
J2VwaWtfYXBwJywgJy1pbWFlJywgJ2xpZ2FuZF9wcm8ubWFlJywgJy1vbWFlJywgJ2xpZ2FuZF9wcmVwLm1hZScsICctbXMnLCAnMScsICctcGgnLCAnNycsICctcGh0JywgJzAuNScsICctbnQn

> <r_epik_Ionization_Penalty>
  1.8008

> <r_epik_Ionization_Penalty_Charging>
  0.0006

> <r_epik_Ionization_Penalty_Neutral>
  1.8002

> <r_epik_State_Penalty>
  0.0030

> <r_epik_Charging_Adjusted_Penalty>
0.00355827567862308

> <i_epik_Tot_Q>
1

> <i_epik_Tot_abs_Q>
1

$$$$
