3krl_ligand
                    3D
 Schrodinger Suite 2020-3.
 57 60  0  0  1  0            999 V2000
    8.1660  -10.1870  -15.2590 C   0  0  0  0  0  0
    8.9680  -10.6690  -14.0880 N   0  3  0  0  0  0
    8.2890  -11.2250  -12.9100 C   0  0  0  0  0  0
    9.0150  -12.3240  -12.0420 C   0  0  0  0  0  0
   10.4400  -12.6830  -12.2400 N   0  0  0  0  0  0
   11.1180  -12.0050  -13.3810 C   0  0  0  0  0  0
   10.3990  -10.9200  -14.2730 C   0  0  0  0  0  0
   11.0890  -13.7670  -11.4060 C   0  0  0  0  0  0
   11.6190  -14.9620  -11.9140 C   0  0  0  0  0  0
   12.2890  -15.9300  -11.1360 C   0  0  0  0  0  0
   12.5060  -15.8050   -9.7490 C   0  0  0  0  0  0
   13.2370  -16.7340   -8.9050 N   0  0  0  0  0  0
   13.7550  -18.0270   -9.1080 C   0  0  0  0  0  0
   13.5830  -18.6950  -10.1250 O   0  0  0  0  0  0
   14.5520  -18.7330   -8.0300 C   0  0  0  0  0  0
   14.8940  -20.0650   -7.8730 C   0  0  0  0  0  0
   15.6480  -20.1510   -6.6460 C   0  0  0  0  0  0
   15.6960  -18.8620   -6.1510 C   0  0  0  0  0  0
   16.2480  -18.2080   -5.0220 C   0  0  0  0  0  0
   16.6850  -17.6520   -4.1040 N   0  0  0  0  0  0
   15.0290  -17.9910   -6.9830 O   0  0  0  0  0  0
   11.9930  -14.5890   -9.1890 C   0  0  0  0  0  0
   11.3160  -13.6340  -10.0040 C   0  0  0  0  0  0
   12.1830  -14.4650   -7.7290 N   0  0  0  0  0  0
   13.2100  -13.4530   -7.3840 C   0  0  0  0  0  0
   13.5060  -13.2160   -5.8910 C   0  0  0  0  0  0
   12.6010  -13.9840   -4.9440 C   0  0  0  0  0  0
   12.5450  -15.4330   -5.3820 C   0  0  0  0  0  0
   11.7700  -15.4780   -6.7140 C   0  0  0  0  0  0
    7.1183  -10.0487  -14.9538 H   0  0  0  0  0  0
    8.2170  -10.9296  -16.0689 H   0  0  0  0  0  0
    8.5742   -9.2290  -15.6136 H   0  0  0  0  0  0
    9.1151   -9.7129  -13.5643 H   0  0  0  0  0  0
    8.0714  -10.4165  -12.1966 H   0  0  0  0  0  0
    7.3482  -11.7030  -13.2206 H   0  0  0  0  0  0
    8.9859  -12.0322  -10.9818 H   0  0  0  0  0  0
    8.5039  -13.2895  -12.1707 H   0  0  0  0  0  0
   12.0028  -11.4648  -13.0132 H   0  0  0  0  0  0
   11.4289  -12.7564  -14.1217 H   0  0  0  0  0  0
   10.5824  -11.2526  -15.3053 H   0  0  0  0  0  0
   10.9615   -9.9945  -14.0805 H   0  0  0  0  0  0
   11.5059  -15.1559  -12.9806 H   0  0  0  0  0  0
   12.6596  -16.8249  -11.6359 H   0  0  0  0  0  0
   13.4858  -16.4576   -7.8698 H   0  0  0  0  0  0
   14.6432  -20.8867   -8.5439 H   0  0  0  0  0  0
   16.0873  -21.0447   -6.2028 H   0  0  0  0  0  0
   10.9431  -12.7326   -9.5177 H   0  0  0  0  0  0
   14.1739  -13.7428   -7.8277 H   0  0  0  0  0  0
   12.9052  -12.4722   -7.7779 H   0  0  0  0  0  0
   14.5386  -13.5232   -5.6687 H   0  0  0  0  0  0
   13.3829  -12.1481   -5.6578 H   0  0  0  0  0  0
   13.0020  -13.9207   -3.9216 H   0  0  0  0  0  0
   11.5907  -13.5495   -4.9692 H   0  0  0  0  0  0
   13.5677  -15.8151   -5.5166 H   0  0  0  0  0  0
   12.0292  -16.0285   -4.6143 H   0  0  0  0  0  0
   10.7091  -15.3331   -6.4620 H   0  0  0  0  0  0
   11.9146  -16.4883   -7.1243 H   0  0  0  0  0  0
  1  2  1  0  0  0
  1 30  1  0  0  0
  1 31  1  0  0  0
  1 32  1  0  0  0
  2  3  1  0  0  0
  2  7  1  0  0  0
  2 33  1  0  0  0
  3  4  1  0  0  0
  3 34  1  0  0  0
  3 35  1  0  0  0
  4  5  1  0  0  0
  4 36  1  0  0  0
  4 37  1  0  0  0
  5  6  1  0  0  0
  5  8  1  0  0  0
  6  7  1  0  0  0
  6 38  1  0  0  0
  6 39  1  0  0  0
  7 40  1  0  0  0
  7 41  1  0  0  0
  8  9  2  0  0  0
  8 23  1  0  0  0
  9 10  1  0  0  0
  9 42  1  0  0  0
 10 11  2  0  0  0
 10 43  1  0  0  0
 11 12  1  0  0  0
 11 22  1  0  0  0
 12 13  1  0  0  0
 12 44  1  0  0  0
 13 14  2  0  0  0
 13 15  1  0  0  0
 15 16  2  0  0  0
 15 21  1  0  0  0
 16 17  1  0  0  0
 16 45  1  0  0  0
 17 18  2  0  0  0
 17 46  1  0  0  0
 18 19  1  0  0  0
 18 21  1  0  0  0
 19 20  3  0  0  0
 22 23  2  0  0  0
 22 24  1  0  0  0
 23 47  1  0  0  0
 24 25  1  0  0  0
 24 29  1  0  0  0
 25 26  1  0  0  0
 25 48  1  0  0  0
 25 49  1  0  0  0
 26 27  1  0  0  0
 26 50  1  0  0  0
 26 51  1  0  0  0
 27 28  1  0  0  0
 27 52  1  0  0  0
 27 53  1  0  0  0
 28 29  1  0  0  0
 28 54  1  0  0  0
 28 55  1  0  0  0
 29 56  1  0  0  0
 29 57  1  0  0  0
M  CHG  1   2   1
M  END
> <s_m_source_file>
../3krl_ligand.sdf

> <i_m_source_file_index>
1

> <s_epik_input>
W0NIM11bTkgrXTFbQ0gyXVtDSDJdTihbQ0gyXVtDSDJdMSljMltjSF1bY0hdYyhbTkhdQyg9TyljM1tjSF1bY0hdYyhvMylDI04pYyhbY0hdMilONFtDSDJdW0NIMl1bQ0gyXVtDSDJdW0NIMl00

> <s_epik_cmdline>
J2VwaWtfYXBwJywgJy1pbWFlJywgJ2xpZ2FuZF9wcm8ubWFlJywgJy1vbWFlJywgJ2xpZ2FuZF9wcmVwLm1hZScsICctbXMnLCAnMScsICctcGgnLCAnNycsICctcGh0JywgJzAuNScsICctbnQn

> <r_lp_tautomer_probability>
1

> <r_epik_Ionization_Penalty>
  0.0797

> <r_epik_Ionization_Penalty_Charging>
  0.0647

> <r_epik_Ionization_Penalty_Neutral>
  0.0149

> <r_epik_State_Penalty>
 -0.0000

> <r_epik_Charging_Adjusted_Penalty>
0.0647487349615153

> <i_epik_Tot_Q>
1

> <i_epik_Tot_abs_Q>
1

$$$$
