3krw_ligand
                    3D
 Schrodinger Suite 2020-3.
 65 68  0  0  1  0            999 V2000
   34.9900   -3.2640   51.2520 C   0  0  0  0  0  0
   34.5380   -1.8230   51.3040 C   0  0  0  0  0  0
   35.4350   -0.8360   51.7090 C   0  0  0  0  0  0
   35.0470    0.5000   51.7610 C   0  0  0  0  0  0
   33.7560    0.8630   51.4060 C   0  0  0  0  0  0
   33.3730    2.1620   51.4540 O   0  0  0  0  0  0
   32.8540   -0.1090   50.9980 C   0  0  0  0  0  0
   33.2410   -1.4430   50.9470 C   0  0  0  0  0  0
   36.1350   -3.5390   51.5650 O   0  0  0  0  0  0
   34.1600   -4.2320   50.8670 N   0  0  0  0  0  0
   35.4330   -7.2280   49.1890 N   0  3  0  0  0  0
   34.7370   -5.9670   49.3300 C   0  0  0  0  0  0
   34.5750   -5.6160   50.8040 C   0  0  2  0  0  0
   33.5910   -6.4640   51.6130 C   0  0  1  0  0  0
   33.0280   -7.7090   50.9190 C   0  0  0  0  0  0
   34.0940   -8.7450   50.5660 C   0  0  0  0  0  0
   34.7010   -8.4770   49.1960 C   0  0  0  0  0  0
   34.3310   -6.8640   52.7610 O   0  0  0  0  0  0
   33.6790   -6.8710   54.0600 C   0  0  0  0  0  0
   32.5240   -6.5160   54.2190 O   0  0  0  0  0  0
   34.5130   -7.3910   55.1840 C   0  0  0  0  0  0
   34.0070   -7.4590   56.4840 C   0  0  0  0  0  0
   34.7910   -7.9580   57.5180 C   0  0  0  0  0  0
   34.3030   -8.0240   58.7850 O   0  5  0  0  0  0
   36.1690   -8.4190   57.2210 C   0  0  0  0  0  0
   36.6520   -8.3290   55.8190 C   0  0  0  0  0  0
   37.8940   -8.7280   55.4390 O   0  0  0  0  0  0
   35.8030   -7.8170   54.8600 C   0  0  0  0  0  0
   37.0250   -8.9810   58.3110 C   0  0  0  0  0  0
   36.6060   -9.0570   59.4510 O   0  0  0  0  0  0
   38.3870   -9.4830   57.9550 C   0  0  0  0  0  0
   39.5330   -8.5650   58.1070 C   0  0  0  0  0  0
   39.3330   -7.3070   58.5880 O   0  0  0  0  0  0
   40.8010   -9.0160   57.7640 C   0  0  0  0  0  0
   41.0020  -10.3110   57.2720 C   0  0  0  0  0  0
   39.9490  -11.2140   57.1030 C   0  0  0  0  0  0
   38.6370  -10.8540   57.4200 C   0  0  0  0  0  0
   37.5180  -11.8370   57.2250 C   0  0  0  0  0  0
   37.7690  -12.9760   56.7780 O   0  5  0  0  0  0
   36.3510  -11.5020   57.5110 O   0  0  0  0  0  0
   36.4515   -1.1133   51.9881 H   0  0  0  0  0  0
   35.7582    1.2615   52.0809 H   0  0  0  0  0  0
   34.0866    2.9342   51.7772 H   0  0  0  0  0  0
   31.8397    0.1741   50.7168 H   0  0  0  0  0  0
   32.5261   -2.2003   50.6254 H   0  0  0  0  0  0
   33.1320   -3.9530   50.5923 H   0  0  0  0  0  0
   35.9688   -7.2456   48.2285 H   0  0  0  0  0  0
   36.1529   -7.3436   50.0126 H   0  0  0  0  0  0
   35.3128   -5.1728   48.8324 H   0  0  0  0  0  0
   33.7421   -6.0435   48.8671 H   0  0  0  0  0  0
   35.5553   -5.7626   51.2811 H   0  0  0  0  0  0
   32.7116   -5.8603   51.8819 H   0  0  0  0  0  0
   32.2988   -8.1994   51.5807 H   0  0  0  0  0  0
   32.5327   -7.4141   49.9821 H   0  0  0  0  0  0
   34.8986   -8.7131   51.3153 H   0  0  0  0  0  0
   33.6418   -9.7477   50.5561 H   0  0  0  0  0  0
   33.8905   -8.4312   48.4537 H   0  0  0  0  0  0
   35.3826   -9.3029   48.9442 H   0  0  0  0  0  0
   32.9919   -7.1190   56.6890 H   0  0  0  0  0  0
   38.5911   -9.1400   56.1835 H   0  0  0  0  0  0
   36.1460   -7.7434   53.8280 H   0  0  0  0  0  0
   38.3185   -6.9741   58.8524 H   0  0  0  0  0  0
   41.6554   -8.3493   57.8801 H   0  0  0  0  0  0
   42.0129  -10.6253   57.0122 H   0  0  0  0  0  0
   40.1542  -12.2131   56.7185 H   0  0  0  0  0  0
  1  2  1  0  0  0
  1  9  2  0  0  0
  1 10  1  0  0  0
  2  3  2  0  0  0
  2  8  1  0  0  0
  3  4  1  0  0  0
  3 41  1  0  0  0
  4  5  2  0  0  0
  4 42  1  0  0  0
  5  6  1  0  0  0
  5  7  1  0  0  0
  6 43  1  0  0  0
  7  8  2  0  0  0
  7 44  1  0  0  0
  8 45  1  0  0  0
 10 13  1  0  0  0
 10 46  1  0  0  0
 11 12  1  0  0  0
 11 17  1  0  0  0
 11 47  1  0  0  0
 11 48  1  0  0  0
 12 13  1  0  0  0
 12 49  1  0  0  0
 12 50  1  0  0  0
 13 14  1  0  0  0
 13 51  1  0  0  0
 14 15  1  0  0  0
 14 18  1  0  0  0
 14 52  1  0  0  0
 15 16  1  0  0  0
 15 53  1  0  0  0
 15 54  1  0  0  0
 16 17  1  0  0  0
 16 55  1  0  0  0
 16 56  1  0  0  0
 17 57  1  0  0  0
 17 58  1  0  0  0
 18 19  1  0  0  0
 19 20  2  0  0  0
 19 21  1  0  0  0
 21 22  2  0  0  0
 21 28  1  0  0  0
 22 23  1  0  0  0
 22 59  1  0  0  0
 23 24  1  0  0  0
 23 25  2  0  0  0
 25 26  1  0  0  0
 25 29  1  0  0  0
 26 27  1  0  0  0
 26 28  2  0  0  0
 27 60  1  0  0  0
 28 61  1  0  0  0
 29 30  2  0  0  0
 29 31  1  0  0  0
 31 32  2  0  0  0
 31 37  1  0  0  0
 32 33  1  0  0  0
 32 34  1  0  0  0
 33 62  1  0  0  0
 34 35  2  0  0  0
 34 63  1  0  0  0
 35 36  1  0  0  0
 35 64  1  0  0  0
 36 37  2  0  0  0
 36 65  1  0  0  0
 37 38  1  0  0  0
 38 39  1  0  0  0
 38 40  2  0  0  0
M  CHG  3  11   1  24  -1  39  -1
M  END
> <s_m_source_file>
../3krw_ligand.sdf

> <i_m_source_file_index>
1

> <s_epik_input>
W2NIXTFbY0hdYyhbT0hdKVtjSF1bY0hdYzFDKD1PKVtOSF1bQ0BASF0yW0NIMl1bTkgyK11bQ0gyXVtDSDJdW0NIMl1bQ0BIXTJPQyg9TyljM1tjSF1jKFtPSF0pYyhjKFtPSF0pW2NIXTMpQyg9TyljNGMoW09IXSlbY0hdW2NIXVtjSF1jNEMoPU8pW09IXQ==

> <s_epik_cmdline>
J2VwaWtfYXBwJywgJy1pbWFlJywgJ2xpZ2FuZF9wcm8ubWFlJywgJy1vbWFlJywgJ2xpZ2FuZF9wcmVwLm1hZScsICctbXMnLCAnMScsICctcGgnLCAnNycsICctcGh0JywgJzAuNScsICctbnQn

> <r_lp_tautomer_probability>
0.999999999997365

> <r_epik_Ionization_Penalty>
  0.3148

> <r_epik_Ionization_Penalty_Charging>
  0.2589

> <r_epik_Ionization_Penalty_Neutral>
  0.0560

> <r_epik_State_Penalty>
  0.2414

> <r_epik_Charging_Adjusted_Penalty>
0.500210368598033

> <i_epik_Tot_Q>
-1

> <i_epik_Tot_abs_Q>
3

> <s_epik_Chemistry_Notes>
This compound has an ester and may undergo hydrolysis at high or low pH.

$$$$
