3kry_ligand
                    3D
 Schrodinger Suite 2020-3.
 58 60  0  0  1  0            999 V2000
  -10.5830   -0.1720    4.3190 S   0  0  0  0  0  0
  -10.0070   -0.9410    2.9040 C   0  0  0  0  0  0
  -10.9100   -1.4420    1.9630 C   0  0  0  0  0  0
  -10.4330   -2.0520    0.7960 C   0  0  0  0  0  0
   -9.0550   -2.1590    0.5620 C   0  0  0  0  0  0
   -8.1640   -1.6490    1.5010 C   0  0  0  0  0  0
   -8.6330   -1.0380    2.6680 C   0  0  0  0  0  0
  -10.6740    1.5490    4.0860 C   0  0  1  0  0  0
   -9.5980    2.0950    3.1350 C   0  0  0  0  0  0
   -8.3480    2.3700    3.5390 N   0  0  0  0  0  0
   -7.4900    2.6460    2.7150 O   0  0  0  0  0  0
   -9.5490   -0.5730    5.5940 O   0  0  0  0  0  0
  -12.0770   -0.8780    4.6500 O   0  0  0  0  0  0
   -9.8680    2.3430    1.9620 O   0  0  0  0  0  0
  -12.0720    1.7570    3.4630 C   0  0  0  0  0  0
  -12.5240    3.2250    3.4240 C   0  0  0  0  0  0
  -12.4630    3.7420    4.8150 N   0  0  3  0  0  0
  -11.0690    3.7960    5.3590 C   0  0  0  0  0  0
  -10.5330    2.3450    5.4030 C   0  0  0  0  0  0
  -13.7160    3.8470    5.6280 C   0  0  0  0  0  0
  -14.0760    2.5870    6.4300 C   0  0  0  0  0  0
  -15.3890    2.6810    7.0150 O   0  0  0  0  0  0
  -15.3550    2.6960    8.4490 C   0  0  0  0  0  0
   -8.5610   -2.7290   -0.5360 O   0  0  0  0  0  0
   -9.2290   -3.2680   -1.5660 C   0  0  0  0  0  0
   -9.9550   -2.4320   -2.4160 C   0  0  0  0  0  0
  -10.6650   -2.9550   -3.4900 C   0  0  0  0  0  0
  -10.6390   -4.3360   -3.6920 C   0  0  0  0  0  0
   -9.9280   -5.1890   -2.8450 C   0  0  0  0  0  0
   -9.2130   -4.6460   -1.7670 C   0  0  0  0  0  0
  -11.3350   -4.8270   -4.7070 O   0  0  0  0  0  0
  -10.8530   -5.2110   -6.0150 C   0  0  0  0  0  0
   -9.7850   -6.0110   -5.8860 F   0  0  0  0  0  0
  -10.4900   -4.1230   -6.7060 F   0  0  0  0  0  0
  -11.7890   -5.8770   -6.7200 F   0  0  0  0  0  0
  -11.9828   -1.3584    2.1366 H   0  0  0  0  0  0
  -11.1383   -2.4464    0.0645 H   0  0  0  0  0  0
   -7.0910   -1.7264    1.3254 H   0  0  0  0  0  0
   -7.9262   -0.6369    3.3944 H   0  0  0  0  0  0
  -12.0698    1.3894    2.4262 H   0  0  0  0  0  0
  -12.8202    1.2014    4.0474 H   0  0  0  0  0  0
  -11.8517    3.7984    2.7688 H   0  0  0  0  0  0
  -13.5514    3.2821    3.0352 H   0  0  0  0  0  0
  -10.4430    4.4181    4.7024 H   0  0  0  0  0  0
  -11.0862    4.2311    6.3691 H   0  0  0  0  0  0
  -11.0869    1.8316    6.2028 H   0  0  0  0  0  0
   -9.4702    2.4130    5.6784 H   0  0  0  0  0  0
  -13.6134    4.6654    6.3557 H   0  0  0  0  0  0
  -14.5682    4.0520    4.9634 H   0  0  0  0  0  0
  -14.0566    1.7111    5.7649 H   0  0  0  0  0  0
  -13.3462    2.4477    7.2411 H   0  0  0  0  0  0
  -16.3808    2.7686    8.8393 H   0  0  0  0  0  0
  -14.7697    3.5616    8.7928 H   0  0  0  0  0  0
  -14.8884    1.7693    8.8144 H   0  0  0  0  0  0
   -9.9651   -1.3571   -2.2353 H   0  0  0  0  0  0
  -11.2281   -2.3032   -4.1580 H   0  0  0  0  0  0
   -9.9286   -6.2649   -3.0196 H   0  0  0  0  0  0
   -8.6516   -5.2949   -1.0948 H   0  0  0  0  0  0
  1  2  1  0  0  0
  1  8  1  0  0  0
  1 12  2  0  0  0
  1 13  2  0  0  0
  2  3  2  0  0  0
  2  7  1  0  0  0
  3  4  1  0  0  0
  3 36  1  0  0  0
  4  5  2  0  0  0
  4 37  1  0  0  0
  5  6  1  0  0  0
  5 24  1  0  0  0
  6  7  2  0  0  0
  6 38  1  0  0  0
  7 39  1  0  0  0
  8  9  1  0  0  0
  8 15  1  0  0  0
  8 19  1  0  0  0
  9 10  1  0  0  0
  9 14  2  0  0  0
 10 11  2  0  0  0
 15 16  1  0  0  0
 15 40  1  0  0  0
 15 41  1  0  0  0
 16 17  1  0  0  0
 16 42  1  0  0  0
 16 43  1  0  0  0
 17 18  1  0  0  0
 17 20  1  0  0  0
 18 19  1  0  0  0
 18 44  1  0  0  0
 18 45  1  0  0  0
 19 46  1  0  0  0
 19 47  1  0  0  0
 20 21  1  0  0  0
 20 48  1  0  0  0
 20 49  1  0  0  0
 21 22  1  0  0  0
 21 50  1  0  0  0
 21 51  1  0  0  0
 22 23  1  0  0  0
 23 52  1  0  0  0
 23 53  1  0  0  0
 23 54  1  0  0  0
 24 25  1  0  0  0
 25 26  2  0  0  0
 25 30  1  0  0  0
 26 27  1  0  0  0
 26 55  1  0  0  0
 27 28  2  0  0  0
 27 56  1  0  0  0
 28 29  1  0  0  0
 28 31  1  0  0  0
 29 30  2  0  0  0
 29 57  1  0  0  0
 30 58  1  0  0  0
 31 32  1  0  0  0
 32 33  1  0  0  0
 32 34  1  0  0  0
 32 35  1  0  0  0
M  END
> <s_m_source_file>
../3kry_ligand.sdf

> <i_m_source_file_index>
1

> <s_epik_input>
W0NIM11PW0NIMl1bQ0gyXVtOQEBIK10oW0NIMl1bQ0gyXTEpW0NIMl1bQ0gyXVtDQF0xKEMoPU8pTj1PKVMoPU8pKD1PKWMyW2NIXVtjSF1jKFtjSF1bY0hdMilPYzNbY0hdW2NIXWMoW2NIXVtjSF0zKU9DKEYpKEYpRg==

> <s_epik_cmdline>
J2VwaWtfYXBwJywgJy1pbWFlJywgJ2xpZ2FuZF9wcm8ubWFlJywgJy1vbWFlJywgJ2xpZ2FuZF9wcmVwLm1hZScsICctbXMnLCAnMScsICctcGgnLCAnNycsICctcGh0JywgJzAuNScsICctbnQn

> <r_lp_tautomer_probability>
1

> <r_epik_Ionization_Penalty>
  0.0504

> <r_epik_Ionization_Penalty_Charging>
  0.0000

> <r_epik_Ionization_Penalty_Neutral>
  0.0504

> <r_epik_State_Penalty>
  0.0431

> <r_epik_Charging_Adjusted_Penalty>
0.0431186218830616

> <i_epik_Tot_Q>
0

> <i_epik_Tot_abs_Q>
0

$$$$
