3ksl_ligand
                    3D
 Schrodinger Suite 2020-3.
 47 46  0  0  1  0            999 V2000
  193.0670  123.5120   31.4730 C   0  0  0  0  0  0
  192.4360  122.9830   30.3950 C   0  0  0  0  0  0
  183.7190  121.1890   31.8760 C   0  0  0  0  0  0
  185.0910  120.7100   32.3270 C   0  0  0  0  0  0
  193.0540  122.6700   29.0830 C   0  0  0  0  0  0
  188.1740  122.2240   33.9570 C   0  0  0  0  0  0
  194.4940  123.9110   31.6950 C   0  0  0  0  0  0
  190.9450  122.6960   30.4300 C   0  0  0  0  0  0
  190.4740  121.3260   30.9310 C   0  0  0  0  0  0
  189.8280  121.3920   32.3330 C   0  0  0  0  0  0
  187.3710  121.2760   31.7220 C   0  0  0  0  0  0
  188.4590  122.0970   32.4510 C   0  0  1  0  0  0
  182.5390  120.3250   31.5530 C   0  0  0  0  0  0
  183.4780  123.6260   31.7060 N   0  0  0  0  0  0
  183.5640  122.4910   31.7760 N   0  0  0  0  0  0
  195.3320  123.6030   36.4530 O   0  5  0  0  0  0
  197.5170  124.4310   35.5120 O   0  0  0  0  0  0
  197.0350  125.4260   32.6640 O   0  5  0  0  0  0
  185.2470  119.6010   32.8250 O   0  0  0  0  0  0
  196.2510  122.6380   34.2020 O   0  5  0  0  0  0
  195.4870  127.3060   33.4140 O   0  0  0  0  0  0
  186.0370  121.6750   32.1130 O   0  0  0  0  0  0
  194.4610  125.2040   32.3120 O   0  0  0  0  0  0
  195.3220  124.9660   34.5000 O   0  0  0  0  0  0
  182.6590  118.9970   31.7060 F   0  0  0  0  0  0
  181.5050  120.5890   32.3750 F   0  0  0  0  0  0
  182.1080  120.5360   30.2820 F   0  0  0  0  0  0
  196.1840  123.7950   35.2280 P   0  0  0  0  0  0
  195.6660  125.8210   33.1820 P   0  0  1  0  0  0
  192.5027  123.7174   32.3946 H   0  0  0  0  0  0
  194.1295  122.8979   29.1206 H   0  0  0  0  0  0
  192.5777  123.2772   28.2992 H   0  0  0  0  0  0
  192.9130  121.6028   28.8566 H   0  0  0  0  0  0
  188.9714  122.8139   34.4326 H   0  0  0  0  0  0
  188.1396  121.2219   34.4094 H   0  0  0  0  0  0
  187.2072  122.7270   34.1060 H   0  0  0  0  0  0
  194.9831  123.1745   32.3495 H   0  0  0  0  0  0
  195.0188  123.9487   30.7290 H   0  0  0  0  0  0
  190.4473  123.4219   31.0898 H   0  0  0  0  0  0
  190.5314  122.7802   29.4142 H   0  0  0  0  0  0
  189.7261  120.9183   30.2349 H   0  0  0  0  0  0
  191.3331  120.6414   30.9884 H   0  0  0  0  0  0
  189.6645  120.3716   32.7098 H   0  0  0  0  0  0
  190.4956  121.9336   33.0192 H   0  0  0  0  0  0
  187.4681  121.4213   30.6360 H   0  0  0  0  0  0
  187.4942  120.2095   31.9617 H   0  0  0  0  0  0
  188.4618  123.0921   31.9822 H   0  0  0  0  0  0
  1  2  2  0  0  0
  1  7  1  0  0  0
  1 30  1  0  0  0
  2  5  1  0  0  0
  2  8  1  0  0  0
  3  4  1  0  0  0
  3 13  1  0  0  0
  3 15  2  0  0  0
  4 19  2  0  0  0
  4 22  1  0  0  0
  5 31  1  0  0  0
  5 32  1  0  0  0
  5 33  1  0  0  0
  6 12  1  0  0  0
  6 34  1  0  0  0
  6 35  1  0  0  0
  6 36  1  0  0  0
  7 23  1  0  0  0
  7 37  1  0  0  0
  7 38  1  0  0  0
  8  9  1  0  0  0
  8 39  1  0  0  0
  8 40  1  0  0  0
  9 10  1  0  0  0
  9 41  1  0  0  0
  9 42  1  0  0  0
 10 12  1  0  0  0
 10 43  1  0  0  0
 10 44  1  0  0  0
 11 12  1  0  0  0
 11 22  1  0  0  0
 11 45  1  0  0  0
 11 46  1  0  0  0
 12 47  1  0  0  0
 13 25  1  0  0  0
 13 26  1  0  0  0
 13 27  1  0  0  0
 14 15  3  0  0  0
 16 28  1  0  0  0
 17 28  2  0  0  0
 18 29  1  0  0  0
 20 28  1  0  0  0
 21 29  2  0  0  0
 23 29  1  0  0  0
 24 28  1  0  0  0
 24 29  1  0  0  0
M  CHG  3  16  -1  18  -1  20  -1
M  END
> <s_m_source_file>
../3ksl_ligand.sdf

> <i_m_source_file_index>
1

> <s_epik_input>
W09IXVAoPU8pKFtPSF0pT1tQQEBdKD1PKShbT0hdKU9bQ0gyXS9bQ0hdPUMoXFtDSDNdKVtDSDJdW0NIMl1bQ0gyXVtDQEhdKFtDSDNdKVtDSDJdT0MoPU8pQyhDKEYpKEYpRik9TiNO

> <s_epik_cmdline>
J2VwaWtfYXBwJywgJy1pbWFlJywgJ2xpZ2FuZF9wcm8ubWFlJywgJy1vbWFlJywgJ2xpZ2FuZF9wcmVwLm1hZScsICctbXMnLCAnMScsICctcGgnLCAnNycsICctcGh0JywgJzAuNScsICctbnQn

> <r_epik_Ionization_Penalty>
  0.0894

> <r_epik_Ionization_Penalty_Charging>
  0.0894

> <r_epik_Ionization_Penalty_Neutral>
  0.0000

> <r_epik_State_Penalty>
  0.0784

> <r_epik_Charging_Adjusted_Penalty>
0.167821281463993

> <i_epik_Tot_Q>
-3

> <i_epik_Tot_abs_Q>
3

> <s_epik_Chemistry_Notes>
This compound has an ester and may undergo hydrolysis at high or low pH. This compound has an imine and may undergo hydrolysis.

$$$$
