3ksq_ligand
                    3D
 Schrodinger Suite 2020-3.
 69 73  0  0  1  0            999 V2000
  190.7520  128.8210   28.4600 Cl  0  0  0  0  0  0
  187.0420  129.7240   29.9270 C   0  0  0  0  0  0
  186.1500  132.2020   35.1530 N   0  0  0  0  0  0
  184.7380  133.3970   36.3590 O   0  0  0  0  0  0
  185.3960  127.7440   32.3520 C   0  0  0  0  0  0
  190.4640  125.8920   34.9210 N   0  0  0  0  0  0
  186.4650  134.4930   35.3750 O   0  0  0  0  0  0
  186.1740  126.6770   33.0330 C   0  0  0  0  0  0
  190.4160  126.6600   37.0160 N   0  0  0  0  0  0
  190.0190  129.4140   33.9310 O   0  0  0  0  0  0
  185.5730  125.3920   33.1740 C   0  0  0  0  0  0
  184.1290  127.4630   31.8610 N   0  0  0  0  0  0
  184.2510  125.1450   32.6710 C   0  0  0  0  0  0
  186.3060  129.9690   33.3310 N   0  0  0  0  0  0
  185.9490  129.1670   32.1310 C   0  0  1  0  0  0
  187.1250  129.0690   31.2190 C   0  0  0  0  0  0
  188.3730  128.3780   31.6420 C   0  0  0  0  0  0
  188.5560  127.7200   33.0080 C   0  0  0  0  0  0
  183.5630  126.2290   32.0120 C   0  0  0  0  0  0
  189.9360  128.0040   33.6840 C   0  0  2  0  0  0
  187.5530  126.9630   33.5870 C   0  0  0  0  0  0
  188.1580  129.6340   29.0350 C   0  0  0  0  0  0
  189.3610  128.9350   29.4620 C   0  0  0  0  0  0
  189.4710  128.3180   30.7450 C   0  0  0  0  0  0
  186.9780  131.2640   32.9890 C   0  0  0  0  0  0
  187.3380  132.0610   34.2810 C   0  0  0  0  0  0
  185.4520  130.9290   35.4260 C   0  0  0  0  0  0
  185.0750  130.2040   34.1380 C   0  0  0  0  0  0
  190.1440  127.6830   36.2660 C   0  0  0  0  0  0
  186.1680  136.1120   37.2810 C   0  0  0  0  0  0
  190.5620  125.0140   33.7330 C   0  0  0  0  0  0
  187.3840  136.6740   35.1910 C   0  0  0  0  0  0
  185.7250  133.3920   35.6790 C   0  0  0  0  0  0
  184.8020  136.3230   35.1630 C   0  0  0  0  0  0
  190.1870  127.2070   34.9630 C   0  0  0  0  0  0
  190.6110  125.5250   36.2320 C   0  0  0  0  0  0
  186.1740  135.8790   35.7640 C   0  0  0  0  0  0
  186.1460  130.2747   29.6407 H   0  0  0  0  0  0
  189.8619  130.1267   33.1080 H   0  0  0  0  0  0
  186.1218  124.5901   33.6679 H   0  0  0  0  0  0
  183.7811  124.1679   32.7835 H   0  0  0  0  0  0
  185.1309  129.7672   31.7061 H   0  0  0  0  0  0
  182.5596  126.0576   31.6223 H   0  0  0  0  0  0
  190.7653  127.7432   33.0101 H   0  0  0  0  0  0
  187.7179  126.4874   34.5651 H   0  0  0  0  0  0
  188.1072  130.0853   28.0441 H   0  0  0  0  0  0
  190.3893  127.8060   31.0326 H   0  0  0  0  0  0
  187.9028  131.0605   32.4293 H   0  0  0  0  0  0
  186.3031  131.8756   32.3722 H   0  0  0  0  0  0
  187.7032  133.0584   33.9948 H   0  0  0  0  0  0
  188.1292  131.5226   34.8234 H   0  0  0  0  0  0
  186.1075  130.2703   36.0145 H   0  0  0  0  0  0
  184.5306  131.1301   35.9921 H   0  0  0  0  0  0
  184.3698  130.8195   33.5602 H   0  0  0  0  0  0
  184.6059  129.2391   34.3807 H   0  0  0  0  0  0
  189.9275  128.7008   36.5905 H   0  0  0  0  0  0
  187.1341  135.7993   37.7038 H   0  0  0  0  0  0
  185.3595  135.5234   37.7392 H   0  0  0  0  0  0
  186.0060  137.1803   37.4872 H   0  0  0  0  0  0
  190.3950  125.6087   32.8228 H   0  0  0  0  0  0
  189.8011  124.2223   33.7985 H   0  0  0  0  0  0
  191.5626  124.5587   33.6951 H   0  0  0  0  0  0
  188.3134  136.3120   35.6550 H   0  0  0  0  0  0
  187.2569  137.7442   35.4111 H   0  0  0  0  0  0
  187.4365  136.5273   34.1021 H   0  0  0  0  0  0
  183.9949  135.7236   35.6095 H   0  0  0  0  0  0
  184.8124  136.1706   34.0737 H   0  0  0  0  0  0
  184.6327  137.3875   35.3827 H   0  0  0  0  0  0
  190.8397  124.5237   36.5970 H   0  0  0  0  0  0
  1 23  1  0  0  0
  2 16  2  0  0  0
  2 22  1  0  0  0
  2 38  1  0  0  0
  3 26  1  0  0  0
  3 27  1  0  0  0
  3 33  1  0  0  0
  4 33  2  0  0  0
  5  8  2  0  0  0
  5 12  1  0  0  0
  5 15  1  0  0  0
  6 31  1  0  0  0
  6 35  1  0  0  0
  6 36  1  0  0  0
  7 33  1  0  0  0
  7 37  1  0  0  0
  8 11  1  0  0  0
  8 21  1  0  0  0
  9 29  1  0  0  0
  9 36  2  0  0  0
 10 20  1  0  0  0
 10 39  1  0  0  0
 11 13  2  0  0  0
 11 40  1  0  0  0
 12 19  2  0  0  0
 13 19  1  0  0  0
 13 41  1  0  0  0
 14 15  1  0  0  0
 14 25  1  0  0  0
 14 28  1  0  0  0
 15 16  1  0  0  0
 15 42  1  0  0  0
 16 17  1  0  0  0
 17 18  1  0  0  0
 17 24  2  0  0  0
 18 20  1  0  0  0
 18 21  2  0  0  0
 19 43  1  0  0  0
 20 35  1  0  0  0
 20 44  1  0  0  0
 21 45  1  0  0  0
 22 23  2  0  0  0
 22 46  1  0  0  0
 23 24  1  0  0  0
 24 47  1  0  0  0
 25 26  1  0  0  0
 25 48  1  0  0  0
 25 49  1  0  0  0
 26 50  1  0  0  0
 26 51  1  0  0  0
 27 28  1  0  0  0
 27 52  1  0  0  0
 27 53  1  0  0  0
 28 54  1  0  0  0
 28 55  1  0  0  0
 29 35  2  0  0  0
 29 56  1  0  0  0
 30 37  1  0  0  0
 30 57  1  0  0  0
 30 58  1  0  0  0
 30 59  1  0  0  0
 31 60  1  0  0  0
 31 61  1  0  0  0
 31 62  1  0  0  0
 32 37  1  0  0  0
 32 63  1  0  0  0
 32 64  1  0  0  0
 32 65  1  0  0  0
 34 37  1  0  0  0
 34 66  1  0  0  0
 34 67  1  0  0  0
 34 68  1  0  0  0
 36 69  1  0  0  0
M  END
> <s_m_source_file>
../3ksq_ligand.sdf

> <i_m_source_file_index>
1

> <s_epik_input>
bjFbY0hdW2NIXVtjSF1jKGMxMilbQ0hdPUMoW0NAQEhdKFtPSF0pYyhuM1tDSDNdKVtjSF1uW2NIXTMpYzRjKFtjSF1bY0hdYyhDbClbY0hdNClbQ0BASF0yW05IK10oW0NIMl1bQ0gyXTUpW0NIMl1bQ0gyXU41Qyg9TylPQyhbQ0gzXSkoW0NIM10pW0NIM10=

> <s_epik_cmdline>
J2VwaWtfYXBwJywgJy1pbWFlJywgJ2xpZ2FuZF9wcm8ubWFlJywgJy1vbWFlJywgJ2xpZ2FuZF9wcmVwLm1hZScsICctbXMnLCAnMScsICctcGgnLCAnNycsICctcGh0JywgJzAuNScsICctbnQn

> <r_lp_tautomer_probability>
1

> <r_epik_Ionization_Penalty>
  0.3730

> <r_epik_Ionization_Penalty_Charging>
  0.3042

> <r_epik_Ionization_Penalty_Neutral>
  0.0688

> <r_epik_State_Penalty>
  0.2979

> <r_epik_Charging_Adjusted_Penalty>
0.602086652919542

> <i_epik_Tot_Q>
0

> <i_epik_Tot_abs_Q>
0

> <s_epik_Chemistry_Notes>
This compound has an ester and may undergo hydrolysis at high or low pH.

$$$$
