3ktr_ligand
                    3D
 Schrodinger Suite 2020-3.
257260  0  0  1  0            999 V2000
    0.1930   10.4640    3.7990 N   0  3  0  0  0  0
   -1.0650   10.1840    4.5660 C   0  0  2  0  0  0
   -2.2060   11.0980    4.1120 C   0  0  0  0  0  0
   -1.9890   12.0490    3.3600 O   0  0  0  0  0  0
   -0.8590   10.2440    6.1150 C   0  0  2  0  0  0
   -1.1260   11.5640    6.6130 O   0  0  0  0  0  0
    0.5570    9.8070    6.5180 C   0  0  0  0  0  0
   -3.4090   10.8120    4.6010 N   0  0  0  0  0  0
   -4.6460   11.4150    4.1100 C   0  0  2  0  0  0
   -4.9000   12.7960    4.7190 C   0  0  0  0  0  0
   -4.8590   12.9560    5.9380 O   0  0  0  0  0  0
   -5.8160   10.4790    4.4160 C   0  0  0  0  0  0
   -5.6670    9.0360    3.9070 C   0  0  0  0  0  0
   -6.6490    8.0940    4.5980 C   0  0  0  0  0  0
   -5.8370    8.9910    2.3990 C   0  0  0  0  0  0
   -5.1410   13.7780    3.8540 N   0  0  0  0  0  0
   -5.3940   15.1570    4.2770 C   0  0  2  0  0  0
   -6.8780   15.4880    4.1130 C   0  0  0  0  0  0
   -7.3960   15.5130    2.9720 O   0  0  0  0  0  0
   -4.5100   16.1360    3.4520 C   0  0  0  0  0  0
   -4.6130   17.5940    3.9250 C   0  0  0  0  0  0
   -5.6110   17.9990    4.4710 O   0  0  0  0  0  0
   -3.5770   18.3920    3.6640 N   0  0  0  0  0  0
   -7.5680   15.7600    5.2320 N   0  0  0  0  0  0
   -8.9930   16.0460    5.1940 C   0  0  2  0  0  0
   -9.2990   17.3790    4.5190 C   0  0  0  0  0  0
  -10.4700   17.6810    4.3160 O   0  0  0  0  0  0
   -9.3840   16.0940    6.6810 C   0  0  0  0  0  0
   -8.1140   16.5380    7.3550 C   0  0  0  0  0  0
   -7.0460   15.8180    6.6090 C   0  0  0  0  0  0
   -8.2700   18.1710    4.1890 N   0  0  0  0  0  0
   -8.4600   19.4000    3.4200 C   0  0  2  0  0  0
   -8.3610   19.2160    1.9110 C   0  0  0  0  0  0
   -8.4190   20.1690    1.1770 O   0  0  0  0  0  0
   -7.4580   20.4750    3.8880 C   0  0  0  0  0  0
   -7.7570   20.9560    5.2570 C   0  0  0  0  0  0
   -8.9280   21.1270    5.6370 O   0  0  0  0  0  0
   -6.7160   21.2310    6.0100 N   0  0  0  0  0  0
   -8.2650   17.9710    1.4510 N   0  0  0  0  0  0
   -8.1580   17.6900    0.0240 C   0  0  2  0  0  0
   -9.3420   18.2090   -0.7970 C   0  0  0  0  0  0
  -10.4740   18.3120   -0.2960 O   0  0  0  0  0  0
   -7.9940   16.1940   -0.1940 C   0  0  0  0  0  0
   -9.0650   18.5450   -2.0600 N   0  0  0  0  0  0
  -10.0950   18.9420   -3.0160 C   0  0  2  0  0  0
  -11.1470   17.8450   -3.1250 C   0  0  0  0  0  0
  -10.8010   16.6770   -3.3240 O   0  0  0  0  0  0
   -9.4980   19.0910   -4.4240 C   0  0  0  0  0  0
   -8.5660   20.2360   -4.6550 C   0  0  0  0  0  0
   -7.8080   20.0370   -5.9660 C   0  0  0  0  0  0
   -6.9870   21.2670   -6.3540 C   0  0  0  0  0  0
   -5.8970   21.5710   -5.3780 N   0  3  0  0  0  0
  -12.4210   18.2090   -3.0380 N   0  0  0  0  0  0
  -13.4790   17.2380   -3.3120 C   0  0  2  0  0  0
  -13.4500   16.7920   -4.7770 C   0  0  0  0  0  0
  -13.1230   17.5700   -5.6720 O   0  0  0  0  0  0
  -14.8560   17.8020   -2.9630 C   0  0  0  0  0  0
  -15.0210   18.1410   -1.4800 C   0  0  0  0  0  0
  -16.4740   18.2870   -1.0700 C   0  0  0  0  0  0
  -16.7320   18.7410    0.0670 O   0  0  0  0  0  0
  -17.3540   17.9420   -1.8920 O   0  0  0  0  0  0
  -13.7960   15.5270   -4.9940 N   0  0  0  0  0  0
  -13.8900   14.9610   -6.3280 C   0  0  2  0  0  0
  -15.2820   15.1610   -6.9110 C   0  0  0  0  0  0
  -16.2810   14.9230   -6.2340 O   0  0  0  0  0  0
  -13.5810   13.4600   -6.2740 C   0  0  0  0  0  0
  -13.6940   12.8010   -7.5930 C   0  0  0  0  0  0
  -12.7090   12.9780   -8.5540 C   0  0  0  0  0  0
  -14.8330   12.0390   -7.9120 C   0  0  0  0  0  0
  -12.8410   12.3810   -9.8150 C   0  0  0  0  0  0
  -14.9750   11.4450   -9.1670 C   0  0  0  0  0  0
  -13.9740   11.6300  -10.1250 C   0  0  0  0  0  0
  -15.3310   15.5560   -8.1870 N   0  0  0  0  0  0
  -16.5920   15.6600   -8.9130 C   0  0  2  0  0  0
  -16.7030   14.6190  -10.0340 C   0  0  0  0  0  0
  -15.9480   14.6680  -11.0090 O   0  0  0  0  0  0
  -16.7780   17.0920   -9.4210 C   0  0  0  0  0  0
  -16.6700   18.1290   -8.2910 C   0  0  0  0  0  0
  -17.2620   17.9690   -7.2120 O   0  0  0  0  0  0
  -15.9120   19.1940   -8.5370 N   0  0  0  0  0  0
  -17.6270   13.6490   -9.8800 N   0  0  0  0  0  0
  -17.7990   12.6020  -10.8850 C   0  0  2  0  0  0
  -18.5180   13.1570  -12.1100 C   0  0  0  0  0  0
  -19.1090   14.2530  -12.0440 O   0  0  0  0  0  0
  -18.6940   11.5930  -10.1700 C   0  0  0  0  0  0
  -19.5350   12.4430   -9.2830 C   0  0  0  0  0  0
  -18.5860   13.5080   -8.7740 C   0  0  0  0  0  0
  -18.4630   12.4070  -13.2080 N   0  0  0  0  0  0
  -19.1860   12.7610  -14.4260 C   0  0  2  0  0  0
  -20.6780   12.6660  -14.1870 C   0  0  0  0  0  0
  -21.4530   13.4410  -14.7500 O   0  0  0  0  0  0
  -18.7700   11.8350  -15.5740 C   0  0  0  0  0  0
  -19.6180   11.9930  -16.8400 C   0  0  0  0  0  0
  -18.8830   11.5280  -18.0740 C   0  0  0  0  0  0
  -19.6270   11.8420  -19.2960 N   0  0  0  0  0  0
  -19.5290   12.9920  -19.9650 C   0  0  0  0  0  0
  -18.7220   13.9590  -19.5320 N   0  0  0  0  0  0
  -20.2350   13.1780  -21.0740 N   0  0  0  0  0  0
  -21.0700   11.6900  -13.3680 N   0  0  0  0  0  0
  -22.4600   11.5560  -12.9100 C   0  0  2  0  0  0
  -22.5160   10.8580  -11.5400 C   0  0  0  0  0  0
  -21.5970   10.1470  -11.1720 O   0  0  0  0  0  0
  -23.3080   10.7860  -13.9390 C   0  0  0  0  0  0
  -22.9820    9.4000  -13.9780 O   0  0  0  0  0  0
  -23.6200   11.0590  -10.8130 N   0  0  0  0  0  0
  -23.8350   10.4510   -9.4940 C   0  0  2  0  0  0
  -24.4940    9.0830   -9.5770 C   0  0  0  0  0  0
  -24.4000    8.2830   -8.6400 O   0  0  0  0  0  0
  -24.6660   11.3720   -8.5930 C   0  0  0  0  0  0
  -23.9110   12.5710   -8.1140 C   0  0  0  0  0  0
  -24.1320   13.8170   -8.6810 C   0  0  0  0  0  0
  -22.9530   12.4520   -7.1130 C   0  0  0  0  0  0
  -23.4060   14.9260   -8.2380 C   0  0  0  0  0  0
  -22.2080   13.5580   -6.6830 C   0  0  0  0  0  0
  -22.4390   14.7890   -7.2410 C   0  0  0  0  0  0
  -25.1770    8.8330  -10.6940 N   0  0  0  0  0  0
  -25.7710    7.5290  -10.9910 C   0  0  2  0  0  0
  -24.6810    6.4770  -11.1510 C   0  0  0  0  0  0
  -24.9630    5.2760  -11.1510 O   0  0  0  0  0  0
  -26.6510    7.5970  -12.2400 C   0  0  0  0  0  0
  -26.1400    8.5320  -13.1760 O   0  0  0  0  0  0
  -23.4430    6.9540  -11.3060 N   0  0  0  0  0  0
  -22.2440    6.1610  -11.0670 C   0  0  2  0  0  0
  -22.3810    5.5530   -9.6820 C   0  0  0  0  0  0
  -22.7200    4.3800   -9.5110 O   0  0  0  0  0  0
  -20.9920    7.0560  -11.0840 C   0  0  0  0  0  0
  -20.5550    7.5330  -12.4550 C   0  0  0  0  0  0
  -19.1800    8.1930  -12.4420 C   0  0  0  0  0  0
  -18.2000    7.6290  -11.9370 O   0  0  0  0  0  0
  -19.0960    9.3850  -13.0260 N   0  0  0  0  0  0
  -22.1690    6.2520   -8.6920 O   0  0  0  0  0  0
   -0.0150   10.4075    2.7203 H   0  0  0  0  0  0
    0.9577    9.7192    4.0645 H   0  0  0  0  0  0
    0.5589   11.4706    4.0497 H   0  0  0  0  0  0
   -1.3310    9.1514    4.2959 H   0  0  0  0  0  0
   -1.5950    9.6017    6.6207 H   0  0  0  0  0  0
   -2.0985   12.0393    6.4175 H   0  0  0  0  0  0
    0.7522    8.7955    6.1324 H   0  0  0  0  0  0
    0.6416    9.8040    7.6147 H   0  0  0  0  0  0
    1.2914   10.5086    6.0955 H   0  0  0  0  0  0
   -3.4421   10.0776    5.4193 H   0  0  0  0  0  0
   -4.5019   11.5368    3.0263 H   0  0  0  0  0  0
   -5.9542   10.4087    5.5050 H   0  0  0  0  0  0
   -6.7328   10.8751    3.9549 H   0  0  0  0  0  0
   -4.6539    8.6809    4.1468 H   0  0  0  0  0  0
   -6.5035    8.1472    5.6870 H   0  0  0  0  0  0
   -6.4727    7.0641    4.2543 H   0  0  0  0  0  0
   -7.6786    8.3919    4.3507 H   0  0  0  0  0  0
   -5.1182    9.6779    1.9283 H   0  0  0  0  0  0
   -6.8609    9.2951    2.1362 H   0  0  0  0  0  0
   -5.6550    7.9673    2.0399 H   0  0  0  0  0  0
   -5.1456   13.5212    2.7844 H   0  0  0  0  0  0
   -5.1318   15.2091    5.3440 H   0  0  0  0  0  0
   -3.4551   15.8351    3.5339 H   0  0  0  0  0  0
   -4.8185   16.1078    2.3965 H   0  0  0  0  0  0
   -2.6838   17.9882    3.1649 H   0  0  0  0  0  0
   -3.6157   19.4541    3.9478 H   0  0  0  0  0  0
   -9.5045   15.2767    4.5968 H   0  0  0  0  0  0
  -10.2077   16.8096    6.8206 H   0  0  0  0  0  0
   -9.7073   15.0946    7.0076 H   0  0  0  0  0  0
   -8.0166   17.6304    7.2705 H   0  0  0  0  0  0
   -8.1438   16.2536    8.4172 H   0  0  0  0  0  0
   -6.8887   14.7962    6.9848 H   0  0  0  0  0  0
   -6.0902   16.3625    6.6162 H   0  0  0  0  0  0
   -7.2612   17.8751    4.5126 H   0  0  0  0  0  0
   -9.5027   19.6730    3.6397 H   0  0  0  0  0  0
   -6.4417   20.0542    3.8867 H   0  0  0  0  0  0
   -7.4990   21.3365    3.2053 H   0  0  0  0  0  0
   -5.6993   21.0614    5.6260 H   0  0  0  0  0  0
   -6.8612   21.6309    7.0244 H   0  0  0  0  0  0
   -8.2677   17.1436    2.1758 H   0  0  0  0  0  0
   -7.2598   18.2447   -0.2852 H   0  0  0  0  0  0
   -7.1423   15.8284    0.3984 H   0  0  0  0  0  0
   -7.8105   15.9968   -1.2605 H   0  0  0  0  0  0
   -8.9106   15.6747    0.1225 H   0  0  0  0  0  0
   -8.0099   18.5137   -2.3696 H   0  0  0  0  0  0
  -10.4987   19.8864   -2.6221 H   0  0  0  0  0  0
   -8.9212   18.1886   -4.6751 H   0  0  0  0  0  0
  -10.3099   19.2222   -5.1545 H   0  0  0  0  0  0
   -9.1413   21.1720   -4.7084 H   0  0  0  0  0  0
   -7.8454   20.2953   -3.8260 H   0  0  0  0  0  0
   -7.1190   19.1854   -5.8655 H   0  0  0  0  0  0
   -8.5239   19.8358   -6.7766 H   0  0  0  0  0  0
   -6.5202   21.1014   -7.3362 H   0  0  0  0  0  0
   -7.6457   22.1465   -6.4048 H   0  0  0  0  0  0
   -5.3449   22.4623   -5.7109 H   0  0  0  0  0  0
   -5.2091   20.7147   -5.3181 H   0  0  0  0  0  0
   -6.3347   21.7598   -4.3866 H   0  0  0  0  0  0
  -12.6803   19.2411   -2.7598 H   0  0  0  0  0  0
  -13.2522   16.3865   -2.6536 H   0  0  0  0  0  0
  -15.0284   18.7271   -3.5326 H   0  0  0  0  0  0
  -15.6303   17.0639   -3.2194 H   0  0  0  0  0  0
  -14.5779   17.3405   -0.8694 H   0  0  0  0  0  0
  -14.5128   19.0920   -1.2625 H   0  0  0  0  0  0
  -18.4182   18.0337   -1.6293 H   0  0  0  0  0  0
  -14.0152   14.9029   -4.1151 H   0  0  0  0  0  0
  -13.1509   15.5103   -6.9296 H   0  0  0  0  0  0
  -12.5533   13.3100   -5.9117 H   0  0  0  0  0  0
  -14.2866   12.9647   -5.5907 H   0  0  0  0  0  0
  -11.8307   13.5826   -8.3277 H   0  0  0  0  0  0
  -15.6177   11.9104   -7.1665 H   0  0  0  0  0  0
  -12.0531   12.5046  -10.5580 H   0  0  0  0  0  0
  -15.8551   10.8446   -9.3971 H   0  0  0  0  0  0
  -14.0793   11.1867  -11.1152 H   0  0  0  0  0  0
  -14.3849   15.8060   -8.6894 H   0  0  0  0  0  0
  -17.3765   15.4264   -8.1781 H   0  0  0  0  0  0
  -16.0033   17.3195  -10.1681 H   0  0  0  0  0  0
  -17.7720   17.1915   -9.8815 H   0  0  0  0  0  0
  -15.4049   19.2958   -9.5078 H   0  0  0  0  0  0
  -15.7922   19.9730   -7.7696 H   0  0  0  0  0  0
  -16.8294   12.2033  -11.2179 H   0  0  0  0  0  0
  -19.2912   11.0424  -10.9117 H   0  0  0  0  0  0
  -18.0699   10.8859   -9.6038 H   0  0  0  0  0  0
  -20.3629   12.8737   -9.8653 H   0  0  0  0  0  0
  -19.9419   11.8296   -8.4656 H   0  0  0  0  0  0
  -18.0523   13.1994   -7.8630 H   0  0  0  0  0  0
  -19.0862   14.4716   -8.5973 H   0  0  0  0  0  0
  -17.8484   11.4952  -13.1786 H   0  0  0  0  0  0
  -18.9187   13.8021  -14.6600 H   0  0  0  0  0  0
  -17.7268   12.0437  -15.8537 H   0  0  0  0  0  0
  -18.8605   10.7873  -15.2512 H   0  0  0  0  0  0
  -20.5372   11.3967  -16.7424 H   0  0  0  0  0  0
  -19.8809   13.0525  -16.9754 H   0  0  0  0  0  0
  -17.9035   12.0257  -18.1267 H   0  0  0  0  0  0
  -18.7386   10.4386  -18.0261 H   0  0  0  0  0  0
  -20.3233   11.1041  -19.7209 H   0  0  0  0  0  0
  -18.1331   13.8141  -18.6143 H   0  0  0  0  0  0
  -18.6444   14.9025  -20.0921 H   0  0  0  0  0  0
  -20.9042   12.3851  -21.4394 H   0  0  0  0  0  0
  -20.3091   10.9689  -13.0346 H   0  0  0  0  0  0
  -22.8353   12.5861  -12.8197 H   0  0  0  0  0  0
  -24.3729   10.8786  -13.6794 H   0  0  0  0  0  0
  -23.1373   11.2048  -14.9417 H   0  0  0  0  0  0
  -23.5123    8.7295  -14.6703 H   0  0  0  0  0  0
  -24.3880   11.7157  -11.2477 H   0  0  0  0  0  0
  -22.8182   10.3226   -9.0945 H   0  0  0  0  0  0
  -25.5437   11.7339   -9.1486 H   0  0  0  0  0  0
  -24.9985   10.8140   -7.7053 H   0  0  0  0  0  0
  -24.8724   13.9316   -9.4727 H   0  0  0  0  0  0
  -22.7782   11.4790   -6.6538 H   0  0  0  0  0  0
  -23.5966   15.9063   -8.6749 H   0  0  0  0  0  0
  -21.4492   13.4405   -5.9094 H   0  0  0  0  0  0
  -21.8699   15.6567   -6.9074 H   0  0  0  0  0  0
  -25.2846    9.6620  -11.4089 H   0  0  0  0  0  0
  -26.3987    7.2792  -10.1229 H   0  0  0  0  0  0
  -26.6875    6.6065  -12.7171 H   0  0  0  0  0  0
  -27.6681    7.9047  -11.9557 H   0  0  0  0  0  0
  -26.6625    8.6969  -14.1299 H   0  0  0  0  0  0
  -23.3541    8.0011  -11.6312 H   0  0  0  0  0  0
  -22.1849    5.4017  -11.8607 H   0  0  0  0  0  0
  -22.8081    3.9760   -8.4917 H   0  0  0  0  0  0
  -21.1787    7.9590  -10.4843 H   0  0  0  0  0  0
  -20.1406    6.5036  -10.6598 H   0  0  0  0  0  0
  -20.5096    6.6766  -13.1439 H   0  0  0  0  0  0
  -21.2776    8.2706  -12.8342 H   0  0  0  0  0  0
  -19.9934    9.8485  -13.4617 H   0  0  0  0  0  0
  -18.1291    9.9074  -13.0733 H   0  0  0  0  0  0
  1  2  1  0  0  0
  1132  1  0  0  0
  1133  1  0  0  0
  1134  1  0  0  0
  2  3  1  0  0  0
  2  5  1  0  0  0
  2135  1  0  0  0
  3  4  2  0  0  0
  3  8  1  0  0  0
  5  6  1  0  0  0
  5  7  1  0  0  0
  5136  1  0  0  0
  6137  1  0  0  0
  7138  1  0  0  0
  7139  1  0  0  0
  7140  1  0  0  0
  8  9  1  0  0  0
  8141  1  0  0  0
  9 10  1  0  0  0
  9 12  1  0  0  0
  9142  1  0  0  0
 10 11  2  0  0  0
 10 16  1  0  0  0
 12 13  1  0  0  0
 12143  1  0  0  0
 12144  1  0  0  0
 13 14  1  0  0  0
 13 15  1  0  0  0
 13145  1  0  0  0
 14146  1  0  0  0
 14147  1  0  0  0
 14148  1  0  0  0
 15149  1  0  0  0
 15150  1  0  0  0
 15151  1  0  0  0
 16 17  1  0  0  0
 16152  1  0  0  0
 17 18  1  0  0  0
 17 20  1  0  0  0
 17153  1  0  0  0
 18 19  2  0  0  0
 18 24  1  0  0  0
 20 21  1  0  0  0
 20154  1  0  0  0
 20155  1  0  0  0
 21 22  2  0  0  0
 21 23  1  0  0  0
 23156  1  0  0  0
 23157  1  0  0  0
 24 25  1  0  0  0
 24 30  1  0  0  0
 25 26  1  0  0  0
 25 28  1  0  0  0
 25158  1  0  0  0
 26 27  2  0  0  0
 26 31  1  0  0  0
 28 29  1  0  0  0
 28159  1  0  0  0
 28160  1  0  0  0
 29 30  1  0  0  0
 29161  1  0  0  0
 29162  1  0  0  0
 30163  1  0  0  0
 30164  1  0  0  0
 31 32  1  0  0  0
 31165  1  0  0  0
 32 33  1  0  0  0
 32 35  1  0  0  0
 32166  1  0  0  0
 33 34  2  0  0  0
 33 39  1  0  0  0
 35 36  1  0  0  0
 35167  1  0  0  0
 35168  1  0  0  0
 36 37  2  0  0  0
 36 38  1  0  0  0
 38169  1  0  0  0
 38170  1  0  0  0
 39 40  1  0  0  0
 39171  1  0  0  0
 40 41  1  0  0  0
 40 43  1  0  0  0
 40172  1  0  0  0
 41 42  2  0  0  0
 41 44  1  0  0  0
 43173  1  0  0  0
 43174  1  0  0  0
 43175  1  0  0  0
 44 45  1  0  0  0
 44176  1  0  0  0
 45 46  1  0  0  0
 45 48  1  0  0  0
 45177  1  0  0  0
 46 47  2  0  0  0
 46 53  1  0  0  0
 48 49  1  0  0  0
 48178  1  0  0  0
 48179  1  0  0  0
 49 50  1  0  0  0
 49180  1  0  0  0
 49181  1  0  0  0
 50 51  1  0  0  0
 50182  1  0  0  0
 50183  1  0  0  0
 51 52  1  0  0  0
 51184  1  0  0  0
 51185  1  0  0  0
 52186  1  0  0  0
 52187  1  0  0  0
 52188  1  0  0  0
 53 54  1  0  0  0
 53189  1  0  0  0
 54 55  1  0  0  0
 54 57  1  0  0  0
 54190  1  0  0  0
 55 56  2  0  0  0
 55 62  1  0  0  0
 57 58  1  0  0  0
 57191  1  0  0  0
 57192  1  0  0  0
 58 59  1  0  0  0
 58193  1  0  0  0
 58194  1  0  0  0
 59 60  2  0  0  0
 59 61  1  0  0  0
 61195  1  0  0  0
 62 63  1  0  0  0
 62196  1  0  0  0
 63 64  1  0  0  0
 63 66  1  0  0  0
 63197  1  0  0  0
 64 65  2  0  0  0
 64 73  1  0  0  0
 66 67  1  0  0  0
 66198  1  0  0  0
 66199  1  0  0  0
 67 68  2  0  0  0
 67 69  1  0  0  0
 68 70  1  0  0  0
 68200  1  0  0  0
 69 71  2  0  0  0
 69201  1  0  0  0
 70 72  2  0  0  0
 70202  1  0  0  0
 71 72  1  0  0  0
 71203  1  0  0  0
 72204  1  0  0  0
 73 74  1  0  0  0
 73205  1  0  0  0
 74 75  1  0  0  0
 74 77  1  0  0  0
 74206  1  0  0  0
 75 76  2  0  0  0
 75 81  1  0  0  0
 77 78  1  0  0  0
 77207  1  0  0  0
 77208  1  0  0  0
 78 79  2  0  0  0
 78 80  1  0  0  0
 80209  1  0  0  0
 80210  1  0  0  0
 81 82  1  0  0  0
 81 87  1  0  0  0
 82 83  1  0  0  0
 82 85  1  0  0  0
 82211  1  0  0  0
 83 84  2  0  0  0
 83 88  1  0  0  0
 85 86  1  0  0  0
 85212  1  0  0  0
 85213  1  0  0  0
 86 87  1  0  0  0
 86214  1  0  0  0
 86215  1  0  0  0
 87216  1  0  0  0
 87217  1  0  0  0
 88 89  1  0  0  0
 88218  1  0  0  0
 89 90  1  0  0  0
 89 92  1  0  0  0
 89219  1  0  0  0
 90 91  2  0  0  0
 90 99  1  0  0  0
 92 93  1  0  0  0
 92220  1  0  0  0
 92221  1  0  0  0
 93 94  1  0  0  0
 93222  1  0  0  0
 93223  1  0  0  0
 94 95  1  0  0  0
 94224  1  0  0  0
 94225  1  0  0  0
 95 96  1  0  0  0
 95226  1  0  0  0
 96 97  1  0  0  0
 96 98  2  0  0  0
 97227  1  0  0  0
 97228  1  0  0  0
 98229  1  0  0  0
 99100  1  0  0  0
 99230  1  0  0  0
100101  1  0  0  0
100103  1  0  0  0
100231  1  0  0  0
101102  2  0  0  0
101105  1  0  0  0
103104  1  0  0  0
103232  1  0  0  0
103233  1  0  0  0
104234  1  0  0  0
105106  1  0  0  0
105235  1  0  0  0
106107  1  0  0  0
106109  1  0  0  0
106236  1  0  0  0
107108  2  0  0  0
107116  1  0  0  0
109110  1  0  0  0
109237  1  0  0  0
109238  1  0  0  0
110111  2  0  0  0
110112  1  0  0  0
111113  1  0  0  0
111239  1  0  0  0
112114  2  0  0  0
112240  1  0  0  0
113115  2  0  0  0
113241  1  0  0  0
114115  1  0  0  0
114242  1  0  0  0
115243  1  0  0  0
116117  1  0  0  0
116244  1  0  0  0
117118  1  0  0  0
117120  1  0  0  0
117245  1  0  0  0
118119  2  0  0  0
118122  1  0  0  0
120121  1  0  0  0
120246  1  0  0  0
120247  1  0  0  0
121248  1  0  0  0
122123  1  0  0  0
122249  1  0  0  0
123124  1  0  0  0
123126  1  0  0  0
123250  1  0  0  0
124125  1  0  0  0
124131  2  0  0  0
125251  1  0  0  0
126127  1  0  0  0
126252  1  0  0  0
126253  1  0  0  0
127128  1  0  0  0
127254  1  0  0  0
127255  1  0  0  0
128129  2  0  0  0
128130  1  0  0  0
130256  1  0  0  0
130257  1  0  0  0
M  CHG  2   1   1  52   1
M  END
> <s_m_source_file>
../3ktr_ligand.sdf

> <i_m_source_file_index>
1

> <s_epik_input>
W09IXVtDQEhdKFtDSDNdKVtDQEhdKFtOSDMrXSlDKD1PKVtOSF1bQ0BASF0oW0NIMl1bQ0hdKFtDSDNdKVtDSDNdKUMoPU8pW05IXVtDQEBIXShbQ0gyXUMoPU8pW05IMl0pQyg9TylOMVtDQEBIXShbQ0gyXVtDSDJdW0NIMl0xKUMoPU8pW05IXVtDQEBIXShbQ0gyXUMoPU8pW05IMl0pQyg9TylbTkhdW0NAQEhdKFtDSDNdKUMoPU8pW05IXVtDQEBIXShbQ0gyXVtDSDJdW0NIMl1bQ0gyXVtOSDMrXSlDKD1PKVtOSF1bQ0BASF0oW0NIMl1bQ0gyXUMoPU8pW09IXSlDKD1PKVtOSF1bQ0BASF0oW0NIMl1jMltjSF1bY0hdW2NIXVtjSF1bY0hdMilDKD1PKVtOSF1bQ0BASF0oW0NIMl1DKD1PKVtOSDJdKUMoPU8pTjNbQ0BASF0oW0NIMl1bQ0gyXVtDSDJdMylDKD1PKVtOSF1bQ0BASF0oW0NIMl1bQ0gyXVtDSDJdW05IXS9DKFtOSDJdKT1OXFtIXSlDKD1PKVtOSF1bQ0BASF0oW0NIMl1bT0hdKUMoPU8pW05IXVtDQEBIXShbQ0gyXWM0W2NIXVtjSF1bY0hdW2NIXVtjSF00KUMoPU8pW05IXVtDQEBIXShbQ0gyXVtPSF0pQyg9TylbTkhdW0NASF0oQyg9TylbT0hdKVtDSDJdW0NIMl1DKD1PKVtOSDJd

> <s_epik_cmdline>
J2VwaWtfYXBwJywgJy1pbWFlJywgJ2xpZ2FuZF9wcm8ubWFlJywgJy1vbWFlJywgJ2xpZ2FuZF9wcmVwLm1hZScsICctbXMnLCAnMScsICctcGgnLCAnNycsICctcGh0JywgJzAuNScsICctbnQn

> <s_epik_pKa_notes>
Molecule size exceeds maximum supported for generating protonation states

> <s_epik_Chemistry_Notes>
This compound has an imine and may undergo hydrolysis.

$$$$
