3kvx_ligand
                    3D
 Schrodinger Suite 2020-3.
 64 69  0  0  1  0            999 V2000
  -27.3880   34.8420   11.7600 C   0  0  0  0  0  0
  -26.1580   35.9270    9.9440 C   0  0  0  0  0  0
  -26.1110   34.4450   12.2410 C   0  0  0  0  0  0
  -24.9400   35.4500   10.3980 C   0  0  0  0  0  0
  -23.6690   33.4280   13.0930 C   0  0  0  0  0  0
  -32.1740   32.8600   13.5160 C   0  0  0  0  0  0
  -30.4980   31.7390   14.9190 C   0  0  0  0  0  0
  -29.7790   33.1180   13.0800 C   0  0  0  0  0  0
  -26.1090   33.4950   14.3140 C   0  0  0  0  0  0
  -26.1280   31.0100   14.1410 C   0  0  0  0  0  0
  -18.5470   31.7580   12.3810 C   0  0  0  0  0  0
  -18.3370   33.3240   10.5480 C   0  0  0  0  0  0
  -27.5590   33.3960   14.7600 C   0  0  0  0  0  0
  -27.4240   31.3000   13.4290 C   0  0  0  0  0  0
  -19.5590   32.7330   13.0310 C   0  0  0  0  0  0
  -19.5860   34.1630   10.9160 C   0  0  0  0  0  0
  -22.3550   33.0950   13.2160 N   0  0  0  0  0  0
  -22.5060   34.3900   11.3720 N   0  0  0  0  0  0
  -28.4790   36.0950   10.1070 N   0  0  0  0  0  0
  -25.4950   32.2460   14.6130 O   0  0  0  0  0  0
  -18.4300   31.9420   10.9570 O   0  0  0  0  0  0
  -31.8170   32.0750   14.6360 C   0  0  0  0  0  0
  -27.3600   35.6020   10.6130 C   0  0  0  0  0  0
  -31.1010   33.3510   12.7210 C   0  0  0  0  0  0
  -29.4830   32.2330   14.0990 C   0  0  0  0  0  0
  -24.8750   34.6750   11.5760 C   0  0  0  0  0  0
  -21.6740   33.7300   12.2210 C   0  0  0  0  0  0
  -28.1470   32.0510   14.4610 N   0  0  0  0  0  0
  -20.3080   33.5270   12.0260 N   0  0  0  0  0  0
  -23.7390   34.1540   11.9990 N   0  0  0  0  0  0
  -29.6710   35.5070   10.2230 C   0  0  0  0  0  0
  -30.6510   35.7850    9.2990 N   0  0  0  0  0  0
  -29.8660   34.7510   11.3240 N   0  0  0  0  0  0
  -31.0950   34.2710   11.5850 C   0  0  0  0  0  0
  -32.1210   34.5350   10.7560 C   0  0  0  0  0  0
  -31.8690   35.3370    9.6320 C   0  0  0  0  0  0
  -32.6910   31.5420   15.4700 F   0  0  0  0  0  0
  -28.3164   34.5663   12.2601 H   0  0  0  0  0  0
  -26.1904   36.5618    9.0585 H   0  0  0  0  0  0
  -26.0760   33.9220   13.1967 H   0  0  0  0  0  0
  -24.0284   35.6737    9.8439 H   0  0  0  0  0  0
  -24.4872   33.1522   13.7583 H   0  0  0  0  0  0
  -33.2145   33.0773   13.2746 H   0  0  0  0  0  0
  -30.2603   31.0992   15.7688 H   0  0  0  0  0  0
  -28.9741   33.6343   12.5568 H   0  0  0  0  0  0
  -26.0708   33.6980   13.2336 H   0  0  0  0  0  0
  -25.6129   34.3120   14.8583 H   0  0  0  0  0  0
  -26.3231   30.3620   15.0082 H   0  0  0  0  0  0
  -25.4368   30.5023   13.4521 H   0  0  0  0  0  0
  -17.5518   31.9142   12.8228 H   0  0  0  0  0  0
  -18.8692   30.7217   12.5604 H   0  0  0  0  0  0
  -18.1959   33.3356    9.4572 H   0  0  0  0  0  0
  -17.4500   33.7530   11.0370 H   0  0  0  0  0  0
  -27.6211   33.5646   15.8452 H   0  0  0  0  0  0
  -28.1566   34.1565   14.2360 H   0  0  0  0  0  0
  -27.2202   31.8861   12.5207 H   0  0  0  0  0  0
  -27.9105   30.3529   13.1528 H   0  0  0  0  0  0
  -20.2887   32.1624   13.6242 H   0  0  0  0  0  0
  -19.0227   33.4351   13.6863 H   0  0  0  0  0  0
  -19.2730   35.1731   11.2189 H   0  0  0  0  0  0
  -20.2517   34.2319   10.0430 H   0  0  0  0  0  0
  -28.4601   37.0445    9.5519 H   0  0  0  0  0  0
  -33.1173   34.1383   10.9511 H   0  0  0  0  0  0
  -32.7103   35.6103    8.9951 H   0  0  0  0  0  0
  1  3  2  0  0  0
  1 23  1  0  0  0
  1 38  1  0  0  0
  2  4  1  0  0  0
  2 23  2  0  0  0
  2 39  1  0  0  0
  3 26  1  0  0  0
  3 40  1  0  0  0
  4 26  2  0  0  0
  4 41  1  0  0  0
  5 17  2  0  0  0
  5 30  1  0  0  0
  5 42  1  0  0  0
  6 22  2  0  0  0
  6 24  1  0  0  0
  6 43  1  0  0  0
  7 22  1  0  0  0
  7 25  2  0  0  0
  7 44  1  0  0  0
  8 24  2  0  0  0
  8 25  1  0  0  0
  8 45  1  0  0  0
  9 13  1  0  0  0
  9 20  1  0  0  0
  9 46  1  0  0  0
  9 47  1  0  0  0
 10 14  1  0  0  0
 10 20  1  0  0  0
 10 48  1  0  0  0
 10 49  1  0  0  0
 11 15  1  0  0  0
 11 21  1  0  0  0
 11 50  1  0  0  0
 11 51  1  0  0  0
 12 16  1  0  0  0
 12 21  1  0  0  0
 12 52  1  0  0  0
 12 53  1  0  0  0
 13 28  1  0  0  0
 13 54  1  0  0  0
 13 55  1  0  0  0
 14 28  1  0  0  0
 14 56  1  0  0  0
 14 57  1  0  0  0
 15 29  1  0  0  0
 15 58  1  0  0  0
 15 59  1  0  0  0
 16 29  1  0  0  0
 16 60  1  0  0  0
 16 61  1  0  0  0
 17 27  1  0  0  0
 18 27  2  0  0  0
 18 30  1  0  0  0
 19 23  1  0  0  0
 19 31  1  0  0  0
 19 62  1  0  0  0
 22 37  1  0  0  0
 24 34  1  0  0  0
 25 28  1  0  0  0
 26 30  1  0  0  0
 27 29  1  0  0  0
 31 32  2  0  0  0
 31 33  1  0  0  0
 32 36  1  0  0  0
 33 34  2  0  0  0
 34 35  1  0  0  0
 35 36  2  0  0  0
 35 63  1  0  0  0
 36 64  1  0  0  0
M  END
> <s_m_source_file>
../3kvx_ligand.sdf

> <i_m_source_file_index>
1

> <s_epik_input>
W0NIMl0xW0NIMl1PW0NIMl1bQ0gyXU4xYzJuW2NIXW4objIpLWMoW2NIXVtjSF0zKVtjSF1bY0hdYzNbTkhdYzRuW2NIXVtjSF1jKG40KS1jKFtjSF1jNUYpW2NIXWMoW2NIXTUpTjZbQ0gyXVtDSDJdT1tDSDJdW0NIMl02

> <s_epik_cmdline>
J2VwaWtfYXBwJywgJy1pbWFlJywgJ2xpZ2FuZF9wcm8ubWFlJywgJy1vbWFlJywgJ2xpZ2FuZF9wcmVwLm1hZScsICctbXMnLCAnMScsICctcGgnLCAnNycsICctcGh0JywgJzAuNScsICctbnQn

> <r_lp_tautomer_probability>
1

> <r_epik_Ionization_Penalty>
  0.0001

> <r_epik_Ionization_Penalty_Charging>
  0.0000

> <r_epik_Ionization_Penalty_Neutral>
  0.0001

> <r_epik_State_Penalty>
 -0.0000

> <r_epik_Charging_Adjusted_Penalty>
0

> <i_epik_Tot_Q>
0

> <i_epik_Tot_abs_Q>
0

$$$$
