3kw9_ligand
                    3D
 Schrodinger Suite 2020-3.
 48 50  0  0  1  0            999 V2000
   45.1940   16.5930   59.6270 N   0  0  0  0  0  0
   44.9690   15.3420   59.7920 C   0  0  0  0  0  0
   44.3940   14.9470   61.0670 N   0  0  0  0  0  0
   44.1050   15.7720   62.0130 C   0  0  0  0  0  0
   44.3910   17.1680   61.7390 N   0  0  0  0  0  0
   44.8980   17.5830   60.6400 C   0  0  0  0  0  0
   45.2320   14.4470   58.8770 N   0  0  0  0  0  0
   43.5850   15.3830   63.1620 N   0  0  0  0  0  0
   45.1600   18.9650   60.4300 C   0  0  0  0  0  0
   43.2990   13.9550   63.4470 C   0  0  0  0  0  0
   44.0640   13.5570   64.7440 C   0  0  0  0  0  0
   43.7270   14.5240   65.8340 N   0  3  0  0  0  0
   44.0400   15.9500   65.5090 C   0  0  0  0  0  0
   43.2640   16.3620   64.2290 C   0  0  0  0  0  0
   44.9020   20.0480   61.2530 N   0  3  0  0  0  0
   46.1610   14.6690   57.7570 C   0  0  0  0  0  0
   47.6460   14.5140   58.2110 C   0  0  0  0  0  0
   48.6310   14.7370   57.0170 C   0  0  0  0  0  0
   48.3070   13.7330   55.8580 C   0  0  0  0  0  0
   46.8140   13.8590   55.4060 C   0  0  0  0  0  0
   45.8440   13.6530   56.6180 C   0  0  0  0  0  0
   44.7129   13.4825   58.9781 H   0  0  0  0  0  0
   46.2407   19.1164   60.2914 H   0  0  0  0  0  0
   44.6237   19.3077   59.5328 H   0  0  0  0  0  0
   42.2167   13.8191   63.5889 H   0  0  0  0  0  0
   43.6385   13.3374   62.6024 H   0  0  0  0  0  0
   43.7675   12.5422   65.0478 H   0  0  0  0  0  0
   45.1470   13.5808   64.5529 H   0  0  0  0  0  0
   42.6497   14.4719   66.0502 H   0  0  0  0  0  0
   44.2956   14.2679   66.7401 H   0  0  0  0  0  0
   43.7363   16.5926   66.3486 H   0  0  0  0  0  0
   45.1211   16.0581   65.3370 H   0  0  0  0  0  0
   43.5699   17.3684   63.9073 H   0  0  0  0  0  0
   42.1811   16.3521   64.4220 H   0  0  0  0  0  0
   45.2419   20.9714   60.7613 H   0  0  0  0  0  0
   45.4380   19.9209   62.2051 H   0  0  0  0  0  0
   43.8211   20.1122   61.4465 H   0  0  0  0  0  0
   45.9832   15.7052   57.4334 H   0  0  0  0  0  0
   47.8697   15.2551   58.9925 H   0  0  0  0  0  0
   47.8036   13.5012   58.6103 H   0  0  0  0  0  0
   48.5268   15.7662   56.6431 H   0  0  0  0  0  0
   49.6639   14.5737   57.3583 H   0  0  0  0  0  0
   48.9554   13.9470   54.9956 H   0  0  0  0  0  0
   48.4847   12.7040   56.2039 H   0  0  0  0  0  0
   46.6425   14.8594   54.9819 H   0  0  0  0  0  0
   46.5957   13.0956   54.6447 H   0  0  0  0  0  0
   45.9628   12.6275   56.9979 H   0  0  0  0  0  0
   44.8095   13.7989   56.2739 H   0  0  0  0  0  0
  1  2  2  0  0  0
  1  6  1  0  0  0
  2  3  1  0  0  0
  2  7  1  0  0  0
  3  4  2  0  0  0
  4  5  1  0  0  0
  4  8  1  0  0  0
  5  6  2  0  0  0
  6  9  1  0  0  0
  7 16  1  0  0  0
  7 22  1  0  0  0
  8 10  1  0  0  0
  8 14  1  0  0  0
  9 15  1  0  0  0
  9 23  1  0  0  0
  9 24  1  0  0  0
 10 11  1  0  0  0
 10 25  1  0  0  0
 10 26  1  0  0  0
 11 12  1  0  0  0
 11 27  1  0  0  0
 11 28  1  0  0  0
 12 13  1  0  0  0
 12 29  1  0  0  0
 12 30  1  0  0  0
 13 14  1  0  0  0
 13 31  1  0  0  0
 13 32  1  0  0  0
 14 33  1  0  0  0
 14 34  1  0  0  0
 15 35  1  0  0  0
 15 36  1  0  0  0
 15 37  1  0  0  0
 16 17  1  0  0  0
 16 21  1  0  0  0
 16 38  1  0  0  0
 17 18  1  0  0  0
 17 39  1  0  0  0
 17 40  1  0  0  0
 18 19  1  0  0  0
 18 41  1  0  0  0
 18 42  1  0  0  0
 19 20  1  0  0  0
 19 43  1  0  0  0
 19 44  1  0  0  0
 20 21  1  0  0  0
 20 45  1  0  0  0
 20 46  1  0  0  0
 21 47  1  0  0  0
 21 48  1  0  0  0
M  CHG  2  12   1  15   1
M  END
> <s_m_source_file>
../3kw9_ligand.sdf

> <i_m_source_file_index>
1

> <s_epik_input>
W0NIMl0xW0NIMl1bQ0gyXVtDSDJdW0NIMl1bQ0hdMVtOSF1jMm5jKFtDSDJdW05IMytdKW5jKG4yKU4zW0NIMl1bQ0gyXVtOSDIrXVtDSDJdW0NIMl0z

> <s_epik_cmdline>
J2VwaWtfYXBwJywgJy1pbWFlJywgJ2xpZ2FuZF9wcm8ubWFlJywgJy1vbWFlJywgJ2xpZ2FuZF9wcmVwLm1hZScsICctbXMnLCAnMScsICctcGgnLCAnNycsICctcGh0JywgJzAuNScsICctbnQn

> <r_lp_tautomer_probability>
0.999999977502001

> <r_epik_Ionization_Penalty>
  0.2350

> <r_epik_Ionization_Penalty_Charging>
  0.2349

> <r_epik_Ionization_Penalty_Neutral>
  0.0001

> <r_epik_State_Penalty>
  0.2168

> <r_epik_Charging_Adjusted_Penalty>
0.451692773194045

> <i_epik_Tot_Q>
2

> <i_epik_Tot_abs_Q>
2

$$$$
