3kwb_ligand
                    3D
 Schrodinger Suite 2020-3.
 55 57  0  0  1  0            999 V2000
   -8.4810   13.5700   37.0730 C   0  0  0  0  0  0
   -9.4890    2.1950   38.3040 F   0  0  0  0  0  0
   -7.1750   13.6770   37.5980 N   0  3  0  0  0  0
   -7.8260   10.5380   34.4440 O   0  0  0  0  0  0
   -8.5990   12.0840   36.7660 C   0  0  0  0  0  0
   -9.3770    3.1330   40.1590 F   0  0  0  0  0  0
   -9.5870   10.0920   35.9970 N   0  0  0  0  0  0
  -11.2300    9.4610   37.4740 O   0  0  0  0  0  0
   -9.8900   11.5030   36.1700 C   0  0  0  0  0  0
   -7.8840    3.5520   38.6430 F   0  0  0  0  0  0
   -9.8650    7.7090   36.6700 N   0  0  0  0  0  0
  -10.2880    9.1220   36.7660 C   0  0  0  0  0  0
   -8.7530    7.3760   35.8440 N   0  0  0  0  0  0
   -8.4650    9.6830   35.1470 C   0  0  0  0  0  0
   -8.0590    8.3310   35.0970 C   0  0  0  0  0  0
   -9.5590    5.5390   37.7950 C   0  0  0  0  0  0
  -10.0470    4.3750   38.4440 C   0  0  0  0  0  0
  -10.4680    6.5730   37.3600 C   0  0  0  0  0  0
  -11.4590    4.2210   38.6580 C   0  0  0  0  0  0
  -11.9080    6.4120   37.5780 C   0  0  0  0  0  0
  -12.3840    5.2270   38.2400 C   0  0  0  0  0  0
   -9.1620    3.2970   38.8940 C   0  0  0  0  0  0
   -6.8130    7.9150   34.5420 C   0  0  0  0  0  0
   -6.5090   14.9120   37.1660 C   0  0  0  0  0  0
   -6.1250    8.8220   33.7590 N   0  3  0  0  0  0
   -5.1200   15.0630   37.7450 C   0  0  0  0  0  0
   -7.2110   13.4990   39.0770 C   0  0  0  0  0  0
   -5.2870   14.9490   39.2680 C   0  0  0  0  0  0
   -5.8430   13.5810   39.7010 C   0  0  0  0  0  0
   -9.2079   13.9071   37.8267 H   0  0  0  0  0  0
   -8.5673   14.1977   36.1738 H   0  0  0  0  0  0
   -6.5929   12.8590   37.1485 H   0  0  0  0  0  0
   -7.8273   11.7980   36.0361 H   0  0  0  0  0  0
   -8.4603   11.5062   37.6917 H   0  0  0  0  0  0
  -10.7230   11.6672   36.8694 H   0  0  0  0  0  0
  -10.1097   12.0018   35.2145 H   0  0  0  0  0  0
   -8.4887    5.6534   37.6235 H   0  0  0  0  0  0
  -11.8314    3.3212   39.1477 H   0  0  0  0  0  0
  -12.6075    7.1782   37.2438 H   0  0  0  0  0  0
  -13.4506    5.0963   38.4229 H   0  0  0  0  0  0
   -6.1201    7.6501   35.3542 H   0  0  0  0  0  0
   -6.4179   14.9153   36.0698 H   0  0  0  0  0  0
   -7.1028   15.7805   37.4872 H   0  0  0  0  0  0
   -5.1900    8.3644   33.4035 H   0  0  0  0  0  0
   -5.8920    9.7174   34.3540 H   0  0  0  0  0  0
   -4.4710   14.2656   37.3538 H   0  0  0  0  0  0
   -4.7088   16.0429   37.4608 H   0  0  0  0  0  0
   -7.8357   14.2854   39.5258 H   0  0  0  0  0  0
   -7.6343   12.5126   39.3174 H   0  0  0  0  0  0
   -4.3104   15.0864   39.7552 H   0  0  0  0  0  0
   -5.9843   15.7238   39.6194 H   0  0  0  0  0  0
   -5.9340   13.5082   40.7948 H   0  0  0  0  0  0
   -5.2201   12.7541   39.3291 H   0  0  0  0  0  0
   -6.9734    7.0389   33.8965 H   0  0  0  0  0  0
   -6.7453    9.1063   32.8962 H   0  0  0  0  0  0
  1  3  1  0  0  0
  1  5  1  0  0  0
  1 30  1  0  0  0
  1 31  1  0  0  0
  2 22  1  0  0  0
  3 24  1  0  0  0
  3 27  1  0  0  0
  3 32  1  0  0  0
  4 14  2  0  0  0
  5  9  1  0  0  0
  5 33  1  0  0  0
  5 34  1  0  0  0
  6 22  1  0  0  0
  7  9  1  0  0  0
  7 12  1  0  0  0
  7 14  1  0  0  0
  8 12  2  0  0  0
  9 35  1  0  0  0
  9 36  1  0  0  0
 10 22  1  0  0  0
 11 12  1  0  0  0
 11 13  1  0  0  0
 11 18  1  0  0  0
 13 15  2  0  0  0
 14 15  1  0  0  0
 15 23  1  0  0  0
 16 17  2  0  0  0
 16 18  1  0  0  0
 16 37  1  0  0  0
 17 19  1  0  0  0
 17 22  1  0  0  0
 18 20  2  0  0  0
 19 21  2  0  0  0
 19 38  1  0  0  0
 20 21  1  0  0  0
 20 39  1  0  0  0
 21 40  1  0  0  0
 23 25  1  0  0  0
 23 41  1  0  0  0
 23 54  1  0  0  0
 24 26  1  0  0  0
 24 42  1  0  0  0
 24 43  1  0  0  0
 25 44  1  0  0  0
 25 45  1  0  0  0
 25 55  1  0  0  0
 26 28  1  0  0  0
 26 46  1  0  0  0
 26 47  1  0  0  0
 27 29  1  0  0  0
 27 48  1  0  0  0
 27 49  1  0  0  0
 28 29  1  0  0  0
 28 50  1  0  0  0
 28 51  1  0  0  0
 29 52  1  0  0  0
 29 53  1  0  0  0
M  CHG  2   3   1  25   1
M  END
> <s_m_source_file>
../3kwb_ligand.sdf

> <i_m_source_file_index>
1

> <s_epik_input>
W0NIMl0xW0NIMl1bQ0gyXVtDSDJdW0NIMl1bTkgrXTFbQ0gyXVtDSDJdW0NIMl1OMkMoPU8pTihbTkhdL0MoQzI9Tyk9W0NIXS9bTkgyXSljKFtjSF1jM0MoRikoRilGKVtjSF1bY0hdW2NIXTM=

> <s_epik_cmdline>
J2VwaWtfYXBwJywgJy1pbWFlJywgJ2xpZ2FuZF9wcm8ubWFlJywgJy1vbWFlJywgJ2xpZ2FuZF9wcmVwLm1hZScsICctbXMnLCAnMScsICctcGgnLCAnNycsICctcGh0JywgJzAuNScsICctbnQn

> <r_lp_tautomer_probability>
1

> <r_epik_Ionization_Penalty>
  0.1532

> <r_epik_Ionization_Penalty_Charging>
  0.1532

> <r_epik_Ionization_Penalty_Neutral>
  0.0000

> <r_epik_State_Penalty>
  0.1415

> <r_epik_Charging_Adjusted_Penalty>
0.294669665485551

> <i_epik_Tot_Q>
2

> <i_epik_Tot_abs_Q>
2

$$$$
