3kwf_ligand
                    3D
 Schrodinger Suite 2020-3.
 56 59  0  0  1  0            999 V2000
   48.7350   51.7550   37.1960 N   0  0  0  0  0  0
   48.2640   51.8230   35.8120 C   0  0  1  0  0  0
   48.1470   50.6300   33.7140 N   0  0  1  0  0  0
   46.6950   50.9460   33.5510 C   0  0  2  0  0  0
   49.4710   52.7140   37.7600 C   0  0  0  0  0  0
   46.3340   51.0010   32.0960 C   0  0  0  0  0  0
   48.4810   50.4660   35.1410 C   0  0  0  0  0  0
   46.2830   52.2260   34.3140 C   0  0  0  0  0  0
   46.7800   52.2400   35.7600 C   0  0  2  0  0  0
   47.1310   50.3550   31.1400 C   0  0  0  0  0  0
   45.1740   51.6760   31.6670 C   0  0  0  0  0  0
   44.8200   51.7160   30.3100 C   0  0  0  0  0  0
   48.4090   50.5870   38.0070 C   0  0  0  0  0  0
   46.7640   50.3920   29.7960 C   0  0  0  0  0  0
   45.6120   51.0640   29.3700 C   0  0  0  0  0  0
   49.6790   52.3580   39.2140 C   0  0  0  0  0  0
   48.5130   49.3980   32.9940 C   0  0  0  0  0  0
   48.7340   51.1670   39.3910 C   0  0  2  0  0  0
   49.9350   53.7120   37.2250 O   0  0  0  0  0  0
   48.3950   49.6020   31.4910 C   0  0  0  0  0  0
   46.5900   53.5710   36.2940 N   0  3  0  0  0  0
   43.6840   52.3590   29.8690 O   0  0  0  0  0  0
   45.2700   51.0880   28.0280 O   0  0  0  0  0  0
   48.2900   49.4930   40.9380 F   0  0  0  0  0  0
   49.3250   50.1300   40.3040 C   0  0  0  0  0  0
   45.6530   50.0350   27.1280 C   0  0  0  0  0  0
   43.0620   53.4560   30.5460 C   0  0  0  0  0  0
   48.8702   52.5906   35.3086 H   0  0  0  0  0  0
   46.1351   50.1057   33.9872 H   0  0  0  0  0  0
   49.5311   50.1613   35.2611 H   0  0  0  0  0  0
   47.8259   49.7165   35.6091 H   0  0  0  0  0  0
   46.7028   53.1068   33.8060 H   0  0  0  0  0  0
   45.1859   52.3032   34.3352 H   0  0  0  0  0  0
   46.1869   51.5702   36.4000 H   0  0  0  0  0  0
   44.5415   52.1751   32.4012 H   0  0  0  0  0  0
   47.3517   50.3217   37.8594 H   0  0  0  0  0  0
   49.0448   49.7417   37.7048 H   0  0  0  0  0  0
   47.3883   49.8861   29.0595 H   0  0  0  0  0  0
   50.7348   52.0979   39.3804 H   0  0  0  0  0  0
   49.4096   53.2183   39.8443 H   0  0  0  0  0  0
   49.5509   49.1262   33.2366 H   0  0  0  0  0  0
   47.8400   48.5824   33.2971 H   0  0  0  0  0  0
   47.8077   51.4929   39.8867 H   0  0  0  0  0  0
   48.3822   48.6164   31.0026 H   0  0  0  0  0  0
   49.2696   50.1718   31.1441 H   0  0  0  0  0  0
   46.9422   53.6019   37.3356 H   0  0  0  0  0  0
   45.5216   53.8305   36.2603 H   0  0  0  0  0  0
   47.1618   54.2926   35.6921 H   0  0  0  0  0  0
   49.9108   49.4114   39.7120 H   0  0  0  0  0  0
   49.9803   50.6196   41.0394 H   0  0  0  0  0  0
   45.2772   50.2603   26.1190 H   0  0  0  0  0  0
   45.2251   49.0827   27.4746 H   0  0  0  0  0  0
   46.7498   49.9561   27.1016 H   0  0  0  0  0  0
   42.1750   53.7797   29.9817 H   0  0  0  0  0  0
   43.7737   54.2914   30.6213 H   0  0  0  0  0  0
   42.7594   53.1400   31.5552 H   0  0  0  0  0  0
  1  2  1  0  0  0
  1  5  1  0  0  0
  1 13  1  0  0  0
  2  7  1  0  0  0
  2  9  1  0  0  0
  2 28  1  0  0  0
  3  4  1  0  0  0
  3  7  1  0  0  0
  3 17  1  0  0  0
  4  6  1  0  0  0
  4  8  1  0  0  0
  4 29  1  0  0  0
  5 16  1  0  0  0
  5 19  2  0  0  0
  6 10  2  0  0  0
  6 11  1  0  0  0
  7 30  1  0  0  0
  7 31  1  0  0  0
  8  9  1  0  0  0
  8 32  1  0  0  0
  8 33  1  0  0  0
  9 21  1  0  0  0
  9 34  1  0  0  0
 10 14  1  0  0  0
 10 20  1  0  0  0
 11 12  2  0  0  0
 11 35  1  0  0  0
 12 15  1  0  0  0
 12 22  1  0  0  0
 13 18  1  0  0  0
 13 36  1  0  0  0
 13 37  1  0  0  0
 14 15  2  0  0  0
 14 38  1  0  0  0
 15 23  1  0  0  0
 16 18  1  0  0  0
 16 39  1  0  0  0
 16 40  1  0  0  0
 17 20  1  0  0  0
 17 41  1  0  0  0
 17 42  1  0  0  0
 18 25  1  0  0  0
 18 43  1  0  0  0
 20 44  1  0  0  0
 20 45  1  0  0  0
 21 46  1  0  0  0
 21 47  1  0  0  0
 21 48  1  0  0  0
 22 27  1  0  0  0
 23 26  1  0  0  0
 24 25  1  0  0  0
 25 49  1  0  0  0
 25 50  1  0  0  0
 26 51  1  0  0  0
 26 52  1  0  0  0
 26 53  1  0  0  0
 27 54  1  0  0  0
 27 55  1  0  0  0
 27 56  1  0  0  0
M  CHG  1  21   1
M  END
> <s_m_source_file>
../3kwf_ligand.sdf

> <i_m_source_file_index>
1

> <s_epik_input>
RltDSDJdW0NASF0oW0NIMl0xKVtDSDJdQyg9TylOMVtDQEBIXShbQ0gyXTIpW0NAQEhdKFtOSDMrXSlbQ0gyXVtDQEhdKFtOQEBIK10yMyljNGMoW0NIMl1bQ0gyXTMpW2NIXWMoT1tDSDNdKWMoW2NIXTQpT1tDSDNd

> <s_epik_cmdline>
J2VwaWtfYXBwJywgJy1pbWFlJywgJ2xpZ2FuZF9wcm8ubWFlJywgJy1vbWFlJywgJ2xpZ2FuZF9wcmVwLm1hZScsICctbXMnLCAnMScsICctcGgnLCAnNycsICctcGh0JywgJzAuNScsICctbnQn

> <r_lp_tautomer_probability>
1

> <r_epik_Ionization_Penalty>
  0.0387

> <r_epik_Ionization_Penalty_Charging>
  0.0361

> <r_epik_Ionization_Penalty_Neutral>
  0.0026

> <r_epik_State_Penalty>
 -0.0000

> <r_epik_Charging_Adjusted_Penalty>
0.0361047849907986

> <i_epik_Tot_Q>
1

> <i_epik_Tot_abs_Q>
1

$$$$
