3kwj_ligand
                    3D
 Schrodinger Suite 2020-3.
 55 58  0  0  1  0            999 V2000
   47.9100   49.8050   34.0260 N   0  0  2  0  0  0
   48.0280   51.1810   36.0810 C   0  0  1  0  0  0
   46.3240   51.6280   34.3830 C   0  0  0  0  0  0
   48.3730   49.8610   35.4190 C   0  0  0  0  0  0
   47.0000   49.4600   31.3990 C   0  0  0  0  0  0
   46.5580   51.5300   35.8780 C   0  0  2  0  0  0
   48.3150   51.1350   37.5290 C   0  0  0  0  0  0
   45.5290   50.1250   29.5460 C   0  0  0  0  0  0
   47.7730   50.1330   38.3450 C   0  0  0  0  0  0
   49.1220   52.1400   38.0730 C   0  0  0  0  0  0
   47.4670   49.0860   40.6180 C   0  0  0  0  0  0
   45.6070   49.1350   27.2370 C   0  0  0  0  0  0
   48.4830   48.3120   41.1440 F   0  0  0  0  0  0
   48.0430   50.1450   39.7080 C   0  0  0  0  0  0
   48.8520   51.1410   40.2450 C   0  0  0  0  0  0
   49.3890   52.1410   39.4370 C   0  0  0  0  0  0
   46.2630   52.8290   36.4500 N   0  3  0  0  0  0
   46.5410   50.2560   33.7260 C   0  0  1  0  0  0
   46.3770   50.3840   32.2430 C   0  0  0  0  0  0
   45.3370   51.1760   31.7240 C   0  0  0  0  0  0
   48.2110   48.6860   31.8760 C   0  0  0  0  0  0
   48.1100   48.5010   33.3930 C   0  0  0  0  0  0
   46.5800   49.3310   30.0640 C   0  0  0  0  0  0
   45.0710   50.0220   28.2290 O   0  0  0  0  0  0
   44.9080   51.0610   30.3910 C   0  0  0  0  0  0
   43.8930   51.8590   29.8850 O   0  0  0  0  0  0
   42.7330   52.1990   30.6420 C   0  0  0  0  0  0
   48.6677   51.9573   35.6360 H   0  0  0  0  0  0
   45.2926   51.9605   34.1944 H   0  0  0  0  0  0
   47.0281   52.3528   33.9484 H   0  0  0  0  0  0
   47.8983   49.0536   35.9959 H   0  0  0  0  0  0
   49.4658   49.7384   35.4474 H   0  0  0  0  0  0
   45.9036   50.8012   36.3787 H   0  0  0  0  0  0
   47.1459   49.3521   37.9149 H   0  0  0  0  0  0
   49.5384   52.9168   37.4317 H   0  0  0  0  0  0
   46.7807   48.4479   40.0419 H   0  0  0  0  0  0
   46.9156   49.5726   41.4361 H   0  0  0  0  0  0
   45.0570   49.2650   26.2933 H   0  0  0  0  0  0
   45.5043   48.0952   27.5810 H   0  0  0  0  0  0
   46.6707   49.3647   27.0761 H   0  0  0  0  0  0
   49.0689   51.1391   41.3132 H   0  0  0  0  0  0
   50.0151   52.9199   39.8722 H   0  0  0  0  0  0
   46.4224   52.7954   37.5379 H   0  0  0  0  0  0
   45.2157   53.0924   36.2409 H   0  0  0  0  0  0
   46.9271   53.5848   36.0053 H   0  0  0  0  0  0
   45.8325   49.5038   34.1032 H   0  0  0  0  0  0
   44.8491   51.9009   32.3756 H   0  0  0  0  0  0
   48.2368   47.7040   31.3810 H   0  0  0  0  0  0
   49.1249   49.2457   31.6281 H   0  0  0  0  0  0
   49.0382   48.0481   33.7717 H   0  0  0  0  0  0
   47.2592   47.8447   33.6285 H   0  0  0  0  0  0
   47.0726   48.6063   29.4157 H   0  0  0  0  0  0
   42.0732   52.8367   30.0354 H   0  0  0  0  0  0
   43.0340   52.7418   31.5502 H   0  0  0  0  0  0
   42.1972   51.2807   30.9243 H   0  0  0  0  0  0
  1  4  1  0  0  0
  1 18  1  0  0  0
  1 22  1  0  0  0
  2  4  1  0  0  0
  2  6  1  0  0  0
  2  7  1  0  0  0
  2 28  1  0  0  0
  3  6  1  0  0  0
  3 18  1  0  0  0
  3 29  1  0  0  0
  3 30  1  0  0  0
  4 31  1  0  0  0
  4 32  1  0  0  0
  5 19  2  0  0  0
  5 21  1  0  0  0
  5 23  1  0  0  0
  6 17  1  0  0  0
  6 33  1  0  0  0
  7  9  2  0  0  0
  7 10  1  0  0  0
  8 23  2  0  0  0
  8 24  1  0  0  0
  8 25  1  0  0  0
  9 14  1  0  0  0
  9 34  1  0  0  0
 10 16  2  0  0  0
 10 35  1  0  0  0
 11 13  1  0  0  0
 11 14  1  0  0  0
 11 36  1  0  0  0
 11 37  1  0  0  0
 12 24  1  0  0  0
 12 38  1  0  0  0
 12 39  1  0  0  0
 12 40  1  0  0  0
 14 15  2  0  0  0
 15 16  1  0  0  0
 15 41  1  0  0  0
 16 42  1  0  0  0
 17 43  1  0  0  0
 17 44  1  0  0  0
 17 45  1  0  0  0
 18 19  1  0  0  0
 18 46  1  0  0  0
 19 20  1  0  0  0
 20 25  2  0  0  0
 20 47  1  0  0  0
 21 22  1  0  0  0
 21 48  1  0  0  0
 21 49  1  0  0  0
 22 50  1  0  0  0
 22 51  1  0  0  0
 23 52  1  0  0  0
 25 26  1  0  0  0
 26 27  1  0  0  0
 27 53  1  0  0  0
 27 54  1  0  0  0
 27 55  1  0  0  0
M  CHG  1  17   1
M  END
> <s_m_source_file>
../3kwj_ligand.sdf

> <i_m_source_file_index>
1

> <s_epik_input>
W0NIM11PYyhbY0hdMSljKE9bQ0gzXSlbY0hdYyhbQ0gyXVtDSDJdMiljMVtDQEBIXShbTkBIK10yMylbQ0gyXVtDQEhdKFtOSDMrXSlbQ0BIXShbQ0gyXTMpYzRbY0hdYyhbQ0gyXUYpW2NIXVtjSF1bY0hdNA==

> <s_epik_cmdline>
J2VwaWtfYXBwJywgJy1pbWFlJywgJ2xpZ2FuZF9wcm8ubWFlJywgJy1vbWFlJywgJ2xpZ2FuZF9wcmVwLm1hZScsICctbXMnLCAnMScsICctcGgnLCAnNycsICctcGh0JywgJzAuNScsICctbnQn

> <r_lp_tautomer_probability>
1

> <r_epik_Ionization_Penalty>
  0.0162

> <r_epik_Ionization_Penalty_Charging>
  0.0088

> <r_epik_Ionization_Penalty_Neutral>
  0.0075

> <r_epik_State_Penalty>
 -0.0000

> <r_epik_Charging_Adjusted_Penalty>
0.00876030746298975

> <i_epik_Tot_Q>
1

> <i_epik_Tot_abs_Q>
1

$$$$
