3kwz_ligand
                    3D
 Schrodinger Suite 2020-3.
 51 53  0  0  1  0            999 V2000
   11.8050  -17.3100    4.1940 N   0  0  0  0  0  0
   13.0920  -17.0520    3.9760 C   0  0  0  0  0  0
   13.4210  -16.2530    2.8600 C   0  0  0  0  0  0
   12.4200  -15.6800    2.0740 C   0  0  0  0  0  0
   11.1460  -15.9490    2.3690 N   0  0  0  0  0  0
   10.8630  -16.7760    3.3910 C   0  0  0  0  0  0
   14.0860  -17.7270    4.8840 C   0  0  0  0  0  0
   12.7380  -14.8060    0.8850 C   0  0  0  0  0  0
   12.0650  -15.3110   -0.3800 C   0  0  0  0  0  0
   12.5550  -16.7220   -0.7410 C   0  0  0  0  0  0
   12.2080  -17.2780   -2.0870 N   0  3  0  0  0  0
   13.6090  -18.3790    6.0290 C   0  0  0  0  0  0
   14.4510  -19.0680    6.8980 C   0  0  0  0  0  0
   15.8160  -19.1120    6.6080 C   0  0  0  0  0  0
   16.2920  -18.4690    5.4690 C   0  0  0  0  0  0
   15.4480  -17.7760    4.6040 C   0  0  0  0  0  0
   13.9100  -19.7470    8.1230 C   0  0  0  0  0  0
   12.9280  -20.5900    7.8270 F   0  0  0  0  0  0
   14.8890  -20.4280    8.6380 F   0  0  0  0  0  0
   13.5040  -18.9290    9.0830 F   0  0  0  0  0  0
   11.0780  -16.5910   -2.7670 C   0  0  0  0  0  0
   10.4010  -17.3000   -3.9540 C   0  0  0  0  0  0
   10.7830  -18.7600   -4.1890 C   0  0  0  0  0  0
   11.8590  -19.3940   -3.2970 C   0  0  0  0  0  0
   12.0810  -18.7330   -1.9510 C   0  0  0  0  0  0
    9.4370  -17.0100    3.6530 C   0  0  0  0  0  0
    8.6300  -16.3660    2.9270 N   0  0  0  0  0  0
   14.4678  -16.0816    2.6093 H   0  0  0  0  0  0
   12.3868  -13.7817    1.0785 H   0  0  0  0  0  0
   13.8252  -14.7954    0.7180 H   0  0  0  0  0  0
   10.9761  -15.3447   -0.2276 H   0  0  0  0  0  0
   12.2976  -14.6333   -1.2147 H   0  0  0  0  0  0
   13.6539  -16.7498   -0.7014 H   0  0  0  0  0  0
   12.1438  -17.4476   -0.0238 H   0  0  0  0  0  0
   13.0209  -17.0886   -2.8034 H   0  0  0  0  0  0
   12.5415  -18.3456    6.2470 H   0  0  0  0  0  0
   16.5019  -19.6445    7.2668 H   0  0  0  0  0  0
   17.3584  -18.5089    5.2469 H   0  0  0  0  0  0
   15.8489  -17.2793    3.7205 H   0  0  0  0  0  0
   10.2681  -16.4140   -2.0440 H   0  0  0  0  0  0
   11.4244  -15.6289   -3.1724 H   0  0  0  0  0  0
    9.3105  -17.2959   -3.8100 H   0  0  0  0  0  0
   10.6496  -16.7723   -4.8866 H   0  0  0  0  0  0
    9.8970  -19.3974   -4.0522 H   0  0  0  0  0  0
   11.1654  -18.8786   -5.2136 H   0  0  0  0  0  0
   11.5891  -20.4387   -3.0832 H   0  0  0  0  0  0
   12.8289  -19.3646   -3.8151 H   0  0  0  0  0  0
   13.0012  -19.1415   -1.5078 H   0  0  0  0  0  0
   11.2254  -18.9672   -1.3005 H   0  0  0  0  0  0
    9.0562  -17.6955    4.4244 H   0  0  0  0  0  0
    9.0108  -15.6805    2.1556 H   0  0  0  0  0  0
  1  2  2  0  0  0
  1  6  1  0  0  0
  2  3  1  0  0  0
  2  7  1  0  0  0
  3  4  2  0  0  0
  3 28  1  0  0  0
  4  5  1  0  0  0
  4  8  1  0  0  0
  5  6  2  0  0  0
  6 26  1  0  0  0
  7 12  2  0  0  0
  7 16  1  0  0  0
  8  9  1  0  0  0
  8 29  1  0  0  0
  8 30  1  0  0  0
  9 10  1  0  0  0
  9 31  1  0  0  0
  9 32  1  0  0  0
 10 11  1  0  0  0
 10 33  1  0  0  0
 10 34  1  0  0  0
 11 21  1  0  0  0
 11 25  1  0  0  0
 11 35  1  0  0  0
 12 13  1  0  0  0
 12 36  1  0  0  0
 13 14  2  0  0  0
 13 17  1  0  0  0
 14 15  1  0  0  0
 14 37  1  0  0  0
 15 16  2  0  0  0
 15 38  1  0  0  0
 16 39  1  0  0  0
 17 18  1  0  0  0
 17 19  1  0  0  0
 17 20  1  0  0  0
 21 22  1  0  0  0
 21 40  1  0  0  0
 21 41  1  0  0  0
 22 23  1  0  0  0
 22 42  1  0  0  0
 22 43  1  0  0  0
 23 24  1  0  0  0
 23 44  1  0  0  0
 23 45  1  0  0  0
 24 25  1  0  0  0
 24 46  1  0  0  0
 24 47  1  0  0  0
 25 48  1  0  0  0
 25 49  1  0  0  0
 26 27  2  0  0  0
 26 50  1  0  0  0
 27 51  1  0  0  0
M  CHG  1  11   1
M  END
> <s_m_source_file>
../3kwz_ligand.sdf

> <i_m_source_file_index>
1

> <s_epik_input>
W2NIXTFbY0hdW2NIXWMoQyhGKShGKUYpW2NIXWMxLWMybmMoL1tDSF09TlxbSF0pbmMoW2NIXTIpW0NIMl1bQ0gyXVtDSDJdW05IK10zW0NIMl1bQ0gyXVtDSDJdW0NIMl1bQ0gyXTM=

> <s_epik_cmdline>
J2VwaWtfYXBwJywgJy1pbWFlJywgJ2xpZ2FuZF9wcm8ubWFlJywgJy1vbWFlJywgJ2xpZ2FuZF9wcmVwLm1hZScsICctbXMnLCAnMScsICctcGgnLCAnNycsICctcGh0JywgJzAuNScsICctbnQn

> <r_lp_tautomer_probability>
1

> <r_epik_Ionization_Penalty>
  0.0016

> <r_epik_Ionization_Penalty_Charging>
  0.0016

> <r_epik_Ionization_Penalty_Neutral>
  0.0000

> <r_epik_State_Penalty>
 -0.0000

> <r_epik_Charging_Adjusted_Penalty>
0.00160337552178671

> <i_epik_Tot_Q>
1

> <i_epik_Tot_abs_Q>
1

> <s_epik_Chemistry_Notes>
This compound has an imine and may undergo hydrolysis.

$$$$
