3kx1_ligand
                    3D
 Schrodinger Suite 2020-3.
 57 59  0  0  1  0            999 V2000
  -16.9260   12.0360   -4.1590 N   0  0  0  0  0  0
  -16.8330   13.3810   -4.1810 C   0  0  0  0  0  0
  -16.1480   14.0510   -3.1420 C   0  0  0  0  0  0
  -15.6040   13.2800   -2.1000 C   0  0  0  0  0  0
  -15.6960   11.9390   -2.1110 N   0  0  0  0  0  0
  -16.3520   11.3800   -3.1390 C   0  0  0  0  0  0
  -14.8070   13.8190   -0.9160 C   0  0  0  0  0  0
  -15.6030   14.5560    0.1760 C   0  0  0  0  0  0
  -15.2720   14.0560    1.5930 C   0  0  0  0  0  0
  -17.5540   13.9210   -5.4470 C   0  0  0  0  0  0
  -19.0410   14.2250   -5.1970 C   0  0  0  0  0  0
  -20.0310   13.9550   -6.3310 C   0  0  0  0  0  0
  -16.9350   15.1360   -6.1150 C   0  0  0  0  0  0
  -20.0260   14.8590   -7.5680 C   0  0  0  0  0  0
  -17.4990   15.2980   -7.5260 C   0  0  0  0  0  0
  -18.9050   15.8820   -7.6390 C   0  0  0  0  0  0
  -16.5590    9.9250   -3.2250 C   0  0  0  0  0  0
  -16.2690   14.5740    2.6480 N   0  3  0  0  0  0
  -16.3120    9.0120   -2.3410 N   0  0  0  0  0  0
  -15.5600   14.8270    3.9770 C   0  0  0  0  0  0
  -16.5410   15.3120    5.0450 C   0  0  0  0  0  0
  -17.7030   14.3330    5.2480 C   0  0  0  0  0  0
  -18.4220   14.1000    3.9220 C   0  0  0  0  0  0
  -17.4670   13.6420    2.8200 C   0  0  0  0  0  0
  -16.0444   15.1360   -3.1485 H   0  0  0  0  0  0
  -14.3005   12.9866   -0.4055 H   0  0  0  0  0  0
  -14.0573   14.5390   -1.2759 H   0  0  0  0  0  0
  -15.3720   15.6307    0.1358 H   0  0  0  0  0  0
  -16.6799   14.4059    0.0092 H   0  0  0  0  0  0
  -15.3010   12.9565    1.6099 H   0  0  0  0  0  0
  -14.2670   14.4007    1.8780 H   0  0  0  0  0  0
  -17.4300   13.0948   -6.1626 H   0  0  0  0  0  0
  -19.4022   13.6192   -4.3529 H   0  0  0  0  0  0
  -19.1624   15.2924   -4.9607 H   0  0  0  0  0  0
  -19.8616   12.9452   -6.7329 H   0  0  0  0  0  0
  -21.0587   14.0287   -5.9459 H   0  0  0  0  0  0
  -17.1666   16.0359   -5.5263 H   0  0  0  0  0  0
  -15.8442   15.0066   -6.1731 H   0  0  0  0  0  0
  -19.9340   14.2410   -8.4734 H   0  0  0  0  0  0
  -20.9649   15.4307   -7.6082 H   0  0  0  0  0  0
  -16.8489   15.9697   -8.1058 H   0  0  0  0  0  0
  -17.5431   14.3153   -8.0183 H   0  0  0  0  0  0
  -18.9524   16.4116   -8.6019 H   0  0  0  0  0  0
  -19.0156   16.6048   -6.8172 H   0  0  0  0  0  0
  -16.9840    9.6456   -4.2003 H   0  0  0  0  0  0
  -16.6755   15.5318    2.2911 H   0  0  0  0  0  0
  -15.8870    9.2914   -1.3657 H   0  0  0  0  0  0
  -15.0937   13.8943    4.3272 H   0  0  0  0  0  0
  -14.7848   15.5950    3.8386 H   0  0  0  0  0  0
  -16.0140   15.4216    6.0043 H   0  0  0  0  0  0
  -16.9602   16.2834    4.7438 H   0  0  0  0  0  0
  -17.3140   13.3751    5.6235 H   0  0  0  0  0  0
  -18.4122   14.7518    5.9771 H   0  0  0  0  0  0
  -19.1901   13.3235    4.0529 H   0  0  0  0  0  0
  -18.8986   15.0355    3.5940 H   0  0  0  0  0  0
  -18.0360   13.5989    1.8796 H   0  0  0  0  0  0
  -17.1128   12.6338    3.0808 H   0  0  0  0  0  0
  1  2  2  0  0  0
  1  6  1  0  0  0
  2  3  1  0  0  0
  2 10  1  0  0  0
  3  4  2  0  0  0
  3 25  1  0  0  0
  4  5  1  0  0  0
  4  7  1  0  0  0
  5  6  2  0  0  0
  6 17  1  0  0  0
  7  8  1  0  0  0
  7 26  1  0  0  0
  7 27  1  0  0  0
  8  9  1  0  0  0
  8 28  1  0  0  0
  8 29  1  0  0  0
  9 18  1  0  0  0
  9 30  1  0  0  0
  9 31  1  0  0  0
 10 11  1  0  0  0
 10 13  1  0  0  0
 10 32  1  0  0  0
 11 12  1  0  0  0
 11 33  1  0  0  0
 11 34  1  0  0  0
 12 14  1  0  0  0
 12 35  1  0  0  0
 12 36  1  0  0  0
 13 15  1  0  0  0
 13 37  1  0  0  0
 13 38  1  0  0  0
 14 16  1  0  0  0
 14 39  1  0  0  0
 14 40  1  0  0  0
 15 16  1  0  0  0
 15 41  1  0  0  0
 15 42  1  0  0  0
 16 43  1  0  0  0
 16 44  1  0  0  0
 17 19  2  0  0  0
 17 45  1  0  0  0
 18 20  1  0  0  0
 18 24  1  0  0  0
 18 46  1  0  0  0
 19 47  1  0  0  0
 20 21  1  0  0  0
 20 48  1  0  0  0
 20 49  1  0  0  0
 21 22  1  0  0  0
 21 50  1  0  0  0
 21 51  1  0  0  0
 22 23  1  0  0  0
 22 52  1  0  0  0
 22 53  1  0  0  0
 23 24  1  0  0  0
 23 54  1  0  0  0
 23 55  1  0  0  0
 24 56  1  0  0  0
 24 57  1  0  0  0
M  CHG  1  18   1
M  END
> <s_m_source_file>
../3kx1_ligand.sdf

> <i_m_source_file_index>
1

> <s_epik_input>
W0NIMl0xW0NIMl1bQ0gyXVtDSDJdW0NIMl1bQ0gyXVtDSF0xYzJuYygvW0NIXT1OXFtIXSluYyhbY0hdMilbQ0gyXVtDSDJdW0NIMl1bTkgrXTNbQ0gyXVtDSDJdW0NIMl1bQ0gyXVtDSDJdMw==

> <s_epik_cmdline>
J2VwaWtfYXBwJywgJy1pbWFlJywgJ2xpZ2FuZF9wcm8ubWFlJywgJy1vbWFlJywgJ2xpZ2FuZF9wcmVwLm1hZScsICctbXMnLCAnMScsICctcGgnLCAnNycsICctcGh0JywgJzAuNScsICctbnQn

> <r_lp_tautomer_probability>
1

> <r_epik_Ionization_Penalty>
  0.0016

> <r_epik_Ionization_Penalty_Charging>
  0.0016

> <r_epik_Ionization_Penalty_Neutral>
  0.0000

> <r_epik_State_Penalty>
 -0.0000

> <r_epik_Charging_Adjusted_Penalty>
0.00160337552178671

> <i_epik_Tot_Q>
1

> <i_epik_Tot_abs_Q>
1

> <s_epik_Chemistry_Notes>
This compound contains an electron-poor aromatic ring that is susceptible to covalent hydrolysis at low pH, typically resulting in measured values for nitrogen ring protonation that are around two units higher than predicted values. This compound has an imine and may undergo hydrolysis.

$$$$
