3kxz_ligand
                    3D
 Schrodinger Suite 2020-3.
 69 73  0  0  1  0            999 V2000
  -13.5280    3.2090   -7.3630 C   0  0  0  0  0  0
  -13.2620    1.8400   -9.4030 N   0  0  1  0  0  0
  -14.4060    2.4420   -9.9910 O   0  0  0  0  0  0
  -13.3620    1.7760   -7.9400 C   0  0  0  0  0  0
  -10.3100   -0.5100   -7.8000 N   0  0  0  0  0  0
  -11.1590   -1.6510   -6.0920 O   0  0  0  0  0  0
  -12.0170    1.1790   -7.5110 C   0  0  0  0  0  0
   -3.5500    1.9990   -8.5650 N   0  0  0  0  0  0
    2.3270   -2.9120   -5.2890 O   0  0  0  0  0  0
  -11.6370   -0.1200   -8.2120 C   0  0  1  0  0  0
   -3.4370    0.3580   -6.8770 N   0  0  0  0  0  0
  -11.7160    0.0480   -9.7220 C   0  0  0  0  0  0
   -4.1860   -0.4990   -6.2470 N   0  0  0  0  0  0
  -13.0930    0.5980  -10.1130 C   0  0  0  0  0  0
   -1.6020   -0.2040   -5.6460 N   0  0  0  0  0  0
  -14.1690   -0.4430   -9.8000 C   0  0  0  0  0  0
  -13.1680    0.8620  -11.6310 C   0  0  0  0  0  0
  -10.1840   -1.3060   -6.7160 C   0  0  0  0  0  0
   -8.8210   -1.6550   -6.2860 C   0  0  0  0  0  0
   -8.6130   -2.6880   -5.3840 C   0  0  0  0  0  0
   -7.3530   -3.0130   -4.9390 C   0  0  0  0  0  0
   -6.2900   -2.2640   -5.3960 C   0  0  0  0  0  0
   -6.4800   -1.2180   -6.3000 C   0  0  0  0  0  0
   -7.7550   -0.9240   -6.7270 C   0  0  0  0  0  0
   -5.3740   -0.3990   -6.7820 C   0  0  0  0  0  0
   -5.3810    0.5870   -7.7730 C   0  0  0  0  0  0
   -4.1270    1.0580   -7.8170 C   0  0  0  0  0  0
   -2.3170    2.1920   -8.3200 C   0  0  0  0  0  0
   -1.4820    1.5030   -7.3380 C   0  0  0  0  0  0
   -2.1090    0.5850   -6.6150 C   0  0  0  0  0  0
   -0.2780   -0.3610   -5.3440 C   0  0  0  0  0  0
    0.4940    0.7010   -4.9260 C   0  0  0  0  0  0
    1.8360    0.5290   -4.6520 C   0  0  0  0  0  0
    2.4430   -0.7000   -4.7770 C   0  0  0  0  0  0
    1.6930   -1.7490   -5.1860 C   0  0  0  0  0  0
    0.3410   -1.5960   -5.4770 C   0  0  0  0  0  0
  -14.4640    0.9360   -7.2840 C   0  0  0  0  0  0
  -12.7620    3.8694   -7.7955 H   0  0  0  0  0  0
  -13.4119    3.1797   -6.2695 H   0  0  0  0  0  0
  -14.5276    3.5924   -7.6155 H   0  0  0  0  0  0
  -14.7615    3.4179   -9.6286 H   0  0  0  0  0  0
   -9.4335   -0.1597   -8.3648 H   0  0  0  0  0  0
  -11.2123    1.8986   -7.7224 H   0  0  0  0  0  0
  -12.0398    0.9607   -6.4331 H   0  0  0  0  0  0
    3.3979   -2.9780   -5.0464 H   0  0  0  0  0  0
  -12.3005   -0.9432   -7.9085 H   0  0  0  0  0  0
  -10.9367    0.7498  -10.0541 H   0  0  0  0  0  0
  -11.5627   -0.9269  -10.2079 H   0  0  0  0  0  0
   -2.2762   -0.7976   -5.0112 H   0  0  0  0  0  0
  -14.1585   -0.6688   -8.7235 H   0  0  0  0  0  0
  -13.9666   -1.3621  -10.3695 H   0  0  0  0  0  0
  -15.1556   -0.0467  -10.0820 H   0  0  0  0  0  0
  -12.4101    1.6083  -11.9112 H   0  0  0  0  0  0
  -14.1682    1.2407  -11.8883 H   0  0  0  0  0  0
  -12.9792   -0.0748  -12.1758 H   0  0  0  0  0  0
   -9.4688   -3.2559   -5.0191 H   0  0  0  0  0  0
   -7.1994   -3.8392   -4.2448 H   0  0  0  0  0  0
   -5.2836   -2.4926   -5.0453 H   0  0  0  0  0  0
   -7.9153   -0.1007   -7.4231 H   0  0  0  0  0  0
   -6.2275    0.9055   -8.3814 H   0  0  0  0  0  0
   -1.8245    2.9628   -8.9128 H   0  0  0  0  0  0
   -0.4230    1.7270   -7.2095 H   0  0  0  0  0  0
    0.0410    1.6857   -4.8107 H   0  0  0  0  0  0
    2.4281    1.3855   -4.3295 H   0  0  0  0  0  0
    3.5022   -0.8250   -4.5519 H   0  0  0  0  0  0
   -0.2385   -2.4558   -5.8132 H   0  0  0  0  0  0
  -15.4484    1.3353   -7.5695 H   0  0  0  0  0  0
  -14.3546    0.9775   -6.1902 H   0  0  0  0  0  0
  -14.3796   -0.1075   -7.6216 H   0  0  0  0  0  0
  1  4  1  0  0  0
  1 38  1  0  0  0
  1 39  1  0  0  0
  1 40  1  0  0  0
  2  3  1  0  0  0
  2  4  1  0  0  0
  2 14  1  0  0  0
  3 41  1  0  0  0
  4  7  1  0  0  0
  4 37  1  0  0  0
  5 10  1  0  0  0
  5 18  1  0  0  0
  5 42  1  0  0  0
  6 18  2  0  0  0
  7 10  1  0  0  0
  7 43  1  0  0  0
  7 44  1  0  0  0
  8 27  1  0  0  0
  8 28  2  0  0  0
  9 35  1  0  0  0
  9 45  1  0  0  0
 10 12  1  0  0  0
 10 46  1  0  0  0
 11 13  1  0  0  0
 11 27  1  0  0  0
 11 30  1  0  0  0
 12 14  1  0  0  0
 12 47  1  0  0  0
 12 48  1  0  0  0
 13 25  2  0  0  0
 14 16  1  0  0  0
 14 17  1  0  0  0
 15 30  1  0  0  0
 15 31  1  0  0  0
 15 49  1  0  0  0
 16 50  1  0  0  0
 16 51  1  0  0  0
 16 52  1  0  0  0
 17 53  1  0  0  0
 17 54  1  0  0  0
 17 55  1  0  0  0
 18 19  1  0  0  0
 19 20  2  0  0  0
 19 24  1  0  0  0
 20 21  1  0  0  0
 20 56  1  0  0  0
 21 22  2  0  0  0
 21 57  1  0  0  0
 22 23  1  0  0  0
 22 58  1  0  0  0
 23 24  2  0  0  0
 23 25  1  0  0  0
 24 59  1  0  0  0
 25 26  1  0  0  0
 26 27  2  0  0  0
 26 60  1  0  0  0
 28 29  1  0  0  0
 28 61  1  0  0  0
 29 30  2  0  0  0
 29 62  1  0  0  0
 31 32  2  0  0  0
 31 36  1  0  0  0
 32 33  1  0  0  0
 32 63  1  0  0  0
 33 34  2  0  0  0
 33 64  1  0  0  0
 34 35  1  0  0  0
 34 65  1  0  0  0
 35 36  2  0  0  0
 36 66  1  0  0  0
 37 67  1  0  0  0
 37 68  1  0  0  0
 37 69  1  0  0  0
M  END
> <s_m_source_file>
../3kxz_ligand.sdf

> <i_m_source_file_index>
1

> <s_epik_input>
W0NIM11DMShbQ0gzXSlbTkBIK10oW09IXSlDKFtDSDNdKShbQ0gzXSlbQ0gyXVtDQEhdKFtDSDJdMSlbTkhdQyg9TyljMltjSF1bY0hdW2NIXWMoW2NIXTIpLWMobjMpW2NIXWMobjM0KW5bY0hdW2NIXWM0W05IXWM1W2NIXVtjSF1bY0hdYyhbT0hdKVtjSF01

> <s_epik_cmdline>
J2VwaWtfYXBwJywgJy1pbWFlJywgJ2xpZ2FuZF9wcm8ubWFlJywgJy1vbWFlJywgJ2xpZ2FuZF9wcmVwLm1hZScsICctbXMnLCAnMScsICctcGgnLCAnNycsICctcGh0JywgJzAuNScsICctbnQn

> <r_epik_Ionization_Penalty>
  0.0221

> <r_epik_Ionization_Penalty_Charging>
  0.0000

> <r_epik_Ionization_Penalty_Neutral>
  0.0221

> <r_epik_State_Penalty>
  0.3332

> <r_epik_Charging_Adjusted_Penalty>
0.333180249125382

> <i_epik_Tot_Q>
0

> <i_epik_Tot_abs_Q>
0

> <s_epik_Chemistry_Notes>
This compound has a N-S or N-O group and may undergo hydrolysis at high or low pH.

$$$$
