3kyf_ligand
                    3D
 Schrodinger Suite 2020-3.
 36 38  0  0  1  0            999 V2000
   -5.1860   10.1580   16.4700 P   0  0  0  0  0  0
   -4.6000    9.1780   17.4200 O   0  0  0  0  0  0
   -4.8800    9.8030   15.0590 O   0  0  0  0  0  0
   -4.5800   11.6230   16.6850 O   0  0  0  0  0  0
   -4.4910   12.1740   18.0030 C   0  0  0  0  0  0
   -4.0510   13.6380   17.9490 C   0  0  1  0  0  0
   -2.7680   13.7940   17.3190 O   0  0  0  0  0  0
   -5.0110   14.4550   17.0850 C   0  0  1  0  0  0
   -6.1470   14.7950   17.8860 O   0  0  0  0  0  0
   -4.1310   15.6880   16.8950 C   0  0  1  0  0  0
   -4.0450   16.4240   18.1180 O   0  0  0  0  0  0
   -2.7770   15.0390   16.5980 C   0  0  2  0  0  0
   -2.6600   14.7460   15.1520 N   0  0  0  0  0  0
   -2.8530   13.5710   14.5580 C   0  0  0  0  0  0
   -2.6320   13.6930   13.2510 N   0  0  0  0  0  0
   -2.2970   14.9570   13.0050 C   0  0  0  0  0  0
   -1.9540   15.6450   11.8470 C   0  0  0  0  0  0
   -1.9220   15.0740   10.7570 O   0  0  0  0  0  0
   -1.6340   17.0040   11.9440 N   0  3  0  0  0  0
   -1.6660   17.6290   13.1980 C   0  0  0  0  0  0
   -1.3330   18.9120   13.3100 N   0  0  0  0  0  0
   -2.0040   16.9330   14.2930 N   0  0  0  0  0  0
   -2.3140   15.6300   14.2200 C   0  0  0  0  0  0
   -5.1959    8.8295   14.6559 H   0  0  0  0  0  0
   -5.4748   12.1165   18.4916 H   0  0  0  0  0  0
   -3.7562   11.6036   18.5901 H   0  0  0  0  0  0
   -3.9667   13.9920   18.9871 H   0  0  0  0  0  0
   -5.4410   13.9932   16.1840 H   0  0  0  0  0  0
   -6.8973   14.0284   18.1299 H   0  0  0  0  0  0
   -4.4945   16.4318   16.1707 H   0  0  0  0  0  0
   -4.9251   16.9632   18.4985 H   0  0  0  0  0  0
   -1.9195   15.6598   16.8969 H   0  0  0  0  0  0
   -3.1466   12.6510   15.0634 H   0  0  0  0  0  0
   -1.0548   19.4882   12.4152 H   0  0  0  0  0  0
   -1.3358   19.3968   14.2974 H   0  0  0  0  0  0
   -1.3609   17.5705   11.0415 H   0  0  0  0  0  0
  1  2  2  0  0  0
  1  3  1  0  0  0
  1  4  1  0  0  0
  3 24  1  0  0  0
  4  5  1  0  0  0
  5  6  1  0  0  0
  5 25  1  0  0  0
  5 26  1  0  0  0
  6  7  1  0  0  0
  6  8  1  0  0  0
  6 27  1  0  0  0
  7 12  1  0  0  0
  8  9  1  0  0  0
  8 10  1  0  0  0
  8 28  1  0  0  0
  9 29  1  0  0  0
 10 11  1  0  0  0
 10 12  1  0  0  0
 10 30  1  0  0  0
 11 31  1  0  0  0
 12 13  1  0  0  0
 12 32  1  0  0  0
 13 14  1  0  0  0
 13 23  1  0  0  0
 14 15  2  0  0  0
 14 33  1  0  0  0
 15 16  1  0  0  0
 16 17  1  0  0  0
 16 23  2  0  0  0
 17 18  2  0  0  0
 17 19  1  0  0  0
 19 20  1  0  0  0
 19 36  1  0  0  0
 20 21  1  0  0  0
 20 22  2  0  0  0
 21 34  1  0  0  0
 21 35  1  0  0  0
 22 23  1  0  0  0
M  CHG  1  19   1
M  END
> <s_m_source_file>
../3kyf_ligand.sdf

> <i_m_source_file_index>
1

> <s_epik_input>
Tz1bUEhdKFtPSF0pT1tDSDJdW0NASF0xT1tDQEhdKFtDQEhdKFtPSF0pW0NAQEhdMVtPSF0pbihbY0hdbjIpYyhjMjMpW25IXWMoPU5cW0hdKVxbbkhdYzM9Tw==

> <s_epik_cmdline>
J2VwaWtfYXBwJywgJy1pbWFlJywgJ2xpZ2FuZF9wcm8ubWFlJywgJy1vbWFlJywgJ2xpZ2FuZF9wcmVwLm1hZScsICctbXMnLCAnMScsICctcGgnLCAnNycsICctcGh0JywgJzAuNScsICctbnQn

> <r_epik_Ionization_Penalty>
  2.3885

> <r_epik_Ionization_Penalty_Charging>
  2.3885

> <r_epik_Ionization_Penalty_Neutral>
  0.0000

> <r_epik_State_Penalty>
  0.2241

> <r_epik_Charging_Adjusted_Penalty>
2.61254117606896

> <i_epik_Tot_Q>
1

> <i_epik_Tot_abs_Q>
1

> <s_epik_Chemistry_Notes>
This compound has an imine and may undergo hydrolysis. This compound contains an acetal/aminal-like group ( X-CH(R)-Y where X, Y are N, S, or O) that may be acid/base labile, releasing an aldehyde.

$$$$
