3kyg_ligand
                    3D
 Schrodinger Suite 2020-3.
 36 38  0  0  1  0            999 V2000
    5.4860  -15.3530  -12.7960 P   0  0  0  0  0  0
    4.8020  -14.7520  -13.9690 O   0  0  0  0  0  0
    4.7190  -16.4980  -12.2460 O   0  0  0  0  0  0
    5.6240  -14.2990  -11.6020 O   0  0  0  0  0  0
    6.0630  -12.9710  -11.9090 C   0  0  0  0  0  0
    6.3100  -12.1800  -10.6240 C   0  0  1  0  0  0
    5.1140  -12.0850   -9.8340 O   0  0  0  0  0  0
    7.3070  -12.9260   -9.7390 C   0  0  1  0  0  0
    8.6320  -12.6230  -10.1860 O   0  0  0  0  0  0
    7.0270  -12.1900   -8.4300 C   0  0  1  0  0  0
    7.5460  -10.8590   -8.4920 O   0  0  0  0  0  0
    5.4980  -12.1380   -8.4500 C   0  0  2  0  0  0
    4.9130  -13.3710   -7.8840 N   0  0  0  0  0  0
    4.3970  -14.4020   -8.5520 C   0  0  0  0  0  0
    3.8980  -15.2800   -7.6840 N   0  0  0  0  0  0
    4.0960  -14.8080   -6.4540 C   0  0  0  0  0  0
    3.7390  -15.2440   -5.1850 C   0  0  0  0  0  0
    3.1760  -16.3260   -5.0240 O   0  0  0  0  0  0
    4.0440  -14.4430   -4.0780 N   0  3  0  0  0  0
    4.7140  -13.2280   -4.2760 C   0  0  0  0  0  0
    5.0440  -12.4640   -3.2380 N   0  0  0  0  0  0
    5.0460  -12.8400   -5.5140 N   0  0  0  0  0  0
    4.7510  -13.5900   -6.5850 C   0  0  0  0  0  0
    4.6313  -15.3536  -14.8740 H   0  0  0  0  0  0
    6.9985  -13.0182  -12.4857 H   0  0  0  0  0  0
    5.2920  -12.4579  -12.5025 H   0  0  0  0  0  0
    6.6247  -11.1625  -10.8992 H   0  0  0  0  0  0
    7.2774  -14.0255   -9.7248 H   0  0  0  0  0  0
    9.0126  -13.0656  -11.1184 H   0  0  0  0  0  0
    7.4996  -12.6089   -7.5294 H   0  0  0  0  0  0
    8.6332  -10.6919   -8.4882 H   0  0  0  0  0  0
    5.1059  -11.2754   -7.8913 H   0  0  0  0  0  0
    4.3852  -14.5096   -9.6366 H   0  0  0  0  0  0
    4.7749  -12.7758   -2.2180 H   0  0  0  0  0  0
    5.5860  -11.5205   -3.3998 H   0  0  0  0  0  0
    3.7581  -14.7697   -3.0673 H   0  0  0  0  0  0
  1  2  1  0  0  0
  1  3  2  0  0  0
  1  4  1  0  0  0
  2 24  1  0  0  0
  4  5  1  0  0  0
  5  6  1  0  0  0
  5 25  1  0  0  0
  5 26  1  0  0  0
  6  7  1  0  0  0
  6  8  1  0  0  0
  6 27  1  0  0  0
  7 12  1  0  0  0
  8  9  1  0  0  0
  8 10  1  0  0  0
  8 28  1  0  0  0
  9 29  1  0  0  0
 10 11  1  0  0  0
 10 12  1  0  0  0
 10 30  1  0  0  0
 11 31  1  0  0  0
 12 13  1  0  0  0
 12 32  1  0  0  0
 13 14  1  0  0  0
 13 23  1  0  0  0
 14 15  2  0  0  0
 14 33  1  0  0  0
 15 16  1  0  0  0
 16 17  1  0  0  0
 16 23  2  0  0  0
 17 18  2  0  0  0
 17 19  1  0  0  0
 19 20  1  0  0  0
 19 36  1  0  0  0
 20 21  1  0  0  0
 20 22  2  0  0  0
 21 34  1  0  0  0
 21 35  1  0  0  0
 22 23  1  0  0  0
M  CHG  1  19   1
M  END
> <s_m_source_file>
../3kyg_ligand.sdf

> <i_m_source_file_index>
1

> <s_epik_input>
W09IXVtQSF0oPU8pT1tDSDJdW0NASF0xT1tDQEhdKFtDQEhdKFtPSF0pW0NAQEhdMVtPSF0pbihbY0hdbjIpYyhjMjMpW25IXWMoPU5cW0hdKVxbbkhdYzM9Tw==

> <s_epik_cmdline>
J2VwaWtfYXBwJywgJy1pbWFlJywgJ2xpZ2FuZF9wcm8ubWFlJywgJy1vbWFlJywgJ2xpZ2FuZF9wcmVwLm1hZScsICctbXMnLCAnMScsICctcGgnLCAnNycsICctcGh0JywgJzAuNScsICctbnQn

> <r_epik_Ionization_Penalty>
  2.3885

> <r_epik_Ionization_Penalty_Charging>
  2.3885

> <r_epik_Ionization_Penalty_Neutral>
  0.0000

> <r_epik_State_Penalty>
  0.2241

> <r_epik_Charging_Adjusted_Penalty>
2.61254117606896

> <i_epik_Tot_Q>
1

> <i_epik_Tot_abs_Q>
1

> <s_epik_Chemistry_Notes>
This compound has an imine and may undergo hydrolysis. This compound contains an acetal/aminal-like group ( X-CH(R)-Y where X, Y are N, S, or O) that may be acid/base labile, releasing an aldehyde.

$$$$
