3kze_ligand
                    3D
 Schrodinger Suite 2020-3.
126127  0  0  1  0            999 V2000
    5.1880   21.7580   -2.7990 N   0  3  0  0  0  0
    5.5750   21.0100   -1.6070 C   0  0  2  0  0  0
    4.3860   20.2420   -1.0410 C   0  0  0  0  0  0
    3.4150   20.8330   -0.5690 O   0  0  0  0  0  0
    6.1610   21.9450   -0.5470 C   0  0  0  0  0  0
    4.4830   18.9200   -1.0870 N   0  0  0  0  0  0
    3.3820   18.0460   -0.7200 C   0  0  2  0  0  0
    3.9520   16.7630   -0.1270 C   0  0  0  0  0  0
    4.8180   16.1220   -0.7280 O   0  0  0  0  0  0
    2.5440   17.7190   -1.9590 C   0  0  0  0  0  0
    1.1800   17.1140   -1.6590 C   0  0  0  0  0  0
    0.6730   16.2990   -2.8400 C   0  0  0  0  0  0
   -0.5970   15.6280   -2.5620 N   0  0  0  0  0  0
   -0.7330   14.5990   -1.7310 C   0  0  0  0  0  0
    0.3210   14.1270   -1.0710 N   0  0  0  0  0  0
   -1.9240   14.0490   -1.5470 N   0  3  0  0  0  0
    3.4760   16.3890    1.0560 N   0  0  0  0  0  0
    3.9100   15.1440    1.6730 C   0  0  2  0  0  0
    2.7250   14.3530    2.1990 C   0  0  0  0  0  0
    1.7020   14.9230    2.5820 O   0  0  0  0  0  0
    4.9050   15.4130    2.8020 C   0  0  0  0  0  0
    6.3090   15.7310    2.3280 C   0  0  0  0  0  0
    6.9670   14.5110    1.7050 C   0  0  0  0  0  0
    8.4630   14.7270    1.5310 C   0  0  0  0  0  0
    8.7600   15.9300    0.7100 N   0  3  0  0  0  0
    2.8720   13.0340    2.2060 N   0  0  0  0  0  0
    1.8450   12.1430    2.7180 C   0  0  2  0  0  0
    2.3340   11.5110    4.0200 C   0  0  0  0  0  0
    3.5070   11.1320    4.1370 O   0  0  0  0  0  0
    1.5090   11.0700    1.6760 C   0  0  0  0  0  0
    0.3620   10.1530    2.0630 C   0  0  0  0  0  0
   -0.9800   10.8620    2.0640 C   0  0  0  0  0  0
   -1.1060   11.9070    1.3850 O   0  0  0  0  0  0
   -1.9140   10.3760    2.7490 O   0  5  0  0  0  0
    1.4500   11.4240    5.0090 N   0  0  0  0  0  0
    1.8060   10.8280    6.2950 C   0  0  2  0  0  0
    0.7810    9.7860    6.7060 C   0  0  0  0  0  0
   -0.4200   10.0440    6.6700 O   0  0  0  0  0  0
    1.8890   11.8950    7.3980 C   0  0  0  0  0  0
    2.9190   12.9650    7.1620 C   0  0  0  0  0  0
    4.1970   12.8600    7.7050 C   0  0  0  0  0  0
    2.6150   14.0930    6.4120 C   0  0  0  0  0  0
    5.1430   13.8380    7.4910 C   0  0  0  0  0  0
    3.5590   15.0810    6.1950 C   0  0  0  0  0  0
    4.8210   14.9460    6.7380 C   0  0  0  0  0  0
    5.7600   15.9290    6.5270 O   0  0  0  0  0  0
    1.2590    8.6140    7.1090 N   0  0  0  0  0  0
    0.3660    7.5630    7.5780 C   0  0  2  0  0  0
    0.4630    7.4170    9.0910 C   0  0  0  0  0  0
    1.5450    7.5340    9.6630 O   0  0  0  0  0  0
    0.6810    6.2590    6.8470 C   0  0  0  0  0  0
    0.6110    6.4620    5.3530 C   0  0  0  0  0  0
    1.7380    6.8350    4.6300 C   0  0  0  0  0  0
   -0.5920    6.3320    4.6710 C   0  0  0  0  0  0
    1.6770    7.0430    3.2650 C   0  0  0  0  0  0
   -0.6650    6.5410    3.3000 C   0  0  0  0  0  0
    0.4740    6.8960    2.6040 C   0  0  0  0  0  0
    0.4200    7.1090    1.2420 O   0  0  0  0  0  0
   -0.6760    7.1900    9.7370 N   0  0  0  0  0  0
   -0.7390    7.1490   11.1910 C   0  0  2  0  0  0
   -1.5370    5.9510   11.6900 C   0  0  0  0  0  0
   -2.3610    5.4250   10.9360 O   0  0  0  0  0  0
   -1.3290    8.4510   11.7330 C   0  0  0  0  0  0
   -1.3720    5.4960   12.8400 O   0  5  0  0  0  0
    4.7702   21.0669   -3.5459 H   0  0  0  0  0  0
    6.0714   22.2614   -3.2188 H   0  0  0  0  0  0
    4.4308   22.5094   -2.5306 H   0  0  0  0  0  0
    6.3439   20.2993   -1.9441 H   0  0  0  0  0  0
    7.0166   22.4904   -0.9718 H   0  0  0  0  0  0
    6.4958   21.3541    0.3183 H   0  0  0  0  0  0
    5.3918   22.6626   -0.2255 H   0  0  0  0  0  0
    5.4399   18.4899   -1.4176 H   0  0  0  0  0  0
    2.7727   18.5843    0.0209 H   0  0  0  0  0  0
    2.3653   18.6395   -2.5341 H   0  0  0  0  0  0
    3.0838   16.9940   -2.5859 H   0  0  0  0  0  0
    1.2564   16.4543   -0.7821 H   0  0  0  0  0  0
    0.4597   17.9188   -1.4507 H   0  0  0  0  0  0
    0.5206   16.9619   -3.7045 H   0  0  0  0  0  0
    1.4124   15.5260   -3.0965 H   0  0  0  0  0  0
   -1.5192   15.9702   -3.0544 H   0  0  0  0  0  0
    1.3119   14.5806   -1.2206 H   0  0  0  0  0  0
    0.2017   13.2831   -0.3756 H   0  0  0  0  0  0
   -2.7985   14.4360   -2.0906 H   0  0  0  0  0  0
    2.7460   17.0321    1.5694 H   0  0  0  0  0  0
    4.3966   14.5802    0.8635 H   0  0  0  0  0  0
    4.5618   16.2728    3.3960 H   0  0  0  0  0  0
    4.9752   14.5255    3.4481 H   0  0  0  0  0  0
    6.2692   16.5317    1.5748 H   0  0  0  0  0  0
    6.9184   16.0611    3.1822 H   0  0  0  0  0  0
    6.8101   13.6377    2.3552 H   0  0  0  0  0  0
    6.5215   14.3180    0.7179 H   0  0  0  0  0  0
    8.9314   14.8601    2.5174 H   0  0  0  0  0  0
    8.9040   13.8523    1.0307 H   0  0  0  0  0  0
    9.8493   16.0465    0.6110 H   0  0  0  0  0  0
    8.3389   16.8208    1.1991 H   0  0  0  0  0  0
    8.3115   15.8129   -0.2876 H   0  0  0  0  0  0
    3.8098   12.6204    1.8066 H   0  0  0  0  0  0
    0.9532   12.7582    2.9084 H   0  0  0  0  0  0
    1.2260   11.5539    0.7296 H   0  0  0  0  0  0
    2.3885   10.4300    1.5119 H   0  0  0  0  0  0
    0.3020    9.3192    1.3481 H   0  0  0  0  0  0
    0.5345    9.7569    3.0746 H   0  0  0  0  0  0
    0.4337   11.8115    4.8449 H   0  0  0  0  0  0
    2.7861   10.3591    6.1228 H   0  0  0  0  0  0
    0.9180   12.4036    7.4899 H   0  0  0  0  0  0
    2.1433   11.4147    8.3544 H   0  0  0  0  0  0
    4.4529   11.9897    8.3092 H   0  0  0  0  0  0
    1.6170   14.2020    5.9874 H   0  0  0  0  0  0
    6.1418   13.7359    7.9154 H   0  0  0  0  0  0
    3.3082   15.9591    5.5999 H   0  0  0  0  0  0
    6.7677   15.8284    6.9565 H   0  0  0  0  0  0
    2.3453    8.4427    7.0852 H   0  0  0  0  0  0
   -0.6593    7.8765    7.3321 H   0  0  0  0  0  0
    1.6936    5.9235    7.1155 H   0  0  0  0  0  0
   -0.0493    5.4897    7.1382 H   0  0  0  0  0  0
    2.6875    6.9659    5.1491 H   0  0  0  0  0  0
   -1.4935    6.0615    5.2208 H   0  0  0  0  0  0
    2.5746    7.3218    2.7130 H   0  0  0  0  0  0
   -1.6143    6.4257    2.7769 H   0  0  0  0  0  0
    1.3304    7.3915    0.6930 H   0  0  0  0  0  0
   -1.5875    7.0306    9.1423 H   0  0  0  0  0  0
    0.3055    7.0347   11.5166 H   0  0  0  0  0  0
   -0.7400    9.3028   11.3621 H   0  0  0  0  0  0
   -1.3007    8.4366   12.8325 H   0  0  0  0  0  0
   -2.3708    8.5504   11.3943 H   0  0  0  0  0  0
   -2.0385   13.2053   -0.8506 H   0  0  0  0  0  0
  1  2  1  0  0  0
  1 65  1  0  0  0
  1 66  1  0  0  0
  1 67  1  0  0  0
  2  3  1  0  0  0
  2  5  1  0  0  0
  2 68  1  0  0  0
  3  4  2  0  0  0
  3  6  1  0  0  0
  5 69  1  0  0  0
  5 70  1  0  0  0
  5 71  1  0  0  0
  6  7  1  0  0  0
  6 72  1  0  0  0
  7  8  1  0  0  0
  7 10  1  0  0  0
  7 73  1  0  0  0
  8  9  2  0  0  0
  8 17  1  0  0  0
 10 11  1  0  0  0
 10 74  1  0  0  0
 10 75  1  0  0  0
 11 12  1  0  0  0
 11 76  1  0  0  0
 11 77  1  0  0  0
 12 13  1  0  0  0
 12 78  1  0  0  0
 12 79  1  0  0  0
 13 14  1  0  0  0
 13 80  1  0  0  0
 14 15  1  0  0  0
 14 16  2  0  0  0
 15 81  1  0  0  0
 15 82  1  0  0  0
 16 83  1  0  0  0
 16126  1  0  0  0
 17 18  1  0  0  0
 17 84  1  0  0  0
 18 19  1  0  0  0
 18 21  1  0  0  0
 18 85  1  0  0  0
 19 20  2  0  0  0
 19 26  1  0  0  0
 21 22  1  0  0  0
 21 86  1  0  0  0
 21 87  1  0  0  0
 22 23  1  0  0  0
 22 88  1  0  0  0
 22 89  1  0  0  0
 23 24  1  0  0  0
 23 90  1  0  0  0
 23 91  1  0  0  0
 24 25  1  0  0  0
 24 92  1  0  0  0
 24 93  1  0  0  0
 25 94  1  0  0  0
 25 95  1  0  0  0
 25 96  1  0  0  0
 26 27  1  0  0  0
 26 97  1  0  0  0
 27 28  1  0  0  0
 27 30  1  0  0  0
 27 98  1  0  0  0
 28 29  2  0  0  0
 28 35  1  0  0  0
 30 31  1  0  0  0
 30 99  1  0  0  0
 30100  1  0  0  0
 31 32  1  0  0  0
 31101  1  0  0  0
 31102  1  0  0  0
 32 33  2  0  0  0
 32 34  1  0  0  0
 35 36  1  0  0  0
 35103  1  0  0  0
 36 37  1  0  0  0
 36 39  1  0  0  0
 36104  1  0  0  0
 37 38  2  0  0  0
 37 47  1  0  0  0
 39 40  1  0  0  0
 39105  1  0  0  0
 39106  1  0  0  0
 40 41  2  0  0  0
 40 42  1  0  0  0
 41 43  1  0  0  0
 41107  1  0  0  0
 42 44  2  0  0  0
 42108  1  0  0  0
 43 45  2  0  0  0
 43109  1  0  0  0
 44 45  1  0  0  0
 44110  1  0  0  0
 45 46  1  0  0  0
 46111  1  0  0  0
 47 48  1  0  0  0
 47112  1  0  0  0
 48 49  1  0  0  0
 48 51  1  0  0  0
 48113  1  0  0  0
 49 50  2  0  0  0
 49 59  1  0  0  0
 51 52  1  0  0  0
 51114  1  0  0  0
 51115  1  0  0  0
 52 53  2  0  0  0
 52 54  1  0  0  0
 53 55  1  0  0  0
 53116  1  0  0  0
 54 56  2  0  0  0
 54117  1  0  0  0
 55 57  2  0  0  0
 55118  1  0  0  0
 56 57  1  0  0  0
 56119  1  0  0  0
 57 58  1  0  0  0
 58120  1  0  0  0
 59 60  1  0  0  0
 59121  1  0  0  0
 60 61  1  0  0  0
 60 63  1  0  0  0
 60122  1  0  0  0
 61 62  2  0  0  0
 61 64  1  0  0  0
 63123  1  0  0  0
 63124  1  0  0  0
 63125  1  0  0  0
M  CHG  5   1   1  16   1  25   1  34  -1  64  -1
M  END
> <s_m_source_file>
../3kze_ligand.sdf

> <i_m_source_file_index>
1

> <s_epik_input>
W0hdL049QyhbTkgyXSlcW05IXVtDSDJdW0NIMl1bQ0gyXVtDQEhdKFtOSF1DKD1PKVtDQEBIXShbTkgzK10pW0NIM10pQyg9TylbTkhdW0NAQEhdKFtDSDJdW0NIMl1bQ0gyXVtDSDJdW05IMytdKUMoPU8pW05IXVtDQEBIXShbQ0gyXVtDSDJdQyg9TylbT0hdKUMoPU8pW05IXVtDQEBIXShbQ0gyXWMxW2NIXVtjSF1jKFtPSF0pW2NIXVtjSF0xKUMoPU8pW05IXVtDQEhdKEMoPU8pW05IXVtDQEBIXShbQ0gzXSlDKD1PKVtPSF0pW0NIMl1jMltjSF1bY0hdYyhbT0hdKVtjSF1bY0hdMg==

> <s_epik_cmdline>
J2VwaWtfYXBwJywgJy1pbWFlJywgJ2xpZ2FuZF9wcm8ubWFlJywgJy1vbWFlJywgJ2xpZ2FuZF9wcmVwLm1hZScsICctbXMnLCAnMScsICctcGgnLCAnNycsICctcGh0JywgJzAuNScsICctbnQn

> <r_lp_tautomer_probability>
0.99999999999473

> <r_epik_Ionization_Penalty>
  0.1292

> <r_epik_Ionization_Penalty_Charging>
  0.1274

> <r_epik_Ionization_Penalty_Neutral>
  0.0018

> <r_epik_State_Penalty>
  0.1145

> <r_epik_Charging_Adjusted_Penalty>
0.241914293871917

> <i_epik_Tot_Q>
1

> <i_epik_Tot_abs_Q>
5

> <s_epik_Chemistry_Notes>
This compound has an imine and may undergo hydrolysis.

$$$$
