3l0k_ligand
                    3D
 Schrodinger Suite 2020-3.
 39 40  0  0  1  0            999 V2000
   27.2930  -10.7730   13.7680 O   0  5  0  0  0  0
   26.2690  -11.0760   14.8420 P   0  0  0  0  0  0
   25.0380  -11.7150   14.3130 O   0  0  0  0  0  0
   26.9060  -11.8150   15.9800 O   0  5  0  0  0  0
   25.8970   -9.6760   15.5360 O   0  0  0  0  0  0
   25.0770   -8.7090   14.8900 C   0  0  0  0  0  0
   25.0710   -7.4640   15.7860 C   0  0  2  0  0  0
   24.2560   -7.6510   17.0510 C   0  0  2  0  0  0
   22.9130   -7.0770   16.6780 C   0  0  1  0  0  0
   22.2360   -6.5950   17.8250 O   0  0  0  0  0  0
   23.2730   -5.9870   15.6600 C   0  0  1  0  0  0
   24.5220   -6.3380   15.0870 O   0  0  0  0  0  0
   22.2770   -5.7520   14.5990 N   0  0  0  0  0  0
   21.6650   -4.4770   14.4270 C   0  0  1  0  0  0
   22.4430   -3.2290   14.5500 C   0  0  0  0  0  0
   23.9050   -3.2730   14.4800 C   0  0  0  0  0  0
   21.8140   -2.0880   14.6520 O   0  0  0  0  0  0
   20.5310   -4.3480   13.5510 C   0  0  0  0  0  0
   20.1930   -5.4480   12.8050 C   0  0  0  0  0  0
   19.2890   -5.3790   11.9520 O   0  0  0  0  0  0
   20.8760   -6.5830   12.9140 N   0  0  0  0  0  0
   21.8760   -6.7850   13.7850 C   0  0  0  0  0  0
   22.4060   -7.9040   13.8430 O   0  0  0  0  0  0
   24.8430   -6.9370   18.1610 O   0  0  0  0  0  0
   25.4958   -8.4758   13.8999 H   0  0  0  0  0  0
   24.0597   -9.1106   14.7724 H   0  0  0  0  0  0
   26.1152   -7.2287   16.0397 H   0  0  0  0  0  0
   24.2146   -8.6859   17.4215 H   0  0  0  0  0  0
   22.1689   -7.8008   16.3139 H   0  0  0  0  0  0
   21.9316   -7.2937   18.6182 H   0  0  0  0  0  0
   23.3596   -5.0104   16.1588 H   0  0  0  0  0  0
   21.2271   -4.6515   15.4209 H   0  0  0  0  0  0
   24.2368   -4.3185   14.3978 H   0  0  0  0  0  0
   24.3293   -2.8241   15.3902 H   0  0  0  0  0  0
   24.2470   -2.7094   13.5994 H   0  0  0  0  0  0
   19.6361   -4.1056   14.1430 H   0  0  0  0  0  0
   20.7187   -3.5439   12.8242 H   0  0  0  0  0  0
   20.6331   -7.4357   12.2630 H   0  0  0  0  0  0
   25.8265   -7.2386   18.5507 H   0  0  0  0  0  0
  1  2  1  0  0  0
  2  3  2  0  0  0
  2  4  1  0  0  0
  2  5  1  0  0  0
  5  6  1  0  0  0
  6  7  1  0  0  0
  6 25  1  0  0  0
  6 26  1  0  0  0
  7  8  1  0  0  0
  7 12  1  0  0  0
  7 27  1  0  0  0
  8  9  1  0  0  0
  8 24  1  0  0  0
  8 28  1  0  0  0
  9 10  1  0  0  0
  9 11  1  0  0  0
  9 29  1  0  0  0
 10 30  1  0  0  0
 11 12  1  0  0  0
 11 13  1  0  0  0
 11 31  1  0  0  0
 13 14  1  0  0  0
 13 22  1  0  0  0
 14 15  1  0  0  0
 14 18  1  0  0  0
 14 32  1  0  0  0
 15 16  1  0  0  0
 15 17  2  0  0  0
 16 33  1  0  0  0
 16 34  1  0  0  0
 16 35  1  0  0  0
 18 19  1  0  0  0
 18 36  1  0  0  0
 18 37  1  0  0  0
 19 20  2  0  0  0
 19 21  1  0  0  0
 21 22  1  0  0  0
 21 38  1  0  0  0
 22 23  2  0  0  0
 24 39  1  0  0  0
M  CHG  2   1  -1   4  -1
M  END
> <s_m_source_file>
../3l0k_ligand.sdf

> <i_m_source_file_index>
1

> <s_epik_input>
W09IXVAoPU8pKFtPSF0pT1tDSDJdW0NAQEhdMVtDQEBIXShbT0hdKVtDQEBIXShbT0hdKVtDQEBIXShPMSlOMltDQEBIXShDKD1PKVtDSDNdKVtDSDJdQyg9TylbTkhdQzI9Tw==

> <s_epik_cmdline>
J2VwaWtfYXBwJywgJy1pbWFlJywgJ2xpZ2FuZF9wcm8ubWFlJywgJy1vbWFlJywgJ2xpZ2FuZF9wcmVwLm1hZScsICctbXMnLCAnMScsICctcGgnLCAnNycsICctcGh0JywgJzAuNScsICctbnQn

> <r_lp_tautomer_probability>
1

> <r_epik_Ionization_Penalty>
  0.1265

> <r_epik_Ionization_Penalty_Charging>
  0.1039

> <r_epik_Ionization_Penalty_Neutral>
  0.0226

> <r_epik_State_Penalty>
 -0.0000

> <r_epik_Charging_Adjusted_Penalty>
0.103859043045914

> <i_epik_Tot_Q>
-2

> <i_epik_Tot_abs_Q>
2

> <s_epik_Chemistry_Notes>
This compound contains an acetal/aminal-like group ( X-CH(R)-Y where X, Y are N, S, or O) that may be acid/base labile, releasing an aldehyde.

$$$$
