3l13_ligand
                    3D
 Schrodinger Suite 2020-3.
 63 67  0  0  1  0            999 V2000
   22.7580   64.9390   20.9940 C   0  0  0  0  0  0
   24.2270   63.1360   21.0200 N   0  0  0  0  0  0
   19.4150   59.7320   24.4770 O   0  0  0  0  0  0
   20.6810   63.9490   22.0010 S   0  0  0  0  0  0
   21.5040   65.2300   21.3210 C   0  0  0  0  0  0
   23.3030   61.0680   21.9590 N   0  0  0  0  0  0
   18.4570   66.8960   15.5480 O   0  0  0  0  0  0
   17.8510   67.7280   16.5590 S   0  0  0  0  0  0
   23.0370   63.6700   21.2720 C   0  0  0  0  0  0
   21.1960   60.9260   22.7580 N   0  0  0  0  0  0
   16.5180   67.2330   16.8000 O   0  0  0  0  0  0
   22.0360   62.9850   21.8300 C   0  0  0  0  0  0
   20.0780   66.9290   20.0390 N   0  0  0  0  0  0
   27.7650   58.4150   23.9810 O   0  0  0  0  0  0
   24.4170   61.7480   21.3560 C   0  0  0  0  0  0
   18.6650   67.5690   17.8490 N   0  0  2  0  0  0
   22.1450   61.6770   22.1790 C   0  0  0  0  0  0
   25.6940   61.0510   21.1600 C   0  0  0  0  0  0
   19.7590   60.9610   22.4810 C   0  0  0  0  0  0
   19.0720   60.9510   23.8370 C   0  0  0  0  0  0
   20.7970   59.6910   24.7900 C   0  0  0  0  0  0
   21.6150   59.7430   23.5160 C   0  0  0  0  0  0
   20.9300   66.6190   21.1690 C   0  0  0  0  0  0
   19.7850   68.3450   19.8590 C   0  0  0  0  0  0
   19.5430   68.6160   18.3730 C   0  0  0  0  0  0
   19.0410   66.2010   18.1460 C   0  0  0  0  0  0
   19.0050   66.0420   19.6520 C   0  0  0  0  0  0
   17.7580   69.3020   15.9980 C   0  0  0  0  0  0
   26.6410   61.5140   20.2660 C   0  0  0  0  0  0
   27.8390   60.8360   20.1350 C   0  0  0  0  0  0
   28.0990   59.7170   20.9090 C   0  0  0  0  0  0
   27.1540   59.2670   21.8190 C   0  0  0  0  0  0
   25.9540   59.9370   21.9460 C   0  0  0  0  0  0
   27.4100   58.0430   22.6630 C   0  0  0  0  0  0
   23.4631   65.6458   20.5566 H   0  0  0  0  0  0
   27.9862   57.6407   24.7304 H   0  0  0  0  0  0
   19.5162   61.8747   21.9187 H   0  0  0  0  0  0
   19.4786   60.0791   21.8864 H   0  0  0  0  0  0
   17.9801   61.0071   23.7162 H   0  0  0  0  0  0
   19.4170   61.7967   24.4500 H   0  0  0  0  0  0
   21.0553   60.5528   25.4229 H   0  0  0  0  0  0
   21.0234   58.7593   25.3291 H   0  0  0  0  0  0
   21.4382   58.8399   22.9134 H   0  0  0  0  0  0
   22.6860   59.8207   23.7546 H   0  0  0  0  0  0
   20.3083   66.8567   22.0448 H   0  0  0  0  0  0
   21.7500   67.3483   21.0927 H   0  0  0  0  0  0
   18.8869   68.6099   20.4363 H   0  0  0  0  0  0
   20.6376   68.9437   20.2121 H   0  0  0  0  0  0
   20.4981   68.6006   17.8275 H   0  0  0  0  0  0
   19.0622   69.5968   18.2430 H   0  0  0  0  0  0
   18.3286   65.5128   17.6676 H   0  0  0  0  0  0
   20.0530   66.0070   17.7610 H   0  0  0  0  0  0
   19.2314   65.0215   19.9944 H   0  0  0  0  0  0
   18.0646   66.3823   20.1102 H   0  0  0  0  0  0
   17.1602   69.3275   15.0749 H   0  0  0  0  0  0
   18.7707   69.6774   15.7895 H   0  0  0  0  0  0
   17.2819   69.9356   16.7608 H   0  0  0  0  0  0
   26.4453   62.4053   19.6698 H   0  0  0  0  0  0
   28.5831   61.1841   19.4185 H   0  0  0  0  0  0
   29.0470   59.1897   20.8028 H   0  0  0  0  0  0
   25.2102   59.5911   22.6638 H   0  0  0  0  0  0
   28.2291   57.4634   22.2124 H   0  0  0  0  0  0
   26.4974   57.4294   22.6884 H   0  0  0  0  0  0
  1  5  2  0  0  0
  1  9  1  0  0  0
  1 35  1  0  0  0
  2  9  2  0  0  0
  2 15  1  0  0  0
  3 20  1  0  0  0
  3 21  1  0  0  0
  4  5  1  0  0  0
  4 12  1  0  0  0
  5 23  1  0  0  0
  6 15  2  0  0  0
  6 17  1  0  0  0
  7  8  2  0  0  0
  8 11  2  0  0  0
  8 16  1  0  0  0
  8 28  1  0  0  0
  9 12  1  0  0  0
 10 17  1  0  0  0
 10 19  1  0  0  0
 10 22  1  0  0  0
 12 17  2  0  0  0
 13 23  1  0  0  0
 13 24  1  0  0  0
 13 27  1  0  0  0
 14 34  1  0  0  0
 14 36  1  0  0  0
 15 18  1  0  0  0
 16 25  1  0  0  0
 16 26  1  0  0  0
 18 29  2  0  0  0
 18 33  1  0  0  0
 19 20  1  0  0  0
 19 37  1  0  0  0
 19 38  1  0  0  0
 20 39  1  0  0  0
 20 40  1  0  0  0
 21 22  1  0  0  0
 21 41  1  0  0  0
 21 42  1  0  0  0
 22 43  1  0  0  0
 22 44  1  0  0  0
 23 45  1  0  0  0
 23 46  1  0  0  0
 24 25  1  0  0  0
 24 47  1  0  0  0
 24 48  1  0  0  0
 25 49  1  0  0  0
 25 50  1  0  0  0
 26 27  1  0  0  0
 26 51  1  0  0  0
 26 52  1  0  0  0
 27 53  1  0  0  0
 27 54  1  0  0  0
 28 55  1  0  0  0
 28 56  1  0  0  0
 28 57  1  0  0  0
 29 30  1  0  0  0
 29 58  1  0  0  0
 30 31  2  0  0  0
 30 59  1  0  0  0
 31 32  1  0  0  0
 31 60  1  0  0  0
 32 33  2  0  0  0
 32 34  1  0  0  0
 33 61  1  0  0  0
 34 62  1  0  0  0
 34 63  1  0  0  0
M  END
> <s_m_source_file>
../3l13_ligand.sdf

> <i_m_source_file_index>
1

> <s_epik_input>
Tz1TKD1PKShbQ0gzXSlOKFtDSDJdW0NIMl0xKVtDSDJdW0NIMl1bTkgrXTFbQ0gyXWMoW2NIXTIpc2MoYzIzKWMoTjRbQ0gyXVtDSDJdT1tDSDJdW0NIMl00KW5jKG4zKS1jNVtjSF1bY0hdW2NIXWMoW2NIXTUpW0NIMl1bT0hd

> <s_epik_cmdline>
J2VwaWtfYXBwJywgJy1pbWFlJywgJ2xpZ2FuZF9wcm8ubWFlJywgJy1vbWFlJywgJ2xpZ2FuZF9wcmVwLm1hZScsICctbXMnLCAnMScsICctcGgnLCAnNycsICctcGh0JywgJzAuNScsICctbnQn

> <r_epik_Ionization_Penalty>
  0.2817

> <r_epik_Ionization_Penalty_Charging>
  0.0000

> <r_epik_Ionization_Penalty_Neutral>
  0.2817

> <r_epik_State_Penalty>
  0.2741

> <r_epik_Charging_Adjusted_Penalty>
0.274077424683708

> <i_epik_Tot_Q>
0

> <i_epik_Tot_abs_Q>
0

$$$$
