3l16_ligand
                    3D
 Schrodinger Suite 2020-3.
 60 64  0  0  1  0            999 V2000
   22.8870   62.1780   21.0220 C   0  0  0  0  0  0
   22.6870   63.4650   20.6230 N   0  0  0  0  0  0
   18.0620   59.5570   24.0480 O   0  0  0  0  0  0
   19.0840   64.2360   21.6360 S   0  0  0  0  0  0
   20.6770   62.0060   21.8700 C   0  0  0  0  0  0
   21.8990   61.4830   21.6420 N   0  0  0  0  0  0
   14.9580   66.2910   15.8760 O   0  0  0  0  0  0
   16.1120   67.1480   15.8470 S   0  0  0  0  0  0
   21.4770   64.0310   20.8530 C   0  0  0  0  0  0
   18.3420   67.1750   19.5610 N   0  0  0  0  0  0
   16.8960   66.8800   14.6740 O   0  0  0  0  0  0
   20.4820   63.3180   21.4770 C   0  0  0  0  0  0
   19.7440   61.2270   22.5940 N   0  0  0  0  0  0
   19.9090   65.4730   20.8620 C   0  0  0  0  0  0
   17.0450   66.8380   17.1220 N   0  0  2  0  0  0
   21.1180   65.2320   20.5440 C   0  0  0  0  0  0
   26.2730   61.3340   19.7140 N   0  0  0  0  0  0
   19.2530   66.8380   20.6730 C   0  0  0  0  0  0
   27.8120   59.6690   20.1990 N   0  0  0  0  0  0
   24.1920   61.4910   20.8130 C   0  0  0  0  0  0
   17.1910   66.2560   19.4710 C   0  0  0  0  0  0
   16.2620   66.7550   18.3760 C   0  0  0  0  0  0
   18.1300   67.8360   17.2340 C   0  0  0  0  0  0
   19.0900   67.3370   18.2990 C   0  0  0  0  0  0
   20.1880   59.8460   22.8920 C   0  0  0  0  0  0
   19.4830   59.4210   24.1720 C   0  0  0  0  0  0
   17.6240   60.8390   23.5730 C   0  0  0  0  0  0
   18.3150   61.2450   22.2610 C   0  0  0  0  0  0
   25.1020   61.9600   19.8820 C   0  0  0  0  0  0
   26.6170   60.2460   20.4270 C   0  0  0  0  0  0
   24.5300   60.3630   21.5720 C   0  0  0  0  0  0
   25.7520   59.7330   21.3770 C   0  0  0  0  0  0
   15.5770   68.7290   15.8400 C   0  0  0  0  0  0
   21.7755   65.9575   20.0651 H   0  0  0  0  0  0
   20.1284   67.5034   20.6443 H   0  0  0  0  0  0
   18.7263   66.9661   21.6302 H   0  0  0  0  0  0
   28.4894   60.0882   19.4404 H   0  0  0  0  0  0
   28.1109   58.7785   20.7714 H   0  0  0  0  0  0
   17.5479   65.2440   19.2291 H   0  0  0  0  0  0
   16.6606   66.2372   20.4345 H   0  0  0  0  0  0
   15.8716   67.7512   18.6311 H   0  0  0  0  0  0
   15.4233   66.0565   18.2391 H   0  0  0  0  0  0
   18.6421   67.9312   16.2651 H   0  0  0  0  0  0
   17.7050   68.8091   17.5212 H   0  0  0  0  0  0
   19.9018   68.0648   18.4448 H   0  0  0  0  0  0
   19.5156   66.3683   17.9981 H   0  0  0  0  0  0
   19.9127   59.1843   22.0575 H   0  0  0  0  0  0
   21.2798   59.8327   23.0258 H   0  0  0  0  0  0
   19.8412   60.0536   24.9975 H   0  0  0  0  0  0
   19.7341   58.3704   24.3796 H   0  0  0  0  0  0
   16.5394   60.8118   23.3914 H   0  0  0  0  0  0
   17.8502   61.6066   24.3278 H   0  0  0  0  0  0
   18.0270   62.2556   21.9357 H   0  0  0  0  0  0
   18.1185   60.5288   21.4496 H   0  0  0  0  0  0
   24.8648   62.8404   19.2847 H   0  0  0  0  0  0
   23.8327   59.9793   22.3167 H   0  0  0  0  0  0
   26.0239   58.8531   21.9600 H   0  0  0  0  0  0
   14.9452   68.8983   14.9556 H   0  0  0  0  0  0
   16.4415   69.4085   15.8086 H   0  0  0  0  0  0
   14.9918   68.9221   16.7512 H   0  0  0  0  0  0
  1  2  1  0  0  0
  1  6  2  0  0  0
  1 20  1  0  0  0
  2  9  2  0  0  0
  3 26  1  0  0  0
  3 27  1  0  0  0
  4 12  1  0  0  0
  4 14  1  0  0  0
  5  6  1  0  0  0
  5 12  2  0  0  0
  5 13  1  0  0  0
  7  8  2  0  0  0
  8 11  2  0  0  0
  8 15  1  0  0  0
  8 33  1  0  0  0
  9 12  1  0  0  0
  9 16  1  0  0  0
 10 18  1  0  0  0
 10 21  1  0  0  0
 10 24  1  0  0  0
 13 25  1  0  0  0
 13 28  1  0  0  0
 14 16  2  0  0  0
 14 18  1  0  0  0
 15 22  1  0  0  0
 15 23  1  0  0  0
 16 34  1  0  0  0
 17 29  2  0  0  0
 17 30  1  0  0  0
 18 35  1  0  0  0
 18 36  1  0  0  0
 19 30  1  0  0  0
 19 37  1  0  0  0
 19 38  1  0  0  0
 20 29  1  0  0  0
 20 31  2  0  0  0
 21 22  1  0  0  0
 21 39  1  0  0  0
 21 40  1  0  0  0
 22 41  1  0  0  0
 22 42  1  0  0  0
 23 24  1  0  0  0
 23 43  1  0  0  0
 23 44  1  0  0  0
 24 45  1  0  0  0
 24 46  1  0  0  0
 25 26  1  0  0  0
 25 47  1  0  0  0
 25 48  1  0  0  0
 26 49  1  0  0  0
 26 50  1  0  0  0
 27 28  1  0  0  0
 27 51  1  0  0  0
 27 52  1  0  0  0
 28 53  1  0  0  0
 28 54  1  0  0  0
 29 55  1  0  0  0
 30 32  2  0  0  0
 31 32  1  0  0  0
 31 56  1  0  0  0
 32 57  1  0  0  0
 33 58  1  0  0  0
 33 59  1  0  0  0
 33 60  1  0  0  0
M  END
> <s_m_source_file>
../3l16_ligand.sdf

> <i_m_source_file_index>
1

> <s_epik_input>
W2NIXTFbY0hdYyhbTkgyXSluW2NIXWMxLWMobjIpbmMoTjNbQ0gyXVtDSDJdT1tDSDJdW0NIMl0zKWMoYzI0KXNjKFtjSF00KVtDSDJdW05IK101W0NIMl1bQ0gyXU4oUyg9TykoPU8pW0NIM10pW0NIMl1bQ0gyXTU=

> <s_epik_cmdline>
J2VwaWtfYXBwJywgJy1pbWFlJywgJ2xpZ2FuZF9wcm8ubWFlJywgJy1vbWFlJywgJ2xpZ2FuZF9wcmVwLm1hZScsICctbXMnLCAnMScsICctcGgnLCAnNycsICctcGh0JywgJzAuNScsICctbnQn

> <r_lp_tautomer_probability>
0.999999772200052

> <r_epik_Ionization_Penalty>
  0.2891

> <r_epik_Ionization_Penalty_Charging>
  0.0000

> <r_epik_Ionization_Penalty_Neutral>
  0.2891

> <r_epik_State_Penalty>
  0.2741

> <r_epik_Charging_Adjusted_Penalty>
0.274077424683708

> <i_epik_Tot_Q>
0

> <i_epik_Tot_abs_Q>
0

$$$$
