3l17_ligand
                    3D
 Schrodinger Suite 2020-3.
 62 66  0  0  1  0            999 V2000
   21.3600   62.6330   22.2260 C   0  0  0  0  0  0
   22.5940   62.1710   21.9250 N   0  0  0  0  0  0
   23.5580   62.9360   21.3490 C   0  0  0  0  0  0
   23.3780   64.2520   21.0310 N   0  0  0  0  0  0
   22.1940   64.8350   21.2690 C   0  0  0  0  0  0
   21.1230   64.0510   21.8760 C   0  0  0  0  0  0
   19.7770   65.0140   22.0420 S   0  0  0  0  0  0
   20.5130   66.4350   21.3680 C   0  0  0  0  0  0
   21.8370   66.1910   20.9800 C   0  0  0  0  0  0
   20.4430   61.7420   22.8160 N   0  0  0  0  0  0
   19.0120   62.0150   22.8970 C   0  0  0  0  0  0
   18.6060   61.6780   24.3180 C   0  0  0  0  0  0
   18.9250   60.3220   24.5730 O   0  0  0  0  0  0
   20.3310   60.1420   24.6430 C   0  0  0  0  0  0
   20.9730   60.4590   23.3080 C   0  0  0  0  0  0
   24.8720   62.2870   21.0840 C   0  0  0  0  0  0
   25.4720   61.4980   22.0570 C   0  0  0  0  0  0
   26.6560   60.9300   21.8030 N   0  0  0  0  0  0
   27.2830   61.1010   20.6160 C   0  0  0  0  0  0
   26.7600   61.8390   19.6120 N   0  0  0  0  0  0
   25.5740   62.4490   19.7770 C   0  0  0  0  0  0
   25.0020   63.2750   18.6610 C   0  0  0  0  0  0
   28.4700   60.5000   20.4300 N   0  0  0  0  0  0
   19.5980   67.6370   21.3320 C   0  0  0  0  0  0
   18.9510   67.7000   20.0280 N   0  0  0  0  0  0
   17.5380   67.3420   19.8880 C   0  0  0  0  0  0
   16.8560   68.4380   19.0590 C   0  0  0  0  0  0
   17.7010   68.6440   17.8850 N   0  0  0  0  0  0
   19.0200   69.2020   18.1400 C   0  0  0  0  0  0
   19.7560   68.0880   18.8690 C   0  0  0  0  0  0
   17.2390   68.2910   16.4650 S   0  0  0  0  0  0
   16.3590   67.1420   16.4280 O   0  0  0  0  0  0
   18.3910   67.9480   15.6770 O   0  0  0  0  0  0
   16.4730   69.6510   15.8760 C   0  0  0  0  0  0
   22.4993   66.9270   20.5241 H   0  0  0  0  0  0
   18.8277   63.0755   22.6706 H   0  0  0  0  0  0
   18.4771   61.3865   22.1698 H   0  0  0  0  0  0
   19.1507   62.3277   25.0188 H   0  0  0  0  0  0
   17.5239   61.8357   24.4374 H   0  0  0  0  0  0
   20.7488   60.8122   25.4087 H   0  0  0  0  0  0
   20.5543   59.0981   24.9082 H   0  0  0  0  0  0
   20.7387   59.6640   22.5848 H   0  0  0  0  0  0
   22.0637   60.5350   23.4288 H   0  0  0  0  0  0
   24.9826   61.3432   23.0185 H   0  0  0  0  0  0
   24.0340   63.6937   18.9737 H   0  0  0  0  0  0
   24.8581   62.6420   17.7729 H   0  0  0  0  0  0
   25.6949   64.0943   18.4189 H   0  0  0  0  0  0
   28.9123   59.8950   21.2352 H   0  0  0  0  0  0
   28.9996   60.6129   19.4725 H   0  0  0  0  0  0
   18.8366   67.5420   22.1202 H   0  0  0  0  0  0
   20.1867   68.5511   21.4991 H   0  0  0  0  0  0
   17.4546   66.3707   19.3785 H   0  0  0  0  0  0
   17.0764   67.2743   20.8842 H   0  0  0  0  0  0
   15.8487   68.1048   18.7687 H   0  0  0  0  0  0
   16.7796   69.3571   19.6585 H   0  0  0  0  0  0
   19.5000   69.4599   17.1844 H   0  0  0  0  0  0
   18.9221   70.1073   18.7572 H   0  0  0  0  0  0
   20.7410   68.4410   19.2084 H   0  0  0  0  0  0
   19.8861   67.2201   18.2058 H   0  0  0  0  0  0
   15.5993   69.8805   16.5037 H   0  0  0  0  0  0
   16.1440   69.4678   14.8425 H   0  0  0  0  0  0
   17.1706   70.5013   15.8935 H   0  0  0  0  0  0
  1  2  1  0  0  0
  1  6  2  0  0  0
  1 10  1  0  0  0
  2  3  2  0  0  0
  3  4  1  0  0  0
  3 16  1  0  0  0
  4  5  2  0  0  0
  5  6  1  0  0  0
  5  9  1  0  0  0
  6  7  1  0  0  0
  7  8  1  0  0  0
  8  9  2  0  0  0
  8 24  1  0  0  0
  9 35  1  0  0  0
 10 11  1  0  0  0
 10 15  1  0  0  0
 11 12  1  0  0  0
 11 36  1  0  0  0
 11 37  1  0  0  0
 12 13  1  0  0  0
 12 38  1  0  0  0
 12 39  1  0  0  0
 13 14  1  0  0  0
 14 15  1  0  0  0
 14 40  1  0  0  0
 14 41  1  0  0  0
 15 42  1  0  0  0
 15 43  1  0  0  0
 16 17  2  0  0  0
 16 21  1  0  0  0
 17 18  1  0  0  0
 17 44  1  0  0  0
 18 19  2  0  0  0
 19 20  1  0  0  0
 19 23  1  0  0  0
 20 21  2  0  0  0
 21 22  1  0  0  0
 22 45  1  0  0  0
 22 46  1  0  0  0
 22 47  1  0  0  0
 23 48  1  0  0  0
 23 49  1  0  0  0
 24 25  1  0  0  0
 24 50  1  0  0  0
 24 51  1  0  0  0
 25 26  1  0  0  0
 25 30  1  0  0  0
 26 27  1  0  0  0
 26 52  1  0  0  0
 26 53  1  0  0  0
 27 28  1  0  0  0
 27 54  1  0  0  0
 27 55  1  0  0  0
 28 29  1  0  0  0
 28 31  1  0  0  0
 29 30  1  0  0  0
 29 56  1  0  0  0
 29 57  1  0  0  0
 30 58  1  0  0  0
 30 59  1  0  0  0
 31 32  2  0  0  0
 31 33  2  0  0  0
 31 34  1  0  0  0
 34 60  1  0  0  0
 34 61  1  0  0  0
 34 62  1  0  0  0
M  END
> <s_m_source_file>
../3l17_ligand.sdf

> <i_m_source_file_index>
1

> <s_epik_input>
W0NIM11jMW5jKFtOSDJdKW5bY0hdYzEtYyhuMiluYyhOM1tDSDJdW0NIMl1PW0NIMl1bQ0gyXTMpYyhjMjQpc2MoW2NIXTQpW0NIMl1bTkgrXTVbQ0gyXVtDSDJdTihbQ0gyXVtDSDJdNSlTKD1PKSg9TylbQ0gzXQ==

> <s_epik_cmdline>
J2VwaWtfYXBwJywgJy1pbWFlJywgJ2xpZ2FuZF9wcm8ubWFlJywgJy1vbWFlJywgJ2xpZ2FuZF9wcmVwLm1hZScsICctbXMnLCAnMScsICctcGgnLCAnNycsICctcGh0JywgJzAuNScsICctbnQn

> <r_lp_tautomer_probability>
0.999999987636

> <r_epik_Ionization_Penalty>
  0.2817

> <r_epik_Ionization_Penalty_Charging>
  0.0000

> <r_epik_Ionization_Penalty_Neutral>
  0.2817

> <r_epik_State_Penalty>
  0.2741

> <r_epik_Charging_Adjusted_Penalty>
0.274077424683708

> <i_epik_Tot_Q>
0

> <i_epik_Tot_abs_Q>
0

$$$$
