3l1n_ligand
                    3D
 Schrodinger Suite 2020-3.
 49 48  0  0  1  0            999 V2000
    8.0240   16.1360   37.0170 C   0  0  0  0  0  0
    8.8030   15.2590   37.4570 O   0  5  0  0  0  0
    8.3200   16.7100   35.9460 O   0  0  0  0  0  0
    6.7390   16.4880   37.7360 C   0  0  0  0  0  0
    6.9460   16.6960   39.2350 C   0  0  0  0  0  0
    5.6200   17.0240   39.9190 C   0  0  0  0  0  0
    5.7750   17.3450   41.4050 C   0  0  0  0  0  0
    5.4300   16.1420   42.2780 C   0  0  0  0  0  0
    5.2610   16.5080   43.7500 C   0  0  0  0  0  0
    5.1260   15.2610   44.6200 C   0  0  0  0  0  0
    5.2690   15.5870   46.1040 C   0  0  0  0  0  0
    4.6520   14.5100   46.9900 C   0  0  0  0  0  0
    4.7630   14.8790   48.4690 C   0  0  0  0  0  0
    3.5780   15.7180   48.9460 C   0  0  0  0  0  0
    2.5850   14.8820   49.7490 C   0  0  0  0  0  0
    1.3630   15.6860   50.1790 C   0  0  0  0  0  0
    0.4470   14.8510   51.0670 C   0  0  0  0  0  0
   -0.7340   15.6630   51.5840 C   0  0  0  0  0  0
    6.3284   17.4191   37.3183 H   0  0  0  0  0  0
    6.0104   15.6745   37.6043 H   0  0  0  0  0  0
    7.3591   15.7782   39.6789 H   0  0  0  0  0  0
    7.6464   17.5287   39.3964 H   0  0  0  0  0  0
    5.1646   17.9004   39.4347 H   0  0  0  0  0  0
    4.9404   16.1633   39.8333 H   0  0  0  0  0  0
    6.8156   17.6363   41.6106 H   0  0  0  0  0  0
    5.1026   18.1731   41.6733 H   0  0  0  0  0  0
    4.4855   15.6968   41.9321 H   0  0  0  0  0  0
    6.2346   15.3953   42.2079 H   0  0  0  0  0  0
    6.1386   17.0778   44.0892 H   0  0  0  0  0  0
    4.3558   17.1206   43.8739 H   0  0  0  0  0  0
    4.1367   14.8076   44.4599 H   0  0  0  0  0  0
    5.9091   14.5378   44.3483 H   0  0  0  0  0  0
    6.3355   15.6714   46.3597 H   0  0  0  0  0  0
    4.7635   16.5397   46.3205 H   0  0  0  0  0  0
    3.5880   14.3923   46.7370 H   0  0  0  0  0  0
    5.1754   13.5564   46.8265 H   0  0  0  0  0  0
    4.7970   13.9612   49.0743 H   0  0  0  0  0  0
    5.6817   15.4611   48.6337 H   0  0  0  0  0  0
    3.9415   16.5353   49.5863 H   0  0  0  0  0  0
    3.0533   16.1395   48.0759 H   0  0  0  0  0  0
    2.2374   14.0370   49.1364 H   0  0  0  0  0  0
    3.0765   14.4997   50.6558 H   0  0  0  0  0  0
    1.6876   16.5737   50.7416 H   0  0  0  0  0  0
    0.8000   16.0020   49.2884 H   0  0  0  0  0  0
    0.0550   13.9995   50.4915 H   0  0  0  0  0  0
    1.0150   14.4784   51.9322 H   0  0  0  0  0  0
   -1.3677   15.0256   52.2182 H   0  0  0  0  0  0
   -1.3235   16.0353   50.7332 H   0  0  0  0  0  0
   -0.3635   16.5143   52.1739 H   0  0  0  0  0  0
  1  2  1  0  0  0
  1  3  2  0  0  0
  1  4  1  0  0  0
  4  5  1  0  0  0
  4 19  1  0  0  0
  4 20  1  0  0  0
  5  6  1  0  0  0
  5 21  1  0  0  0
  5 22  1  0  0  0
  6  7  1  0  0  0
  6 23  1  0  0  0
  6 24  1  0  0  0
  7  8  1  0  0  0
  7 25  1  0  0  0
  7 26  1  0  0  0
  8  9  1  0  0  0
  8 27  1  0  0  0
  8 28  1  0  0  0
  9 10  1  0  0  0
  9 29  1  0  0  0
  9 30  1  0  0  0
 10 11  1  0  0  0
 10 31  1  0  0  0
 10 32  1  0  0  0
 11 12  1  0  0  0
 11 33  1  0  0  0
 11 34  1  0  0  0
 12 13  1  0  0  0
 12 35  1  0  0  0
 12 36  1  0  0  0
 13 14  1  0  0  0
 13 37  1  0  0  0
 13 38  1  0  0  0
 14 15  1  0  0  0
 14 39  1  0  0  0
 14 40  1  0  0  0
 15 16  1  0  0  0
 15 41  1  0  0  0
 15 42  1  0  0  0
 16 17  1  0  0  0
 16 43  1  0  0  0
 16 44  1  0  0  0
 17 18  1  0  0  0
 17 45  1  0  0  0
 17 46  1  0  0  0
 18 47  1  0  0  0
 18 48  1  0  0  0
 18 49  1  0  0  0
M  CHG  1   2  -1
M  END
> <s_m_source_file>
../3l1n_ligand.sdf

> <i_m_source_file_index>
1

> <s_epik_input>
W09IXUMoPU8pW0NIMl1bQ0gyXVtDSDJdW0NIMl1bQ0gyXVtDSDJdW0NIMl1bQ0gyXVtDSDJdW0NIMl1bQ0gyXVtDSDJdW0NIMl1bQ0gyXVtDSDNd

> <s_epik_cmdline>
J2VwaWtfYXBwJywgJy1pbWFlJywgJ2xpZ2FuZF9wcm8ubWFlJywgJy1vbWFlJywgJ2xpZ2FuZF9wcmVwLm1hZScsICctbXMnLCAnMScsICctcGgnLCAnNycsICctcGh0JywgJzAuNScsICctbnQn

> <r_lp_tautomer_probability>
1

> <r_epik_Ionization_Penalty>
  0.0049

> <r_epik_Ionization_Penalty_Charging>
  0.0049

> <r_epik_Ionization_Penalty_Neutral>
  0.0000

> <r_epik_State_Penalty>
 -0.0000

> <r_epik_Charging_Adjusted_Penalty>
0.00486649495677768

> <i_epik_Tot_Q>
-1

> <i_epik_Tot_abs_Q>
1

$$$$
