3l1s_ligand
                    3D
 Schrodinger Suite 2020-3.
 40 42  0  0  1  0            999 V2000
   35.0880   31.5500   56.7030 C   0  0  0  0  0  0
   35.3480   32.8750   56.3420 O   0  0  0  0  0  0
   36.1030   33.0150   55.2400 C   0  0  0  0  0  0
   36.9540   34.0700   55.1670 C   0  0  0  0  0  0
   37.7400   34.2970   54.0820 C   0  0  0  0  0  0
   37.6690   33.4320   53.0340 C   0  0  0  0  0  0
   36.8130   32.3630   53.1030 C   0  0  0  0  0  0
   36.0350   32.1470   54.1930 C   0  0  0  0  0  0
   35.1800   31.1190   54.2560 O   0  0  0  0  0  0
   35.3560   29.9580   53.4920 C   0  0  0  0  0  0
   38.4900   33.6150   51.8350 C   0  0  0  0  0  0
   38.5270   32.7660   50.8960 N   0  0  0  0  0  0
   39.3500   33.1310   49.8740 N   0  0  0  0  0  0
   39.8590   34.2770   50.1570 C   0  0  0  0  0  0
   40.6190   34.9300   49.5580 O   0  0  0  0  0  0
   39.3840   34.6780   51.4030 C   0  0  0  0  0  0
   39.7510   35.8170   51.8280 N   0  0  0  0  0  0
   39.4260   36.2440   52.9300 N   0  0  0  0  0  0
   39.8220   37.5140   53.2270 C   0  0  0  0  0  0
   39.6000   37.9010   54.5070 C   0  0  0  0  0  0
   39.9300   39.1540   54.8660 C   0  0  0  0  0  0
   40.4480   40.0280   53.9730 C   0  0  0  0  0  0
   40.7770   41.5980   54.5980 Cl  0  0  0  0  0  0
   40.6620   39.6500   52.6800 C   0  0  0  0  0  0
   40.3400   38.3810   52.2970 C   0  0  0  0  0  0
   34.4670   31.5324   57.6108 H   0  0  0  0  0  0
   36.0375   31.0301   56.8981 H   0  0  0  0  0  0
   34.5548   31.0448   55.8842 H   0  0  0  0  0  0
   37.0089   34.7600   56.0091 H   0  0  0  0  0  0
   38.4131   35.1538   54.0518 H   0  0  0  0  0  0
   36.7564   31.6710   52.2628 H   0  0  0  0  0  0
   34.5390   29.2525   53.7036 H   0  0  0  0  0  0
   36.3187   29.4922   53.7494 H   0  0  0  0  0  0
   35.3485   30.2178   52.4231 H   0  0  0  0  0  0
   39.4749   32.4683   49.0049 H   0  0  0  0  0  0
   38.8464   35.6095   53.6167 H   0  0  0  0  0  0
   39.1635   37.2114   55.2295 H   0  0  0  0  0  0
   39.7770   39.4719   55.8973 H   0  0  0  0  0  0
   41.0848   40.3528   51.9621 H   0  0  0  0  0  0
   40.4919   38.0597   51.2666 H   0  0  0  0  0  0
  1  2  1  0  0  0
  1 26  1  0  0  0
  1 27  1  0  0  0
  1 28  1  0  0  0
  2  3  1  0  0  0
  3  4  2  0  0  0
  3  8  1  0  0  0
  4  5  1  0  0  0
  4 29  1  0  0  0
  5  6  2  0  0  0
  5 30  1  0  0  0
  6  7  1  0  0  0
  6 11  1  0  0  0
  7  8  2  0  0  0
  7 31  1  0  0  0
  8  9  1  0  0  0
  9 10  1  0  0  0
 10 32  1  0  0  0
 10 33  1  0  0  0
 10 34  1  0  0  0
 11 12  2  0  0  0
 11 16  1  0  0  0
 12 13  1  0  0  0
 13 14  1  0  0  0
 13 35  1  0  0  0
 14 15  2  0  0  0
 14 16  1  0  0  0
 16 17  2  0  0  0
 17 18  1  0  0  0
 18 19  1  0  0  0
 18 36  1  0  0  0
 19 20  2  0  0  0
 19 25  1  0  0  0
 20 21  1  0  0  0
 20 37  1  0  0  0
 21 22  2  0  0  0
 21 38  1  0  0  0
 22 23  1  0  0  0
 22 24  1  0  0  0
 24 25  2  0  0  0
 24 39  1  0  0  0
 25 40  1  0  0  0
M  END
> <s_m_source_file>
../3l1s_ligand.sdf

> <i_m_source_file_index>
1

> <s_epik_input>
W0NIM11PYzFbY0hdW2NIXWMoW2NIXWMxT1tDSDNdKUMyPU5bTkhdQyg9TylDXDI9TlxbTkhdYzNbY0hdW2NIXWMoQ2wpW2NIXVtjSF0z

> <s_epik_cmdline>
J2VwaWtfYXBwJywgJy1pbWFlJywgJ2xpZ2FuZF9wcm8ubWFlJywgJy1vbWFlJywgJ2xpZ2FuZF9wcmVwLm1hZScsICctbXMnLCAnMScsICctcGgnLCAnNycsICctcGh0JywgJzAuNScsICctbnQn

> <r_epik_Ionization_Penalty>
  0.3988

> <r_epik_Ionization_Penalty_Charging>
  0.0000

> <r_epik_Ionization_Penalty_Neutral>
  0.3988

> <r_epik_State_Penalty>
  0.3781

> <r_epik_Charging_Adjusted_Penalty>
0.378090960760513

> <i_epik_Tot_Q>
0

> <i_epik_Tot_abs_Q>
0

> <s_epik_Chemistry_Notes>
This compound has an imine and may undergo hydrolysis.

$$$$
