3l2y_ligand
                    3D
 Schrodinger Suite 2020-3.
 15 14  0  0  1  0            999 V2000
 -165.3250   42.5510    0.4830 C   0  0  0  0  0  0
 -163.8500   42.4730    0.2590 C   0  0  0  0  0  0
 -167.9600   43.1100    1.0950 O   0  0  0  0  0  0
 -167.7340   42.2750    3.3010 O   0  5  0  0  0  0
 -168.0400   40.7100    1.4040 O   0  5  0  0  0  0
 -165.8650   42.0230    1.6880 O   0  0  0  0  0  0
 -163.3100   41.2380   -0.3420 N   0  3  0  0  0  0
 -167.4310   41.9720    1.8680 P   0  0  0  0  0  0
 -165.6418   43.6044    0.4754 H   0  0  0  0  0  0
 -165.8468   42.0054   -0.3171 H   0  0  0  0  0  0
 -163.5386   43.2825   -0.4176 H   0  0  0  0  0  0
 -163.3270   42.5776    1.2210 H   0  0  0  0  0  0
 -162.2184   41.3271   -0.4446 H   0  0  0  0  0  0
 -163.7603   41.0857   -1.3340 H   0  0  0  0  0  0
 -163.5488   40.3808    0.3047 H   0  0  0  0  0  0
  1  2  1  0  0  0
  1  6  1  0  0  0
  1  9  1  0  0  0
  1 10  1  0  0  0
  2  7  1  0  0  0
  2 11  1  0  0  0
  2 12  1  0  0  0
  3  8  2  0  0  0
  4  8  1  0  0  0
  5  8  1  0  0  0
  6  8  1  0  0  0
  7 13  1  0  0  0
  7 14  1  0  0  0
  7 15  1  0  0  0
M  CHG  3   4  -1   5  -1   7   1
M  END
> <s_m_source_file>
../3l2y_ligand.sdf

> <i_m_source_file_index>
1

> <s_epik_input>
W05IMytdW0NIMl1bQ0gyXU9QKD1PKShbT0hdKVtPSF0=

> <s_epik_cmdline>
J2VwaWtfYXBwJywgJy1pbWFlJywgJ2xpZ2FuZF9wcm8ubWFlJywgJy1vbWFlJywgJ2xpZ2FuZF9wcmVwLm1hZScsICctbXMnLCAnMScsICctcGgnLCAnNycsICctcGh0JywgJzAuNScsICctbnQn

> <r_epik_Ionization_Penalty>
  0.0861

> <r_epik_Ionization_Penalty_Charging>
  0.0861

> <r_epik_Ionization_Penalty_Neutral>
  0.0000

> <r_epik_State_Penalty>
  0.0743

> <r_epik_Charging_Adjusted_Penalty>
0.160428501023796

> <i_epik_Tot_Q>
-1

> <i_epik_Tot_abs_Q>
3

$$$$
