3l38_ligand
                    3D
 Schrodinger Suite 2020-3.
 53 57  0  0  1  0            999 V2000
   17.9670  -11.5500   18.8840 C   0  0  0  0  0  0
    9.5500   -2.6170   13.6260 N   0  0  0  0  0  0
    8.9010   -5.8380   15.2770 O   0  0  0  0  0  0
   14.9330  -12.1630   15.6050 Cl  0  0  0  0  0  0
   18.2990  -12.2610   17.7330 C   0  0  0  0  0  0
    9.1510   -2.2870   15.9810 N   0  0  0  0  0  0
   15.7650   -6.2060   18.2340 C   0  0  0  0  0  0
   15.4440   -6.9370   15.5770 N   0  0  0  0  0  0
   16.6890  -11.0150   19.0400 C   0  0  0  0  0  0
   13.8380   -9.6860   17.3480 N   0  0  0  0  0  0
   12.0910   -7.1410   16.6490 C   0  0  0  0  0  0
   16.3060   -4.8580   14.8630 N   0  0  0  0  0  0
   10.3130   -8.7400   16.9510 C   0  0  0  0  0  0
   11.2010   -6.2550   16.0280 C   0  0  0  0  0  0
    9.4210   -7.8640   16.3340 C   0  0  0  0  0  0
   17.3520  -12.4440   16.7270 C   0  0  0  0  0  0
   12.3000  -10.1120   18.9000 C   0  0  0  0  0  0
   13.4370  -10.9050   19.1700 C   0  0  0  0  0  0
   15.2440   -7.4540   17.9170 C   0  0  0  0  0  0
   16.1270   -5.3260   17.2190 C   0  0  0  0  0  0
    9.3800   -3.9420   13.8190 C   0  0  0  0  0  0
    8.9930   -3.6200   16.1070 C   0  0  0  0  0  0
    9.4260   -1.8600   14.7340 C   0  0  0  0  0  0
   11.6550   -8.3930   17.1190 C   0  0  0  0  0  0
   15.7260  -11.1920   18.0360 C   0  0  0  0  0  0
    9.8620   -6.6260   15.8730 C   0  0  0  0  0  0
    9.0950   -4.5030   15.0500 C   0  0  0  0  0  0
   16.0710  -11.9090   16.8800 C   0  0  0  0  0  0
   12.5530   -9.3550   17.7670 C   0  0  0  0  0  0
   14.3850  -10.6300   18.1990 C   0  0  0  0  0  0
   15.0960   -7.7830   16.5760 C   0  0  0  0  0  0
   15.9510   -5.7220   15.8940 C   0  0  0  0  0  0
   14.5350   -9.1240   16.1930 C   0  0  0  0  0  0
   18.7114  -11.4110   19.6680 H   0  0  0  0  0  0
   19.3009  -12.6748   17.6190 H   0  0  0  0  0  0
   15.8902   -5.9163   19.2773 H   0  0  0  0  0  0
   16.4381  -10.4587   19.9431 H   0  0  0  0  0  0
   13.1362   -6.8561   16.7697 H   0  0  0  0  0  0
   16.1691   -5.1657   13.8158 H   0  0  0  0  0  0
   16.7236   -3.8671   15.0950 H   0  0  0  0  0  0
    9.9585   -9.7075   17.3065 H   0  0  0  0  0  0
   11.5490   -5.2863   15.6693 H   0  0  0  0  0  0
    8.3759   -8.1487   16.2121 H   0  0  0  0  0  0
   17.6095  -13.0013   15.8263 H   0  0  0  0  0  0
   11.3796  -10.0977   19.4837 H   0  0  0  0  0  0
   13.5484  -11.6081   19.9955 H   0  0  0  0  0  0
   14.9589   -8.1565   18.7001 H   0  0  0  0  0  0
   16.5404   -4.3455   17.4553 H   0  0  0  0  0  0
    9.4723   -4.6049   12.9587 H   0  0  0  0  0  0
    8.7730   -4.0223   17.0959 H   0  0  0  0  0  0
    9.5631   -0.7861   14.6070 H   0  0  0  0  0  0
   15.3503   -9.7987   15.8928 H   0  0  0  0  0  0
   13.8279   -9.0092   15.3582 H   0  0  0  0  0  0
  1  5  2  0  0  0
  1  9  1  0  0  0
  1 34  1  0  0  0
  2 21  2  0  0  0
  2 23  1  0  0  0
  3 26  1  0  0  0
  3 27  1  0  0  0
  4 28  1  0  0  0
  5 16  1  0  0  0
  5 35  1  0  0  0
  6 22  1  0  0  0
  6 23  2  0  0  0
  7 19  2  0  0  0
  7 20  1  0  0  0
  7 36  1  0  0  0
  8 31  2  0  0  0
  8 32  1  0  0  0
  9 25  2  0  0  0
  9 37  1  0  0  0
 10 29  1  0  0  0
 10 30  1  0  0  0
 10 33  1  0  0  0
 11 14  2  0  0  0
 11 24  1  0  0  0
 11 38  1  0  0  0
 12 32  1  0  0  0
 12 39  1  0  0  0
 12 40  1  0  0  0
 13 15  1  0  0  0
 13 24  2  0  0  0
 13 41  1  0  0  0
 14 26  1  0  0  0
 14 42  1  0  0  0
 15 26  2  0  0  0
 15 43  1  0  0  0
 16 28  2  0  0  0
 16 44  1  0  0  0
 17 18  1  0  0  0
 17 29  2  0  0  0
 17 45  1  0  0  0
 18 30  2  0  0  0
 18 46  1  0  0  0
 19 31  1  0  0  0
 19 47  1  0  0  0
 20 32  2  0  0  0
 20 48  1  0  0  0
 21 27  1  0  0  0
 21 49  1  0  0  0
 22 27  2  0  0  0
 22 50  1  0  0  0
 23 51  1  0  0  0
 24 29  1  0  0  0
 25 28  1  0  0  0
 25 30  1  0  0  0
 31 33  1  0  0  0
 33 52  1  0  0  0
 33 53  1  0  0  0
M  END
> <s_m_source_file>
../3l38_ligand.sdf

> <i_m_source_file_index>
1

> <s_epik_input>
Q2xjMVtjSF1bY0hdW2NIXVtjSF1jMS1jMltjSF1bY0hdYyhuMltDSDJdYzNuYyhbTkgyXSlbY0hdW2NIXVtjSF0zKS1jNFtjSF1bY0hdYyhbY0hdW2NIXTQpT2M1W2NIXW5bY0hdbltjSF01

> <s_epik_cmdline>
J2VwaWtfYXBwJywgJy1pbWFlJywgJ2xpZ2FuZF9wcm8ubWFlJywgJy1vbWFlJywgJ2xpZ2FuZF9wcmVwLm1hZScsICctbXMnLCAnMScsICctcGgnLCAnNycsICctcGh0JywgJzAuNScsICctbnQn

> <r_lp_tautomer_probability>
0.999999772200052

> <r_epik_Ionization_Penalty>
  0.0100

> <r_epik_Ionization_Penalty_Charging>
  0.0000

> <r_epik_Ionization_Penalty_Neutral>
  0.0100

> <r_epik_State_Penalty>
  0.0076

> <r_epik_Charging_Adjusted_Penalty>
0.00760446319942638

> <i_epik_Tot_Q>
0

> <i_epik_Tot_abs_Q>
0

$$$$
