3l3a_ligand
                    3D
 Schrodinger Suite 2020-3.
 55 58  0  0  1  0            999 V2000
    9.8340   -1.6630   13.3870 C   0  0  0  0  0  0
   10.4770   -1.5020   12.4290 N   0  0  0  0  0  0
    9.3100   -5.4120   15.1150 O   0  0  0  0  0  0
   15.1490  -12.3300   15.4850 Cl  0  0  0  0  0  0
   17.9380  -11.5770   18.9630 C   0  0  0  0  0  0
   15.4710   -6.9100   15.4190 N   0  0  0  0  0  0
   18.3370  -12.3510   17.8720 C   0  0  0  0  0  0
   13.9250   -9.6470   17.1980 N   0  0  0  0  0  0
   15.5930   -6.0930   18.0760 C   0  0  0  0  0  0
   16.2720   -4.8310   14.7030 N   0  0  0  0  0  0
   16.6620  -11.0170   19.0040 C   0  0  0  0  0  0
   12.2630   -7.0830   16.4450 C   0  0  0  0  0  0
   10.3880   -8.5330   16.8530 C   0  0  0  0  0  0
   11.4210   -6.1480   15.8380 C   0  0  0  0  0  0
    9.5410   -7.5960   16.2450 C   0  0  0  0  0  0
   17.4610  -12.5670   16.8100 C   0  0  0  0  0  0
   12.3710  -10.0190   18.7440 C   0  0  0  0  0  0
   13.4860  -10.8390   19.0300 C   0  0  0  0  0  0
   15.1540   -7.3710   17.7610 C   0  0  0  0  0  0
   15.9720   -5.2250   17.0560 C   0  0  0  0  0  0
   11.7650   -8.2860   16.9620 C   0  0  0  0  0  0
   15.7650  -11.2220   17.9430 C   0  0  0  0  0  0
   10.0480   -6.3980   15.7300 C   0  0  0  0  0  0
   16.1770  -12.0070   16.8430 C   0  0  0  0  0  0
   12.6440   -9.2720   17.6090 C   0  0  0  0  0  0
   14.4410  -10.6030   18.0600 C   0  0  0  0  0  0
   15.1120   -7.7410   16.4220 C   0  0  0  0  0  0
   15.8930   -5.6690   15.7380 C   0  0  0  0  0  0
    9.0210   -1.8220   14.6080 C   0  0  0  0  0  0
   14.6410   -9.1140   16.0470 C   0  0  0  0  0  0
    8.4410   -3.2250   14.7660 C   0  0  0  0  0  0
    9.2860   -4.1000   15.6890 C   0  0  0  0  0  0
   18.6292  -11.4092   19.7889 H   0  0  0  0  0  0
   19.3357  -12.7873   17.8507 H   0  0  0  0  0  0
   15.6408   -5.7706   19.1161 H   0  0  0  0  0  0
   16.2101   -5.1803   13.6618 H   0  0  0  0  0  0
   16.6350   -3.8160   14.9220 H   0  0  0  0  0  0
   16.3594  -10.4178   19.8628 H   0  0  0  0  0  0
   13.3299   -6.8721   16.5179 H   0  0  0  0  0  0
    9.9732   -9.4618   17.2446 H   0  0  0  0  0  0
   11.8354   -5.2190   15.4465 H   0  0  0  0  0  0
    8.4734   -7.8035   16.1725 H   0  0  0  0  0  0
   17.7734  -13.1693   15.9569 H   0  0  0  0  0  0
   11.4474   -9.9804   19.3216 H   0  0  0  0  0  0
   13.5762  -11.5329   19.8657 H   0  0  0  0  0  0
   14.8500   -8.0666   18.5432 H   0  0  0  0  0  0
   16.3233   -4.2186   17.2838 H   0  0  0  0  0  0
    9.6433   -1.6184   15.4919 H   0  0  0  0  0  0
    8.1784   -1.1153   14.5821 H   0  0  0  0  0  0
   15.4942   -9.7670   15.8114 H   0  0  0  0  0  0
   13.9632   -9.0699   15.1818 H   0  0  0  0  0  0
    7.4292   -3.1576   15.1922 H   0  0  0  0  0  0
    8.3925   -3.7147   13.7822 H   0  0  0  0  0  0
    8.8416   -4.1476   16.6941 H   0  0  0  0  0  0
   10.3128   -3.7120   15.7601 H   0  0  0  0  0  0
  1  2  3  0  0  0
  1 29  1  0  0  0
  3 23  1  0  0  0
  3 32  1  0  0  0
  4 24  1  0  0  0
  5  7  2  0  0  0
  5 11  1  0  0  0
  5 33  1  0  0  0
  6 27  2  0  0  0
  6 28  1  0  0  0
  7 16  1  0  0  0
  7 34  1  0  0  0
  8 25  1  0  0  0
  8 26  1  0  0  0
  8 30  1  0  0  0
  9 19  2  0  0  0
  9 20  1  0  0  0
  9 35  1  0  0  0
 10 28  1  0  0  0
 10 36  1  0  0  0
 10 37  1  0  0  0
 11 22  2  0  0  0
 11 38  1  0  0  0
 12 14  2  0  0  0
 12 21  1  0  0  0
 12 39  1  0  0  0
 13 15  1  0  0  0
 13 21  2  0  0  0
 13 40  1  0  0  0
 14 23  1  0  0  0
 14 41  1  0  0  0
 15 23  2  0  0  0
 15 42  1  0  0  0
 16 24  2  0  0  0
 16 43  1  0  0  0
 17 18  1  0  0  0
 17 25  2  0  0  0
 17 44  1  0  0  0
 18 26  2  0  0  0
 18 45  1  0  0  0
 19 27  1  0  0  0
 19 46  1  0  0  0
 20 28  2  0  0  0
 20 47  1  0  0  0
 21 25  1  0  0  0
 22 24  1  0  0  0
 22 26  1  0  0  0
 27 30  1  0  0  0
 29 31  1  0  0  0
 29 48  1  0  0  0
 29 49  1  0  0  0
 30 50  1  0  0  0
 30 51  1  0  0  0
 31 32  1  0  0  0
 31 52  1  0  0  0
 31 53  1  0  0  0
 32 54  1  0  0  0
 32 55  1  0  0  0
M  END
> <s_m_source_file>
../3l3a_ligand.sdf

> <i_m_source_file_index>
1

> <s_epik_input>
TiNDW0NIMl1bQ0gyXVtDSDJdT2MoW2NIXVtjSF0xKVtjSF1bY0hdYzEtYyhuMltDSDJdYzNuYyhbTkgyXSlbY0hdW2NIXVtjSF0zKVtjSF1bY0hdYzItYzRbY0hdW2NIXVtjSF1bY0hdYzRDbA==

> <s_epik_cmdline>
J2VwaWtfYXBwJywgJy1pbWFlJywgJ2xpZ2FuZF9wcm8ubWFlJywgJy1vbWFlJywgJ2xpZ2FuZF9wcmVwLm1hZScsICctbXMnLCAnMScsICctcGgnLCAnNycsICctcGh0JywgJzAuNScsICctbnQn

> <r_lp_tautomer_probability>
0.999999772200052

> <r_epik_Ionization_Penalty>
  0.0100

> <r_epik_Ionization_Penalty_Charging>
  0.0000

> <r_epik_Ionization_Penalty_Neutral>
  0.0100

> <r_epik_State_Penalty>
  0.0076

> <r_epik_Charging_Adjusted_Penalty>
0.00760446319942638

> <i_epik_Tot_Q>
0

> <i_epik_Tot_abs_Q>
0

$$$$
