3l3m_ligand
                    3D
 Schrodinger Suite 2020-3.
 45 48  0  0  1  0            999 V2000
   28.0630    9.0520   27.6280 F   0  0  0  0  0  0
   23.1200    7.5990   24.0440 C   0  0  0  0  0  0
   26.4820   12.3000   27.5780 C   0  0  0  0  0  0
   22.8040    8.7820   23.4140 C   0  0  0  0  0  0
   27.3410   12.9870   28.4090 C   0  0  0  0  0  0
   24.0070    7.5420   25.0950 C   0  0  0  0  0  0
   28.6460   11.0240   28.6900 C   0  0  0  0  0  0
   26.6910   10.9670   27.3020 C   0  0  0  0  0  0
   23.3840    9.9690   23.7940 C   0  0  0  0  0  0
   28.4250   12.3500   28.9680 C   0  0  0  0  0  0
   24.2810    9.9110   24.8340 C   0  0  0  0  0  0
   24.5840    8.7360   25.4850 C   0  0  0  0  0  0
   27.7860   10.3430   27.8630 C   0  0  0  0  0  0
   25.7690   10.2530   26.4470 C   0  0  0  0  0  0
   23.0150   11.2080   23.1100 C   0  0  0  0  0  0
   29.7750   13.6030   32.2360 C   0  0  0  0  0  0
   30.1780   15.0010   31.8350 C   0  0  0  0  0  0
   28.7530   13.0680   31.2650 C   0  0  0  0  0  0
   30.6730   15.0210   30.4090 C   0  0  0  0  0  0
   29.3590   13.0510   29.8860 C   0  0  2  0  0  0
   25.0340   10.8580   25.4660 N   0  0  0  0  0  0
   25.4970    8.9650   26.4760 N   0  3  0  0  0  0
   29.6010   14.4680   29.5490 N   0  3  0  0  0  0
   23.7070   12.3020   23.5630 N   0  0  0  0  0  0
   22.1520   11.1890   22.2410 O   0  0  0  0  0  0
   22.6521    6.6770   23.6989 H   0  0  0  0  0  0
   25.6300   12.8163   27.1356 H   0  0  0  0  0  0
   22.0805    8.7771   22.5988 H   0  0  0  0  0  0
   27.1606   14.0402   28.6243 H   0  0  0  0  0  0
   24.2426    6.6024   25.5947 H   0  0  0  0  0  0
   29.5038   10.5115   29.1254 H   0  0  0  0  0  0
   30.6602   12.9500   32.2290 H   0  0  0  0  0  0
   29.3414   13.6221   33.2468 H   0  0  0  0  0  0
   29.3103   15.6716   31.9211 H   0  0  0  0  0  0
   30.9821   15.3549   32.4970 H   0  0  0  0  0  0
   28.4663   12.0477   31.5596 H   0  0  0  0  0  0
   27.8640   13.7158   31.2743 H   0  0  0  0  0  0
   30.9021   16.0559   30.1149 H   0  0  0  0  0  0
   31.5820   14.4069   30.3277 H   0  0  0  0  0  0
   30.3135   12.5120   29.7948 H   0  0  0  0  0  0
   28.6741   15.0392   29.7055 H   0  0  0  0  0  0
   29.9030   14.5412   28.4938 H   0  0  0  0  0  0
   24.4627   12.1860   24.3539 H   0  0  0  0  0  0
   23.5064   13.2954   23.1354 H   0  0  0  0  0  0
   25.8489    8.1323   27.1028 H   0  0  0  0  0  0
  1 13  1  0  0  0
  2  4  2  0  0  0
  2  6  1  0  0  0
  2 26  1  0  0  0
  3  5  2  0  0  0
  3  8  1  0  0  0
  3 27  1  0  0  0
  4  9  1  0  0  0
  4 28  1  0  0  0
  5 10  1  0  0  0
  5 29  1  0  0  0
  6 12  2  0  0  0
  6 30  1  0  0  0
  7 10  2  0  0  0
  7 13  1  0  0  0
  7 31  1  0  0  0
  8 13  2  0  0  0
  8 14  1  0  0  0
  9 11  2  0  0  0
  9 15  1  0  0  0
 10 20  1  0  0  0
 11 12  1  0  0  0
 11 21  1  0  0  0
 12 22  1  0  0  0
 14 21  2  0  0  0
 14 22  1  0  0  0
 15 24  1  0  0  0
 15 25  2  0  0  0
 16 17  1  0  0  0
 16 18  1  0  0  0
 16 32  1  0  0  0
 16 33  1  0  0  0
 17 19  1  0  0  0
 17 34  1  0  0  0
 17 35  1  0  0  0
 18 20  1  0  0  0
 18 36  1  0  0  0
 18 37  1  0  0  0
 19 23  1  0  0  0
 19 38  1  0  0  0
 19 39  1  0  0  0
 20 23  1  0  0  0
 20 40  1  0  0  0
 22 45  1  0  0  0
 23 41  1  0  0  0
 23 42  1  0  0  0
 24 43  1  0  0  0
 24 44  1  0  0  0
M  CHG  2  22   1  23   1
M  END
> <s_m_source_file>
../3l3m_ligand.sdf

> <i_m_source_file_index>
1

> <s_epik_input>
W05IMitdMVtDSDJdW0NIMl1bQ0gyXVtDSDJdW0NASF0xYyhbY0hdYzJGKVtjSF1bY0hdYzItYyhuMylbbkhdYyhjMzQpW2NIXVtjSF1bY0hdYzRDKD1PKVtOSDJd

> <s_epik_cmdline>
J2VwaWtfYXBwJywgJy1pbWFlJywgJ2xpZ2FuZF9wcm8ubWFlJywgJy1vbWFlJywgJ2xpZ2FuZF9wcmVwLm1hZScsICctbXMnLCAnMScsICctcGgnLCAnNycsICctcGh0JywgJzAuNScsICctbnQn

> <r_lp_tautomer_probability>
1

> <r_epik_Ionization_Penalty>
  0.0106

> <r_epik_Ionization_Penalty_Charging>
  0.0097

> <r_epik_Ionization_Penalty_Neutral>
  0.0009

> <r_epik_State_Penalty>
 -0.0000

> <r_epik_Charging_Adjusted_Penalty>
0.00970700876969649

> <i_epik_Tot_Q>
2

> <i_epik_Tot_abs_Q>
2

> <s_epik_Chemistry_Notes>
This compound has an imine and may undergo hydrolysis.

$$$$
