3l3q_ligand
                    3D
 Schrodinger Suite 2020-3.
176177  0  0  1  0            999 V2000
   35.9530   30.1400    2.6870 N   0  3  0  0  0  0
   35.7920   30.9260    3.9060 C   0  0  2  0  0  0
   36.8170   32.0620    4.0230 C   0  0  0  0  0  0
   37.9130   31.8440    4.5500 O   0  0  0  0  0  0
   36.0250   29.8880    5.0160 C   0  0  0  0  0  0
   36.8180   28.7600    4.3370 C   0  0  0  0  0  0
   36.9380   29.0590    2.8650 C   0  0  0  0  0  0
   36.4640   33.2550    3.5360 N   0  0  0  0  0  0
   37.3050   34.4700    3.6680 C   0  0  2  0  0  0
   38.5100   34.1910    4.5920 C   0  0  0  0  0  0
   38.3220   34.0630    5.8080 O   0  0  0  0  0  0
   36.4230   35.6170    4.2290 C   0  0  0  0  0  0
   36.6120   36.9810    3.5570 C   0  0  0  0  0  0
   37.0300   37.1000    2.2280 C   0  0  0  0  0  0
   36.3070   38.1530    4.2610 C   0  0  0  0  0  0
   37.1840   38.3570    1.6310 C   0  0  0  0  0  0
   36.4690   39.4180    3.6700 C   0  0  0  0  0  0
   36.9000   39.5130    2.3520 C   0  0  0  0  0  0
   39.7160   34.0590    4.0040 N   0  0  0  0  0  0
   41.0560   33.9340    4.7190 C   0  0  2  0  0  0
   41.3240   34.9910    5.8200 C   0  0  0  0  0  0
   42.0920   34.7600    6.7700 O   0  0  0  0  0  0
   42.2450   33.8830    3.7080 C   0  0  0  0  0  0
   41.8190   34.3050    2.2850 C   0  0  0  0  0  0
   42.6290   33.6210    1.1630 C   0  0  0  0  0  0
   41.7200   33.3270   -0.0520 C   0  0  0  0  0  0
   42.4720   32.7580   -1.2110 N   0  3  0  0  0  0
   40.7030   36.1450    5.6600 N   0  0  0  0  0  0
   40.9300   37.3170    6.5130 C   0  0  2  0  0  0
   39.5700   37.9290    6.7180 C   0  0  0  0  0  0
   38.7340   37.8420    5.8210 O   0  0  0  0  0  0
   41.8340   38.2970    5.8380 C   0  0  0  0  0  0
   43.2460   37.8770    5.8190 C   0  0  0  0  0  0
   44.0320   38.8280    5.0030 C   0  0  0  0  0  0
   45.4640   38.4580    5.0300 C   0  0  0  0  0  0
   46.2210   39.4210    4.2200 N   0  3  0  0  0  0
   39.3110   38.4440    7.9260 N   0  0  0  0  0  0
   38.0050   38.9760    8.3280 C   0  0  2  0  0  0
   38.2810   40.3180    9.0190 C   0  0  0  0  0  0
   38.9730   40.4010   10.0040 O   0  0  0  0  0  0
   37.3030   38.1140    9.3760 C   0  0  0  0  0  0
   36.6960   36.8020    8.9830 C   0  0  0  0  0  0
   36.4660   35.9500   10.2490 C   0  0  0  0  0  0
   35.7120   36.6000   11.4230 C   0  0  0  0  0  0
   36.1190   36.1420   12.8390 N   0  3  0  0  0  0
   37.6970   41.3630    8.5020 N   0  0  0  0  0  0
   37.6760   42.6050    9.2220 C   0  0  2  0  0  0
   36.6780   42.5340   10.4340 C   0  0  0  0  0  0
   35.6640   41.8040   10.4100 O   0  0  0  0  0  0
   37.2560   43.6690    8.2050 C   0  0  0  0  0  0
   37.6300   45.0050    8.7830 C   0  0  0  0  0  0
   38.2240   45.9880    7.8170 C   0  0  0  0  0  0
   37.4740   47.2320    7.9160 N   0  0  0  0  0  0
   36.6730   47.6730    6.9590 C   0  0  0  0  0  0
   36.5810   46.9710    5.8330 N   0  0  0  0  0  0
   35.9890   48.8070    7.1210 N   0  0  0  0  0  0
   36.9890   43.2760   11.4970 N   0  0  0  0  0  0
   35.9860   43.5370   12.5380 C   0  0  2  0  0  0
   35.2250   44.8560   12.2950 C   0  0  0  0  0  0
   35.7330   45.9560   12.5520 O   0  0  0  0  0  0
   36.6080   43.5100   13.8940 C   0  0  0  0  0  0
   35.5400   43.6540   14.8940 C   0  0  0  0  0  0
   36.1040   43.6250   16.2040 C   0  0  0  0  0  0
   34.9680   43.5990   17.0970 N   0  0  0  0  0  0
   35.0880   43.7270   18.3890 C   0  0  0  0  0  0
   36.3070   43.9080   18.8750 N   0  0  0  0  0  0
   34.0270   43.7000   19.1830 N   0  0  0  0  0  0
   34.0300   44.7650   11.7330 N   0  0  0  0  0  0
   33.3400   45.9620   11.1860 C   0  0  2  0  0  0
   32.2060   46.5260   12.1150 C   0  0  0  0  0  0
   31.6970   45.8180   12.9880 O   0  0  0  0  0  0
   32.8400   45.6910    9.7270 C   0  0  0  0  0  0
   32.5140   46.9610    8.9060 C   0  0  0  0  0  0
   31.5510   46.7230    7.7300 C   0  0  0  0  0  0
   30.8940   47.6960    7.2710 O   0  0  0  0  0  0
   31.4480   45.5680    7.2600 O   0  0  0  0  0  0
   31.8640   47.8070   11.9000 N   0  0  0  0  0  0
   30.7490   48.5820   12.5340 C   0  0  2  0  0  0
   30.7190   48.6330   14.0640 C   0  0  0  0  0  0
   31.4570   49.4030   14.6890 O   0  0  0  0  0  0
   29.3380   48.2080   11.9410 C   0  0  0  0  0  0
   29.9600   47.9150   14.7160 O   0  0  0  0  0  0
   34.9883   29.6888    2.4116 H   0  0  0  0  0  0
   36.2981   30.7935    1.8722 H   0  0  0  0  0  0
   34.8022   31.4059    3.9004 H   0  0  0  0  0  0
   36.5937   30.3500    5.8364 H   0  0  0  0  0  0
   35.0555   29.5336    5.3960 H   0  0  0  0  0  0
   37.8208   28.6959    4.7846 H   0  0  0  0  0  0
   36.2914   27.8047    4.4789 H   0  0  0  0  0  0
   36.6635   28.2045    2.2291 H   0  0  0  0  0  0
   37.9365   29.4222    2.5802 H   0  0  0  0  0  0
   35.4963   33.3098    3.0159 H   0  0  0  0  0  0
   37.6875   34.7262    2.6690 H   0  0  0  0  0  0
   35.3613   35.3555    4.1087 H   0  0  0  0  0  0
   36.6460   35.7626    5.2963 H   0  0  0  0  0  0
   37.2390   36.2009    1.6483 H   0  0  0  0  0  0
   35.9379   38.0828    5.2842 H   0  0  0  0  0  0
   37.5272   38.4304    0.5990 H   0  0  0  0  0  0
   36.2575   40.3208    4.2430 H   0  0  0  0  0  0
   37.0153   40.4907    1.8842 H   0  0  0  0  0  0
   39.6758   34.0457    2.9048 H   0  0  0  0  0  0
   40.9568   32.9751    5.2489 H   0  0  0  0  0  0
   43.0405   34.5649    4.0429 H   0  0  0  0  0  0
   42.6389   32.8572    3.6567 H   0  0  0  0  0  0
   40.7613   34.0473    2.1274 H   0  0  0  0  0  0
   41.9531   35.3906    2.1689 H   0  0  0  0  0  0
   43.4484   34.2831    0.8465 H   0  0  0  0  0  0
   43.0461   32.6743    1.5368 H   0  0  0  0  0  0
   40.9459   32.6006    0.2365 H   0  0  0  0  0  0
   41.2415   34.2594   -0.3861 H   0  0  0  0  0  0
   41.7768   32.5699   -2.0424 H   0  0  0  0  0  0
   42.9486   31.8132   -0.9106 H   0  0  0  0  0  0
   43.2442   33.4720   -1.5332 H   0  0  0  0  0  0
   39.9809   36.1990    4.8320 H   0  0  0  0  0  0
   41.4156   37.0184    7.4537 H   0  0  0  0  0  0
   41.5158   38.4301    4.7935 H   0  0  0  0  0  0
   41.7846   39.2628    6.3622 H   0  0  0  0  0  0
   43.6384   37.8638    6.8465 H   0  0  0  0  0  0
   43.3231   36.8696    5.3841 H   0  0  0  0  0  0
   43.6724   38.8038    3.9637 H   0  0  0  0  0  0
   43.9138   39.8438    5.4083 H   0  0  0  0  0  0
   45.8284   38.4782    6.0677 H   0  0  0  0  0  0
   45.5891   37.4461    4.6171 H   0  0  0  0  0  0
   47.2879   39.1535    4.2343 H   0  0  0  0  0  0
   46.0907   40.4314    4.6348 H   0  0  0  0  0  0
   45.8514   39.3994    3.1842 H   0  0  0  0  0  0
   40.1510   38.4534    8.6362 H   0  0  0  0  0  0
   37.4006   39.0117    7.4097 H   0  0  0  0  0  0
   38.0162   37.8492   10.1705 H   0  0  0  0  0  0
   36.4628   38.6759    9.8099 H   0  0  0  0  0  0
   35.7352   36.9793    8.4777 H   0  0  0  0  0  0
   37.3771   36.2727    8.3004 H   0  0  0  0  0  0
   35.8788   35.0571    9.9883 H   0  0  0  0  0  0
   37.4366   35.6420   10.6650 H   0  0  0  0  0  0
   35.8692   37.6885   11.4020 H   0  0  0  0  0  0
   34.6373   36.3829   11.3338 H   0  0  0  0  0  0
   35.5122   36.6755   13.5855 H   0  0  0  0  0  0
   37.1834   36.3648   13.0046 H   0  0  0  0  0  0
   35.9516   35.0592   12.9364 H   0  0  0  0  0  0
   37.2201   41.2923    7.5133 H   0  0  0  0  0  0
   38.6917   42.7860    9.6037 H   0  0  0  0  0  0
   37.7828   43.4963    7.2549 H   0  0  0  0  0  0
   36.1704   43.6087    8.0384 H   0  0  0  0  0  0
   36.7343   45.4869    9.2020 H   0  0  0  0  0  0
   38.3767   44.8644    9.5784 H   0  0  0  0  0  0
   39.2797   46.1614    8.0729 H   0  0  0  0  0  0
   38.1557   45.5854    6.7956 H   0  0  0  0  0  0
   37.5586   47.8549    8.8187 H   0  0  0  0  0  0
   37.1528   46.0383    5.7181 H   0  0  0  0  0  0
   36.0781   49.3738    8.0595 H   0  0  0  0  0  0
   35.3360   49.1752    6.3160 H   0  0  0  0  0  0
   38.0022   43.6935   11.5924 H   0  0  0  0  0  0
   35.2805   42.6951   12.4792 H   0  0  0  0  0  0
   37.1331   42.5541   14.0376 H   0  0  0  0  0  0
   37.3248   44.3394   13.9852 H   0  0  0  0  0  0
   35.0208   44.6116   14.7407 H   0  0  0  0  0  0
   34.8229   42.8268   14.7864 H   0  0  0  0  0  0
   36.7289   42.7265   16.3143 H   0  0  0  0  0  0
   36.7216   44.5223   16.3573 H   0  0  0  0  0  0
   33.9535   43.4672   16.6927 H   0  0  0  0  0  0
   37.1725   43.9267   18.1964 H   0  0  0  0  0  0
   33.0245   43.5483   18.7564 H   0  0  0  0  0  0
   34.1490   43.8293   20.2685 H   0  0  0  0  0  0
   33.5478   43.7780   11.6755 H   0  0  0  0  0  0
   34.1344   46.7227   11.1717 H   0  0  0  0  0  0
   33.6145   45.1437    9.1697 H   0  0  0  0  0  0
   31.9190   45.0904    9.7606 H   0  0  0  0  0  0
   32.0445   47.7102    9.5605 H   0  0  0  0  0  0
   33.4424   47.3732    8.4839 H   0  0  0  0  0  0
   30.2009   47.5440    6.4304 H   0  0  0  0  0  0
   32.5183   48.2905   11.1597 H   0  0  0  0  0  0
   31.0517   49.6014   12.2527 H   0  0  0  0  0  0
   31.4226   49.4268   15.7882 H   0  0  0  0  0  0
   29.3973   48.1808   10.8429 H   0  0  0  0  0  0
   28.5990   48.9620   12.2498 H   0  0  0  0  0  0
   29.0327   47.2201   12.3163 H   0  0  0  0  0  0
  1  2  1  0  0  0
  1  7  1  0  0  0
  1 83  1  0  0  0
  1 84  1  0  0  0
  2  3  1  0  0  0
  2  5  1  0  0  0
  2 85  1  0  0  0
  3  4  2  0  0  0
  3  8  1  0  0  0
  5  6  1  0  0  0
  5 86  1  0  0  0
  5 87  1  0  0  0
  6  7  1  0  0  0
  6 88  1  0  0  0
  6 89  1  0  0  0
  7 90  1  0  0  0
  7 91  1  0  0  0
  8  9  1  0  0  0
  8 92  1  0  0  0
  9 10  1  0  0  0
  9 12  1  0  0  0
  9 93  1  0  0  0
 10 11  2  0  0  0
 10 19  1  0  0  0
 12 13  1  0  0  0
 12 94  1  0  0  0
 12 95  1  0  0  0
 13 14  2  0  0  0
 13 15  1  0  0  0
 14 16  1  0  0  0
 14 96  1  0  0  0
 15 17  2  0  0  0
 15 97  1  0  0  0
 16 18  2  0  0  0
 16 98  1  0  0  0
 17 18  1  0  0  0
 17 99  1  0  0  0
 18100  1  0  0  0
 19 20  1  0  0  0
 19101  1  0  0  0
 20 21  1  0  0  0
 20 23  1  0  0  0
 20102  1  0  0  0
 21 22  2  0  0  0
 21 28  1  0  0  0
 23 24  1  0  0  0
 23103  1  0  0  0
 23104  1  0  0  0
 24 25  1  0  0  0
 24105  1  0  0  0
 24106  1  0  0  0
 25 26  1  0  0  0
 25107  1  0  0  0
 25108  1  0  0  0
 26 27  1  0  0  0
 26109  1  0  0  0
 26110  1  0  0  0
 27111  1  0  0  0
 27112  1  0  0  0
 27113  1  0  0  0
 28 29  1  0  0  0
 28114  1  0  0  0
 29 30  1  0  0  0
 29 32  1  0  0  0
 29115  1  0  0  0
 30 31  2  0  0  0
 30 37  1  0  0  0
 32 33  1  0  0  0
 32116  1  0  0  0
 32117  1  0  0  0
 33 34  1  0  0  0
 33118  1  0  0  0
 33119  1  0  0  0
 34 35  1  0  0  0
 34120  1  0  0  0
 34121  1  0  0  0
 35 36  1  0  0  0
 35122  1  0  0  0
 35123  1  0  0  0
 36124  1  0  0  0
 36125  1  0  0  0
 36126  1  0  0  0
 37 38  1  0  0  0
 37127  1  0  0  0
 38 39  1  0  0  0
 38 41  1  0  0  0
 38128  1  0  0  0
 39 40  2  0  0  0
 39 46  1  0  0  0
 41 42  1  0  0  0
 41129  1  0  0  0
 41130  1  0  0  0
 42 43  1  0  0  0
 42131  1  0  0  0
 42132  1  0  0  0
 43 44  1  0  0  0
 43133  1  0  0  0
 43134  1  0  0  0
 44 45  1  0  0  0
 44135  1  0  0  0
 44136  1  0  0  0
 45137  1  0  0  0
 45138  1  0  0  0
 45139  1  0  0  0
 46 47  1  0  0  0
 46140  1  0  0  0
 47 48  1  0  0  0
 47 50  1  0  0  0
 47141  1  0  0  0
 48 49  2  0  0  0
 48 57  1  0  0  0
 50 51  1  0  0  0
 50142  1  0  0  0
 50143  1  0  0  0
 51 52  1  0  0  0
 51144  1  0  0  0
 51145  1  0  0  0
 52 53  1  0  0  0
 52146  1  0  0  0
 52147  1  0  0  0
 53 54  1  0  0  0
 53148  1  0  0  0
 54 55  2  0  0  0
 54 56  1  0  0  0
 55149  1  0  0  0
 56150  1  0  0  0
 56151  1  0  0  0
 57 58  1  0  0  0
 57152  1  0  0  0
 58 59  1  0  0  0
 58 61  1  0  0  0
 58153  1  0  0  0
 59 60  2  0  0  0
 59 68  1  0  0  0
 61 62  1  0  0  0
 61154  1  0  0  0
 61155  1  0  0  0
 62 63  1  0  0  0
 62156  1  0  0  0
 62157  1  0  0  0
 63 64  1  0  0  0
 63158  1  0  0  0
 63159  1  0  0  0
 64 65  1  0  0  0
 64160  1  0  0  0
 65 66  2  0  0  0
 65 67  1  0  0  0
 66161  1  0  0  0
 67162  1  0  0  0
 67163  1  0  0  0
 68 69  1  0  0  0
 68164  1  0  0  0
 69 70  1  0  0  0
 69 72  1  0  0  0
 69165  1  0  0  0
 70 71  2  0  0  0
 70 77  1  0  0  0
 72 73  1  0  0  0
 72166  1  0  0  0
 72167  1  0  0  0
 73 74  1  0  0  0
 73168  1  0  0  0
 73169  1  0  0  0
 74 75  1  0  0  0
 74 76  2  0  0  0
 75170  1  0  0  0
 77 78  1  0  0  0
 77171  1  0  0  0
 78 79  1  0  0  0
 78 81  1  0  0  0
 78172  1  0  0  0
 79 80  1  0  0  0
 79 82  2  0  0  0
 80173  1  0  0  0
 81174  1  0  0  0
 81175  1  0  0  0
 81176  1  0  0  0
M  CHG  4   1   1  27   1  36   1  45   1
M  END
> <s_m_source_file>
../3l3q_ligand.sdf

> <i_m_source_file_index>
1

> <s_epik_input>
W0NIMl0xW0NIMl1bQ0gyXVtOSDIrXVtDQEBIXTFDKD1PKVtOSF1bQ0BASF0oW0NIMl1jMltjSF1bY0hdW2NIXVtjSF1bY0hdMilDKD1PKVtOSF1bQ0BASF0oW0NIMl1bQ0gyXVtDSDJdW0NIMl1bTkgzK10pQyg9TylbTkhdW0NAQEhdKFtDSDJdW0NIMl1bQ0gyXVtDSDJdW05IMytdKUMoPU8pW05IXVtDQEBIXShbQ0gyXVtDSDJdW0NIMl1bQ0gyXVtOSDMrXSlDKD1PKVtOSF1bQ0BASF0oW0NIMl1bQ0gyXVtDSDJdW05IXS9DKD1OXFtIXSlbTkgyXSlDKD1PKVtOSF1bQ0BASF0oW0NIMl1bQ0gyXVtDSDJdW05IXS9DKD1OXFtIXSlbTkgyXSlDKD1PKVtOSF1bQ0BASF0oW0NIMl1bQ0gyXUMoPU8pW09IXSlDKD1PKVtOSF1bQ0BASF0oW0NIM10pQyg9TylbT0hd

> <s_epik_cmdline>
J2VwaWtfYXBwJywgJy1pbWFlJywgJ2xpZ2FuZF9wcm8ubWFlJywgJy1vbWFlJywgJ2xpZ2FuZF9wcmVwLm1hZScsICctbXMnLCAnMScsICctcGgnLCAnNycsICctcGh0JywgJzAuNScsICctbnQn

> <s_epik_pKa_notes>
Molecule size exceeds maximum supported for generating protonation states

> <s_epik_Chemistry_Notes>
This compound has an imine and may undergo hydrolysis.

$$$$
