3l3x_ligand
                    3D
 Schrodinger Suite 2020-3.
204204  0  0  1  0            999 V2000
  -12.1570   30.6390   17.3550 N   0  3  0  0  0  0
  -11.9290   30.1760   18.7550 C   0  0  2  0  0  0
  -12.6360   28.8420   19.0180 C   0  0  0  0  0  0
  -12.1210   28.0010   19.7600 O   0  0  0  0  0  0
  -12.3980   31.2480   19.7530 C   0  0  0  0  0  0
  -12.1730   30.8850   21.1910 C   0  0  0  0  0  0
  -10.9410   30.5070   21.6820 N   0  0  0  0  0  0
  -13.0230   30.8550   22.2450 C   0  0  0  0  0  0
  -11.0440   30.2520   22.9750 C   0  0  0  0  0  0
  -12.2970   30.4550   23.3410 N   0  0  0  0  0  0
  -13.8070   28.6520   18.4050 N   0  0  0  0  0  0
  -14.5790   27.4150   18.5650 C   0  0  2  0  0  0
  -13.8090   26.2070   18.0250 C   0  0  0  0  0  0
  -13.4670   25.3000   18.7860 O   0  0  0  0  0  0
  -15.9490   27.5270   17.8730 C   0  0  0  0  0  0
  -16.7740   26.2330   17.8710 C   0  0  0  0  0  0
  -18.0010   26.3310   16.9700 C   0  0  0  0  0  0
  -18.6780   24.9720   16.8240 C   0  0  0  0  0  0
  -19.9570   25.0400   16.0620 N   0  3  0  0  0  0
  -13.5430   26.2040   16.7180 N   0  0  0  0  0  0
  -12.8370   25.0950   16.0640 C   0  0  2  0  0  0
  -11.4210   24.9060   16.6220 C   0  0  0  0  0  0
  -10.9460   23.7760   16.7540 O   0  0  0  0  0  0
  -12.7820   25.3160   14.5430 C   0  0  0  0  0  0
  -12.1640   24.1580   13.7580 C   0  0  0  0  0  0
  -12.1040   24.4510   12.2660 C   0  0  0  0  0  0
  -11.3440   23.3640   11.5200 C   0  0  0  0  0  0
  -11.1510   23.7040   10.0830 N   0  3  0  0  0  0
  -10.7560   26.0130   16.9490 N   0  0  0  0  0  0
   -9.3890   25.9770   17.4800 C   0  0  2  0  0  0
   -9.3360   25.2840   18.8460 C   0  0  0  0  0  0
   -8.5190   24.3850   19.0580 O   0  0  0  0  0  0
   -8.8230   27.4000   17.5750 C   0  0  0  0  0  0
   -7.3550   27.5820   17.9760 C   0  0  0  0  0  0
   -6.4120   26.7710   17.0960 C   0  0  0  0  0  0
   -6.9960   29.0580   17.9270 C   0  0  0  0  0  0
  -10.2180   25.7010   19.7570 N   0  0  0  0  0  0
  -10.3200   25.0940   21.0930 C   0  0  2  0  0  0
  -10.8900   23.6720   21.0330 C   0  0  0  0  0  0
  -10.5430   22.8270   21.8610 O   0  0  0  0  0  0
  -11.1840   25.9680   22.0120 C   0  0  0  0  0  0
  -11.3520   25.5460   23.4780 C   0  0  0  0  0  0
  -10.0070   25.3830   24.1810 C   0  0  0  0  0  0
  -12.2200   26.5670   24.2110 C   0  0  0  0  0  0
  -11.7610   23.4220   20.0540 N   0  0  0  0  0  0
  -12.3170   22.0850   19.8080 C   0  0  2  0  0  0
  -11.2190   21.0500   19.5290 C   0  0  0  0  0  0
  -11.3610   19.8800   19.8940 O   0  0  0  0  0  0
  -13.3010   22.1280   18.6310 C   0  0  0  0  0  0
  -14.0700   20.8340   18.3780 C   0  0  0  0  0  0
  -14.9770   20.9120   17.1590 C   0  0  0  0  0  0
  -15.8690   20.0770   16.9850 O   0  0  0  0  0  0
  -14.7540   21.9160   16.3100 N   0  0  0  0  0  0
  -10.1340   21.4850   18.8840 N   0  0  0  0  0  0
   -8.9780   20.6190   18.6190 C   0  0  2  0  0  0
   -8.1960   20.2440   19.8940 C   0  0  0  0  0  0
   -7.4200   19.2840   19.8770 O   0  0  0  0  0  0
   -8.0400   21.2730   17.5930 C   0  0  0  0  0  0
   -8.6050   21.4450   16.1760 C   0  0  0  0  0  0
   -7.8980   22.5650   15.4230 C   0  0  0  0  0  0
   -8.5170   20.1320   15.4050 C   0  0  0  0  0  0
   -8.4010   20.9970   20.9810 N   0  0  0  0  0  0
   -7.7980   20.6970   22.2930 C   0  0  2  0  0  0
   -8.7290   19.8920   23.2180 C   0  0  0  0  0  0
   -8.2730   19.0030   23.9430 O   0  0  0  0  0  0
   -7.3560   21.9840   23.0060 C   0  0  0  0  0  0
   -6.0880   22.6670   22.4810 C   0  0  0  0  0  0
   -6.3840   23.4770   21.2290 C   0  0  0  0  0  0
   -5.4740   23.5540   23.5530 C   0  0  0  0  0  0
  -10.0210   20.2160   23.1960 N   0  0  0  0  0  0
  -11.0140   19.5360   24.0340 C   0  0  2  0  0  0
  -11.2320   18.0780   23.6170 C   0  0  0  0  0  0
  -11.4610   17.2170   24.4690 O   0  0  0  0  0  0
  -12.3750   20.2670   23.9970 C   0  0  2  0  0  0
  -12.1890   21.6470   24.3330 O   0  0  0  0  0  0
  -13.3640   19.6360   24.9760 C   0  0  0  0  0  0
  -11.1650   17.8090   22.3130 N   0  0  0  0  0  0
  -11.3830   16.4580   21.7900 C   0  0  2  0  0  0
  -10.2400   15.5180   22.1850 C   0  0  0  0  0  0
   -9.0890   15.7160   21.7850 O   0  0  0  0  0  0
  -11.5690   16.4760   20.2640 C   0  0  0  0  0  0
  -10.1620   17.0980   19.3070 S   0  0  0  0  0  0
  -10.5760   14.5080   22.9890 N   0  0  0  0  0  0
   -9.6120   13.5190   23.4800 C   0  0  2  0  0  0
   -8.4530   14.1850   24.2360 C   0  0  0  0  0  0
   -7.2790   13.9790   23.9150 O   0  0  0  0  0  0
   -9.0950   12.6500   22.3240 C   0  0  0  0  0  0
  -10.1650   12.1500   21.5380 O   0  0  0  0  0  0
   -8.8010   14.9850   25.2410 N   0  0  0  0  0  0
   -7.8130   15.7010   26.0450 C   0  0  2  0  0  0
   -7.0200   14.7400   26.9260 C   0  0  0  0  0  0
   -5.9320   15.0750   27.4010 O   0  0  0  0  0  0
   -8.4980   16.7530   26.9190 C   0  0  0  0  0  0
   -9.2040   17.6890   26.1260 O   0  0  0  0  0  0
   -7.4550   13.6130   27.1770 O   0  0  0  0  0  0
  -11.8175   29.8636   16.6525 H   0  0  0  0  0  0
  -11.5919   31.5662   17.1788 H   0  0  0  0  0  0
  -13.2296   30.8285   17.2016 H   0  0  0  0  0  0
  -10.8453   30.0209   18.8623 H   0  0  0  0  0  0
  -11.8539   32.1856   19.5665 H   0  0  0  0  0  0
  -13.4773   31.4191   19.6270 H   0  0  0  0  0  0
  -14.0951   31.0788   22.3473 H   0  0  0  0  0  0
  -10.2331   29.9292   23.6280 H   0  0  0  0  0  0
  -14.1892   29.4598   17.7636 H   0  0  0  0  0  0
  -14.7132   27.3050   19.6512 H   0  0  0  0  0  0
  -16.5558   28.2901   18.3824 H   0  0  0  0  0  0
  -15.8060   27.8145   16.8209 H   0  0  0  0  0  0
  -16.1511   25.4016   17.5094 H   0  0  0  0  0  0
  -17.1180   26.0159   18.8930 H   0  0  0  0  0  0
  -18.7204   27.0397   17.4061 H   0  0  0  0  0  0
  -17.6969   26.6838   15.9735 H   0  0  0  0  0  0
  -18.0064   24.2833   16.2905 H   0  0  0  0  0  0
  -18.9033   24.5656   17.8210 H   0  0  0  0  0  0
  -20.3953   24.0336   15.9908 H   0  0  0  0  0  0
  -19.7614   25.4271   15.0511 H   0  0  0  0  0  0
  -20.6583   25.7095   16.5817 H   0  0  0  0  0  0
  -13.8721   27.0713   16.1269 H   0  0  0  0  0  0
  -13.4346   24.2036   16.3054 H   0  0  0  0  0  0
  -13.8019   25.4576   14.1560 H   0  0  0  0  0  0
  -12.1793   26.2097   14.3239 H   0  0  0  0  0  0
  -11.1391   23.9787   14.1150 H   0  0  0  0  0  0
  -12.7680   23.2507   13.9065 H   0  0  0  0  0  0
  -13.1255   24.5046   11.8615 H   0  0  0  0  0  0
  -11.5935   25.4113   12.1011 H   0  0  0  0  0  0
  -10.3526   23.2300   11.9773 H   0  0  0  0  0  0
  -11.9048   22.4194   11.5771 H   0  0  0  0  0  0
  -10.5991   22.8930    9.5853 H   0  0  0  0  0  0
  -10.5795   24.6404   10.0013 H   0  0  0  0  0  0
  -12.1318   23.8298    9.6011 H   0  0  0  0  0  0
  -11.2664   26.9773   16.8088 H   0  0  0  0  0  0
   -8.8088   25.3828   16.7586 H   0  0  0  0  0  0
   -8.9084   27.8946   16.5962 H   0  0  0  0  0  0
   -9.3901   27.9709   18.3250 H   0  0  0  0  0  0
   -7.2268   27.2091   19.0029 H   0  0  0  0  0  0
   -6.6883   25.7074   17.1453 H   0  0  0  0  0  0
   -5.3787   26.8983   17.4512 H   0  0  0  0  0  0
   -6.4882   27.1218   16.0562 H   0  0  0  0  0  0
   -7.6874   29.6250   18.5678 H   0  0  0  0  0  0
   -7.0751   29.4204   16.8914 H   0  0  0  0  0  0
   -5.9657   29.1969   18.2864 H   0  0  0  0  0  0
  -10.8839   26.5308   19.4776 H   0  0  0  0  0  0
   -9.2853   25.0482   21.4635 H   0  0  0  0  0  0
  -10.7601   26.9820   22.0585 H   0  0  0  0  0  0
  -12.2086   26.0168   21.6147 H   0  0  0  0  0  0
  -11.8469   24.5639   23.5010 H   0  0  0  0  0  0
   -9.3972   24.6450   23.6392 H   0  0  0  0  0  0
  -10.1717   25.0366   25.2120 H   0  0  0  0  0  0
   -9.4828   26.3499   24.1984 H   0  0  0  0  0  0
  -13.1834   26.6704   23.6902 H   0  0  0  0  0  0
  -11.7064   27.5396   24.2285 H   0  0  0  0  0  0
  -12.3953   26.2262   25.2421 H   0  0  0  0  0  0
  -12.0604   24.2678   19.4176 H   0  0  0  0  0  0
  -12.8340   21.8188   20.7417 H   0  0  0  0  0  0
  -14.0541   22.9092   18.8111 H   0  0  0  0  0  0
  -12.7538   22.3530   17.7036 H   0  0  0  0  0  0
  -13.3589   20.0110   18.2139 H   0  0  0  0  0  0
  -14.7003   20.6055   19.2501 H   0  0  0  0  0  0
  -13.9460   22.6354   16.5090 H   0  0  0  0  0  0
  -15.3780   22.0247   15.4107 H   0  0  0  0  0  0
  -10.1254   22.5322   18.5474 H   0  0  0  0  0  0
   -9.4289   19.7037   18.2081 H   0  0  0  0  0  0
   -7.7669   22.2816   17.9366 H   0  0  0  0  0  0
   -7.1307   20.6632   17.4865 H   0  0  0  0  0  0
   -9.6643   21.7293   16.2593 H   0  0  0  0  0  0
   -7.9754   23.4994   15.9983 H   0  0  0  0  0  0
   -8.3703   22.7002   14.4388 H   0  0  0  0  0  0
   -6.8379   22.3040   15.2883 H   0  0  0  0  0  0
   -9.0337   19.3408   15.9681 H   0  0  0  0  0  0
   -7.4607   19.8561   15.2702 H   0  0  0  0  0  0
   -8.9931   20.2522   14.4207 H   0  0  0  0  0  0
   -9.0536   21.8747   20.8634 H   0  0  0  0  0  0
   -6.9289   20.0746   22.0335 H   0  0  0  0  0  0
   -8.1530   22.7382   22.9286 H   0  0  0  0  0  0
   -7.1586   21.7666   24.0661 H   0  0  0  0  0  0
   -5.3581   21.8879   22.2159 H   0  0  0  0  0  0
   -6.8270   22.8217   20.4646 H   0  0  0  0  0  0
   -5.4495   23.9106   20.8434 H   0  0  0  0  0  0
   -7.0896   24.2847   21.4732 H   0  0  0  0  0  0
   -5.2662   22.9536   24.4509 H   0  0  0  0  0  0
   -6.1760   24.3621   23.8066 H   0  0  0  0  0  0
   -4.5358   23.9879   23.1768 H   0  0  0  0  0  0
  -10.3338   21.0245   22.5189 H   0  0  0  0  0  0
  -10.5599   19.5724   25.0352 H   0  0  0  0  0  0
  -12.7946   20.2535   22.9803 H   0  0  0  0  0  0
  -11.5075   22.2713   23.7365 H   0  0  0  0  0  0
  -13.5081   18.5761   24.7195 H   0  0  0  0  0  0
  -14.3278   20.1626   24.9140 H   0  0  0  0  0  0
  -12.9681   19.7151   25.9992 H   0  0  0  0  0  0
  -10.9387   18.6358   21.6236 H   0  0  0  0  0  0
  -12.3123   16.1187   22.2709 H   0  0  0  0  0  0
  -11.7571   15.4532   19.9055 H   0  0  0  0  0  0
  -12.4243   17.1179   20.0064 H   0  0  0  0  0  0
  -10.2196   17.1415   18.2094 H   0  0  0  0  0  0
  -11.6339   14.4375   23.2821 H   0  0  0  0  0  0
  -10.1774   12.8948   24.1876 H   0  0  0  0  0  0
   -8.4376   13.2513   21.6789 H   0  0  0  0  0  0
   -8.5305   11.7977   22.7300 H   0  0  0  0  0  0
   -9.9562   11.5084   20.6692 H   0  0  0  0  0  0
   -9.8734   15.0982   25.4584 H   0  0  0  0  0  0
   -7.1401   16.1789   25.3178 H   0  0  0  0  0  0
   -9.2083   16.2592   27.5984 H   0  0  0  0  0  0
   -7.7402   17.2902   27.5082 H   0  0  0  0  0  0
   -9.7530   18.5128   26.6055 H   0  0  0  0  0  0
   -6.8747   12.9286   27.8133 H   0  0  0  0  0  0
  1  2  1  0  0  0
  1 96  1  0  0  0
  1 97  1  0  0  0
  1 98  1  0  0  0
  2  3  1  0  0  0
  2  5  1  0  0  0
  2 99  1  0  0  0
  3  4  2  0  0  0
  3 11  1  0  0  0
  5  6  1  0  0  0
  5100  1  0  0  0
  5101  1  0  0  0
  6  7  2  0  0  0
  6  8  1  0  0  0
  7  9  1  0  0  0
  8 10  2  0  0  0
  8102  1  0  0  0
  9 10  1  0  0  0
  9103  1  0  0  0
 11 12  1  0  0  0
 11104  1  0  0  0
 12 13  1  0  0  0
 12 15  1  0  0  0
 12105  1  0  0  0
 13 14  2  0  0  0
 13 20  1  0  0  0
 15 16  1  0  0  0
 15106  1  0  0  0
 15107  1  0  0  0
 16 17  1  0  0  0
 16108  1  0  0  0
 16109  1  0  0  0
 17 18  1  0  0  0
 17110  1  0  0  0
 17111  1  0  0  0
 18 19  1  0  0  0
 18112  1  0  0  0
 18113  1  0  0  0
 19114  1  0  0  0
 19115  1  0  0  0
 19116  1  0  0  0
 20 21  1  0  0  0
 20117  1  0  0  0
 21 22  1  0  0  0
 21 24  1  0  0  0
 21118  1  0  0  0
 22 23  2  0  0  0
 22 29  1  0  0  0
 24 25  1  0  0  0
 24119  1  0  0  0
 24120  1  0  0  0
 25 26  1  0  0  0
 25121  1  0  0  0
 25122  1  0  0  0
 26 27  1  0  0  0
 26123  1  0  0  0
 26124  1  0  0  0
 27 28  1  0  0  0
 27125  1  0  0  0
 27126  1  0  0  0
 28127  1  0  0  0
 28128  1  0  0  0
 28129  1  0  0  0
 29 30  1  0  0  0
 29130  1  0  0  0
 30 31  1  0  0  0
 30 33  1  0  0  0
 30131  1  0  0  0
 31 32  2  0  0  0
 31 37  1  0  0  0
 33 34  1  0  0  0
 33132  1  0  0  0
 33133  1  0  0  0
 34 35  1  0  0  0
 34 36  1  0  0  0
 34134  1  0  0  0
 35135  1  0  0  0
 35136  1  0  0  0
 35137  1  0  0  0
 36138  1  0  0  0
 36139  1  0  0  0
 36140  1  0  0  0
 37 38  1  0  0  0
 37141  1  0  0  0
 38 39  1  0  0  0
 38 41  1  0  0  0
 38142  1  0  0  0
 39 40  2  0  0  0
 39 45  1  0  0  0
 41 42  1  0  0  0
 41143  1  0  0  0
 41144  1  0  0  0
 42 43  1  0  0  0
 42 44  1  0  0  0
 42145  1  0  0  0
 43146  1  0  0  0
 43147  1  0  0  0
 43148  1  0  0  0
 44149  1  0  0  0
 44150  1  0  0  0
 44151  1  0  0  0
 45 46  1  0  0  0
 45152  1  0  0  0
 46 47  1  0  0  0
 46 49  1  0  0  0
 46153  1  0  0  0
 47 48  2  0  0  0
 47 54  1  0  0  0
 49 50  1  0  0  0
 49154  1  0  0  0
 49155  1  0  0  0
 50 51  1  0  0  0
 50156  1  0  0  0
 50157  1  0  0  0
 51 52  2  0  0  0
 51 53  1  0  0  0
 53158  1  0  0  0
 53159  1  0  0  0
 54 55  1  0  0  0
 54160  1  0  0  0
 55 56  1  0  0  0
 55 58  1  0  0  0
 55161  1  0  0  0
 56 57  2  0  0  0
 56 62  1  0  0  0
 58 59  1  0  0  0
 58162  1  0  0  0
 58163  1  0  0  0
 59 60  1  0  0  0
 59 61  1  0  0  0
 59164  1  0  0  0
 60165  1  0  0  0
 60166  1  0  0  0
 60167  1  0  0  0
 61168  1  0  0  0
 61169  1  0  0  0
 61170  1  0  0  0
 62 63  1  0  0  0
 62171  1  0  0  0
 63 64  1  0  0  0
 63 66  1  0  0  0
 63172  1  0  0  0
 64 65  2  0  0  0
 64 70  1  0  0  0
 66 67  1  0  0  0
 66173  1  0  0  0
 66174  1  0  0  0
 67 68  1  0  0  0
 67 69  1  0  0  0
 67175  1  0  0  0
 68176  1  0  0  0
 68177  1  0  0  0
 68178  1  0  0  0
 69179  1  0  0  0
 69180  1  0  0  0
 69181  1  0  0  0
 70 71  1  0  0  0
 70182  1  0  0  0
 71 72  1  0  0  0
 71 74  1  0  0  0
 71183  1  0  0  0
 72 73  2  0  0  0
 72 77  1  0  0  0
 74 75  1  0  0  0
 74 76  1  0  0  0
 74184  1  0  0  0
 75185  1  0  0  0
 76186  1  0  0  0
 76187  1  0  0  0
 76188  1  0  0  0
 77 78  1  0  0  0
 77189  1  0  0  0
 78 79  1  0  0  0
 78 81  1  0  0  0
 78190  1  0  0  0
 79 80  2  0  0  0
 79 83  1  0  0  0
 81 82  1  0  0  0
 81191  1  0  0  0
 81192  1  0  0  0
 82193  1  0  0  0
 83 84  1  0  0  0
 83194  1  0  0  0
 84 85  1  0  0  0
 84 87  1  0  0  0
 84195  1  0  0  0
 85 86  2  0  0  0
 85 89  1  0  0  0
 87 88  1  0  0  0
 87196  1  0  0  0
 87197  1  0  0  0
 88198  1  0  0  0
 89 90  1  0  0  0
 89199  1  0  0  0
 90 91  1  0  0  0
 90 93  1  0  0  0
 90200  1  0  0  0
 91 92  2  0  0  0
 91 95  1  0  0  0
 93 94  1  0  0  0
 93201  1  0  0  0
 93202  1  0  0  0
 94203  1  0  0  0
 95204  1  0  0  0
M  CHG  3   1   1  19   1  28   1
M  END
> <s_m_source_file>
../3l3x_ligand.sdf

> <i_m_source_file_index>
1

> <s_epik_input>
W0NIXTE9TltDSDJdTj1DMVtDSDJdW0NASF0oW05IMytdKUMoPU8pW05IXVtDQEBIXShbQ0gyXVtDSDJdW0NIMl1bQ0gyXVtOSDMrXSlDKD1PKVtOSF1bQ0BASF0oW0NIMl1bQ0gyXVtDSDJdW0NIMl1bTkgzK10pQyg9TylbTkhdW0NAQEhdKFtDSDJdW0NIXShbQ0gzXSlbQ0gzXSlDKD1PKVtOSF1bQ0BASF0oW0NIMl1bQ0hdKFtDSDNdKVtDSDNdKUMoPU8pW05IXVtDQEBIXShbQ0gyXVtDSDJdQyg9TylbTkgyXSlDKD1PKVtOSF1bQ0BASF0oW0NIMl1bQ0hdKFtDSDNdKVtDSDNdKUMoPU8pW05IXVtDQEBIXShbQ0gyXVtDSF0oW0NIM10pW0NIM10pQyg9TylbTkhdW0NAQEhdKFtDQEhdKFtPSF0pW0NIM10pQyg9TylbTkhdW0NAQEhdKFtDSDJdW1NIXSlDKD1PKVtOSF1bQ0BASF0oW0NIMl1bT0hdKUMoPU8pW05IXVtDQEhdKEMoPU8pW09IXSlbQ0gyXVtPSF0=

> <s_epik_cmdline>
J2VwaWtfYXBwJywgJy1pbWFlJywgJ2xpZ2FuZF9wcm8ubWFlJywgJy1vbWFlJywgJ2xpZ2FuZF9wcmVwLm1hZScsICctbXMnLCAnMScsICctcGgnLCAnNycsICctcGh0JywgJzAuNScsICctbnQn

> <s_epik_pKa_notes>
Molecule size exceeds maximum supported for generating protonation states

> <s_epik_Chemistry_Notes>
This compound has an imine and may undergo hydrolysis.

$$$$
