3l3z_ligand
                    3D
 Schrodinger Suite 2020-3.
210210  0  0  1  0            999 V2000
  -12.3780   31.6090   19.2840 N   0  3  0  0  0  0
  -11.4610   30.4410   19.0910 C   0  0  2  0  0  0
  -12.1490   29.0990   19.3860 C   0  0  0  0  0  0
  -11.5170   28.1530   19.8620 O   0  0  0  0  0  0
  -10.2000   30.5950   19.9650 C   0  0  0  0  0  0
  -10.5230   30.7600   21.4370 C   0  0  0  0  0  0
  -11.2460   29.9500   22.0210 O   0  0  0  0  0  0
   -9.9890   31.8150   22.0450 N   0  0  0  0  0  0
  -13.4460   29.0160   19.1000 N   0  0  0  0  0  0
  -14.2070   27.8060   19.4140 C   0  0  2  0  0  0
  -13.6450   26.5990   18.6470 C   0  0  0  0  0  0
  -13.3830   25.5470   19.2450 O   0  0  0  0  0  0
  -15.6990   27.9960   19.1260 C   0  0  0  0  0  0
  -13.4320   26.7760   17.3400 N   0  0  0  0  0  0
  -12.9540   25.7050   16.4710 C   0  0  2  0  0  0
  -11.6010   25.1370   16.9380 C   0  0  0  0  0  0
  -11.4200   23.9230   16.9780 O   0  0  0  0  0  0
  -12.8720   26.1860   15.0120 C   0  0  0  0  0  0
  -12.5440   25.0840   13.9880 C   0  0  0  0  0  0
  -13.3350   23.7800   14.2820 C   0  0  0  0  0  0
  -12.7850   25.5460   12.5580 C   0  0  0  0  0  0
  -10.6690   26.0100   17.3120 N   0  0  0  0  0  0
   -9.3690   25.5730   17.8720 C   0  0  2  0  0  0
   -9.5160   24.7190   19.1240 C   0  0  0  0  0  0
   -8.8740   23.6840   19.2330 O   0  0  0  0  0  0
   -8.4900   26.7680   18.2120 C   0  0  0  0  0  0
   -7.0200   26.4450   18.4720 C   0  0  0  0  0  0
   -6.3880   25.9660   17.2080 C   0  0  0  0  0  0
   -6.3010   27.6750   18.9610 C   0  0  0  0  0  0
  -10.3710   25.1650   20.0470 N   0  0  0  0  0  0
  -10.6600   24.4650   21.3070 C   0  0  2  0  0  0
  -11.1430   23.0570   21.0550 C   0  0  0  0  0  0
  -10.7460   22.1260   21.7430 O   0  0  0  0  0  0
  -11.7440   25.1980   22.1100 C   0  0  0  0  0  0
  -11.2290   26.0870   23.2200 C   0  0  0  0  0  0
  -10.9230   25.2910   24.4910 C   0  0  0  0  0  0
  -10.6330   26.1770   25.6350 N   0  0  0  0  0  0
  -10.4700   25.7610   26.8920 C   0  0  0  0  0  0
  -10.5710   24.4650   27.2000 N   0  0  0  0  0  0
  -10.2150   26.6430   27.8500 N   0  0  0  0  0  0
  -12.0430   22.9360   20.0890 N   0  0  0  0  0  0
  -12.5990   21.6480   19.6950 C   0  0  2  0  0  0
  -11.5020   20.7000   19.2300 C   0  0  0  0  0  0
  -11.5140   19.5470   19.6310 O   0  0  0  0  0  0
  -13.6230   21.8190   18.5740 C   0  0  0  0  0  0
  -14.4220   20.5700   18.2570 C   0  0  0  0  0  0
  -15.1570   19.9270   19.2520 C   0  0  0  0  0  0
  -14.4680   20.0500   16.9660 C   0  0  0  0  0  0
  -15.8990   18.8040   18.9850 C   0  0  0  0  0  0
  -15.2220   18.8990   16.6880 C   0  0  0  0  0  0
  -15.9330   18.2860   17.7060 C   0  0  0  0  0  0
  -16.6860   17.1670   17.4340 O   0  0  0  0  0  0
  -10.5730   21.1900   18.3880 N   0  0  0  0  0  0
   -9.4450   20.3770   17.8850 C   0  0  2  0  0  0
   -8.5020   19.8890   19.0080 C   0  0  0  0  0  0
   -7.9320   18.7920   18.9280 O   0  0  0  0  0  0
   -8.6310   21.1470   16.8240 C   0  0  0  0  0  0
   -9.2750   21.3620   15.4500 C   0  0  0  0  0  0
   -8.4440   22.3640   14.6560 C   0  0  0  0  0  0
   -9.4150   20.0620   14.6590 C   0  0  0  0  0  0
   -8.3570   20.7170   20.0420 N   0  0  0  0  0  0
   -7.5710   20.3700   21.2250 C   0  0  2  0  0  0
   -8.2610   19.3620   22.1450 C   0  0  0  0  0  0
   -7.6090   18.4250   22.6200 O   0  0  0  0  0  0
   -7.2430   21.6240   22.0480 C   0  0  0  0  0  0
   -5.9830   22.4260   21.7380 C   0  0  0  0  0  0
   -5.9450   23.6030   22.7050 C   0  0  0  0  0  0
   -4.7150   21.6070   21.9110 C   0  0  0  0  0  0
   -9.5560   19.5810   22.4210 N   0  0  0  0  0  0
  -10.3350   18.7180   23.3290 C   0  0  2  0  0  0
  -10.5930   17.3270   22.7600 C   0  0  0  0  0  0
  -10.4870   16.3410   23.4950 O   0  0  0  0  0  0
  -11.6890   19.3540   23.6640 C   0  0  0  0  0  0
  -11.5530   20.6360   24.4360 C   0  0  0  0  0  0
  -12.4790   21.4550   24.3650 O   0  0  0  0  0  0
  -10.5120   20.8370   25.1030 O   0  0  0  0  0  0
  -10.9550   17.2700   21.4720 N   0  0  0  0  0  0
  -11.3430   16.0200   20.8110 C   0  0  2  0  0  0
  -10.1570   15.0780   20.7900 C   0  0  0  0  0  0
   -9.0920   15.4480   20.3040 O   0  0  0  0  0  0
  -11.8360   16.2700   19.3860 C   0  0  0  0  0  0
  -10.7480   16.7940   18.4410 C   0  0  0  0  0  0
  -11.3170   17.2290   17.1330 C   0  0  0  0  0  0
  -12.1920   16.2080   16.5670 N   0  0  0  0  0  0
  -12.8780   16.3510   15.4360 C   0  0  0  0  0  0
  -12.7910   17.4740   14.7280 N   0  0  0  0  0  0
  -13.6550   15.3600   15.0050 N   0  0  0  0  0  0
  -10.3380   13.8790   21.3430 N   0  0  0  0  0  0
   -9.2470   12.9150   21.5200 C   0  0  2  0  0  0
   -8.0800   13.4970   22.3630 C   0  0  0  0  0  0
   -7.4520   14.5030   21.9820 O   0  0  0  0  0  0
   -8.7460   12.4510   20.1520 C   0  0  0  0  0  0
   -9.8130   11.7750   19.3550 C   0  0  0  0  0  0
  -10.3150   10.7500   19.8440 O   0  0  0  0  0  0
  -10.1450   12.2650   18.2540 O   0  0  0  0  0  0
   -7.8050   12.8820   23.5120 N   0  0  0  0  0  0
   -6.6750   13.3040   24.3540 C   0  0  2  0  0  0
   -6.3400   12.2430   25.4310 C   0  0  0  0  0  0
   -5.5530   11.3220   25.2050 O   0  0  0  0  0  0
   -6.9630   14.6860   24.9790 C   0  0  0  0  0  0
   -8.2220   14.6910   25.8200 C   0  0  0  0  0  0
   -8.3460   13.8080   26.6950 O   0  0  0  0  0  0
   -9.0830   15.5760   25.6190 O   0  0  0  0  0  0
   -6.8480   12.2810   26.5530 O   0  0  0  0  0  0
  -13.2707   31.4823   18.6539 H   0  0  0  0  0  0
  -11.8569   32.5351   18.9998 H   0  0  0  0  0  0
  -12.6800   31.6675   20.3401 H   0  0  0  0  0  0
  -11.1917   30.4567   18.0246 H   0  0  0  0  0  0
   -9.5680   29.7011   19.8576 H   0  0  0  0  0  0
   -9.6367   31.4832   19.6427 H   0  0  0  0  0  0
   -9.3498   32.5099   21.4806 H   0  0  0  0  0  0
  -10.1864   31.9929   23.1124 H   0  0  0  0  0  0
  -13.9456   29.8713   18.6217 H   0  0  0  0  0  0
  -14.0735   27.6536   20.4952 H   0  0  0  0  0  0
  -16.0730   28.8650   19.6872 H   0  0  0  0  0  0
  -16.2497   27.0953   19.4351 H   0  0  0  0  0  0
  -15.8460   28.1641   18.0489 H   0  0  0  0  0  0
  -13.6308   27.7746   16.9238 H   0  0  0  0  0  0
  -13.7179   24.9196   16.5692 H   0  0  0  0  0  0
  -13.8382   26.6192   14.7139 H   0  0  0  0  0  0
  -12.0846   26.9487   14.9210 H   0  0  0  0  0  0
  -11.4671   24.8781   14.0767 H   0  0  0  0  0  0
  -13.1476   23.4633   15.3186 H   0  0  0  0  0  0
  -13.0070   22.9887   13.5919 H   0  0  0  0  0  0
  -14.4106   23.9645   14.1437 H   0  0  0  0  0  0
  -12.2170   26.4691   12.3703 H   0  0  0  0  0  0
  -13.8579   25.7393   12.4110 H   0  0  0  0  0  0
  -12.4543   24.7635   11.8592 H   0  0  0  0  0  0
  -10.8852   27.0823   17.1957 H   0  0  0  0  0  0
   -8.9264   24.9668   17.0679 H   0  0  0  0  0  0
   -8.5089   27.4859   17.3788 H   0  0  0  0  0  0
   -8.8684   27.2540   19.1234 H   0  0  0  0  0  0
   -6.9325   25.6554   19.2329 H   0  0  0  0  0  0
   -6.9142   25.0679   16.8524 H   0  0  0  0  0  0
   -5.3319   25.7220   17.3957 H   0  0  0  0  0  0
   -6.4520   26.7550   16.4442 H   0  0  0  0  0  0
   -6.7682   28.0267   19.8927 H   0  0  0  0  0  0
   -6.3649   28.4647   18.1980 H   0  0  0  0  0  0
   -5.2449   27.4318   19.1494 H   0  0  0  0  0  0
  -10.8726   26.1171   19.8192 H   0  0  0  0  0  0
   -9.6982   24.4462   21.8406 H   0  0  0  0  0  0
  -12.3267   25.8429   21.4358 H   0  0  0  0  0  0
  -12.4119   24.4620   22.5813 H   0  0  0  0  0  0
  -10.3036   26.5835   22.8926 H   0  0  0  0  0  0
  -11.9866   26.8467   23.4627 H   0  0  0  0  0  0
  -11.7901   24.6654   24.7495 H   0  0  0  0  0  0
  -10.0460   24.6495   24.3197 H   0  0  0  0  0  0
  -10.5373   27.2618   25.4801 H   0  0  0  0  0  0
  -10.7822   23.7272   26.4119 H   0  0  0  0  0  0
  -10.4430   24.1356   28.2417 H   0  0  0  0  0  0
  -10.1302   27.7120   27.6050 H   0  0  0  0  0  0
  -12.3683   23.8547   19.5790 H   0  0  0  0  0  0
  -13.0790   21.2580   20.6047 H   0  0  0  0  0  0
  -14.3463   22.5991   18.8539 H   0  0  0  0  0  0
  -13.1072   22.1126   17.6478 H   0  0  0  0  0  0
  -15.1419   20.3259   20.2663 H   0  0  0  0  0  0
  -13.9144   20.5404   16.1653 H   0  0  0  0  0  0
  -16.4620   18.3207   19.7835 H   0  0  0  0  0  0
  -15.2476   18.4906   15.6777 H   0  0  0  0  0  0
  -17.2526   16.6763   18.2391 H   0  0  0  0  0  0
  -10.6772   22.2394   18.0751 H   0  0  0  0  0  0
   -9.9451   19.5063   17.4358 H   0  0  0  0  0  0
   -8.4039   22.1564   17.1976 H   0  0  0  0  0  0
   -7.6920   20.6109   16.6220 H   0  0  0  0  0  0
  -10.2908   21.7523   15.6105 H   0  0  0  0  0  0
   -8.3471   23.2970   15.2306 H   0  0  0  0  0  0
   -8.9405   22.5738   13.6971 H   0  0  0  0  0  0
   -7.4450   21.9440   14.4675 H   0  0  0  0  0  0
  -10.0152   19.3439   15.2370 H   0  0  0  0  0  0
   -8.4175   19.6383   14.4705 H   0  0  0  0  0  0
   -9.9130   20.2681   13.7001 H   0  0  0  0  0  0
   -8.8572   21.6948   19.9814 H   0  0  0  0  0  0
   -6.6743   19.9068   20.7876 H   0  0  0  0  0  0
   -8.0583   22.3550   21.9432 H   0  0  0  0  0  0
   -7.1314   21.3487   23.1071 H   0  0  0  0  0  0
   -6.0164   22.7479   20.6867 H   0  0  0  0  0  0
   -6.8593   24.2033   22.5880 H   0  0  0  0  0  0
   -5.0660   24.2276   22.4879 H   0  0  0  0  0  0
   -5.8823   23.2277   23.7371 H   0  0  0  0  0  0
   -4.7320   20.7538   21.2169 H   0  0  0  0  0  0
   -4.6557   21.2372   22.9453 H   0  0  0  0  0  0
   -3.8394   22.2371   21.6961 H   0  0  0  0  0  0
  -10.0349   20.4458   21.9385 H   0  0  0  0  0  0
   -9.6886   18.6342   24.2151 H   0  0  0  0  0  0
  -12.2295   19.5777   22.7324 H   0  0  0  0  0  0
  -12.2816   18.6555   24.2730 H   0  0  0  0  0  0
  -10.3962   21.7701   25.6739 H   0  0  0  0  0  0
  -10.9534   18.2136   20.9067 H   0  0  0  0  0  0
  -12.1643   15.5960   21.4074 H   0  0  0  0  0  0
  -12.2158   15.3300   18.9592 H   0  0  0  0  0  0
  -12.6430   17.0173   19.4030 H   0  0  0  0  0  0
  -10.2446   17.6558   18.9035 H   0  0  0  0  0  0
  -10.0126   15.9982   18.2514 H   0  0  0  0  0  0
  -11.9018   18.1497   17.2756 H   0  0  0  0  0  0
  -10.4991   17.4204   16.4228 H   0  0  0  0  0  0
  -12.3172   15.2440   17.0818 H   0  0  0  0  0  0
  -12.1507   18.2969   15.0785 H   0  0  0  0  0  0
  -13.7315   14.4288   15.5855 H   0  0  0  0  0  0
  -14.2207   15.4722   14.0683 H   0  0  0  0  0  0
  -11.3560   13.6241   21.6726 H   0  0  0  0  0  0
   -9.6962   12.0727   22.0665 H   0  0  0  0  0  0
   -8.3913   13.3195   19.5775 H   0  0  0  0  0  0
   -7.9192   11.7381   20.2868 H   0  0  0  0  0  0
  -10.9287   11.7828   17.6513 H   0  0  0  0  0  0
   -8.4426   12.0430   23.8273 H   0  0  0  0  0  0
   -5.8159   13.3841   23.6718 H   0  0  0  0  0  0
   -5.3330   10.5818   25.9884 H   0  0  0  0  0  0
   -6.1226   14.9782   25.6258 H   0  0  0  0  0  0
   -7.0868   15.4314   24.1796 H   0  0  0  0  0  0
  -10.0036   15.5945   26.2208 H   0  0  0  0  0  0
  1  2  1  0  0  0
  1105  1  0  0  0
  1106  1  0  0  0
  1107  1  0  0  0
  2  3  1  0  0  0
  2  5  1  0  0  0
  2108  1  0  0  0
  3  4  2  0  0  0
  3  9  1  0  0  0
  5  6  1  0  0  0
  5109  1  0  0  0
  5110  1  0  0  0
  6  7  2  0  0  0
  6  8  1  0  0  0
  8111  1  0  0  0
  8112  1  0  0  0
  9 10  1  0  0  0
  9113  1  0  0  0
 10 11  1  0  0  0
 10 13  1  0  0  0
 10114  1  0  0  0
 11 12  2  0  0  0
 11 14  1  0  0  0
 13115  1  0  0  0
 13116  1  0  0  0
 13117  1  0  0  0
 14 15  1  0  0  0
 14118  1  0  0  0
 15 16  1  0  0  0
 15 18  1  0  0  0
 15119  1  0  0  0
 16 17  2  0  0  0
 16 22  1  0  0  0
 18 19  1  0  0  0
 18120  1  0  0  0
 18121  1  0  0  0
 19 20  1  0  0  0
 19 21  1  0  0  0
 19122  1  0  0  0
 20123  1  0  0  0
 20124  1  0  0  0
 20125  1  0  0  0
 21126  1  0  0  0
 21127  1  0  0  0
 21128  1  0  0  0
 22 23  1  0  0  0
 22129  1  0  0  0
 23 24  1  0  0  0
 23 26  1  0  0  0
 23130  1  0  0  0
 24 25  2  0  0  0
 24 30  1  0  0  0
 26 27  1  0  0  0
 26131  1  0  0  0
 26132  1  0  0  0
 27 28  1  0  0  0
 27 29  1  0  0  0
 27133  1  0  0  0
 28134  1  0  0  0
 28135  1  0  0  0
 28136  1  0  0  0
 29137  1  0  0  0
 29138  1  0  0  0
 29139  1  0  0  0
 30 31  1  0  0  0
 30140  1  0  0  0
 31 32  1  0  0  0
 31 34  1  0  0  0
 31141  1  0  0  0
 32 33  2  0  0  0
 32 41  1  0  0  0
 34 35  1  0  0  0
 34142  1  0  0  0
 34143  1  0  0  0
 35 36  1  0  0  0
 35144  1  0  0  0
 35145  1  0  0  0
 36 37  1  0  0  0
 36146  1  0  0  0
 36147  1  0  0  0
 37 38  1  0  0  0
 37148  1  0  0  0
 38 39  1  0  0  0
 38 40  2  0  0  0
 39149  1  0  0  0
 39150  1  0  0  0
 40151  1  0  0  0
 41 42  1  0  0  0
 41152  1  0  0  0
 42 43  1  0  0  0
 42 45  1  0  0  0
 42153  1  0  0  0
 43 44  2  0  0  0
 43 53  1  0  0  0
 45 46  1  0  0  0
 45154  1  0  0  0
 45155  1  0  0  0
 46 47  2  0  0  0
 46 48  1  0  0  0
 47 49  1  0  0  0
 47156  1  0  0  0
 48 50  2  0  0  0
 48157  1  0  0  0
 49 51  2  0  0  0
 49158  1  0  0  0
 50 51  1  0  0  0
 50159  1  0  0  0
 51 52  1  0  0  0
 52160  1  0  0  0
 53 54  1  0  0  0
 53161  1  0  0  0
 54 55  1  0  0  0
 54 57  1  0  0  0
 54162  1  0  0  0
 55 56  2  0  0  0
 55 61  1  0  0  0
 57 58  1  0  0  0
 57163  1  0  0  0
 57164  1  0  0  0
 58 59  1  0  0  0
 58 60  1  0  0  0
 58165  1  0  0  0
 59166  1  0  0  0
 59167  1  0  0  0
 59168  1  0  0  0
 60169  1  0  0  0
 60170  1  0  0  0
 60171  1  0  0  0
 61 62  1  0  0  0
 61172  1  0  0  0
 62 63  1  0  0  0
 62 65  1  0  0  0
 62173  1  0  0  0
 63 64  2  0  0  0
 63 69  1  0  0  0
 65 66  1  0  0  0
 65174  1  0  0  0
 65175  1  0  0  0
 66 67  1  0  0  0
 66 68  1  0  0  0
 66176  1  0  0  0
 67177  1  0  0  0
 67178  1  0  0  0
 67179  1  0  0  0
 68180  1  0  0  0
 68181  1  0  0  0
 68182  1  0  0  0
 69 70  1  0  0  0
 69183  1  0  0  0
 70 71  1  0  0  0
 70 73  1  0  0  0
 70184  1  0  0  0
 71 72  2  0  0  0
 71 77  1  0  0  0
 73 74  1  0  0  0
 73185  1  0  0  0
 73186  1  0  0  0
 74 75  2  0  0  0
 74 76  1  0  0  0
 76187  1  0  0  0
 77 78  1  0  0  0
 77188  1  0  0  0
 78 79  1  0  0  0
 78 81  1  0  0  0
 78189  1  0  0  0
 79 80  2  0  0  0
 79 88  1  0  0  0
 81 82  1  0  0  0
 81190  1  0  0  0
 81191  1  0  0  0
 82 83  1  0  0  0
 82192  1  0  0  0
 82193  1  0  0  0
 83 84  1  0  0  0
 83194  1  0  0  0
 83195  1  0  0  0
 84 85  1  0  0  0
 84196  1  0  0  0
 85 86  2  0  0  0
 85 87  1  0  0  0
 86197  1  0  0  0
 87198  1  0  0  0
 87199  1  0  0  0
 88 89  1  0  0  0
 88200  1  0  0  0
 89 90  1  0  0  0
 89 92  1  0  0  0
 89201  1  0  0  0
 90 91  2  0  0  0
 90 96  1  0  0  0
 92 93  1  0  0  0
 92202  1  0  0  0
 92203  1  0  0  0
 93 94  2  0  0  0
 93 95  1  0  0  0
 95204  1  0  0  0
 96 97  1  0  0  0
 96205  1  0  0  0
 97 98  1  0  0  0
 97100  1  0  0  0
 97206  1  0  0  0
 98 99  1  0  0  0
 98104  2  0  0  0
 99207  1  0  0  0
100101  1  0  0  0
100208  1  0  0  0
100209  1  0  0  0
101102  2  0  0  0
101103  1  0  0  0
103210  1  0  0  0
M  CHG  1   1   1
M  END
> <s_m_source_file>
../3l3z_ligand.sdf

> <i_m_source_file_index>
1

> <s_epik_input>
Tz1DKFtOSDJdKVtDSDJdW0NASF0oW05IMytdKUMoPU8pW05IXVtDQEBIXShbQ0gzXSlDKD1PKVtOSF1bQ0BASF0oW0NIMl1bQ0hdKFtDSDNdKVtDSDNdKUMoPU8pW05IXVtDQEBIXShbQ0gyXVtDSF0oW0NIM10pW0NIM10pQyg9TylbTkhdW0NAQEhdKFtDSDJdW0NIMl1bQ0gyXVtOSF0vQyhbTkgyXSk9TlxbSF0pQyg9TylbTkhdW0NAQEhdKFtDSDJdYzFbY0hdW2NIXWMoW09IXSlbY0hdW2NIXTEpQyg9TylbTkhdW0NAQEhdKFtDSDJdW0NIXShbQ0gzXSlbQ0gzXSlDKD1PKVtOSF1bQ0BASF0oW0NIMl1bQ0hdKFtDSDNdKVtDSDNdKUMoPU8pW05IXVtDQEBIXShbQ0gyXUMoPU8pW09IXSlDKD1PKVtOSF1bQ0BASF0oW0NIMl1bQ0gyXVtDSDJdW05IXS9DKD1OXFtIXSlbTkgyXSlDKD1PKVtOSF1bQ0BASF0oW0NIMl1DKD1PKVtPSF0pQyg9TylbTkhdW0NASF0oQyg9TylbT0hdKVtDSDJdQyg9TylbT0hd

> <s_epik_cmdline>
J2VwaWtfYXBwJywgJy1pbWFlJywgJ2xpZ2FuZF9wcm8ubWFlJywgJy1vbWFlJywgJ2xpZ2FuZF9wcmVwLm1hZScsICctbXMnLCAnMScsICctcGgnLCAnNycsICctcGh0JywgJzAuNScsICctbnQn

> <s_epik_pKa_notes>
Molecule size exceeds maximum supported for generating protonation states

> <s_epik_Chemistry_Notes>
This compound has an imine and may undergo hydrolysis.

$$$$
