3l4t_ligand
                    3D
 Schrodinger Suite 2020-3.
 42 42  0  0  1  0            999 V2000
   41.3810   87.1480   31.3680 O   0  0  0  0  0  0
   43.0890   94.7440   36.0540 O   0  0  0  0  0  0
   43.1620   86.1780   33.4480 O   0  0  0  0  0  0
   47.8800   94.2930   34.0510 O   0  0  0  0  0  0
   44.6570   89.8960   32.0640 O   0  0  0  0  0  0
   46.8690   94.2400   36.6970 O   0  0  0  0  0  0
   45.3230   88.5870   36.8070 O   0  0  0  0  0  0
   43.7000   86.8590   36.2730 O   0  5  0  0  0  0
   46.0650   86.5100   35.9230 O   0  0  0  0  0  0
   41.7900   87.9280   32.5020 C   0  0  0  0  0  0
   43.6770   93.6370   36.7340 C   0  0  0  0  0  0
   45.7890   93.2480   33.3150 C   0  0  0  0  0  0
   44.7500   90.6850   34.3820 C   0  0  0  0  0  0
   44.9900   87.9200   34.4750 O   0  0  0  0  0  0
   43.1860   87.5070   32.8860 C   0  0  1  0  0  0
   46.8090   93.4260   34.4430 C   0  0  2  0  0  0
   43.9810   89.8790   33.3560 C   0  0  2  0  0  0
   45.9910   94.0990   35.5800 C   0  0  1  0  0  0
   44.8760   93.0740   35.8940 C   0  0  2  0  0  0
   43.7650   88.4540   33.9260 C   0  0  2  0  0  0
   44.4190   92.4650   34.2410 S   0  0  1  0  0  0
   45.0170   87.4590   35.8830 S   0  0  0  0  0  0
   40.3851   87.3000   30.9263 H   0  0  0  0  0  0
   42.2296   95.2683   36.4973 H   0  0  0  0  0  0
   42.7762   85.3365   32.8538 H   0  0  0  0  0  0
   48.5724   93.9859   33.2533 H   0  0  0  0  0  0
   44.8635   90.8537   31.5639 H   0  0  0  0  0  0
   47.7215   94.9331   36.6425 H   0  0  0  0  0  0
   41.7770   88.9954   32.2367 H   0  0  0  0  0  0
   41.0982   87.7497   33.3385 H   0  0  0  0  0  0
   44.0440   93.9641   37.7180 H   0  0  0  0  0  0
   42.9237   92.8467   36.8678 H   0  0  0  0  0  0
   45.5362   94.2309   32.8908 H   0  0  0  0  0  0
   46.2188   92.6092   32.5294 H   0  0  0  0  0  0
   44.4614   90.3621   35.3932 H   0  0  0  0  0  0
   45.8290   90.5251   34.2401 H   0  0  0  0  0  0
   43.8108   87.4780   31.9811 H   0  0  0  0  0  0
   47.3332   92.4951   34.7048 H   0  0  0  0  0  0
   43.0167   90.3514   33.1175 H   0  0  0  0  0  0
   45.6123   95.1138   35.3884 H   0  0  0  0  0  0
   45.2508   92.3958   36.6747 H   0  0  0  0  0  0
   43.0720   88.4990   34.7790 H   0  0  0  0  0  0
  1 10  1  0  0  0
  1 23  1  0  0  0
  2 11  1  0  0  0
  2 24  1  0  0  0
  3 15  1  0  0  0
  3 25  1  0  0  0
  4 16  1  0  0  0
  4 26  1  0  0  0
  5 17  1  0  0  0
  5 27  1  0  0  0
  6 18  1  0  0  0
  6 28  1  0  0  0
  7 22  2  0  0  0
  8 22  1  0  0  0
  9 22  2  0  0  0
 10 15  1  0  0  0
 10 29  1  0  0  0
 10 30  1  0  0  0
 11 19  1  0  0  0
 11 31  1  0  0  0
 11 32  1  0  0  0
 12 16  1  0  0  0
 12 21  1  0  0  0
 12 33  1  0  0  0
 12 34  1  0  0  0
 13 17  1  0  0  0
 13 21  1  0  0  0
 13 35  1  0  0  0
 13 36  1  0  0  0
 14 20  1  0  0  0
 14 22  1  0  0  0
 15 20  1  0  0  0
 15 37  1  0  0  0
 16 18  1  0  0  0
 16 38  1  0  0  0
 17 20  1  0  0  0
 17 39  1  0  0  0
 18 19  1  0  0  0
 18 40  1  0  0  0
 19 21  1  0  0  0
 19 41  1  0  0  0
 20 42  1  0  0  0
M  CHG  1   8  -1
M  END
> <s_m_source_file>
../3l4t_ligand.sdf

> <i_m_source_file_index>
1

> <s_epik_input>
W09IXVtDSDJdW0NASF0oW09IXSlbQ0BASF0oT1MoPU8pKD1PKVtPSF0pW0NASF0oW09IXSlbQ0gyXVtTQEhdKFtDSDJdW0NASF0xW09IXSlbQ0BIXShbQ0gyXVtPSF0pW0NASF0xW09IXQ==

> <s_epik_cmdline>
J2VwaWtfYXBwJywgJy1pbWFlJywgJ2xpZ2FuZF9wcm8ubWFlJywgJy1vbWFlJywgJ2xpZ2FuZF9wcmVwLm1hZScsICctbXMnLCAnMScsICctcGgnLCAnNycsICctcGh0JywgJzAuNScsICctbnQn

> <r_lp_tautomer_probability>
1

> <r_epik_Ionization_Penalty>
  0.0000

> <r_epik_Ionization_Penalty_Charging>
  0.0000

> <r_epik_Ionization_Penalty_Neutral>
  0.0000

> <r_epik_State_Penalty>
 -0.0000

> <r_epik_Charging_Adjusted_Penalty>
1.06952398948778e-10

> <i_epik_Tot_Q>
-1

> <i_epik_Tot_abs_Q>
1

$$$$
