3l4v_ligand
                    3D
 Schrodinger Suite 2020-3.
 50 50  0  0  1  0            999 V2000
   41.2250   84.1420   30.7670 O   0  0  0  0  0  0
   42.3740   95.5410   36.1280 O   0  0  0  0  0  0
   43.6380   86.1190   30.1980 O   0  0  0  0  0  0
   47.0100   95.2460   33.9250 O   0  0  0  0  0  0
   44.0500   90.9670   31.9570 O   0  0  0  0  0  0
   44.4430   86.3190   32.7790 O   0  0  0  0  0  0
   45.9980   95.0850   36.6570 O   0  0  0  0  0  0
   41.6830   88.6680   32.1340 O   0  0  0  0  0  0
   44.5600   87.0970   35.6750 O   0  0  0  0  0  0
   44.5260   89.2810   36.5710 O   0  5  0  0  0  0
   42.5550   87.8370   36.8560 O   0  0  0  0  0  0
   42.3750   84.5210   31.5580 C   0  0  0  0  0  0
   42.9840   94.3280   36.6010 C   0  0  0  0  0  0
   45.0260   93.7360   33.3090 C   0  0  0  0  0  0
   43.8750   91.5530   34.3490 C   0  0  0  0  0  0
   42.9120   88.7710   34.6240 O   0  0  0  0  0  0
   42.6660   86.0020   31.2440 C   0  0  1  0  0  0
   46.0260   94.2700   34.3540 C   0  0  2  0  0  0
   43.4240   90.6320   33.1980 C   0  0  2  0  0  0
   43.1210   86.7560   32.4950 C   0  0  2  0  0  0
   45.2010   94.8470   35.4960 C   0  0  1  0  0  0
   43.0560   88.2840   32.3160 C   0  0  2  0  0  0
   44.1090   93.7960   35.7210 C   0  0  2  0  0  0
   43.6420   89.1290   33.4620 C   0  0  2  0  0  0
   43.6850   93.2260   34.1880 S   0  0  1  0  0  0
   43.6610   88.2370   35.9660 S   0  0  0  0  0  0
   40.8297   83.1173   30.8271 H   0  0  0  0  0  0
   41.5526   96.0015   36.6965 H   0  0  0  0  0  0
   43.4627   85.6322   29.2273 H   0  0  0  0  0  0
   47.7016   95.0055   33.1041 H   0  0  0  0  0  0
   44.0103   92.0005   31.5823 H   0  0  0  0  0  0
   44.6475   85.2492   32.9327 H   0  0  0  0  0  0
   46.8162   95.8194   36.6214 H   0  0  0  0  0  0
   41.0741   88.1815   31.3578 H   0  0  0  0  0  0
   42.1461   84.3866   32.6255 H   0  0  0  0  0  0
   43.2326   83.8888   31.2845 H   0  0  0  0  0  0
   43.4145   94.4989   37.5987 H   0  0  0  0  0  0
   42.2244   93.5346   36.6604 H   0  0  0  0  0  0
   44.7635   94.5417   32.6076 H   0  0  0  0  0  0
   45.4838   92.9028   32.7556 H   0  0  0  0  0  0
   43.3156   91.2999   35.2617 H   0  0  0  0  0  0
   44.9514   91.4152   34.5286 H   0  0  0  0  0  0
   41.7670   86.4848   30.8333 H   0  0  0  0  0  0
   46.7051   93.4472   34.6221 H   0  0  0  0  0  0
   42.3528   90.8363   33.0541 H   0  0  0  0  0  0
   42.5078   86.4984   33.3712 H   0  0  0  0  0  0
   44.8143   95.8613   35.3180 H   0  0  0  0  0  0
   43.6296   88.5215   31.4079 H   0  0  0  0  0  0
   44.4639   93.0092   36.4029 H   0  0  0  0  0  0
   44.7082   88.9205   33.6344 H   0  0  0  0  0  0
  1 12  1  0  0  0
  1 27  1  0  0  0
  2 13  1  0  0  0
  2 28  1  0  0  0
  3 17  1  0  0  0
  3 29  1  0  0  0
  4 18  1  0  0  0
  4 30  1  0  0  0
  5 19  1  0  0  0
  5 31  1  0  0  0
  6 20  1  0  0  0
  6 32  1  0  0  0
  7 21  1  0  0  0
  7 33  1  0  0  0
  8 22  1  0  0  0
  8 34  1  0  0  0
  9 26  2  0  0  0
 10 26  1  0  0  0
 11 26  2  0  0  0
 12 17  1  0  0  0
 12 35  1  0  0  0
 12 36  1  0  0  0
 13 23  1  0  0  0
 13 37  1  0  0  0
 13 38  1  0  0  0
 14 18  1  0  0  0
 14 25  1  0  0  0
 14 39  1  0  0  0
 14 40  1  0  0  0
 15 19  1  0  0  0
 15 25  1  0  0  0
 15 41  1  0  0  0
 15 42  1  0  0  0
 16 24  1  0  0  0
 16 26  1  0  0  0
 17 20  1  0  0  0
 17 43  1  0  0  0
 18 21  1  0  0  0
 18 44  1  0  0  0
 19 24  1  0  0  0
 19 45  1  0  0  0
 20 22  1  0  0  0
 20 46  1  0  0  0
 21 23  1  0  0  0
 21 47  1  0  0  0
 22 24  1  0  0  0
 22 48  1  0  0  0
 23 25  1  0  0  0
 23 49  1  0  0  0
 24 50  1  0  0  0
M  CHG  1  10  -1
M  END
> <s_m_source_file>
../3l4v_ligand.sdf

> <i_m_source_file_index>
1

> <s_epik_input>
W09IXVtDSDJdW0NASF0oW09IXSlbQ0BASF0oW09IXSlbQ0BASF0oW09IXSlbQ0BIXShPUyg9TykoPU8pW09IXSlbQ0BIXShbT0hdKVtDSDJdW1NASF0oW0NIMl1bQ0BIXTFbT0hdKVtDQEhdKFtDSDJdW09IXSlbQ0BIXTFbT0hd

> <s_epik_cmdline>
J2VwaWtfYXBwJywgJy1pbWFlJywgJ2xpZ2FuZF9wcm8ubWFlJywgJy1vbWFlJywgJ2xpZ2FuZF9wcmVwLm1hZScsICctbXMnLCAnMScsICctcGgnLCAnNycsICctcGh0JywgJzAuNScsICctbnQn

> <r_lp_tautomer_probability>
1

> <r_epik_Ionization_Penalty>
  0.0000

> <r_epik_Ionization_Penalty_Charging>
  0.0000

> <r_epik_Ionization_Penalty_Neutral>
  0.0000

> <r_epik_State_Penalty>
 -0.0000

> <r_epik_Charging_Adjusted_Penalty>
1.03515702312639e-10

> <i_epik_Tot_Q>
-1

> <i_epik_Tot_abs_Q>
1

$$$$
