3l4x_ligand
                    3D
 Schrodinger Suite 2020-3.
 50 50  0  0  1  0            999 V2000
    3.8520  -25.9490   20.8560 O   0  0  0  0  0  0
    3.7070  -14.0180   18.5140 O   0  0  0  0  0  0
    5.3250  -22.7480   21.4240 O   0  0  0  0  0  0
   -0.9850  -14.5900   20.7570 O   0  0  0  0  0  0
    2.2010  -18.7470   22.6660 O   0  0  0  0  0  0
    1.7340  -23.4440   21.9790 O   0  0  0  0  0  0
    0.0640  -14.6200   18.0800 O   0  0  0  0  0  0
    4.2710  -20.9270   22.7360 O   0  0  0  0  0  0
    1.5370  -20.4540   18.1660 O   0  0  0  0  0  0
    3.3830  -21.9840   17.7250 O   0  5  0  0  0  0
    1.5710  -22.5760   19.1850 O   0  0  0  0  0  0
    4.4240  -25.0100   21.8050 C   0  0  0  0  0  0
    3.2050  -15.2750   18.0170 C   0  0  0  0  0  0
    1.1560  -15.7830   21.4640 C   0  0  0  0  0  0
    2.2670  -18.2260   20.2920 C   0  0  0  0  0  0
    3.1310  -20.9840   19.9040 O   0  0  0  0  0  0
    4.1110  -23.5460   21.4060 C   0  0  1  0  0  0
    0.1450  -15.4450   20.3480 C   0  0  2  0  0  0
    2.7790  -19.1290   21.4140 C   0  0  2  0  0  0
    3.0270  -22.9430   22.3280 C   0  0  1  0  0  0
    0.9430  -14.7780   19.2030 C   0  0  1  0  0  0
    2.9740  -21.4090   22.3840 C   0  0  2  0  0  0
    2.0400  -15.8190   18.8590 C   0  0  2  0  0  0
    2.4720  -20.6200   21.1350 C   0  0  2  0  0  0
    2.5670  -16.4600   20.4860 S   0  0  1  0  0  0
    2.4010  -21.5030   18.7600 S   0  0  0  0  0  0
    3.9881  -27.0307   21.0025 H   0  0  0  0  0  0
    4.5426  -13.5184   18.0020 H   0  0  0  0  0  0
    6.1906  -23.0497   20.8160 H   0  0  0  0  0  0
   -1.6579  -14.9165   21.5636 H   0  0  0  0  0  0
    2.3161  -17.7166   23.0333 H   0  0  0  0  0  0
    1.5702  -24.5280   21.8886 H   0  0  0  0  0  0
   -0.7812  -13.9183   18.1375 H   0  0  0  0  0  0
    4.8028  -21.3578   23.5972 H   0  0  0  0  0  0
    4.0048  -25.1977   22.8045 H   0  0  0  0  0  0
    5.5160  -25.1387   21.8354 H   0  0  0  0  0  0
    2.8448  -15.1441   16.9859 H   0  0  0  0  0  0
    4.0111  -16.0233   18.0315 H   0  0  0  0  0  0
    1.4097  -14.8675   22.0185 H   0  0  0  0  0  0
    0.7109  -16.5168   22.1520 H   0  0  0  0  0  0
    2.7467  -18.5112   19.3441 H   0  0  0  0  0  0
    1.1767  -18.3384   20.1995 H   0  0  0  0  0  0
    3.7658  -23.4969   20.3627 H   0  0  0  0  0  0
   -0.3822  -16.3643   20.0530 H   0  0  0  0  0  0
    3.8612  -18.9694   21.5294 H   0  0  0  0  0  0
    3.2461  -23.3026   23.3442 H   0  0  0  0  0  0
    1.3214  -13.7667   19.4131 H   0  0  0  0  0  0
    2.2578  -21.1869   23.1888 H   0  0  0  0  0  0
    1.6277  -16.4732   18.0766 H   0  0  0  0  0  0
    1.4203  -20.8622   20.9222 H   0  0  0  0  0  0
  1 12  1  0  0  0
  1 27  1  0  0  0
  2 13  1  0  0  0
  2 28  1  0  0  0
  3 17  1  0  0  0
  3 29  1  0  0  0
  4 18  1  0  0  0
  4 30  1  0  0  0
  5 19  1  0  0  0
  5 31  1  0  0  0
  6 20  1  0  0  0
  6 32  1  0  0  0
  7 21  1  0  0  0
  7 33  1  0  0  0
  8 22  1  0  0  0
  8 34  1  0  0  0
  9 26  2  0  0  0
 10 26  1  0  0  0
 11 26  2  0  0  0
 12 17  1  0  0  0
 12 35  1  0  0  0
 12 36  1  0  0  0
 13 23  1  0  0  0
 13 37  1  0  0  0
 13 38  1  0  0  0
 14 18  1  0  0  0
 14 25  1  0  0  0
 14 39  1  0  0  0
 14 40  1  0  0  0
 15 19  1  0  0  0
 15 25  1  0  0  0
 15 41  1  0  0  0
 15 42  1  0  0  0
 16 24  1  0  0  0
 16 26  1  0  0  0
 17 20  1  0  0  0
 17 43  1  0  0  0
 18 21  1  0  0  0
 18 44  1  0  0  0
 19 24  1  0  0  0
 19 45  1  0  0  0
 20 22  1  0  0  0
 20 46  1  0  0  0
 21 23  1  0  0  0
 21 47  1  0  0  0
 22 24  1  0  0  0
 22 48  1  0  0  0
 23 25  1  0  0  0
 23 49  1  0  0  0
 24 50  1  0  0  0
M  CHG  1  10  -1
M  END
> <s_m_source_file>
../3l4x_ligand.sdf

> <i_m_source_file_index>
1

> <s_epik_input>
W09IXVtDSDJdW0NASF0oW09IXSlbQ0BIXShbT0hdKVtDQEBIXShbT0hdKVtDQEhdKE9TKD1PKSg9TylbT0hdKVtDQEhdKFtPSF0pW0NIMl1bU0BIXShbQ0gyXVtDQEhdMVtPSF0pW0NASF0oW0NIMl1bT0hdKVtDQEhdMVtPSF0=

> <s_epik_cmdline>
J2VwaWtfYXBwJywgJy1pbWFlJywgJ2xpZ2FuZF9wcm8ubWFlJywgJy1vbWFlJywgJ2xpZ2FuZF9wcmVwLm1hZScsICctbXMnLCAnMScsICctcGgnLCAnNycsICctcGh0JywgJzAuNScsICctbnQn

> <r_lp_tautomer_probability>
1

> <r_epik_Ionization_Penalty>
  0.0000

> <r_epik_Ionization_Penalty_Charging>
  0.0000

> <r_epik_Ionization_Penalty_Neutral>
  0.0000

> <r_epik_State_Penalty>
 -0.0000

> <r_epik_Charging_Adjusted_Penalty>
1.03515702312639e-10

> <i_epik_Tot_Q>
-1

> <i_epik_Tot_abs_Q>
1

$$$$
