3l4y_ligand
                    3D
 Schrodinger Suite 2020-3.
 50 50  0  0  1  0            999 V2000
   -0.5440  -24.4780  -22.7250 O   0  0  0  0  0  0
   -3.7160  -13.9230  -18.7190 O   0  0  0  0  0  0
   -3.3850  -23.5690  -24.1010 O   0  0  0  0  0  0
    1.0140  -14.4210  -20.8550 O   0  0  0  0  0  0
   -2.2240  -18.5740  -22.8000 O   0  0  0  0  0  0
   -2.8910  -23.2990  -21.6740 O   0  0  0  0  0  0
   -0.1040  -14.4500  -18.2140 O   0  0  0  0  0  0
   -4.0970  -21.0070  -22.7340 O   0  0  0  0  0  0
   -1.3470  -22.4200  -19.4000 O   0  5  0  0  0  0
   -1.4850  -20.2880  -18.3250 O   0  0  0  0  0  0
   -3.1860  -21.9130  -17.9840 O   0  0  0  0  0  0
   -0.9410  -24.0090  -24.0470 C   0  0  0  0  0  0
   -3.1480  -15.0910  -18.1410 C   0  0  0  0  0  0
   -1.1540  -15.4750  -21.6280 C   0  0  0  0  0  0
   -2.0830  -18.0630  -20.4600 C   0  0  0  0  0  0
   -3.0880  -20.8320  -20.0970 O   0  0  0  0  0  0
   -2.0830  -23.0050  -23.8940 C   0  0  2  0  0  0
   -0.1310  -15.2670  -20.5010 C   0  0  2  0  0  0
   -2.7330  -18.9150  -21.5230 C   0  0  2  0  0  0
   -2.1040  -22.4550  -22.4940 C   0  0  1  0  0  0
   -0.9450  -14.6170  -19.3670 C   0  0  1  0  0  0
   -2.6910  -21.0720  -22.5240 C   0  0  2  0  0  0
   -2.0270  -15.6800  -19.0430 C   0  0  2  0  0  0
   -2.3530  -20.3510  -21.2490 C   0  0  2  0  0  0
   -2.5150  -16.3410  -20.6720 S   0  0  1  0  0  0
   -2.2730  -21.3450  -18.9670 S   0  0  0  0  0  0
    0.2694  -25.2115  -22.6230 H   0  0  0  0  0  0
   -4.5246  -13.3891  -18.1983 H   0  0  0  0  0  0
   -3.6324  -24.0434  -25.0621 H   0  0  0  0  0  0
    1.7052  -14.7358  -21.6507 H   0  0  0  0  0  0
   -2.3862  -17.5642  -23.2050 H   0  0  0  0  0  0
   -2.6071  -24.3528  -21.5367 H   0  0  0  0  0  0
    0.7309  -13.7343  -18.2412 H   0  0  0  0  0  0
   -4.5430  -21.4801  -23.6213 H   0  0  0  0  0  0
   -0.0835  -23.5248  -24.5371 H   0  0  0  0  0  0
   -1.2758  -24.8632  -24.6539 H   0  0  0  0  0  0
   -2.7140  -14.8415  -17.1615 H   0  0  0  0  0  0
   -3.9300  -15.8537  -18.0119 H   0  0  0  0  0  0
   -1.4482  -14.4988  -22.0409 H   0  0  0  0  0  0
   -0.7045  -16.0888  -22.4225 H   0  0  0  0  0  0
   -2.4222  -18.3934  -19.4671 H   0  0  0  0  0  0
   -0.9897  -18.1645  -20.5265 H   0  0  0  0  0  0
   -1.9472  -22.2414  -24.6741 H   0  0  0  0  0  0
    0.3755  -16.2098  -20.2470 H   0  0  0  0  0  0
   -3.8187  -18.7436  -21.5653 H   0  0  0  0  0  0
   -1.1012  -22.4468  -22.0419 H   0  0  0  0  0  0
   -1.3193  -13.6072  -19.5910 H   0  0  0  0  0  0
   -2.2952  -20.5807  -23.4251 H   0  0  0  0  0  0
   -1.6500  -16.3889  -18.2911 H   0  0  0  0  0  0
   -1.3045  -20.5199  -20.9625 H   0  0  0  0  0  0
  1 12  1  0  0  0
  1 27  1  0  0  0
  2 13  1  0  0  0
  2 28  1  0  0  0
  3 17  1  0  0  0
  3 29  1  0  0  0
  4 18  1  0  0  0
  4 30  1  0  0  0
  5 19  1  0  0  0
  5 31  1  0  0  0
  6 20  1  0  0  0
  6 32  1  0  0  0
  7 21  1  0  0  0
  7 33  1  0  0  0
  8 22  1  0  0  0
  8 34  1  0  0  0
  9 26  1  0  0  0
 10 26  2  0  0  0
 11 26  2  0  0  0
 12 17  1  0  0  0
 12 35  1  0  0  0
 12 36  1  0  0  0
 13 23  1  0  0  0
 13 37  1  0  0  0
 13 38  1  0  0  0
 14 18  1  0  0  0
 14 25  1  0  0  0
 14 39  1  0  0  0
 14 40  1  0  0  0
 15 19  1  0  0  0
 15 25  1  0  0  0
 15 41  1  0  0  0
 15 42  1  0  0  0
 16 24  1  0  0  0
 16 26  1  0  0  0
 17 20  1  0  0  0
 17 43  1  0  0  0
 18 21  1  0  0  0
 18 44  1  0  0  0
 19 24  1  0  0  0
 19 45  1  0  0  0
 20 22  1  0  0  0
 20 46  1  0  0  0
 21 23  1  0  0  0
 21 47  1  0  0  0
 22 24  1  0  0  0
 22 48  1  0  0  0
 23 25  1  0  0  0
 23 49  1  0  0  0
 24 50  1  0  0  0
M  CHG  1   9  -1
M  END
> <s_m_source_file>
../3l4y_ligand.sdf

> <i_m_source_file_index>
1

> <s_epik_input>
W09IXVtDSDJdW0NAQEhdKFtPSF0pW0NASF0oW09IXSlbQ0BASF0oW09IXSlbQ0BIXShPUyg9TykoPU8pW09IXSlbQ0BIXShbT0hdKVtDSDJdW1NASF0oW0NIMl1bQ0BIXTFbT0hdKVtDQEhdKFtDSDJdW09IXSlbQ0BIXTFbT0hd

> <s_epik_cmdline>
J2VwaWtfYXBwJywgJy1pbWFlJywgJ2xpZ2FuZF9wcm8ubWFlJywgJy1vbWFlJywgJ2xpZ2FuZF9wcmVwLm1hZScsICctbXMnLCAnMScsICctcGgnLCAnNycsICctcGh0JywgJzAuNScsICctbnQn

> <r_lp_tautomer_probability>
1

> <r_epik_Ionization_Penalty>
  0.0000

> <r_epik_Ionization_Penalty_Charging>
  0.0000

> <r_epik_Ionization_Penalty_Neutral>
  0.0000

> <r_epik_State_Penalty>
 -0.0000

> <r_epik_Charging_Adjusted_Penalty>
1.03515702312639e-10

> <i_epik_Tot_Q>
-1

> <i_epik_Tot_abs_Q>
1

$$$$
