3l4z_ligand
                    3D
 Schrodinger Suite 2020-3.
 38 38  0  0  1  0            999 V2000
   45.5930   94.3270   35.6510 C   0  0  1  0  0  0
   46.4390   93.6620   34.5700 C   0  0  1  0  0  0
   45.4420   93.4090   33.4200 C   0  0  0  0  0  0
   44.4620   93.3080   35.9670 C   0  0  2  0  0  0
   43.9910   92.7450   34.3170 S   0  0  2  0  0  0
   47.4560   94.6280   34.1970 O   0  0  0  0  0  0
   46.4190   94.5190   36.7990 O   0  0  0  0  0  0
   43.3230   93.9460   36.7850 C   0  0  0  0  0  0
   42.8480   95.1280   36.1600 O   0  0  0  0  0  0
   44.3280   90.9610   34.4780 C   0  0  0  0  0  0
   43.7480   90.0630   33.3930 C   0  0  2  0  0  0
   44.0570   88.5990   33.7370 C   0  0  2  0  0  0
   43.5760   87.6740   32.6200 C   0  0  0  0  0  0
   42.2760   88.1380   32.2820 O   0  0  0  0  0  0
   44.3130   90.3770   32.1290 O   0  0  0  0  0  0
   43.3690   88.2440   34.9500 O   0  0  0  0  0  0
   44.0760   87.6120   36.0520 S   0  0  0  0  0  0
   45.0180   88.5450   36.7410 O   0  0  0  0  0  0
   43.0620   87.1850   37.0990 O   0  5  0  0  0  0
   44.8470   86.4340   35.5370 O   0  0  0  0  0  0
   45.2285   95.3323   35.3929 H   0  0  0  0  0  0
   46.9843   92.7523   34.8618 H   0  0  0  0  0  0
   45.2325   94.3562   32.9013 H   0  0  0  0  0  0
   45.8764   92.6902   32.7096 H   0  0  0  0  0  0
   44.7801   92.5816   36.7293 H   0  0  0  0  0  0
   48.2379   94.9094   34.9177 H   0  0  0  0  0  0
   47.2727   95.2111   36.7528 H   0  0  0  0  0  0
   42.4896   93.2333   36.8709 H   0  0  0  0  0  0
   43.6916   94.2019   37.7893 H   0  0  0  0  0  0
   42.0319   95.7039   36.6208 H   0  0  0  0  0  0
   45.4146   90.7903   34.4625 H   0  0  0  0  0  0
   43.9127   90.5936   35.4280 H   0  0  0  0  0  0
   42.6709   90.2497   33.2708 H   0  0  0  0  0  0
   45.1337   88.4650   33.9177 H   0  0  0  0  0  0
   44.2641   87.7435   31.7646 H   0  0  0  0  0  0
   43.5513   86.6375   32.9874 H   0  0  0  0  0  0
   41.7006   87.6344   31.4912 H   0  0  0  0  0  0
   44.1961   91.3873   31.7100 H   0  0  0  0  0  0
  1  2  1  0  0  0
  1  4  1  0  0  0
  1  7  1  0  0  0
  1 21  1  0  0  0
  2  3  1  0  0  0
  2  6  1  0  0  0
  2 22  1  0  0  0
  3  5  1  0  0  0
  3 23  1  0  0  0
  3 24  1  0  0  0
  4  5  1  0  0  0
  4  8  1  0  0  0
  4 25  1  0  0  0
  5 10  1  0  0  0
  6 26  1  0  0  0
  7 27  1  0  0  0
  8  9  1  0  0  0
  8 28  1  0  0  0
  8 29  1  0  0  0
  9 30  1  0  0  0
 10 11  1  0  0  0
 10 31  1  0  0  0
 10 32  1  0  0  0
 11 12  1  0  0  0
 11 15  1  0  0  0
 11 33  1  0  0  0
 12 13  1  0  0  0
 12 16  1  0  0  0
 12 34  1  0  0  0
 13 14  1  0  0  0
 13 35  1  0  0  0
 13 36  1  0  0  0
 14 37  1  0  0  0
 15 38  1  0  0  0
 16 17  1  0  0  0
 17 18  2  0  0  0
 17 19  1  0  0  0
 17 20  2  0  0  0
M  CHG  1  19  -1
M  END
> <s_m_source_file>
../3l4z_ligand.sdf

> <i_m_source_file_index>
1

> <s_epik_input>
W09IXVtDQEhdMVtDQEhdKFtPSF0pW0NIMl1bU0BIXShbQ0BASF0xW0NIMl1bT0hdKVtDSDJdW0NAQEhdKFtPSF0pW0NASF0oW0NIMl1bT0hdKU9TKD1PKSg9TylbT0hd

> <s_epik_cmdline>
J2VwaWtfYXBwJywgJy1pbWFlJywgJ2xpZ2FuZF9wcm8ubWFlJywgJy1vbWFlJywgJ2xpZ2FuZF9wcmVwLm1hZScsICctbXMnLCAnMScsICctcGgnLCAnNycsICctcGh0JywgJzAuNScsICctbnQn

> <r_lp_tautomer_probability>
1

> <r_epik_Ionization_Penalty>
  0.0000

> <r_epik_Ionization_Penalty_Charging>
  0.0000

> <r_epik_Ionization_Penalty_Neutral>
  0.0000

> <r_epik_State_Penalty>
 -0.0000

> <r_epik_Charging_Adjusted_Penalty>
1.15203601962208e-10

> <i_epik_Tot_Q>
-1

> <i_epik_Tot_abs_Q>
1

$$$$
