3l59_ligand
                    3D
 Schrodinger Suite 2020-3.
 32 33  0  0  1  0            999 V2000
   21.8790   10.2430   24.6060 C   0  0  0  0  0  0
   21.8050   10.8280   25.8180 N   0  3  0  0  0  0
   19.4080   12.4070   23.7710 O   0  0  0  0  0  0
   20.2960   11.7210   24.2840 C   0  0  0  0  0  0
   21.0120   10.7430   23.7050 N   0  0  0  0  0  0
   20.7700   11.8420   25.7270 C   0  0  0  0  0  0
   22.7220    9.2610   24.3100 N   0  0  0  0  0  0
   19.5620   11.4830   26.6010 C   0  0  0  0  0  0
   21.3460   13.2660   25.9330 C   0  0  0  0  0  0
   20.8800   10.3020   22.3180 C   0  0  0  0  0  0
   21.8480   11.0640   21.4370 C   0  0  0  0  0  0
   21.5880   12.4270   21.1030 C   0  0  0  0  0  0
   22.4990   13.1500   20.2760 C   0  0  0  0  0  0
   23.6710   12.5130   19.7850 C   0  0  0  0  0  0
   23.9350   11.1570   20.1150 C   0  0  0  0  0  0
   23.0270   10.4300   20.9410 C   0  0  0  0  0  0
   25.3620   10.3970   19.5100 Cl  0  0  0  0  0  0
   22.4679   10.4957   26.6305 H   0  0  0  0  0  0
   23.4145    8.8811   25.0756 H   0  0  0  0  0  0
   19.2372   10.4569   26.3739 H   0  0  0  0  0  0
   18.7387   12.1825   26.3938 H   0  0  0  0  0  0
   19.8437   11.5521   27.6621 H   0  0  0  0  0  0
   22.2034   13.4155   25.2603 H   0  0  0  0  0  0
   21.6742   13.3813   26.9766 H   0  0  0  0  0  0
   20.5692   14.0117   25.7083 H   0  0  0  0  0  0
   21.1013    9.2265   22.2526 H   0  0  0  0  0  0
   19.8527   10.4867   21.9707 H   0  0  0  0  0  0
   20.6908   12.9173   21.4808 H   0  0  0  0  0  0
   22.2962   14.1902   20.0210 H   0  0  0  0  0  0
   24.3677   13.0656   19.1547 H   0  0  0  0  0  0
   23.2335    9.3900   21.1935 H   0  0  0  0  0  0
   22.7280    8.8273   23.2991 H   0  0  0  0  0  0
  1  2  2  0  0  0
  1  5  1  0  0  0
  1  7  1  0  0  0
  2  6  1  0  0  0
  2 18  1  0  0  0
  3  4  2  0  0  0
  4  5  1  0  0  0
  4  6  1  0  0  0
  5 10  1  0  0  0
  6  8  1  0  0  0
  6  9  1  0  0  0
  7 19  1  0  0  0
  7 32  1  0  0  0
  8 20  1  0  0  0
  8 21  1  0  0  0
  8 22  1  0  0  0
  9 23  1  0  0  0
  9 24  1  0  0  0
  9 25  1  0  0  0
 10 11  1  0  0  0
 10 26  1  0  0  0
 10 27  1  0  0  0
 11 12  2  0  0  0
 11 16  1  0  0  0
 12 13  1  0  0  0
 12 28  1  0  0  0
 13 14  2  0  0  0
 13 29  1  0  0  0
 14 15  1  0  0  0
 14 30  1  0  0  0
 15 16  2  0  0  0
 15 17  1  0  0  0
 16 31  1  0  0  0
M  CHG  1   2   1
M  END
> <s_m_source_file>
../3l59_ligand.sdf

> <i_m_source_file_index>
1

> <s_epik_input>
W0NIM11DMShbQ0gzXSlbTkhdL0MoPU4vW0hdKU4oQzE9TylbQ0gyXWMyW2NIXVtjSF1bY0hdYyhDbClbY0hdMg==

> <s_epik_cmdline>
J2VwaWtfYXBwJywgJy1pbWFlJywgJ2xpZ2FuZF9wcm8ubWFlJywgJy1vbWFlJywgJ2xpZ2FuZF9wcmVwLm1hZScsICctbXMnLCAnMScsICctcGgnLCAnNycsICctcGh0JywgJzAuNScsICctbnQn

> <r_lp_tautomer_probability>
1

> <r_epik_Ionization_Penalty>
  0.1355

> <r_epik_Ionization_Penalty_Charging>
  0.1355

> <r_epik_Ionization_Penalty_Neutral>
  0.0000

> <r_epik_State_Penalty>
 -0.0000

> <r_epik_Charging_Adjusted_Penalty>
0.135518941639248

> <i_epik_Tot_Q>
1

> <i_epik_Tot_abs_Q>
1

> <s_epik_Chemistry_Notes>
This compound has an imine and may undergo hydrolysis.

$$$$
