3l5b_ligand
                    3D
 Schrodinger Suite 2020-3.
 41 42  0  0  1  0            999 V2000
   22.1650    9.8130   23.6830 C   0  0  0  0  0  0
   21.7480    9.3120   22.4990 N   0  3  0  0  0  0
   21.3280   12.8060   22.3370 O   0  0  0  0  0  0
   21.5340   11.6290   22.6320 C   0  0  0  0  0  0
   22.0270   11.1490   23.7890 N   0  0  0  0  0  0
   21.2560   10.4370   21.7180 C   0  0  1  0  0  0
   22.6600    9.0730   24.6710 N   0  0  0  0  0  0
   22.0220   10.5800   20.3970 C   0  0  0  0  0  0
   19.7270   10.3550   21.5390 C   0  0  0  0  0  0
   22.3240   11.9460   24.9790 C   0  0  0  0  0  0
   21.0540   12.3310   25.7030 C   0  0  0  0  0  0
   20.6480   11.6140   26.8670 C   0  0  0  0  0  0
   19.4310   11.9570   27.5250 C   0  0  0  0  0  0
   18.6220   13.0210   27.0240 C   0  0  0  0  0  0
   19.0330   13.7440   25.8650 C   0  0  0  0  0  0
   20.2500   13.4000   25.2080 C   0  0  0  0  0  0
   24.3280    9.7900   21.0460 C   0  0  0  0  0  0
   24.0490   11.6300   19.3430 C   0  0  0  0  0  0
   23.4890   10.9730   20.5950 C   0  0  0  0  0  0
   18.0530   15.0370   25.2450 Cl  0  0  0  0  0  0
   21.8263    8.2330   22.3002 H   0  0  0  0  0  0
   22.7575    7.9843   24.5471 H   0  0  0  0  0  0
   22.0029    9.6221   19.8566 H   0  0  0  0  0  0
   21.5481   11.3582   19.7807 H   0  0  0  0  0  0
   19.2474   10.2541   22.5238 H   0  0  0  0  0  0
   19.4768    9.4821   20.9181 H   0  0  0  0  0  0
   19.3658   11.2703   21.0473 H   0  0  0  0  0  0
   22.9570   11.3617   25.6630 H   0  0  0  0  0  0
   22.8536   12.8635   24.6830 H   0  0  0  0  0  0
   21.2676   10.8046   27.2530 H   0  0  0  0  0  0
   19.1177   11.4061   28.4118 H   0  0  0  0  0  0
   17.6905   13.2809   27.5269 H   0  0  0  0  0  0
   20.5671   13.9551   24.3252 H   0  0  0  0  0  0
   23.8845    9.3499   21.9514 H   0  0  0  0  0  0
   25.3511   10.1288   21.2663 H   0  0  0  0  0  0
   24.3560    9.0345   20.2470 H   0  0  0  0  0  0
   23.4096   12.4781   19.0567 H   0  0  0  0  0  0
   24.0737   10.8964   18.5237 H   0  0  0  0  0  0
   25.0687   11.9907   19.5430 H   0  0  0  0  0  0
   23.5440   11.7168   21.4035 H   0  0  0  0  0  0
   22.9720    9.5496   25.6120 H   0  0  0  0  0  0
  1  2  2  0  0  0
  1  5  1  0  0  0
  1  7  1  0  0  0
  2  6  1  0  0  0
  2 21  1  0  0  0
  3  4  2  0  0  0
  4  5  1  0  0  0
  4  6  1  0  0  0
  5 10  1  0  0  0
  6  8  1  0  0  0
  6  9  1  0  0  0
  7 22  1  0  0  0
  7 41  1  0  0  0
  8 19  1  0  0  0
  8 23  1  0  0  0
  8 24  1  0  0  0
  9 25  1  0  0  0
  9 26  1  0  0  0
  9 27  1  0  0  0
 10 11  1  0  0  0
 10 28  1  0  0  0
 10 29  1  0  0  0
 11 12  2  0  0  0
 11 16  1  0  0  0
 12 13  1  0  0  0
 12 30  1  0  0  0
 13 14  2  0  0  0
 13 31  1  0  0  0
 14 15  1  0  0  0
 14 32  1  0  0  0
 15 16  2  0  0  0
 15 20  1  0  0  0
 16 33  1  0  0  0
 17 19  1  0  0  0
 17 34  1  0  0  0
 17 35  1  0  0  0
 17 36  1  0  0  0
 18 19  1  0  0  0
 18 37  1  0  0  0
 18 38  1  0  0  0
 18 39  1  0  0  0
 19 40  1  0  0  0
M  CHG  1   2   1
M  END
> <s_m_source_file>
../3l5b_ligand.sdf

> <i_m_source_file_index>
1

> <s_epik_input>
W0NIM11bQ0hdKFtDSDNdKVtDSDJdW0NAQF0xKFtDSDNdKVtOSF0vQyg9Ti9bSF0pTihDMT1PKVtDSDJdYzJbY0hdW2NIXVtjSF1jKENsKVtjSF0y

> <s_epik_cmdline>
J2VwaWtfYXBwJywgJy1pbWFlJywgJ2xpZ2FuZF9wcm8ubWFlJywgJy1vbWFlJywgJ2xpZ2FuZF9wcmVwLm1hZScsICctbXMnLCAnMScsICctcGgnLCAnNycsICctcGh0JywgJzAuNScsICctbnQn

> <r_lp_tautomer_probability>
1

> <r_epik_Ionization_Penalty>
  0.1064

> <r_epik_Ionization_Penalty_Charging>
  0.1064

> <r_epik_Ionization_Penalty_Neutral>
  0.0000

> <r_epik_State_Penalty>
  0.1355

> <r_epik_Charging_Adjusted_Penalty>
0.241874727447495

> <i_epik_Tot_Q>
1

> <i_epik_Tot_abs_Q>
1

> <s_epik_Chemistry_Notes>
This compound has an imine and may undergo hydrolysis.

$$$$
