3l5c_ligand
                    3D
 Schrodinger Suite 2020-3.
 61 63  0  0  1  0            999 V2000
   21.4880   12.3400   25.1460 C   0  0  2  0  0  0
   22.0970   11.0640   25.4920 N   0  3  0  0  0  0
   20.3700   12.9330   23.0460 O   0  0  0  0  0  0
   21.9300   10.2520   24.4270 C   0  0  0  0  0  0
   21.2800   10.8310   23.3920 N   0  0  0  0  0  0
   25.6990   13.9260   19.7700 O   0  0  0  0  0  0
   20.9650   12.0970   23.7300 C   0  0  0  0  0  0
   22.3640    8.9960   24.3830 N   0  0  0  0  0  0
   22.5400   13.4600   25.0550 C   0  0  0  0  0  0
   25.1190   13.0410   17.7630 N   0  0  0  0  0  0
   20.3320   12.6590   26.0830 C   0  0  0  0  0  0
   25.1980   15.2910   18.0210 N   0  0  0  0  0  0
   19.5980   11.3920   26.5250 C   0  0  0  0  0  0
   26.2010   21.0630   21.4960 N   0  0  0  0  0  0
   18.1060   11.4860   26.2150 C   0  0  0  0  0  0
   19.8800   11.0750   27.9920 C   0  0  0  0  0  0
   21.0240   10.2150   22.0890 C   0  0  0  0  0  0
   22.1110   10.5900   21.1060 C   0  0  0  0  0  0
   23.2850    9.7880   20.9970 C   0  0  0  0  0  0
   24.3090   10.1470   20.0740 C   0  0  0  0  0  0
   24.1650   11.3040   19.2570 C   0  0  0  0  0  0
   22.9890   12.1050   19.3680 C   0  0  0  0  0  0
   21.9650   11.7480   20.2920 C   0  0  0  0  0  0
   25.2630   11.6770   18.2750 C   0  0  0  0  0  0
   25.4000   16.4440   18.7150 C   0  0  0  0  0  0
   24.5830   16.7550   19.8420 C   0  0  0  0  0  0
   26.4300   17.3470   18.3120 C   0  0  0  0  0  0
   24.7930   17.9630   20.5690 C   0  0  0  0  0  0
   26.6410   18.5570   19.0410 C   0  0  0  0  0  0
   25.3610   14.0780   18.5930 C   0  0  0  0  0  0
   25.8230   18.8650   20.1680 C   0  0  0  0  0  0
   26.0340   20.0820   20.9010 C   0  0  0  0  0  0
   22.6167   10.6953   26.3886 H   0  0  0  0  0  0
   22.8885    8.5647   25.2484 H   0  0  0  0  0  0
   23.3392   13.1569   24.3626 H   0  0  0  0  0  0
   22.9681   13.6428   26.0517 H   0  0  0  0  0  0
   22.0644   14.3806   24.6857 H   0  0  0  0  0  0
   24.8182   13.2074   16.7181 H   0  0  0  0  0  0
   20.7163   13.1677   26.9794 H   0  0  0  0  0  0
   19.6136   13.3145   25.5691 H   0  0  0  0  0  0
   24.8935   15.3310   16.9648 H   0  0  0  0  0  0
   19.9853   10.5426   25.9432 H   0  0  0  0  0  0
   17.9669   11.7153   25.1482 H   0  0  0  0  0  0
   17.6547   12.2836   26.8234 H   0  0  0  0  0  0
   17.6215   10.5268   26.4501 H   0  0  0  0  0  0
   20.9668   11.0203   28.1529 H   0  0  0  0  0  0
   19.4216   10.1098   28.2532 H   0  0  0  0  0  0
   19.4547   11.8666   28.6265 H   0  0  0  0  0  0
   21.0021    9.1207   22.1987 H   0  0  0  0  0  0
   20.0552   10.5642   21.7023 H   0  0  0  0  0  0
   23.3988    8.9006   21.6197 H   0  0  0  0  0  0
   25.2063    9.5335   19.9930 H   0  0  0  0  0  0
   22.8740   12.9917   18.7446 H   0  0  0  0  0  0
   21.0687   12.3626   20.3755 H   0  0  0  0  0  0
   25.2239   10.9650   17.4375 H   0  0  0  0  0  0
   26.2281   11.5801   18.7939 H   0  0  0  0  0  0
   23.7954   16.0666   20.1484 H   0  0  0  0  0  0
   27.0542   17.1133   17.4495 H   0  0  0  0  0  0
   24.1674   18.1973   21.4303 H   0  0  0  0  0  0
   27.4284   19.2461   18.7355 H   0  0  0  0  0  0
   22.1986    8.3882   23.4812 H   0  0  0  0  0  0
  1  2  1  0  0  0
  1  7  1  0  0  0
  1  9  1  0  0  0
  1 11  1  0  0  0
  2  4  2  0  0  0
  2 33  1  0  0  0
  3  7  2  0  0  0
  4  5  1  0  0  0
  4  8  1  0  0  0
  5  7  1  0  0  0
  5 17  1  0  0  0
  6 30  2  0  0  0
  8 34  1  0  0  0
  8 61  1  0  0  0
  9 35  1  0  0  0
  9 36  1  0  0  0
  9 37  1  0  0  0
 10 24  1  0  0  0
 10 30  1  0  0  0
 10 38  1  0  0  0
 11 13  1  0  0  0
 11 39  1  0  0  0
 11 40  1  0  0  0
 12 25  1  0  0  0
 12 30  1  0  0  0
 12 41  1  0  0  0
 13 15  1  0  0  0
 13 16  1  0  0  0
 13 42  1  0  0  0
 14 32  3  0  0  0
 15 43  1  0  0  0
 15 44  1  0  0  0
 15 45  1  0  0  0
 16 46  1  0  0  0
 16 47  1  0  0  0
 16 48  1  0  0  0
 17 18  1  0  0  0
 17 49  1  0  0  0
 17 50  1  0  0  0
 18 19  2  0  0  0
 18 23  1  0  0  0
 19 20  1  0  0  0
 19 51  1  0  0  0
 20 21  2  0  0  0
 20 52  1  0  0  0
 21 22  1  0  0  0
 21 24  1  0  0  0
 22 23  2  0  0  0
 22 53  1  0  0  0
 23 54  1  0  0  0
 24 55  1  0  0  0
 24 56  1  0  0  0
 25 26  2  0  0  0
 25 27  1  0  0  0
 26 28  1  0  0  0
 26 57  1  0  0  0
 27 29  2  0  0  0
 27 58  1  0  0  0
 28 31  2  0  0  0
 28 59  1  0  0  0
 29 31  1  0  0  0
 29 60  1  0  0  0
 31 32  1  0  0  0
M  CHG  1   2   1
M  END
> <s_m_source_file>
../3l5c_ligand.sdf

> <i_m_source_file_index>
1

> <s_epik_input>
W0NIM11bQ0hdKFtDSDNdKVtDSDJdW0NAQF0xKFtDSDNdKVtOSF0vQyg9Ti9bSF0pTihDMT1PKVtDSDJdYzJbY0hdW2NIXWMoW2NIXVtjSF0yKVtDSDJdW05IXUMoPU8pW05IXWMzW2NIXVtjSF1jKEMjTilbY0hdW2NIXTM=

> <s_epik_cmdline>
J2VwaWtfYXBwJywgJy1pbWFlJywgJ2xpZ2FuZF9wcm8ubWFlJywgJy1vbWFlJywgJ2xpZ2FuZF9wcmVwLm1hZScsICctbXMnLCAnMScsICctcGgnLCAnNycsICctcGh0JywgJzAuNScsICctbnQn

> <r_lp_tautomer_probability>
1

> <r_epik_Ionization_Penalty>
  0.1044

> <r_epik_Ionization_Penalty_Charging>
  0.1044

> <r_epik_Ionization_Penalty_Neutral>
  0.0000

> <r_epik_State_Penalty>
  0.1211

> <r_epik_Charging_Adjusted_Penalty>
0.225425425854621

> <i_epik_Tot_Q>
1

> <i_epik_Tot_abs_Q>
1

> <s_epik_Chemistry_Notes>
This compound has an imine and may undergo hydrolysis.

$$$$
