3l5d_ligand
                    3D
 Schrodinger Suite 2020-3.
 62 63  0  0  1  0            999 V2000
   20.6810   10.6720   21.7290 C   0  0  2  0  0  0
   21.2830    9.5630   22.4480 N   0  3  0  0  0  0
   20.5470   13.0130   22.4570 O   0  0  0  0  0  0
   21.7630   10.0660   23.6080 C   0  0  0  0  0  0
   21.5530   11.3910   23.7570 N   0  0  0  0  0  0
   28.3810   14.2820   24.6840 O   0  0  0  0  0  0
   20.9070   11.8540   22.6750 C   0  0  0  0  0  0
   22.3880    9.3370   24.5310 N   0  0  0  0  0  0
   19.1580   10.4820   21.5830 C   0  0  0  0  0  0
   27.4880   15.0870   22.7670 N   0  0  0  0  0  0
   21.3900   10.9180   20.3920 C   0  0  0  0  0  0
   29.3240   13.7470   22.6950 N   0  0  0  0  0  0
   22.8940   11.1590   20.5390 C   0  0  0  0  0  0
   23.4340   12.0520   19.4210 C   0  0  0  0  0  0
   23.6780    9.8530   20.6550 C   0  0  0  0  0  0
   21.9650   12.2050   24.9040 C   0  0  0  0  0  0
   23.1210   13.1300   24.5530 C   0  0  0  0  0  0
   23.1860   14.4410   25.1120 C   0  0  0  0  0  0
   24.2730   15.3070   24.7810 C   0  0  0  0  0  0
   25.2970   14.8650   23.8900 C   0  0  0  0  0  0
   25.2310   13.5550   23.3320 C   0  0  0  0  0  0
   24.1490   12.6920   23.6630 C   0  0  0  0  0  0
   26.4520   15.7820   23.5370 C   0  0  0  0  0  0
   29.2580   13.9080   21.2460 C   0  0  0  0  0  0
   28.4300   12.7910   20.6080 C   0  0  0  0  0  0
   28.8260   11.4220   21.1330 C   0  0  0  0  0  0
   28.3980   14.3670   23.4560 C   0  0  0  0  0  0
   28.2520   10.2950   20.2960 C   0  0  0  0  0  0
   21.3985    8.4924   22.2232 H   0  0  0  0  0  0
   22.5392    8.2592   24.3711 H   0  0  0  0  0  0
   18.7132   10.3106   22.5743 H   0  0  0  0  0  0
   18.9570    9.6154   20.9361 H   0  0  0  0  0  0
   18.7173   11.3845   21.1344 H   0  0  0  0  0  0
   27.5027   15.1643   21.6698 H   0  0  0  0  0  0
   21.2573   10.0420   19.7400 H   0  0  0  0  0  0
   20.9585   11.8055   19.9060 H   0  0  0  0  0  0
   30.1166   13.1307   23.1444 H   0  0  0  0  0  0
   23.0424   11.6982   21.4862 H   0  0  0  0  0  0
   22.8423   12.9781   19.3733 H   0  0  0  0  0  0
   23.3619   11.5209   18.4604 H   0  0  0  0  0  0
   24.4862   12.2993   19.6252 H   0  0  0  0  0  0
   23.2571    9.2437   21.4684 H   0  0  0  0  0  0
   24.7328   10.0767   20.8724 H   0  0  0  0  0  0
   23.6085    9.2983   19.7077 H   0  0  0  0  0  0
   21.1181   12.8219   25.2389 H   0  0  0  0  0  0
   22.2860   11.5465   25.7245 H   0  0  0  0  0  0
   22.4056   14.7822   25.7922 H   0  0  0  0  0  0
   24.3206   16.3079   25.2100 H   0  0  0  0  0  0
   26.0105   13.2138   22.6508 H   0  0  0  0  0  0
   24.1043   11.6906   23.2348 H   0  0  0  0  0  0
   26.8855   16.1649   24.4727 H   0  0  0  0  0  0
   26.0566   16.6211   22.9458 H   0  0  0  0  0  0
   28.7914   14.8746   21.0054 H   0  0  0  0  0  0
   30.2746   13.8771   20.8269 H   0  0  0  0  0  0
   27.3649   12.9507   20.8315 H   0  0  0  0  0  0
   28.5812   12.7990   19.5185 H   0  0  0  0  0  0
   29.9220   11.3286   21.1234 H   0  0  0  0  0  0
   28.4569   11.3032   22.1624 H   0  0  0  0  0  0
   28.5671    9.3287   20.7167 H   0  0  0  0  0  0
   28.6189   10.3822   19.2627 H   0  0  0  0  0  0
   27.1538   10.3568   20.3016 H   0  0  0  0  0  0
   22.7530    9.8127   25.4532 H   0  0  0  0  0  0
  1  2  1  0  0  0
  1  7  1  0  0  0
  1  9  1  0  0  0
  1 11  1  0  0  0
  2  4  2  0  0  0
  2 29  1  0  0  0
  3  7  2  0  0  0
  4  5  1  0  0  0
  4  8  1  0  0  0
  5  7  1  0  0  0
  5 16  1  0  0  0
  6 27  2  0  0  0
  8 30  1  0  0  0
  8 62  1  0  0  0
  9 31  1  0  0  0
  9 32  1  0  0  0
  9 33  1  0  0  0
 10 23  1  0  0  0
 10 27  1  0  0  0
 10 34  1  0  0  0
 11 13  1  0  0  0
 11 35  1  0  0  0
 11 36  1  0  0  0
 12 24  1  0  0  0
 12 27  1  0  0  0
 12 37  1  0  0  0
 13 14  1  0  0  0
 13 15  1  0  0  0
 13 38  1  0  0  0
 14 39  1  0  0  0
 14 40  1  0  0  0
 14 41  1  0  0  0
 15 42  1  0  0  0
 15 43  1  0  0  0
 15 44  1  0  0  0
 16 17  1  0  0  0
 16 45  1  0  0  0
 16 46  1  0  0  0
 17 18  2  0  0  0
 17 22  1  0  0  0
 18 19  1  0  0  0
 18 47  1  0  0  0
 19 20  2  0  0  0
 19 48  1  0  0  0
 20 21  1  0  0  0
 20 23  1  0  0  0
 21 22  2  0  0  0
 21 49  1  0  0  0
 22 50  1  0  0  0
 23 51  1  0  0  0
 23 52  1  0  0  0
 24 25  1  0  0  0
 24 53  1  0  0  0
 24 54  1  0  0  0
 25 26  1  0  0  0
 25 55  1  0  0  0
 25 56  1  0  0  0
 26 28  1  0  0  0
 26 57  1  0  0  0
 26 58  1  0  0  0
 28 59  1  0  0  0
 28 60  1  0  0  0
 28 61  1  0  0  0
M  CHG  1   2   1
M  END
> <s_m_source_file>
../3l5d_ligand.sdf

> <i_m_source_file_index>
1

> <s_epik_input>
W0NIM11bQ0hdKFtDSDNdKVtDSDJdW0NAQF0xKFtDSDNdKVtOSF0vQyg9Ti9bSF0pTihDMT1PKVtDSDJdYzJbY0hdW2NIXWMoW2NIXVtjSF0yKVtDSDJdW05IXUMoPU8pW05IXVtDSDJdW0NIMl1bQ0gyXVtDSDNd

> <s_epik_cmdline>
J2VwaWtfYXBwJywgJy1pbWFlJywgJ2xpZ2FuZF9wcm8ubWFlJywgJy1vbWFlJywgJ2xpZ2FuZF9wcmVwLm1hZScsICctbXMnLCAnMScsICctcGgnLCAnNycsICctcGh0JywgJzAuNScsICctbnQn

> <r_lp_tautomer_probability>
1

> <r_epik_Ionization_Penalty>
  0.1044

> <r_epik_Ionization_Penalty_Charging>
  0.1044

> <r_epik_Ionization_Penalty_Neutral>
  0.0001

> <r_epik_State_Penalty>
  0.1211

> <r_epik_Charging_Adjusted_Penalty>
0.225425425854621

> <i_epik_Tot_Q>
1

> <i_epik_Tot_abs_Q>
1

> <s_epik_Chemistry_Notes>
This compound has an imine and may undergo hydrolysis.

$$$$
