3l5e_ligand
                    3D
 Schrodinger Suite 2020-3.
 89 93  0  0  1  0            999 V2000
   20.3470   10.8870   22.0080 C   0  0  1  0  0  0
   21.0260    9.7710   22.6680 N   0  3  0  0  0  0
   20.2880   13.2200   22.7770 O   0  0  0  0  0  0
   21.6220   10.2740   23.7840 C   0  0  0  0  0  0
   21.4180   11.5980   23.9550 N   0  0  0  0  0  0
   28.4740   14.4550   24.7430 O   0  0  0  0  0  0
   20.6650   12.0640   22.9430 C   0  0  0  0  0  0
   22.3460    9.5500   24.6460 N   0  0  0  0  0  0
   20.9180   11.1270   20.5880 C   0  0  0  0  0  0
   27.5370   15.0610   22.7630 N   0  0  0  0  0  0
   18.8330   10.6660   21.9340 C   0  0  0  0  0  0
   29.3520   13.8200   22.7360 N   0  0  0  0  0  0
   22.3870   11.5800   20.5360 C   0  0  0  0  0  0
   21.9370   12.4150   25.0590 C   0  0  0  0  0  0
   23.0820   13.2950   24.6000 C   0  0  0  0  0  0
   22.9760   14.7140   24.6730 C   0  0  0  0  0  0
   24.0590   15.5380   24.2370 C   0  0  0  0  0  0
   25.2520   14.9460   23.7260 C   0  0  0  0  0  0
   25.3490   13.5210   23.6560 C   0  0  0  0  0  0
   24.2720   12.7010   24.0900 C   0  0  0  0  0  0
   23.3360   10.4030   20.7660 C   0  0  0  0  0  0
   24.7960   10.7240   20.4620 C   0  0  0  0  0  0
   24.9600   11.2420   19.0450 C   0  0  0  0  0  0
   24.1390   12.5040   18.8620 C   0  0  0  0  0  0
   22.6670   12.2530   19.1830 C   0  0  0  0  0  0
   18.1750   10.6840   23.3010 C   0  0  0  0  0  0
   26.4000   15.8400   23.2670 C   0  0  0  0  0  0
   27.7150   14.9140   21.3320 C   0  0  0  0  0  0
   28.9830   14.0280   21.3240 C   0  0  2  0  0  0
   28.4600   14.4450   23.5110 C   0  0  0  0  0  0
   28.6160   12.6810   20.6720 C   0  0  0  0  0  0
   29.1970   11.4300   21.2870 C   0  0  0  0  0  0
   28.5700   10.1590   20.6830 C   0  0  0  0  0  0
   16.7170   10.2260   23.2770 C   0  0  0  0  0  0
   16.1830   10.1010   24.6990 C   0  0  0  0  0  0
   14.7050    9.7250   24.7480 C   0  0  0  0  0  0
   13.8560   10.7110   23.9440 C   0  0  0  0  0  0
   14.3560   10.8830   22.5120 C   0  0  0  0  0  0
   15.8540   11.1840   22.4490 C   0  0  0  0  0  0
   21.1203    8.7015   22.4287 H   0  0  0  0  0  0
   22.4908    8.4732   24.4740 H   0  0  0  0  0  0
   20.8588   10.1950   20.0067 H   0  0  0  0  0  0
   20.3325   11.9107   20.0850 H   0  0  0  0  0  0
   18.3755   11.4617   21.3278 H   0  0  0  0  0  0
   18.6272    9.6891   21.4723 H   0  0  0  0  0  0
   30.2424   13.2261   22.9900 H   0  0  0  0  0  0
   22.5683   12.3029   21.3450 H   0  0  0  0  0  0
   21.1342   13.0589   25.4475 H   0  0  0  0  0  0
   22.3007   11.7574   25.8623 H   0  0  0  0  0  0
   22.0667   15.1720   25.0623 H   0  0  0  0  0  0
   23.9732   16.6231   24.2951 H   0  0  0  0  0  0
   26.2565   13.0597   23.2665 H   0  0  0  0  0  0
   24.3569   11.6158   24.0324 H   0  0  0  0  0  0
   23.2822   10.0889   21.8188 H   0  0  0  0  0  0
   23.0434    9.5639   20.1177 H   0  0  0  0  0  0
   25.1554   11.4937   21.1609 H   0  0  0  0  0  0
   25.4029    9.8136   20.5754 H   0  0  0  0  0  0
   26.0202   11.4671   18.8573 H   0  0  0  0  0  0
   24.6159   10.4774   18.3330 H   0  0  0  0  0  0
   24.5172   13.2881   19.5344 H   0  0  0  0  0  0
   24.2187   12.8453   17.8193 H   0  0  0  0  0  0
   22.2773   11.6209   18.3715 H   0  0  0  0  0  0
   22.1724   13.2351   19.1526 H   0  0  0  0  0  0
   18.7216   10.0129   23.9799 H   0  0  0  0  0  0
   18.1938   11.7075   23.7036 H   0  0  0  0  0  0
   26.7239   16.4493   24.1236 H   0  0  0  0  0  0
   26.0245   16.4984   22.4699 H   0  0  0  0  0  0
   26.8254   14.4330   20.8994 H   0  0  0  0  0  0
   27.8540   15.9053   20.8760 H   0  0  0  0  0  0
   29.8401   14.4809   20.8041 H   0  0  0  0  0  0
   27.5252   12.5428   20.7051 H   0  0  0  0  0  0
   28.9546   12.6759   19.6254 H   0  0  0  0  0  0
   30.2817   11.4023   21.1062 H   0  0  0  0  0  0
   29.0057   11.4310   22.3702 H   0  0  0  0  0  0
   29.0163    9.2707   21.1538 H   0  0  0  0  0  0
   28.7610   10.1350   19.6000 H   0  0  0  0  0  0
   27.4850   10.1638   20.8640 H   0  0  0  0  0  0
   16.6702    9.2347   22.8025 H   0  0  0  0  0  0
   16.7447    9.3213   25.2344 H   0  0  0  0  0  0
   16.3014   11.0620   25.2210 H   0  0  0  0  0  0
   14.5685    8.7187   24.3252 H   0  0  0  0  0  0
   14.3587    9.7342   25.7920 H   0  0  0  0  0  0
   12.8182   10.3491   23.8985 H   0  0  0  0  0  0
   13.8794   11.6971   24.4310 H   0  0  0  0  0  0
   14.1716    9.9582   21.9457 H   0  0  0  0  0  0
   13.8218   11.7178   22.0348 H   0  0  0  0  0  0
   15.9943   12.2122   22.8138 H   0  0  0  0  0  0
   16.1528   11.1261   21.3919 H   0  0  0  0  0  0
   22.7962   10.0318   25.5265 H   0  0  0  0  0  0
  1  2  1  0  0  0
  1  7  1  0  0  0
  1  9  1  0  0  0
  1 11  1  0  0  0
  2  4  2  0  0  0
  2 40  1  0  0  0
  3  7  2  0  0  0
  4  5  1  0  0  0
  4  8  1  0  0  0
  5  7  1  0  0  0
  5 14  1  0  0  0
  6 30  2  0  0  0
  8 41  1  0  0  0
  8 89  1  0  0  0
  9 13  1  0  0  0
  9 42  1  0  0  0
  9 43  1  0  0  0
 10 27  1  0  0  0
 10 28  1  0  0  0
 10 30  1  0  0  0
 11 26  1  0  0  0
 11 44  1  0  0  0
 11 45  1  0  0  0
 12 29  1  0  0  0
 12 30  1  0  0  0
 12 46  1  0  0  0
 13 21  1  0  0  0
 13 25  1  0  0  0
 13 47  1  0  0  0
 14 15  1  0  0  0
 14 48  1  0  0  0
 14 49  1  0  0  0
 15 16  2  0  0  0
 15 20  1  0  0  0
 16 17  1  0  0  0
 16 50  1  0  0  0
 17 18  2  0  0  0
 17 51  1  0  0  0
 18 19  1  0  0  0
 18 27  1  0  0  0
 19 20  2  0  0  0
 19 52  1  0  0  0
 20 53  1  0  0  0
 21 22  1  0  0  0
 21 54  1  0  0  0
 21 55  1  0  0  0
 22 23  1  0  0  0
 22 56  1  0  0  0
 22 57  1  0  0  0
 23 24  1  0  0  0
 23 58  1  0  0  0
 23 59  1  0  0  0
 24 25  1  0  0  0
 24 60  1  0  0  0
 24 61  1  0  0  0
 25 62  1  0  0  0
 25 63  1  0  0  0
 26 34  1  0  0  0
 26 64  1  0  0  0
 26 65  1  0  0  0
 27 66  1  0  0  0
 27 67  1  0  0  0
 28 29  1  0  0  0
 28 68  1  0  0  0
 28 69  1  0  0  0
 29 31  1  0  0  0
 29 70  1  0  0  0
 31 32  1  0  0  0
 31 71  1  0  0  0
 31 72  1  0  0  0
 32 33  1  0  0  0
 32 73  1  0  0  0
 32 74  1  0  0  0
 33 75  1  0  0  0
 33 76  1  0  0  0
 33 77  1  0  0  0
 34 35  1  0  0  0
 34 39  1  0  0  0
 34 78  1  0  0  0
 35 36  1  0  0  0
 35 79  1  0  0  0
 35 80  1  0  0  0
 36 37  1  0  0  0
 36 81  1  0  0  0
 36 82  1  0  0  0
 37 38  1  0  0  0
 37 83  1  0  0  0
 37 84  1  0  0  0
 38 39  1  0  0  0
 38 85  1  0  0  0
 38 86  1  0  0  0
 39 87  1  0  0  0
 39 88  1  0  0  0
M  CHG  1   2   1
M  END
> <s_m_source_file>
../3l5e_ligand.sdf

> <i_m_source_file_index>
1

> <s_epik_input>
W0NIMl0xW0NIMl1bQ0gyXVtDSDJdW0NIMl1bQ0hdMVtDSDJdW0NIMl1bQ0BdMihbQ0gyXVtDSF0zW0NIMl1bQ0gyXVtDSDJdW0NIMl1bQ0gyXTMpW05IXS9DKD1OL1tIXSlOKEMyPU8pW0NIMl1jNFtjSF1bY0hdYyhbY0hdW2NIXTQpW0NIMl1ONVtDSDJdW0NAQEhdKFtOSF1DNT1PKVtDSDJdW0NIMl1bQ0gzXQ==

> <s_epik_cmdline>
J2VwaWtfYXBwJywgJy1pbWFlJywgJ2xpZ2FuZF9wcm8ubWFlJywgJy1vbWFlJywgJ2xpZ2FuZF9wcmVwLm1hZScsICctbXMnLCAnMScsICctcGgnLCAnNycsICctcGh0JywgJzAuNScsICctbnQn

> <r_lp_tautomer_probability>
1

> <r_epik_Ionization_Penalty>
  0.0774

> <r_epik_Ionization_Penalty_Charging>
  0.0773

> <r_epik_Ionization_Penalty_Neutral>
  0.0001

> <r_epik_State_Penalty>
  0.0862

> <r_epik_Charging_Adjusted_Penalty>
0.163509046822099

> <i_epik_Tot_Q>
1

> <i_epik_Tot_abs_Q>
1

> <s_epik_Chemistry_Notes>
This compound has an imine and may undergo hydrolysis.

$$$$
