3l5f_ligand
                    3D
 Schrodinger Suite 2020-3.
 57 59  0  0  1  0            999 V2000
   21.8760   10.0680   23.9510 C   0  0  0  0  0  0
   21.8230   11.4090   24.1020 N   0  0  0  0  0  0
   20.8220   13.1100   22.9070 O   0  0  0  0  0  0
   21.0900   11.9250   23.0950 C   0  0  0  0  0  0
   21.2030    9.6030   22.8680 N   0  3  0  0  0  0
   20.6170   10.7640   22.2050 C   0  0  1  0  0  0
   22.5410    9.2920   24.8060 N   0  0  0  0  0  0
   19.0830   10.7130   22.2210 C   0  0  0  0  0  0
   22.5190   11.3120   20.4990 C   0  0  0  0  0  0
   23.5300   10.2400   20.8960 C   0  0  0  0  0  0
   24.9510   10.5350   20.4320 C   0  0  0  0  0  0
   24.9910   10.7910   18.9350 C   0  0  0  0  0  0
   24.1130   11.9600   18.5710 C   0  0  0  0  0  0
   22.6810   11.7280   19.0270 C   0  0  0  0  0  0
   21.0760   10.8830   20.7450 C   0  0  0  0  0  0
   18.4870   10.6260   23.6120 C   0  0  0  0  0  0
   17.0040   10.2220   23.6080 C   0  0  0  0  0  0
   16.4470   10.0440   25.0170 C   0  0  0  0  0  0
   14.9700    9.6640   25.0330 C   0  0  0  0  0  0
   14.1380   10.6630   24.2380 C   0  0  0  0  0  0
   14.6570   10.8360   22.8070 C   0  0  0  0  0  0
   16.1470   11.1820   22.7800 C   0  0  0  0  0  0
   22.4480   12.1690   25.1650 C   0  0  0  0  0  0
   23.0643    9.7406   25.6633 H   0  0  0  0  0  0
   18.6810   11.6224   21.7504 H   0  0  0  0  0  0
   18.7397    9.8291   21.6634 H   0  0  0  0  0  0
   22.7324   12.1695   21.1542 H   0  0  0  0  0  0
   23.5561   10.1486   21.9919 H   0  0  0  0  0  0
   23.2352    9.2765   20.4546 H   0  0  0  0  0  0
   25.3292   11.4268   20.9532 H   0  0  0  0  0  0
   25.5974    9.6749   20.6608 H   0  0  0  0  0  0
   26.0238   11.0131   18.6285 H   0  0  0  0  0  0
   24.6339    9.8983   18.4007 H   0  0  0  0  0  0
   24.4948   12.8704   19.0562 H   0  0  0  0  0  0
   24.1181   12.0966   17.4795 H   0  0  0  0  0  0
   22.2698   10.9420   18.3765 H   0  0  0  0  0  0
   22.1408   12.6698   18.8505 H   0  0  0  0  0  0
   20.9713    9.9077   20.2471 H   0  0  0  0  0  0
   20.4561   11.6284   20.2253 H   0  0  0  0  0  0
   19.0354    9.8750   24.1996 H   0  0  0  0  0  0
   18.5642   11.6058   24.1059 H   0  0  0  0  0  0
   16.9467    9.2368   23.1221 H   0  0  0  0  0  0
   17.0018    9.2462   25.5325 H   0  0  0  0  0  0
   16.5548   10.9855   25.5756 H   0  0  0  0  0  0
   14.8432    8.6666   24.5868 H   0  0  0  0  0  0
   14.6061    9.6503   26.0710 H   0  0  0  0  0  0
   13.0967   10.3125   24.1846 H   0  0  0  0  0  0
   14.1697   11.6440   24.7347 H   0  0  0  0  0  0
   14.5100    9.9001   22.2480 H   0  0  0  0  0  0
   14.1051   11.6489   22.3125 H   0  0  0  0  0  0
   16.2579   12.2037   23.1722 H   0  0  0  0  0  0
   16.4754   11.1545   21.7305 H   0  0  0  0  0  0
   22.9794   11.4839   25.8420 H   0  0  0  0  0  0
   21.6766   12.7154   25.7275 H   0  0  0  0  0  0
   23.1626   12.8848   24.7327 H   0  0  0  0  0  0
   22.5667    8.2028   24.6546 H   0  0  0  0  0  0
   21.1871    8.5246   22.6516 H   0  0  0  0  0  0
  1  2  1  0  0  0
  1  5  2  0  0  0
  1  7  1  0  0  0
  2  4  1  0  0  0
  2 23  1  0  0  0
  3  4  2  0  0  0
  4  6  1  0  0  0
  5  6  1  0  0  0
  5 57  1  0  0  0
  6  8  1  0  0  0
  6 15  1  0  0  0
  7 24  1  0  0  0
  7 56  1  0  0  0
  8 16  1  0  0  0
  8 25  1  0  0  0
  8 26  1  0  0  0
  9 10  1  0  0  0
  9 14  1  0  0  0
  9 15  1  0  0  0
  9 27  1  0  0  0
 10 11  1  0  0  0
 10 28  1  0  0  0
 10 29  1  0  0  0
 11 12  1  0  0  0
 11 30  1  0  0  0
 11 31  1  0  0  0
 12 13  1  0  0  0
 12 32  1  0  0  0
 12 33  1  0  0  0
 13 14  1  0  0  0
 13 34  1  0  0  0
 13 35  1  0  0  0
 14 36  1  0  0  0
 14 37  1  0  0  0
 15 38  1  0  0  0
 15 39  1  0  0  0
 16 17  1  0  0  0
 16 40  1  0  0  0
 16 41  1  0  0  0
 17 18  1  0  0  0
 17 22  1  0  0  0
 17 42  1  0  0  0
 18 19  1  0  0  0
 18 43  1  0  0  0
 18 44  1  0  0  0
 19 20  1  0  0  0
 19 45  1  0  0  0
 19 46  1  0  0  0
 20 21  1  0  0  0
 20 47  1  0  0  0
 20 48  1  0  0  0
 21 22  1  0  0  0
 21 49  1  0  0  0
 21 50  1  0  0  0
 22 51  1  0  0  0
 22 52  1  0  0  0
 23 53  1  0  0  0
 23 54  1  0  0  0
 23 55  1  0  0  0
M  CHG  1   5   1
M  END
> <s_m_source_file>
../3l5f_ligand.sdf

> <i_m_source_file_index>
1

> <s_epik_input>
W0NIMl0xW0NIMl1bQ0gyXVtDSDJdW0NIMl1bQ0hdMVtDSDJdW0NAQF0yKEMoPU8pTihbQ0gzXSkvQyhbTkhdMik9TlxbSF0pW0NIMl1bQ0gyXVtDSF0zW0NIMl1bQ0gyXVtDSDJdW0NIMl1bQ0gyXTM=

> <s_epik_cmdline>
J2VwaWtfYXBwJywgJy1pbWFlJywgJ2xpZ2FuZF9wcm8ubWFlJywgJy1vbWFlJywgJ2xpZ2FuZF9wcmVwLm1hZScsICctbXMnLCAnMScsICctcGgnLCAnNycsICctcGh0JywgJzAuNScsICctbnQn

> <r_lp_tautomer_probability>
1

> <r_epik_Ionization_Penalty>
  0.0758

> <r_epik_Ionization_Penalty_Charging>
  0.0758

> <r_epik_Ionization_Penalty_Neutral>
  0.0000

> <r_epik_State_Penalty>
  0.0002

> <r_epik_Charging_Adjusted_Penalty>
0.0760339389125686

> <i_epik_Tot_Q>
1

> <i_epik_Tot_abs_Q>
1

> <s_epik_Chemistry_Notes>
This compound has an imine and may undergo hydrolysis.

$$$$
