3l6f_ligand
                    3D
 Schrodinger Suite 2020-3.
228232  0  0  1  0            999 V2000
  -17.6270   30.8900   18.3040 N   0  3  0  0  0  0
  -18.7540   29.9280   18.1210 C   0  0  2  0  0  0
  -19.6730   30.3290   16.9760 C   0  0  0  0  0  0
  -20.8690   30.0090   16.9900 O   0  0  0  0  0  0
  -19.5610   29.8080   19.4140 C   0  0  0  0  0  0
  -19.1460   31.0530   15.9710 N   0  0  0  0  0  0
  -20.1060   31.3820   14.9140 C   0  0  2  0  0  0
  -20.5570   30.0460   14.3350 C   0  0  0  0  0  0
  -19.7750   29.0940   14.3070 O   0  0  0  0  0  0
  -19.2770   32.2100   13.9350 C   0  0  0  0  0  0
  -17.9110   31.6070   14.0760 C   0  0  0  0  0  0
  -17.7770   31.4320   15.5800 C   0  0  0  0  0  0
  -21.8250   29.9500   13.9020 N   0  0  0  0  0  0
  -22.3520   28.7100   13.3300 C   0  0  2  0  0  0
  -21.2560   27.9940   12.5370 C   0  0  0  0  0  0
  -20.5130   28.6140   11.7740 O   0  0  0  0  0  0
  -23.4900   29.2030   12.4550 C   0  0  0  0  0  0
  -24.0380   30.3320   13.2880 C   0  0  0  0  0  0
  -22.7830   31.0560   13.7340 C   0  0  0  0  0  0
  -21.1500   26.6890   12.7370 N   0  0  0  0  0  0
  -20.1160   25.9280   12.0630 C   0  0  2  0  0  0
  -20.6230   25.0080   10.9670 C   0  0  0  0  0  0
  -21.6480   24.3270   11.1130 O   0  0  0  0  0  0
  -19.3150   25.1260   13.0970 C   0  0  0  0  0  0
  -19.9120   25.0220    9.8420 N   0  0  0  0  0  0
  -20.2560   24.1310    8.7480 C   0  0  2  0  0  0
  -19.8740   22.7570    9.2920 C   0  0  0  0  0  0
  -18.8310   22.6140    9.9430 O   0  0  0  0  0  0
  -19.4350   24.4780    7.5050 C   0  0  0  0  0  0
  -20.1190   25.5090    6.6320 C   0  0  0  0  0  0
  -21.2110   25.1490    5.8490 C   0  0  0  0  0  0
  -19.7300   26.8540    6.6510 C   0  0  0  0  0  0
  -21.9130   26.0960    5.1030 C   0  0  0  0  0  0
  -20.4350   27.8220    5.9100 C   0  0  0  0  0  0
  -21.5240   27.4320    5.1420 C   0  0  0  0  0  0
  -22.2520   28.3570    4.4210 O   0  0  0  0  0  0
  -20.7230   21.7610    9.0670 N   0  0  0  0  0  0
  -20.4390   20.4160    9.5590 C   0  0  2  0  0  0
  -20.1050   19.4710    8.4070 C   0  0  0  0  0  0
  -20.7880   19.4510    7.3810 O   0  0  0  0  0  0
  -21.6370   19.8840   10.3690 C   0  0  0  0  0  0
  -21.8090   20.6000   11.7030 C   0  0  0  0  0  0
  -20.5950   20.4100   12.6080 C   0  0  0  0  0  0
  -20.3260   21.2850   13.4650 O   0  0  0  0  0  0
  -19.9100   19.3680   12.4620 O   0  0  0  0  0  0
  -19.0460   18.6930    8.5760 N   0  0  0  0  0  0
  -18.6330   17.7650    7.5320 C   0  0  2  0  0  0
  -19.2700   16.3990    7.6890 C   0  0  0  0  0  0
  -19.7890   16.0520    8.7510 O   0  0  0  0  0  0
  -17.1150   17.5640    7.5660 C   0  0  0  0  0  0
  -16.6530   16.6300    8.7030 C   0  0  0  0  0  0
  -15.2080   16.2230    8.5130 C   0  0  0  0  0  0
  -14.7540   15.2020    9.5590 C   0  0  0  0  0  0
  -14.5850   15.7850   10.9260 N   0  3  0  0  0  0
  -19.2300   15.6300    6.6100 N   0  0  0  0  0  0
  -19.6840   14.2590    6.6550 C   0  0  2  0  0  0
  -18.3020   13.5540    6.5490 C   0  0  0  0  0  0
  -17.4740   13.8950    5.6850 O   0  0  0  0  0  0
  -20.6190   13.9690    5.4800 C   0  0  0  0  0  0
  -21.9610   13.2850    5.7860 C   0  0  0  0  0  0
  -22.5290   13.7380    7.1310 C   0  0  0  0  0  0
  -22.9470   13.5720    4.6550 C   0  0  0  0  0  0
  -18.0450   12.6160    7.4610 N   0  0  0  0  0  0
  -16.7410   11.8830    7.5580 C   0  0  1  0  0  0
  -16.6640   11.2320    8.9520 C   0  0  0  0  0  0
  -16.7820   12.3190    9.8780 O   0  0  0  0  0  0
  -16.6070   10.8380    6.4820 C   0  0  0  0  0  0
  -17.5370   10.1430    6.1700 O   0  0  0  0  0  0
  -16.7590   11.8020   11.4140 P   0  0  0  0  0  0
  -15.5050   11.0720   11.7180 O   0  0  0  0  0  0
  -16.8920   13.0730   12.3600 O   0  0  0  0  0  0
  -18.0200   10.8200   11.6470 O   0  0  0  0  0  0
  -15.4000   10.7580    5.9200 N   0  0  0  0  0  0
  -15.0780    9.8040    4.8550 C   0  0  2  0  0  0
  -15.0430    8.4220    5.4730 C   0  0  0  0  0  0
  -14.5050    8.2460    6.5600 O   0  0  0  0  0  0
  -13.7210   10.1250    4.2480 C   0  0  0  0  0  0
  -15.6210    7.4470    4.7940 N   0  0  0  0  0  0
  -15.6150    6.1020    5.3240 C   0  0  2  0  0  0
  -14.4500    5.2910    4.7460 C   0  0  0  0  0  0
  -14.1240    5.4050    3.5610 O   0  0  0  0  0  0
  -16.9640    5.4460    5.0420 C   0  0  0  0  0  0
  -18.1080    6.0920    5.8510 C   0  0  0  0  0  0
  -17.8420    6.0860    7.3700 C   0  0  0  0  0  0
  -17.5950    4.9940    7.9340 O   0  0  0  0  0  0
  -17.8840    7.1690    8.0010 O   0  0  0  0  0  0
  -13.8090    4.4840    5.5900 N   0  0  0  0  0  0
  -12.6720    3.6790    5.1490 C   0  0  2  0  0  0
  -13.1390    2.4990    4.3290 C   0  0  0  0  0  0
  -14.0790    1.8120    4.7100 O   0  0  0  0  0  0
  -11.8740    3.1860    6.3450 C   0  0  0  0  0  0
  -11.3900    4.3010    7.2260 C   0  0  0  0  0  0
  -10.6610    3.7840    8.4350 C   0  0  0  0  0  0
   -9.4420    3.5840    8.4010 O   0  0  0  0  0  0
  -11.4060    3.5360    9.5160 N   0  0  0  0  0  0
  -12.4840    2.2760    3.1940 N   0  0  0  0  0  0
  -12.8470    1.1740    2.3180 C   0  0  2  0  0  0
  -12.1590   -0.1110    2.7450 C   0  0  0  0  0  0
  -11.1840   -0.0840    3.5050 O   0  0  0  0  0  0
  -12.4320    1.4680    0.8670 C   0  0  0  0  0  0
  -13.2450    2.4570    0.2710 O   0  0  0  0  0  0
  -12.6860   -1.2550    2.2800 N   0  0  0  0  0  0
  -12.1480   -2.5840    2.5630 C   0  0  2  0  0  0
  -11.2050   -2.8190    1.3820 C   0  0  0  0  0  0
  -11.2670   -2.0910    0.3870 O   0  0  0  0  0  0
  -13.3820   -3.4730    2.4680 C   0  0  0  0  0  0
  -14.1070   -2.8550    1.3040 C   0  0  0  0  0  0
  -14.0000   -1.3630    1.6120 C   0  0  0  0  0  0
  -10.3290   -3.8280    1.4580 N   0  0  0  0  0  0
   -9.4450   -4.0210    0.3010 C   0  0  2  0  0  0
  -10.2040   -4.0390   -1.0410 C   0  0  0  0  0  0
  -11.4370   -4.2520   -1.0260 O   0  0  0  0  0  0
   -8.7520   -5.3530    0.6160 C   0  0  0  0  0  0
   -9.7250   -6.0440    1.5850 C   0  0  0  0  0  0
  -10.1510   -4.9020    2.4510 C   0  0  0  0  0  0
   -9.5630   -3.8360   -2.0970 O   0  0  0  0  0  0
  -17.0550   30.9671   17.3676 H   0  0  0  0  0  0
  -16.9671   30.5329   19.1084 H   0  0  0  0  0  0
  -18.0286   31.8787   18.5708 H   0  0  0  0  0  0
  -18.2896   28.9644   17.8644 H   0  0  0  0  0  0
  -18.8924   29.5181   20.2379 H   0  0  0  0  0  0
  -20.3419   29.0434   19.2892 H   0  0  0  0  0  0
  -20.0293   30.7761   19.6451 H   0  0  0  0  0  0
  -20.9949   31.9380   15.2468 H   0  0  0  0  0  0
  -19.6896   32.1005   12.9212 H   0  0  0  0  0  0
  -19.3091   33.2688   14.2315 H   0  0  0  0  0  0
  -17.8739   30.6519   13.5316 H   0  0  0  0  0  0
  -17.1613   32.2958   13.6594 H   0  0  0  0  0  0
  -17.4917   32.3601   16.0970 H   0  0  0  0  0  0
  -17.0801   30.6279   15.8588 H   0  0  0  0  0  0
  -22.6914   27.9983   14.0970 H   0  0  0  0  0  0
  -23.0903   29.5316   11.4843 H   0  0  0  0  0  0
  -24.2112   28.3875   12.2975 H   0  0  0  0  0  0
  -24.6940   30.9604   12.6677 H   0  0  0  0  0  0
  -24.6137   29.9204   14.1301 H   0  0  0  0  0  0
  -22.9089   31.5808   14.6925 H   0  0  0  0  0  0
  -22.4026   31.7590   12.9783 H   0  0  0  0  0  0
  -21.8503   26.1827   13.4176 H   0  0  0  0  0  0
  -19.5168   26.7061   11.5675 H   0  0  0  0  0  0
  -18.9531   25.8024   13.8854 H   0  0  0  0  0  0
  -18.4571   24.6456   12.6038 H   0  0  0  0  0  0
  -19.9605   24.3551   13.5431 H   0  0  0  0  0  0
  -19.0610   25.7119    9.7427 H   0  0  0  0  0  0
  -21.3180   24.2244    8.4768 H   0  0  0  0  0  0
  -18.4600   24.8849    7.8114 H   0  0  0  0  0  0
  -19.2807   23.5708    6.9024 H   0  0  0  0  0  0
  -21.5246   24.1056    5.8177 H   0  0  0  0  0  0
  -18.8693   27.1560    7.2478 H   0  0  0  0  0  0
  -22.7626   25.7910    4.4921 H   0  0  0  0  0  0
  -20.1286   28.8677    5.9391 H   0  0  0  0  0  0
  -23.1120   28.0307    3.8177 H   0  0  0  0  0  0
  -21.6475   21.9569    8.5040 H   0  0  0  0  0  0
  -19.5529   20.5179   10.2027 H   0  0  0  0  0  0
  -22.5619   20.0233    9.7901 H   0  0  0  0  0  0
  -21.4925   18.8136   10.5772 H   0  0  0  0  0  0
  -21.9430   21.6774   11.5262 H   0  0  0  0  0  0
  -22.6929   20.2009   12.2221 H   0  0  0  0  0  0
  -19.0277   19.1964   13.0962 H   0  0  0  0  0  0
  -18.4770   18.7526    9.5155 H   0  0  0  0  0  0
  -18.9839   18.2441    6.6061 H   0  0  0  0  0  0
  -16.7824   17.1212    6.6156 H   0  0  0  0  0  0
  -16.6197   18.5354    7.7111 H   0  0  0  0  0  0
  -16.7502   17.1503    9.6673 H   0  0  0  0  0  0
  -17.2776   15.7246    8.7104 H   0  0  0  0  0  0
  -15.0819   15.7722    7.5176 H   0  0  0  0  0  0
  -14.5630   17.1100    8.5982 H   0  0  0  0  0  0
  -15.5001   14.3972    9.6337 H   0  0  0  0  0  0
  -13.7847   14.7768    9.2598 H   0  0  0  0  0  0
  -14.2591   14.9983   11.6224 H   0  0  0  0  0  0
  -15.5435   16.2029   11.2675 H   0  0  0  0  0  0
  -13.8281   16.5825   10.8935 H   0  0  0  0  0  0
  -18.8435   16.0508    5.6700 H   0  0  0  0  0  0
  -20.2859   14.0078    7.5408 H   0  0  0  0  0  0
  -20.8835   14.9126    4.9804 H   0  0  0  0  0  0
  -20.1131   13.3044    4.7642 H   0  0  0  0  0  0
  -21.7994   12.1992    5.8562 H   0  0  0  0  0  0
  -21.8022   13.5211    7.9277 H   0  0  0  0  0  0
  -23.4665   13.1993    7.3333 H   0  0  0  0  0  0
  -22.7270   14.8196    7.0998 H   0  0  0  0  0  0
  -22.5164   13.2378    3.6995 H   0  0  0  0  0  0
  -23.1476   14.6526    4.6088 H   0  0  0  0  0  0
  -23.8870   13.0323    4.8423 H   0  0  0  0  0  0
  -18.8568   12.3902    8.1681 H   0  0  0  0  0  0
  -15.9250   12.6020    7.3930 H   0  0  0  0  0  0
  -17.4871   10.5112    9.0660 H   0  0  0  0  0  0
  -15.7019   10.7099    9.0603 H   0  0  0  0  0  0
  -16.1204   13.8567   12.3400 H   0  0  0  0  0  0
  -18.1005    9.8833   11.0760 H   0  0  0  0  0  0
  -14.6291   11.4500    6.2901 H   0  0  0  0  0  0
  -15.8517    9.8814    4.0769 H   0  0  0  0  0  0
  -13.7482   11.1291    3.7996 H   0  0  0  0  0  0
  -13.4818    9.3831    3.4718 H   0  0  0  0  0  0
  -12.9516   10.0949    5.0336 H   0  0  0  0  0  0
  -16.1056    7.6557    3.8288 H   0  0  0  0  0  0
  -15.4666    6.1973    6.4098 H   0  0  0  0  0  0
  -17.2037    5.5453    3.9730 H   0  0  0  0  0  0
  -16.9165    4.3801    5.3096 H   0  0  0  0  0  0
  -18.2345    7.1383    5.5359 H   0  0  0  0  0  0
  -19.0419    5.5394    5.6710 H   0  0  0  0  0  0
  -17.6966    7.1817    9.0848 H   0  0  0  0  0  0
  -14.1491    4.4297    6.6347 H   0  0  0  0  0  0
  -12.0559    4.3425    4.5244 H   0  0  0  0  0  0
  -12.5035    2.5244    6.9583 H   0  0  0  0  0  0
  -10.9920    2.6306    5.9935 H   0  0  0  0  0  0
  -10.7021    4.9447    6.6582 H   0  0  0  0  0  0
  -12.2490    4.8958    7.5700 H   0  0  0  0  0  0
  -12.4883    3.7315    9.4948 H   0  0  0  0  0  0
  -10.9371    3.1363   10.4272 H   0  0  0  0  0  0
  -11.6534    2.9440    2.9222 H   0  0  0  0  0  0
  -13.9383    1.0914    2.4282 H   0  0  0  0  0  0
  -11.3912    1.8236    0.8482 H   0  0  0  0  0  0
  -12.5164    0.5492    0.2681 H   0  0  0  0  0  0
  -13.0610    2.7674   -0.7681 H   0  0  0  0  0  0
  -11.6350   -2.7109    3.5277 H   0  0  0  0  0  0
  -13.0719   -4.5125    2.2854 H   0  0  0  0  0  0
  -13.9463   -3.4190    3.4107 H   0  0  0  0  0  0
  -13.6041   -3.1371    0.3672 H   0  0  0  0  0  0
  -15.1459   -3.2161    1.2855 H   0  0  0  0  0  0
  -14.7885   -1.0147    2.2954 H   0  0  0  0  0  0
  -14.0017   -0.7425    0.7037 H   0  0  0  0  0  0
   -8.7496   -3.1740    0.2058 H   0  0  0  0  0  0
   -8.6128   -5.9229   -0.3145 H   0  0  0  0  0  0
   -7.7722   -5.1568    1.0759 H   0  0  0  0  0  0
  -10.5542   -6.4898    1.0161 H   0  0  0  0  0  0
   -9.1937   -6.8328    2.1377 H   0  0  0  0  0  0
   -9.3857   -4.6022    3.1821 H   0  0  0  0  0  0
  -11.1036   -5.0826    2.9705 H   0  0  0  0  0  0
  -10.0831   -3.8441   -3.0663 H   0  0  0  0  0  0
  1  2  1  0  0  0
  1117  1  0  0  0
  1118  1  0  0  0
  1119  1  0  0  0
  2  3  1  0  0  0
  2  5  1  0  0  0
  2120  1  0  0  0
  3  4  2  0  0  0
  3  6  1  0  0  0
  5121  1  0  0  0
  5122  1  0  0  0
  5123  1  0  0  0
  6  7  1  0  0  0
  6 12  1  0  0  0
  7  8  1  0  0  0
  7 10  1  0  0  0
  7124  1  0  0  0
  8  9  2  0  0  0
  8 13  1  0  0  0
 10 11  1  0  0  0
 10125  1  0  0  0
 10126  1  0  0  0
 11 12  1  0  0  0
 11127  1  0  0  0
 11128  1  0  0  0
 12129  1  0  0  0
 12130  1  0  0  0
 13 14  1  0  0  0
 13 19  1  0  0  0
 14 15  1  0  0  0
 14 17  1  0  0  0
 14131  1  0  0  0
 15 16  2  0  0  0
 15 20  1  0  0  0
 17 18  1  0  0  0
 17132  1  0  0  0
 17133  1  0  0  0
 18 19  1  0  0  0
 18134  1  0  0  0
 18135  1  0  0  0
 19136  1  0  0  0
 19137  1  0  0  0
 20 21  1  0  0  0
 20138  1  0  0  0
 21 22  1  0  0  0
 21 24  1  0  0  0
 21139  1  0  0  0
 22 23  2  0  0  0
 22 25  1  0  0  0
 24140  1  0  0  0
 24141  1  0  0  0
 24142  1  0  0  0
 25 26  1  0  0  0
 25143  1  0  0  0
 26 27  1  0  0  0
 26 29  1  0  0  0
 26144  1  0  0  0
 27 28  2  0  0  0
 27 37  1  0  0  0
 29 30  1  0  0  0
 29145  1  0  0  0
 29146  1  0  0  0
 30 31  2  0  0  0
 30 32  1  0  0  0
 31 33  1  0  0  0
 31147  1  0  0  0
 32 34  2  0  0  0
 32148  1  0  0  0
 33 35  2  0  0  0
 33149  1  0  0  0
 34 35  1  0  0  0
 34150  1  0  0  0
 35 36  1  0  0  0
 36151  1  0  0  0
 37 38  1  0  0  0
 37152  1  0  0  0
 38 39  1  0  0  0
 38 41  1  0  0  0
 38153  1  0  0  0
 39 40  2  0  0  0
 39 46  1  0  0  0
 41 42  1  0  0  0
 41154  1  0  0  0
 41155  1  0  0  0
 42 43  1  0  0  0
 42156  1  0  0  0
 42157  1  0  0  0
 43 44  2  0  0  0
 43 45  1  0  0  0
 45158  1  0  0  0
 46 47  1  0  0  0
 46159  1  0  0  0
 47 48  1  0  0  0
 47 50  1  0  0  0
 47160  1  0  0  0
 48 49  2  0  0  0
 48 55  1  0  0  0
 50 51  1  0  0  0
 50161  1  0  0  0
 50162  1  0  0  0
 51 52  1  0  0  0
 51163  1  0  0  0
 51164  1  0  0  0
 52 53  1  0  0  0
 52165  1  0  0  0
 52166  1  0  0  0
 53 54  1  0  0  0
 53167  1  0  0  0
 53168  1  0  0  0
 54169  1  0  0  0
 54170  1  0  0  0
 54171  1  0  0  0
 55 56  1  0  0  0
 55172  1  0  0  0
 56 57  1  0  0  0
 56 59  1  0  0  0
 56173  1  0  0  0
 57 58  2  0  0  0
 57 63  1  0  0  0
 59 60  1  0  0  0
 59174  1  0  0  0
 59175  1  0  0  0
 60 61  1  0  0  0
 60 62  1  0  0  0
 60176  1  0  0  0
 61177  1  0  0  0
 61178  1  0  0  0
 61179  1  0  0  0
 62180  1  0  0  0
 62181  1  0  0  0
 62182  1  0  0  0
 63 64  1  0  0  0
 63183  1  0  0  0
 64 65  1  0  0  0
 64 67  1  0  0  0
 64184  1  0  0  0
 65 66  1  0  0  0
 65185  1  0  0  0
 65186  1  0  0  0
 66 69  1  0  0  0
 67 68  2  0  0  0
 67 73  1  0  0  0
 69 70  2  0  0  0
 69 71  1  0  0  0
 69 72  1  0  0  0
 71187  1  0  0  0
 72188  1  0  0  0
 73 74  1  0  0  0
 73189  1  0  0  0
 74 75  1  0  0  0
 74 77  1  0  0  0
 74190  1  0  0  0
 75 76  2  0  0  0
 75 78  1  0  0  0
 77191  1  0  0  0
 77192  1  0  0  0
 77193  1  0  0  0
 78 79  1  0  0  0
 78194  1  0  0  0
 79 80  1  0  0  0
 79 82  1  0  0  0
 79195  1  0  0  0
 80 81  2  0  0  0
 80 87  1  0  0  0
 82 83  1  0  0  0
 82196  1  0  0  0
 82197  1  0  0  0
 83 84  1  0  0  0
 83198  1  0  0  0
 83199  1  0  0  0
 84 85  2  0  0  0
 84 86  1  0  0  0
 86200  1  0  0  0
 87 88  1  0  0  0
 87201  1  0  0  0
 88 89  1  0  0  0
 88 91  1  0  0  0
 88202  1  0  0  0
 89 90  2  0  0  0
 89 96  1  0  0  0
 91 92  1  0  0  0
 91203  1  0  0  0
 91204  1  0  0  0
 92 93  1  0  0  0
 92205  1  0  0  0
 92206  1  0  0  0
 93 94  2  0  0  0
 93 95  1  0  0  0
 95207  1  0  0  0
 95208  1  0  0  0
 96 97  1  0  0  0
 96209  1  0  0  0
 97 98  1  0  0  0
 97100  1  0  0  0
 97210  1  0  0  0
 98 99  2  0  0  0
 98102  1  0  0  0
100101  1  0  0  0
100211  1  0  0  0
100212  1  0  0  0
101213  1  0  0  0
102103  1  0  0  0
102108  1  0  0  0
103104  1  0  0  0
103106  1  0  0  0
103214  1  0  0  0
104105  2  0  0  0
104109  1  0  0  0
106107  1  0  0  0
106215  1  0  0  0
106216  1  0  0  0
107108  1  0  0  0
107217  1  0  0  0
107218  1  0  0  0
108219  1  0  0  0
108220  1  0  0  0
109110  1  0  0  0
109115  1  0  0  0
110111  1  0  0  0
110113  1  0  0  0
110221  1  0  0  0
111112  2  0  0  0
111116  1  0  0  0
113114  1  0  0  0
113222  1  0  0  0
113223  1  0  0  0
114115  1  0  0  0
114224  1  0  0  0
114225  1  0  0  0
115226  1  0  0  0
115227  1  0  0  0
116228  1  0  0  0
M  CHG  2   1   1  54   1
M  END
> <s_m_source_file>
../3l6f_ligand.sdf

> <i_m_source_file_index>
1

> <s_epik_input>
W05IMytdW0NAQEhdKFtDSDNdKUMoPU8pTjFbQ0BASF0oW0NIMl1bQ0gyXVtDSDJdMSlDKD1PKU4yW0NAQEhdKFtDSDJdW0NIMl1bQ0gyXTIpQyg9TylbTkhdW0NAQEhdKFtDSDNdKUMoPU8pW05IXVtDQEBIXShbQ0gyXWMzW2NIXVtjSF1jKFtPSF0pW2NIXVtjSF0zKUMoPU8pW05IXVtDQEBIXShbQ0gyXVtDSDJdQyg9TylbT0hdKUMoPU8pW05IXVtDQEBIXShbQ0gyXVtDSDJdW0NIMl1bQ0gyXVtOSDMrXSlDKD1PKVtOSF1bQ0BASF0oW0NIMl1bQ0hdKFtDSDNdKVtDSDNdKUMoPU8pW05IXVtDQEBIXShbQ0gyXU9QKD1PKShbT0hdKVtPSF0pQyg9TylbTkhdW0NAQEhdKFtDSDNdKUMoPU8pW05IXVtDQEBIXShbQ0gyXVtDSDJdQyg9TylbT0hdKUMoPU8pW05IXVtDQEBIXShbQ0gyXVtDSDJdQyg9TylbTkgyXSlDKD1PKVtOSF1bQ0BASF0oW0NIMl1bT0hdKUMoPU8pTjRbQ0BASF0oW0NIMl1bQ0gyXVtDSDJdNClDKD1PKU41W0NASF0oQyg9TylbT0hdKVtDSDJdW0NIMl1bQ0gyXTU=

> <s_epik_cmdline>
J2VwaWtfYXBwJywgJy1pbWFlJywgJ2xpZ2FuZF9wcm8ubWFlJywgJy1vbWFlJywgJ2xpZ2FuZF9wcmVwLm1hZScsICctbXMnLCAnMScsICctcGgnLCAnNycsICctcGh0JywgJzAuNScsICctbnQn

> <s_epik_pKa_notes>
Molecule size exceeds maximum supported for generating protonation states

$$$$
