3l6x_ligand
                    3D
 Schrodinger Suite 2020-3.
260261  0  0  1  0            999 V2000
  -31.8900   14.0330   15.0810 N   0  3  0  0  0  0
  -33.2790   14.5040   15.3700 C   0  0  2  0  0  0
  -33.3540   15.2460   16.6980 C   0  0  0  0  0  0
  -32.4610   15.1840   17.5260 O   0  0  0  0  0  0
  -34.2790   13.3440   15.4260 C   0  0  0  0  0  0
  -34.2240   12.4440   14.2060 C   0  0  0  0  0  0
  -33.9940   12.9340   13.0790 O   0  0  0  0  0  0
  -34.4440   11.2360   14.3750 O   0  0  0  0  0  0
  -34.4540   15.9370   16.9080 N   0  0  0  0  0  0
  -34.5890   16.6870   18.1290 C   0  0  2  0  0  0
  -34.8410   15.7800   19.3350 C   0  0  0  0  0  0
  -35.7130   14.9090   19.2850 O   0  0  0  0  0  0
  -35.7090   17.7110   17.9880 C   0  0  0  0  0  0
  -35.9570   18.4650   19.2390 C   0  0  0  0  0  0
  -37.0910   19.4020   19.0710 C   0  0  0  0  0  0
  -37.3090   20.2480   19.9670 O   0  0  0  0  0  0
  -37.7560   19.2870   18.0280 O   0  0  0  0  0  0
  -34.0500   15.9930   20.3950 N   0  0  0  0  0  0
  -34.2410   15.3470   21.7020 C   0  0  2  0  0  0
  -35.1280   16.2890   22.5100 C   0  0  0  0  0  0
  -34.6410   17.0560   23.3620 O   0  0  0  0  0  0
  -32.9030   15.1430   22.4330 C   0  0  0  0  0  0
  -31.7850   14.5610   21.5620 C   0  0  0  0  0  0
  -30.4320   14.4190   22.2920 C   0  0  0  0  0  0
  -29.4010   14.1930   21.6060 O   0  0  0  0  0  0
  -30.3900   14.5160   23.5340 O   0  0  0  0  0  0
  -36.4230   16.2410   22.2280 N   0  0  0  0  0  0
  -37.3340   17.2460   22.7280 C   0  0  0  0  0  0
  -37.7710   17.0230   24.1570 C   0  0  0  0  0  0
  -38.3910   17.8910   24.7520 O   0  0  0  0  0  0
  -37.4730   15.8530   24.7100 N   0  0  0  0  0  0
  -37.7790   15.6060   26.1010 C   0  0  0  0  0  0
  -37.0160   16.6070   26.9530 C   0  0  0  0  0  0
  -37.5400   17.1260   27.9370 O   0  0  0  0  0  0
  -35.7750   16.8960   26.5660 N   0  0  0  0  0  0
  -34.9760   17.8730   27.2950 C   0  0  0  0  0  0
  -34.4500   17.2880   28.5870 C   0  0  0  0  0  0
  -34.4080   16.0740   28.7570 O   0  0  0  0  0  0
  -34.0360   18.1580   29.5010 N   0  0  0  0  0  0
  -33.4990   17.7280   30.7720 C   0  0  2  0  0  0
  -34.0050   18.7050   31.8110 C   0  0  0  0  0  0
  -34.2230   19.8560   31.5000 O   0  0  0  0  0  0
  -31.9670   17.6840   30.7240 C   0  0  0  0  0  0
  -31.2820   18.9800   30.3460 C   0  0  0  0  0  0
  -29.7640   18.8440   30.3360 C   0  0  0  0  0  0
  -29.0650   19.7040   29.7470 O   0  0  0  0  0  0
  -29.2550   17.8630   30.9110 O   0  0  0  0  0  0
  -34.2390   18.2360   33.0330 N   0  0  0  0  0  0
  -34.7040   19.1080   34.1300 C   0  0  2  0  0  0
  -33.7940   18.9560   35.3540 C   0  0  0  0  0  0
  -33.3040   17.8590   35.6500 O   0  0  0  0  0  0
  -36.1370   18.7520   34.5450 C   0  0  0  0  0  0
  -37.2540   19.6290   33.9550 C   0  0  0  0  0  0
  -38.6840   19.0450   34.1770 C   0  0  0  0  0  0
  -38.9880   18.5450   35.2850 O   0  0  0  0  0  0
  -39.5240   19.0960   33.2400 O   0  0  0  0  0  0
  -33.5980   20.0550   36.0690 N   0  0  0  0  0  0
  -32.9880   20.0270   37.3830 C   0  0  2  0  0  0
  -33.9530   19.3840   38.3760 C   0  0  0  0  0  0
  -35.1310   19.1940   38.0710 O   0  0  0  0  0  0
  -32.6290   21.4540   37.8310 C   0  0  0  0  0  0
  -31.5170   21.4710   38.8710 C   0  0  0  0  0  0
  -31.1490   20.3810   39.3740 O   0  0  0  0  0  0
  -31.0110   22.5660   39.1960 O   0  0  0  0  0  0
  -33.4660   19.0450   39.5690 N   0  0  0  0  0  0
  -34.3220   18.3310   40.5320 C   0  0  2  0  0  0
  -34.0570   18.6910   42.0080 C   0  0  0  0  0  0
  -32.9570   19.0960   42.3770 O   0  0  0  0  0  0
  -34.1920   16.8210   40.3200 C   0  0  0  0  0  0
  -35.1610   15.9790   41.1320 C   0  0  0  0  0  0
  -36.6050   16.2910   40.8120 C   0  0  0  0  0  0
  -37.1300   15.8180   39.8010 O   0  0  0  0  0  0
  -37.2680   17.0710   41.6730 N   0  0  0  0  0  0
  -35.0660   18.5360   42.8500 N   0  0  0  0  0  0
  -34.8530   18.7390   44.2610 C   0  0  2  0  0  0
  -34.5050   17.4480   44.9710 C   0  0  0  0  0  0
  -34.7720   16.3720   44.4610 O   0  0  0  0  0  0
  -36.0640   19.4050   44.8960 C   0  0  0  0  0  0
  -36.1810   20.8440   44.4850 C   0  0  0  0  0  0
  -35.1320   21.5300   44.4540 O   0  0  0  0  0  0
  -37.3050   21.2850   44.1740 O   0  0  0  0  0  0
  -33.9130   17.5720   46.1530 N   0  0  0  0  0  0
  -33.4430   16.4200   46.9130 C   0  0  2  0  0  0
  -33.0480   16.9680   48.2820 C   0  0  0  0  0  0
  -32.8020   18.1660   48.4310 O   0  0  0  0  0  0
  -32.1970   15.8460   46.2400 C   0  0  0  0  0  0
  -31.1490   16.8900   45.9820 C   0  0  0  0  0  0
  -30.2280   17.2300   46.9690 C   0  0  0  0  0  0
  -31.1210   17.5830   44.7770 C   0  0  0  0  0  0
  -29.2730   18.2220   46.7460 C   0  0  0  0  0  0
  -30.1760   18.5730   44.5550 C   0  0  0  0  0  0
  -29.2390   18.8920   45.5520 C   0  0  0  0  0  0
  -32.9650   16.0840   49.2630 N   0  0  0  0  0  0
  -32.5420   16.4280   50.6090 C   0  0  2  0  0  0
  -31.1600   15.8490   50.8660 C   0  0  0  0  0  0
  -31.0120   14.6870   51.2440 O   0  0  0  0  0  0
  -33.5150   15.8460   51.6280 C   0  0  0  0  0  0
  -33.1340   16.1850   53.0660 C   0  0  0  0  0  0
  -32.0110   16.6900   53.3190 O   0  0  0  0  0  0
  -33.9800   15.9410   53.9400 O   0  0  0  0  0  0
  -30.1460   16.6670   50.6650 N   0  0  0  0  0  0
  -28.7910   16.2050   50.7680 C   0  0  2  0  0  0
  -28.4790   15.5310   52.1210 C   0  0  0  0  0  0
  -27.6140   14.6580   52.1930 O   0  0  0  0  0  0
  -27.8690   17.3830   50.5290 C   0  0  0  0  0  0
  -26.3910   17.1060   50.3880 C   0  0  0  0  0  0
  -26.1780   16.0890   49.2960 C   0  0  0  0  0  0
  -25.7080   18.4230   50.0580 C   0  0  0  0  0  0
  -29.1800   15.9220   53.1880 N   0  0  0  0  0  0
  -28.8080   15.4700   54.5330 C   0  0  2  0  0  0
  -29.2000   14.0350   54.7730 C   0  0  0  0  0  0
  -28.7180   13.3930   55.7270 O   0  0  0  0  0  0
  -29.4300   16.3380   55.6100 C   0  0  0  0  0  0
  -30.8370   16.1990   55.6830 O   0  0  0  0  0  0
  -30.0790   13.5230   53.9160 N   0  0  0  0  0  0
  -30.5180   12.1480   54.0650 C   0  0  2  0  0  0
  -29.6510   11.2180   53.2340 C   0  0  0  0  0  0
  -29.9230   10.0240   53.1820 O   0  0  0  0  0  0
  -31.9820   11.9740   53.6560 C   0  0  0  0  0  0
  -33.0010   12.3940   54.6850 C   0  0  0  0  0  0
  -34.4130   12.4310   54.1000 C   0  0  0  0  0  0
  -35.0820   11.3920   53.9730 O   0  0  0  0  0  0
  -34.8810   13.6290   53.7490 N   0  0  0  0  0  0
  -28.6230   11.7430   52.5750 N   0  0  0  0  0  0
  -27.8050   10.8830   51.7110 C   0  0  2  0  0  0
  -26.6040   10.3250   52.4420 C   0  0  0  0  0  0
  -25.5120   10.8720   52.3590 O   0  0  0  0  0  0
  -27.3630   11.6030   50.4350 C   0  0  0  0  0  0
  -28.5140   11.8940   49.4560 C   0  0  0  0  0  0
  -27.9900   12.5200   48.1970 C   0  0  0  0  0  0
  -29.2680   10.6140   49.1340 C   0  0  0  0  0  0
  -26.8210    9.2390   53.1730 N   0  0  0  0  0  0
  -25.7430    8.5290   53.8710 C   0  0  2  0  0  0
  -26.2410    7.1160   54.2070 C   0  0  0  0  0  0
  -25.4750    6.2690   54.6680 O   0  0  0  0  0  0
  -25.3390    9.2770   55.1430 C   0  0  0  0  0  0
  -26.5020    9.6030   56.0270 C   0  0  0  0  0  0
  -26.9460    8.7530   57.0190 N   0  0  0  0  0  0
  -27.3540   10.6550   56.0270 C   0  0  0  0  0  0
  -28.0040    9.2810   57.6100 C   0  0  0  0  0  0
  -28.2700   10.4380   57.0290 N   0  0  0  0  0  0
  -27.4170    6.8000   54.0230 O   0  0  0  0  0  0
  -31.2090   14.8963   15.0503 H   0  0  0  0  0  0
  -31.8724   13.5174   14.1095 H   0  0  0  0  0  0
  -31.5666   13.3387   15.8705 H   0  0  0  0  0  0
  -33.5180   15.1808   14.5364 H   0  0  0  0  0  0
  -34.0680   12.7203   16.3072 H   0  0  0  0  0  0
  -35.3012   13.7442   15.4963 H   0  0  0  0  0  0
  -33.9539   12.2823   12.1937 H   0  0  0  0  0  0
  -35.2645   15.9462   16.1644 H   0  0  0  0  0  0
  -33.6159   17.1850   18.2517 H   0  0  0  0  0  0
  -35.4457   18.4367   17.2044 H   0  0  0  0  0  0
  -36.6426   17.1979   17.7138 H   0  0  0  0  0  0
  -36.1953   17.7612   20.0501 H   0  0  0  0  0  0
  -35.0578   19.0401   19.5049 H   0  0  0  0  0  0
  -38.1457   20.9547   19.8644 H   0  0  0  0  0  0
  -33.2185   16.6975   20.2460 H   0  0  0  0  0  0
  -34.6986   14.3605   21.5366 H   0  0  0  0  0  0
  -32.5416   16.1100   22.8130 H   0  0  0  0  0  0
  -33.0469   14.4491   23.2743 H   0  0  0  0  0  0
  -32.0746   13.5579   21.2157 H   0  0  0  0  0  0
  -31.6188   15.2150   20.6933 H   0  0  0  0  0  0
  -28.4239   14.0873   22.1001 H   0  0  0  0  0  0
  -36.8006   15.4188   21.6024 H   0  0  0  0  0  0
  -36.8497   18.2328   22.6869 H   0  0  0  0  0  0
  -38.2430   17.2576   22.1087 H   0  0  0  0  0  0
  -36.9915   15.0703   24.1054 H   0  0  0  0  0  0
  -38.8604   15.7234   26.2650 H   0  0  0  0  0  0
  -37.4769   14.5822   26.3667 H   0  0  0  0  0  0
  -35.3542   16.3882   25.6856 H   0  0  0  0  0  0
  -34.1220   18.1840   26.6753 H   0  0  0  0  0  0
  -35.5959   18.7503   27.5318 H   0  0  0  0  0  0
  -34.1102   19.2309   29.2699 H   0  0  0  0  0  0
  -33.8637   16.7114   30.9808 H   0  0  0  0  0  0
  -31.5769   17.4079   31.7148 H   0  0  0  0  0  0
  -31.6446   16.9384   29.9823 H   0  0  0  0  0  0
  -31.6053   19.2857   29.3400 H   0  0  0  0  0  0
  -31.5512   19.7621   31.0711 H   0  0  0  0  0  0
  -27.9691   19.6094   29.7375 H   0  0  0  0  0  0
  -34.0760   17.1634   33.2144 H   0  0  0  0  0  0
  -34.6610   20.1311   33.7282 H   0  0  0  0  0  0
  -36.3639   17.7219   34.2328 H   0  0  0  0  0  0
  -36.2333   18.8335   35.6377 H   0  0  0  0  0  0
  -37.2268   20.6230   34.4253 H   0  0  0  0  0  0
  -37.1045   19.7325   32.8701 H   0  0  0  0  0  0
  -40.5350   18.6876   33.3849 H   0  0  0  0  0  0
  -33.9170   21.0123   35.6310 H   0  0  0  0  0  0
  -32.0766   19.4184   37.2878 H   0  0  0  0  0  0
  -32.2911   22.0371   36.9616 H   0  0  0  0  0  0
  -33.5152   21.9337   38.2722 H   0  0  0  0  0  0
  -30.3477   20.3657   40.1274 H   0  0  0  0  0  0
  -32.4289   19.2964   39.8359 H   0  0  0  0  0  0
  -35.3349   18.6840   40.2883 H   0  0  0  0  0  0
  -34.3739   16.5823   39.2617 H   0  0  0  0  0  0
  -33.1787   16.4973   40.5999 H   0  0  0  0  0  0
  -34.9888   14.9137   40.9187 H   0  0  0  0  0  0
  -35.0024   16.1687   42.2039 H   0  0  0  0  0  0
  -36.7557   17.4692   42.5612 H   0  0  0  0  0  0
  -38.3255   17.3142   41.4928 H   0  0  0  0  0  0
  -36.0625   18.2541   42.4792 H   0  0  0  0  0  0
  -33.9823   19.4090   44.3144 H   0  0  0  0  0  0
  -36.9779   18.8788   44.5831 H   0  0  0  0  0  0
  -35.9734   19.3627   45.9914 H   0  0  0  0  0  0
  -35.1756   22.5885   44.1580 H   0  0  0  0  0  0
  -33.7819   18.5872   46.5557 H   0  0  0  0  0  0
  -34.2353   15.6582   46.9563 H   0  0  0  0  0  0
  -31.7537   15.0743   46.8865 H   0  0  0  0  0  0
  -32.4748   15.3996   45.2738 H   0  0  0  0  0  0
  -30.2535   16.7142   47.9289 H   0  0  0  0  0  0
  -31.8481   17.3460   44.0003 H   0  0  0  0  0  0
  -28.5507   18.4650   47.5254 H   0  0  0  0  0  0
  -30.1600   19.1054   43.6040 H   0  0  0  0  0  0
  -28.4916   19.6658   45.3768 H   0  0  0  0  0  0
  -33.2352   15.0458   49.0198 H   0  0  0  0  0  0
  -32.5318   17.5268   50.6601 H   0  0  0  0  0  0
  -34.5227   16.2465   51.4431 H   0  0  0  0  0  0
  -33.5329   14.7502   51.5336 H   0  0  0  0  0  0
  -31.7386   16.9335   54.3565 H   0  0  0  0  0  0
  -30.3511   17.7184   50.4149 H   0  0  0  0  0  0
  -28.6962   15.4479   49.9756 H   0  0  0  0  0  0
  -28.1561   17.8899   49.5960 H   0  0  0  0  0  0
  -27.9498   18.0883   51.3693 H   0  0  0  0  0  0
  -25.9700   16.6886   51.3146 H   0  0  0  0  0  0
  -26.6838   15.1501   49.5656 H   0  0  0  0  0  0
  -25.1008   15.9030   49.1732 H   0  0  0  0  0  0
  -26.5940   16.4717   48.3523 H   0  0  0  0  0  0
  -25.8826   19.1409   50.8730 H   0  0  0  0  0  0
  -26.1201   18.8250   49.1207 H   0  0  0  0  0  0
  -24.6270   18.2563   49.9415 H   0  0  0  0  0  0
  -30.0437   16.5894   53.0513 H   0  0  0  0  0  0
  -27.7120   15.5609   54.5551 H   0  0  0  0  0  0
  -29.0140   16.0609   56.5899 H   0  0  0  0  0  0
  -29.2074   17.3952   55.4029 H   0  0  0  0  0  0
  -31.4089   16.7759   56.4247 H   0  0  0  0  0  0
  -30.4731   14.1403   53.0952 H   0  0  0  0  0  0
  -30.3959   11.9387   55.1380 H   0  0  0  0  0  0
  -32.1853   12.5743   52.7569 H   0  0  0  0  0  0
  -32.1791   10.9134   53.4410 H   0  0  0  0  0  0
  -32.9918   11.6809   55.5225 H   0  0  0  0  0  0
  -32.7538   13.3993   55.0568 H   0  0  0  0  0  0
  -34.2545   14.5238   53.8786 H   0  0  0  0  0  0
  -35.8937   13.7226   53.3298 H   0  0  0  0  0  0
  -28.3830   12.8120   52.6727 H   0  0  0  0  0  0
  -28.4764   10.0513   51.4514 H   0  0  0  0  0  0
  -26.9062   12.5684   50.6983 H   0  0  0  0  0  0
  -26.6281   10.9834   49.9002 H   0  0  0  0  0  0
  -29.2125   12.6107   49.9126 H   0  0  0  0  0  0
  -27.4474   13.4441   48.4453 H   0  0  0  0  0  0
  -28.8304   12.7568   47.5280 H   0  0  0  0  0  0
  -27.3081   11.8180   47.6948 H   0  0  0  0  0  0
  -29.6458   10.1669   50.0653 H   0  0  0  0  0  0
  -28.5907    9.9051   48.6353 H   0  0  0  0  0  0
  -30.1131   10.8438   48.4684 H   0  0  0  0  0  0
  -27.8563    8.8744   53.2448 H   0  0  0  0  0  0
  -24.8746    8.4957   53.1967 H   0  0  0  0  0  0
  -24.6406    8.6585   55.7259 H   0  0  0  0  0  0
  -24.8508   10.2247   54.8717 H   0  0  0  0  0  0
  -27.4182   11.5637   55.4105 H   0  0  0  0  0  0
  -28.5616    8.8380   58.4352 H   0  0  0  0  0  0
  -27.7583    5.7836   54.2688 H   0  0  0  0  0  0
  1  2  1  0  0  0
  1143  1  0  0  0
  1144  1  0  0  0
  1145  1  0  0  0
  2  3  1  0  0  0
  2  5  1  0  0  0
  2146  1  0  0  0
  3  4  2  0  0  0
  3  9  1  0  0  0
  5  6  1  0  0  0
  5147  1  0  0  0
  5148  1  0  0  0
  6  7  1  0  0  0
  6  8  2  0  0  0
  7149  1  0  0  0
  9 10  1  0  0  0
  9150  1  0  0  0
 10 11  1  0  0  0
 10 13  1  0  0  0
 10151  1  0  0  0
 11 12  2  0  0  0
 11 18  1  0  0  0
 13 14  1  0  0  0
 13152  1  0  0  0
 13153  1  0  0  0
 14 15  1  0  0  0
 14154  1  0  0  0
 14155  1  0  0  0
 15 16  1  0  0  0
 15 17  2  0  0  0
 16156  1  0  0  0
 18 19  1  0  0  0
 18157  1  0  0  0
 19 20  1  0  0  0
 19 22  1  0  0  0
 19158  1  0  0  0
 20 21  2  0  0  0
 20 27  1  0  0  0
 22 23  1  0  0  0
 22159  1  0  0  0
 22160  1  0  0  0
 23 24  1  0  0  0
 23161  1  0  0  0
 23162  1  0  0  0
 24 25  1  0  0  0
 24 26  2  0  0  0
 25163  1  0  0  0
 27 28  1  0  0  0
 27164  1  0  0  0
 28 29  1  0  0  0
 28165  1  0  0  0
 28166  1  0  0  0
 29 30  2  0  0  0
 29 31  1  0  0  0
 31 32  1  0  0  0
 31167  1  0  0  0
 32 33  1  0  0  0
 32168  1  0  0  0
 32169  1  0  0  0
 33 34  2  0  0  0
 33 35  1  0  0  0
 35 36  1  0  0  0
 35170  1  0  0  0
 36 37  1  0  0  0
 36171  1  0  0  0
 36172  1  0  0  0
 37 38  2  0  0  0
 37 39  1  0  0  0
 39 40  1  0  0  0
 39173  1  0  0  0
 40 41  1  0  0  0
 40 43  1  0  0  0
 40174  1  0  0  0
 41 42  2  0  0  0
 41 48  1  0  0  0
 43 44  1  0  0  0
 43175  1  0  0  0
 43176  1  0  0  0
 44 45  1  0  0  0
 44177  1  0  0  0
 44178  1  0  0  0
 45 46  1  0  0  0
 45 47  2  0  0  0
 46179  1  0  0  0
 48 49  1  0  0  0
 48180  1  0  0  0
 49 50  1  0  0  0
 49 52  1  0  0  0
 49181  1  0  0  0
 50 51  2  0  0  0
 50 57  1  0  0  0
 52 53  1  0  0  0
 52182  1  0  0  0
 52183  1  0  0  0
 53 54  1  0  0  0
 53184  1  0  0  0
 53185  1  0  0  0
 54 55  2  0  0  0
 54 56  1  0  0  0
 56186  1  0  0  0
 57 58  1  0  0  0
 57187  1  0  0  0
 58 59  1  0  0  0
 58 61  1  0  0  0
 58188  1  0  0  0
 59 60  2  0  0  0
 59 65  1  0  0  0
 61 62  1  0  0  0
 61189  1  0  0  0
 61190  1  0  0  0
 62 63  1  0  0  0
 62 64  2  0  0  0
 63191  1  0  0  0
 65 66  1  0  0  0
 65192  1  0  0  0
 66 67  1  0  0  0
 66 69  1  0  0  0
 66193  1  0  0  0
 67 68  2  0  0  0
 67 74  1  0  0  0
 69 70  1  0  0  0
 69194  1  0  0  0
 69195  1  0  0  0
 70 71  1  0  0  0
 70196  1  0  0  0
 70197  1  0  0  0
 71 72  2  0  0  0
 71 73  1  0  0  0
 73198  1  0  0  0
 73199  1  0  0  0
 74 75  1  0  0  0
 74200  1  0  0  0
 75 76  1  0  0  0
 75 78  1  0  0  0
 75201  1  0  0  0
 76 77  2  0  0  0
 76 82  1  0  0  0
 78 79  1  0  0  0
 78202  1  0  0  0
 78203  1  0  0  0
 79 80  1  0  0  0
 79 81  2  0  0  0
 80204  1  0  0  0
 82 83  1  0  0  0
 82205  1  0  0  0
 83 84  1  0  0  0
 83 86  1  0  0  0
 83206  1  0  0  0
 84 85  2  0  0  0
 84 93  1  0  0  0
 86 87  1  0  0  0
 86207  1  0  0  0
 86208  1  0  0  0
 87 88  2  0  0  0
 87 89  1  0  0  0
 88 90  1  0  0  0
 88209  1  0  0  0
 89 91  2  0  0  0
 89210  1  0  0  0
 90 92  2  0  0  0
 90211  1  0  0  0
 91 92  1  0  0  0
 91212  1  0  0  0
 92213  1  0  0  0
 93 94  1  0  0  0
 93214  1  0  0  0
 94 95  1  0  0  0
 94 97  1  0  0  0
 94215  1  0  0  0
 95 96  2  0  0  0
 95101  1  0  0  0
 97 98  1  0  0  0
 97216  1  0  0  0
 97217  1  0  0  0
 98 99  1  0  0  0
 98100  2  0  0  0
 99218  1  0  0  0
101102  1  0  0  0
101219  1  0  0  0
102103  1  0  0  0
102105  1  0  0  0
102220  1  0  0  0
103104  2  0  0  0
103109  1  0  0  0
105106  1  0  0  0
105221  1  0  0  0
105222  1  0  0  0
106107  1  0  0  0
106108  1  0  0  0
106223  1  0  0  0
107224  1  0  0  0
107225  1  0  0  0
107226  1  0  0  0
108227  1  0  0  0
108228  1  0  0  0
108229  1  0  0  0
109110  1  0  0  0
109230  1  0  0  0
110111  1  0  0  0
110113  1  0  0  0
110231  1  0  0  0
111112  2  0  0  0
111115  1  0  0  0
113114  1  0  0  0
113232  1  0  0  0
113233  1  0  0  0
114234  1  0  0  0
115116  1  0  0  0
115235  1  0  0  0
116117  1  0  0  0
116119  1  0  0  0
116236  1  0  0  0
117118  2  0  0  0
117124  1  0  0  0
119120  1  0  0  0
119237  1  0  0  0
119238  1  0  0  0
120121  1  0  0  0
120239  1  0  0  0
120240  1  0  0  0
121122  2  0  0  0
121123  1  0  0  0
123241  1  0  0  0
123242  1  0  0  0
124125  1  0  0  0
124243  1  0  0  0
125126  1  0  0  0
125128  1  0  0  0
125244  1  0  0  0
126127  2  0  0  0
126132  1  0  0  0
128129  1  0  0  0
128245  1  0  0  0
128246  1  0  0  0
129130  1  0  0  0
129131  1  0  0  0
129247  1  0  0  0
130248  1  0  0  0
130249  1  0  0  0
130250  1  0  0  0
131251  1  0  0  0
131252  1  0  0  0
131253  1  0  0  0
132133  1  0  0  0
132254  1  0  0  0
133134  1  0  0  0
133136  1  0  0  0
133255  1  0  0  0
134135  2  0  0  0
134142  1  0  0  0
136137  1  0  0  0
136256  1  0  0  0
136257  1  0  0  0
137138  2  0  0  0
137139  1  0  0  0
138140  1  0  0  0
139141  2  0  0  0
139258  1  0  0  0
140141  1  0  0  0
140259  1  0  0  0
142260  1  0  0  0
M  CHG  1   1   1
M  END
> <s_m_source_file>
../3l6x_ligand.sdf

> <i_m_source_file_index>
1

> <s_epik_input>
W09IXUMoPU8pW0NIMl1bQ0BIXShbTkgzK10pQyg9TylbTkhdW0NAQEhdKFtDSDJdW0NIMl1DKD1PKVtPSF0pQyg9TylbTkhdW0NAQEhdKFtDSDJdW0NIMl1DKD1PKVtPSF0pQyg9TylbTkhdW0NIMl1DKD1PKVtOSF1bQ0gyXUMoPU8pW05IXVtDSDJdQyg9TylbTkhdW0NAQEhdKFtDSDJdW0NIMl1DKD1PKVtPSF0pQyg9TylbTkhdW0NAQEhdKFtDSDJdW0NIMl1DKD1PKVtPSF0pQyg9TylbTkhdW0NAQEhdKFtDSDJdQyg9TylbT0hdKUMoPU8pW05IXVtDQEBIXShbQ0gyXVtDSDJdQyg9TylbTkgyXSlDKD1PKVtOSF1bQ0BASF0oW0NIMl1DKD1PKVtPSF0pQyg9TylbTkhdW0NAQEhdKFtDSDJdYzFbY0hdW2NIXVtjSF1bY0hdW2NIXTEpQyg9TylbTkhdW0NAQEhdKFtDSDJdQyg9TylbT0hdKUMoPU8pW05IXVtDQEBIXShbQ0gyXVtDSF0oW0NIM10pW0NIM10pQyg9TylbTkhdW0NAQEhdKFtDSDJdW09IXSlDKD1PKVtOSF1bQ0BASF0oW0NIMl1bQ0gyXUMoPU8pW05IMl0pQyg9TylbTkhdW0NAQEhdKFtDSDJdW0NIXShbQ0gzXSlbQ0gzXSlDKD1PKVtOSF1bQ0BIXShDKD1PKVtPSF0pW0NIMl1DMj1OW0NIMl1OPVtDSF0y

> <s_epik_cmdline>
J2VwaWtfYXBwJywgJy1pbWFlJywgJ2xpZ2FuZF9wcm8ubWFlJywgJy1vbWFlJywgJ2xpZ2FuZF9wcmVwLm1hZScsICctbXMnLCAnMScsICctcGgnLCAnNycsICctcGh0JywgJzAuNScsICctbnQn

> <s_epik_pKa_notes>
Molecule size exceeds maximum supported for generating protonation states

> <s_epik_Chemistry_Notes>
This compound has an imine and may undergo hydrolysis.

$$$$
