3l79_ligand
                    3D
 Schrodinger Suite 2020-3.
 32 33  0  0  1  0            999 V2000
   33.3790   22.8650   27.7770 C   0  0  1  0  0  0
   34.2690   23.5770   28.7220 N   0  0  0  0  0  0
   33.7620   23.0570   26.2970 C   0  0  2  0  0  0
   34.4670   24.8990   30.7290 N   0  0  0  0  0  0
   33.8460   24.4570   25.9890 O   0  0  0  0  0  0
   32.7410   22.3520   25.3860 C   0  0  1  0  0  0
   33.2030   22.3390   24.0830 F   0  0  0  0  0  0
   32.4510   20.9180   25.8740 C   0  0  2  0  0  0
   31.2630   20.4540   25.2380 O   0  0  0  0  0  0
   32.2910   20.8210   27.4180 C   0  0  2  0  0  0
   33.3950   21.4610   28.0930 O   0  0  0  0  0  0
   32.2670   19.3730   27.9320 C   0  0  0  0  0  0
   33.3510   18.6570   27.3190 O   0  0  0  0  0  0
   35.6730   23.6180   28.5520 C   0  0  0  0  0  0
   36.4730   24.2970   29.4740 C   0  0  0  0  0  0
   35.8580   24.9460   30.5550 C   0  0  0  0  0  0
   36.5290   25.5650   31.3790 O   0  0  0  0  0  0
   33.6660   24.2100   29.8140 C   0  0  0  0  0  0
   32.4430   24.1690   29.9560 O   0  0  0  0  0  0
   32.3661   23.2579   27.9491 H   0  0  0  0  0  0
   34.7728   22.6718   26.0971 H   0  0  0  0  0  0
   34.0027   25.4055   31.5880 H   0  0  0  0  0  0
   34.5336   25.1040   26.5534 H   0  0  0  0  0  0
   31.8091   22.9316   25.3110 H   0  0  0  0  0  0
   33.2623   20.2486   25.5519 H   0  0  0  0  0  0
   31.1928   20.4490   24.1403 H   0  0  0  0  0  0
   31.3649   21.3520   27.6831 H   0  0  0  0  0  0
   32.3846   19.3702   29.0257 H   0  0  0  0  0  0
   31.3080   18.9050   27.6651 H   0  0  0  0  0  0
   33.5117   17.5947   27.5550 H   0  0  0  0  0  0
   36.1318   23.1182   27.6989 H   0  0  0  0  0  0
   37.5563   24.3221   29.3556 H   0  0  0  0  0  0
  1  2  1  0  0  0
  1  3  1  0  0  0
  1 11  1  0  0  0
  1 20  1  0  0  0
  2 14  1  0  0  0
  2 18  1  0  0  0
  3  5  1  0  0  0
  3  6  1  0  0  0
  3 21  1  0  0  0
  4 16  1  0  0  0
  4 18  1  0  0  0
  4 22  1  0  0  0
  5 23  1  0  0  0
  6  7  1  0  0  0
  6  8  1  0  0  0
  6 24  1  0  0  0
  8  9  1  0  0  0
  8 10  1  0  0  0
  8 25  1  0  0  0
  9 26  1  0  0  0
 10 11  1  0  0  0
 10 12  1  0  0  0
 10 27  1  0  0  0
 12 13  1  0  0  0
 12 28  1  0  0  0
 12 29  1  0  0  0
 13 30  1  0  0  0
 14 15  2  0  0  0
 14 31  1  0  0  0
 15 16  1  0  0  0
 15 32  1  0  0  0
 16 17  2  0  0  0
 18 19  2  0  0  0
M  END
> <s_m_source_file>
../3l79_ligand.sdf

> <i_m_source_file_index>
1

> <s_epik_input>
W09IXVtDSDJdW0NAQEhdKE8xKVtDQEBIXShbT0hdKVtDQEhdKEYpW0NAQEhdKFtPSF0pW0NAQEhdMW4yW2NIXVtjSF1jKD1PKVtuSF1jMj1P

> <s_epik_cmdline>
J2VwaWtfYXBwJywgJy1pbWFlJywgJ2xpZ2FuZF9wcm8ubWFlJywgJy1vbWFlJywgJ2xpZ2FuZF9wcmVwLm1hZScsICctbXMnLCAnMScsICctcGgnLCAnNycsICctcGh0JywgJzAuNScsICctbnQn

> <r_lp_tautomer_probability>
1

> <r_epik_Ionization_Penalty>
  0.0048

> <r_epik_Ionization_Penalty_Charging>
  0.0048

> <r_epik_Ionization_Penalty_Neutral>
  0.0000

> <r_epik_State_Penalty>
 -0.0000

> <r_epik_Charging_Adjusted_Penalty>
0.00480321218154038

> <i_epik_Tot_Q>
0

> <i_epik_Tot_abs_Q>
0

> <s_epik_Chemistry_Notes>
This compound contains an acetal/aminal-like group ( X-CH(R)-Y where X, Y are N, S, or O) that may be acid/base labile, releasing an aldehyde.

$$$$
