3l7a_ligand
                    3D
 Schrodinger Suite 2020-3.
 45 47  0  0  1  0            999 V2000
   33.5050   23.0120   27.8130 C   0  0  1  0  0  0
   34.3980   23.6190   28.8290 N   0  0  0  0  0  0
   33.9080   23.1720   26.3340 C   0  0  2  0  0  0
   34.5880   24.6950   30.9500 N   0  0  0  0  0  0
   34.0050   24.5640   25.9920 O   0  0  0  0  0  0
   32.9000   22.4480   25.4120 C   0  0  1  0  0  0
   33.3890   22.3890   24.1180 F   0  0  0  0  0  0
   36.6040   25.3240   31.8530 N   0  0  0  0  0  0
   32.5580   21.0270   25.9220 C   0  0  2  0  0  0
   31.3810   20.5430   25.2730 O   0  0  0  0  0  0
   32.3660   20.9550   27.4620 C   0  0  2  0  0  0
   33.4620   21.5930   28.1440 O   0  0  0  0  0  0
   32.3180   19.5000   27.9330 C   0  0  0  0  0  0
   33.4380   18.8020   27.3630 O   0  0  0  0  0  0
   35.7990   23.6640   28.6800 C   0  0  0  0  0  0
   36.5680   24.2390   29.6950 C   0  0  0  0  0  0
   35.9280   24.7690   30.8310 C   0  0  0  0  0  0
   33.8120   24.1430   29.9980 C   0  0  0  0  0  0
   32.5890   24.1130   30.1510 O   0  0  0  0  0  0
   37.8590   25.7970   31.7850 C   0  0  0  0  0  0
   38.5480   25.8010   30.7620 O   0  0  0  0  0  0
   38.4210   26.3660   33.1040 C   0  0  0  0  0  0
   39.7850   26.6670   33.2040 C   0  0  0  0  0  0
   40.3190   27.1730   34.3920 C   0  0  0  0  0  0
   39.4770   27.3780   35.4880 C   0  0  0  0  0  0
   38.1190   27.0760   35.3970 C   0  0  0  0  0  0
   37.5930   26.5700   34.2070 C   0  0  0  0  0  0
   32.5334   23.5176   27.9154 H   0  0  0  0  0  0
   34.9223   22.7799   26.1680 H   0  0  0  0  0  0
   34.6822   25.2229   26.5553 H   0  0  0  0  0  0
   31.9842   23.0474   25.3026 H   0  0  0  0  0  0
   36.1286   25.4176   32.8405 H   0  0  0  0  0  0
   33.3674   20.3453   25.6217 H   0  0  0  0  0  0
   31.3297   20.5174   24.1745 H   0  0  0  0  0  0
   31.4551   21.5023   27.7463 H   0  0  0  0  0  0
   32.3737   19.4681   29.0311 H   0  0  0  0  0  0
   31.3771   19.0376   27.6000 H   0  0  0  0  0  0
   33.5885   17.7340   27.5794 H   0  0  0  0  0  0
   36.2746   23.2569   27.7877 H   0  0  0  0  0  0
   37.6539   24.2768   29.6078 H   0  0  0  0  0  0
   40.4372   26.5048   32.3458 H   0  0  0  0  0  0
   41.3816   27.4054   34.4630 H   0  0  0  0  0  0
   39.8835   27.7756   36.4179 H   0  0  0  0  0  0
   37.4672   27.2352   36.2560 H   0  0  0  0  0  0
   36.5311   26.3335   34.1399 H   0  0  0  0  0  0
  1  2  1  0  0  0
  1  3  1  0  0  0
  1 12  1  0  0  0
  1 28  1  0  0  0
  2 15  1  0  0  0
  2 18  1  0  0  0
  3  5  1  0  0  0
  3  6  1  0  0  0
  3 29  1  0  0  0
  4 17  2  0  0  0
  4 18  1  0  0  0
  5 30  1  0  0  0
  6  7  1  0  0  0
  6  9  1  0  0  0
  6 31  1  0  0  0
  8 17  1  0  0  0
  8 20  1  0  0  0
  8 32  1  0  0  0
  9 10  1  0  0  0
  9 11  1  0  0  0
  9 33  1  0  0  0
 10 34  1  0  0  0
 11 12  1  0  0  0
 11 13  1  0  0  0
 11 35  1  0  0  0
 13 14  1  0  0  0
 13 36  1  0  0  0
 13 37  1  0  0  0
 14 38  1  0  0  0
 15 16  2  0  0  0
 15 39  1  0  0  0
 16 17  1  0  0  0
 16 40  1  0  0  0
 18 19  2  0  0  0
 20 21  2  0  0  0
 20 22  1  0  0  0
 22 23  2  0  0  0
 22 27  1  0  0  0
 23 24  1  0  0  0
 23 41  1  0  0  0
 24 25  2  0  0  0
 24 42  1  0  0  0
 25 26  1  0  0  0
 25 43  1  0  0  0
 26 27  2  0  0  0
 26 44  1  0  0  0
 27 45  1  0  0  0
M  END
> <s_m_source_file>
../3l7a_ligand.sdf

> <i_m_source_file_index>
1

> <s_epik_input>
W09IXVtDSDJdW0NAQEhdKE8xKVtDQEBIXShbT0hdKVtDQEhdKEYpW0NAQEhdKFtPSF0pW0NAQEhdMW4yW2NIXVtjSF1jKG5jMj1PKVtOSF1DKD1PKWMzW2NIXVtjSF1bY0hdW2NIXVtjSF0z

> <s_epik_cmdline>
J2VwaWtfYXBwJywgJy1pbWFlJywgJ2xpZ2FuZF9wcm8ubWFlJywgJy1vbWFlJywgJ2xpZ2FuZF9wcmVwLm1hZScsICctbXMnLCAnMScsICctcGgnLCAnNycsICctcGh0JywgJzAuNScsICctbnQn

> <r_lp_tautomer_probability>
1

> <r_epik_Ionization_Penalty>
  0.0002

> <r_epik_Ionization_Penalty_Charging>
  0.0000

> <r_epik_Ionization_Penalty_Neutral>
  0.0002

> <r_epik_State_Penalty>
 -0.0000

> <r_epik_Charging_Adjusted_Penalty>
3.91231133688316e-09

> <i_epik_Tot_Q>
0

> <i_epik_Tot_abs_Q>
0

> <s_epik_Chemistry_Notes>
This compound contains an acetal/aminal-like group ( X-CH(R)-Y where X, Y are N, S, or O) that may be acid/base labile, releasing an aldehyde.

$$$$
