3l7c_ligand
                    3D
 Schrodinger Suite 2020-3.
 32 33  0  0  1  0            999 V2000
   33.3430   22.9030   27.7890 C   0  0  1  0  0  0
   34.1780   23.5970   28.7930 N   0  0  0  0  0  0
   33.7820   23.1050   26.3240 C   0  0  2  0  0  0
   34.3500   24.9300   30.8100 N   0  0  0  0  0  0
   33.8490   24.5030   26.0120 O   0  0  0  0  0  0
   32.8160   22.3780   25.3640 C   0  0  1  0  0  0
   33.3240   22.3630   24.0780 F   0  0  0  0  0  0
   32.4890   20.9500   25.8580 C   0  0  2  0  0  0
   31.2910   20.4920   25.2390 O   0  0  0  0  0  0
   32.3120   20.8650   27.3990 C   0  0  2  0  0  0
   33.4040   21.5030   28.0840 O   0  0  0  0  0  0
   32.2650   19.4230   27.8750 C   0  0  0  0  0  0
   33.3550   18.7210   27.2680 O   0  0  0  0  0  0
   35.5820   23.5700   28.6990 C   0  0  0  0  0  0
   36.3570   24.2230   29.6550 C   0  0  0  0  0  0
   37.6930   24.1890   29.5400 F   0  0  0  0  0  0
   35.7440   24.9090   30.7110 C   0  0  0  0  0  0
   36.4070   25.4970   31.5670 O   0  0  0  0  0  0
   33.5580   24.2730   29.8580 C   0  0  0  0  0  0
   32.3330   24.3060   29.9580 O   0  0  0  0  0  0
   32.3208   23.2889   27.9161 H   0  0  0  0  0  0
   34.8106   22.7445   26.1756 H   0  0  0  0  0  0
   33.8656   25.4652   31.6400 H   0  0  0  0  0  0
   34.4950   25.1682   26.6037 H   0  0  0  0  0  0
   31.8900   22.9560   25.2284 H   0  0  0  0  0  0
   33.2913   20.2725   25.5304 H   0  0  0  0  0  0
   31.2113   20.4728   24.1421 H   0  0  0  0  0  0
   31.3963   21.4038   27.6838 H   0  0  0  0  0  0
   32.3585   19.3953   28.9707 H   0  0  0  0  0  0
   31.3081   18.9695   27.5771 H   0  0  0  0  0  0
   33.5071   17.6524   27.4799 H   0  0  0  0  0  0
   36.0631   23.0381   27.8782 H   0  0  0  0  0  0
  1  2  1  0  0  0
  1  3  1  0  0  0
  1 11  1  0  0  0
  1 21  1  0  0  0
  2 14  1  0  0  0
  2 19  1  0  0  0
  3  5  1  0  0  0
  3  6  1  0  0  0
  3 22  1  0  0  0
  4 17  1  0  0  0
  4 19  1  0  0  0
  4 23  1  0  0  0
  5 24  1  0  0  0
  6  7  1  0  0  0
  6  8  1  0  0  0
  6 25  1  0  0  0
  8  9  1  0  0  0
  8 10  1  0  0  0
  8 26  1  0  0  0
  9 27  1  0  0  0
 10 11  1  0  0  0
 10 12  1  0  0  0
 10 28  1  0  0  0
 12 13  1  0  0  0
 12 29  1  0  0  0
 12 30  1  0  0  0
 13 31  1  0  0  0
 14 15  2  0  0  0
 14 32  1  0  0  0
 15 16  1  0  0  0
 15 17  1  0  0  0
 17 18  2  0  0  0
 19 20  2  0  0  0
M  END
> <s_m_source_file>
../3l7c_ligand.sdf

> <i_m_source_file_index>
1

> <s_epik_input>
W09IXVtDSDJdW0NAQEhdKE8xKVtDQEBIXShbT0hdKVtDQEhdKEYpW0NAQEhdKFtPSF0pW0NAQEhdMW4yW2NIXWMoRiljKD1PKVtuSF1jMj1P

> <s_epik_cmdline>
J2VwaWtfYXBwJywgJy1pbWFlJywgJ2xpZ2FuZF9wcm8ubWFlJywgJy1vbWFlJywgJ2xpZ2FuZF9wcmVwLm1hZScsICctbXMnLCAnMScsICctcGgnLCAnNycsICctcGh0JywgJzAuNScsICctbnQn

> <r_lp_tautomer_probability>
0.999537046341301

> <r_epik_Ionization_Penalty>
  0.0815

> <r_epik_Ionization_Penalty_Charging>
  0.0815

> <r_epik_Ionization_Penalty_Neutral>
  0.0000

> <r_epik_State_Penalty>
  0.0722

> <r_epik_Charging_Adjusted_Penalty>
0.153726593816176

> <i_epik_Tot_Q>
0

> <i_epik_Tot_abs_Q>
0

> <s_epik_Chemistry_Notes>
This compound contains an acetal/aminal-like group ( X-CH(R)-Y where X, Y are N, S, or O) that may be acid/base labile, releasing an aldehyde.

$$$$
