3l7g_ligand
                    3D
 Schrodinger Suite 2020-3.
 27 26  0  0  1  0            999 V2000
   17.2560   32.4750    7.6090 P   0  0  0  0  0  0
   15.1320   33.1470    6.2340 C   0  0  0  0  0  0
   16.0490   32.0450    6.5060 N   0  0  1  0  0  0
   17.0300   31.7010    8.8590 O   0  0  0  0  0  0
   13.9430   32.9730    7.1620 C   0  0  0  0  0  0
   18.7990   32.1350    6.9920 N   0  0  1  0  0  0
   17.1850   33.9430    7.9070 O   0  5  0  0  0  0
   14.6670   33.0990    4.7910 C   0  0  0  0  0  0
   19.1280   32.9400    5.8200 C   0  0  0  0  0  0
   18.9160   32.1040    4.5630 C   0  0  0  0  0  0
   20.5830   33.3700    5.9050 C   0  0  0  0  0  0
   15.6603   34.0960    6.4082 H   0  0  0  0  0  0
   16.5120   31.7435    5.5548 H   0  0  0  0  0  0
   14.2851   33.0085    8.2068 H   0  0  0  0  0  0
   13.4637   32.0025    6.9658 H   0  0  0  0  0  0
   13.2188   33.7819    6.9856 H   0  0  0  0  0  0
   19.5557   32.3394    7.7638 H   0  0  0  0  0  0
   15.5316   33.2255    4.1228 H   0  0  0  0  0  0
   13.9436   33.9081    4.6118 H   0  0  0  0  0  0
   14.1886   32.1287    4.5920 H   0  0  0  0  0  0
   18.4653   33.8180    5.8200 H   0  0  0  0  0  0
   17.8625   31.7934    4.5026 H   0  0  0  0  0  0
   19.5594   31.2127    4.6026 H   0  0  0  0  0  0
   19.1731   32.7027    3.6768 H   0  0  0  0  0  0
   20.7347   33.9731    6.8123 H   0  0  0  0  0  0
   20.8406   33.9691    5.0192 H   0  0  0  0  0  0
   21.2269   32.4790    5.9450 H   0  0  0  0  0  0
  1  3  1  0  0  0
  1  4  2  0  0  0
  1  6  1  0  0  0
  1  7  1  0  0  0
  2  3  1  0  0  0
  2  5  1  0  0  0
  2  8  1  0  0  0
  2 12  1  0  0  0
  3 13  1  0  0  0
  5 14  1  0  0  0
  5 15  1  0  0  0
  5 16  1  0  0  0
  6  9  1  0  0  0
  6 17  1  0  0  0
  8 18  1  0  0  0
  8 19  1  0  0  0
  8 20  1  0  0  0
  9 10  1  0  0  0
  9 11  1  0  0  0
  9 21  1  0  0  0
 10 22  1  0  0  0
 10 23  1  0  0  0
 10 24  1  0  0  0
 11 25  1  0  0  0
 11 26  1  0  0  0
 11 27  1  0  0  0
M  CHG  1   7  -1
M  END
> <s_m_source_file>
../3l7g_ligand.sdf

> <i_m_source_file_index>
1

> <s_epik_input>
W0NIM11bQ0hdKFtDSDNdKVtOSF1QKD1PKShbT0hdKVtOSF1bQ0hdKFtDSDNdKVtDSDNd

> <s_epik_cmdline>
J2VwaWtfYXBwJywgJy1pbWFlJywgJ2xpZ2FuZF9wcm8ubWFlJywgJy1vbWFlJywgJ2xpZ2FuZF9wcmVwLm1hZScsICctbXMnLCAnMScsICctcGgnLCAnNycsICctcGh0JywgJzAuNScsICctbnQn

> <r_lp_tautomer_probability>
1

> <r_epik_Ionization_Penalty>
  0.0020

> <r_epik_Ionization_Penalty_Charging>
  0.0009

> <r_epik_Ionization_Penalty_Neutral>
  0.0011

> <r_epik_State_Penalty>
 -0.0000

> <r_epik_Charging_Adjusted_Penalty>
0.000921171021224093

> <i_epik_Tot_Q>
-1

> <i_epik_Tot_abs_Q>
1

$$$$
