3l81_ligand
                    3D
 Schrodinger Suite 2020-3.
132134  0  0  1  0            999 V2000
  -23.7480    7.1430   36.5360 N   0  3  0  0  0  0
  -22.2480    7.1610   36.5650 C   0  0  2  0  0  0
  -21.6320    6.9800   35.1750 C   0  0  0  0  0  0
  -20.5130    7.4350   34.9260 O   0  0  0  0  0  0
  -21.6450    6.0390   37.4660 C   0  0  2  0  0  0
  -22.5980    5.6060   38.4420 O   0  0  0  0  0  0
  -20.3360    6.5170   38.1570 C   0  0  0  0  0  0
  -22.3650    6.3120   34.2850 N   0  0  0  0  0  0
  -21.8010    5.8500   33.0220 C   0  0  2  0  0  0
  -22.3830    6.5550   31.8060 C   0  0  0  0  0  0
  -23.5590    6.9500   31.8140 O   0  0  0  0  0  0
  -22.0340    4.3530   32.8860 C   0  0  0  0  0  0
  -21.4820    3.5220   34.0120 C   0  0  0  0  0  0
  -20.1150    3.2710   34.1100 C   0  0  0  0  0  0
  -22.3350    2.9710   34.9750 C   0  0  0  0  0  0
  -19.6000    2.4970   35.1330 C   0  0  0  0  0  0
  -21.8310    2.1860   36.0160 C   0  0  0  0  0  0
  -20.4610    1.9570   36.0840 C   0  0  0  0  0  0
  -19.9670    1.1820   37.1060 O   0  0  0  0  0  0
  -21.5760    6.6960   30.7560 N   0  0  0  0  0  0
  -22.0360    7.3140   29.5040 C   0  0  2  0  0  0
  -22.5340    6.2380   28.5460 C   0  0  0  0  0  0
  -21.8830    5.2140   28.3840 O   0  0  0  0  0  0
  -20.8830    8.0790   28.8690 C   0  0  0  0  0  0
  -21.2130    8.7440   27.5700 C   0  0  0  0  0  0
  -20.1940    9.8130   27.2000 C   0  0  0  0  0  0
  -20.7210   10.6950   26.0560 C   0  0  0  0  0  0
  -19.9030   11.9580   25.8780 N   0  3  0  0  0  0
  -23.6710    6.4870   27.9040 N   0  0  0  0  0  0
  -24.2790    5.5320   26.9580 C   0  0  2  0  0  0
  -24.4150    6.1300   25.5660 C   0  0  0  0  0  0
  -24.4820    7.3540   25.3990 O   0  0  0  0  0  0
  -25.6500    5.0430   27.4460 C   0  0  0  0  0  0
  -25.5720    4.2690   28.7010 C   0  0  0  0  0  0
  -25.6330    4.9230   29.9400 C   0  0  0  0  0  0
  -25.4210    2.8810   28.6760 C   0  0  0  0  0  0
  -25.5590    4.1930   31.1410 C   0  0  0  0  0  0
  -25.3050    2.1470   29.8670 C   0  0  0  0  0  0
  -25.3970    2.8070   31.1030 C   0  0  0  0  0  0
  -24.4410    5.2840   24.5540 N   0  0  0  0  0  0
  -24.7250    5.7350   23.1960 C   0  0  2  0  0  0
  -25.7760    4.8290   22.6070 C   0  0  0  0  0  0
  -25.9760    3.7370   23.0860 O   0  0  0  0  0  0
  -23.4570    5.7120   22.3220 C   0  0  0  0  0  0
  -22.7130    4.3950   22.3280 C   0  0  0  0  0  0
  -23.0650    3.3790   21.4600 C   0  0  0  0  0  0
  -21.6200    4.2150   23.1560 C   0  0  0  0  0  0
  -22.3500    2.1620   21.4800 C   0  0  0  0  0  0
  -20.9020    3.0060   23.1830 C   0  0  0  0  0  0
  -21.2770    1.9920   22.3050 C   0  0  0  0  0  0
  -26.4380    5.3110   21.5600 N   0  0  0  0  0  0
  -27.4730    4.5560   20.8620 C   0  0  2  0  0  0
  -26.9590    3.8080   19.6400 C   0  0  0  0  0  0
  -27.5760    2.8230   19.1920 O   0  0  0  0  0  0
  -28.6170    5.4900   20.4660 C   0  0  0  0  0  0
  -29.2130    6.2220   21.6720 C   0  0  0  0  0  0
  -29.7490    5.2750   22.7540 C   0  0  0  0  0  0
  -30.3220    4.2090   22.4120 O   0  0  0  0  0  0
  -29.5940    5.6110   23.9580 O   0  5  0  0  0  0
  -25.8320    4.2600   19.1060 N   0  0  0  0  0  0
  -25.2210    3.5460   17.9830 C   0  0  2  0  0  0
  -23.7130    3.7230   17.9750 C   0  0  0  0  0  0
  -22.9900    2.8550   17.4570 O   0  0  0  0  0  0
  -25.8260    4.0410   16.6530 C   0  0  0  0  0  0
  -25.7360    5.5560   16.4510 C   0  0  0  0  0  0
  -26.3250    6.0340   15.1350 C   0  0  0  0  0  0
  -26.1370    5.4080   14.0920 O   0  0  0  0  0  0
  -27.0280    7.1680   15.1770 N   0  0  0  0  0  0
  -23.2090    4.7540   18.4630 O   0  5  0  0  0  0
  -24.1119    7.9534   35.8873 H   0  0  0  0  0  0
  -24.1362    7.2868   37.5551 H   0  0  0  0  0  0
  -24.0956    6.1756   36.1443 H   0  0  0  0  0  0
  -22.0343    8.1656   36.9589 H   0  0  0  0  0  0
  -21.4533    5.1335   36.8716 H   0  0  0  0  0  0
  -23.5829    5.2349   38.1222 H   0  0  0  0  0  0
  -19.6166    6.8454   37.3924 H   0  0  0  0  0  0
  -19.9030    5.6878   38.7357 H   0  0  0  0  0  0
  -20.5627    7.3558   38.8316 H   0  0  0  0  0  0
  -23.4202    6.1113   34.5223 H   0  0  0  0  0  0
  -20.7333    6.1055   33.0909 H   0  0  0  0  0  0
  -23.1148    4.1524   32.8452 H   0  0  0  0  0  0
  -21.5586    3.9903   31.9627 H   0  0  0  0  0  0
  -19.4391    3.6928   33.3662 H   0  0  0  0  0  0
  -23.4073    3.1566   34.9124 H   0  0  0  0  0  0
  -18.5278    2.3110   35.1945 H   0  0  0  0  0  0
  -22.5012    1.7601   36.7627 H   0  0  0  0  0  0
  -18.8864    0.9892   37.1771 H   0  0  0  0  0  0
  -20.5404    6.3355   30.8433 H   0  0  0  0  0  0
  -22.8587    7.9995   29.7556 H   0  0  0  0  0  0
  -20.5466    8.8707   29.5546 H   0  0  0  0  0  0
  -20.0504    7.3884   28.6697 H   0  0  0  0  0  0
  -21.2286    7.9925   26.7669 H   0  0  0  0  0  0
  -22.2007    9.2225   27.6436 H   0  0  0  0  0  0
  -19.9950   10.4485   28.0755 H   0  0  0  0  0  0
  -19.2593    9.3321   26.8759 H   0  0  0  0  0  0
  -20.6857   10.1311   25.1122 H   0  0  0  0  0  0
  -21.7593   10.9895   26.2685 H   0  0  0  0  0  0
  -20.3198   12.5512   25.0507 H   0  0  0  0  0  0
  -18.8609   11.6906   25.6489 H   0  0  0  0  0  0
  -19.9346   12.5490   26.8052 H   0  0  0  0  0  0
  -24.1607    7.4518   28.1025 H   0  0  0  0  0  0
  -23.5694    4.6921   26.9248 H   0  0  0  0  0  0
  -26.3048    5.9082   27.6267 H   0  0  0  0  0  0
  -26.1018    4.3948   26.6807 H   0  0  0  0  0  0
  -25.7388    6.0073   29.9732 H   0  0  0  0  0  0
  -25.3928    2.3604   27.7188 H   0  0  0  0  0  0
  -25.6280    4.7088   32.0988 H   0  0  0  0  0  0
  -25.1442    1.0695   29.8325 H   0  0  0  0  0  0
  -25.3420    2.2381   32.0311 H   0  0  0  0  0  0
  -24.2431    4.2199   24.7500 H   0  0  0  0  0  0
  -25.0994    6.7663   23.2745 H   0  0  0  0  0  0
  -23.7284    5.9205   21.2766 H   0  0  0  0  0  0
  -22.7525    6.4782   22.6777 H   0  0  0  0  0  0
  -23.8914    3.5168   20.7627 H   0  0  0  0  0  0
  -21.3065    5.0324   23.8053 H   0  0  0  0  0  0
  -22.6598    1.3463   20.8267 H   0  0  0  0  0  0
  -20.0715    2.8659   23.8749 H   0  0  0  0  0  0
  -20.7118    1.0604   22.2770 H   0  0  0  0  0  0
  -26.1761    6.3252   21.2242 H   0  0  0  0  0  0
  -27.7965    3.8042   21.5970 H   0  0  0  0  0  0
  -28.2452    6.2456   19.7583 H   0  0  0  0  0  0
  -29.4193    4.9063   19.9911 H   0  0  0  0  0  0
  -28.4405    6.8521   22.1369 H   0  0  0  0  0  0
  -30.0505    6.8534   21.3405 H   0  0  0  0  0  0
  -25.3564    5.1684   19.5044 H   0  0  0  0  0  0
  -25.4452    2.4818   18.1481 H   0  0  0  0  0  0
  -25.2965    3.5702   15.8116 H   0  0  0  0  0  0
  -26.8918    3.7717   16.6122 H   0  0  0  0  0  0
  -26.2819    6.0666   17.2581 H   0  0  0  0  0  0
  -24.6808    5.8663   16.4687 H   0  0  0  0  0  0
  -27.1693    7.6924   16.1336 H   0  0  0  0  0  0
  -27.4660    7.5780   14.2550 H   0  0  0  0  0  0
  1  2  1  0  0  0
  1 70  1  0  0  0
  1 71  1  0  0  0
  1 72  1  0  0  0
  2  3  1  0  0  0
  2  5  1  0  0  0
  2 73  1  0  0  0
  3  4  2  0  0  0
  3  8  1  0  0  0
  5  6  1  0  0  0
  5  7  1  0  0  0
  5 74  1  0  0  0
  6 75  1  0  0  0
  7 76  1  0  0  0
  7 77  1  0  0  0
  7 78  1  0  0  0
  8  9  1  0  0  0
  8 79  1  0  0  0
  9 10  1  0  0  0
  9 12  1  0  0  0
  9 80  1  0  0  0
 10 11  2  0  0  0
 10 20  1  0  0  0
 12 13  1  0  0  0
 12 81  1  0  0  0
 12 82  1  0  0  0
 13 14  2  0  0  0
 13 15  1  0  0  0
 14 16  1  0  0  0
 14 83  1  0  0  0
 15 17  2  0  0  0
 15 84  1  0  0  0
 16 18  2  0  0  0
 16 85  1  0  0  0
 17 18  1  0  0  0
 17 86  1  0  0  0
 18 19  1  0  0  0
 19 87  1  0  0  0
 20 21  1  0  0  0
 20 88  1  0  0  0
 21 22  1  0  0  0
 21 24  1  0  0  0
 21 89  1  0  0  0
 22 23  2  0  0  0
 22 29  1  0  0  0
 24 25  1  0  0  0
 24 90  1  0  0  0
 24 91  1  0  0  0
 25 26  1  0  0  0
 25 92  1  0  0  0
 25 93  1  0  0  0
 26 27  1  0  0  0
 26 94  1  0  0  0
 26 95  1  0  0  0
 27 28  1  0  0  0
 27 96  1  0  0  0
 27 97  1  0  0  0
 28 98  1  0  0  0
 28 99  1  0  0  0
 28100  1  0  0  0
 29 30  1  0  0  0
 29101  1  0  0  0
 30 31  1  0  0  0
 30 33  1  0  0  0
 30102  1  0  0  0
 31 32  2  0  0  0
 31 40  1  0  0  0
 33 34  1  0  0  0
 33103  1  0  0  0
 33104  1  0  0  0
 34 35  2  0  0  0
 34 36  1  0  0  0
 35 37  1  0  0  0
 35105  1  0  0  0
 36 38  2  0  0  0
 36106  1  0  0  0
 37 39  2  0  0  0
 37107  1  0  0  0
 38 39  1  0  0  0
 38108  1  0  0  0
 39109  1  0  0  0
 40 41  1  0  0  0
 40110  1  0  0  0
 41 42  1  0  0  0
 41 44  1  0  0  0
 41111  1  0  0  0
 42 43  2  0  0  0
 42 51  1  0  0  0
 44 45  1  0  0  0
 44112  1  0  0  0
 44113  1  0  0  0
 45 46  2  0  0  0
 45 47  1  0  0  0
 46 48  1  0  0  0
 46114  1  0  0  0
 47 49  2  0  0  0
 47115  1  0  0  0
 48 50  2  0  0  0
 48116  1  0  0  0
 49 50  1  0  0  0
 49117  1  0  0  0
 50118  1  0  0  0
 51 52  1  0  0  0
 51119  1  0  0  0
 52 53  1  0  0  0
 52 55  1  0  0  0
 52120  1  0  0  0
 53 54  2  0  0  0
 53 60  1  0  0  0
 55 56  1  0  0  0
 55121  1  0  0  0
 55122  1  0  0  0
 56 57  1  0  0  0
 56123  1  0  0  0
 56124  1  0  0  0
 57 58  2  0  0  0
 57 59  1  0  0  0
 60 61  1  0  0  0
 60125  1  0  0  0
 61 62  1  0  0  0
 61 64  1  0  0  0
 61126  1  0  0  0
 62 63  2  0  0  0
 62 69  1  0  0  0
 64 65  1  0  0  0
 64127  1  0  0  0
 64128  1  0  0  0
 65 66  1  0  0  0
 65129  1  0  0  0
 65130  1  0  0  0
 66 67  2  0  0  0
 66 68  1  0  0  0
 68131  1  0  0  0
 68132  1  0  0  0
M  CHG  4   1   1  28   1  59  -1  69  -1
M  END
> <s_m_source_file>
../3l81_ligand.sdf

> <i_m_source_file_index>
1

> <s_epik_input>
W2NIXTFbY0hdYyhbT0hdKVtjSF1bY0hdYzFbQ0gyXVtDQEhdKFtOSF1DKD1PKVtDQEBIXShbTkgzK10pW0NASF0oW09IXSlbQ0gzXSlDKD1PKVtOSF1bQ0BASF0oW0NIMl1bQ0gyXVtDSDJdW0NIMl1bTkgzK10pQyg9TylbTkhdW0NAQEhdKFtDSDJdYzJbY0hdW2NIXVtjSF1bY0hdW2NIXTIpQyg9TylbTkhdW0NAQEhdKFtDSDJdYzNbY0hdW2NIXVtjSF1bY0hdW2NIXTMpQyg9TylbTkhdW0NAQEhdKFtDSDJdW0NIMl1DKD1PKVtPSF0pQyg9TylbTkhdW0NASF0oQyg9TylbT0hdKVtDSDJdW0NIMl1DKD1PKVtOSDJd

> <s_epik_cmdline>
J2VwaWtfYXBwJywgJy1pbWFlJywgJ2xpZ2FuZF9wcm8ubWFlJywgJy1vbWFlJywgJ2xpZ2FuZF9wcmVwLm1hZScsICctbXMnLCAnMScsICctcGgnLCAnNycsICctcGh0JywgJzAuNScsICctbnQn

> <r_lp_tautomer_probability>
0.999999999997365

> <r_epik_Ionization_Penalty>
  0.0888

> <r_epik_Ionization_Penalty_Charging>
  0.0879

> <r_epik_Ionization_Penalty_Neutral>
  0.0009

> <r_epik_State_Penalty>
  0.0760

> <r_epik_Charging_Adjusted_Penalty>
0.163927744844737

> <i_epik_Tot_Q>
0

> <i_epik_Tot_abs_Q>
4

$$$$
