3l8s_ligand
                    3D
 Schrodinger Suite 2020-3.
 57 59  0  0  1  0            999 V2000
   21.0140    0.4760  -24.5220 N   0  0  0  0  0  0
   21.7430    2.2140  -25.7390 O   0  0  0  0  0  0
   22.0450    6.6060  -23.3770 O   0  0  0  0  0  0
   25.4300   -0.9600  -21.2410 F   0  0  0  0  0  0
   20.8170   -1.7580  -20.1020 F   0  0  0  0  0  0
   24.0190   -5.8240  -21.2030 Br  0  0  0  0  0  0
   24.6160   -3.1200  -21.1680 C   0  0  0  0  0  0
   22.3110   -3.5770  -20.5800 C   0  0  0  0  0  0
   20.0580    8.6420  -24.7530 C   0  0  0  0  0  0
   18.5940    8.2010  -25.0460 C   0  0  0  0  0  0
   17.1380    3.8590  -23.9630 C   0  0  0  0  0  0
   18.2980    3.9160  -22.9800 C   0  0  0  0  0  0
   21.1230    8.0130  -25.6970 C   0  0  0  0  0  0
   17.8800    7.5050  -23.8640 C   0  0  0  0  0  0
   16.8160    5.3340  -24.2640 C   0  0  0  0  0  0
   18.4430    5.4190  -22.6930 C   0  0  0  0  0  0
   22.8840    0.0270  -20.5690 C   0  0  0  0  0  0
   22.5210    2.7940  -21.1080 N   0  0  0  0  0  0
   21.1840    6.5510  -25.4750 N   0  0  0  0  0  0
   21.5190    4.6260  -24.3330 N   0  0  0  0  0  0
   22.4380    0.5340  -21.8790 O   0  0  0  0  0  0
   22.2460    4.3050  -21.7380 S   0  0  0  0  0  0
   21.5810    1.6750  -24.6480 C   0  0  0  0  0  0
   21.6100    5.9640  -24.3410 C   0  0  0  0  0  0
   23.5880   -4.0060  -20.9450 C   0  0  0  0  0  0
   24.3840   -1.7750  -21.0240 C   0  0  0  0  0  0
   22.0590   -2.2090  -20.4400 C   0  0  0  0  0  0
   22.3010    1.8880  -22.0870 C   0  0  0  0  0  0
   23.1190   -1.3170  -20.6480 C   0  0  0  0  0  0
   21.8620    3.8330  -23.3070 C   0  0  0  0  0  0
   21.9190    2.4410  -23.3410 C   0  0  0  0  0  0
   18.0620    6.0400  -23.9680 N   0  3  0  0  0  0
   20.7551   -0.1069  -25.4182 H   0  0  0  0  0  0
   20.8048    0.0689  -23.5217 H   0  0  0  0  0  0
   25.6032   -3.4817  -21.4557 H   0  0  0  0  0  0
   21.5166   -4.3027  -20.4055 H   0  0  0  0  0  0
   20.1405    9.7336  -24.8604 H   0  0  0  0  0  0
   20.3297    8.3529  -23.7270 H   0  0  0  0  0  0
   17.9907    9.0830  -25.3070 H   0  0  0  0  0  0
   18.5862    7.4900  -25.8853 H   0  0  0  0  0  0
   17.4494    3.3142  -24.8664 H   0  0  0  0  0  0
   16.2875    3.3400  -23.4968 H   0  0  0  0  0  0
   18.0439    3.3383  -22.0791 H   0  0  0  0  0  0
   19.1968    3.4885  -23.4483 H   0  0  0  0  0  0
   20.8487    8.2121  -26.7435 H   0  0  0  0  0  0
   22.1076    8.4556  -25.4855 H   0  0  0  0  0  0
   18.3093    7.8605  -22.9157 H   0  0  0  0  0  0
   16.8065    7.7431  -23.8925 H   0  0  0  0  0  0
   16.5233    5.4374  -25.3193 H   0  0  0  0  0  0
   15.9891    5.6677  -23.6198 H   0  0  0  0  0  0
   17.7713    5.7014  -21.8689 H   0  0  0  0  0  0
   19.4829    5.6397  -22.4104 H   0  0  0  0  0  0
   23.8102    0.5412  -20.2728 H   0  0  0  0  0  0
   22.1033    0.2160  -19.8175 H   0  0  0  0  0  0
   20.8669    5.8602  -26.2702 H   0  0  0  0  0  0
   21.1377    4.0954  -25.2179 H   0  0  0  0  0  0
   18.8234    5.9396  -24.7556 H   0  0  0  0  0  0
  1 23  1  0  0  0
  1 33  1  0  0  0
  1 34  1  0  0  0
  2 23  2  0  0  0
  3 24  2  0  0  0
  4 26  1  0  0  0
  5 27  1  0  0  0
  6 25  1  0  0  0
  7 25  2  0  0  0
  7 26  1  0  0  0
  7 35  1  0  0  0
  8 25  1  0  0  0
  8 27  2  0  0  0
  8 36  1  0  0  0
  9 10  1  0  0  0
  9 13  1  0  0  0
  9 37  1  0  0  0
  9 38  1  0  0  0
 10 14  1  0  0  0
 10 39  1  0  0  0
 10 40  1  0  0  0
 11 12  1  0  0  0
 11 15  1  0  0  0
 11 41  1  0  0  0
 11 42  1  0  0  0
 12 16  1  0  0  0
 12 43  1  0  0  0
 12 44  1  0  0  0
 13 19  1  0  0  0
 13 45  1  0  0  0
 13 46  1  0  0  0
 14 32  1  0  0  0
 14 47  1  0  0  0
 14 48  1  0  0  0
 15 32  1  0  0  0
 15 49  1  0  0  0
 15 50  1  0  0  0
 16 32  1  0  0  0
 16 51  1  0  0  0
 16 52  1  0  0  0
 17 21  1  0  0  0
 17 29  1  0  0  0
 17 53  1  0  0  0
 17 54  1  0  0  0
 18 22  1  0  0  0
 18 28  2  0  0  0
 19 24  1  0  0  0
 19 55  1  0  0  0
 20 24  1  0  0  0
 20 30  1  0  0  0
 20 56  1  0  0  0
 21 28  1  0  0  0
 22 30  1  0  0  0
 23 31  1  0  0  0
 26 29  2  0  0  0
 27 29  1  0  0  0
 28 31  1  0  0  0
 30 31  2  0  0  0
 32 57  1  0  0  0
M  CHG  1  32   1
M  END
> <s_m_source_file>
../3l8s_ligand.sdf

> <i_m_source_file_index>
1

> <s_epik_input>
QnJjMVtjSF1jKEYpYyhjKEYpW2NIXTEpW0NIMl1PYzJuc2MoYzJDKD1PKVtOSDJdKVtOSF1DKD1PKVtOSF1bQ0gyXVtDSDJdW0NIMl1bQ0gyXVtOSCtdM1tDSDJdW0NIMl1bQ0gyXVtDSDJdMw==

> <s_epik_cmdline>
J2VwaWtfYXBwJywgJy1pbWFlJywgJ2xpZ2FuZF9wcm8ubWFlJywgJy1vbWFlJywgJ2xpZ2FuZF9wcmVwLm1hZScsICctbXMnLCAnMScsICctcGgnLCAnNycsICctcGh0JywgJzAuNScsICctbnQn

> <r_lp_tautomer_probability>
1

> <r_epik_Ionization_Penalty>
  0.0020

> <r_epik_Ionization_Penalty_Charging>
  0.0004

> <r_epik_Ionization_Penalty_Neutral>
  0.0016

> <r_epik_State_Penalty>
 -0.0000

> <r_epik_Charging_Adjusted_Penalty>
0.000368618702537825

> <i_epik_Tot_Q>
1

> <i_epik_Tot_abs_Q>
1

$$$$
