3l8v_ligand
                    3D
 Schrodinger Suite 2020-3.
 50 53  0  0  1  0            999 V2000
   -1.0800   12.6670   59.4050 N   0  3  0  0  0  0
    0.1640   13.1890   59.4510 C   0  0  0  0  0  0
    1.1450   12.7510   58.5530 C   0  0  0  0  0  0
    0.7660   11.7540   57.6200 C   0  0  0  0  0  0
    1.7840   11.3410   56.7350 O   0  0  0  0  0  0
    1.6480   10.1220   56.0550 C   0  0  0  0  0  0
    1.8910    8.8670   56.6850 C   0  0  0  0  0  0
    1.7390    7.6710   55.9570 C   0  0  0  0  0  0
    1.3510    7.7180   54.6080 C   0  0  0  0  0  0
    1.1130    8.9410   53.9780 C   0  0  0  0  0  0
    1.2610   10.1180   54.7060 C   0  0  0  0  0  0
    1.0220   11.2600   54.0730 F   0  0  0  0  0  0
    1.2300    6.5300   53.9840 N   0  0  0  0  0  0
    0.8820    6.1930   52.7140 C   0  0  0  0  0  0
    0.4760    4.8700   52.4940 C   0  0  0  0  0  0
    0.1210    4.5360   51.1730 C   0  0  0  0  0  0
    0.1570    5.4470   50.1170 C   0  0  0  0  0  0
    0.5750    6.7420   50.4390 C   0  0  0  0  0  0
    0.9260    7.1010   51.7000 N   0  0  0  0  0  0
    0.4260    3.8780   53.5830 C   0  0  0  0  0  0
    0.6860    4.1310   54.7620 O   0  0  0  0  0  0
    0.0680    2.6320   53.2070 N   0  0  0  0  0  0
   -0.0170    1.6110   54.1220 C   0  0  0  0  0  0
   -1.0350    1.5510   55.1340 C   0  0  0  0  0  0
   -1.0530    0.4560   56.0480 C   0  0  0  0  0  0
   -0.0510   -0.5530   55.9240 C   0  0  0  0  0  0
    0.9430   -0.5190   54.9570 C   0  0  0  0  0  0
    0.9430    0.5620   54.0720 C   0  0  0  0  0  0
    0.0090   -1.6100   56.7300 F   0  0  0  0  0  0
   -1.4470   11.7160   58.5190 C   0  0  0  0  0  0
   -0.5540   11.2180   57.5930 C   0  0  0  0  0  0
    1.9090    0.5700   53.1520 F   0  0  0  0  0  0
    0.3990   14.1410   60.3990 N   0  0  0  0  0  0
    2.1556   13.1589   58.5708 H   0  0  0  0  0  0
    2.1948    8.8327   57.7313 H   0  0  0  0  0  0
    1.9221    6.7109   56.4395 H   0  0  0  0  0  0
    0.8152    8.9736   52.9300 H   0  0  0  0  0  0
    1.4328    5.5979   54.5317 H   0  0  0  0  0  0
   -0.1979    3.5146   50.9650 H   0  0  0  0  0  0
   -0.1238    5.1662   49.1019 H   0  0  0  0  0  0
    0.6206    7.4907   49.6482 H   0  0  0  0  0  0
   -0.1616    2.4204   52.1522 H   0  0  0  0  0  0
   -1.7879    2.3362   55.2028 H   0  0  0  0  0  0
   -1.8154    0.3912   56.8243 H   0  0  0  0  0  0
    1.6950   -1.3053   54.8902 H   0  0  0  0  0  0
   -2.4680   11.3348   58.5360 H   0  0  0  0  0  0
   -0.8443   10.4511   56.8749 H   0  0  0  0  0  0
   -0.4075   14.4495   61.0805 H   0  0  0  0  0  0
    1.3950   14.6003   60.4821 H   0  0  0  0  0  0
   -1.8489   13.0149   60.1106 H   0  0  0  0  0  0
  1  2  2  0  0  0
  1 30  1  0  0  0
  1 50  1  0  0  0
  2  3  1  0  0  0
  2 33  1  0  0  0
  3  4  2  0  0  0
  3 34  1  0  0  0
  4  5  1  0  0  0
  4 31  1  0  0  0
  5  6  1  0  0  0
  6  7  2  0  0  0
  6 11  1  0  0  0
  7  8  1  0  0  0
  7 35  1  0  0  0
  8  9  2  0  0  0
  8 36  1  0  0  0
  9 10  1  0  0  0
  9 13  1  0  0  0
 10 11  2  0  0  0
 10 37  1  0  0  0
 11 12  1  0  0  0
 13 14  1  0  0  0
 13 38  1  0  0  0
 14 15  2  0  0  0
 14 19  1  0  0  0
 15 16  1  0  0  0
 15 20  1  0  0  0
 16 17  2  0  0  0
 16 39  1  0  0  0
 17 18  1  0  0  0
 17 40  1  0  0  0
 18 19  2  0  0  0
 18 41  1  0  0  0
 20 21  2  0  0  0
 20 22  1  0  0  0
 22 23  1  0  0  0
 22 42  1  0  0  0
 23 24  2  0  0  0
 23 28  1  0  0  0
 24 25  1  0  0  0
 24 43  1  0  0  0
 25 26  2  0  0  0
 25 44  1  0  0  0
 26 27  1  0  0  0
 26 29  1  0  0  0
 27 28  2  0  0  0
 27 45  1  0  0  0
 28 32  1  0  0  0
 30 31  2  0  0  0
 30 46  1  0  0  0
 31 47  1  0  0  0
 33 48  1  0  0  0
 33 49  1  0  0  0
M  CHG  1   1   1
M  END
> <s_m_source_file>
../3l8v_ligand.sdf

> <i_m_source_file_index>
1

> <s_epik_input>
W05IMl1jMW5bY0hdW2NIXWMoW2NIXTEpT2MyW2NIXVtjSF1jKFtjSF1jMkYpW05IXWMzYyhbY0hdW2NIXVtjSF1uMylDKD1PKVtOSF1jNFtjSF1bY0hdYyhGKVtjSF1jNEY=

> <s_epik_cmdline>
J2VwaWtfYXBwJywgJy1pbWFlJywgJ2xpZ2FuZF9wcm8ubWFlJywgJy1vbWFlJywgJ2xpZ2FuZF9wcmVwLm1hZScsICctbXMnLCAnMScsICctcGgnLCAnNycsICctcGh0JywgJzAuNScsICctbnQn

> <r_lp_tautomer_probability>
0.999998796901225

> <r_epik_Ionization_Penalty>
  0.2661

> <r_epik_Ionization_Penalty_Charging>
  0.2644

> <r_epik_Ionization_Penalty_Neutral>
  0.0018

> <r_epik_State_Penalty>
  0.2562

> <r_epik_Charging_Adjusted_Penalty>
0.520583768114038

> <i_epik_Tot_Q>
1

> <i_epik_Tot_abs_Q>
1

$$$$
