3l8x_ligand
                    3D
 Schrodinger Suite 2020-3.
 45 48  0  0  1  0            999 V2000
   -5.2150   -3.0400  -22.0500 C   0  0  0  0  0  0
   -2.1980   -1.2630  -24.5530 C   0  0  0  0  0  0
   -3.0880   -4.3910  -19.7370 C   0  0  0  0  0  0
   -2.4540   -5.4030  -17.6440 C   0  0  0  0  0  0
   -3.8690   -3.4770  -21.9610 C   0  0  0  0  0  0
   -6.2990   -3.6360  -21.1910 C   0  0  0  0  0  0
   -1.5870    0.5520  -26.0480 C   0  0  0  0  0  0
   -2.8940   -5.5480  -18.9540 C   0  0  0  0  0  0
   -3.2490   -1.8770  -23.6990 C   0  0  0  0  0  0
   -1.2680   -7.9590  -13.1920 C   0  0  0  0  0  0
   -0.8310   -6.7290  -13.6690 C   0  0  0  0  0  0
   -2.0510   -8.7560  -14.0170 C   0  0  0  0  0  0
   -4.5790   -1.4530  -23.7790 C   0  0  0  0  0  0
   -5.5520   -2.0290  -22.9600 C   0  0  0  0  0  0
   -1.1730   -6.2930  -14.9610 C   0  0  0  0  0  0
   -2.3960   -8.3290  -15.3060 C   0  0  0  0  0  0
   -2.8910   -2.8890  -22.7860 C   0  0  0  0  0  0
   -3.0170   -6.9370  -19.1270 C   0  0  0  0  0  0
   -2.4100   -3.1870  -17.8710 C   0  0  0  0  0  0
   -1.9560   -7.0910  -15.7960 C   0  0  0  0  0  0
   -2.6970   -7.6210  -18.0320 N   0  0  0  0  0  0
   -2.2020   -4.2220  -17.0400 N   0  0  0  0  0  0
   -2.8220   -3.1990  -19.1580 N   0  0  0  0  0  0
   -2.3390   -6.6840  -17.1120 N   0  0  0  0  0  0
   -3.5200   -4.4930  -21.0590 N   0  0  0  0  0  0
   -2.5870   -0.3070  -25.4620 N   0  0  0  0  0  0
   -1.0380   -1.6150  -24.4150 O   0  0  0  0  0  0
   -5.8666   -4.4092  -20.5390 H   0  0  0  0  0  0
   -7.0695   -4.0871  -21.8335 H   0  0  0  0  0  0
   -6.7526   -2.8470  -20.5732 H   0  0  0  0  0  0
   -2.0686    1.2517  -26.7469 H   0  0  0  0  0  0
   -0.8507   -0.0594  -26.5903 H   0  0  0  0  0  0
   -1.0793    1.1186  -25.2536 H   0  0  0  0  0  0
   -1.0012   -8.2920  -12.1890 H   0  0  0  0  0  0
   -0.2148   -6.0938  -13.0328 H   0  0  0  0  0  0
   -2.4008   -9.7239  -13.6579 H   0  0  0  0  0  0
   -4.8574   -0.6695  -24.4838 H   0  0  0  0  0  0
   -6.5852   -1.6886  -23.0292 H   0  0  0  0  0  0
   -0.8233   -5.3227  -15.3137 H   0  0  0  0  0  0
   -3.0147   -8.9677  -15.9364 H   0  0  0  0  0  0
   -1.8539   -3.2176  -22.7182 H   0  0  0  0  0  0
   -3.3397   -7.4035  -20.0578 H   0  0  0  0  0  0
   -2.2200   -2.2004  -17.4483 H   0  0  0  0  0  0
   -3.6257   -5.4822  -21.5283 H   0  0  0  0  0  0
   -3.6441   -0.1923  -25.7438 H   0  0  0  0  0  0
  1  5  2  0  0  0
  1  6  1  0  0  0
  1 14  1  0  0  0
  2  9  1  0  0  0
  2 26  1  0  0  0
  2 27  2  0  0  0
  3  8  2  0  0  0
  3 23  1  0  0  0
  3 25  1  0  0  0
  4  8  1  0  0  0
  4 22  2  0  0  0
  4 24  1  0  0  0
  5 17  1  0  0  0
  5 25  1  0  0  0
  6 28  1  0  0  0
  6 29  1  0  0  0
  6 30  1  0  0  0
  7 26  1  0  0  0
  7 31  1  0  0  0
  7 32  1  0  0  0
  7 33  1  0  0  0
  8 18  1  0  0  0
  9 13  1  0  0  0
  9 17  2  0  0  0
 10 11  2  0  0  0
 10 12  1  0  0  0
 10 34  1  0  0  0
 11 15  1  0  0  0
 11 35  1  0  0  0
 12 16  2  0  0  0
 12 36  1  0  0  0
 13 14  2  0  0  0
 13 37  1  0  0  0
 14 38  1  0  0  0
 15 20  2  0  0  0
 15 39  1  0  0  0
 16 20  1  0  0  0
 16 40  1  0  0  0
 17 41  1  0  0  0
 18 21  2  0  0  0
 18 42  1  0  0  0
 19 22  1  0  0  0
 19 23  2  0  0  0
 19 43  1  0  0  0
 20 24  1  0  0  0
 21 24  1  0  0  0
 25 44  1  0  0  0
 26 45  1  0  0  0
M  END
> <s_m_source_file>
../3l8x_ligand.sdf

> <i_m_source_file_index>
1

> <s_epik_input>
W0NIM11bTkhdQyg9TyljKFtjSF1bY0hdMSlbY0hdYyhjMVtDSDNdKVtOSF1jKG5bY0hdbjIpYyhjMjMpW2NIXW5uMy1jNFtjSF1bY0hdW2NIXVtjSF1bY0hdNA==

> <s_epik_cmdline>
J2VwaWtfYXBwJywgJy1pbWFlJywgJ2xpZ2FuZF9wcm8ubWFlJywgJy1vbWFlJywgJ2xpZ2FuZF9wcmVwLm1hZScsICctbXMnLCAnMScsICctcGgnLCAnNycsICctcGh0JywgJzAuNScsICctbnQn

> <r_lp_tautomer_probability>
1

> <r_epik_Ionization_Penalty>
  0.0000

> <r_epik_Ionization_Penalty_Charging>
  0.0000

> <r_epik_Ionization_Penalty_Neutral>
  0.0000

> <r_epik_State_Penalty>
 -0.0000

> <r_epik_Charging_Adjusted_Penalty>
0

> <i_epik_Tot_Q>
0

> <i_epik_Tot_abs_Q>
0

$$$$
