3l9h_ligand
                    3D
 Schrodinger Suite 2020-3.
 66 69  0  0  1  0            999 V2000
   26.4770   10.1400   18.7660 N   0  0  0  0  0  0
   26.0020   10.2040   11.1550 C   0  0  0  0  0  0
   26.5190    8.9540   10.7500 C   0  0  0  0  0  0
   27.4600    8.2800   11.5360 C   0  0  0  0  0  0
   26.4360   10.7750   12.3620 C   0  0  0  0  0  0
   27.3780   10.1070   13.1540 C   0  0  0  0  0  0
   27.8960    8.8530   12.7430 C   0  0  0  0  0  0
   28.8550    8.1720   13.5300 N   0  0  0  0  0  0
   29.3050    8.7270   14.8420 C   0  0  2  0  0  0
   27.8330   10.7500   14.4410 C   0  0  2  0  0  0
   29.2510   10.2770   14.8070 C   0  0  1  0  0  0
   29.6860   10.9190   16.1540 C   0  0  0  0  0  0
   28.5960   10.8360   17.2440 C   0  0  0  0  0  0
   27.2110   11.2350   16.6460 C   0  0  1  0  0  0
   26.9240   10.4080   15.4930 O   0  0  0  0  0  0
   30.7180    8.2660   15.1380 C   0  0  0  0  0  0
   30.9250    7.4160   16.2280 C   0  0  0  0  0  0
   32.2190    6.9630   16.5510 C   0  0  0  0  0  0
   33.3220    7.3630   15.7800 C   0  0  0  0  0  0
   33.1250    8.2200   14.6790 C   0  0  0  0  0  0
   31.8260    8.6780   14.3490 C   0  0  0  0  0  0
   24.9940   10.9230   10.2720 C   0  0  0  0  0  0
   24.2240    9.9750    9.5820 F   0  0  0  0  0  0
   24.1650   11.7510   11.0340 F   0  0  0  0  0  0
   25.6870   11.7130    9.3470 F   0  0  0  0  0  0
   26.0700   11.0700   17.6970 C   0  0  0  0  0  0
   26.8630   10.5730   20.0010 C   0  0  0  0  0  0
   27.2750    9.6370   20.9030 N   0  0  0  0  0  0
   26.8660   11.7900   20.2760 O   0  0  0  0  0  0
   27.7540   10.0170   22.2320 C   0  0  0  0  0  0
   26.9170    9.3460   23.3370 C   0  0  0  0  0  0
   27.7260    9.1440   24.5700 N   0  3  0  0  0  0
   28.1200   10.4540   25.0690 C   0  0  0  0  0  0
   26.8260    8.5800   25.6010 C   0  0  0  0  0  0
   26.4763    9.0556   18.5814 H   0  0  0  0  0  0
   26.1811    8.5090    9.8141 H   0  0  0  0  0  0
   27.8529    7.3156   11.2139 H   0  0  0  0  0  0
   26.0396   11.7384   12.6826 H   0  0  0  0  0  0
   29.2699    7.2215   13.1635 H   0  0  0  0  0  0
   28.6333    8.3324   15.6186 H   0  0  0  0  0  0
   27.7924   11.8448   14.3426 H   0  0  0  0  0  0
   29.9588   10.6084   14.0329 H   0  0  0  0  0  0
   30.5787   10.4017   16.5353 H   0  0  0  0  0  0
   29.9183   11.9824   15.9953 H   0  0  0  0  0  0
   28.5407    9.8073   17.6296 H   0  0  0  0  0  0
   28.8464   11.5227   18.0660 H   0  0  0  0  0  0
   27.2430   12.2707   16.2767 H   0  0  0  0  0  0
   30.0761    7.1003   16.8345 H   0  0  0  0  0  0
   32.3646    6.2991   17.4031 H   0  0  0  0  0  0
   34.3233    7.0132   16.0312 H   0  0  0  0  0  0
   33.9782    8.5327   14.0771 H   0  0  0  0  0  0
   31.6773    9.3411   13.4968 H   0  0  0  0  0  0
   25.1749   10.6785   17.1915 H   0  0  0  0  0  0
   25.8437   12.0540   18.1335 H   0  0  0  0  0  0
   27.2416    8.5765   20.6129 H   0  0  0  0  0  0
   28.8025    9.7049   22.3469 H   0  0  0  0  0  0
   27.6813   11.1083   22.3498 H   0  0  0  0  0  0
   26.0543    9.9832   23.5814 H   0  0  0  0  0  0
   26.5613    8.3668   22.9840 H   0  0  0  0  0  0
   28.6037    8.5113   24.3718 H   0  0  0  0  0  0
   28.7956   10.9339   24.3456 H   0  0  0  0  0  0
   28.6370   10.3388   26.0331 H   0  0  0  0  0  0
   27.2250   11.0788   25.2053 H   0  0  0  0  0  0
   26.4876    7.5819   25.2860 H   0  0  0  0  0  0
   25.9548    9.2395   25.7277 H   0  0  0  0  0  0
   27.3668    8.4995   26.5555 H   0  0  0  0  0  0
  1 26  1  0  0  0
  1 27  1  0  0  0
  1 35  1  0  0  0
  2  3  2  0  0  0
  2  5  1  0  0  0
  2 22  1  0  0  0
  3  4  1  0  0  0
  3 36  1  0  0  0
  4  7  2  0  0  0
  4 37  1  0  0  0
  5  6  2  0  0  0
  5 38  1  0  0  0
  6  7  1  0  0  0
  6 10  1  0  0  0
  7  8  1  0  0  0
  8  9  1  0  0  0
  8 39  1  0  0  0
  9 11  1  0  0  0
  9 16  1  0  0  0
  9 40  1  0  0  0
 10 11  1  0  0  0
 10 15  1  0  0  0
 10 41  1  0  0  0
 11 12  1  0  0  0
 11 42  1  0  0  0
 12 13  1  0  0  0
 12 43  1  0  0  0
 12 44  1  0  0  0
 13 14  1  0  0  0
 13 45  1  0  0  0
 13 46  1  0  0  0
 14 15  1  0  0  0
 14 26  1  0  0  0
 14 47  1  0  0  0
 16 17  2  0  0  0
 16 21  1  0  0  0
 17 18  1  0  0  0
 17 48  1  0  0  0
 18 19  2  0  0  0
 18 49  1  0  0  0
 19 20  1  0  0  0
 19 50  1  0  0  0
 20 21  2  0  0  0
 20 51  1  0  0  0
 21 52  1  0  0  0
 22 23  1  0  0  0
 22 24  1  0  0  0
 22 25  1  0  0  0
 26 53  1  0  0  0
 26 54  1  0  0  0
 27 28  1  0  0  0
 27 29  2  0  0  0
 28 30  1  0  0  0
 28 55  1  0  0  0
 30 31  1  0  0  0
 30 56  1  0  0  0
 30 57  1  0  0  0
 31 32  1  0  0  0
 31 58  1  0  0  0
 31 59  1  0  0  0
 32 33  1  0  0  0
 32 34  1  0  0  0
 32 60  1  0  0  0
 33 61  1  0  0  0
 33 62  1  0  0  0
 33 63  1  0  0  0
 34 64  1  0  0  0
 34 65  1  0  0  0
 34 66  1  0  0  0
M  CHG  1  32   1
M  END
> <s_m_source_file>
../3l9h_ligand.sdf

> <i_m_source_file_index>
1

> <s_epik_input>
W0NIM11bTkgrXShbQ0gzXSlbQ0gyXVtDSDJdW05IXUMoPU8pW05IXVtDSDJdW0NAQEhdKFtDSDJdW0NIMl0xKU9bQ0BIXTJbQ0BASF0xW0NAQEhdKFtOSF1jKGMyMylbY0hdW2NIXWMoW2NIXTMpQyhGKShGKUYpYzRbY0hdW2NIXVtjSF1bY0hdW2NIXTQ=

> <s_epik_cmdline>
J2VwaWtfYXBwJywgJy1pbWFlJywgJ2xpZ2FuZF9wcm8ubWFlJywgJy1vbWFlJywgJ2xpZ2FuZF9wcmVwLm1hZScsICctbXMnLCAnMScsICctcGgnLCAnNycsICctcGh0JywgJzAuNScsICctbnQn

> <r_lp_tautomer_probability>
1

> <r_epik_Ionization_Penalty>
  0.0033

> <r_epik_Ionization_Penalty_Charging>
  0.0033

> <r_epik_Ionization_Penalty_Neutral>
  0.0000

> <r_epik_State_Penalty>
 -0.0000

> <r_epik_Charging_Adjusted_Penalty>
0.00327726201980049

> <i_epik_Tot_Q>
1

> <i_epik_Tot_abs_Q>
1

$$$$
