3l9l_ligand
                    3D
 Schrodinger Suite 2020-3.
 50 53  0  0  1  0            999 V2000
   28.9430    7.0250    6.4340 C   0  0  0  0  0  0
   28.6550    3.7990   11.8450 F   0  0  0  0  0  0
   32.0410    1.4530    6.1440 N   0  0  0  0  0  0
   25.3400    8.4900   10.7180 O   0  0  0  0  0  0
   30.4850    3.3240    7.4590 S   0  0  0  0  0  0
   28.0410    8.0320    6.8960 C   0  0  0  0  0  0
   27.3350    2.2900   12.8090 F   0  0  0  0  0  0
   31.9030    3.7860    5.3270 N   0  0  0  0  0  0
   27.5230    7.8480    8.2330 C   0  0  0  0  0  0
   26.4330    3.6470   11.1910 F   0  0  0  0  0  0
   30.5480   -1.0390    5.3660 N   0  3  0  0  0  0
   27.8710    6.7480    9.0430 C   0  0  0  0  0  0
   26.5810    8.5670    8.8350 N   0  0  0  0  0  0
   28.7780    5.7380    8.5770 C   0  0  0  0  0  0
   29.3600    5.8680    7.2270 C   0  0  0  0  0  0
   30.2010   -0.1500    6.5220 C   0  0  2  0  0  0
   26.2330    8.0430   10.0240 C   0  0  0  0  0  0
   30.3570    4.8600    6.7270 C   0  0  0  0  0  0
   31.2020    4.9580    5.5640 C   0  0  0  0  0  0
   31.6230    2.8360    6.2550 C   0  0  0  0  0  0
   31.4900    0.4680    7.0710 C   0  0  0  0  0  0
   27.8380    0.8960    8.2950 C   0  0  0  0  0  0
   27.4180    1.8890    9.2580 C   0  0  0  0  0  0
   28.0290    1.9740   10.5960 C   0  0  0  0  0  0
   29.1460    1.0400   10.8900 C   0  0  0  0  0  0
   29.5610    0.0230    9.9600 C   0  0  0  0  0  0
   28.9070    0.0330    8.6730 C   0  0  0  0  0  0
   27.5650    3.0040   11.6880 C   0  0  0  0  0  0
   29.4060   -0.9170    7.5860 C   0  0  0  0  0  0
   27.1220    6.8330   10.3540 C   0  0  0  0  0  0
   29.3464    7.1249    5.4263 H   0  0  0  0  0  0
   32.7629    1.1409    5.3750 H   0  0  0  0  0  0
   27.7609    8.8857    6.2789 H   0  0  0  0  0  0
   31.1165   -0.4648    4.6196 H   0  0  0  0  0  0
   29.6242   -1.4222    4.9080 H   0  0  0  0  0  0
   31.1579   -1.8823    5.7222 H   0  0  0  0  0  0
   26.1854    9.4716    8.3500 H   0  0  0  0  0  0
   29.0330    4.8882    9.2102 H   0  0  0  0  0  0
   29.5458    0.6587    6.1660 H   0  0  0  0  0  0
   31.2808    5.8502    4.9428 H   0  0  0  0  0  0
   32.2238   -0.3358    7.2307 H   0  0  0  0  0  0
   31.2642    0.9545    8.0314 H   0  0  0  0  0  0
   27.3571    0.8110    7.3205 H   0  0  0  0  0  0
   26.6301    2.5920    8.9876 H   0  0  0  0  0  0
   29.6690    1.1278   11.8423 H   0  0  0  0  0  0
   30.3249   -0.7123   10.2128 H   0  0  0  0  0  0
   28.5404   -1.4059    7.1153 H   0  0  0  0  0  0
   30.0513   -1.6790    8.0475 H   0  0  0  0  0  0
   26.5756    5.8938   10.5257 H   0  0  0  0  0  0
   27.8362    6.9969   11.1744 H   0  0  0  0  0  0
  1  6  2  0  0  0
  1 15  1  0  0  0
  1 31  1  0  0  0
  2 28  1  0  0  0
  3 20  1  0  0  0
  3 21  1  0  0  0
  3 32  1  0  0  0
  4 17  2  0  0  0
  5 18  1  0  0  0
  5 20  1  0  0  0
  6  9  1  0  0  0
  6 33  1  0  0  0
  7 28  1  0  0  0
  8 19  1  0  0  0
  8 20  2  0  0  0
  9 12  2  0  0  0
  9 13  1  0  0  0
 10 28  1  0  0  0
 11 16  1  0  0  0
 11 34  1  0  0  0
 11 35  1  0  0  0
 11 36  1  0  0  0
 12 14  1  0  0  0
 12 30  1  0  0  0
 13 17  1  0  0  0
 13 37  1  0  0  0
 14 15  2  0  0  0
 14 38  1  0  0  0
 15 18  1  0  0  0
 16 21  1  0  0  0
 16 29  1  0  0  0
 16 39  1  0  0  0
 17 30  1  0  0  0
 18 19  2  0  0  0
 19 40  1  0  0  0
 21 41  1  0  0  0
 21 42  1  0  0  0
 22 23  2  0  0  0
 22 27  1  0  0  0
 22 43  1  0  0  0
 23 24  1  0  0  0
 23 44  1  0  0  0
 24 25  2  0  0  0
 24 28  1  0  0  0
 25 26  1  0  0  0
 25 45  1  0  0  0
 26 27  2  0  0  0
 26 46  1  0  0  0
 27 29  1  0  0  0
 29 47  1  0  0  0
 29 48  1  0  0  0
 30 49  1  0  0  0
 30 50  1  0  0  0
M  CHG  1  11   1
M  END
> <s_m_source_file>
../3l9l_ligand.sdf

> <i_m_source_file_index>
1

> <s_epik_input>
Tz1DKFtOSF0xKVtDSDJdYyhjMTIpW2NIXWMoW2NIXVtjSF0yKS1jM3NjKG5bY0hdMylbTkhdW0NIMl1bQ0BASF0oW05IMytdKVtDSDJdYyhbY0hdW2NIXTQpW2NIXVtjSF1jNEMoRikoRilG

> <s_epik_cmdline>
J2VwaWtfYXBwJywgJy1pbWFlJywgJ2xpZ2FuZF9wcm8ubWFlJywgJy1vbWFlJywgJ2xpZ2FuZF9wcmVwLm1hZScsICctbXMnLCAnMScsICctcGgnLCAnNycsICctcGh0JywgJzAuNScsICctbnQn

> <r_lp_tautomer_probability>
1

> <r_epik_Ionization_Penalty>
  0.0048

> <r_epik_Ionization_Penalty_Charging>
  0.0023

> <r_epik_Ionization_Penalty_Neutral>
  0.0025

> <r_epik_State_Penalty>
 -0.0000

> <r_epik_Charging_Adjusted_Penalty>
0.00229809589852031

> <i_epik_Tot_Q>
1

> <i_epik_Tot_abs_Q>
1

$$$$
