3l9m_ligand
                    3D
 Schrodinger Suite 2020-3.
 49 52  0  0  1  0            999 V2000
   27.7810    1.1500    8.8420 C   0  0  0  0  0  0
   25.6970    8.4820    9.3970 N   0  0  0  0  0  0
   30.0540    3.5020    7.6100 S   0  0  0  0  0  0
   27.3810    2.0450    9.9040 C   0  0  0  0  0  0
   31.5370    4.0450    5.6520 N   0  0  0  0  0  0
   28.1870    2.0530   11.1160 C   0  0  0  0  0  0
   30.5300   -0.8930    5.7050 N   0  3  0  0  0  0
   29.3640    1.2250   11.3350 C   0  0  0  0  0  0
   26.2750    9.0600    8.3410 N   0  0  0  0  0  0
   29.7520    0.3440   10.2740 C   0  0  0  0  0  0
   30.8120    5.0500    5.7470 N   0  0  0  0  0  0
   28.9600    0.3250    9.0570 C   0  0  0  0  0  0
   31.9660    1.7630    6.3140 N   0  0  0  0  0  0
   31.4970    0.7340    7.2850 C   0  0  0  0  0  0
   29.4160   -0.6210    7.9330 C   0  0  0  0  0  0
   26.1770    7.2750    9.6450 C   0  0  0  0  0  0
   30.2030    0.0630    6.8040 C   0  0  2  0  0  0
   29.0360    7.3230    6.2970 C   0  0  0  0  0  0
   31.3030    2.9930    6.4540 C   0  0  0  0  0  0
   28.1390    8.4110    6.6210 C   0  0  0  0  0  0
   27.2330    8.2640    7.7620 C   0  0  0  0  0  0
   27.1860    7.0510    8.6160 C   0  0  0  0  0  0
   28.0920    5.9700    8.2750 C   0  0  0  0  0  0
   29.0030    6.1150    7.1230 C   0  0  0  0  0  0
   25.7470    6.4170   10.7630 C   0  0  0  0  0  0
   29.9220    5.0400    6.7610 C   0  0  0  0  0  0
   27.6800    3.1600   12.3800 C   0  0  0  0  0  0
   27.2178    1.0949    7.9104 H   0  0  0  0  0  0
   26.5083    2.6899    9.8012 H   0  0  0  0  0  0
   31.0916   -0.3686    4.9179 H   0  0  0  0  0  0
   29.5988   -1.2987    5.2828 H   0  0  0  0  0  0
   31.1406   -1.7161    6.1046 H   0  0  0  0  0  0
   29.9267    1.2733   12.2673 H   0  0  0  0  0  0
   30.6253   -0.2999   10.3783 H   0  0  0  0  0  0
   32.7552    1.5156    5.5887 H   0  0  0  0  0  0
   32.2702   -0.0397    7.4014 H   0  0  0  0  0  0
   31.3042    1.2091    8.2582 H   0  0  0  0  0  0
   30.0699   -1.3999    8.3521 H   0  0  0  0  0  0
   28.5360   -1.0912    7.4699 H   0  0  0  0  0  0
   29.5367    0.8372    6.3957 H   0  0  0  0  0  0
   29.7335    7.3906    5.4491 H   0  0  0  0  0  0
   28.1297    9.3368    6.0270 H   0  0  0  0  0  0
   28.0997    5.0549    8.8671 H   0  0  0  0  0  0
   24.9555    6.9261   11.3325 H   0  0  0  0  0  0
   26.6040    6.2183   11.4233 H   0  0  0  0  0  0
   25.3605    5.4660   10.3677 H   0  0  0  0  0  0
   26.7815    3.7036   12.0526 H   0  0  0  0  0  0
   28.4883    3.8774   12.5850 H   0  0  0  0  0  0
   27.4525    2.5928   13.2946 H   0  0  0  0  0  0
  1  4  2  0  0  0
  1 12  1  0  0  0
  1 28  1  0  0  0
  2  9  2  0  0  0
  2 16  1  0  0  0
  3 19  1  0  0  0
  3 26  1  0  0  0
  4  6  1  0  0  0
  4 29  1  0  0  0
  5 11  1  0  0  0
  5 19  2  0  0  0
  6  8  2  0  0  0
  6 27  1  0  0  0
  7 17  1  0  0  0
  7 30  1  0  0  0
  7 31  1  0  0  0
  7 32  1  0  0  0
  8 10  1  0  0  0
  8 33  1  0  0  0
  9 21  1  0  0  0
 10 12  2  0  0  0
 10 34  1  0  0  0
 11 26  2  0  0  0
 12 15  1  0  0  0
 13 14  1  0  0  0
 13 19  1  0  0  0
 13 35  1  0  0  0
 14 17  1  0  0  0
 14 36  1  0  0  0
 14 37  1  0  0  0
 15 17  1  0  0  0
 15 38  1  0  0  0
 15 39  1  0  0  0
 16 22  2  0  0  0
 16 25  1  0  0  0
 17 40  1  0  0  0
 18 20  1  0  0  0
 18 24  2  0  0  0
 18 41  1  0  0  0
 20 21  2  0  0  0
 20 42  1  0  0  0
 21 22  1  0  0  0
 22 23  1  0  0  0
 23 24  1  0  0  0
 23 43  1  0  0  0
 24 26  1  0  0  0
 25 44  1  0  0  0
 25 45  1  0  0  0
 25 46  1  0  0  0
 27 47  1  0  0  0
 27 48  1  0  0  0
 27 49  1  0  0  0
M  CHG  1   7   1
M  END
> <s_m_source_file>
../3l9m_ligand.sdf

> <i_m_source_file_index>
1

> <s_epik_input>
W0NIM11jMVtjSF1bY0hdYyhbY0hdW2NIXTEpW0NIMl1bQ0BIXShbTkgzK10pW0NIMl1bTkhdYzJzYyhubjIpQyg9W0NIXVtDSF09MylbQ0gyXUMoQzM0KT1DKE49TjQpW0NIM10=

> <s_epik_cmdline>
J2VwaWtfYXBwJywgJy1pbWFlJywgJ2xpZ2FuZF9wcm8ubWFlJywgJy1vbWFlJywgJ2xpZ2FuZF9wcmVwLm1hZScsICctbXMnLCAnMScsICctcGgnLCAnNycsICctcGh0JywgJzAuNScsICctbnQn

> <r_lp_tautomer_probability>
1

> <r_epik_Ionization_Penalty>
  0.0023

> <r_epik_Ionization_Penalty_Charging>
  0.0023

> <r_epik_Ionization_Penalty_Neutral>
  0.0000

> <r_epik_State_Penalty>
 -0.0000

> <r_epik_Charging_Adjusted_Penalty>
0.00229809589852031

> <i_epik_Tot_Q>
1

> <i_epik_Tot_abs_Q>
1

$$$$
