3l9n_ligand
                    3D
 Schrodinger Suite 2020-3.
 46 49  0  0  1  0            999 V2000
   33.2850   19.8420   57.4660 C   0  0  0  0  0  0
   34.7850   12.6360   55.9320 N   0  0  0  0  0  0
   31.0860   17.6540   58.9400 S   0  0  0  0  0  0
   34.2570   18.7700   57.5560 C   0  0  0  0  0  0
   28.6840   17.3840   59.3000 N   0  0  0  0  0  0
   34.9850   18.6460   58.8070 C   0  0  0  0  0  0
   29.6000   22.2690   58.5680 N   0  3  0  0  0  0
   34.8130   19.5120   59.9510 C   0  0  0  0  0  0
   33.5410   12.1190   55.8610 N   0  0  0  0  0  0
   33.8510   20.5700   59.8560 C   0  0  0  0  0  0
   28.9930   16.2070   58.6980 N   0  0  0  0  0  0
   33.1040   20.7110   58.6180 C   0  0  0  0  0  0
   29.4300   19.6270   60.1750 N   0  0  0  0  0  0
   30.4600   20.6520   60.1920 C   0  0  0  0  0  0
   32.0450   21.8180   58.5330 C   0  0  0  0  0  0
   34.6460   13.8420   56.5680 C   0  0  0  0  0  0
   30.6360   21.2270   58.7690 C   0  0  2  0  0  0
   30.3580   13.8280   57.2290 C   0  0  0  0  0  0
   29.6280   18.3220   59.5400 C   0  0  0  0  0  0
   31.0830   12.7200   56.5520 C   0  0  0  0  0  0
   32.5250   12.8370   56.3860 C   0  0  0  0  0  0
   33.2650   14.0390   56.8860 C   0  0  0  0  0  0
   32.5200   15.0970   57.5440 C   0  0  0  0  0  0
   31.0550   15.0350   57.7380 C   0  0  0  0  0  0
   30.3390   16.1750   58.4130 C   0  0  0  0  0  0
   36.1800   17.3630   59.0120 C   0  0  0  0  0  0
   32.7037   19.9930   56.5564 H   0  0  0  0  0  0
   34.4333   18.0887   56.7236 H   0  0  0  0  0  0
   28.6043   21.8339   58.7392 H   0  0  0  0  0  0
   29.6606   22.6525   57.5388 H   0  0  0  0  0  0
   29.7668   23.0934   59.2769 H   0  0  0  0  0  0
   35.3976   19.3649   60.8592 H   0  0  0  0  0  0
   33.6842   21.2510   60.6906 H   0  0  0  0  0  0
   28.4569   19.8172   60.6513 H   0  0  0  0  0  0
   30.1639   21.4579   60.8796 H   0  0  0  0  0  0
   31.4097   20.2119   60.5302 H   0  0  0  0  0  0
   32.2491   22.5802   59.2994 H   0  0  0  0  0  0
   32.0788   22.2820   57.5362 H   0  0  0  0  0  0
   35.3878   14.6071   56.8407 H   0  0  0  0  0  0
   30.4875   20.4296   58.0259 H   0  0  0  0  0  0
   29.2686   13.7312   57.3470 H   0  0  0  0  0  0
   30.5572   11.8281   56.1805 H   0  0  0  0  0  0
   33.0607   15.9702   57.9089 H   0  0  0  0  0  0
   36.2356   16.7633   58.0915 H   0  0  0  0  0  0
   35.8848   16.7179   59.8527 H   0  0  0  0  0  0
   37.1642   17.8084   59.2195 H   0  0  0  0  0  0
  1  4  2  0  0  0
  1 12  1  0  0  0
  1 27  1  0  0  0
  2  9  2  0  0  0
  2 16  1  0  0  0
  3 19  1  0  0  0
  3 25  1  0  0  0
  4  6  1  0  0  0
  4 28  1  0  0  0
  5 11  1  0  0  0
  5 19  2  0  0  0
  6  8  2  0  0  0
  6 26  1  0  0  0
  7 17  1  0  0  0
  7 29  1  0  0  0
  7 30  1  0  0  0
  7 31  1  0  0  0
  8 10  1  0  0  0
  8 32  1  0  0  0
  9 21  1  0  0  0
 10 12  2  0  0  0
 10 33  1  0  0  0
 11 25  2  0  0  0
 12 15  1  0  0  0
 13 14  1  0  0  0
 13 19  1  0  0  0
 13 34  1  0  0  0
 14 17  1  0  0  0
 14 35  1  0  0  0
 14 36  1  0  0  0
 15 17  1  0  0  0
 15 37  1  0  0  0
 15 38  1  0  0  0
 16 22  2  0  0  0
 16 39  1  0  0  0
 17 40  1  0  0  0
 18 20  1  0  0  0
 18 24  2  0  0  0
 18 41  1  0  0  0
 20 21  2  0  0  0
 20 42  1  0  0  0
 21 22  1  0  0  0
 22 23  1  0  0  0
 23 24  1  0  0  0
 23 43  1  0  0  0
 24 25  1  0  0  0
 26 44  1  0  0  0
 26 45  1  0  0  0
 26 46  1  0  0  0
M  CHG  1   7   1
M  END
> <s_m_source_file>
../3l9n_ligand.sdf

> <i_m_source_file_index>
1

> <s_epik_input>
W0NIM11jMVtjSF1bY0hdYyhbY0hdW2NIXTEpW0NIMl1bQ0BIXShbTkgzK10pW0NIMl1bTkhdYzJzYyhubjIpQyg9W0NIXVtDSF09MylbQ0gyXUMoQzM0KT1bQ0hdTj1ONA==

> <s_epik_cmdline>
J2VwaWtfYXBwJywgJy1pbWFlJywgJ2xpZ2FuZF9wcm8ubWFlJywgJy1vbWFlJywgJ2xpZ2FuZF9wcmVwLm1hZScsICctbXMnLCAnMScsICctcGgnLCAnNycsICctcGh0JywgJzAuNScsICctbnQn

> <r_lp_tautomer_probability>
1

> <r_epik_Ionization_Penalty>
  0.0023

> <r_epik_Ionization_Penalty_Charging>
  0.0023

> <r_epik_Ionization_Penalty_Neutral>
  0.0000

> <r_epik_State_Penalty>
 -0.0000

> <r_epik_Charging_Adjusted_Penalty>
0.00229809589852031

> <i_epik_Tot_Q>
1

> <i_epik_Tot_abs_Q>
1

$$$$
