3lbj_ligand
                    3D
 Schrodinger Suite 2020-3.
 84 89  0  0  1  0            999 V2000
   15.4330   -6.5810    4.9840 C   0  0  0  0  0  0
   16.4450   -6.3180    5.9000 C   0  0  0  0  0  0
   16.9210   -7.5330    7.0300 Cl  0  0  0  0  0  0
   17.0910   -5.0870    5.8940 C   0  0  0  0  0  0
   16.7210   -4.0870    4.9890 C   0  0  0  0  0  0
   15.7130   -4.3590    4.0730 C   0  0  0  0  0  0
   15.0650   -5.5890    4.0970 C   0  0  0  0  0  0
   14.1750   -5.6050    3.1360 N   0  3  0  0  0  0
   14.1750   -4.4420    2.5120 C   0  0  0  0  0  0
   13.2140   -4.2420    1.3740 C   0  0  0  0  0  0
   12.9040   -5.2480    0.7270 O   0  0  0  0  0  0
   12.6710   -3.0850    1.0600 N   0  0  0  0  0  0
   12.8390   -1.8290    1.8120 C   0  0  0  0  0  0
   11.5690   -1.0950    1.4220 C   0  0  1  0  0  0
   11.6450    0.3280    1.7340 N   0  3  2  0  0  0
   12.0730    0.7380    3.0620 C   0  0  0  0  0  0
   12.7070    2.1190    3.1440 C   0  0  0  0  0  0
   13.0530    2.2500    4.6170 C   0  0  0  0  0  0
   13.2080    3.6120    5.0680 N   0  3  0  0  0  0
   13.4130    4.0040    6.4330 C   0  0  0  0  0  0
   14.5030    4.0160    4.5180 C   0  0  0  0  0  0
   10.8070    1.2150    0.9420 C   0  0  0  0  0  0
   11.3520   -1.4460   -0.0600 C   0  0  0  0  0  0
   11.7160   -2.9390   -0.0660 C   0  0  0  0  0  0
   15.1110   -3.5930    3.0880 C   0  0  0  0  0  0
   15.5830   -2.3260    2.7040 C   0  0  0  0  0  0
   15.7760   -1.1580    3.4410 C   0  0  0  0  0  0
   15.3500   -0.8220    4.7210 C   0  0  0  0  0  0
   16.0340    0.1950    5.3760 C   0  0  0  0  0  0
   15.6210    0.6210    6.6400 C   0  0  0  0  0  0
   14.5210    0.0060    7.2570 C   0  0  0  0  0  0
   13.8580   -1.0160    6.5800 C   0  0  0  0  0  0
   14.2740   -1.4480    5.3270 C   0  0  0  0  0  0
   16.3590   -0.2480    2.6450 N   0  0  0  0  0  0
   16.6040   -0.8210    1.4760 C   0  0  0  0  0  0
   16.1620   -2.0590    1.5200 N   0  0  0  0  0  0
   16.2950   -2.9700    0.3860 C   0  0  0  0  0  0
   17.3100   -4.0810    0.7390 C   0  0  0  0  0  0
   16.9410   -5.4090    0.6070 C   0  0  0  0  0  0
   17.8310   -6.4330    0.9180 C   0  0  0  0  0  0
   19.1030   -6.1490    1.3930 C   0  0  0  0  0  0
   20.2250   -7.4080    1.7940 Cl  0  0  0  0  0  0
   19.4720   -4.8300    1.5460 C   0  0  0  0  0  0
   18.5750   -3.7920    1.2360 C   0  0  0  0  0  0
   14.9391   -7.5525    4.9663 H   0  0  0  0  0  0
   17.8964   -4.8988    6.6039 H   0  0  0  0  0  0
   17.2133   -3.1146    5.0022 H   0  0  0  0  0  0
   12.9078   -2.0517    2.8870 H   0  0  0  0  0  0
   13.7593   -1.3246    1.4825 H   0  0  0  0  0  0
   10.6902   -1.3581    2.0291 H   0  0  0  0  0  0
   12.6174    0.5801    1.2858 H   0  0  0  0  0  0
   11.2058    0.7522    3.7386 H   0  0  0  0  0  0
   12.8224    0.0277    3.4413 H   0  0  0  0  0  0
   13.5956    2.1535    2.4965 H   0  0  0  0  0  0
   11.9814    2.8759    2.8115 H   0  0  0  0  0  0
   12.2540    1.7978    5.2229 H   0  0  0  0  0  0
   14.0028    1.7329    4.8180 H   0  0  0  0  0  0
   12.2243    4.0260    4.8018 H   0  0  0  0  0  0
   12.5132    3.7698    7.0208 H   0  0  0  0  0  0
   13.6094    5.0854    6.4784 H   0  0  0  0  0  0
   14.2735    3.4574    6.8462 H   0  0  0  0  0  0
   14.5328    3.7853    3.4429 H   0  0  0  0  0  0
   15.3067    3.4691    5.0328 H   0  0  0  0  0  0
   14.6426    5.0972    4.6650 H   0  0  0  0  0  0
   10.5847    0.7420   -0.0259 H   0  0  0  0  0  0
   11.3354    2.1649    0.7732 H   0  0  0  0  0  0
    9.8672    1.4087    1.4799 H   0  0  0  0  0  0
   10.3051   -1.2488   -0.3340 H   0  0  0  0  0  0
   12.0165   -0.8301   -0.6838 H   0  0  0  0  0  0
   12.2057   -3.2408   -1.0036 H   0  0  0  0  0  0
   10.8389   -3.5785    0.1118 H   0  0  0  0  0  0
   16.8967    0.6622    4.9010 H   0  0  0  0  0  0
   16.1511    1.4282    7.1455 H   0  0  0  0  0  0
   14.1913    0.3215    8.2469 H   0  0  0  0  0  0
   12.9922   -1.4877    7.0449 H   0  0  0  0  0  0
   13.7600   -2.2691    4.8274 H   0  0  0  0  0  0
   17.0893   -0.3471    0.6228 H   0  0  0  0  0  0
   15.3175   -3.4221    0.1623 H   0  0  0  0  0  0
   16.6507   -2.4121   -0.4928 H   0  0  0  0  0  0
   15.9395   -5.6560    0.2546 H   0  0  0  0  0  0
   17.5247   -7.4708    0.7867 H   0  0  0  0  0  0
   20.4702   -4.5885    1.9113 H   0  0  0  0  0  0
   18.8739   -2.7547    1.3865 H   0  0  0  0  0  0
   13.5703   -6.5071    2.9613 H   0  0  0  0  0  0
  1  2  2  0  0  0
  1  7  1  0  0  0
  1 45  1  0  0  0
  2  3  1  0  0  0
  2  4  1  0  0  0
  4  5  2  0  0  0
  4 46  1  0  0  0
  5  6  1  0  0  0
  5 47  1  0  0  0
  6  7  2  0  0  0
  6 25  1  0  0  0
  7  8  1  0  0  0
  8  9  1  0  0  0
  8 84  1  0  0  0
  9 10  1  0  0  0
  9 25  2  0  0  0
 10 11  2  0  0  0
 10 12  1  0  0  0
 12 13  1  0  0  0
 12 24  1  0  0  0
 13 14  1  0  0  0
 13 48  1  0  0  0
 13 49  1  0  0  0
 14 15  1  0  0  0
 14 23  1  0  0  0
 14 50  1  0  0  0
 15 16  1  0  0  0
 15 22  1  0  0  0
 15 51  1  0  0  0
 16 17  1  0  0  0
 16 52  1  0  0  0
 16 53  1  0  0  0
 17 18  1  0  0  0
 17 54  1  0  0  0
 17 55  1  0  0  0
 18 19  1  0  0  0
 18 56  1  0  0  0
 18 57  1  0  0  0
 19 20  1  0  0  0
 19 21  1  0  0  0
 19 58  1  0  0  0
 20 59  1  0  0  0
 20 60  1  0  0  0
 20 61  1  0  0  0
 21 62  1  0  0  0
 21 63  1  0  0  0
 21 64  1  0  0  0
 22 65  1  0  0  0
 22 66  1  0  0  0
 22 67  1  0  0  0
 23 24  1  0  0  0
 23 68  1  0  0  0
 23 69  1  0  0  0
 24 70  1  0  0  0
 24 71  1  0  0  0
 25 26  1  0  0  0
 26 27  2  0  0  0
 26 36  1  0  0  0
 27 28  1  0  0  0
 27 34  1  0  0  0
 28 29  2  0  0  0
 28 33  1  0  0  0
 29 30  1  0  0  0
 29 72  1  0  0  0
 30 31  2  0  0  0
 30 73  1  0  0  0
 31 32  1  0  0  0
 31 74  1  0  0  0
 32 33  2  0  0  0
 32 75  1  0  0  0
 33 76  1  0  0  0
 34 35  2  0  0  0
 35 36  1  0  0  0
 35 77  1  0  0  0
 36 37  1  0  0  0
 37 38  1  0  0  0
 37 78  1  0  0  0
 37 79  1  0  0  0
 38 39  2  0  0  0
 38 44  1  0  0  0
 39 40  1  0  0  0
 39 80  1  0  0  0
 40 41  2  0  0  0
 40 81  1  0  0  0
 41 42  1  0  0  0
 41 43  1  0  0  0
 43 44  2  0  0  0
 43 82  1  0  0  0
 44 83  1  0  0  0
M  CHG  3   8   1  15   1  19   1
M  END
> <s_m_source_file>
../3lbj_ligand.sdf

> <i_m_source_file_index>
1

> <s_epik_input>
W0NIM11bTkgrXShbQ0gzXSlbQ0gyXVtDSDJdW0NIMl1bTkBIK10oW0NIM10pW0NAQEhdKFtDSDJdW0NIMl0xKVtDSDJdTjFDKD1PKWMoW25IXWMoYzIzKVtjSF1jKENsKVtjSF1bY0hdMiljMy1jNGMoLWM1W2NIXVtjSF1bY0hdW2NIXVtjSF01KW5bY0hdbjRbQ0gyXWM2W2NIXVtjSF1jKENsKVtjSF1bY0hdNg==

> <s_epik_cmdline>
J2VwaWtfYXBwJywgJy1pbWFlJywgJ2xpZ2FuZF9wcm8ubWFlJywgJy1vbWFlJywgJ2xpZ2FuZF9wcmVwLm1hZScsICctbXMnLCAnMScsICctcGgnLCAnNycsICctcGh0JywgJzAuNScsICctbnQn

> <r_lp_tautomer_probability>
1

> <r_epik_Ionization_Penalty>
  0.0604

> <r_epik_Ionization_Penalty_Charging>
  0.0601

> <r_epik_Ionization_Penalty_Neutral>
  0.0004

> <r_epik_State_Penalty>
 -0.0000

> <r_epik_Charging_Adjusted_Penalty>
0.0600857859874357

> <i_epik_Tot_Q>
3

> <i_epik_Tot_abs_Q>
3

$$$$
