3lbl_ligand
                    3D
 Schrodinger Suite 2020-3.
 56 59  0  0  1  0            999 V2000
  -13.6040    3.6600  -18.5500 C   0  0  0  0  0  0
  -12.8400    4.7960  -18.7890 C   0  0  0  0  0  0
  -11.7930    5.1400  -17.9500 C   0  0  0  0  0  0
  -10.8820    6.5690  -18.3070 Cl  0  0  0  0  0  0
  -11.5150    4.3300  -16.8510 C   0  0  0  0  0  0
  -12.2720    3.1770  -16.5990 C   0  0  0  0  0  0
  -13.3360    2.8340  -17.4390 C   0  0  0  0  0  0
  -14.3840    1.7070  -17.5500 C   0  0  1  0  0  0
  -15.1480    2.1160  -18.7510 C   0  0  0  0  0  0
  -16.1070    1.4800  -19.1780 O   0  0  0  0  0  0
  -14.6360    3.2170  -19.2730 N   0  0  0  0  0  0
  -13.8270    0.2960  -17.8780 C   0  0  1  0  0  0
  -12.6350    0.3320  -18.8850 C   0  0  0  0  0  0
  -11.4510   -0.6270  -18.7400 C   0  0  0  0  0  0
  -10.8500   -0.7770  -20.1340 C   0  0  0  0  0  0
  -10.4100    0.0060  -17.8270 C   0  0  0  0  0  0
  -11.8420   -2.0140  -18.2170 C   0  0  0  0  0  0
  -13.6520   -0.3580  -16.5620 N   0  3  0  0  0  0
  -14.9400   -0.0540  -15.8890 C   0  0  1  0  0  0
  -14.8500   -0.3780  -14.3920 C   0  0  0  0  0  0
  -15.3270    0.3400  -13.5260 O   0  0  0  0  0  0
  -14.3020   -1.5660  -14.1460 N   0  0  0  0  0  0
  -15.4100    1.3420  -16.4370 C   0  0  1  0  0  0
  -16.0800    2.5630  -15.6900 C   0  0  0  0  0  0
  -15.5880    3.5780  -14.8320 C   0  0  0  0  0  0
  -14.3260    3.6400  -14.3650 F   0  0  0  0  0  0
  -16.4730    4.5770  -14.3870 C   0  0  0  0  0  0
  -15.9740    5.8310  -13.3140 Cl  0  0  0  0  0  0
  -17.7990    4.6200  -14.7900 C   0  0  0  0  0  0
  -18.2820    3.6550  -15.6510 C   0  0  0  0  0  0
  -17.4160    2.6710  -16.0920 C   0  0  0  0  0  0
  -13.0680    5.4254  -19.6492 H   0  0  0  0  0  0
  -10.6991    4.5959  -16.1789 H   0  0  0  0  0  0
  -12.0300    2.5452  -15.7444 H   0  0  0  0  0  0
  -14.9508    3.7632  -20.1744 H   0  0  0  0  0  0
  -14.5122   -0.3749  -18.4169 H   0  0  0  0  0  0
  -13.0063    0.1279  -19.9001 H   0  0  0  0  0  0
  -12.1636    1.3256  -18.8599 H   0  0  0  0  0  0
  -10.5656    0.2133  -20.5192 H   0  0  0  0  0  0
  -11.5921   -1.2326  -20.8061 H   0  0  0  0  0  0
   -9.9589   -1.4199  -20.0819 H   0  0  0  0  0  0
  -10.1389    0.9995  -18.2136 H   0  0  0  0  0  0
   -9.5144   -0.6318  -17.7946 H   0  0  0  0  0  0
  -10.8247    0.1076  -16.8132 H   0  0  0  0  0  0
  -12.5938   -2.4593  -18.8852 H   0  0  0  0  0  0
  -12.2615   -1.9192  -17.2046 H   0  0  0  0  0  0
  -10.9512   -2.6586  -18.1859 H   0  0  0  0  0  0
  -13.4866   -1.4358  -16.7073 H   0  0  0  0  0  0
  -12.7841    0.0800  -16.0474 H   0  0  0  0  0  0
  -15.7581   -0.7460  -16.1377 H   0  0  0  0  0  0
  -13.8899   -2.1634  -14.9726 H   0  0  0  0  0  0
  -14.2613   -1.9503  -13.1161 H   0  0  0  0  0  0
  -16.4581    1.1009  -16.6679 H   0  0  0  0  0  0
  -18.4562    5.4111  -14.4291 H   0  0  0  0  0  0
  -19.3224    3.6683  -15.9759 H   0  0  0  0  0  0
  -17.7983    1.9330  -16.7972 H   0  0  0  0  0  0
  1  2  2  0  0  0
  1  7  1  0  0  0
  1 11  1  0  0  0
  2  3  1  0  0  0
  2 32  1  0  0  0
  3  4  1  0  0  0
  3  5  2  0  0  0
  5  6  1  0  0  0
  5 33  1  0  0  0
  6  7  2  0  0  0
  6 34  1  0  0  0
  7  8  1  0  0  0
  8  9  1  0  0  0
  8 12  1  0  0  0
  8 23  1  0  0  0
  9 10  2  0  0  0
  9 11  1  0  0  0
 11 35  1  0  0  0
 12 13  1  0  0  0
 12 18  1  0  0  0
 12 36  1  0  0  0
 13 14  1  0  0  0
 13 37  1  0  0  0
 13 38  1  0  0  0
 14 15  1  0  0  0
 14 16  1  0  0  0
 14 17  1  0  0  0
 15 39  1  0  0  0
 15 40  1  0  0  0
 15 41  1  0  0  0
 16 42  1  0  0  0
 16 43  1  0  0  0
 16 44  1  0  0  0
 17 45  1  0  0  0
 17 46  1  0  0  0
 17 47  1  0  0  0
 18 19  1  0  0  0
 18 48  1  0  0  0
 18 49  1  0  0  0
 19 20  1  0  0  0
 19 23  1  0  0  0
 19 50  1  0  0  0
 20 21  2  0  0  0
 20 22  1  0  0  0
 22 51  1  0  0  0
 22 52  1  0  0  0
 23 24  1  0  0  0
 23 53  1  0  0  0
 24 25  2  0  0  0
 24 31  1  0  0  0
 25 26  1  0  0  0
 25 27  1  0  0  0
 27 28  1  0  0  0
 27 29  2  0  0  0
 29 30  1  0  0  0
 29 54  1  0  0  0
 30 31  2  0  0  0
 30 55  1  0  0  0
 31 56  1  0  0  0
M  CHG  1  18   1
M  END
> <s_m_source_file>
../3lbl_ligand.sdf

> <i_m_source_file_index>
1

> <s_epik_input>
W2NIXTFbY0hdYyhDbClbY0hdYyhbTkhdQzI9TyljMVtDQF0yM1tDQEBIXShbQ0gyXUMoW0NIM10pKFtDSDNdKVtDSDNdKVtOSDIrXVtDQEBIXShDKD1PKVtOSDJdKVtDQEhdM2M0YyhGKWMoQ2wpW2NIXVtjSF1bY0hdNA==

> <s_epik_cmdline>
J2VwaWtfYXBwJywgJy1pbWFlJywgJ2xpZ2FuZF9wcm8ubWFlJywgJy1vbWFlJywgJ2xpZ2FuZF9wcmVwLm1hZScsICctbXMnLCAnMScsICctcGgnLCAnNycsICctcGh0JywgJzAuNScsICctbnQn

> <r_epik_Ionization_Penalty>
  0.0916

> <r_epik_Ionization_Penalty_Charging>
  0.0916

> <r_epik_Ionization_Penalty_Neutral>
  0.0000

> <r_epik_State_Penalty>
  0.0819

> <r_epik_Charging_Adjusted_Penalty>
0.173452421079994

> <i_epik_Tot_Q>
1

> <i_epik_Tot_abs_Q>
1

$$$$
