3lbz_ligand
                    3D
 Schrodinger Suite 2020-3.
 33 35  0  0  1  0            999 V2000
   -5.8640    6.9850   20.3670 C   0  0  0  0  0  0
   -5.4560    5.2670   18.8240 N   0  0  0  0  0  0
   -6.4920    6.0600   20.9680 O   0  0  0  0  0  0
   -4.8740    6.5840   19.2700 C   0  0  2  0  0  0
   -3.4770    6.5540   19.9250 C   0  0  0  0  0  0
   -2.9580    7.9740   20.1740 C   0  0  0  0  0  0
   -4.1380   -0.2320   18.9500 C   0  0  0  0  0  0
   -4.1090    1.1540   19.0870 C   0  0  0  0  0  0
   -2.9920    1.8170   19.6220 C   0  0  0  0  0  0
   -1.8710    1.0990   20.0470 C   0  0  0  0  0  0
   -0.3140    1.9250   20.8020 Br  0  0  0  0  0  0
   -1.9140   -0.2780   19.9040 C   0  0  0  0  0  0
   -3.0250   -0.9210   19.3760 C   0  0  0  0  0  0
   -5.3240    1.5950   18.5780 C   0  0  0  0  0  0
   -6.0160    0.4740   18.1640 C   0  0  0  0  0  0
   -5.3120   -0.6460   18.3940 N   0  0  0  0  0  0
   -7.1820    0.4550   17.6350 O   0  0  0  0  0  0
   -5.7460    2.9440   18.5110 C   0  0  0  0  0  0
   -4.9350    4.0280   18.9710 C   0  0  0  0  0  0
   -6.7000    5.0920   18.2730 C   0  0  0  0  0  0
   -7.6560    6.5660   17.9670 S   0  0  0  0  0  0
   -7.2990    3.4720   17.8520 S   0  0  0  0  0  0
   -3.7360    3.9040   19.4760 O   0  0  0  0  0  0
   -2.7970    8.4080   21.3470 O   0  5  0  0  0  0
   -2.7190    8.7030   19.1830 O   0  0  0  0  0  0
   -6.0800    8.2020   20.6580 O   0  5  0  0  0  0
   -4.7553    7.2255   18.3844 H   0  0  0  0  0  0
   -3.5348    6.0252   20.8878 H   0  0  0  0  0  0
   -2.7721    6.0316   19.2615 H   0  0  0  0  0  0
   -2.9998    2.9037   19.7066 H   0  0  0  0  0  0
   -1.0539   -0.8715   20.2138 H   0  0  0  0  0  0
   -3.0159   -2.0080   19.2960 H   0  0  0  0  0  0
   -5.4954   -1.7183   18.2310 H   0  0  0  0  0  0
  1  3  2  0  0  0
  1  4  1  0  0  0
  1 26  1  0  0  0
  2  4  1  0  0  0
  2 19  1  0  0  0
  2 20  1  0  0  0
  4  5  1  0  0  0
  4 27  1  0  0  0
  5  6  1  0  0  0
  5 28  1  0  0  0
  5 29  1  0  0  0
  6 24  1  0  0  0
  6 25  2  0  0  0
  7  8  2  0  0  0
  7 13  1  0  0  0
  7 16  1  0  0  0
  8  9  1  0  0  0
  8 14  1  0  0  0
  9 10  2  0  0  0
  9 30  1  0  0  0
 10 11  1  0  0  0
 10 12  1  0  0  0
 12 13  2  0  0  0
 12 31  1  0  0  0
 13 32  1  0  0  0
 14 15  1  0  0  0
 14 18  2  0  0  0
 15 16  1  0  0  0
 15 17  2  0  0  0
 16 33  1  0  0  0
 18 19  1  0  0  0
 18 22  1  0  0  0
 19 23  2  0  0  0
 20 21  2  0  0  0
 20 22  1  0  0  0
M  CHG  2  24  -1  26  -1
M  END
> <s_m_source_file>
../3lbz_ligand.sdf

> <i_m_source_file_index>
1

> <s_epik_input>
W09IXUMoPU8pW0NIMl1bQ0BIXShDKD1PKVtPSF0pTjFDKD1PKS9DKFNDMT1TKT1DKEMoPU8pW05IXTIpXGMoYzIzKVtjSF1jKEJyKVtjSF1bY0hdMw==

> <s_epik_cmdline>
J2VwaWtfYXBwJywgJy1pbWFlJywgJ2xpZ2FuZF9wcm8ubWFlJywgJy1vbWFlJywgJ2xpZ2FuZF9wcmVwLm1hZScsICctbXMnLCAnMScsICctcGgnLCAnNycsICctcGh0JywgJzAuNScsICctbnQn

> <r_lp_tautomer_probability>
1

> <r_epik_Ionization_Penalty>
  0.0007

> <r_epik_Ionization_Penalty_Charging>
  0.0006

> <r_epik_Ionization_Penalty_Neutral>
  0.0001

> <r_epik_State_Penalty>
 -0.0000

> <r_epik_Charging_Adjusted_Penalty>
0.000567130454967832

> <i_epik_Tot_Q>
-2

> <i_epik_Tot_abs_Q>
2

$$$$
