3lc3_ligand
                    3D
 Schrodinger Suite 2020-3.
 39 41  0  0  1  0            999 V2000
   24.2260  -14.8210   18.5720 C   0  0  0  0  0  0
   23.5690  -13.6300   18.7900 C   0  0  0  0  0  0
   23.5320  -16.0040   18.3500 C   0  0  0  0  0  0
   22.1760  -13.6090   18.8060 C   0  0  0  0  0  0
   22.1420  -16.0090   18.3420 C   0  0  0  0  0  0
   21.4590  -14.8000   18.5790 C   0  0  0  0  0  0
   25.6010  -14.6820   18.5940 C   0  0  0  0  0  0
   25.9910  -13.3700   18.8360 C   0  0  0  0  0  0
   24.6580  -12.4430   18.9970 S   0  0  0  0  0  0
   21.4320  -17.2990   18.1180 C   0  0  0  0  0  0
   21.9120  -18.4070   18.8080 C   0  0  0  0  0  0
   20.3460  -17.4530   17.2580 C   0  0  0  0  0  0
   21.3220  -19.6560   18.6590 C   0  0  0  0  0  0
   19.7330  -18.7140   17.1150 C   0  0  0  0  0  0
   20.2450  -19.8070   17.8150 C   0  0  0  0  0  0
   18.6670  -18.9010   16.2670 O   0  0  0  0  0  0
   17.6870  -17.8980   15.9600 C   0  0  0  0  0  0
   19.7200  -21.0650   17.7390 O   0  0  0  0  0  0
   18.8850  -21.5650   16.6900 C   0  0  0  0  0  0
   27.3940  -12.8940   18.8890 C   0  0  0  0  0  0
   27.6570  -11.6450   19.0610 N   0  3  0  0  0  0
   28.4720  -13.7380   18.7040 N   0  0  0  0  0  0
   24.0794  -16.9314   18.1815 H   0  0  0  0  0  0
   21.6440  -12.6762   18.9931 H   0  0  0  0  0  0
   20.3691  -14.7860   18.5868 H   0  0  0  0  0  0
   26.2983  -15.5054   18.4396 H   0  0  0  0  0  0
   22.7652  -18.2936   19.4768 H   0  0  0  0  0  0
   19.9707  -16.5979   16.6959 H   0  0  0  0  0  0
   21.7106  -20.5134   19.2085 H   0  0  0  0  0  0
   16.9475  -18.3107   15.2579 H   0  0  0  0  0  0
   18.1825  -17.0293   15.5020 H   0  0  0  0  0  0
   17.1800  -17.5855   16.8848 H   0  0  0  0  0  0
   18.6174  -22.6108   16.9014 H   0  0  0  0  0  0
   19.4258  -21.5110   15.7336 H   0  0  0  0  0  0
   17.9700  -20.9575   16.6286 H   0  0  0  0  0  0
   26.8382  -10.9264   19.2131 H   0  0  0  0  0  0
   28.3076  -14.8150   18.5523 H   0  0  0  0  0  0
   29.4947  -13.3330   18.7084 H   0  0  0  0  0  0
   28.7004  -11.2969   19.0558 H   0  0  0  0  0  0
  1  2  2  0  0  0
  1  3  1  0  0  0
  1  7  1  0  0  0
  2  4  1  0  0  0
  2  9  1  0  0  0
  3  5  2  0  0  0
  3 23  1  0  0  0
  4  6  2  0  0  0
  4 24  1  0  0  0
  5  6  1  0  0  0
  5 10  1  0  0  0
  6 25  1  0  0  0
  7  8  2  0  0  0
  7 26  1  0  0  0
  8  9  1  0  0  0
  8 20  1  0  0  0
 10 11  2  0  0  0
 10 12  1  0  0  0
 11 13  1  0  0  0
 11 27  1  0  0  0
 12 14  2  0  0  0
 12 28  1  0  0  0
 13 15  2  0  0  0
 13 29  1  0  0  0
 14 15  1  0  0  0
 14 16  1  0  0  0
 15 18  1  0  0  0
 16 17  1  0  0  0
 17 30  1  0  0  0
 17 31  1  0  0  0
 17 32  1  0  0  0
 18 19  1  0  0  0
 19 33  1  0  0  0
 19 34  1  0  0  0
 19 35  1  0  0  0
 20 21  2  0  0  0
 20 22  1  0  0  0
 21 36  1  0  0  0
 21 39  1  0  0  0
 22 37  1  0  0  0
 22 38  1  0  0  0
M  CHG  1  21   1
M  END
> <s_m_source_file>
../3lc3_ligand.sdf

> <i_m_source_file_index>
1

> <s_epik_input>
W0hdL049QyhbTkgyXSlcYyhbY0hdMSlzYyhjMTIpW2NIXVtjSF1jKFtjSF0yKS1jM1tjSF1bY0hdYyhPW0NIM10pYyhbY0hdMylPW0NIM10=

> <s_epik_cmdline>
J2VwaWtfYXBwJywgJy1pbWFlJywgJ2xpZ2FuZF9wcm8ubWFlJywgJy1vbWFlJywgJ2xpZ2FuZF9wcmVwLm1hZScsICctbXMnLCAnMScsICctcGgnLCAnNycsICctcGh0JywgJzAuNScsICctbnQn

> <r_lp_tautomer_probability>
1

> <r_epik_Ionization_Penalty>
  0.0030

> <r_epik_Ionization_Penalty_Charging>
  0.0030

> <r_epik_Ionization_Penalty_Neutral>
  0.0000

> <r_epik_State_Penalty>
 -0.0000

> <r_epik_Charging_Adjusted_Penalty>
0.00300749696423694

> <i_epik_Tot_Q>
1

> <i_epik_Tot_abs_Q>
1

> <s_epik_Chemistry_Notes>
This compound has an imine and may undergo hydrolysis.

$$$$
