3lcd_ligand
                    3D
 Schrodinger Suite 2020-3.
 67 71  0  0  1  0            999 V2000
  -19.9480    4.8310  -17.4700 N   0  0  0  0  0  0
  -20.1390    2.7060  -18.4450 N   0  0  0  0  0  0
  -20.9560    1.7200  -18.8190 C   0  0  0  0  0  0
  -22.3160    1.7730  -18.6510 C   0  0  0  0  0  0
  -22.1230    3.8530  -17.7240 C   0  0  0  0  0  0
  -24.6870    4.4610  -15.8140 C   0  0  0  0  0  0
  -26.3390    2.9640  -14.8590 C   0  0  0  0  0  0
  -24.7760    4.0420  -13.4470 C   0  0  0  0  0  0
  -25.1860   -0.5970  -18.7170 C   0  0  0  0  0  0
  -24.8410   -1.4230  -19.7630 C   0  0  0  0  0  0
  -23.6700   -1.1990  -20.4550 C   0  0  0  0  0  0
  -25.7730   -2.5160  -20.1080 C   0  0  0  0  0  0
  -24.0240   -5.6960  -20.0830 C   0  0  0  0  0  0
  -20.7490    3.7660  -17.8930 C   0  0  0  0  0  0
  -22.9140    2.8420  -18.1080 N   0  0  0  0  0  0
  -22.6480    5.0260  -17.1270 N   0  0  0  0  0  0
  -24.1070    5.1310  -17.0360 C   0  0  0  0  0  0
  -25.7620    3.5950  -15.9400 C   0  0  0  0  0  0
  -26.4560    3.2720  -17.4780 Cl  0  0  0  0  0  0
  -25.8400    3.1830  -13.5970 C   0  0  0  0  0  0
  -24.2100    4.6750  -14.5330 C   0  0  0  0  0  0
  -22.8930    5.7390  -14.2040 Cl  0  0  0  0  0  0
  -23.1750    0.6770  -19.0420 C   0  0  0  0  0  0
  -24.3560    0.4450  -18.3630 C   0  0  0  0  0  0
  -22.8420   -0.1570  -20.0910 C   0  0  0  0  0  0
  -26.9580   -2.2710  -19.9230 O   0  0  0  0  0  0
  -25.2870   -3.7300  -20.6080 N   0  0  0  0  0  0
  -23.9500   -4.2040  -20.3270 C   0  0  0  0  0  0
  -25.4690   -6.0870  -20.2300 C   0  0  0  0  0  0
  -26.2080   -4.8490  -20.6890 C   0  0  2  0  0  0
  -26.7740   -5.1040  -22.0770 C   0  0  0  0  0  0
  -27.2850   -3.8900  -22.7060 N   0  3  0  0  0  0
  -27.2390   -4.1170  -24.1510 C   0  0  0  0  0  0
  -28.5550   -3.6600  -24.7390 C   0  0  0  0  0  0
  -29.4850   -3.4220  -23.5760 C   0  0  0  0  0  0
  -28.6860   -3.7040  -22.3260 C   0  0  0  0  0  0
  -18.8562    4.7816  -17.5951 H   0  0  0  0  0  0
  -20.4095    5.7183  -17.0121 H   0  0  0  0  0  0
  -20.5229    0.8318  -19.2791 H   0  0  0  0  0  0
  -27.1869    2.2946  -15.0041 H   0  0  0  0  0  0
  -24.3730    4.2255  -12.4510 H   0  0  0  0  0  0
  -26.1134   -0.7666  -18.1700 H   0  0  0  0  0  0
  -23.3982   -1.8451  -21.2898 H   0  0  0  0  0  0
  -23.3998   -6.2198  -20.8220 H   0  0  0  0  0  0
  -23.6590   -5.9204  -19.0699 H   0  0  0  0  0  0
  -22.0131    5.8370  -16.7408 H   0  0  0  0  0  0
  -24.5263    4.6683  -17.9416 H   0  0  0  0  0  0
  -24.3585    6.2018  -17.0213 H   0  0  0  0  0  0
  -26.2788    2.6857  -12.7320 H   0  0  0  0  0  0
  -24.6355    1.0961  -17.5347 H   0  0  0  0  0  0
  -21.9140    0.0098  -20.6380 H   0  0  0  0  0  0
  -23.5507   -3.7054  -19.4315 H   0  0  0  0  0  0
  -23.2887   -4.0048  -21.1832 H   0  0  0  0  0  0
  -25.5568   -6.8938  -20.9726 H   0  0  0  0  0  0
  -25.8546   -6.4370  -19.2611 H   0  0  0  0  0  0
  -27.0473   -4.5621  -20.0384 H   0  0  0  0  0  0
  -25.9853   -5.5140  -22.7250 H   0  0  0  0  0  0
  -27.6031   -5.8237  -22.0084 H   0  0  0  0  0  0
  -26.6952   -3.0129  -22.4013 H   0  0  0  0  0  0
  -26.4087   -3.5416  -24.5863 H   0  0  0  0  0  0
  -27.0864   -5.1882  -24.3492 H   0  0  0  0  0  0
  -28.3986   -2.7345  -25.3126 H   0  0  0  0  0  0
  -28.9504   -4.4415  -25.4045 H   0  0  0  0  0  0
  -29.8342   -2.3790  -23.5932 H   0  0  0  0  0  0
  -30.3485   -4.0991  -23.6525 H   0  0  0  0  0  0
  -29.0583   -4.6175  -21.8393 H   0  0  0  0  0  0
  -28.7674   -2.8576  -21.6282 H   0  0  0  0  0  0
  1 14  1  0  0  0
  1 37  1  0  0  0
  1 38  1  0  0  0
  2  3  2  0  0  0
  2 14  1  0  0  0
  3  4  1  0  0  0
  3 39  1  0  0  0
  4 15  2  0  0  0
  4 23  1  0  0  0
  5 14  2  0  0  0
  5 15  1  0  0  0
  5 16  1  0  0  0
  6 17  1  0  0  0
  6 18  2  0  0  0
  6 21  1  0  0  0
  7 18  1  0  0  0
  7 20  2  0  0  0
  7 40  1  0  0  0
  8 20  1  0  0  0
  8 21  2  0  0  0
  8 41  1  0  0  0
  9 10  2  0  0  0
  9 24  1  0  0  0
  9 42  1  0  0  0
 10 11  1  0  0  0
 10 12  1  0  0  0
 11 25  2  0  0  0
 11 43  1  0  0  0
 12 26  2  0  0  0
 12 27  1  0  0  0
 13 28  1  0  0  0
 13 29  1  0  0  0
 13 44  1  0  0  0
 13 45  1  0  0  0
 16 17  1  0  0  0
 16 46  1  0  0  0
 17 47  1  0  0  0
 17 48  1  0  0  0
 18 19  1  0  0  0
 20 49  1  0  0  0
 21 22  1  0  0  0
 23 24  2  0  0  0
 23 25  1  0  0  0
 24 50  1  0  0  0
 25 51  1  0  0  0
 27 28  1  0  0  0
 27 30  1  0  0  0
 28 52  1  0  0  0
 28 53  1  0  0  0
 29 30  1  0  0  0
 29 54  1  0  0  0
 29 55  1  0  0  0
 30 31  1  0  0  0
 30 56  1  0  0  0
 31 32  1  0  0  0
 31 57  1  0  0  0
 31 58  1  0  0  0
 32 33  1  0  0  0
 32 36  1  0  0  0
 32 59  1  0  0  0
 33 34  1  0  0  0
 33 60  1  0  0  0
 33 61  1  0  0  0
 34 35  1  0  0  0
 34 62  1  0  0  0
 34 63  1  0  0  0
 35 36  1  0  0  0
 35 64  1  0  0  0
 35 65  1  0  0  0
 36 66  1  0  0  0
 36 67  1  0  0  0
M  CHG  1  32   1
M  END
> <s_m_source_file>
../3lcd_ligand.sdf

> <i_m_source_file_index>
1

> <s_epik_input>
Q2xjMVtjSF1bY0hdW2NIXWMoQ2wpYzFbQ0gyXVtOSF1jKG4yKWMoW05IMl0pbltjSF1jMi1jKFtjSF1bY0hdMylbY0hdW2NIXWMzQyg9TylONFtDSDJdW0NIMl1bQ0gyXVtDQEBIXTRbQ0gyXVtOSCtdNVtDSDJdW0NIMl1bQ0gyXVtDSDJdNQ==

> <s_epik_cmdline>
J2VwaWtfYXBwJywgJy1pbWFlJywgJ2xpZ2FuZF9wcm8ubWFlJywgJy1vbWFlJywgJ2xpZ2FuZF9wcmVwLm1hZScsICctbXMnLCAnMScsICctcGgnLCAnNycsICctcGh0JywgJzAuNScsICctbnQn

> <r_lp_tautomer_probability>
1

> <r_epik_Ionization_Penalty>
  0.0030

> <r_epik_Ionization_Penalty_Charging>
  0.0029

> <r_epik_Ionization_Penalty_Neutral>
  0.0001

> <r_epik_State_Penalty>
 -0.0000

> <r_epik_Charging_Adjusted_Penalty>
0.00285710295203928

> <i_epik_Tot_Q>
1

> <i_epik_Tot_abs_Q>
1

$$$$
