3lce_ligand
                    3D
 Schrodinger Suite 2020-3.
 24 25  0  0  1  0            999 V2000
   13.4730    0.7340   37.4450 C   0  0  0  0  0  0
   16.5880    3.2070   38.5160 O   0  5  0  0  0  0
   14.5700    3.3970   37.7440 O   0  0  0  0  0  0
   18.3460    4.0900   35.3120 O   0  0  0  0  0  0
   17.2190    4.4960   32.1470 Cl  0  0  0  0  0  0
   17.8020    1.9810   33.5270 Cl  0  0  0  0  0  0
   13.9770    1.8130   36.6430 O   0  0  0  0  0  0
   15.3490    1.3280   34.2900 S   0  0  0  0  0  0
   15.7420    3.1210   37.6450 C   0  0  0  0  0  0
   15.2640    1.4280   36.0880 C   0  0  1  0  0  0
   15.4620    3.1380   33.9300 C   0  0  1  0  0  0
   16.1540    2.6370   36.3040 C   0  0  1  0  0  0
   15.7670    3.7450   35.3240 C   0  0  1  0  0  0
   16.8920    3.5400   33.5640 C   0  0  0  0  0  0
   17.0470    4.4430   34.7680 C   0  0  2  0  0  0
   12.4984    1.0168   37.8694 H   0  0  0  0  0  0
   14.1803    0.5217   38.2603 H   0  0  0  0  0  0
   13.3542   -0.1632   36.8197 H   0  0  0  0  0  0
   18.7236    4.6011   36.2099 H   0  0  0  0  0  0
   15.4506    0.5347   36.7021 H   0  0  0  0  0  0
   14.6795    3.5244   33.2604 H   0  0  0  0  0  0
   17.2230    2.3946   36.2122 H   0  0  0  0  0  0
   15.0015    4.3166   35.8692 H   0  0  0  0  0  0
   17.1233    5.5388   34.8263 H   0  0  0  0  0  0
  1  7  1  0  0  0
  1 16  1  0  0  0
  1 17  1  0  0  0
  1 18  1  0  0  0
  2  9  1  0  0  0
  3  9  2  0  0  0
  4 15  1  0  0  0
  4 19  1  0  0  0
  5 14  1  0  0  0
  6 14  1  0  0  0
  7 10  1  0  0  0
  8 10  1  0  0  0
  8 11  1  0  0  0
  9 12  1  0  0  0
 10 12  1  0  0  0
 10 20  1  0  0  0
 11 13  1  0  0  0
 11 14  1  0  0  0
 11 21  1  0  0  0
 12 13  1  0  0  0
 12 22  1  0  0  0
 13 15  1  0  0  0
 13 23  1  0  0  0
 14 15  1  0  0  0
 15 24  1  0  0  0
M  CHG  1   2  -1
M  END
> <s_m_source_file>
../3lce_ligand.sdf

> <i_m_source_file_index>
1

> <s_epik_input>
W0NIM11PW0NAQEhdKFMxKVtDQEhdKEMoPU8pW09IXSlbQ0BIXShbQ0BIXTEyKVtDQEBIXShbT0hdKUMyKENsKUNs

> <s_epik_cmdline>
J2VwaWtfYXBwJywgJy1pbWFlJywgJ2xpZ2FuZF9wcm8ubWFlJywgJy1vbWFlJywgJ2xpZ2FuZF9wcmVwLm1hZScsICctbXMnLCAnMScsICctcGgnLCAnNycsICctcGh0JywgJzAuNScsICctbnQn

> <r_lp_tautomer_probability>
1

> <r_epik_Ionization_Penalty>
  0.0002

> <r_epik_Ionization_Penalty_Charging>
  0.0001

> <r_epik_Ionization_Penalty_Neutral>
  0.0001

> <r_epik_State_Penalty>
 -0.0000

> <r_epik_Charging_Adjusted_Penalty>
0.000100906695236138

> <i_epik_Tot_Q>
-1

> <i_epik_Tot_abs_Q>
1

> <s_epik_Chemistry_Notes>
This compound contains an acetal/aminal-like group ( X-CH(R)-Y where X, Y are N, S, or O) that may be acid/base labile, releasing an aldehyde.

$$$$
