3lco_ligand
                    3D
 Schrodinger Suite 2020-3.
 58 61  0  0  1  0            999 V2000
   -9.7000   21.6150  -15.0520 C   0  0  0  0  0  0
  -10.6110   19.4170  -15.2280 C   0  0  0  0  0  0
  -10.6600   21.9410  -14.1190 C   0  0  0  0  0  0
  -11.5760   19.7320  -14.2970 C   0  0  0  0  0  0
   -4.9340   17.8360  -16.9560 C   0  0  0  0  0  0
   -7.1200   18.0230  -18.5290 C   0  0  0  0  0  0
   -8.6260   20.0100  -16.6180 C   0  0  0  0  0  0
   -9.6710   20.3530  -15.6080 C   0  0  0  0  0  0
   -4.8980   17.6110  -18.3140 C   0  0  0  0  0  0
   -7.2540   18.2730  -17.1810 C   0  0  0  0  0  0
    0.2150   17.9440  -18.7840 C   0  0  0  0  0  0
   -1.5260   19.8730  -19.2660 C   0  0  0  0  0  0
    4.4880   15.5800  -18.2030 C   0  0  0  0  0  0
  -12.0460   20.8940  -11.5550 C   0  0  0  0  0  0
   -4.9300   18.6080  -14.5300 C   0  0  0  0  0  0
    1.0110   15.6190  -17.9830 C   0  0  0  0  0  0
    0.5480   19.2710  -18.6430 C   0  0  0  0  0  0
    2.5430   17.0860  -18.6370 C   0  0  0  0  0  0
   -3.5900   17.2410  -18.9220 C   0  0  0  0  0  0
  -11.5900   20.9950  -13.7450 C   0  0  0  0  0  0
   -6.1390   18.1730  -16.3790 C   0  0  0  0  0  0
    1.1860   16.9300  -18.4870 C   0  0  0  0  0  0
   -1.8450   18.5410  -19.4070 C   0  0  0  0  0  0
   -2.5140   20.8220  -19.5410 N   0  0  0  0  0  0
   -5.9650   17.6940  -19.1190 N   0  3  0  0  0  0
   -0.3100   20.2660  -18.8770 N   0  0  0  0  0  0
    2.1770   14.9860  -17.8240 N   0  0  0  0  0  0
   -0.9950   17.5350  -19.1730 N   0  0  0  0  0  0
    3.0770   15.8970  -18.2300 N   0  0  0  0  0  0
  -12.5580   21.3200  -12.8120 O   0  0  0  0  0  0
   -6.2500   18.4120  -15.0210 O   0  0  0  0  0  0
   -8.4890   18.5950  -16.6480 O   0  0  0  0  0  0
   -3.1350   18.2460  -19.8160 O   0  0  0  0  0  0
   -8.9604   22.3574  -15.3520 H   0  0  0  0  0  0
  -10.5897   18.4201  -15.6682 H   0  0  0  0  0  0
  -10.6838   22.9386  -13.6804 H   0  0  0  0  0  0
  -12.3192   18.9919  -14.0005 H   0  0  0  0  0  0
   -4.0308   17.7496  -16.3519 H   0  0  0  0  0  0
   -8.0100   18.0978  -19.1538 H   0  0  0  0  0  0
   -8.9349   20.3821  -17.6060 H   0  0  0  0  0  0
   -7.6722   20.4773  -16.3320 H   0  0  0  0  0  0
    5.0646   16.4423  -18.5690 H   0  0  0  0  0  0
    4.6807   14.7098  -18.8476 H   0  0  0  0  0  0
    4.7917   15.3469  -17.1718 H   0  0  0  0  0  0
  -12.7749   21.1260  -10.7645 H   0  0  0  0  0  0
  -11.1011   21.4175  -11.3475 H   0  0  0  0  0  0
  -11.8661   19.8091  -11.5810 H   0  0  0  0  0  0
   -4.9664   18.8026  -13.4480 H   0  0  0  0  0  0
   -4.4722   19.4673  -15.0419 H   0  0  0  0  0  0
   -4.3303   17.7057  -14.7203 H   0  0  0  0  0  0
    0.0411   15.1784  -17.7522 H   0  0  0  0  0  0
    1.5601   19.5217  -18.3253 H   0  0  0  0  0  0
    3.0755   17.9648  -19.0006 H   0  0  0  0  0  0
   -2.8397   17.1128  -18.1279 H   0  0  0  0  0  0
   -3.6982   16.2990  -19.4797 H   0  0  0  0  0  0
   -3.5149   20.4970  -19.8612 H   0  0  0  0  0  0
   -2.2909   21.8941  -19.4373 H   0  0  0  0  0  0
   -5.9339   17.5103  -20.2031 H   0  0  0  0  0  0
  1  3  2  0  0  0
  1  8  1  0  0  0
  1 34  1  0  0  0
  2  4  1  0  0  0
  2  8  2  0  0  0
  2 35  1  0  0  0
  3 20  1  0  0  0
  3 36  1  0  0  0
  4 20  2  0  0  0
  4 37  1  0  0  0
  5  9  2  0  0  0
  5 21  1  0  0  0
  5 38  1  0  0  0
  6 10  1  0  0  0
  6 25  2  0  0  0
  6 39  1  0  0  0
  7  8  1  0  0  0
  7 32  1  0  0  0
  7 40  1  0  0  0
  7 41  1  0  0  0
  9 19  1  0  0  0
  9 25  1  0  0  0
 10 21  2  0  0  0
 10 32  1  0  0  0
 11 17  2  0  0  0
 11 22  1  0  0  0
 11 28  1  0  0  0
 12 23  1  0  0  0
 12 24  1  0  0  0
 12 26  2  0  0  0
 13 29  1  0  0  0
 13 42  1  0  0  0
 13 43  1  0  0  0
 13 44  1  0  0  0
 14 30  1  0  0  0
 14 45  1  0  0  0
 14 46  1  0  0  0
 14 47  1  0  0  0
 15 31  1  0  0  0
 15 48  1  0  0  0
 15 49  1  0  0  0
 15 50  1  0  0  0
 16 22  1  0  0  0
 16 27  2  0  0  0
 16 51  1  0  0  0
 17 26  1  0  0  0
 17 52  1  0  0  0
 18 22  2  0  0  0
 18 29  1  0  0  0
 18 53  1  0  0  0
 19 33  1  0  0  0
 19 54  1  0  0  0
 19 55  1  0  0  0
 20 30  1  0  0  0
 21 31  1  0  0  0
 23 28  2  0  0  0
 23 33  1  0  0  0
 24 56  1  0  0  0
 24 57  1  0  0  0
 25 58  1  0  0  0
 27 29  1  0  0  0
M  CHG  1  25   1
M  END
> <s_m_source_file>
../3lco_ligand.sdf

> <i_m_source_file_index>
1

> <s_epik_input>
W2NIXTFbY0hdYyhPW0NIM10pW2NIXVtjSF1jMVtDSDJdT2MoW2NIXW4yKWMoT1tDSDNdKVtjSF1jMltDSDJdT2MobjMpYyhbTkgyXSluW2NIXWMzLWM0W2NIXW5uKFtDSDNdKVtjSF00

> <s_epik_cmdline>
J2VwaWtfYXBwJywgJy1pbWFlJywgJ2xpZ2FuZF9wcm8ubWFlJywgJy1vbWFlJywgJ2xpZ2FuZF9wcmVwLm1hZScsICctbXMnLCAnMScsICctcGgnLCAnNycsICctcGh0JywgJzAuNScsICctbnQn

> <r_lp_tautomer_probability>
1

> <r_epik_Ionization_Penalty>
  0.0951

> <r_epik_Ionization_Penalty_Charging>
  0.0950

> <r_epik_Ionization_Penalty_Neutral>
  0.0001

> <r_epik_State_Penalty>
  0.0852

> <r_epik_Charging_Adjusted_Penalty>
0.18028291525155

> <i_epik_Tot_Q>
1

> <i_epik_Tot_abs_Q>
1

$$$$
