3lcu_ligand
                    3D
 Schrodinger Suite 2020-3.
 46 48  0  0  1  0            999 V2000
    8.5910   -1.9530   22.6830 N   0  3  0  0  0  0
    7.2210   -1.6910   23.0920 C   0  0  1  0  0  0
    6.4860   -1.0800   21.8900 C   0  0  0  0  0  0
    6.5040   -1.8810   20.5930 C   0  0  0  0  0  0
    5.6630   -1.0990   19.2250 S   0  0  0  0  0  0
    6.4850   -3.0010   23.5670 C   0  0  0  0  0  0
    7.0660   -4.0160   23.4090 O   0  5  0  0  0  0
    5.4390   -3.0710   23.9650 O   0  0  0  0  0  0
    6.9830   -0.2940   18.4840 C   0  0  0  0  0  0
    7.5630    1.0610   19.0580 C   0  0  1  0  0  0
    8.5240    1.4670   18.0950 O   0  0  0  0  0  0
    6.5660    2.1910   19.1530 C   0  0  1  0  0  0
    6.3970    2.5750   20.5210 O   0  0  0  0  0  0
    7.1960    3.3030   18.2080 C   0  0  1  0  0  0
    6.9130    4.6220   18.6460 O   0  0  0  0  0  0
    8.6550    2.8990   18.2460 C   0  0  2  0  0  0
    9.4850    3.3500   17.2920 N   0  0  0  0  0  0
    9.2390    3.3810   15.9280 C   0  0  0  0  0  0
   10.2390    3.8610   15.2320 N   0  0  0  0  0  0
   11.2080    4.1620   16.2290 C   0  0  0  0  0  0
   12.5130    4.7090   16.0240 C   0  0  0  0  0  0
   13.0230    5.0240   14.8290 N   0  0  0  0  0  0
   13.2230    4.8910   17.1920 N   0  0  0  0  0  0
   12.7320    4.5740   18.4310 C   0  0  0  0  0  0
   11.4770    4.0400   18.6380 N   0  0  0  0  0  0
   10.7790    3.8670   17.4810 C   0  0  0  0  0  0
    9.0635   -1.0134   22.3607 H   0  0  0  0  0  0
    8.5938   -2.6699   21.8487 H   0  0  0  0  0  0
    9.1524   -2.3740   23.5301 H   0  0  0  0  0  0
    7.2955   -0.9822   23.9299 H   0  0  0  0  0  0
    5.4236   -0.9436   22.1405 H   0  0  0  0  0  0
    6.9327   -0.1054   21.6438 H   0  0  0  0  0  0
    7.5450   -2.0434   20.2768 H   0  0  0  0  0  0
    6.0143   -2.8525   20.7552 H   0  0  0  0  0  0
    7.8611   -0.9565   18.4801 H   0  0  0  0  0  0
    6.7179   -0.0306   17.4494 H   0  0  0  0  0  0
    7.9923    0.9349   20.0629 H   0  0  0  0  0  0
    5.5236    1.9293   18.9185 H   0  0  0  0  0  0
    5.9676    1.8645   21.2427 H   0  0  0  0  0  0
    6.8047    3.4442   17.1897 H   0  0  0  0  0  0
    5.8765    4.9903   18.6482 H   0  0  0  0  0  0
    9.2165    3.3253   19.0904 H   0  0  0  0  0  0
    8.3060    3.0398   15.4795 H   0  0  0  0  0  0
   12.4277    4.8652   13.9178 H   0  0  0  0  0  0
   14.0380    5.4420   14.7570 H   0  0  0  0  0  0
   13.3664    4.7532   19.2991 H   0  0  0  0  0  0
  1  2  1  0  0  0
  1 27  1  0  0  0
  1 28  1  0  0  0
  1 29  1  0  0  0
  2  3  1  0  0  0
  2  6  1  0  0  0
  2 30  1  0  0  0
  3  4  1  0  0  0
  3 31  1  0  0  0
  3 32  1  0  0  0
  4  5  1  0  0  0
  4 33  1  0  0  0
  4 34  1  0  0  0
  5  9  1  0  0  0
  6  7  1  0  0  0
  6  8  2  0  0  0
  9 10  1  0  0  0
  9 35  1  0  0  0
  9 36  1  0  0  0
 10 11  1  0  0  0
 10 12  1  0  0  0
 10 37  1  0  0  0
 11 16  1  0  0  0
 12 13  1  0  0  0
 12 14  1  0  0  0
 12 38  1  0  0  0
 13 39  1  0  0  0
 14 15  1  0  0  0
 14 16  1  0  0  0
 14 40  1  0  0  0
 15 41  1  0  0  0
 16 17  1  0  0  0
 16 42  1  0  0  0
 17 18  1  0  0  0
 17 26  1  0  0  0
 18 19  2  0  0  0
 18 43  1  0  0  0
 19 20  1  0  0  0
 20 21  2  0  0  0
 20 26  1  0  0  0
 21 22  1  0  0  0
 21 23  1  0  0  0
 22 44  1  0  0  0
 22 45  1  0  0  0
 23 24  2  0  0  0
 24 25  1  0  0  0
 24 46  1  0  0  0
 25 26  2  0  0  0
M  CHG  2   1   1   7  -1
M  END
> <s_m_source_file>
../3lcu_ligand.sdf

> <i_m_source_file_index>
1

> <s_epik_input>
W09IXUMoPU8pW0NAQEhdKFtOSDMrXSlbQ0gyXVtDSDJdU1tDSDJdW0NASF0xT1tDQEhdKFtDQEhdKFtPSF0pW0NAQEhdMVtPSF0pbihbY0hdbjIpYyhjMjMpbltjSF1uYzNbTkgyXQ==

> <s_epik_cmdline>
J2VwaWtfYXBwJywgJy1pbWFlJywgJ2xpZ2FuZF9wcm8ubWFlJywgJy1vbWFlJywgJ2xpZ2FuZF9wcmVwLm1hZScsICctbXMnLCAnMScsICctcGgnLCAnNycsICctcGh0JywgJzAuNScsICctbnQn

> <r_lp_tautomer_probability>
1

> <r_epik_Ionization_Penalty>
  0.0026

> <r_epik_Ionization_Penalty_Charging>
  0.0022

> <r_epik_Ionization_Penalty_Neutral>
  0.0004

> <r_epik_State_Penalty>
 -0.0000

> <r_epik_Charging_Adjusted_Penalty>
0.00216156469931729

> <i_epik_Tot_Q>
0

> <i_epik_Tot_abs_Q>
2

> <s_epik_Chemistry_Notes>
This compound contains an acetal/aminal-like group ( X-CH(R)-Y where X, Y are N, S, or O) that may be acid/base labile, releasing an aldehyde.

$$$$
