3lcv_ligand
                    3D
 Schrodinger Suite 2020-3.
 50 52  0  0  1  0            999 V2000
    8.8800   -1.7400   22.9860 N   0  3  0  0  0  0
    7.4430   -1.4750   23.1020 C   0  0  2  0  0  0
    6.6850   -2.7520   23.4550 C   0  0  0  0  0  0
    7.0640   -3.8230   23.0130 O   0  0  0  0  0  0
    5.5110   -2.8550   24.2750 O   0  5  0  0  0  0
    6.8680   -0.9090   21.6660 C   0  0  0  0  0  0
    6.8360   -1.7890   20.4270 C   0  0  0  0  0  0
    6.1850   -0.9500   18.9480 S   0  0  2  0  0  0
    5.7510   -2.2890   17.8130 C   0  0  0  0  0  0
    6.9580   -0.1310   18.3140 C   0  0  0  0  0  0
    7.5660    1.1460   18.8760 C   0  0  1  0  0  0
    8.8050    1.4340   18.1900 O   0  0  0  0  0  0
    6.6900    2.3680   18.6720 C   0  0  1  0  0  0
    6.3920    2.6690   20.0790 O   0  0  0  0  0  0
    7.5610    3.4890   18.1150 C   0  0  1  0  0  0
    7.4540    4.8020   18.6330 O   0  0  0  0  0  0
    8.9700    2.8340   18.1100 C   0  0  2  0  0  0
    9.7170    3.4880   17.1450 N   0  0  0  0  0  0
    9.4990    3.4780   15.7830 C   0  0  0  0  0  0
   10.5600    3.9520   15.1560 N   0  0  0  0  0  0
   11.4800    4.2880   16.0480 C   0  0  0  0  0  0
   12.7790    4.8310   15.9010 C   0  0  0  0  0  0
   13.2910    5.0970   14.7300 N   0  0  0  0  0  0
   13.5220    5.0850   17.0170 N   0  0  0  0  0  0
   12.9870    4.8040   18.2370 C   0  0  0  0  0  0
   11.7460    4.2810   18.3600 N   0  0  0  0  0  0
   10.9910    4.0230   17.2730 C   0  0  0  0  0  0
    9.2618   -2.1178   23.9459 H   0  0  0  0  0  0
    9.4044   -0.8094   22.7235 H   0  0  0  0  0  0
    9.0521   -2.4917   22.2015 H   0  0  0  0  0  0
    7.3692   -0.7821   23.9532 H   0  0  0  0  0  0
    5.8182   -0.6033   21.7863 H   0  0  0  0  0  0
    7.4675   -0.0439   21.3463 H   0  0  0  0  0  0
    7.8561   -2.1253   20.1897 H   0  0  0  0  0  0
    6.1960   -2.6637   20.6149 H   0  0  0  0  0  0
    5.0914   -3.0047   18.3255 H   0  0  0  0  0  0
    6.6665   -2.8035   17.4858 H   0  0  0  0  0  0
    5.2311   -1.8733   16.9373 H   0  0  0  0  0  0
    7.8651   -0.6610   17.9880 H   0  0  0  0  0  0
    6.4294    0.2660   17.4349 H   0  0  0  0  0  0
    7.7468    0.9741   19.9473 H   0  0  0  0  0  0
    5.8059    2.2460   18.0289 H   0  0  0  0  0  0
    5.7713    1.9791   20.6695 H   0  0  0  0  0  0
    7.1796    3.8987   17.1681 H   0  0  0  0  0  0
    6.4765    5.3059   18.6568 H   0  0  0  0  0  0
    9.7212    2.9167   18.9093 H   0  0  0  0  0  0
    8.5872    3.1307   15.2970 H   0  0  0  0  0  0
   12.7090    4.8998   13.8176 H   0  0  0  0  0  0
   14.3044    5.5183   14.6557 H   0  0  0  0  0  0
   13.5719    5.0050   19.1345 H   0  0  0  0  0  0
  1  2  1  0  0  0
  1 28  1  0  0  0
  1 29  1  0  0  0
  1 30  1  0  0  0
  2  3  1  0  0  0
  2  6  1  0  0  0
  2 31  1  0  0  0
  3  4  2  0  0  0
  3  5  1  0  0  0
  6  7  1  0  0  0
  6 32  1  0  0  0
  6 33  1  0  0  0
  7  8  1  0  0  0
  7 34  1  0  0  0
  7 35  1  0  0  0
  8  9  1  0  0  0
  8 10  1  0  0  0
  9 36  1  0  0  0
  9 37  1  0  0  0
  9 38  1  0  0  0
 10 11  1  0  0  0
 10 39  1  0  0  0
 10 40  1  0  0  0
 11 12  1  0  0  0
 11 13  1  0  0  0
 11 41  1  0  0  0
 12 17  1  0  0  0
 13 14  1  0  0  0
 13 15  1  0  0  0
 13 42  1  0  0  0
 14 43  1  0  0  0
 15 16  1  0  0  0
 15 17  1  0  0  0
 15 44  1  0  0  0
 16 45  1  0  0  0
 17 18  1  0  0  0
 17 46  1  0  0  0
 18 19  1  0  0  0
 18 27  1  0  0  0
 19 20  2  0  0  0
 19 47  1  0  0  0
 20 21  1  0  0  0
 21 22  2  0  0  0
 21 27  1  0  0  0
 22 23  1  0  0  0
 22 24  1  0  0  0
 23 48  1  0  0  0
 23 49  1  0  0  0
 24 25  2  0  0  0
 25 26  1  0  0  0
 25 50  1  0  0  0
 26 27  2  0  0  0
M  CHG  2   1   1   5  -1
M  END
> <s_m_source_file>
../3lcv_ligand.sdf

> <i_m_source_file_index>
1

> <s_epik_input>
Tz1DKFtPSF0pW0NAQEhdKFtOSDMrXSlbQ0gyXVtDSDJdW1NASF0oW0NIM10pW0NIMl1bQ0BIXTFPW0NASF0oW0NASF0oW09IXSlbQ0BASF0xW09IXSluKFtjSF1uMiljKGMyMyluW2NIXW5jM1tOSDJd

> <s_epik_cmdline>
J2VwaWtfYXBwJywgJy1pbWFlJywgJ2xpZ2FuZF9wcm8ubWFlJywgJy1vbWFlJywgJ2xpZ2FuZF9wcmVwLm1hZScsICctbXMnLCAnMScsICctcGgnLCAnNycsICctcGh0JywgJzAuNScsICctbnQn

> <r_lp_tautomer_probability>
1

> <r_epik_Ionization_Penalty>
  0.0015

> <r_epik_Ionization_Penalty_Charging>
  0.0011

> <r_epik_Ionization_Penalty_Neutral>
  0.0004

> <r_epik_State_Penalty>
 -0.0000

> <r_epik_Charging_Adjusted_Penalty>
0.00106610994672706

> <i_epik_Tot_Q>
0

> <i_epik_Tot_abs_Q>
2

> <s_epik_Chemistry_Notes>
This compound contains an acetal/aminal-like group ( X-CH(R)-Y where X, Y are N, S, or O) that may be acid/base labile, releasing an aldehyde.

$$$$
