3le8_ligand
                    3D
 Schrodinger Suite 2020-3.
 45 48  0  0  1  0            999 V2000
   18.6800   11.1590   -0.6510 C   0  0  0  0  0  0
   16.2250   10.4230   -1.2310 N   0  0  0  0  0  0
   18.3090   12.2840   -0.5210 O   0  0  0  0  0  0
   17.7310   10.1900   -1.2570 C   0  0  0  0  0  0
   11.0640    9.5750   -4.8030 C   0  0  0  0  0  0
   15.3190   12.5630    3.5510 O   0  0  0  0  0  0
   13.1810    9.2160    8.6200 C   0  0  0  0  0  0
   13.0790    7.9600    7.9790 C   0  0  0  0  0  0
   14.7260    9.8180   -4.5820 C   0  0  0  0  0  0
   13.6080   10.3240    7.8670 C   0  0  0  0  0  0
   13.4500    7.8470    6.6400 C   0  0  0  0  0  0
   15.7630    9.9440   -3.6410 C   0  0  0  0  0  0
   13.1230   10.3180   -2.8690 C   0  0  0  0  0  0
   14.1330   10.7590   -0.6210 C   0  0  0  0  0  0
   14.3850   11.1040    5.7230 C   0  0  0  0  0  0
   15.9930   11.0120    1.1780 C   0  0  0  0  0  0
   15.3370   10.5090    2.3940 N   0  0  0  0  0  0
   12.4150    9.8210   -5.1960 O   0  0  0  0  0  0
   14.3100    9.1300    4.5280 O   0  0  0  0  0  0
   15.0780   11.3280    3.4430 C   0  0  0  0  0  0
   13.3900    9.9870   -4.2210 C   0  0  0  0  0  0
   15.4330   10.7100   -0.1940 C   0  0  0  0  0  0
   14.6050   10.6150    4.5030 C   0  0  0  0  0  0
   13.9360   10.1640    6.5850 C   0  0  0  0  0  0
   14.1510   10.4450   -1.9580 C   0  0  0  0  0  0
   13.8450    8.9540    5.9690 C   0  0  0  0  0  0
   15.4440   10.2470   -2.3340 C   0  0  0  0  0  0
   19.8310   10.7280   -0.4130 O   0  5  0  0  0  0
   17.9485   10.0861   -2.3303 H   0  0  0  0  0  0
   17.8404    9.2126   -0.7644 H   0  0  0  0  0  0
   10.4347    9.4703   -5.6991 H   0  0  0  0  0  0
   10.6998   10.4166   -4.1955 H   0  0  0  0  0  0
   11.0170    8.6486   -4.2117 H   0  0  0  0  0  0
   12.9337    9.3232    9.6762 H   0  0  0  0  0  0
   12.7145    7.0901    8.5254 H   0  0  0  0  0  0
   14.9722    9.5828   -5.6175 H   0  0  0  0  0  0
   13.6705   11.3091    8.3294 H   0  0  0  0  0  0
   13.4223    6.8790    6.1396 H   0  0  0  0  0  0
   16.8020    9.8045   -3.9396 H   0  0  0  0  0  0
   12.0939   10.4739   -2.5455 H   0  0  0  0  0  0
   13.2569   10.9997   -0.0188 H   0  0  0  0  0  0
   14.5489   12.1465    5.9958 H   0  0  0  0  0  0
   16.0217   12.1113    1.2048 H   0  0  0  0  0  0
   17.0193   10.6196    1.1260 H   0  0  0  0  0  0
   15.0468    9.4503    2.4646 H   0  0  0  0  0  0
  1  3  2  0  0  0
  1  4  1  0  0  0
  1 28  1  0  0  0
  2  4  1  0  0  0
  2 22  1  0  0  0
  2 27  1  0  0  0
  4 29  1  0  0  0
  4 30  1  0  0  0
  5 18  1  0  0  0
  5 31  1  0  0  0
  5 32  1  0  0  0
  5 33  1  0  0  0
  6 20  2  0  0  0
  7  8  2  0  0  0
  7 10  1  0  0  0
  7 34  1  0  0  0
  8 11  1  0  0  0
  8 35  1  0  0  0
  9 12  1  0  0  0
  9 21  2  0  0  0
  9 36  1  0  0  0
 10 24  2  0  0  0
 10 37  1  0  0  0
 11 26  2  0  0  0
 11 38  1  0  0  0
 12 27  2  0  0  0
 12 39  1  0  0  0
 13 21  1  0  0  0
 13 25  2  0  0  0
 13 40  1  0  0  0
 14 22  2  0  0  0
 14 25  1  0  0  0
 14 41  1  0  0  0
 15 23  2  0  0  0
 15 24  1  0  0  0
 15 42  1  0  0  0
 16 17  1  0  0  0
 16 22  1  0  0  0
 16 43  1  0  0  0
 16 44  1  0  0  0
 17 20  1  0  0  0
 17 45  1  0  0  0
 18 21  1  0  0  0
 19 23  1  0  0  0
 19 26  1  0  0  0
 20 23  1  0  0  0
 24 26  1  0  0  0
 25 27  1  0  0  0
M  CHG  1  28  -1
M  END
> <s_m_source_file>
../3le8_ligand.sdf

> <i_m_source_file_index>
1

> <s_epik_input>
W0NIM11PYyhbY0hdMSlbY0hdW2NIXWMoYzEyKW4oW0NIMl1DKD1PKVtPSF0pYyhbY0hdMilbQ0gyXVtOSF1DKD1PKWMoW2NIXTMpb2MoYzM0KVtjSF1bY0hdW2NIXVtjSF00

> <s_epik_cmdline>
J2VwaWtfYXBwJywgJy1pbWFlJywgJ2xpZ2FuZF9wcm8ubWFlJywgJy1vbWFlJywgJ2xpZ2FuZF9wcmVwLm1hZScsICctbXMnLCAnMScsICctcGgnLCAnNycsICctcGh0JywgJzAuNScsICctbnQn

> <r_lp_tautomer_probability>
1

> <r_epik_Ionization_Penalty>
  0.0001

> <r_epik_Ionization_Penalty_Charging>
  0.0001

> <r_epik_Ionization_Penalty_Neutral>
  0.0000

> <r_epik_State_Penalty>
 -0.0000

> <r_epik_Charging_Adjusted_Penalty>
6.71665907788125e-05

> <i_epik_Tot_Q>
-1

> <i_epik_Tot_abs_Q>
1

$$$$
