3lf0_ligand
                    3D
 Schrodinger Suite 2020-3.
 43 45  0  0  1  0            999 V2000
   28.0820   -0.0530   10.8460 P   0  0  0  0  0  0
   29.1140   -0.0150    9.7460 O   0  0  0  0  0  0
   28.6140   -0.7190   12.0910 O   0  5  0  0  0  0
   27.2830    1.2270   10.9360 O   0  5  0  0  0  0
   27.1730   -2.2110    9.2080 P   0  0  1  0  0  0
   28.3640   -3.0140    9.6910 O   0  5  0  0  0  0
   25.8190   -2.8280    8.9320 O   0  0  0  0  0  0
   26.9270   -1.0420   10.2980 O   0  0  0  0  0  0
   28.2890   -1.8170    6.5880 P   0  0  1  0  0  0
   27.6010   -0.9930    5.5610 O   0  0  0  0  0  0
   29.7800   -1.7940    6.9340 O   0  5  0  0  0  0
   27.5640   -1.2980    7.9320 O   0  0  0  0  0  0
   27.8190   -3.3460    6.3900 O   0  0  0  0  0  0
   28.5090   -4.4710    6.9430 C   0  0  0  0  0  0
   28.2150   -5.6290    6.0000 C   0  0  1  0  0  0
   26.8090   -5.7220    5.7550 O   0  0  0  0  0  0
   28.8140   -5.4210    4.6010 C   0  0  1  0  0  0
   30.1700   -5.8920    4.5590 O   0  0  0  0  0  0
   27.8780   -6.1910    3.6920 C   0  0  1  0  0  0
   28.2200   -7.5790    3.7160 O   0  0  0  0  0  0
   26.5520   -6.1660    4.4430 C   0  0  2  0  0  0
   25.5640   -5.1980    3.9420 N   0  0  0  0  0  0
   25.6320   -3.8520    3.9240 C   0  0  0  0  0  0
   24.4960   -3.3320    3.4020 N   0  0  0  0  0  0
   23.6870   -4.3680    3.0770 C   0  0  0  0  0  0
   22.3300   -4.5730    2.5100 C   0  0  0  0  0  0
   21.5310   -3.5470    2.1450 N   0  0  0  0  0  0
   21.8880   -5.8390    2.3570 N   0  0  0  0  0  0
   22.6080   -6.8980    2.7230 C   0  0  0  0  0  0
   23.8370   -6.8050    3.2590 N   0  0  0  0  0  0
   24.4060   -5.5870    3.4450 C   0  0  0  0  0  0
   29.5863   -4.2536    6.9899 H   0  0  0  0  0  0
   28.1309   -4.6711    7.9564 H   0  0  0  0  0  0
   28.5812   -6.5376    6.5003 H   0  0  0  0  0  0
   28.9429   -4.3773    4.2783 H   0  0  0  0  0  0
   30.9397   -5.4083    5.1784 H   0  0  0  0  0  0
   27.9076   -5.8258    2.6548 H   0  0  0  0  0  0
   29.1500   -7.9246    3.2410 H   0  0  0  0  0  0
   26.1187   -7.1761    4.3993 H   0  0  0  0  0  0
   26.4799   -3.2661    4.2788 H   0  0  0  0  0  0
   21.8783   -2.5101    2.2641 H   0  0  0  0  0  0
   20.5329   -3.7483    1.7286 H   0  0  0  0  0  0
   22.1790   -7.8899    2.5807 H   0  0  0  0  0  0
  1  2  2  0  0  0
  1  3  1  0  0  0
  1  4  1  0  0  0
  1  8  1  0  0  0
  5  6  1  0  0  0
  5  7  2  0  0  0
  5  8  1  0  0  0
  5 12  1  0  0  0
  9 10  2  0  0  0
  9 11  1  0  0  0
  9 12  1  0  0  0
  9 13  1  0  0  0
 13 14  1  0  0  0
 14 15  1  0  0  0
 14 32  1  0  0  0
 14 33  1  0  0  0
 15 16  1  0  0  0
 15 17  1  0  0  0
 15 34  1  0  0  0
 16 21  1  0  0  0
 17 18  1  0  0  0
 17 19  1  0  0  0
 17 35  1  0  0  0
 18 36  1  0  0  0
 19 20  1  0  0  0
 19 21  1  0  0  0
 19 37  1  0  0  0
 20 38  1  0  0  0
 21 22  1  0  0  0
 21 39  1  0  0  0
 22 23  1  0  0  0
 22 31  1  0  0  0
 23 24  2  0  0  0
 23 40  1  0  0  0
 24 25  1  0  0  0
 25 26  2  0  0  0
 25 31  1  0  0  0
 26 27  1  0  0  0
 26 28  1  0  0  0
 27 41  1  0  0  0
 27 42  1  0  0  0
 28 29  2  0  0  0
 29 30  1  0  0  0
 29 43  1  0  0  0
 30 31  2  0  0  0
M  CHG  4   3  -1   4  -1   6  -1  11  -1
M  END
> <s_m_source_file>
../3lf0_ligand.sdf

> <i_m_source_file_index>
1

> <s_epik_input>
Tz1QKFtPSF0pKFtPSF0pT1tQQF0oPU8pKFtPSF0pT1tQQEBdKD1PKShbT0hdKU9bQ0gyXVtDQEhdMU9bQ0BIXShbQ0BIXShbT0hdKVtDQEBIXTFbT0hdKW4oW2NIXW4yKWMoYzIzKW5bY0hdbmMzW05IMl0=

> <s_epik_cmdline>
J2VwaWtfYXBwJywgJy1pbWFlJywgJ2xpZ2FuZF9wcm8ubWFlJywgJy1vbWFlJywgJ2xpZ2FuZF9wcmVwLm1hZScsICctbXMnLCAnMScsICctcGgnLCAnNycsICctcGh0JywgJzAuNScsICctbnQn

> <r_lp_tautomer_probability>
0.999997216410988

> <r_epik_Ionization_Penalty>
  0.0818

> <r_epik_Ionization_Penalty_Charging>
  0.0813

> <r_epik_Ionization_Penalty_Neutral>
  0.0004

> <r_epik_State_Penalty>
  0.0708

> <r_epik_Charging_Adjusted_Penalty>
0.152157994418768

> <i_epik_Tot_Q>
-4

> <i_epik_Tot_abs_Q>
4

> <s_epik_Chemistry_Notes>
This compound contains an acetal/aminal-like group ( X-CH(R)-Y where X, Y are N, S, or O) that may be acid/base labile, releasing an aldehyde.

$$$$
