3lfn_ligand
                    3D
 Schrodinger Suite 2020-3.
 49 52  0  0  1  0            999 V2000
   38.4760   -6.9670   27.6650 C   0  0  0  0  0  0
   38.7670   -7.8590   26.6150 C   0  0  0  0  0  0
   39.0740   -7.3820   25.3280 C   0  0  0  0  0  0
   39.1280   -5.9940   25.1150 C   0  0  0  0  0  0
   38.8470   -5.1040   26.1550 C   0  0  0  0  0  0
   38.5160   -5.5890   27.4290 C   0  0  0  0  0  0
   39.3850   -8.2550   24.2700 C   0  0  0  0  0  0
   38.6430   -8.3330   23.0630 C   0  0  0  0  0  0
   39.0840   -9.1830   22.0430 C   0  0  0  0  0  0
   40.2340   -9.9550   22.1960 C   0  0  0  0  0  0
   40.9740   -9.8770   23.3690 C   0  0  0  0  0  0
   40.5430   -9.0360   24.4000 C   0  0  0  0  0  0
   37.4790   -7.6120   22.8050 C   0  0  0  0  0  0
   37.3270   -7.0710   21.5260 C   0  0  0  0  0  0
   36.2100   -6.3090   21.2130 C   0  0  0  0  0  0
   35.2150   -6.1260   22.1670 C   0  0  0  0  0  0
   35.3470   -6.6840   23.4390 C   0  0  0  0  0  0
   36.4610   -7.4660   23.7540 C   0  0  0  0  0  0
   34.1130   -5.4060   21.8380 O   0  0  0  0  0  0
   40.8560  -10.8010   21.3770 N   0  0  0  0  0  0
   41.8720  -11.2570   21.9120 N   0  3  0  0  0  0
   42.0350  -10.7480   23.1300 C   0  0  3  0  0  0
   43.1070  -11.0760   23.8700 N   0  0  0  0  0  0
   43.5290  -10.6280   25.0590 C   0  0  0  0  0  0
   44.8490  -11.2560   25.5110 C   0  0  0  0  0  0
   44.6370  -12.7000   25.9650 C   0  0  0  0  0  0
   45.8120  -13.1940   26.8070 C   0  0  0  0  0  0
   42.9620   -9.8040   25.7770 O   0  0  0  0  0  0
   38.2215   -7.3476   28.6542 H   0  0  0  0  0  0
   38.7542   -8.9328   26.8020 H   0  0  0  0  0  0
   39.3913   -5.6083   24.1301 H   0  0  0  0  0  0
   38.8851   -4.0295   25.9758 H   0  0  0  0  0  0
   38.2898   -4.8915   28.2355 H   0  0  0  0  0  0
   38.5186   -9.2424   21.1130 H   0  0  0  0  0  0
   41.1190   -8.9864   25.3240 H   0  0  0  0  0  0
   38.0907   -7.2485   20.7688 H   0  0  0  0  0  0
   36.1133   -5.8570   20.2259 H   0  0  0  0  0  0
   34.5772   -6.5089   24.1906 H   0  0  0  0  0  0
   36.5361   -7.9554   24.7251 H   0  0  0  0  0  0
   34.0204   -4.9710   20.8319 H   0  0  0  0  0  0
   43.8129  -11.8380   23.5080 H   0  0  0  0  0  0
   45.5637  -11.2490   24.6748 H   0  0  0  0  0  0
   45.2616  -10.6777   26.3508 H   0  0  0  0  0  0
   43.7209  -12.7632   26.5707 H   0  0  0  0  0  0
   44.5394  -13.3509   25.0836 H   0  0  0  0  0  0
   45.6294  -14.2334   27.1173 H   0  0  0  0  0  0
   45.9171  -12.5583   27.6985 H   0  0  0  0  0  0
   46.7356  -13.1460   26.2115 H   0  0  0  0  0  0
   42.4979  -11.9841   21.3738 H   0  0  0  0  0  0
  1  2  2  0  0  0
  1  6  1  0  0  0
  1 29  1  0  0  0
  2  3  1  0  0  0
  2 30  1  0  0  0
  3  4  2  0  0  0
  3  7  1  0  0  0
  4  5  1  0  0  0
  4 31  1  0  0  0
  5  6  2  0  0  0
  5 32  1  0  0  0
  6 33  1  0  0  0
  7  8  2  0  0  0
  7 12  1  0  0  0
  8  9  1  0  0  0
  8 13  1  0  0  0
  9 10  2  0  0  0
  9 34  1  0  0  0
 10 11  1  0  0  0
 10 20  1  0  0  0
 11 12  2  0  0  0
 11 22  1  0  0  0
 12 35  1  0  0  0
 13 14  2  0  0  0
 13 18  1  0  0  0
 14 15  1  0  0  0
 14 36  1  0  0  0
 15 16  2  0  0  0
 15 37  1  0  0  0
 16 17  1  0  0  0
 16 19  1  0  0  0
 17 18  2  0  0  0
 17 38  1  0  0  0
 18 39  1  0  0  0
 19 40  1  0  0  0
 20 21  2  0  0  0
 21 22  1  0  0  0
 21 49  1  0  0  0
 22 23  1  0  0  0
 23 24  1  0  0  0
 23 41  1  0  0  0
 24 25  1  0  0  0
 24 28  2  0  0  0
 25 26  1  0  0  0
 25 42  1  0  0  0
 25 43  1  0  0  0
 26 27  1  0  0  0
 26 44  1  0  0  0
 26 45  1  0  0  0
 27 46  1  0  0  0
 27 47  1  0  0  0
 27 48  1  0  0  0
M  CHG  1  21   1
M  END
> <s_m_source_file>
../3lfn_ligand.sdf

> <i_m_source_file_index>
1

> <s_epik_input>
W2NIXTFbY0hdYyhbT0hdKVtjSF1bY0hdYzEtYyhbY0hdMiljKC1jM1tjSF1bY0hdW2NIXVtjSF1bY0hdMylbY0hdYyhjMjQpW0NIXShOPU40KVtOSF1DKD1PKVtDSDJdW0NIMl1bQ0gzXQ==

> <s_epik_cmdline>
J2VwaWtfYXBwJywgJy1pbWFlJywgJ2xpZ2FuZF9wcm8ubWFlJywgJy1vbWFlJywgJ2xpZ2FuZF9wcmVwLm1hZScsICctbXMnLCAnMScsICctcGgnLCAnNycsICctcGh0JywgJzAuNScsICctbnQn

> <r_lp_tautomer_probability>
1

> <r_epik_Ionization_Penalty>
  0.0010

> <r_epik_Ionization_Penalty_Charging>
  0.0000

> <r_epik_Ionization_Penalty_Neutral>
  0.0010

> <r_epik_State_Penalty>
 -0.0000

> <r_epik_Charging_Adjusted_Penalty>
1.1235793219731e-06

> <i_epik_Tot_Q>
1

> <i_epik_Tot_abs_Q>
1

$$$$
