3lfs_ligand
                    3D
 Schrodinger Suite 2020-3.
 38 40  0  0  1  0            999 V2000
   39.4270   -7.6870   25.5620 C   0  0  0  0  0  0
   37.9800   -7.6880   22.8980 Cl  0  0  0  0  0  0
   40.2440   -6.5870   25.8510 C   0  0  0  0  0  0
   39.8200   -5.6070   26.7540 C   0  0  0  0  0  0
   38.5750   -5.7250   27.3790 C   0  0  0  0  0  0
   37.7640   -6.8320   27.1060 C   0  0  0  0  0  0
   38.1830   -7.8050   26.1900 C   0  0  0  0  0  0
   39.3150   -8.6950   23.3510 C   0  0  0  0  0  0
   39.8160   -9.6030   22.4150 C   0  0  0  0  0  0
   40.8690  -10.4530   22.7620 C   0  0  0  0  0  0
   41.4350  -10.3960   24.0320 C   0  0  0  0  0  0
   40.9560   -9.4580   24.9590 C   0  0  0  0  0  0
   39.8680   -8.6360   24.6400 C   0  0  0  0  0  0
   41.5610  -11.3490   22.0640 N   0  0  0  0  0  0
   42.4290  -11.8890   22.7660 N   0  3  0  0  0  0
   42.4770  -11.3210   23.9680 C   0  0  3  0  0  0
   43.3290  -11.7590   24.9180 N   0  0  0  0  0  0
   43.4730  -11.3490   26.1890 C   0  0  0  0  0  0
   44.5440  -12.1110   26.9810 C   0  0  0  0  0  0
   45.9230  -11.4400   26.9320 C   0  0  0  0  0  0
   45.8560   -9.9340   27.2150 C   0  0  0  0  0  0
   42.8300  -10.4590   26.7450 O   0  0  0  0  0  0
   41.2171   -6.4940   25.3688 H   0  0  0  0  0  0
   40.4599   -4.7515   26.9705 H   0  0  0  0  0  0
   38.2376   -4.9579   28.0760 H   0  0  0  0  0  0
   36.8024   -6.9375   27.6082 H   0  0  0  0  0  0
   37.5388   -8.6553   25.9663 H   0  0  0  0  0  0
   39.3856   -9.6483   21.4146 H   0  0  0  0  0  0
   41.4341   -9.3684   25.9344 H   0  0  0  0  0  0
   44.0385  -12.5680   24.6898 H   0  0  0  0  0  0
   44.2429  -12.1750   28.0370 H   0  0  0  0  0  0
   44.6529  -13.1250   26.5687 H   0  0  0  0  0  0
   46.5800  -11.8967   27.6868 H   0  0  0  0  0  0
   46.3621  -11.5768   25.9327 H   0  0  0  0  0  0
   46.8684   -9.5065   27.1671 H   0  0  0  0  0  0
   45.4348   -9.7677   28.2174 H   0  0  0  0  0  0
   45.2168   -9.4478   26.4634 H   0  0  0  0  0  0
   43.0271  -12.7182   22.3602 H   0  0  0  0  0  0
  1  3  2  0  0  0
  1  7  1  0  0  0
  1 13  1  0  0  0
  2  8  1  0  0  0
  3  4  1  0  0  0
  3 23  1  0  0  0
  4  5  2  0  0  0
  4 24  1  0  0  0
  5  6  1  0  0  0
  5 25  1  0  0  0
  6  7  2  0  0  0
  6 26  1  0  0  0
  7 27  1  0  0  0
  8  9  2  0  0  0
  8 13  1  0  0  0
  9 10  1  0  0  0
  9 28  1  0  0  0
 10 11  2  0  0  0
 10 14  1  0  0  0
 11 12  1  0  0  0
 11 16  1  0  0  0
 12 13  2  0  0  0
 12 29  1  0  0  0
 14 15  2  0  0  0
 15 16  1  0  0  0
 15 38  1  0  0  0
 16 17  1  0  0  0
 17 18  1  0  0  0
 17 30  1  0  0  0
 18 19  1  0  0  0
 18 22  2  0  0  0
 19 20  1  0  0  0
 19 31  1  0  0  0
 19 32  1  0  0  0
 20 21  1  0  0  0
 20 33  1  0  0  0
 20 34  1  0  0  0
 21 35  1  0  0  0
 21 36  1  0  0  0
 21 37  1  0  0  0
M  CHG  1  15   1
M  END
> <s_m_source_file>
../3lfs_ligand.sdf

> <i_m_source_file_index>
1

> <s_epik_input>
W2NIXTFbY0hdW2NIXVtjSF1bY0hdYzEtYyhjKENsKVtjSF0yKVtjSF1jKGMyMylbQ0hdKE49TjMpW05IXUMoPU8pW0NIMl1bQ0gyXVtDSDNd

> <s_epik_cmdline>
J2VwaWtfYXBwJywgJy1pbWFlJywgJ2xpZ2FuZF9wcm8ubWFlJywgJy1vbWFlJywgJ2xpZ2FuZF9wcmVwLm1hZScsICctbXMnLCAnMScsICctcGgnLCAnNycsICctcGh0JywgJzAuNScsICctbnQn

> <r_lp_tautomer_probability>
1

> <r_epik_Ionization_Penalty>
  0.0000

> <r_epik_Ionization_Penalty_Charging>
  0.0000

> <r_epik_Ionization_Penalty_Neutral>
  0.0000

> <r_epik_State_Penalty>
 -0.0000

> <r_epik_Charging_Adjusted_Penalty>
2.13546966621612e-06

> <i_epik_Tot_Q>
1

> <i_epik_Tot_abs_Q>
1

$$$$
