3lgl_ligand
                    3D
 Schrodinger Suite 2020-3.
 31 30  0  0  1  0            999 V2000
   -8.6250    2.5060    6.8590 N   0  3  0  0  0  0
   -7.8540    3.1080    7.9390 C   0  0  1  0  0  0
   -6.3520    2.7860    7.9950 C   0  0  0  0  0  0
   -5.7350    1.7060    8.8830 C   0  0  0  0  0  0
   -4.9360    2.1950   10.0820 C   0  0  0  0  0  0
   -4.1410    1.1260   10.8190 C   0  0  0  0  0  0
   -4.6440    0.5280   12.0280 N   0  3  0  0  0  0
   -4.2310   -0.8530   12.0860 C   0  0  0  0  0  0
   -6.0770    0.5200   11.9080 C   0  0  0  0  0  0
   -7.9960    4.6170    7.8880 C   0  0  0  0  0  0
   -7.9843    5.2511    8.9768 O   0  5  0  0  0  0
   -8.1221    5.2194    6.7885 O   0  0  0  0  0  0
   -8.5197    1.4118    6.8991 H   0  0  0  0  0  0
   -8.2520    2.8751    5.8923 H   0  0  0  0  0  0
   -9.6853    2.7767    6.9704 H   0  0  0  0  0  0
   -8.3310    2.6342    8.8096 H   0  0  0  0  0  0
   -6.0058    2.4773    6.9976 H   0  0  0  0  0  0
   -5.7970    3.6801    8.3153 H   0  0  0  0  0  0
   -6.5322    1.0670    9.2908 H   0  0  0  0  0  0
   -5.0424    1.0931    8.2874 H   0  0  0  0  0  0
   -4.2085    2.9520    9.7538 H   0  0  0  0  0  0
   -5.6189    2.6391   10.8213 H   0  0  0  0  0  0
   -3.9824    0.2637   10.1547 H   0  0  0  0  0  0
   -3.1676    1.5378   11.1239 H   0  0  0  0  0  0
   -4.2849    1.0774   12.9108 H   0  0  0  0  0  0
   -3.1361   -0.9047   12.1787 H   0  0  0  0  0  0
   -4.5460   -1.3688   11.1669 H   0  0  0  0  0  0
   -4.6960   -1.3385   12.9567 H   0  0  0  0  0  0
   -6.4466    1.5549   11.8595 H   0  0  0  0  0  0
   -6.5152    0.0146   12.7812 H   0  0  0  0  0  0
   -6.3652   -0.0157   10.9915 H   0  0  0  0  0  0
  1  2  1  0  0  0
  1 13  1  0  0  0
  1 14  1  0  0  0
  1 15  1  0  0  0
  2  3  1  0  0  0
  2 10  1  0  0  0
  2 16  1  0  0  0
  3  4  1  0  0  0
  3 17  1  0  0  0
  3 18  1  0  0  0
  4  5  1  0  0  0
  4 19  1  0  0  0
  4 20  1  0  0  0
  5  6  1  0  0  0
  5 21  1  0  0  0
  5 22  1  0  0  0
  6  7  1  0  0  0
  6 23  1  0  0  0
  6 24  1  0  0  0
  7  8  1  0  0  0
  7  9  1  0  0  0
  7 25  1  0  0  0
  8 26  1  0  0  0
  8 27  1  0  0  0
  8 28  1  0  0  0
  9 29  1  0  0  0
  9 30  1  0  0  0
  9 31  1  0  0  0
 10 11  1  0  0  0
 10 12  2  0  0  0
M  CHG  3   1   1   7   1  11  -1
M  END
> <s_m_source_file>
../3lgl_ligand.sdf

> <i_m_source_file_index>
1

> <s_epik_input>
W09IXUMoPU8pW0NAQEhdKFtOSDMrXSlbQ0gyXVtDSDJdW0NIMl1bQ0gyXVtOSCtdKFtDSDNdKVtDSDNd

> <s_epik_cmdline>
J2VwaWtfYXBwJywgJy1pbWFlJywgJ2xpZ2FuZF9wcm8ubWFlJywgJy1vbWFlJywgJ2xpZ2FuZF9wcmVwLm1hZScsICctbXMnLCAnMScsICctcGgnLCAnNycsICctcGh0JywgJzAuNScsICctbnQn

> <r_lp_tautomer_probability>
1

> <r_epik_Ionization_Penalty>
  0.0033

> <r_epik_Ionization_Penalty_Charging>
  0.0033

> <r_epik_Ionization_Penalty_Neutral>
  0.0000

> <r_epik_State_Penalty>
 -0.0000

> <r_epik_Charging_Adjusted_Penalty>
0.00328885673485871

> <i_epik_Tot_Q>
1

> <i_epik_Tot_abs_Q>
3

$$$$
