3lgs_ligand
                    3D
 Schrodinger Suite 2020-3.
 28 30  0  0  1  0            999 V2000
   21.5800   -7.9660    8.5140 C   0  0  0  0  0  0
   22.0840   -9.2510    8.8970 O   0  0  0  0  0  0
   21.4010   -7.1640    9.7920 C   0  0  1  0  0  0
   20.0400   -6.7200    9.9090 O   0  0  0  0  0  0
   21.7490   -8.1080   10.9350 C   0  0  1  0  0  0
   20.5550   -8.4860   11.6440 O   0  0  0  0  0  0
   22.3580   -9.3410   10.3010 C   0  0  2  0  0  0
   23.8220   -9.4950   10.5860 N   0  0  0  0  0  0
   24.6880  -10.2080    9.8320 C   0  0  0  0  0  0
   25.9410  -10.1740   10.3520 N   0  0  0  0  0  0
   25.9020   -9.4290   11.4660 C   0  0  0  0  0  0
   26.8840   -8.9870   12.4920 C   0  0  0  0  0  0
   28.2000   -9.3300   12.4340 N   0  0  0  0  0  0
   26.4270   -8.2060   13.4920 N   0  0  0  0  0  0
   25.1400   -7.8430   13.5600 C   0  0  0  0  0  0
   24.2020   -8.2120   12.6700 N   0  0  0  0  0  0
   24.5060   -8.9900   11.6130 C   0  0  0  0  0  0
   22.3001   -7.4748    7.8431 H   0  0  0  0  0  0
   20.6190   -8.0894    7.9933 H   0  0  0  0  0  0
   21.9943   -6.2378    9.8048 H   0  0  0  0  0  0
   19.6207   -6.0292    9.1626 H   0  0  0  0  0  0
   22.4039   -7.6398   11.6846 H   0  0  0  0  0  0
   19.9660   -7.7237   12.1750 H   0  0  0  0  0  0
   21.8991  -10.2644   10.6841 H   0  0  0  0  0  0
   24.4147  -10.7423    8.9221 H   0  0  0  0  0  0
   28.5667   -9.9673   11.6159 H   0  0  0  0  0  0
   28.8967   -8.9699   13.2053 H   0  0  0  0  0  0
   24.8328   -7.2073   14.3904 H   0  0  0  0  0  0
  1  2  1  0  0  0
  1  3  1  0  0  0
  1 18  1  0  0  0
  1 19  1  0  0  0
  2  7  1  0  0  0
  3  4  1  0  0  0
  3  5  1  0  0  0
  3 20  1  0  0  0
  4 21  1  0  0  0
  5  6  1  0  0  0
  5  7  1  0  0  0
  5 22  1  0  0  0
  6 23  1  0  0  0
  7  8  1  0  0  0
  7 24  1  0  0  0
  8  9  1  0  0  0
  8 17  1  0  0  0
  9 10  2  0  0  0
  9 25  1  0  0  0
 10 11  1  0  0  0
 11 12  2  0  0  0
 11 17  1  0  0  0
 12 13  1  0  0  0
 12 14  1  0  0  0
 13 26  1  0  0  0
 13 27  1  0  0  0
 14 15  2  0  0  0
 15 16  1  0  0  0
 15 28  1  0  0  0
 16 17  2  0  0  0
M  END
> <s_m_source_file>
../3lgs_ligand.sdf

> <i_m_source_file_index>
1

> <s_epik_input>
W09IXVtDQEBIXTFbQ0gyXU9bQ0BIXShbQ0BASF0xW09IXSluKFtjSF1uMiljKGMyMyluW2NIXW5jM1tOSDJd

> <s_epik_cmdline>
J2VwaWtfYXBwJywgJy1pbWFlJywgJ2xpZ2FuZF9wcm8ubWFlJywgJy1vbWFlJywgJ2xpZ2FuZF9wcmVwLm1hZScsICctbXMnLCAnMScsICctcGgnLCAnNycsICctcGh0JywgJzAuNScsICctbnQn

> <r_lp_tautomer_probability>
1

> <r_epik_Ionization_Penalty>
  0.0006

> <r_epik_Ionization_Penalty_Charging>
  0.0000

> <r_epik_Ionization_Penalty_Neutral>
  0.0006

> <r_epik_State_Penalty>
 -0.0000

> <r_epik_Charging_Adjusted_Penalty>
0

> <i_epik_Tot_Q>
0

> <i_epik_Tot_abs_Q>
0

> <s_epik_Chemistry_Notes>
This compound contains an acetal/aminal-like group ( X-CH(R)-Y where X, Y are N, S, or O) that may be acid/base labile, releasing an aldehyde.

$$$$
