3lhg_ligand
                    3D
 Schrodinger Suite 2020-3.
 44 47  0  0  1  0            999 V2000
   10.4030   -8.5530   16.6750 C   0  0  0  0  0  0
   10.3880   -2.5690   12.8550 F   0  0  0  0  0  0
   15.6220  -11.4310   17.5630 N   0  0  0  0  0  0
   14.1740   -6.3220   18.8820 O   0  0  0  0  0  0
    9.7940   -7.3590   16.2630 C   0  0  0  0  0  0
    8.5570   -4.8790   17.4570 F   0  0  0  0  0  0
   14.6990   -6.9240   15.4370 N   0  0  0  0  0  0
   11.7950   -8.6260   16.8110 C   0  0  0  0  0  0
   15.2620   -5.4750   17.0500 N   0  0  0  0  0  0
    8.9520   -2.5130   14.7290 C   0  0  0  0  0  0
   16.1690   -5.1750   14.8820 N   0  0  0  0  0  0
    8.4890   -3.1050   15.9030 C   0  0  0  0  0  0
   14.7450   -9.2980   18.3220 C   0  0  0  0  0  0
   15.0140   -9.7170   15.9690 C   0  0  0  0  0  0
   11.9500   -6.3090   16.1310 C   0  0  0  0  0  0
   10.4810   -4.3740   14.3880 C   0  0  0  0  0  0
   15.2430  -10.5760   18.5450 C   0  0  0  0  0  0
   15.5010  -10.9770   16.2960 C   0  0  0  0  0  0
   10.5730   -6.2310   15.9950 C   0  0  0  0  0  0
   10.0120   -4.9620   15.5660 C   0  0  0  0  0  0
   12.5600   -7.4870   16.5370 C   0  0  0  0  0  0
   14.6370   -8.8710   17.0090 C   0  0  0  0  0  0
    9.9440   -3.1500   13.9740 C   0  0  0  0  0  0
    9.0210   -4.3270   16.3210 C   0  0  0  0  0  0
   14.4950   -6.3880   17.7090 C   0  0  0  0  0  0
   15.3880   -5.8710   15.7560 C   0  0  0  0  0  0
   14.0850   -7.4710   16.6850 C   0  0  1  0  0  0
   15.8340   -4.2940   17.6980 C   0  0  0  0  0  0
    9.7902   -9.4283   16.8904 H   0  0  0  0  0  0
    8.7108   -7.3110   16.1517 H   0  0  0  0  0  0
   14.5207   -7.4218   14.4724 H   0  0  0  0  0  0
   12.2738   -9.5536   17.1247 H   0  0  0  0  0  0
    8.5432   -1.5576   14.4000 H   0  0  0  0  0  0
    7.7141   -2.6157   16.4931 H   0  0  0  0  0  0
   14.4499   -8.6546   19.1509 H   0  0  0  0  0  0
   14.9296   -9.4004   14.9294 H   0  0  0  0  0  0
   12.5620   -5.4330   15.9161 H   0  0  0  0  0  0
   11.2563   -4.8634   13.7985 H   0  0  0  0  0  0
   15.3351  -10.9135   19.5773 H   0  0  0  0  0  0
   15.8029  -11.6374   15.4831 H   0  0  0  0  0  0
   15.5340   -4.2749   18.7561 H   0  0  0  0  0  0
   15.4668   -3.3865   17.1963 H   0  0  0  0  0  0
   16.9311   -4.3329   17.6285 H   0  0  0  0  0  0
   16.2594   -5.5100   13.8382 H   0  0  0  0  0  0
  1  5  2  0  0  0
  1  8  1  0  0  0
  1 29  1  0  0  0
  2 23  1  0  0  0
  3 17  2  0  0  0
  3 18  1  0  0  0
  4 25  2  0  0  0
  5 19  1  0  0  0
  5 30  1  0  0  0
  6 24  1  0  0  0
  7 26  1  0  0  0
  7 27  1  0  0  0
  7 31  1  0  0  0
  8 21  2  0  0  0
  8 32  1  0  0  0
  9 25  1  0  0  0
  9 26  1  0  0  0
  9 28  1  0  0  0
 10 12  2  0  0  0
 10 23  1  0  0  0
 10 33  1  0  0  0
 11 26  2  0  0  0
 11 44  1  0  0  0
 12 24  1  0  0  0
 12 34  1  0  0  0
 13 17  1  0  0  0
 13 22  2  0  0  0
 13 35  1  0  0  0
 14 18  2  0  0  0
 14 22  1  0  0  0
 14 36  1  0  0  0
 15 19  2  0  0  0
 15 21  1  0  0  0
 15 37  1  0  0  0
 16 20  1  0  0  0
 16 23  2  0  0  0
 16 38  1  0  0  0
 17 39  1  0  0  0
 18 40  1  0  0  0
 19 20  1  0  0  0
 20 24  2  0  0  0
 21 27  1  0  0  0
 22 27  1  0  0  0
 25 27  1  0  0  0
 28 41  1  0  0  0
 28 42  1  0  0  0
 28 43  1  0  0  0
M  END
> <s_m_source_file>
../3lhg_ligand.sdf

> <i_m_source_file_index>
1

> <s_epik_input>
W2NIXTFbY0hdbltjSF1bY0hdYzFbQ0BAXTIoW05IXVxDKD1OXFtIXSlOKEMyPU8pW0NIM10pYyhbY0hdMylbY0hdW2NIXVtjSF1jMy1jNFtjSF1jKEYpW2NIXVtjSF1jNEY=

> <s_epik_cmdline>
J2VwaWtfYXBwJywgJy1pbWFlJywgJ2xpZ2FuZF9wcm8ubWFlJywgJy1vbWFlJywgJ2xpZ2FuZF9wcmVwLm1hZScsICctbXMnLCAnMScsICctcGgnLCAnNycsICctcGh0JywgJzAuNScsICctbnQn

> <r_lp_tautomer_probability>
1

> <r_epik_Ionization_Penalty>
  0.3813

> <r_epik_Ionization_Penalty_Charging>
  0.0000

> <r_epik_Ionization_Penalty_Neutral>
  0.3813

> <r_epik_State_Penalty>
 -0.0000

> <r_epik_Charging_Adjusted_Penalty>
0

> <i_epik_Tot_Q>
0

> <i_epik_Tot_abs_Q>
0

> <s_epik_Chemistry_Notes>
This compound has an imine and may undergo hydrolysis.

$$$$
