3lhs_ligand
                    3D
 Schrodinger Suite 2020-3.
 52 51  0  0  1  0            999 V2000
   10.1020   -6.6050    9.2670 C   0  0  0  0  0  0
    9.0240   -7.5650    8.7450 C   0  0  0  0  0  0
    7.5970   -7.5890    9.3460 C   0  0  1  0  0  0
    6.8800   -8.8100    8.8060 C   0  0  0  0  0  0
    5.6360   -9.1030    9.6170 C   0  0  0  0  0  0
    5.6140  -10.2720   10.2820 N   0  0  0  0  0  0
    4.5960  -10.7380   11.2230 C   0  0  2  0  0  0
    5.2440  -11.0330   12.5760 C   0  0  0  0  0  0
    6.1080   -9.8380   12.9490 C   0  0  0  0  0  0
    6.3540   -9.6740   14.4280 C   0  0  0  0  0  0
    7.0970   -8.4350   14.6420 N   0  0  0  0  0  0
    6.9960   -7.6530   15.7360 C   0  0  0  0  0  0
    7.8670   -6.3700   15.7900 C   0  0  0  0  0  0
    8.0370   -5.6920   14.4230 C   0  0  2  0  0  0
    8.8510   -4.4220   14.6310 C   0  0  0  0  0  0
    9.3130   -3.6580   13.3680 C   0  0  0  0  0  0
   11.1970   -6.6850    8.6870 O   0  0  0  0  0  0
    9.8660   -5.8450   10.2600 O   0  5  0  0  0  0
    7.6550   -7.6600   10.7980 O   0  0  0  0  0  0
    6.9690   -6.2410    8.9690 C   0  0  0  0  0  0
    6.4520   -6.1150    7.8420 O   0  0  0  0  0  0
    7.0090   -5.2510    9.7720 O   0  5  0  0  0  0
    4.7260   -8.2960    9.6300 O   0  0  0  0  0  0
    3.8920  -11.9790   10.7390 C   0  0  0  0  0  0
    2.8620  -12.3740   11.3360 O   0  5  0  0  0  0
    4.3570  -12.5880    9.7500 O   0  0  0  0  0  0
    6.2490   -7.9580   16.6520 O   0  0  0  0  0  0
    6.7000   -5.3100   13.8430 C   0  0  0  0  0  0
    8.7080   -6.5030   13.4740 O   0  0  0  0  0  0
    6.4980   -5.3810   12.6130 O   0  5  0  0  0  0
    5.8100   -5.0090   14.6240 O   0  0  0  0  0  0
    8.9490   -3.8700   12.2320 O   0  5  0  0  0  0
   10.0290   -2.6920   13.5090 O   0  0  0  0  0  0
    8.8417   -7.3666    7.6785 H   0  0  0  0  0  0
    9.3650   -8.6031    8.8717 H   0  0  0  0  0  0
    6.5886   -8.6315    7.7604 H   0  0  0  0  0  0
    7.5501   -9.6809    8.8563 H   0  0  0  0  0  0
    6.4829  -10.9065   10.0530 H   0  0  0  0  0  0
    3.8615   -9.9210   11.2780 H   0  0  0  0  0  0
    4.4601  -11.1877   13.3320 H   0  0  0  0  0  0
    5.8612  -11.9401   12.4970 H   0  0  0  0  0  0
    7.0944   -9.9356   12.4720 H   0  0  0  0  0  0
    5.6234   -8.9130   12.6033 H   0  0  0  0  0  0
    5.3907   -9.6292   14.9572 H   0  0  0  0  0  0
    6.9371  -10.5294   14.7998 H   0  0  0  0  0  0
    7.8024   -8.0777   13.8774 H   0  0  0  0  0  0
    7.4007   -5.6385   16.4663 H   0  0  0  0  0  0
    8.8711   -6.6238   16.1605 H   0  0  0  0  0  0
    8.2590   -3.6977   15.2098 H   0  0  0  0  0  0
    9.7734   -4.6634   15.1796 H   0  0  0  0  0  0
    8.0742   -8.5507   11.2888 H   0  0  0  0  0  0
    9.7111   -6.8954   13.6972 H   0  0  0  0  0  0
  1  2  1  0  0  0
  1 17  2  0  0  0
  1 18  1  0  0  0
  2  3  1  0  0  0
  2 34  1  0  0  0
  2 35  1  0  0  0
  3  4  1  0  0  0
  3 19  1  0  0  0
  3 20  1  0  0  0
  4  5  1  0  0  0
  4 36  1  0  0  0
  4 37  1  0  0  0
  5  6  1  0  0  0
  5 23  2  0  0  0
  6  7  1  0  0  0
  6 38  1  0  0  0
  7  8  1  0  0  0
  7 24  1  0  0  0
  7 39  1  0  0  0
  8  9  1  0  0  0
  8 40  1  0  0  0
  8 41  1  0  0  0
  9 10  1  0  0  0
  9 42  1  0  0  0
  9 43  1  0  0  0
 10 11  1  0  0  0
 10 44  1  0  0  0
 10 45  1  0  0  0
 11 12  1  0  0  0
 11 46  1  0  0  0
 12 13  1  0  0  0
 12 27  2  0  0  0
 13 14  1  0  0  0
 13 47  1  0  0  0
 13 48  1  0  0  0
 14 15  1  0  0  0
 14 28  1  0  0  0
 14 29  1  0  0  0
 15 16  1  0  0  0
 15 49  1  0  0  0
 15 50  1  0  0  0
 16 32  1  0  0  0
 16 33  2  0  0  0
 19 51  1  0  0  0
 20 21  2  0  0  0
 20 22  1  0  0  0
 24 25  1  0  0  0
 24 26  2  0  0  0
 28 30  1  0  0  0
 28 31  2  0  0  0
 29 52  1  0  0  0
M  CHG  5  18  -1  22  -1  25  -1  30  -1  32  -1
M  END
> <s_m_source_file>
../3lhs_ligand.sdf

> <i_m_source_file_index>
1

> <s_epik_input>
Tz1DKFtPSF0pW0NIMl1bQ0BAXShbT0hdKShDKD1PKVtPSF0pW0NIMl1DKD1PKVtOSF1bQ0BASF0oQyg9TylbT0hdKVtDSDJdW0NIMl1bQ0gyXVtOSF1DKD1PKVtDSDJdW0NAQF0oW09IXSkoQyg9TylbT0hdKVtDSDJdQyg9TylbT0hd

> <s_epik_cmdline>
J2VwaWtfYXBwJywgJy1pbWFlJywgJ2xpZ2FuZF9wcm8ubWFlJywgJy1vbWFlJywgJ2xpZ2FuZF9wcmVwLm1hZScsICctbXMnLCAnMScsICctcGgnLCAnNycsICctcGh0JywgJzAuNScsICctbnQn

> <r_lp_tautomer_probability>
1

> <r_epik_Ionization_Penalty>
  0.0091

> <r_epik_Ionization_Penalty_Charging>
  0.0091

> <r_epik_Ionization_Penalty_Neutral>
  0.0000

> <r_epik_State_Penalty>
 -0.0000

> <r_epik_Charging_Adjusted_Penalty>
0.00910827933954356

> <i_epik_Tot_Q>
-5

> <i_epik_Tot_abs_Q>
5

$$$$
