3li2_ligand
                    3D
 Schrodinger Suite 2020-3.
 52 51  0  0  1  0            999 V2000
   -5.7660   -6.1230    6.2080 C   0  0  0  0  0  0
   -6.2550   -4.6840    6.0100 C   0  0  0  0  0  0
   -5.2690   -3.7530    5.2810 C   0  0  1  0  0  0
   -5.7430   -2.2850    5.3810 C   0  0  0  0  0  0
   -4.6520   -1.2290    5.3970 C   0  0  0  0  0  0
   -4.1530   -0.8280    6.5800 N   0  0  0  0  0  0
   -2.9730    0.0370    6.6520 C   0  0  2  0  0  0
   -1.8110   -0.6300    7.3890 C   0  0  0  0  0  0
   -1.2030   -1.7190    6.4930 C   0  0  0  0  0  0
    0.1630   -2.1400    6.9750 C   0  0  0  0  0  0
    0.3450   -3.5760    6.8520 N   0  0  0  0  0  0
    1.4440   -4.1660    6.4050 C   0  0  0  0  0  0
    1.2690   -5.6250    5.9920 C   0  0  0  0  0  0
   -0.0460   -5.9040    5.2400 C   0  0  2  0  0  0
   -0.0290   -7.4020    4.8650 C   0  0  0  0  0  0
   -1.2700   -7.9720    4.1950 C   0  0  0  0  0  0
   -6.5890   -6.9590    6.6130 O   0  0  0  0  0  0
   -4.5920   -6.4660    5.9730 O   0  5  0  0  0  0
   -3.9900   -3.8940    5.8680 O   0  0  0  0  0  0
   -5.0760   -4.1890    3.8530 C   0  0  0  0  0  0
   -5.9990   -3.9990    3.0150 O   0  5  0  0  0  0
   -3.9710   -4.7190    3.5630 O   0  0  0  0  0  0
   -4.2720   -0.7690    4.3250 O   0  0  0  0  0  0
   -3.2880    1.4180    7.2220 C   0  0  0  0  0  0
   -2.5810    1.8940    8.1580 O   0  5  0  0  0  0
   -4.2540    2.0550    6.7100 O   0  0  0  0  0  0
    2.5550   -3.6270    6.3710 O   0  0  0  0  0  0
   -0.2380   -4.9700    4.0540 C   0  0  0  0  0  0
   -1.2000   -5.6310    6.0410 O   0  0  0  0  0  0
   -1.3780   -4.5120    3.8530 O   0  5  0  0  0  0
    0.6900   -4.6500    3.2900 O   0  0  0  0  0  0
   -2.2860   -7.2570    3.9790 O   0  5  0  0  0  0
   -1.2310   -9.1850    3.8560 O   0  0  0  0  0  0
   -7.1799   -4.6897    5.4145 H   0  0  0  0  0  0
   -6.4529   -4.2258    6.9903 H   0  0  0  0  0  0
   -6.3836   -2.0470    4.5190 H   0  0  0  0  0  0
   -6.3136   -2.1465    6.3112 H   0  0  0  0  0  0
   -4.6477   -1.1615    7.5042 H   0  0  0  0  0  0
   -2.6886    0.1660    5.5973 H   0  0  0  0  0  0
   -1.0454    0.1238    7.6249 H   0  0  0  0  0  0
   -2.1796   -1.0825    8.3214 H   0  0  0  0  0  0
   -1.8580   -2.6027    6.4942 H   0  0  0  0  0  0
   -1.1051   -1.3366    5.4663 H   0  0  0  0  0  0
    0.9350   -1.6362    6.3748 H   0  0  0  0  0  0
    0.2807   -1.8611    8.0325 H   0  0  0  0  0  0
   -0.4665   -4.2600    7.1411 H   0  0  0  0  0  0
    2.0944   -5.9194    5.3271 H   0  0  0  0  0  0
    1.2747   -6.2630    6.8881 H   0  0  0  0  0  0
    0.7953   -7.5948    4.1626 H   0  0  0  0  0  0
    0.1145   -8.0058    5.7732 H   0  0  0  0  0  0
   -3.8401   -3.6396    6.9276 H   0  0  0  0  0  0
   -1.3493   -6.1656    6.9907 H   0  0  0  0  0  0
  1  2  1  0  0  0
  1 17  2  0  0  0
  1 18  1  0  0  0
  2  3  1  0  0  0
  2 34  1  0  0  0
  2 35  1  0  0  0
  3  4  1  0  0  0
  3 19  1  0  0  0
  3 20  1  0  0  0
  4  5  1  0  0  0
  4 36  1  0  0  0
  4 37  1  0  0  0
  5  6  1  0  0  0
  5 23  2  0  0  0
  6  7  1  0  0  0
  6 38  1  0  0  0
  7  8  1  0  0  0
  7 24  1  0  0  0
  7 39  1  0  0  0
  8  9  1  0  0  0
  8 40  1  0  0  0
  8 41  1  0  0  0
  9 10  1  0  0  0
  9 42  1  0  0  0
  9 43  1  0  0  0
 10 11  1  0  0  0
 10 44  1  0  0  0
 10 45  1  0  0  0
 11 12  1  0  0  0
 11 46  1  0  0  0
 12 13  1  0  0  0
 12 27  2  0  0  0
 13 14  1  0  0  0
 13 47  1  0  0  0
 13 48  1  0  0  0
 14 15  1  0  0  0
 14 28  1  0  0  0
 14 29  1  0  0  0
 15 16  1  0  0  0
 15 49  1  0  0  0
 15 50  1  0  0  0
 16 32  1  0  0  0
 16 33  2  0  0  0
 19 51  1  0  0  0
 20 21  1  0  0  0
 20 22  2  0  0  0
 24 25  1  0  0  0
 24 26  2  0  0  0
 28 30  1  0  0  0
 28 31  2  0  0  0
 29 52  1  0  0  0
M  CHG  5  18  -1  21  -1  25  -1  30  -1  32  -1
M  END
> <s_m_source_file>
../3li2_ligand.sdf

> <i_m_source_file_index>
1

> <s_epik_input>
Tz1DKFtPSF0pW0NIMl1bQ0BAXShbT0hdKShDKD1PKVtPSF0pW0NIMl1DKD1PKVtOSF1bQ0BASF0oQyg9TylbT0hdKVtDSDJdW0NIMl1bQ0gyXVtOSF1DKD1PKVtDSDJdW0NAQF0oW09IXSkoQyg9TylbT0hdKVtDSDJdQyg9TylbT0hd

> <s_epik_cmdline>
J2VwaWtfYXBwJywgJy1pbWFlJywgJ2xpZ2FuZF9wcm8ubWFlJywgJy1vbWFlJywgJ2xpZ2FuZF9wcmVwLm1hZScsICctbXMnLCAnMScsICctcGgnLCAnNycsICctcGh0JywgJzAuNScsICctbnQn

> <r_lp_tautomer_probability>
1

> <r_epik_Ionization_Penalty>
  0.0091

> <r_epik_Ionization_Penalty_Charging>
  0.0091

> <r_epik_Ionization_Penalty_Neutral>
  0.0000

> <r_epik_State_Penalty>
 -0.0000

> <r_epik_Charging_Adjusted_Penalty>
0.00910827933954356

> <i_epik_Tot_Q>
-5

> <i_epik_Tot_abs_Q>
5

$$$$
