3lil_ligand
                    3D
 Schrodinger Suite 2020-3.
 68 70  0  0  1  0            999 V2000
    7.9270   24.8860    3.5260 C   0  0  0  0  0  0
    8.5820   29.1280    7.8280 N   0  0  0  0  0  0
    6.7380   28.1940    6.8540 O   0  0  0  0  0  0
   -2.7870   22.7180   11.1680 Cl  0  0  0  0  0  0
    8.0350   23.5920    4.3160 C   0  0  0  0  0  0
    7.9600   27.1250    4.7170 N   0  0  0  0  0  0
    9.8400   25.7920    4.5680 O   0  0  0  0  0  0
    6.8060   23.1240    5.1080 C   0  0  0  0  0  0
    5.3920   23.6500    5.0670 C   0  0  0  0  0  0
    8.5240   31.3740    2.1350 O   0  0  0  0  0  0
    4.6620   22.8010    5.9380 C   0  0  0  0  0  0
    3.1860   22.8150    6.2750 C   0  0  0  0  0  0
    2.7790   22.0030    7.4720 C   0  0  0  0  0  0
    1.4150   21.9680    7.8250 C   0  0  0  0  0  0
   11.1410   32.2680   10.8010 O   0  5  0  0  0  0
    0.4760   22.6700    7.0160 C   0  0  0  0  0  0
    5.6640   30.9480    9.3460 N   0  0  0  0  0  0
    7.0790   31.3330    7.6130 O   0  0  0  0  0  0
    0.8790   23.4470    5.8540 C   0  0  0  0  0  0
    2.2730   23.4980    5.4670 C   0  0  0  0  0  0
    8.7250   25.9950    4.2060 C   0  0  0  0  0  0
    5.5100   21.8280    6.5050 N   0  0  0  0  0  0
    6.8520   22.0690    5.9610 O   0  0  0  0  0  0
    8.6640   28.1570    5.4790 C   0  0  2  0  0  0
    7.9200   28.3580    6.7980 C   0  0  0  0  0  0
    8.6070   29.5080    4.7610 C   0  0  0  0  0  0
    9.5930   29.8290    3.6490 C   0  0  0  0  0  0
    9.2810   31.2240    3.1480 C   0  0  0  0  0  0
   -0.9850   22.7050    7.4610 C   0  0  0  0  0  0
   -1.2420   22.6970    8.9270 C   0  0  0  0  0  0
   -2.5230   22.8020    9.4000 C   0  0  0  0  0  0
   -3.5950   22.9940    8.4870 C   0  0  0  0  0  0
   -3.3300   23.0880    7.0730 C   0  0  0  0  0  0
   -1.9940   22.9740    6.5820 C   0  0  0  0  0  0
    7.7440   29.4870    8.9500 C   0  0  1  0  0  0
    8.5710   29.6200   10.2390 C   0  0  0  0  0  0
    8.9290   31.0230   10.7300 C   0  0  0  0  0  0
   10.3240   31.2540   11.3310 C   0  0  0  0  0  0
    6.8750   30.6960    8.5980 C   0  0  0  0  0  0
    9.7230   32.2590    3.9020 O   0  5  0  0  0  0
   10.5950   30.7470   12.3760 O   0  0  0  0  0  0
    8.3236   24.7306    2.5118 H   0  0  0  0  0  0
    6.8719   25.1910    3.4644 H   0  0  0  0  0  0
    9.6364   29.4408    7.8068 H   0  0  0  0  0  0
    8.2654   22.7625    3.6313 H   0  0  0  0  0  0
    8.8371   23.6843    5.0631 H   0  0  0  0  0  0
    6.8777   27.2131    4.5415 H   0  0  0  0  0  0
    5.0144   24.4967    4.4937 H   0  0  0  0  0  0
    3.5204   21.4545    8.0530 H   0  0  0  0  0  0
    1.0840   21.4128    8.7027 H   0  0  0  0  0  0
    5.0348   31.8155    9.0979 H   0  0  0  0  0  0
    5.3717   30.2723   10.1633 H   0  0  0  0  0  0
    0.1320   23.9903    5.2753 H   0  0  0  0  0  0
    2.5970   24.0462    4.5824 H   0  0  0  0  0  0
    9.6984   27.7996    5.5897 H   0  0  0  0  0  0
    7.6238   29.6277    4.2824 H   0  0  0  0  0  0
    8.7610   30.3174    5.4898 H   0  0  0  0  0  0
   10.6186   29.7842    4.0441 H   0  0  0  0  0  0
    9.4808   29.0960    2.8365 H   0  0  0  0  0  0
   -0.4096   22.6075    9.6250 H   0  0  0  0  0  0
   -4.6178   23.0702    8.8559 H   0  0  0  0  0  0
   -4.1528   23.2467    6.3759 H   0  0  0  0  0  0
   -1.7829   23.1000    5.5201 H   0  0  0  0  0  0
    7.0590   28.6411    9.1092 H   0  0  0  0  0  0
    8.0239   29.1594   11.0748 H   0  0  0  0  0  0
    9.5375   29.1112   10.1087 H   0  0  0  0  0  0
    8.8625   31.7327    9.8922 H   0  0  0  0  0  0
    8.2279   31.3242   11.5223 H   0  0  0  0  0  0
  1  5  1  0  0  0
  1 21  1  0  0  0
  1 42  1  0  0  0
  1 43  1  0  0  0
  2 25  1  0  0  0
  2 35  1  0  0  0
  2 44  1  0  0  0
  3 25  2  0  0  0
  4 31  1  0  0  0
  5  8  1  0  0  0
  5 45  1  0  0  0
  5 46  1  0  0  0
  6 21  1  0  0  0
  6 24  1  0  0  0
  6 47  1  0  0  0
  7 21  2  0  0  0
  8  9  2  0  0  0
  8 23  1  0  0  0
  9 11  1  0  0  0
  9 48  1  0  0  0
 10 28  2  0  0  0
 11 12  1  0  0  0
 11 22  2  0  0  0
 12 13  2  0  0  0
 12 20  1  0  0  0
 13 14  1  0  0  0
 13 49  1  0  0  0
 14 16  2  0  0  0
 14 50  1  0  0  0
 15 38  1  0  0  0
 16 19  1  0  0  0
 16 29  1  0  0  0
 17 39  1  0  0  0
 17 51  1  0  0  0
 17 52  1  0  0  0
 18 39  2  0  0  0
 19 20  2  0  0  0
 19 53  1  0  0  0
 20 54  1  0  0  0
 22 23  1  0  0  0
 24 25  1  0  0  0
 24 26  1  0  0  0
 24 55  1  0  0  0
 26 27  1  0  0  0
 26 56  1  0  0  0
 26 57  1  0  0  0
 27 28  1  0  0  0
 27 58  1  0  0  0
 27 59  1  0  0  0
 28 40  1  0  0  0
 29 30  2  0  0  0
 29 34  1  0  0  0
 30 31  1  0  0  0
 30 60  1  0  0  0
 31 32  2  0  0  0
 32 33  1  0  0  0
 32 61  1  0  0  0
 33 34  2  0  0  0
 33 62  1  0  0  0
 34 63  1  0  0  0
 35 36  1  0  0  0
 35 39  1  0  0  0
 35 64  1  0  0  0
 36 37  1  0  0  0
 36 65  1  0  0  0
 36 66  1  0  0  0
 37 38  1  0  0  0
 37 67  1  0  0  0
 37 68  1  0  0  0
 38 41  2  0  0  0
M  CHG  2  15  -1  40  -1
M  END
> <s_m_source_file>
../3lil_ligand.sdf

> <i_m_source_file_index>
1

> <s_epik_input>
W09IXUMoPU8pW0NIMl1bQ0gyXVtDQEBIXShDKD1PKVtOSDJdKVtOSF1DKD1PKVtDQEhdKFtDSDJdW0NIMl1DKD1PKVtPSF0pW05IXUMoPU8pW0NIMl1bQ0gyXWMxW2NIXWMobm8xKS1jMltjSF1bY0hdYyhbY0hdW2NIXTIpLWMzW2NIXWMoQ2wpW2NIXVtjSF1bY0hdMw==

> <s_epik_cmdline>
J2VwaWtfYXBwJywgJy1pbWFlJywgJ2xpZ2FuZF9wcm8ubWFlJywgJy1vbWFlJywgJ2xpZ2FuZF9wcmVwLm1hZScsICctbXMnLCAnMScsICctcGgnLCAnNycsICctcGh0JywgJzAuNScsICctbnQn

> <r_lp_tautomer_probability>
1

> <r_epik_Ionization_Penalty>
  0.0035

> <r_epik_Ionization_Penalty_Charging>
  0.0035

> <r_epik_Ionization_Penalty_Neutral>
  0.0000

> <r_epik_State_Penalty>
 -0.0000

> <r_epik_Charging_Adjusted_Penalty>
0.00352337951204462

> <i_epik_Tot_Q>
-2

> <i_epik_Tot_abs_Q>
2

$$$$
