3lir_ligand
                    3D
 Schrodinger Suite 2020-3.
 58 59  0  0  1  0            999 V2000
    6.7240   31.0410    8.3400 C   0  0  0  0  0  0
    8.4530   29.5660    7.4880 N   0  0  0  0  0  0
    6.6730   28.5230    6.5970 O   0  0  0  0  0  0
    7.6960   29.9370    8.6710 C   0  0  1  0  0  0
    8.0150   27.4730    4.5940 N   0  0  0  0  0  0
    9.8760   26.1830    4.3700 O   0  0  0  0  0  0
    8.7430   30.4620    9.6410 C   0  0  0  0  0  0
    5.6310   22.2820    6.4150 N   0  0  0  0  0  0
    9.1500   29.3750   10.6210 C   0  0  0  0  0  0
    9.7360   32.1640    3.2120 O   0  5  0  0  0  0
   10.1000   29.9660   11.6400 C   0  0  0  0  0  0
    6.9020   22.6120    5.8790 O   0  0  0  0  0  0
    7.8500   28.8630    6.5330 C   0  0  0  0  0  0
    8.6640   28.5480    5.3210 C   0  0  2  0  0  0
    8.4910   29.7930    4.4610 C   0  0  0  0  0  0
   10.3700   31.1930   11.5930 O   0  5  0  0  0  0
    9.3250   29.8280    3.1910 C   0  0  0  0  0  0
    7.0430   31.8180    7.3980 N   0  0  0  0  0  0
    5.6800   31.1710    8.9630 O   0  0  0  0  0  0
    9.1330   31.2230    2.6470 C   0  0  0  0  0  0
    8.6790   26.3970    4.1820 C   0  0  0  0  0  0
    7.8260   25.3950    3.4700 C   0  0  0  0  0  0
    8.0490   24.1130    4.2270 C   0  0  0  0  0  0
    5.4760   23.9440    4.8860 C   0  0  0  0  0  0
    4.7730   23.1150    5.7930 C   0  0  0  0  0  0
    3.3150   23.0670    6.0910 C   0  0  0  0  0  0
    2.3930   23.6940    5.2590 C   0  0  0  0  0  0
    1.0410   23.6290    5.5580 C   0  0  0  0  0  0
    0.6260   22.9250    6.6890 C   0  0  0  0  0  0
    1.5440   22.2910    7.5220 C   0  0  0  0  0  0
    2.8950   22.3620    7.2200 C   0  0  0  0  0  0
    6.8360   23.6020    4.9560 C   0  0  0  0  0  0
    8.3640   31.3850    1.6730 O   0  0  0  0  0  0
   10.5840   29.1950   12.5010 O   0  0  0  0  0  0
    9.5070   29.8662    7.3929 H   0  0  0  0  0  0
    7.1252   29.0739    9.0442 H   0  0  0  0  0  0
    6.9402   27.5327    4.3674 H   0  0  0  0  0  0
    9.6310   30.7893    9.0803 H   0  0  0  0  0  0
    8.3293   31.3131   10.2018 H   0  0  0  0  0  0
    8.2553   28.9851   11.1284 H   0  0  0  0  0  0
    9.6481   28.5588   10.0772 H   0  0  0  0  0  0
    9.6941   28.2426    5.5571 H   0  0  0  0  0  0
    7.4404   29.8781    4.1462 H   0  0  0  0  0  0
    8.7725   30.6828    5.0432 H   0  0  0  0  0  0
   10.3778   29.6265    3.4381 H   0  0  0  0  0  0
    8.9596   29.0621    2.4911 H   0  0  0  0  0  0
    7.9909   31.6699    6.8600 H   0  0  0  0  0  0
    6.3731   32.6433    7.1150 H   0  0  0  0  0  0
    6.7748   25.7171    3.5056 H   0  0  0  0  0  0
    8.1501   25.3164    2.4218 H   0  0  0  0  0  0
    8.3588   23.3230    3.5270 H   0  0  0  0  0  0
    8.8358   24.2643    4.9806 H   0  0  0  0  0  0
    5.0392   24.7114    4.2469 H   0  0  0  0  0  0
    2.7325   24.2343    4.3753 H   0  0  0  0  0  0
    0.3104   24.1222    4.9169 H   0  0  0  0  0  0
   -0.4368   22.8704    6.9248 H   0  0  0  0  0  0
    1.2041   21.7448    8.4019 H   0  0  0  0  0  0
    3.6260   21.8695    7.8613 H   0  0  0  0  0  0
  1  4  1  0  0  0
  1 18  1  0  0  0
  1 19  2  0  0  0
  2  4  1  0  0  0
  2 13  1  0  0  0
  2 35  1  0  0  0
  3 13  2  0  0  0
  4  7  1  0  0  0
  4 36  1  0  0  0
  5 14  1  0  0  0
  5 21  1  0  0  0
  5 37  1  0  0  0
  6 21  2  0  0  0
  7  9  1  0  0  0
  7 38  1  0  0  0
  7 39  1  0  0  0
  8 12  1  0  0  0
  8 25  2  0  0  0
  9 11  1  0  0  0
  9 40  1  0  0  0
  9 41  1  0  0  0
 10 20  1  0  0  0
 11 16  1  0  0  0
 11 34  2  0  0  0
 12 32  1  0  0  0
 13 14  1  0  0  0
 14 15  1  0  0  0
 14 42  1  0  0  0
 15 17  1  0  0  0
 15 43  1  0  0  0
 15 44  1  0  0  0
 17 20  1  0  0  0
 17 45  1  0  0  0
 17 46  1  0  0  0
 18 47  1  0  0  0
 18 48  1  0  0  0
 20 33  2  0  0  0
 21 22  1  0  0  0
 22 23  1  0  0  0
 22 49  1  0  0  0
 22 50  1  0  0  0
 23 32  1  0  0  0
 23 51  1  0  0  0
 23 52  1  0  0  0
 24 25  1  0  0  0
 24 32  2  0  0  0
 24 53  1  0  0  0
 25 26  1  0  0  0
 26 27  2  0  0  0
 26 31  1  0  0  0
 27 28  1  0  0  0
 27 54  1  0  0  0
 28 29  2  0  0  0
 28 55  1  0  0  0
 29 30  1  0  0  0
 29 56  1  0  0  0
 30 31  2  0  0  0
 30 57  1  0  0  0
 31 58  1  0  0  0
M  CHG  2  10  -1  16  -1
M  END
> <s_m_source_file>
../3lir_ligand.sdf

> <i_m_source_file_index>
1

> <s_epik_input>
W09IXUMoPU8pW0NIMl1bQ0gyXVtDQEBIXShDKD1PKVtOSDJdKVtOSF1DKD1PKVtDQEhdKFtDSDJdW0NIMl1DKD1PKVtPSF0pW05IXUMoPU8pW0NIMl1bQ0gyXWMoW2NIXTEpb25jMS1jMltjSF1bY0hdW2NIXVtjSF1bY0hdMg==

> <s_epik_cmdline>
J2VwaWtfYXBwJywgJy1pbWFlJywgJ2xpZ2FuZF9wcm8ubWFlJywgJy1vbWFlJywgJ2xpZ2FuZF9wcmVwLm1hZScsICctbXMnLCAnMScsICctcGgnLCAnNycsICctcGh0JywgJzAuNScsICctbnQn

> <r_lp_tautomer_probability>
1

> <r_epik_Ionization_Penalty>
  0.0035

> <r_epik_Ionization_Penalty_Charging>
  0.0035

> <r_epik_Ionization_Penalty_Neutral>
  0.0000

> <r_epik_State_Penalty>
 -0.0000

> <r_epik_Charging_Adjusted_Penalty>
0.00352337951204462

> <i_epik_Tot_Q>
-2

> <i_epik_Tot_abs_Q>
2

$$$$
