3liw_ligand
                    3D
 Schrodinger Suite 2020-3.
 74 78  0  0  1  0            999 V2000
   19.2560   33.5070   16.9980 C   0  0  0  0  0  0
   19.3920   33.0200   18.4990 C   0  0  1  0  0  0
   20.1870   31.6440   18.5590 C   0  0  2  0  0  0
   20.2940   31.1750   19.9620 N   0  0  0  0  0  0
   20.9350   30.0160   20.3110 C   0  0  0  0  0  0
   21.4820   29.3100   19.4670 O   0  0  0  0  0  0
   21.0090   29.6970   21.6410 N   0  0  0  0  0  0
   21.8130   28.5380   22.1240 C   0  0  1  0  0  0
   23.2690   28.9570   21.8030 C   0  0  0  0  0  0
   23.5240   30.1270   22.0760 O   0  0  0  0  0  0
   24.2930   28.2380   21.2650 N   0  0  0  0  0  0
   24.3760   26.8470   20.8350 C   0  0  0  0  0  0
   25.3870   25.9730   21.6410 C   0  0  0  0  0  0
   25.6450   26.4600   23.0880 C   0  0  0  0  0  0
   26.4310   27.6040   23.4430 C   0  0  0  0  0  0
   26.5920   27.9920   24.8050 C   0  0  0  0  0  0
   25.9670   27.2400   25.8360 C   0  0  0  0  0  0
   25.1850   26.1020   25.5000 C   0  0  0  0  0  0
   25.0290   25.7230   24.1380 C   0  0  0  0  0  0
   21.6790   28.3860   23.6760 C   0  0  0  0  0  0
   20.2770   28.0000   24.2340 C   0  0  0  0  0  0
   19.4400   26.9760   23.6740 C   0  0  0  0  0  0
   18.1650   26.6960   24.2560 C   0  0  0  0  0  0
   17.7140   27.4260   25.3950 C   0  0  0  0  0  0
   18.5420   28.4440   25.9600 C   0  0  0  0  0  0
   18.1030   29.2430   27.1770 C   0  0  0  0  0  0
   18.9830   30.0000   27.7820 N   0  0  0  0  0  0
   16.8730   29.1620   27.6160 N   0  3  0  0  0  0
   19.8080   28.7140   25.3700 C   0  0  0  0  0  0
   21.6290   31.8860   17.9070 C   0  0  2  0  0  0
   22.4050   32.9790   18.7390 C   0  0  0  0  0  0
   21.6040   34.3410   18.6960 C   0  0  2  0  0  0
   20.1640   34.1380   19.3160 C   0  0  0  0  0  0
   21.4630   34.8180   17.2010 C   0  0  0  0  0  0
   20.6830   33.7260   16.3740 C   0  0  1  0  0  0
   21.4850   32.3750   16.4090 C   0  0  0  0  0  0
   18.7174   32.7467   16.4132 H   0  0  0  0  0  0
   18.6984   34.4547   16.9691 H   0  0  0  0  0  0
   18.3944   32.8604   18.9340 H   0  0  0  0  0  0
   19.6478   30.8223   18.0649 H   0  0  0  0  0  0
   19.8474   31.7661   20.7751 H   0  0  0  0  0  0
   20.4562   30.3204   22.3592 H   0  0  0  0  0  0
   21.4761   27.6107   21.6376 H   0  0  0  0  0  0
   25.1702   28.8953   21.1733 H   0  0  0  0  0  0
   23.3900   26.3710   20.9411 H   0  0  0  0  0  0
   24.6911   26.8069   19.7819 H   0  0  0  0  0  0
   25.0058   24.9437   21.7130 H   0  0  0  0  0  0
   26.3594   25.9687   21.1267 H   0  0  0  0  0  0
   26.9137   28.1871   22.6588 H   0  0  0  0  0  0
   27.1943   28.8652   25.0556 H   0  0  0  0  0  0
   26.0867   27.5343   26.8787 H   0  0  0  0  0  0
   24.7047   25.5195   26.2862 H   0  0  0  0  0  0
   24.4248   24.8494   23.8933 H   0  0  0  0  0  0
   22.3623   27.5990   24.0277 H   0  0  0  0  0  0
   21.9365   29.3390   24.1614 H   0  0  0  0  0  0
   19.7774   26.4119   22.8045 H   0  0  0  0  0  0
   17.5329   25.9190   23.8262 H   0  0  0  0  0  0
   16.7402   27.2079   25.8334 H   0  0  0  0  0  0
   20.0133   30.0578   27.4011 H   0  0  0  0  0  0
   18.6922   30.5783   28.6714 H   0  0  0  0  0  0
   16.1448   28.5215   27.0969 H   0  0  0  0  0  0
   20.4374   29.4919   25.8022 H   0  0  0  0  0  0
   22.1980   30.9447   17.9168 H   0  0  0  0  0  0
   22.5034   32.6443   19.7822 H   0  0  0  0  0  0
   23.4051   33.1280   18.3059 H   0  0  0  0  0  0
   22.1484   35.1003   19.2766 H   0  0  0  0  0  0
   19.6043   35.0835   19.2625 H   0  0  0  0  0  0
   20.2570   33.8259   20.3667 H   0  0  0  0  0  0
   20.9087   35.7676   17.1699 H   0  0  0  0  0  0
   22.4631   34.9628   16.7664 H   0  0  0  0  0  0
   20.5743   34.0612   15.3320 H   0  0  0  0  0  0
   22.4843   32.5304   15.9764 H   0  0  0  0  0  0
   20.9470   31.6138   15.8249 H   0  0  0  0  0  0
   16.5672   29.7344   28.5042 H   0  0  0  0  0  0
  1  2  1  0  0  0
  1 35  1  0  0  0
  1 37  1  0  0  0
  1 38  1  0  0  0
  2  3  1  0  0  0
  2 33  1  0  0  0
  2 39  1  0  0  0
  3  4  1  0  0  0
  3 30  1  0  0  0
  3 40  1  0  0  0
  4  5  1  0  0  0
  4 41  1  0  0  0
  5  6  2  0  0  0
  5  7  1  0  0  0
  7  8  1  0  0  0
  7 42  1  0  0  0
  8  9  1  0  0  0
  8 20  1  0  0  0
  8 43  1  0  0  0
  9 10  2  0  0  0
  9 11  1  0  0  0
 11 12  1  0  0  0
 11 44  1  0  0  0
 12 13  1  0  0  0
 12 45  1  0  0  0
 12 46  1  0  0  0
 13 14  1  0  0  0
 13 47  1  0  0  0
 13 48  1  0  0  0
 14 15  2  0  0  0
 14 19  1  0  0  0
 15 16  1  0  0  0
 15 49  1  0  0  0
 16 17  2  0  0  0
 16 50  1  0  0  0
 17 18  1  0  0  0
 17 51  1  0  0  0
 18 19  2  0  0  0
 18 52  1  0  0  0
 19 53  1  0  0  0
 20 21  1  0  0  0
 20 54  1  0  0  0
 20 55  1  0  0  0
 21 22  2  0  0  0
 21 29  1  0  0  0
 22 23  1  0  0  0
 22 56  1  0  0  0
 23 24  2  0  0  0
 23 57  1  0  0  0
 24 25  1  0  0  0
 24 58  1  0  0  0
 25 26  1  0  0  0
 25 29  2  0  0  0
 26 27  1  0  0  0
 26 28  2  0  0  0
 27 59  1  0  0  0
 27 60  1  0  0  0
 28 61  1  0  0  0
 28 74  1  0  0  0
 29 62  1  0  0  0
 30 31  1  0  0  0
 30 36  1  0  0  0
 30 63  1  0  0  0
 31 32  1  0  0  0
 31 64  1  0  0  0
 31 65  1  0  0  0
 32 33  1  0  0  0
 32 34  1  0  0  0
 32 66  1  0  0  0
 33 67  1  0  0  0
 33 68  1  0  0  0
 34 35  1  0  0  0
 34 69  1  0  0  0
 34 70  1  0  0  0
 35 36  1  0  0  0
 35 71  1  0  0  0
 36 72  1  0  0  0
 36 73  1  0  0  0
M  CHG  1  28   1
M  END
> <s_m_source_file>
../3liw_ligand.sdf

> <i_m_source_file_index>
1

> <s_epik_input>
W0NASF0xMltDSDJdW0NASF0zW0NIMl1bQ0BASF0oW0NIMl0yKVtDSDJdW0NASF0oW0NIMl0zKVtDQEhdMVtOSF1DKD1PKVtOSF1bQ0BIXShbQ0gyXWM0W2NIXVtjSF1bY0hdYyhbY0hdNCkvQyhbTkgyXSk9TlxbSF0pQyg9TylbTkhdW0NIMl1bQ0gyXWM1W2NIXVtjSF1bY0hdW2NIXVtjSF01

> <s_epik_cmdline>
J2VwaWtfYXBwJywgJy1pbWFlJywgJ2xpZ2FuZF9wcm8ubWFlJywgJy1vbWFlJywgJ2xpZ2FuZF9wcmVwLm1hZScsICctbXMnLCAnMScsICctcGgnLCAnNycsICctcGh0JywgJzAuNScsICctbnQn

> <r_lp_tautomer_probability>
1

> <r_epik_Ionization_Penalty>
  0.0002

> <r_epik_Ionization_Penalty_Charging>
  0.0002

> <r_epik_Ionization_Penalty_Neutral>
  0.0001

> <r_epik_State_Penalty>
 -0.0000

> <r_epik_Charging_Adjusted_Penalty>
0.000184009597780671

> <i_epik_Tot_Q>
1

> <i_epik_Tot_abs_Q>
1

> <s_epik_Chemistry_Notes>
This compound has an imine and may undergo hydrolysis.

$$$$
