3lj3_ligand
                    3D
 Schrodinger Suite 2020-3.
 53 57  0  0  1  0            999 V2000
   48.8120   14.5970   30.6800 C   0  0  0  0  0  0
   48.4030   12.8030   29.0760 N   0  0  0  0  0  0
   42.1990   13.9790   33.9640 O   0  0  0  0  0  0
   40.5460   11.0180   30.6370 C   0  0  0  0  0  0
   46.2290   11.8000   29.3050 N   0  0  0  0  0  0
   42.6960   12.0660   31.0330 O   0  0  0  0  0  0
   38.8140   11.5640   32.2740 C   0  0  0  0  0  0
   47.1710   15.2780   32.3250 N   0  0  0  0  0  0
   38.3810   10.0870   30.4130 O   0  0  0  0  0  0
   49.1730   13.7700   29.6240 C   0  0  0  0  0  0
   47.1890   17.9710   33.2370 N   0  3  0  0  0  0
   39.2670   13.0350   34.1080 O   0  0  0  0  0  0
   45.1330   11.9670   30.1040 C   0  0  0  0  0  0
   46.7030   13.4580   30.7290 C   0  0  0  0  0  0
   40.9770   12.5040   32.5060 C   0  0  0  0  0  0
   45.3890   12.9840   30.9970 C   0  0  0  0  0  0
   47.5490   14.4490   31.2580 C   0  0  0  0  0  0
   41.3900   11.8310   31.3550 C   0  0  0  0  0  0
   39.2400   10.8850   31.1060 C   0  0  0  0  0  0
   39.6880   12.3900   32.9940 C   0  0  0  0  0  0
   47.1960   12.7000   29.6640 C   0  0  0  0  0  0
   42.1280   13.2650   32.9900 C   0  0  0  0  0  0
   43.1820   12.9300   31.9990 C   0  0  0  0  0  0
   44.4540   13.3800   31.9850 C   0  0  0  0  0  0
   45.9760   16.1220   32.1590 C   0  0  0  0  0  0
   48.1460   15.6930   33.3370 C   0  0  0  0  0  0
   46.3340   17.5960   32.0550 C   0  0  0  0  0  0
   48.4690   17.1770   33.2260 C   0  0  0  0  0  0
   46.3230   10.8270   28.2430 C   0  0  0  0  0  0
   47.4490   19.4510   33.2890 C   0  0  0  0  0  0
   49.5050   15.3513   31.0526 H   0  0  0  0  0  0
   40.8833   10.4995   29.7395 H   0  0  0  0  0  0
   37.7874   11.4418   32.6192 H   0  0  0  0  0  0
   38.7242    9.5652   29.5075 H   0  0  0  0  0  0
   50.1664   13.9135   29.1988 H   0  0  0  0  0  0
   46.6377   17.7207   34.1554 H   0  0  0  0  0  0
   38.2309   12.9120   34.4563 H   0  0  0  0  0  0
   44.2095   11.3910   30.0445 H   0  0  0  0  0  0
   44.7981   14.0807   32.7600 H   0  0  0  0  0  0
   45.4459   15.8303   31.2404 H   0  0  0  0  0  0
   45.3102   15.9892   33.0245 H   0  0  0  0  0  0
   47.7380   15.4998   34.3401 H   0  0  0  0  0  0
   49.0775   15.1233   33.2041 H   0  0  0  0  0  0
   45.4172   18.2039   32.0581 H   0  0  0  0  0  0
   46.8926   17.7797   31.1254 H   0  0  0  0  0  0
   49.0094   17.3656   32.2866 H   0  0  0  0  0  0
   49.0962   17.4807   34.0771 H   0  0  0  0  0  0
   45.3900   10.2463   28.1941 H   0  0  0  0  0  0
   47.1668   10.1494   28.4402 H   0  0  0  0  0  0
   46.4838   11.3438   27.2854 H   0  0  0  0  0  0
   46.4910   19.9916   33.2955 H   0  0  0  0  0  0
   48.0338   19.7517   32.4072 H   0  0  0  0  0  0
   48.0124   19.6924   34.2024 H   0  0  0  0  0  0
  1 10  2  0  0  0
  1 17  1  0  0  0
  1 31  1  0  0  0
  2 10  1  0  0  0
  2 21  2  0  0  0
  3 22  2  0  0  0
  4 18  2  0  0  0
  4 19  1  0  0  0
  4 32  1  0  0  0
  5 13  1  0  0  0
  5 21  1  0  0  0
  5 29  1  0  0  0
  6 18  1  0  0  0
  6 23  1  0  0  0
  7 19  2  0  0  0
  7 20  1  0  0  0
  7 33  1  0  0  0
  8 17  1  0  0  0
  8 25  1  0  0  0
  8 26  1  0  0  0
  9 19  1  0  0  0
  9 34  1  0  0  0
 10 35  1  0  0  0
 11 27  1  0  0  0
 11 28  1  0  0  0
 11 30  1  0  0  0
 11 36  1  0  0  0
 12 20  1  0  0  0
 12 37  1  0  0  0
 13 16  2  0  0  0
 13 38  1  0  0  0
 14 16  1  0  0  0
 14 17  2  0  0  0
 14 21  1  0  0  0
 15 18  1  0  0  0
 15 20  2  0  0  0
 15 22  1  0  0  0
 16 24  1  0  0  0
 22 23  1  0  0  0
 23 24  2  0  0  0
 24 39  1  0  0  0
 25 27  1  0  0  0
 25 40  1  0  0  0
 25 41  1  0  0  0
 26 28  1  0  0  0
 26 42  1  0  0  0
 26 43  1  0  0  0
 27 44  1  0  0  0
 27 45  1  0  0  0
 28 46  1  0  0  0
 28 47  1  0  0  0
 29 48  1  0  0  0
 29 49  1  0  0  0
 29 50  1  0  0  0
 30 51  1  0  0  0
 30 52  1  0  0  0
 30 53  1  0  0  0
M  CHG  1  11   1
M  END
> <s_m_source_file>
../3lj3_ligand.sdf

> <i_m_source_file_index>
1

> <s_epik_input>
W0NIMl0xW0NIMl1bTkgrXShbQ0gzXSlbQ0gyXVtDSDJdTjFjMltjSF1bY0hdbmMoYzIzKW4oW0NIM10pW2NIXWMzL1tDSF09QyhDND1PKVxPYyhjNDUpW2NIXWMoW09IXSlbY0hdYzVbT0hd

> <s_epik_cmdline>
J2VwaWtfYXBwJywgJy1pbWFlJywgJ2xpZ2FuZF9wcm8ubWFlJywgJy1vbWFlJywgJ2xpZ2FuZF9wcmVwLm1hZScsICctbXMnLCAnMScsICctcGgnLCAnNycsICctcGh0JywgJzAuNScsICctbnQn

> <r_epik_Ionization_Penalty>
  0.7591

> <r_epik_Ionization_Penalty_Charging>
  0.0736

> <r_epik_Ionization_Penalty_Neutral>
  0.6855

> <r_epik_State_Penalty>
  0.4072

> <r_epik_Charging_Adjusted_Penalty>
0.480745991186997

> <i_epik_Tot_Q>
1

> <i_epik_Tot_abs_Q>
1

$$$$
