3ljj_ligand
                    3D
 Schrodinger Suite 2020-3.
 58 60  0  0  1  0            999 V2000
   17.2950   -9.2790   12.5180 N   0  0  0  0  0  0
   18.1970   -9.4790   11.5250 C   0  0  0  0  0  0
   18.3640   -8.5910   10.6860 O   0  0  0  0  0  0
   19.4270  -10.3590   11.7460 C   0  0  0  0  0  0
   17.3000   -9.9670   13.8220 C   0  0  0  0  0  0
   15.8740   -9.7790   14.3670 C   0  0  0  0  0  0
   15.4830   -8.3680   13.8780 C   0  0  0  0  0  0
   16.2910   -8.2150   12.5730 C   0  0  1  0  0  0
   16.8870   -6.8400   12.4850 C   0  0  0  0  0  0
   16.1390   -5.9220   11.8180 N   0  0  0  0  0  0
   16.4880   -4.5290   11.7010 C   0  0  0  0  0  0
   17.2600   -4.2410   10.4520 C   0  0  0  0  0  0
   16.7620   -3.2870    9.5850 C   0  0  0  0  0  0
   17.3700   -3.0840    8.3550 C   0  0  0  0  0  0
   18.4800   -3.8480    8.0090 C   0  0  0  0  0  0
   19.1110   -3.5550    6.7030 C   0  0  0  0  0  0
   20.5140   -3.9190    6.4700 N   0  0  0  0  0  0
   18.4120   -3.0990    5.6580 N   0  3  0  0  0  0
   18.9880   -4.8130    8.8830 C   0  0  0  0  0  0
   18.3690   -5.0050   10.1070 C   0  0  0  0  0  0
   17.8280   -6.4870   13.1940 O   0  0  0  0  0  0
   20.3220  -10.3180   10.5710 N   0  3  0  0  0  0
   20.2720  -11.5310    9.7800 C   0  0  0  0  0  0
   21.0290  -11.4640    8.4420 C   0  0  0  0  0  0
   21.2500  -12.9600    8.0610 C   0  0  0  0  0  0
   21.3560  -13.7090    9.4070 C   0  0  0  0  0  0
   20.8400  -12.7580   10.5100 C   0  0  0  0  0  0
   19.9814  -10.0000   12.6257 H   0  0  0  0  0  0
   19.1089  -11.3988   11.9123 H   0  0  0  0  0  0
   17.5448  -11.0293   13.6751 H   0  0  0  0  0  0
   18.0525   -9.5046   14.4777 H   0  0  0  0  0  0
   15.2183  -10.5607   13.9559 H   0  0  0  0  0  0
   15.8883   -9.8522   15.4645 H   0  0  0  0  0  0
   14.3968   -8.3263   13.7095 H   0  0  0  0  0  0
   15.7648   -7.6251   14.6387 H   0  0  0  0  0  0
   15.6753   -8.3378   11.6697 H   0  0  0  0  0  0
   15.2174   -6.2992   11.3508 H   0  0  0  0  0  0
   15.5711   -3.9216   11.6828 H   0  0  0  0  0  0
   17.1072   -4.2327   12.5605 H   0  0  0  0  0  0
   15.8919   -2.6944    9.8676 H   0  0  0  0  0  0
   16.9820   -2.3334    7.6664 H   0  0  0  0  0  0
   21.1287   -4.2988    7.2994 H   0  0  0  0  0  0
   20.9506   -3.8119    5.4660 H   0  0  0  0  0  0
   17.3572   -2.8137    5.7842 H   0  0  0  0  0  0
   19.8592   -5.4063    8.6052 H   0  0  0  0  0  0
   18.7513   -5.7549   10.7996 H   0  0  0  0  0  0
   20.0325   -9.4810    9.9186 H   0  0  0  0  0  0
   21.3606  -10.1796   10.9058 H   0  0  0  0  0  0
   19.1824  -11.5730    9.6350 H   0  0  0  0  0  0
   20.4152  -10.9328    7.6997 H   0  0  0  0  0  0
   21.9785  -10.9272    8.5844 H   0  0  0  0  0  0
   20.3964  -13.3167    7.4659 H   0  0  0  0  0  0
   22.1736  -13.0556    7.4713 H   0  0  0  0  0  0
   20.7425  -14.6212    9.3683 H   0  0  0  0  0  0
   22.4054  -13.9806    9.5939 H   0  0  0  0  0  0
   21.6563  -12.4427   11.1766 H   0  0  0  0  0  0
   20.0445  -13.2324   11.1034 H   0  0  0  0  0  0
   18.8919   -3.0092    4.6723 H   0  0  0  0  0  0
  1  2  1  0  0  0
  1  5  1  0  0  0
  1  8  1  0  0  0
  2  3  2  0  0  0
  2  4  1  0  0  0
  4 22  1  0  0  0
  4 28  1  0  0  0
  4 29  1  0  0  0
  5  6  1  0  0  0
  5 30  1  0  0  0
  5 31  1  0  0  0
  6  7  1  0  0  0
  6 32  1  0  0  0
  6 33  1  0  0  0
  7  8  1  0  0  0
  7 34  1  0  0  0
  7 35  1  0  0  0
  8  9  1  0  0  0
  8 36  1  0  0  0
  9 10  1  0  0  0
  9 21  2  0  0  0
 10 11  1  0  0  0
 10 37  1  0  0  0
 11 12  1  0  0  0
 11 38  1  0  0  0
 11 39  1  0  0  0
 12 13  2  0  0  0
 12 20  1  0  0  0
 13 14  1  0  0  0
 13 40  1  0  0  0
 14 15  2  0  0  0
 14 41  1  0  0  0
 15 16  1  0  0  0
 15 19  1  0  0  0
 16 17  1  0  0  0
 16 18  2  0  0  0
 17 42  1  0  0  0
 17 43  1  0  0  0
 18 44  1  0  0  0
 18 58  1  0  0  0
 19 20  2  0  0  0
 19 45  1  0  0  0
 20 46  1  0  0  0
 22 23  1  0  0  0
 22 47  1  0  0  0
 22 48  1  0  0  0
 23 24  1  0  0  0
 23 27  1  0  0  0
 23 49  1  0  0  0
 24 25  1  0  0  0
 24 50  1  0  0  0
 24 51  1  0  0  0
 25 26  1  0  0  0
 25 52  1  0  0  0
 25 53  1  0  0  0
 26 27  1  0  0  0
 26 54  1  0  0  0
 26 55  1  0  0  0
 27 56  1  0  0  0
 27 57  1  0  0  0
M  CHG  2  18   1  22   1
M  END
> <s_m_source_file>
../3ljj_ligand.sdf

> <i_m_source_file_index>
1

> <s_epik_input>
W0NIMl0xW0NIMl1bQ0gyXVtDSDJdW0NIXTFbTkgyK11bQ0gyXUMoPU8pTjJbQ0gyXVtDSDJdW0NIMl1bQ0BIXTJDKD1PKVtOSF1bQ0gyXWMzW2NIXVtjSF1jKC9DKFtOSDJdKT1OXFtIXSlbY0hdW2NIXTM=

> <s_epik_cmdline>
J2VwaWtfYXBwJywgJy1pbWFlJywgJ2xpZ2FuZF9wcm8ubWFlJywgJy1vbWFlJywgJ2xpZ2FuZF9wcmVwLm1hZScsICctbXMnLCAnMScsICctcGgnLCAnNycsICctcGh0JywgJzAuNScsICctbnQn

> <r_epik_Ionization_Penalty>
  0.0348

> <r_epik_Ionization_Penalty_Charging>
  0.0348

> <r_epik_Ionization_Penalty_Neutral>
  0.0000

> <r_epik_State_Penalty>
  0.0288

> <r_epik_Charging_Adjusted_Penalty>
0.0636375867455667

> <i_epik_Tot_Q>
2

> <i_epik_Tot_abs_Q>
2

> <s_epik_Chemistry_Notes>
This compound has an imine and may undergo hydrolysis.

$$$$
