3ljo_ligand
                    3D
 Schrodinger Suite 2020-3.
 61 63  0  0  1  0            999 V2000
   17.3120   -9.0780   12.7690 N   0  0  0  0  0  0
   18.3490   -8.9850   11.9060 C   0  0  0  0  0  0
   18.2340   -8.2620   10.9100 O   0  0  0  0  0  0
   19.5760   -9.8630   11.9100 C   0  0  0  0  0  0
   17.3760   -9.8800   13.9810 C   0  0  0  0  0  0
   15.8700   -9.9270   14.2840 C   0  0  0  0  0  0
   15.4760   -8.4460   14.0130 C   0  0  0  0  0  0
   16.1870   -8.1380   12.6570 C   0  0  1  0  0  0
   16.7690   -6.7260   12.7250 C   0  0  0  0  0  0
   16.1030   -5.8240   11.9620 N   0  0  0  0  0  0
   16.5030   -4.4240   11.9590 C   0  0  0  0  0  0
   17.2220   -4.1930   10.6160 C   0  0  0  0  0  0
   18.3820   -4.9110   10.3210 C   0  0  0  0  0  0
   19.0390   -4.7540    9.0930 C   0  0  0  0  0  0
   18.5010   -3.8550    8.1670 C   0  0  0  0  0  0
   19.2160   -3.6250    6.8370 C   0  0  0  0  0  0
   20.4200   -3.9930    6.5650 N   0  3  0  0  0  0
   18.3140   -3.1710    5.7580 N   0  0  0  0  0  0
   17.3390   -3.1340    8.4530 C   0  0  0  0  0  0
   16.6880   -3.2950    9.6870 C   0  0  0  0  0  0
   17.7320   -6.4780   13.4270 O   0  0  0  0  0  0
   20.7770   -9.0600   11.5460 N   0  3  0  0  0  0
   22.0300   -9.8670   11.7230 C   0  0  0  0  0  0
   21.8580  -11.2140   10.9570 C   0  0  0  0  0  0
   23.1800  -11.9950   10.8180 C   0  0  0  0  0  0
   24.2580  -11.0530   10.1900 C   0  0  0  0  0  0
   24.5150   -9.8660   11.1710 C   0  0  0  0  0  0
   23.2460   -9.0010   11.3040 C   0  0  0  0  0  0
   19.7171  -10.2914   12.9133 H   0  0  0  0  0  0
   19.4481  -10.6752   11.1792 H   0  0  0  0  0  0
   17.8329  -10.8542   13.7523 H   0  0  0  0  0  0
   17.9838   -9.3578   14.7346 H   0  0  0  0  0  0
   15.3823  -10.6448   13.6081 H   0  0  0  0  0  0
   15.7154  -10.2418   15.3266 H   0  0  0  0  0  0
   14.3811   -8.3644   13.9451 H   0  0  0  0  0  0
   15.8405   -7.8132   14.8356 H   0  0  0  0  0  0
   15.5909   -8.2362   11.7377 H   0  0  0  0  0  0
   15.2562   -6.1554   11.3430 H   0  0  0  0  0  0
   15.6103   -3.7874   12.0474 H   0  0  0  0  0  0
   17.1751   -4.2329   12.8085 H   0  0  0  0  0  0
   18.7839   -5.6058   11.0584 H   0  0  0  0  0  0
   19.9443   -5.3171    8.8661 H   0  0  0  0  0  0
   21.0876   -4.3301    7.3716 H   0  0  0  0  0  0
   17.2866   -2.8577    5.9954 H   0  0  0  0  0  0
   18.6700   -3.1464    4.7175 H   0  0  0  0  0  0
   16.9351   -2.4422    7.7138 H   0  0  0  0  0  0
   15.7839   -2.7308    9.9160 H   0  0  0  0  0  0
   20.7029   -8.7455   10.4945 H   0  0  0  0  0  0
   20.8332   -8.1711   12.1915 H   0  0  0  0  0  0
   22.1924  -10.1203   12.7811 H   0  0  0  0  0  0
   21.1446  -11.8542   11.4967 H   0  0  0  0  0  0
   21.4778  -11.0140    9.9444 H   0  0  0  0  0  0
   23.5126  -12.3324   11.8107 H   0  0  0  0  0  0
   23.0234  -12.8681   10.1675 H   0  0  0  0  0  0
   25.1895  -11.6162   10.0316 H   0  0  0  0  0  0
   23.8929  -10.6695    9.2258 H   0  0  0  0  0  0
   24.7870  -10.2609   12.1610 H   0  0  0  0  0  0
   25.3363   -9.2436   10.7863 H   0  0  0  0  0  0
   23.0395   -8.5235   10.3348 H   0  0  0  0  0  0
   23.4235   -8.2260   12.0641 H   0  0  0  0  0  0
   20.7807   -3.9701    5.5261 H   0  0  0  0  0  0
  1  2  1  0  0  0
  1  5  1  0  0  0
  1  8  1  0  0  0
  2  3  2  0  0  0
  2  4  1  0  0  0
  4 22  1  0  0  0
  4 29  1  0  0  0
  4 30  1  0  0  0
  5  6  1  0  0  0
  5 31  1  0  0  0
  5 32  1  0  0  0
  6  7  1  0  0  0
  6 33  1  0  0  0
  6 34  1  0  0  0
  7  8  1  0  0  0
  7 35  1  0  0  0
  7 36  1  0  0  0
  8  9  1  0  0  0
  8 37  1  0  0  0
  9 10  1  0  0  0
  9 21  2  0  0  0
 10 11  1  0  0  0
 10 38  1  0  0  0
 11 12  1  0  0  0
 11 39  1  0  0  0
 11 40  1  0  0  0
 12 13  2  0  0  0
 12 20  1  0  0  0
 13 14  1  0  0  0
 13 41  1  0  0  0
 14 15  2  0  0  0
 14 42  1  0  0  0
 15 16  1  0  0  0
 15 19  1  0  0  0
 16 17  2  0  0  0
 16 18  1  0  0  0
 17 43  1  0  0  0
 17 61  1  0  0  0
 18 44  1  0  0  0
 18 45  1  0  0  0
 19 20  2  0  0  0
 19 46  1  0  0  0
 20 47  1  0  0  0
 22 23  1  0  0  0
 22 48  1  0  0  0
 22 49  1  0  0  0
 23 24  1  0  0  0
 23 28  1  0  0  0
 23 50  1  0  0  0
 24 25  1  0  0  0
 24 51  1  0  0  0
 24 52  1  0  0  0
 25 26  1  0  0  0
 25 53  1  0  0  0
 25 54  1  0  0  0
 26 27  1  0  0  0
 26 55  1  0  0  0
 26 56  1  0  0  0
 27 28  1  0  0  0
 27 57  1  0  0  0
 27 58  1  0  0  0
 28 59  1  0  0  0
 28 60  1  0  0  0
M  CHG  2  17   1  22   1
M  END
> <s_m_source_file>
../3ljo_ligand.sdf

> <i_m_source_file_index>
1

> <s_epik_input>
W0NIMl0xW0NIMl1bQ0gyXVtDSDJdW0NIMl1bQ0hdMVtOSDIrXVtDSDJdQyg9TylOMltDSDJdW0NIMl1bQ0gyXVtDQEhdMkMoPU8pW05IXVtDSDJdYzNbY0hdW2NIXWMoL0MoPU5cW0hdKVtOSDJdKVtjSF1bY0hdMw==

> <s_epik_cmdline>
J2VwaWtfYXBwJywgJy1pbWFlJywgJ2xpZ2FuZF9wcm8ubWFlJywgJy1vbWFlJywgJ2xpZ2FuZF9wcmVwLm1hZScsICctbXMnLCAnMScsICctcGgnLCAnNycsICctcGh0JywgJzAuNScsICctbnQn

> <r_epik_Ionization_Penalty>
  0.0364

> <r_epik_Ionization_Penalty_Charging>
  0.0364

> <r_epik_Ionization_Penalty_Neutral>
  0.0000

> <r_epik_State_Penalty>
  0.0302

> <r_epik_Charging_Adjusted_Penalty>
0.0666370724910797

> <i_epik_Tot_Q>
2

> <i_epik_Tot_abs_Q>
2

> <s_epik_Chemistry_Notes>
This compound has an imine and may undergo hydrolysis.

$$$$
