3lk0_ligand
                    3D
 Schrodinger Suite 2020-3.
 41 43  0  0  1  0            999 V2000
   11.9840   15.2940   53.7220 C   0  0  0  0  0  0
   13.3370   15.0720   53.3120 N   0  0  0  0  0  0
   12.7820   15.5080   56.2720 S   0  0  0  0  0  0
   11.6170   15.5080   55.0530 C   0  0  0  0  0  0
   13.2220   17.6110   49.5360 N   0  3  0  0  0  0
   14.2980   15.2200   55.5880 C   0  0  0  0  0  0
   14.4520   15.0290   54.2120 C   0  0  0  0  0  0
    9.6370   15.5270   53.1070 C   0  0  0  0  0  0
    9.2900   15.7380   54.4360 C   0  0  0  0  0  0
   10.2850   15.7280   55.4070 C   0  0  0  0  0  0
   15.3940   15.1820   56.4460 C   0  0  0  0  0  0
   16.6750   14.9520   55.9660 C   0  0  0  0  0  0
   16.8540   14.7600   54.6040 C   0  0  0  0  0  0
   15.7550   14.7970   53.7370 C   0  0  0  0  0  0
   13.5660   14.8610   51.8710 C   0  0  0  0  0  0
   14.1770   16.0800   51.1690 C   0  0  0  0  0  0
   13.1630   17.2010   50.9360 C   0  0  0  0  0  0
   12.5210   16.8500   48.5090 C   0  0  0  0  0  0
   13.9560   18.8120   49.1620 C   0  0  0  0  0  0
   18.5200   14.4670   53.9970 Cl  0  0  0  0  0  0
   10.9680   15.3070   52.7600 C   0  0  0  0  0  0
   13.9422   16.7800   49.5637 H   0  0  0  0  0  0
    8.8670   15.5337   52.3355 H   0  0  0  0  0  0
    8.2500   15.9093   54.7139 H   0  0  0  0  0  0
   10.0230   15.8931   56.4521 H   0  0  0  0  0  0
   15.2426   15.3358   57.5144 H   0  0  0  0  0  0
   17.5256   14.9227   56.6469 H   0  0  0  0  0  0
   15.9132   14.6425   52.6697 H   0  0  0  0  0  0
   14.2565   14.0165   51.7293 H   0  0  0  0  0  0
   12.6089   14.6390   51.3763 H   0  0  0  0  0  0
   14.9921   16.4875   51.7851 H   0  0  0  0  0  0
   14.5742   15.7777   50.1888 H   0  0  0  0  0  0
   13.4043   18.0595   51.5800 H   0  0  0  0  0  0
   12.1505   16.8402   51.1701 H   0  0  0  0  0  0
   12.0261   15.9822   48.9694 H   0  0  0  0  0  0
   13.2416   16.5032   47.7537 H   0  0  0  0  0  0
   11.7664   17.4905   48.0290 H   0  0  0  0  0  0
   14.4183   19.2530   50.0575 H   0  0  0  0  0  0
   13.2645   19.5387   48.7107 H   0  0  0  0  0  0
   14.7396   18.5514   48.4354 H   0  0  0  0  0  0
   11.2243   15.1409   51.7137 H   0  0  0  0  0  0
  1  2  1  0  0  0
  1  4  2  0  0  0
  1 21  1  0  0  0
  2  7  1  0  0  0
  2 15  1  0  0  0
  3  4  1  0  0  0
  3  6  1  0  0  0
  4 10  1  0  0  0
  5 17  1  0  0  0
  5 18  1  0  0  0
  5 19  1  0  0  0
  5 22  1  0  0  0
  6  7  2  0  0  0
  6 11  1  0  0  0
  7 14  1  0  0  0
  8  9  1  0  0  0
  8 21  2  0  0  0
  8 23  1  0  0  0
  9 10  2  0  0  0
  9 24  1  0  0  0
 10 25  1  0  0  0
 11 12  2  0  0  0
 11 26  1  0  0  0
 12 13  1  0  0  0
 12 27  1  0  0  0
 13 14  2  0  0  0
 13 20  1  0  0  0
 14 28  1  0  0  0
 15 16  1  0  0  0
 15 29  1  0  0  0
 15 30  1  0  0  0
 16 17  1  0  0  0
 16 31  1  0  0  0
 16 32  1  0  0  0
 17 33  1  0  0  0
 17 34  1  0  0  0
 18 35  1  0  0  0
 18 36  1  0  0  0
 18 37  1  0  0  0
 19 38  1  0  0  0
 19 39  1  0  0  0
 19 40  1  0  0  0
 21 41  1  0  0  0
M  CHG  1   5   1
M  END
> <s_m_source_file>
../3lk0_ligand.sdf

> <i_m_source_file_index>
1

> <s_epik_input>
W2NIXTFbY0hdW2NIXVtjSF1jKGMxMilTYzNjKFtjSF1jKENsKVtjSF1bY0hdMylOMltDSDJdW0NIMl1bQ0gyXVtOSCtdKFtDSDNdKVtDSDNd

> <s_epik_cmdline>
J2VwaWtfYXBwJywgJy1pbWFlJywgJ2xpZ2FuZF9wcm8ubWFlJywgJy1vbWFlJywgJ2xpZ2FuZF9wcmVwLm1hZScsICctbXMnLCAnMScsICctcGgnLCAnNycsICctcGh0JywgJzAuNScsICctbnQn

> <r_lp_tautomer_probability>
1

> <r_epik_Ionization_Penalty>
  0.0014

> <r_epik_Ionization_Penalty_Charging>
  0.0014

> <r_epik_Ionization_Penalty_Neutral>
  0.0000

> <r_epik_State_Penalty>
 -0.0000

> <r_epik_Charging_Adjusted_Penalty>
0.0014176044032054

> <i_epik_Tot_Q>
1

> <i_epik_Tot_abs_Q>
1

$$$$
