3lk8_ligand
                    3D
 Schrodinger Suite 2020-3.
 29 29  0  0  1  0            999 V2000
    3.2440   -3.0610    4.0450 O   0  0  0  0  0  0
    2.0610   -3.1300    4.3500 C   0  0  0  0  0  0
    1.5060   -2.3710    5.3080 N   0  0  0  0  0  0
    2.3060   -1.5120    6.0440 O   0  0  0  0  0  0
    1.1460   -4.1060    3.6320 C   0  0  0  0  0  0
    1.6810   -5.4480    3.6950 N   0  0  3  0  0  0
    1.4570   -6.3220    5.0030 S   0  0  0  0  0  0
    0.1810   -5.9000    5.5650 O   0  0  0  0  0  0
    1.3840   -7.7240    4.6820 O   0  0  0  0  0  0
    2.5680   -6.1780    6.1610 C   0  0  0  0  0  0
    2.3120   -5.3360    7.2560 C   0  0  0  0  0  0
    3.2220   -5.2360    8.3110 C   0  0  0  0  0  0
    4.3940   -5.9730    8.2850 C   0  0  0  0  0  0
    5.2670   -5.8580    9.3380 O   0  0  0  0  0  0
    6.3280   -6.7880    9.5380 C   0  0  0  0  0  0
    4.6550   -6.8330    7.2040 C   0  0  0  0  0  0
    3.7430   -6.9330    6.1500 C   0  0  0  0  0  0
    0.4263   -2.4266    5.5110 H   0  0  0  0  0  0
    1.8615   -0.8856    6.8314 H   0  0  0  0  0  0
    0.1539   -4.0958    4.1071 H   0  0  0  0  0  0
    1.0502   -3.8104    2.5768 H   0  0  0  0  0  0
    2.0931   -5.9188    2.7903 H   0  0  0  0  0  0
    1.3913   -4.7532    7.2827 H   0  0  0  0  0  0
    3.0097   -4.5784    9.1540 H   0  0  0  0  0  0
    6.8986   -6.5059   10.4351 H   0  0  0  0  0  0
    6.9935   -6.7789    8.6622 H   0  0  0  0  0  0
    5.9108   -7.7971    9.6710 H   0  0  0  0  0  0
    5.5712   -7.4233    7.1880 H   0  0  0  0  0  0
    3.9495   -7.6032    5.3156 H   0  0  0  0  0  0
  1  2  2  0  0  0
  2  3  1  0  0  0
  2  5  1  0  0  0
  3  4  1  0  0  0
  3 18  1  0  0  0
  4 19  1  0  0  0
  5  6  1  0  0  0
  5 20  1  0  0  0
  5 21  1  0  0  0
  6  7  1  0  0  0
  6 22  1  0  0  0
  7  8  2  0  0  0
  7  9  2  0  0  0
  7 10  1  0  0  0
 10 11  2  0  0  0
 10 17  1  0  0  0
 11 12  1  0  0  0
 11 23  1  0  0  0
 12 13  2  0  0  0
 12 24  1  0  0  0
 13 14  1  0  0  0
 13 16  1  0  0  0
 14 15  1  0  0  0
 15 25  1  0  0  0
 15 26  1  0  0  0
 15 27  1  0  0  0
 16 17  2  0  0  0
 16 28  1  0  0  0
 17 29  1  0  0  0
M  END
> <s_m_source_file>
../3lk8_ligand.sdf

> <i_m_source_file_index>
1

> <s_epik_input>
W09IXVtOSF1DKD1PKVtDSDJdW05IXVMoPU8pKD1PKWMxW2NIXVtjSF1jKE9bQ0gzXSlbY0hdW2NIXTE=

> <s_epik_cmdline>
J2VwaWtfYXBwJywgJy1pbWFlJywgJ2xpZ2FuZF9wcm8ubWFlJywgJy1vbWFlJywgJ2xpZ2FuZF9wcmVwLm1hZScsICctbXMnLCAnMScsICctcGgnLCAnNycsICctcGh0JywgJzAuNScsICctbnQn

> <r_lp_tautomer_probability>
1

> <r_epik_Ionization_Penalty>
  0.0153

> <r_epik_Ionization_Penalty_Charging>
  0.0000

> <r_epik_Ionization_Penalty_Neutral>
  0.0153

> <r_epik_State_Penalty>
  0.0118

> <r_epik_Charging_Adjusted_Penalty>
0.011847316048238

> <i_epik_Tot_Q>
0

> <i_epik_Tot_abs_Q>
0

> <s_epik_Chemistry_Notes>
This compound has a N-S or N-O group and may undergo hydrolysis at high or low pH.

$$$$
