3lkh_ligand
                    3D
 Schrodinger Suite 2020-3.
 59 60  0  0  1  0            999 V2000
   16.4070   40.8590   43.0120 C   0  0  0  0  0  0
   16.1850   39.4260   47.3720 F   0  0  0  0  0  0
   17.7750   42.0500   46.4370 N   0  0  0  0  0  0
   23.1770   38.3140   47.2880 O   0  0  0  0  0  0
   17.2000   42.1590   43.1670 C   0  0  0  0  0  0
   22.0610   40.2610   45.5830 N   0  0  0  0  0  0
   23.3410   39.3760   43.8620 O   0  0  0  0  0  0
   16.7700   43.0050   44.3770 C   0  0  0  0  0  0
   19.8850   39.7930   44.5250 O   0  0  0  0  0  0
   16.5440   42.1410   45.6280 C   0  0  0  0  0  0
   19.5480   40.7860   47.2210 O   0  0  0  0  0  0
   18.2250   43.2860   47.0900 C   0  0  0  0  0  0
   26.0430   43.0970   49.9230 C   0  0  0  0  0  0
   26.4630   42.7300   48.6460 C   0  0  0  0  0  0
   25.5150   42.4160   47.6780 C   0  0  0  0  0  0
   24.1380   42.4550   47.9700 C   0  0  0  0  0  0
   23.7300   42.8260   49.2550 C   0  0  0  0  0  0
   24.6750   43.1530   50.2240 C   0  0  0  0  0  0
   23.1130   42.1100   46.8930 C   0  0  0  0  0  0
   23.1750   40.6180   46.4620 C   0  0  1  0  0  0
   23.1420   39.6930   47.6870 C   0  0  0  0  0  0
   22.2430   39.6410   44.3500 C   0  0  0  0  0  0
   20.9070   39.3160   43.6690 C   0  0  0  0  0  0
   18.8050   39.0230   44.8880 C   0  0  0  0  0  0
   18.3920   37.7960   44.3130 C   0  0  0  0  0  0
   17.2500   37.1240   44.8030 C   0  0  0  0  0  0
   16.4990   37.6840   45.8430 C   0  0  0  0  0  0
   16.9070   38.9050   46.3920 C   0  0  0  0  0  0
   18.0500   39.5660   45.9310 C   0  0  0  0  0  0
   18.4890   40.8450   46.5690 C   0  0  0  0  0  0
   16.7697   40.3112   42.1297 H   0  0  0  0  0  0
   15.3398   41.0934   42.8849 H   0  0  0  0  0  0
   16.5416   40.2381   43.9100 H   0  0  0  0  0  0
   23.1596   37.5205   48.0496 H   0  0  0  0  0  0
   18.2672   41.9246   43.2941 H   0  0  0  0  0  0
   17.0654   42.7799   42.2690 H   0  0  0  0  0  0
   21.0274   40.4818   45.8877 H   0  0  0  0  0  0
   17.5528   43.7435   44.6048 H   0  0  0  0  0  0
   15.8302   43.5270   44.1441 H   0  0  0  0  0  0
   16.2387   41.1331   45.3103 H   0  0  0  0  0  0
   15.7424   42.5942   46.2297 H   0  0  0  0  0  0
   17.5242   44.1007   46.8554 H   0  0  0  0  0  0
   19.2287   43.5491   46.7248 H   0  0  0  0  0  0
   18.2592   43.1339   48.1789 H   0  0  0  0  0  0
   26.7792   43.3409   50.6889 H   0  0  0  0  0  0
   27.5259   42.6893   48.4077 H   0  0  0  0  0  0
   25.8432   42.1352   46.6772 H   0  0  0  0  0  0
   22.6682   42.8593   49.4991 H   0  0  0  0  0  0
   24.3499   43.4536   51.2200 H   0  0  0  0  0  0
   22.1003   42.3090   47.2735 H   0  0  0  0  0  0
   23.2971   42.7264   46.0007 H   0  0  0  0  0  0
   24.0906   40.4590   45.8735 H   0  0  0  0  0  0
   22.2189   39.8877   48.2527 H   0  0  0  0  0  0
   24.0137   39.9136   48.3206 H   0  0  0  0  0  0
   20.7928   38.2307   43.5310 H   0  0  0  0  0  0
   20.8331   39.8194   42.6937 H   0  0  0  0  0  0
   18.9592   37.3674   43.4868 H   0  0  0  0  0  0
   16.9534   36.1684   44.3707 H   0  0  0  0  0  0
   15.6104   37.1771   46.2194 H   0  0  0  0  0  0
  1  5  1  0  0  0
  1 31  1  0  0  0
  1 32  1  0  0  0
  1 33  1  0  0  0
  2 28  1  0  0  0
  3 10  1  0  0  0
  3 12  1  0  0  0
  3 30  1  0  0  0
  4 21  1  0  0  0
  4 34  1  0  0  0
  5  8  1  0  0  0
  5 35  1  0  0  0
  5 36  1  0  0  0
  6 20  1  0  0  0
  6 22  1  0  0  0
  6 37  1  0  0  0
  7 22  2  0  0  0
  8 10  1  0  0  0
  8 38  1  0  0  0
  8 39  1  0  0  0
  9 23  1  0  0  0
  9 24  1  0  0  0
 10 40  1  0  0  0
 10 41  1  0  0  0
 11 30  2  0  0  0
 12 42  1  0  0  0
 12 43  1  0  0  0
 12 44  1  0  0  0
 13 14  2  0  0  0
 13 18  1  0  0  0
 13 45  1  0  0  0
 14 15  1  0  0  0
 14 46  1  0  0  0
 15 16  2  0  0  0
 15 47  1  0  0  0
 16 17  1  0  0  0
 16 19  1  0  0  0
 17 18  2  0  0  0
 17 48  1  0  0  0
 18 49  1  0  0  0
 19 20  1  0  0  0
 19 50  1  0  0  0
 19 51  1  0  0  0
 20 21  1  0  0  0
 20 52  1  0  0  0
 21 53  1  0  0  0
 21 54  1  0  0  0
 22 23  1  0  0  0
 23 55  1  0  0  0
 23 56  1  0  0  0
 24 25  2  0  0  0
 24 29  1  0  0  0
 25 26  1  0  0  0
 25 57  1  0  0  0
 26 27  2  0  0  0
 26 58  1  0  0  0
 27 28  1  0  0  0
 27 59  1  0  0  0
 28 29  2  0  0  0
 29 30  1  0  0  0
M  END
> <s_m_source_file>
../3lkh_ligand.sdf

> <i_m_source_file_index>
1

> <s_epik_input>
W0NIM11bQ0gyXVtDSDJdW0NIMl1OKFtDSDNdKUMoPU8pYzFjKEYpW2NIXVtjSF1bY0hdYzFPW0NIMl1DKD1PKVtOSF1bQ0BIXShbQ0gyXVtPSF0pW0NIMl1jMltjSF1bY0hdW2NIXVtjSF1bY0hdMg==

> <s_epik_cmdline>
J2VwaWtfYXBwJywgJy1pbWFlJywgJ2xpZ2FuZF9wcm8ubWFlJywgJy1vbWFlJywgJ2xpZ2FuZF9wcmVwLm1hZScsICctbXMnLCAnMScsICctcGgnLCAnNycsICctcGh0JywgJzAuNScsICctbnQn

> <r_lp_tautomer_probability>
1

> <r_epik_Ionization_Penalty>
  0.0000

> <r_epik_Ionization_Penalty_Charging>
  0.0000

> <r_epik_Ionization_Penalty_Neutral>
  0.0000

> <r_epik_State_Penalty>
 -0.0000

> <r_epik_Charging_Adjusted_Penalty>
0

> <i_epik_Tot_Q>
0

> <i_epik_Tot_abs_Q>
0

$$$$
