3lkj_ligand
                    3D
 Schrodinger Suite 2020-3.
127135  0  0  1  0            999 V2000
   32.2050   23.1730   17.7160 C   0  0  0  0  0  0
   33.2950   22.7670   18.4300 N   0  0  0  0  0  0
   32.2580   23.6750   16.6060 O   0  0  0  0  0  0
   34.6960   22.6730   17.9620 C   0  0  2  0  0  0
   36.1660   23.0640   16.1020 N   0  0  0  0  0  0
   24.1890   25.0170   20.8780 O   0  0  0  0  0  0
   35.4950   23.1700   19.1750 C   0  0  0  0  0  0
   23.7430   27.1030   20.2570 N   0  0  0  0  0  0
   28.4550   28.1000   16.2600 O   0  0  0  0  0  0
   34.6270   22.8270   20.3780 C   0  0  0  0  0  0
   25.8690   26.8480   18.2930 N   0  0  0  0  0  0
   31.6570   17.6070   23.1070 O   0  5  0  0  0  0
   33.3390   22.2290   19.7920 C   0  0  0  0  0  0
   26.2380   28.1150   15.7550 N   0  0  0  0  0  0
   33.0250   19.0900   22.2200 O   0  0  0  0  0  0
   34.8670   23.4250   16.6410 C   0  0  0  0  0  0
   28.3160   29.7870   13.8000 N   0  3  0  0  0  0
   28.4670   20.3260   21.2450 O   0  0  0  0  0  0
   36.4310   21.7500   15.5370 C   0  0  0  0  0  0
   30.6030   20.0710   20.6600 N   0  0  0  0  0  0
   37.8220   21.9470   14.9440 C   0  0  0  0  0  0
   30.7250   22.1120   19.3300 N   0  0  0  0  0  0
   38.3660   23.2980   15.4260 C   0  0  0  0  0  0
   37.2370   24.0660   16.1010 C   0  0  0  0  0  0
   30.9110   23.1200   18.4580 C   0  0  0  0  0  0
   29.9150   24.0620   18.2740 C   0  0  0  0  0  0
   28.7270   23.9470   18.9990 C   0  0  0  0  0  0
   27.7600   24.8950   18.7780 C   0  0  0  0  0  0
   26.5590   24.9300   19.4800 C   0  0  0  0  0  0
   25.5960   25.8940   19.2050 C   0  0  0  0  0  0
   24.3840   25.9290   20.0850 C   0  0  0  0  0  0
   22.6230   27.3710   21.1850 C   0  0  0  0  0  0
   21.3190   27.5410   20.4520 C   0  0  0  0  0  0
   20.6970   26.3930   19.9660 C   0  0  0  0  0  0
   19.4920   26.4610   19.2820 C   0  0  0  0  0  0
   18.9290   27.7220   19.1190 C   0  0  0  0  0  0
   19.5440   28.8820   19.6090 C   0  0  0  0  0  0
   18.9150   30.1060   19.3870 C   0  0  0  0  0  0
   17.7230   30.1490   18.6510 C   0  0  0  0  0  0
   17.0940   31.3770   18.4110 C   0  0  0  0  0  0
   17.6410   32.5710   18.9230 C   0  0  0  0  0  0
   18.8430   32.5480   19.6400 C   0  0  0  0  0  0
   19.4720   31.3180   19.8580 C   0  0  0  0  0  0
   20.7660   28.7960   20.2830 C   0  0  0  0  0  0
   27.0480   26.8220   17.6040 C   0  0  0  0  0  0
   27.3120   27.8030   16.5240 C   0  0  0  0  0  0
   26.2130   29.1000   14.6450 C   0  0  2  0  0  0
   24.8460   28.9660   13.9770 C   0  0  0  0  0  0
   24.1560   27.8380   14.6940 C   0  0  0  0  0  0
   24.8720   27.6730   16.0240 C   0  0  0  0  0  0
   27.2950   28.7880   13.6200 C   0  0  0  0  0  0
   29.4100   29.9070   12.8400 C   0  0  0  0  0  0
   30.4910   30.5720   13.6810 C   0  0  0  0  0  0
   29.8250   30.9320   15.0110 C   0  0  0  0  0  0
   28.3180   30.6670   14.9320 C   0  0  0  0  0  0
   28.0180   25.8610   17.8270 C   0  0  0  0  0  0
   28.5540   22.9130   19.9230 C   0  0  0  0  0  0
   29.6250   22.0330   20.0970 C   0  0  0  0  0  0
   29.5390   20.7900   20.8660 C   0  0  0  0  0  0
   31.1520   18.7580   20.9870 C   0  0  2  0  0  0
   30.4320   17.6580   20.1940 C   0  0  0  0  0  0
   29.2410   16.9390   20.7680 C   0  0  0  0  0  0
   28.8570   15.7540   19.8570 C   0  0  0  0  0  0
   29.5080   15.7080   18.4740 C   0  0  0  0  0  0
   31.0160   15.9930   18.4350 C   0  0  0  0  0  0
   31.4990   16.7020   19.6900 C   0  0  0  0  0  0
   31.9530   18.4520   22.2300 C   0  0  0  0  0  0
   35.0217   21.6581   17.6900 H   0  0  0  0  0  0
   36.4655   22.6534   19.2114 H   0  0  0  0  0  0
   35.6597   24.2540   19.0864 H   0  0  0  0  0  0
   24.1326   27.9090   19.6178 H   0  0  0  0  0  0
   35.1542   22.1023   21.0158 H   0  0  0  0  0  0
   34.4213   23.7411   20.9543 H   0  0  0  0  0  0
   32.4423   22.5501   20.3422 H   0  0  0  0  0  0
   33.3703   21.1302   19.7514 H   0  0  0  0  0  0
   34.0663   23.1320   15.9460 H   0  0  0  0  0  0
   34.8138   24.5080   16.8260 H   0  0  0  0  0  0
   27.2223   29.7724   13.9167 H   0  0  0  0  0  0
   35.8017   20.8600   15.5374 H   0  0  0  0  0  0
   31.1847   20.7725   20.0439 H   0  0  0  0  0  0
   38.3413   21.2472   14.2892 H   0  0  0  0  0  0
   39.3905   23.6500   15.3054 H   0  0  0  0  0  0
   37.2276   25.0874   16.4816 H   0  0  0  0  0  0
   30.0556   24.8838   17.5719 H   0  0  0  0  0  0
   26.3704   24.1899   20.2577 H   0  0  0  0  0  0
   22.5183   26.5297   21.8859 H   0  0  0  0  0  0
   22.8260   28.2941   21.7478 H   0  0  0  0  0  0
   21.1664   25.4224   20.1263 H   0  0  0  0  0  0
   19.0083   25.5663   18.8900 H   0  0  0  0  0  0
   17.9785   27.8111   18.5930 H   0  0  0  0  0  0
   17.2860   29.2277   18.2658 H   0  0  0  0  0  0
   16.1757   31.4097   17.8246 H   0  0  0  0  0  0
   17.1252   33.5173   18.7597 H   0  0  0  0  0  0
   19.2803   33.4709   20.0211 H   0  0  0  0  0  0
   20.4148   31.2927   20.4044 H   0  0  0  0  0  0
   21.2651   29.6879   20.6619 H   0  0  0  0  0  0
   26.3955   30.1046   15.0543 H   0  0  0  0  0  0
   24.2910   29.9095   14.0852 H   0  0  0  0  0  0
   24.9804   28.7401   12.9089 H   0  0  0  0  0  0
   23.0969   28.0935   14.8459 H   0  0  0  0  0  0
   24.2291   26.9210   14.0909 H   0  0  0  0  0  0
   24.8848   26.6250   16.3579 H   0  0  0  0  0  0
   24.4309   28.3030   16.8105 H   0  0  0  0  0  0
   26.8996   28.8484   12.5953 H   0  0  0  0  0  0
   27.7250   27.7897   13.7889 H   0  0  0  0  0  0
   29.6948   28.9067   12.4818 H   0  0  0  0  0  0
   29.0847   30.5225   11.9884 H   0  0  0  0  0  0
   31.3239   29.8691   13.8300 H   0  0  0  0  0  0
   30.8577   31.4705   13.1631 H   0  0  0  0  0  0
   30.2581   30.3196   15.8156 H   0  0  0  0  0  0
   29.9939   31.9968   15.2293 H   0  0  0  0  0  0
   27.7076   31.5542   14.7078 H   0  0  0  0  0  0
   27.8981   30.1439   15.8038 H   0  0  0  0  0  0
   28.9549   25.8667   17.2700 H   0  0  0  0  0  0
   27.6256   22.7983   20.4825 H   0  0  0  0  0  0
   32.1968   18.9656   20.7124 H   0  0  0  0  0  0
   29.8839   18.1868   19.4003 H   0  0  0  0  0  0
   29.4890   16.5613   21.7709 H   0  0  0  0  0  0
   28.3915   17.6343   20.8378 H   0  0  0  0  0  0
   29.1342   14.8094   20.3478 H   0  0  0  0  0  0
   27.7723   15.7680   19.6748 H   0  0  0  0  0  0
   29.3733   14.7069   18.0385 H   0  0  0  0  0  0
   29.0368   16.4580   17.8218 H   0  0  0  0  0  0
   31.5662   15.0447   18.3451 H   0  0  0  0  0  0
   31.2459   16.6336   17.5708 H   0  0  0  0  0  0
   32.4148   17.2648   19.4564 H   0  0  0  0  0  0
   31.7167   15.9533   20.4660 H   0  0  0  0  0  0
  1  2  1  0  0  0
  1  3  2  0  0  0
  1 25  1  0  0  0
  2  4  1  0  0  0
  2 13  1  0  0  0
  4  7  1  0  0  0
  4 16  1  0  0  0
  4 68  1  0  0  0
  5 16  1  0  0  0
  5 19  1  0  0  0
  5 24  1  0  0  0
  6 31  2  0  0  0
  7 10  1  0  0  0
  7 69  1  0  0  0
  7 70  1  0  0  0
  8 31  1  0  0  0
  8 32  1  0  0  0
  8 71  1  0  0  0
  9 46  2  0  0  0
 10 13  1  0  0  0
 10 72  1  0  0  0
 10 73  1  0  0  0
 11 30  2  0  0  0
 11 45  1  0  0  0
 12 67  1  0  0  0
 13 74  1  0  0  0
 13 75  1  0  0  0
 14 46  1  0  0  0
 14 47  1  0  0  0
 14 50  1  0  0  0
 15 67  2  0  0  0
 16 76  1  0  0  0
 16 77  1  0  0  0
 17 51  1  0  0  0
 17 52  1  0  0  0
 17 55  1  0  0  0
 17 78  1  0  0  0
 18 59  2  0  0  0
 19 21  2  0  0  0
 19 79  1  0  0  0
 20 59  1  0  0  0
 20 60  1  0  0  0
 20 80  1  0  0  0
 21 23  1  0  0  0
 21 81  1  0  0  0
 22 25  2  0  0  0
 22 58  1  0  0  0
 23 24  2  0  0  0
 23 82  1  0  0  0
 24 83  1  0  0  0
 25 26  1  0  0  0
 26 27  2  0  0  0
 26 84  1  0  0  0
 27 28  1  0  0  0
 27 57  1  0  0  0
 28 29  2  0  0  0
 28 56  1  0  0  0
 29 30  1  0  0  0
 29 85  1  0  0  0
 30 31  1  0  0  0
 32 33  1  0  0  0
 32 86  1  0  0  0
 32 87  1  0  0  0
 33 34  2  0  0  0
 33 44  1  0  0  0
 34 35  1  0  0  0
 34 88  1  0  0  0
 35 36  2  0  0  0
 35 89  1  0  0  0
 36 37  1  0  0  0
 36 90  1  0  0  0
 37 38  1  0  0  0
 37 44  2  0  0  0
 38 39  2  0  0  0
 38 43  1  0  0  0
 39 40  1  0  0  0
 39 91  1  0  0  0
 40 41  2  0  0  0
 40 92  1  0  0  0
 41 42  1  0  0  0
 41 93  1  0  0  0
 42 43  2  0  0  0
 42 94  1  0  0  0
 43 95  1  0  0  0
 44 96  1  0  0  0
 45 46  1  0  0  0
 45 56  2  0  0  0
 47 48  1  0  0  0
 47 51  1  0  0  0
 47 97  1  0  0  0
 48 49  1  0  0  0
 48 98  1  0  0  0
 48 99  1  0  0  0
 49 50  1  0  0  0
 49100  1  0  0  0
 49101  1  0  0  0
 50102  1  0  0  0
 50103  1  0  0  0
 51104  1  0  0  0
 51105  1  0  0  0
 52 53  1  0  0  0
 52106  1  0  0  0
 52107  1  0  0  0
 53 54  1  0  0  0
 53108  1  0  0  0
 53109  1  0  0  0
 54 55  1  0  0  0
 54110  1  0  0  0
 54111  1  0  0  0
 55112  1  0  0  0
 55113  1  0  0  0
 56114  1  0  0  0
 57 58  2  0  0  0
 57115  1  0  0  0
 58 59  1  0  0  0
 60 61  1  0  0  0
 60 67  1  0  0  0
 60116  1  0  0  0
 61 62  1  0  0  0
 61 66  1  0  0  0
 61117  1  0  0  0
 62 63  1  0  0  0
 62118  1  0  0  0
 62119  1  0  0  0
 63 64  1  0  0  0
 63120  1  0  0  0
 63121  1  0  0  0
 64 65  1  0  0  0
 64122  1  0  0  0
 64123  1  0  0  0
 65 66  1  0  0  0
 65124  1  0  0  0
 65125  1  0  0  0
 66126  1  0  0  0
 66127  1  0  0  0
M  CHG  2  12  -1  17   1
M  END
> <s_m_source_file>
../3lkj_ligand.sdf

> <i_m_source_file_index>
1

> <s_epik_input>
W2NIXTFbY0hdW2NIXVtjSF1uMVtDSDJdW0NAQEhdKFtDSDJdW0NIMl1bQ0gyXTIpTjJDKD1PKWMzbmMoQyg9TylbTkhdW0NAQEhdKEMoPU8pW09IXSlbQ0hdNFtDSDJdW0NIMl1bQ0gyXVtDSDJdW0NIMl00KVtjSF1jKFtjSF0zKS1jNVtjSF1jKG5jKFtjSF01KUMoPU8pTjZbQ0BIXShbQ0gyXVtDSDJdW0NIMl02KVtDSDJdW05IK103W0NIMl1bQ0gyXVtDSDJdW0NIMl03KUMoPU8pW05IXVtDSDJdYzhbY0hdW2NIXVtjSF1jKFtjSF04KS1jOVtjSF1bY0hdW2NIXVtjSF1bY0hdOQ==

> <s_epik_cmdline>
J2VwaWtfYXBwJywgJy1pbWFlJywgJ2xpZ2FuZF9wcm8ubWFlJywgJy1vbWFlJywgJ2xpZ2FuZF9wcmVwLm1hZScsICctbXMnLCAnMScsICctcGgnLCAnNycsICctcGh0JywgJzAuNScsICctbnQn

> <r_lp_tautomer_probability>
1

> <r_epik_Ionization_Penalty>
  0.0028

> <r_epik_Ionization_Penalty_Charging>
  0.0028

> <r_epik_Ionization_Penalty_Neutral>
  0.0000

> <r_epik_State_Penalty>
 -0.0000

> <r_epik_Charging_Adjusted_Penalty>
0.00277029984854678

> <i_epik_Tot_Q>
0

> <i_epik_Tot_abs_Q>
2

$$$$
