3lkz_ligand
                    3D
 Schrodinger Suite 2020-3.
 51 53  0  0  1  0            999 V2000
   -2.1130    2.5730   -5.1940 N   0  3  0  0  0  0
   -2.3880    3.8800   -5.8150 C   0  0  2  0  0  0
   -1.2350    4.2330   -6.7210 C   0  0  0  0  0  0
   -0.2610    3.5330   -6.7710 O   0  0  0  0  0  0
   -1.3150    5.3200   -7.4960 O   0  5  0  0  0  0
   -2.5560    4.9560   -4.7200 C   0  0  0  0  0  0
   -3.7800    4.6030   -3.8590 C   0  0  0  0  0  0
   -4.0100    5.6520   -2.7610 C   0  0  2  0  0  0
   -2.8500    5.6510   -1.8610 N   0  3  0  0  0  0
   -5.2700    5.3080   -1.9440 C   0  0  0  0  0  0
   -6.5350    5.5520   -2.8030 C   0  0  1  0  0  0
   -7.6760    4.8580   -2.2710 O   0  0  0  0  0  0
   -6.9130    7.0470   -2.8900 C   0  0  1  0  0  0
   -6.7840    7.5370   -4.2250 O   0  0  0  0  0  0
   -8.3680    7.1070   -2.3880 C   0  0  1  0  0  0
   -9.1300    8.0560   -3.1350 O   0  0  0  0  0  0
   -8.8490    5.6580   -2.5870 C   0  0  2  0  0  0
   -9.9540    5.2970   -1.6780 N   0  0  0  0  0  0
  -10.1150    5.6600   -0.3590 C   0  0  0  0  0  0
  -11.2060    5.1430    0.1200 N   0  0  0  0  0  0
  -11.8230    4.4220   -0.8440 C   0  0  0  0  0  0
  -13.0050    3.6390   -0.9210 C   0  0  0  0  0  0
  -13.8300    3.4980    0.1760 N   0  0  0  0  0  0
  -13.3130    3.0360   -2.0930 N   0  0  0  0  0  0
  -12.5290    3.1500   -3.1680 C   0  0  0  0  0  0
  -11.4100    3.8700   -3.1370 N   0  0  0  0  0  0
  -11.0200    4.5070   -2.0130 C   0  0  0  0  0  0
   -1.9945    1.8117   -5.9791 H   0  0  0  0  0  0
   -2.9509    2.2954   -4.5375 H   0  0  0  0  0  0
   -1.1883    2.6358   -4.6016 H   0  0  0  0  0  0
   -3.3102    3.7907   -6.4079 H   0  0  0  0  0  0
   -1.6540    4.9829   -4.0909 H   0  0  0  0  0  0
   -2.7038    5.9389   -5.1913 H   0  0  0  0  0  0
   -4.6760    4.5601   -4.4956 H   0  0  0  0  0  0
   -3.6225    3.6247   -3.3813 H   0  0  0  0  0  0
   -4.1034    6.6537   -3.2058 H   0  0  0  0  0  0
   -1.9424    5.8955   -2.4324 H   0  0  0  0  0  0
   -2.7398    4.6556   -1.4060 H   0  0  0  0  0  0
   -2.9987    6.4012   -1.0703 H   0  0  0  0  0  0
   -5.2338    4.2509   -1.6420 H   0  0  0  0  0  0
   -5.3108    5.9442   -1.0476 H   0  0  0  0  0  0
   -6.3410    5.1267   -3.7987 H   0  0  0  0  0  0
   -6.2325    7.7253   -2.3545 H   0  0  0  0  0  0
   -5.7979    7.5528   -4.7122 H   0  0  0  0  0  0
   -8.5168    7.5001   -1.3715 H   0  0  0  0  0  0
   -8.8841    9.1266   -3.0772 H   0  0  0  0  0  0
   -9.2378    5.4540   -3.5956 H   0  0  0  0  0  0
   -9.4256    6.2907    0.2023 H   0  0  0  0  0  0
  -13.5725    3.9913    1.1249 H   0  0  0  0  0  0
  -14.7452    2.8923    0.1017 H   0  0  0  0  0  0
  -12.8115    2.6426   -4.0904 H   0  0  0  0  0  0
  1  2  1  0  0  0
  1 28  1  0  0  0
  1 29  1  0  0  0
  1 30  1  0  0  0
  2  3  1  0  0  0
  2  6  1  0  0  0
  2 31  1  0  0  0
  3  4  2  0  0  0
  3  5  1  0  0  0
  6  7  1  0  0  0
  6 32  1  0  0  0
  6 33  1  0  0  0
  7  8  1  0  0  0
  7 34  1  0  0  0
  7 35  1  0  0  0
  8  9  1  0  0  0
  8 10  1  0  0  0
  8 36  1  0  0  0
  9 37  1  0  0  0
  9 38  1  0  0  0
  9 39  1  0  0  0
 10 11  1  0  0  0
 10 40  1  0  0  0
 10 41  1  0  0  0
 11 12  1  0  0  0
 11 13  1  0  0  0
 11 42  1  0  0  0
 12 17  1  0  0  0
 13 14  1  0  0  0
 13 15  1  0  0  0
 13 43  1  0  0  0
 14 44  1  0  0  0
 15 16  1  0  0  0
 15 17  1  0  0  0
 15 45  1  0  0  0
 16 46  1  0  0  0
 17 18  1  0  0  0
 17 47  1  0  0  0
 18 19  1  0  0  0
 18 27  1  0  0  0
 19 20  2  0  0  0
 19 48  1  0  0  0
 20 21  1  0  0  0
 21 22  2  0  0  0
 21 27  1  0  0  0
 22 23  1  0  0  0
 22 24  1  0  0  0
 23 49  1  0  0  0
 23 50  1  0  0  0
 24 25  2  0  0  0
 25 26  1  0  0  0
 25 51  1  0  0  0
 26 27  2  0  0  0
M  CHG  3   1   1   5  -1   9   1
M  END
> <s_m_source_file>
../3lkz_ligand.sdf

> <i_m_source_file_index>
1

> <s_epik_input>
Tz1DKFtPSF0pW0NAQEhdKFtOSDMrXSlbQ0gyXVtDSDJdW0NASF0oW05IMytdKVtDSDJdW0NASF0xT1tDQEhdKFtDQEhdKFtPSF0pW0NAQEhdMVtPSF0pbihbY0hdbjIpYyhjMjMpbltjSF1uYzNbTkgyXQ==

> <s_epik_cmdline>
J2VwaWtfYXBwJywgJy1pbWFlJywgJ2xpZ2FuZF9wcm8ubWFlJywgJy1vbWFlJywgJ2xpZ2FuZF9wcmVwLm1hZScsICctbXMnLCAnMScsICctcGgnLCAnNycsICctcGh0JywgJzAuNScsICctbnQn

> <r_lp_tautomer_probability>
1

> <r_epik_Ionization_Penalty>
  0.0044

> <r_epik_Ionization_Penalty_Charging>
  0.0040

> <r_epik_Ionization_Penalty_Neutral>
  0.0004

> <r_epik_State_Penalty>
 -0.0000

> <r_epik_Charging_Adjusted_Penalty>
0.00403663670421057

> <i_epik_Tot_Q>
1

> <i_epik_Tot_abs_Q>
3

> <s_epik_Chemistry_Notes>
This compound contains an acetal/aminal-like group ( X-CH(R)-Y where X, Y are N, S, or O) that may be acid/base labile, releasing an aldehyde.

$$$$
