3ll8_ligand
                    3D
 Schrodinger Suite 2020-3.
177177  0  0  1  0            999 V2000
  -25.6360  -25.8310   28.9670 N   0  3  0  0  0  0
  -25.7780  -24.4090   28.5030 C   0  0  2  0  0  0
  -24.6580  -23.8830   27.5690 C   0  0  0  0  0  0
  -24.5890  -22.6590   27.3530 O   0  0  0  0  0  0
  -25.9540  -23.4550   29.7070 C   0  0  0  0  0  0
  -25.0000  -23.6980   30.9050 C   0  0  0  0  0  0
  -23.5220  -23.7060   30.5200 C   0  0  0  0  0  0
  -22.8510  -22.6730   30.7220 O   0  0  0  0  0  0
  -23.0340  -24.7360   30.0090 O   0  0  0  0  0  0
  -23.7660  -24.7780   27.0440 N   0  0  0  0  0  0
  -22.8610  -24.2560   25.9910 C   0  0  2  0  0  0
  -23.6800  -23.9940   24.7140 C   0  0  0  0  0  0
  -24.3810  -24.8930   24.2360 O   0  0  0  0  0  0
  -21.8330  -25.3900   25.7830 C   0  0  0  0  0  0
  -22.5080  -26.6310   26.2910 C   0  0  0  0  0  0
  -23.4730  -26.1950   27.3720 C   0  0  0  0  0  0
  -23.6420  -22.7610   24.2020 N   0  0  0  0  0  0
  -24.5130  -22.4050   23.0800 C   0  0  2  0  0  0
  -23.9580  -23.0840   21.8200 C   0  0  0  0  0  0
  -22.7330  -23.2860   21.7050 O   0  0  0  0  0  0
  -24.6800  -20.8660   22.8880 C   0  0  2  0  0  0
  -23.8160  -20.3750   21.7470 C   0  0  0  0  0  0
  -24.4060  -20.0730   24.2000 C   0  0  0  0  0  0
  -24.4720  -19.3650   20.9280 C   0  0  0  0  0  0
  -24.8620  -23.4540   20.9110 N   0  0  0  0  0  0
  -24.4940  -24.1160   19.6600 C   0  0  2  0  0  0
  -24.2960  -23.1520   18.4540 C   0  0  0  0  0  0
  -25.0380  -22.1960   18.2750 O   0  0  0  0  0  0
  -25.5350  -25.1370   19.3150 C   0  0  0  0  0  0
  -23.3160  -23.4580   17.6200 N   0  0  0  0  0  0
  -23.0540  -22.7140   16.4150 C   0  0  2  0  0  0
  -23.5360  -23.5250   15.1970 C   0  0  0  0  0  0
  -23.1220  -24.6600   15.0140 O   0  0  0  0  0  0
  -21.5590  -22.4530   16.3590 C   0  0  2  0  0  0
  -21.1480  -21.6240   17.6080 C   0  0  0  0  0  0
  -21.1890  -21.7960   15.0740 C   0  0  0  0  0  0
  -19.6160  -21.5750   17.9180 C   0  0  0  0  0  0
  -24.4180  -22.9410   14.3930 N   0  0  0  0  0  0
  -24.8950  -23.5470   13.1370 C   0  0  2  0  0  0
  -24.4740  -22.6160   11.9870 C   0  0  0  0  0  0
  -24.8190  -21.4320   12.0110 O   0  0  0  0  0  0
  -26.3940  -23.6470   13.1340 C   0  0  2  0  0  0
  -26.8360  -24.3820   14.4450 C   0  0  0  0  0  0
  -26.8630  -24.3580   11.8070 C   0  0  0  0  0  0
  -28.3690  -24.5740   14.6680 C   0  0  0  0  0  0
  -23.7370  -23.1590   11.0100 N   0  0  0  0  0  0
  -23.2390  -22.4070    9.8500 C   0  0  2  0  0  0
  -23.9340  -22.9900    8.6050 C   0  0  0  0  0  0
  -23.8570  -24.2070    8.3440 O   0  0  0  0  0  0
  -21.7110  -22.5520    9.7010 C   0  0  2  0  0  0
  -20.9790  -22.2590   11.0320 C   0  0  0  0  0  0
  -21.1980  -21.6430    8.5540 C   0  0  0  0  0  0
  -19.7230  -23.0340   11.2420 C   0  0  0  0  0  0
  -24.6330  -22.1220    7.8840 N   0  0  0  0  0  0
  -25.3720  -22.4700    6.6710 C   0  0  2  0  0  0
  -25.0450  -21.3750    5.6070 C   0  0  0  0  0  0
  -24.7300  -20.2370    5.9660 O   0  0  0  0  0  0
  -26.9040  -22.4160    6.9360 C   0  0  2  0  0  0
  -27.2240  -21.2000    7.6410 O   0  0  0  0  0  0
  -27.4100  -23.6130    7.8120 C   0  0  0  0  0  0
  -25.1330  -21.7290    4.3300 N   0  0  0  0  0  0
  -25.0530  -20.7650    3.2170 C   0  0  2  0  0  0
  -26.4260  -20.2690    2.7450 C   0  0  0  0  0  0
  -27.4150  -20.9880    2.8080 O   0  0  0  0  0  0
  -24.3160  -21.3800    2.0210 C   0  0  0  0  0  0
  -22.9630  -20.7370    1.7710 C   0  0  0  0  0  0
  -22.9140  -19.6520    1.1230 O   0  0  0  0  0  0
  -21.9540  -21.3330    2.2030 O   0  0  0  0  0  0
  -26.4720  -19.0370    2.2190 N   0  0  0  0  0  0
  -27.7020  -18.4540    1.6610 C   0  0  2  0  0  0
  -27.4930  -18.2020    0.1600 C   0  0  0  0  0  0
  -28.1660  -18.8120   -0.6600 O   0  0  0  0  0  0
  -28.1390  -17.2170    2.4400 C   0  0  2  0  0  0
  -27.1540  -16.8860    3.4240 O   0  0  0  0  0  0
  -29.4830  -17.4810    3.0940 C   0  0  0  0  0  0
  -26.5420  -17.3170   -0.1820 N   0  0  0  0  0  0
  -26.0900  -17.1080   -1.5670 C   0  0  2  0  0  0
  -27.1470  -16.8150   -2.6450 C   0  0  0  0  0  0
  -28.2780  -16.7050   -2.4670 O   0  0  0  0  0  0
  -25.2910  -18.3400   -1.9960 C   0  0  0  0  0  0
  -26.1120  -19.4660   -2.6150 C   0  0  0  0  0  0
  -25.3730  -20.7890   -2.6300 C   0  0  0  0  0  0
  -25.0580  -21.2690   -3.7300 O   0  0  0  0  0  0
  -25.1040  -21.3430   -1.5300 O   0  0  0  0  0  0
  -26.8040  -16.5270   -3.7890 O   0  0  0  0  0  0
  -25.5122  -26.4905   28.0953 H   0  0  0  0  0  0
  -26.5367  -26.1262   29.5252 H   0  0  0  0  0  0
  -24.7551  -25.9173   29.6201 H   0  0  0  0  0  0
  -26.6885  -24.4576   27.8876 H   0  0  0  0  0  0
  -25.7814  -22.4185   29.3818 H   0  0  0  0  0  0
  -26.9757  -23.5495   30.1035 H   0  0  0  0  0  0
  -25.1398  -22.9029   31.6521 H   0  0  0  0  0  0
  -25.2252  -24.6733   31.3611 H   0  0  0  0  0  0
  -21.9713  -24.7590   29.7258 H   0  0  0  0  0  0
  -22.3875  -23.3076   26.2849 H   0  0  0  0  0  0
  -21.5885  -25.4716   24.7136 H   0  0  0  0  0  0
  -20.9189  -25.1652   26.3520 H   0  0  0  0  0  0
  -23.0438  -27.1213   25.4648 H   0  0  0  0  0  0
  -21.7523  -27.3192   26.6975 H   0  0  0  0  0  0
  -23.0251  -26.2541   28.3750 H   0  0  0  0  0  0
  -24.4065  -26.7765   27.3525 H   0  0  0  0  0  0
  -22.9553  -22.0125   24.6242 H   0  0  0  0  0  0
  -25.5053  -22.8022   23.3401 H   0  0  0  0  0  0
  -25.7215  -20.6625   22.5983 H   0  0  0  0  0  0
  -22.8943  -19.9302   22.1502 H   0  0  0  0  0  0
  -23.5590  -21.2202   21.0916 H   0  0  0  0  0  0
  -25.0514  -20.4585   25.0030 H   0  0  0  0  0  0
  -24.6219  -19.0070   24.0360 H   0  0  0  0  0  0
  -23.3511  -20.1934   24.4877 H   0  0  0  0  0  0
  -23.7945  -19.0513   20.1202 H   0  0  0  0  0  0
  -24.7261  -18.4954   21.5519 H   0  0  0  0  0  0
  -25.3908  -19.7855   20.4934 H   0  0  0  0  0  0
  -25.9189  -23.2433   21.1315 H   0  0  0  0  0  0
  -23.5333  -24.5960   19.8980 H   0  0  0  0  0  0
  -25.6760  -25.8190   20.1664 H   0  0  0  0  0  0
  -25.2081  -25.7111   18.4355 H   0  0  0  0  0  0
  -26.4850  -24.6303   19.0898 H   0  0  0  0  0  0
  -22.6877  -24.3226   17.8801 H   0  0  0  0  0  0
  -23.6056  -21.7636   16.4657 H   0  0  0  0  0  0
  -21.0051  -23.4033   16.3435 H   0  0  0  0  0  0
  -21.4687  -20.5800   17.4769 H   0  0  0  0  0  0
  -21.6293  -22.0458   18.5027 H   0  0  0  0  0  0
  -21.5059  -22.4306   14.2332 H   0  0  0  0  0  0
  -20.0989  -21.6537   15.0355 H   0  0  0  0  0  0
  -21.6891  -20.8187   15.0046 H   0  0  0  0  0  0
  -19.4431  -20.9649   18.8169 H   0  0  0  0  0  0
  -19.0833  -21.1299   17.0647 H   0  0  0  0  0  0
  -19.2440  -22.5957   18.0905 H   0  0  0  0  0  0
  -24.7941  -21.9558   14.7059 H   0  0  0  0  0  0
  -24.4715  -24.5596   13.0644 H   0  0  0  0  0  0
  -26.8343  -22.6390   13.1437 H   0  0  0  0  0  0
  -26.4062  -25.3944   14.4604 H   0  0  0  0  0  0
  -26.4786  -23.8186   15.3196 H   0  0  0  0  0  0
  -26.5133  -23.7807   10.9384 H   0  0  0  0  0  0
  -27.9613  -24.4160   11.7906 H   0  0  0  0  0  0
  -26.4415  -25.3732   11.7663 H   0  0  0  0  0  0
  -28.5381  -25.1002   15.6190 H   0  0  0  0  0  0
  -28.7884  -25.1665   13.8415 H   0  0  0  0  0  0
  -28.8608  -23.5906   14.7006 H   0  0  0  0  0  0
  -23.5084  -24.2303   11.1103 H   0  0  0  0  0  0
  -23.4790  -21.3467   10.0176 H   0  0  0  0  0  0
  -21.4912  -23.5983    9.4423 H   0  0  0  0  0  0
  -20.7039  -21.1947   11.0725 H   0  0  0  0  0  0
  -21.6427  -22.4985   11.8759 H   0  0  0  0  0  0
  -21.7408  -21.8806    7.6272 H   0  0  0  0  0  0
  -20.1220  -21.8150    8.4032 H   0  0  0  0  0  0
  -21.3673  -20.5887    8.8181 H   0  0  0  0  0  0
  -19.2790  -22.7575   12.2097 H   0  0  0  0  0  0
  -19.0122  -22.8063   10.4340 H   0  0  0  0  0  0
  -19.9510  -24.1101   11.2373 H   0  0  0  0  0  0
  -24.6348  -21.0849    8.2507 H   0  0  0  0  0  0
  -25.0559  -23.4855    6.3902 H   0  0  0  0  0  0
  -27.4239  -22.3902    5.9669 H   0  0  0  0  0  0
  -26.9574  -20.2255    7.2058 H   0  0  0  0  0  0
  -27.1821  -24.5615    7.3036 H   0  0  0  0  0  0
  -28.4969  -23.5270    7.9577 H   0  0  0  0  0  0
  -26.9061  -23.5907    8.7896 H   0  0  0  0  0  0
  -25.2721  -22.8000    4.1211 H   0  0  0  0  0  0
  -24.4952  -19.9213    3.6494 H   0  0  0  0  0  0
  -24.1504  -22.4519    2.2041 H   0  0  0  0  0  0
  -24.9221  -21.2527    1.1119 H   0  0  0  0  0  0
  -21.9443  -19.1695    0.9308 H   0  0  0  0  0  0
  -25.5376  -18.4566    2.2158 H   0  0  0  0  0  0
  -28.5120  -19.1864    1.7936 H   0  0  0  0  0  0
  -28.1980  -16.3316    1.7899 H   0  0  0  0  0  0
  -26.1214  -16.6649    3.1159 H   0  0  0  0  0  0
  -30.2238  -17.7330    2.3209 H   0  0  0  0  0  0
  -29.8101  -16.5813    3.6358 H   0  0  0  0  0  0
  -29.3891  -18.3199    3.7992 H   0  0  0  0  0  0
  -26.0960  -16.7325    0.6362 H   0  0  0  0  0  0
  -25.5138  -16.1763   -1.4680 H   0  0  0  0  0  0
  -24.5436  -18.0485   -2.7486 H   0  0  0  0  0  0
  -24.7817  -18.7698   -1.1208 H   0  0  0  0  0  0
  -27.0383  -19.6042   -2.0381 H   0  0  0  0  0  0
  -26.3625  -19.2084   -3.6547 H   0  0  0  0  0  0
  -24.5684  -22.3037   -1.5145 H   0  0  0  0  0  0
  -27.5651  -16.3186   -4.5554 H   0  0  0  0  0  0
  1  2  1  0  0  0
  1 86  1  0  0  0
  1 87  1  0  0  0
  1 88  1  0  0  0
  2  3  1  0  0  0
  2  5  1  0  0  0
  2 89  1  0  0  0
  3  4  2  0  0  0
  3 10  1  0  0  0
  5  6  1  0  0  0
  5 90  1  0  0  0
  5 91  1  0  0  0
  6  7  1  0  0  0
  6 92  1  0  0  0
  6 93  1  0  0  0
  7  8  2  0  0  0
  7  9  1  0  0  0
  9 94  1  0  0  0
 10 11  1  0  0  0
 10 16  1  0  0  0
 11 12  1  0  0  0
 11 14  1  0  0  0
 11 95  1  0  0  0
 12 13  2  0  0  0
 12 17  1  0  0  0
 14 15  1  0  0  0
 14 96  1  0  0  0
 14 97  1  0  0  0
 15 16  1  0  0  0
 15 98  1  0  0  0
 15 99  1  0  0  0
 16100  1  0  0  0
 16101  1  0  0  0
 17 18  1  0  0  0
 17102  1  0  0  0
 18 19  1  0  0  0
 18 21  1  0  0  0
 18103  1  0  0  0
 19 20  2  0  0  0
 19 25  1  0  0  0
 21 22  1  0  0  0
 21 23  1  0  0  0
 21104  1  0  0  0
 22 24  1  0  0  0
 22105  1  0  0  0
 22106  1  0  0  0
 23107  1  0  0  0
 23108  1  0  0  0
 23109  1  0  0  0
 24110  1  0  0  0
 24111  1  0  0  0
 24112  1  0  0  0
 25 26  1  0  0  0
 25113  1  0  0  0
 26 27  1  0  0  0
 26 29  1  0  0  0
 26114  1  0  0  0
 27 28  2  0  0  0
 27 30  1  0  0  0
 29115  1  0  0  0
 29116  1  0  0  0
 29117  1  0  0  0
 30 31  1  0  0  0
 30118  1  0  0  0
 31 32  1  0  0  0
 31 34  1  0  0  0
 31119  1  0  0  0
 32 33  2  0  0  0
 32 38  1  0  0  0
 34 35  1  0  0  0
 34 36  1  0  0  0
 34120  1  0  0  0
 35 37  1  0  0  0
 35121  1  0  0  0
 35122  1  0  0  0
 36123  1  0  0  0
 36124  1  0  0  0
 36125  1  0  0  0
 37126  1  0  0  0
 37127  1  0  0  0
 37128  1  0  0  0
 38 39  1  0  0  0
 38129  1  0  0  0
 39 40  1  0  0  0
 39 42  1  0  0  0
 39130  1  0  0  0
 40 41  2  0  0  0
 40 46  1  0  0  0
 42 43  1  0  0  0
 42 44  1  0  0  0
 42131  1  0  0  0
 43 45  1  0  0  0
 43132  1  0  0  0
 43133  1  0  0  0
 44134  1  0  0  0
 44135  1  0  0  0
 44136  1  0  0  0
 45137  1  0  0  0
 45138  1  0  0  0
 45139  1  0  0  0
 46 47  1  0  0  0
 46140  1  0  0  0
 47 48  1  0  0  0
 47 50  1  0  0  0
 47141  1  0  0  0
 48 49  2  0  0  0
 48 54  1  0  0  0
 50 51  1  0  0  0
 50 52  1  0  0  0
 50142  1  0  0  0
 51 53  1  0  0  0
 51143  1  0  0  0
 51144  1  0  0  0
 52145  1  0  0  0
 52146  1  0  0  0
 52147  1  0  0  0
 53148  1  0  0  0
 53149  1  0  0  0
 53150  1  0  0  0
 54 55  1  0  0  0
 54151  1  0  0  0
 55 56  1  0  0  0
 55 58  1  0  0  0
 55152  1  0  0  0
 56 57  2  0  0  0
 56 61  1  0  0  0
 58 59  1  0  0  0
 58 60  1  0  0  0
 58153  1  0  0  0
 59154  1  0  0  0
 60155  1  0  0  0
 60156  1  0  0  0
 60157  1  0  0  0
 61 62  1  0  0  0
 61158  1  0  0  0
 62 63  1  0  0  0
 62 65  1  0  0  0
 62159  1  0  0  0
 63 64  2  0  0  0
 63 69  1  0  0  0
 65 66  1  0  0  0
 65160  1  0  0  0
 65161  1  0  0  0
 66 67  1  0  0  0
 66 68  2  0  0  0
 67162  1  0  0  0
 69 70  1  0  0  0
 69163  1  0  0  0
 70 71  1  0  0  0
 70 73  1  0  0  0
 70164  1  0  0  0
 71 72  2  0  0  0
 71 76  1  0  0  0
 73 74  1  0  0  0
 73 75  1  0  0  0
 73165  1  0  0  0
 74166  1  0  0  0
 75167  1  0  0  0
 75168  1  0  0  0
 75169  1  0  0  0
 76 77  1  0  0  0
 76170  1  0  0  0
 77 78  1  0  0  0
 77 80  1  0  0  0
 77171  1  0  0  0
 78 79  2  0  0  0
 78 85  1  0  0  0
 80 81  1  0  0  0
 80172  1  0  0  0
 80173  1  0  0  0
 81 82  1  0  0  0
 81174  1  0  0  0
 81175  1  0  0  0
 82 83  2  0  0  0
 82 84  1  0  0  0
 84176  1  0  0  0
 85177  1  0  0  0
M  CHG  1   1   1
M  END
> <s_m_source_file>
../3ll8_ligand.sdf

> <i_m_source_file_index>
1

> <s_epik_input>
Tz1DKFtPSF0pW0NIMl1bQ0gyXVtDQEhdKFtOSDMrXSlDKD1PKU4xW0NAQEhdKFtDSDJdW0NIMl1bQ0gyXTEpQyg9TylbTkhdW0NAQEhdKFtDQEBIXShbQ0gzXSlbQ0gyXVtDSDNdKUMoPU8pW05IXVtDQEBIXShbQ0gzXSlDKD1PKVtOSF1bQ0BASF0oW0NAQEhdKFtDSDNdKVtDSDJdW0NIM10pQyg9TylbTkhdW0NAQEhdKFtDQEBIXShbQ0gzXSlbQ0gyXVtDSDNdKUMoPU8pW05IXVtDQEBIXShbQ0BASF0oW0NIM10pW0NIMl1bQ0gzXSlDKD1PKVtOSF1bQ0BASF0oW0NASF0oW09IXSlbQ0gzXSlDKD1PKVtOSF1bQ0BASF0oW0NIMl1DKD1PKVtPSF0pQyg9TylbTkhdW0NAQEhdKFtDQEhdKFtPSF0pW0NIM10pQyg9TylbTkhdW0NASF0oQyg9TylbT0hdKVtDSDJdW0NIMl1DKD1PKVtPSF0=

> <s_epik_cmdline>
J2VwaWtfYXBwJywgJy1pbWFlJywgJ2xpZ2FuZF9wcm8ubWFlJywgJy1vbWFlJywgJ2xpZ2FuZF9wcmVwLm1hZScsICctbXMnLCAnMScsICctcGgnLCAnNycsICctcGh0JywgJzAuNScsICctbnQn

> <s_epik_pKa_notes>
Molecule size exceeds maximum supported for generating protonation states

$$$$
