3lle_ligand
                    3D
 Schrodinger Suite 2020-3.
 40 45  0  0  1  0            999 V2000
   -3.4990   -0.7810  -28.9060 N   0  0  0  0  0  0
   -4.4790    1.4430  -28.2670 C   0  0  0  0  0  0
   -2.2620   -0.4160  -28.1940 C   0  0  0  0  0  0
   -2.1880    0.9010  -27.4630 C   0  0  0  0  0  0
   -1.3110   -1.4800  -27.9340 C   0  0  0  0  0  0
   -3.2370    1.9580  -27.6840 C   0  0  0  0  0  0
   -4.5870   -0.0630  -28.1890 C   0  0  0  0  0  0
   -5.6360    2.3120  -28.3970 C   0  0  0  0  0  0
   -1.4990   -2.6950  -28.6660 C   0  0  0  0  0  0
   -0.1740   -1.1850  -27.0620 C   0  0  0  0  0  0
   -0.4780   -3.6530  -28.3460 C   0  0  0  0  0  0
    0.7020   -3.2930  -27.6120 C   0  0  0  0  0  0
   -1.0680    1.0880  -26.6590 C   0  0  0  0  0  0
    0.8700   -2.1060  -26.8940 C   0  0  0  0  0  0
   -3.1130    3.3610  -27.4950 C   0  0  0  0  0  0
   -5.4290    3.7370  -28.1830 C   0  0  0  0  0  0
   -6.9570    2.1430  -28.8260 O   0  0  0  0  0  0
   -0.3090   -4.9070  -28.9720 O   0  0  0  0  0  0
    1.4730   -4.4160  -27.5690 O   0  0  0  0  0  0
   -6.6230    4.3420  -28.4900 O   0  0  0  0  0  0
   -7.6730    3.3890  -28.7640 C   0  0  0  0  0  0
    0.9720   -5.4320  -28.5070 C   0  0  0  0  0  0
   -0.0980    0.0890  -26.4900 C   0  0  0  0  0  0
   -4.2280    4.2250  -27.7390 C   0  0  0  0  0  0
   -3.4160   -0.3630  -30.3500 C   0  0  0  0  0  0
   -5.5586   -0.3435  -28.6218 H   0  0  0  0  0  0
   -4.5673   -0.3370  -27.1238 H   0  0  0  0  0  0
   -2.3099   -2.8703  -29.3730 H   0  0  0  0  0  0
   -0.9404    2.0404  -26.1445 H   0  0  0  0  0  0
    1.7354   -1.9132  -26.2599 H   0  0  0  0  0  0
   -2.1639    3.7815  -27.1625 H   0  0  0  0  0  0
   -8.1743    3.5720  -29.7258 H   0  0  0  0  0  0
   -8.4245    3.3406  -27.9622 H   0  0  0  0  0  0
    0.8131   -6.4017  -28.0126 H   0  0  0  0  0  0
    1.6473   -5.5643  -29.3652 H   0  0  0  0  0  0
    0.7706    0.3204  -25.8734 H   0  0  0  0  0  0
   -4.1191    5.2959  -27.5676 H   0  0  0  0  0  0
   -2.6026   -0.9138  -30.8450 H   0  0  0  0  0  0
   -3.2159    0.7171  -30.4081 H   0  0  0  0  0  0
   -4.3689   -0.5869  -30.8519 H   0  0  0  0  0  0
  1  3  1  0  0  0
  1  7  1  0  0  0
  1 25  1  0  0  0
  2  6  2  0  0  0
  2  7  1  0  0  0
  2  8  1  0  0  0
  3  4  2  0  0  0
  3  5  1  0  0  0
  4  6  1  0  0  0
  4 13  1  0  0  0
  5  9  2  0  0  0
  5 10  1  0  0  0
  6 15  1  0  0  0
  7 26  1  0  0  0
  7 27  1  0  0  0
  8 16  2  0  0  0
  8 17  1  0  0  0
  9 11  1  0  0  0
  9 28  1  0  0  0
 10 14  2  0  0  0
 10 23  1  0  0  0
 11 12  2  0  0  0
 11 18  1  0  0  0
 12 14  1  0  0  0
 12 19  1  0  0  0
 13 23  2  0  0  0
 13 29  1  0  0  0
 14 30  1  0  0  0
 15 24  2  0  0  0
 15 31  1  0  0  0
 16 20  1  0  0  0
 16 24  1  0  0  0
 17 21  1  0  0  0
 18 22  1  0  0  0
 19 22  1  0  0  0
 20 21  1  0  0  0
 21 32  1  0  0  0
 21 33  1  0  0  0
 22 34  1  0  0  0
 22 35  1  0  0  0
 23 36  1  0  0  0
 24 37  1  0  0  0
 25 38  1  0  0  0
 25 39  1  0  0  0
 25 40  1  0  0  0
M  END
> <s_m_source_file>
../3lle_ligand.sdf

> <i_m_source_file_index>
1

> <s_epik_input>
TzFbQ0gyXU9jKFtjSF0yKWMxW2NIXWMoW2NIXVtjSF0zKWMyYyhOKFtDSDJdNClbQ0gzXSljM2MoYzQ1KVtjSF1bY0hdYzZjNU9bQ0gyXU82

> <s_epik_cmdline>
J2VwaWtfYXBwJywgJy1pbWFlJywgJ2xpZ2FuZF9wcm8ubWFlJywgJy1vbWFlJywgJ2xpZ2FuZF9wcmVwLm1hZScsICctbXMnLCAnMScsICctcGgnLCAnNycsICctcGh0JywgJzAuNScsICctbnQn

> <r_lp_tautomer_probability>
1

> <r_epik_Ionization_Penalty>
  0.0004

> <r_epik_Ionization_Penalty_Charging>
  0.0000

> <r_epik_Ionization_Penalty_Neutral>
  0.0004

> <r_epik_State_Penalty>
 -0.0000

> <r_epik_Charging_Adjusted_Penalty>
0

> <i_epik_Tot_Q>
0

> <i_epik_Tot_abs_Q>
0

> <s_epik_Chemistry_Notes>
This compound contains an acetal/aminal-like group ( X-CH(R)-Y where X, Y are N, S, or O) that may be acid/base labile, releasing an aldehyde.

$$$$
