3llm_ligand
                    3D
 Schrodinger Suite 2020-3.
 39 41  0  0  1  0            999 V2000
   78.0760    7.5400   -1.9090 P   0  0  0  0  0  0
   78.0920    9.0020   -2.2510 O   0  5  0  0  0  0
   79.0340    7.1640   -0.8240 O   0  0  0  0  0  0
   76.6860    6.9850   -1.6990 O   0  5  0  0  0  0
   77.9650    6.0370   -4.2720 P   0  0  2  0  0  0
   76.7740    6.8690   -4.6350 O   0  0  0  0  0  0
   77.8480    4.6100   -3.8320 O   0  5  0  0  0  0
   78.7920    6.7860   -3.1280 O   0  0  0  0  0  0
   78.9300    6.0510   -5.5460 O   0  0  0  0  0  0
   80.3160    5.7990   -5.3030 C   0  0  0  0  0  0
   81.2150    5.8150   -6.5450 C   0  0  1  0  0  0
   80.8760    4.7840   -7.4840 O   0  0  0  0  0  0
   81.2090    7.1340   -7.3090 C   0  0  1  0  0  0
   82.1830    8.0630   -6.8130 O   0  0  0  0  0  0
   81.5360    6.6940   -8.7150 C   0  0  1  0  0  0
   82.9560    6.7430   -8.9170 O   0  0  0  0  0  0
   80.9800    5.2710   -8.8200 C   0  0  2  0  0  0
   79.6420    5.2860   -9.4870 N   0  0  0  0  0  0
   78.4560    5.4790   -8.8960 C   0  0  0  0  0  0
   77.4500    5.4510   -9.8040 N   0  0  0  0  0  0
   77.9920    5.2400  -11.0040 C   0  0  0  0  0  0
   77.4860    5.0950  -12.3880 C   0  0  0  0  0  0
   76.1500    5.1820  -12.6320 N   0  0  0  0  0  0
   78.3810    4.8820  -13.3880 N   0  0  0  0  0  0
   79.7050    4.8040  -13.1280 C   0  0  0  0  0  0
   80.2260    4.9300  -11.8820 N   0  0  0  0  0  0
   79.4340    5.1380  -10.7960 C   0  0  0  0  0  0
   80.7138    6.5649   -4.6210 H   0  0  0  0  0  0
   80.4335    4.8051   -4.8466 H   0  0  0  0  0  0
   82.2254    5.5941   -6.1706 H   0  0  0  0  0  0
   80.2845    7.7211   -7.2057 H   0  0  0  0  0  0
   82.0822    8.4764   -5.7986 H   0  0  0  0  0  0
   81.1522    7.3616   -9.5005 H   0  0  0  0  0  0
   83.4855    7.7059   -8.8684 H   0  0  0  0  0  0
   81.6242    4.5795   -9.3828 H   0  0  0  0  0  0
   78.3179    5.6376   -7.8265 H   0  0  0  0  0  0
   75.4494    5.3550  -11.8018 H   0  0  0  0  0  0
   75.7707    5.0793  -13.6594 H   0  0  0  0  0  0
   80.3874    4.6314  -13.9602 H   0  0  0  0  0  0
  1  2  1  0  0  0
  1  3  2  0  0  0
  1  4  1  0  0  0
  1  8  1  0  0  0
  5  6  2  0  0  0
  5  7  1  0  0  0
  5  8  1  0  0  0
  5  9  1  0  0  0
  9 10  1  0  0  0
 10 11  1  0  0  0
 10 28  1  0  0  0
 10 29  1  0  0  0
 11 12  1  0  0  0
 11 13  1  0  0  0
 11 30  1  0  0  0
 12 17  1  0  0  0
 13 14  1  0  0  0
 13 15  1  0  0  0
 13 31  1  0  0  0
 14 32  1  0  0  0
 15 16  1  0  0  0
 15 17  1  0  0  0
 15 33  1  0  0  0
 16 34  1  0  0  0
 17 18  1  0  0  0
 17 35  1  0  0  0
 18 19  1  0  0  0
 18 27  1  0  0  0
 19 20  2  0  0  0
 19 36  1  0  0  0
 20 21  1  0  0  0
 21 22  2  0  0  0
 21 27  1  0  0  0
 22 23  1  0  0  0
 22 24  1  0  0  0
 23 37  1  0  0  0
 23 38  1  0  0  0
 24 25  2  0  0  0
 25 26  1  0  0  0
 25 39  1  0  0  0
 26 27  2  0  0  0
M  CHG  3   2  -1   4  -1   7  -1
M  END
> <s_m_source_file>
../3llm_ligand.sdf

> <i_m_source_file_index>
1

> <s_epik_input>
W09IXVAoPU8pKFtPSF0pT1tQQF0oPU8pKFtPSF0pT1tDSDJdW0NASF0xT1tDQEhdKFtDQEhdKFtPSF0pW0NAQEhdMVtPSF0pbihbY0hdbjIpYyhjMjMpbltjSF1uYzNbTkgyXQ==

> <s_epik_cmdline>
J2VwaWtfYXBwJywgJy1pbWFlJywgJ2xpZ2FuZF9wcm8ubWFlJywgJy1vbWFlJywgJ2xpZ2FuZF9wcmVwLm1hZScsICctbXMnLCAnMScsICctcGgnLCAnNycsICctcGh0JywgJzAuNScsICctbnQn

> <r_lp_tautomer_probability>
0.999997216410988

> <r_epik_Ionization_Penalty>
  0.1037

> <r_epik_Ionization_Penalty_Charging>
  0.1033

> <r_epik_Ionization_Penalty_Neutral>
  0.0004

> <r_epik_State_Penalty>
  0.0922

> <r_epik_Charging_Adjusted_Penalty>
0.19546844050481

> <i_epik_Tot_Q>
-3

> <i_epik_Tot_abs_Q>
3

> <s_epik_Chemistry_Notes>
This compound contains an acetal/aminal-like group ( X-CH(R)-Y where X, Y are N, S, or O) that may be acid/base labile, releasing an aldehyde.

$$$$
