3lm1_ligand
                    3D
 Schrodinger Suite 2020-3.
 42 43  0  0  1  0            999 V2000
   30.2490  127.3070   16.2510 C   0  0  0  0  0  0
   29.6740  128.7160   16.3010 C   0  0  0  0  0  0
   30.4320  129.6900   16.1530 O   0  0  0  0  0  0
   28.3540  128.8840   16.5050 N   0  0  0  0  0  0
   27.7340  130.2050   16.5670 C   0  0  2  0  0  0
   27.3480  130.5900   18.0240 C   0  0  1  0  0  0
   28.5150  130.5730   18.8630 O   0  0  0  0  0  0
   26.7010  131.9900   18.0300 C   0  0  1  0  0  0
   27.6740  132.9150   17.5380 O   0  0  0  0  0  0
   25.4420  131.9770   17.1150 C   0  0  1  0  0  0
   24.7440  133.3600   17.0830 C   0  0  0  0  0  0
   25.4210  134.2650   16.2240 O   0  0  0  0  0  0
   25.8210  131.5710   15.7490 O   0  0  0  0  0  0
   26.4800  130.2440   15.6770 C   0  0  2  0  0  0
   25.5480  129.2440   16.0880 O   0  0  0  0  0  0
   24.3400  128.7960   15.4740 C   0  0  0  0  0  0
   24.2290  127.4540   15.0140 C   0  0  0  0  0  0
   23.0300  127.0180   14.4040 C   0  0  0  0  0  0
   21.9210  127.9180   14.2500 C   0  0  0  0  0  0
   20.7350  127.4870   13.6420 N   0  3  0  0  0  0
   19.7640  128.2750   13.5030 O   0  0  0  0  0  0
   20.6340  126.3150   13.2240 O   0  5  0  0  0  0
   22.0350  129.2560   14.7120 C   0  0  0  0  0  0
   23.2390  129.6970   15.3230 C   0  0  0  0  0  0
   31.3340  127.3597   16.0778 H   0  0  0  0  0  0
   29.7739  126.7459   15.4328 H   0  0  0  0  0  0
   30.0545  126.7975   17.2063 H   0  0  0  0  0  0
   27.7378  127.9810   16.6269 H   0  0  0  0  0  0
   28.5082  130.8859   16.1837 H   0  0  0  0  0  0
   26.6748  129.8484   18.4788 H   0  0  0  0  0  0
   29.0999  129.6479   18.9730 H   0  0  0  0  0  0
   26.4428  132.3391   19.0407 H   0  0  0  0  0  0
   28.6270  133.0464   18.0714 H   0  0  0  0  0  0
   24.7280  131.2250   17.4819 H   0  0  0  0  0  0
   23.7123  133.2417   16.7203 H   0  0  0  0  0  0
   24.7296  133.7870   18.0966 H   0  0  0  0  0  0
   25.0430  135.2902   16.0972 H   0  0  0  0  0  0
   26.7369  130.0244   14.6302 H   0  0  0  0  0  0
   25.0651  126.7646   15.1314 H   0  0  0  0  0  0
   22.9467  125.9912   14.0479 H   0  0  0  0  0  0
   21.1981  129.9449   14.5977 H   0  0  0  0  0  0
   23.3243  130.7242   15.6776 H   0  0  0  0  0  0
  1  2  1  0  0  0
  1 25  1  0  0  0
  1 26  1  0  0  0
  1 27  1  0  0  0
  2  3  2  0  0  0
  2  4  1  0  0  0
  4  5  1  0  0  0
  4 28  1  0  0  0
  5  6  1  0  0  0
  5 14  1  0  0  0
  5 29  1  0  0  0
  6  7  1  0  0  0
  6  8  1  0  0  0
  6 30  1  0  0  0
  7 31  1  0  0  0
  8  9  1  0  0  0
  8 10  1  0  0  0
  8 32  1  0  0  0
  9 33  1  0  0  0
 10 11  1  0  0  0
 10 13  1  0  0  0
 10 34  1  0  0  0
 11 12  1  0  0  0
 11 35  1  0  0  0
 11 36  1  0  0  0
 12 37  1  0  0  0
 13 14  1  0  0  0
 14 15  1  0  0  0
 14 38  1  0  0  0
 15 16  1  0  0  0
 16 17  2  0  0  0
 16 24  1  0  0  0
 17 18  1  0  0  0
 17 39  1  0  0  0
 18 19  2  0  0  0
 18 40  1  0  0  0
 19 20  1  0  0  0
 19 23  1  0  0  0
 20 21  2  0  0  0
 20 22  1  0  0  0
 23 24  2  0  0  0
 23 41  1  0  0  0
 24 42  1  0  0  0
M  CHG  2  20   1  22  -1
M  END
> <s_m_source_file>
../3lm1_ligand.sdf

> <i_m_source_file_index>
1

> <s_epik_input>
W0NIM11DKD1PKVtOSF1bQ0BASF0xW0NAQEhdKFtPSF0pW0NAQEhdKFtPSF0pW0NAQEhdKFtDSDJdW09IXSlPW0NAQEhdMU9jMltjSF1bY0hdYyhbTitdKD1PKVtPLV0pW2NIXVtjSF0y

> <s_epik_cmdline>
J2VwaWtfYXBwJywgJy1pbWFlJywgJ2xpZ2FuZF9wcm8ubWFlJywgJy1vbWFlJywgJ2xpZ2FuZF9wcmVwLm1hZScsICctbXMnLCAnMScsICctcGgnLCAnNycsICctcGh0JywgJzAuNScsICctbnQn

> <r_lp_tautomer_probability>
1

> <r_epik_Ionization_Penalty>
  0.0000

> <r_epik_Ionization_Penalty_Charging>
  0.0000

> <r_epik_Ionization_Penalty_Neutral>
  0.0000

> <r_epik_State_Penalty>
 -0.0000

> <r_epik_Charging_Adjusted_Penalty>
0

> <i_epik_Tot_Q>
0

> <i_epik_Tot_abs_Q>
2

> <s_epik_Chemistry_Notes>
This compound contains an acetal/aminal-like group ( X-CH(R)-Y where X, Y are N, S, or O) that may be acid/base labile, releasing an aldehyde.

$$$$
