3lmp_ligand
                    3D
 Schrodinger Suite 2020-3.
 58 62  0  0  1  0            999 V2000
   15.2380   51.2990   66.9070 C   0  0  0  0  0  0
   16.1160   51.2530   65.6560 C   0  0  0  0  0  0
   17.2390   51.7540   65.6560 O   0  0  0  0  0  0
   15.5580   50.5930   64.4030 C   0  0  0  0  0  0
   14.6580   49.3320   64.5750 C   0  0  0  0  0  0
   14.6510   48.3690   63.3260 C   0  0  2  0  0  0
   14.7470   49.2040   62.0370 C   0  0  0  0  0  0
   15.2970   50.4520   62.0030 C   0  0  0  0  0  0
   15.8010   51.0400   63.1300 C   0  0  0  0  0  0
   14.2220   48.5820   60.9340 O   0  0  0  0  0  0
   13.2080   47.8180   61.5070 C   0  0  0  0  0  0
   13.3760   47.6470   62.8830 C   0  0  0  0  0  0
   12.1030   47.2470   60.8360 C   0  0  0  0  0  0
   11.1650   46.4950   61.5950 C   0  0  0  0  0  0
   11.3580   46.3380   62.9860 C   0  0  0  0  0  0
   12.4550   46.9100   63.6240 C   0  0  0  0  0  0
   15.8420   47.3840   63.4340 C   0  0  0  0  0  0
   14.0110   49.0930   65.5930 O   0  0  0  0  0  0
   16.5890   52.1440   62.9430 O   0  5  0  0  0  0
   12.6070   46.7340   64.9740 O   0  0  0  0  0  0
   10.0770   45.9370   60.9140 O   0  0  0  0  0  0
    9.1190   45.0120   61.4890 C   0  0  0  0  0  0
   11.9920   47.4800   59.3280 C   0  0  0  0  0  0
   12.9970   47.7110   58.6580 O   0  0  0  0  0  0
   10.8290   47.4120   58.6520 N   0  0  0  0  0  0
   10.4680   48.2180   57.4680 C   0  0  0  0  0  0
    8.9520   48.5290   57.3970 C   0  0  0  0  0  0
    7.9170   47.5620   57.5500 C   0  0  0  0  0  0
    6.5400   47.9910   57.4640 C   0  0  0  0  0  0
    6.2490   49.3350   57.2340 C   0  0  0  0  0  0
    7.2760   50.2650   57.0870 C   0  0  0  0  0  0
    8.6080   49.8690   57.1680 C   0  0  0  0  0  0
    5.5070   47.0510   57.6130 C   0  0  0  0  0  0
    5.8090   45.7110   57.8430 C   0  0  0  0  0  0
    7.1330   45.2880   57.9270 C   0  0  0  0  0  0
    8.1760   46.2010   57.7840 C   0  0  0  0  0  0
   15.7821   51.8045   67.7184 H   0  0  0  0  0  0
   14.9871   50.2738   67.2168 H   0  0  0  0  0  0
   14.3131   51.8519   66.6857 H   0  0  0  0  0  0
   15.3419   51.0076   61.0547 H   0  0  0  0  0  0
   10.6383   45.7614   63.5671 H   0  0  0  0  0  0
   16.7418   47.9303   63.7534 H   0  0  0  0  0  0
   16.0237   46.9195   62.4536 H   0  0  0  0  0  0
   15.6061   46.6029   64.1717 H   0  0  0  0  0  0
   13.4684   47.1795   65.4932 H   0  0  0  0  0  0
    8.3727   44.7374   60.7289 H   0  0  0  0  0  0
    8.6149   45.4895   62.3421 H   0  0  0  0  0  0
    9.6429   44.1076   61.8320 H   0  0  0  0  0  0
   10.1168   46.6768   59.0548 H   0  0  0  0  0  0
   11.0077   49.1760   57.4982 H   0  0  0  0  0  0
   10.7431   47.6709   56.5542 H   0  0  0  0  0  0
    5.2108   49.6604   57.1687 H   0  0  0  0  0  0
    7.0341   51.3125   56.9069 H   0  0  0  0  0  0
    9.3964   50.6126   57.0515 H   0  0  0  0  0  0
    4.4670   47.3709   57.5485 H   0  0  0  0  0  0
    5.0021   44.9873   57.9582 H   0  0  0  0  0  0
    7.3550   44.2359   58.1058 H   0  0  0  0  0  0
    9.2070   45.8545   57.8547 H   0  0  0  0  0  0
  1  2  1  0  0  0
  1 37  1  0  0  0
  1 38  1  0  0  0
  1 39  1  0  0  0
  2  3  2  0  0  0
  2  4  1  0  0  0
  4  5  1  0  0  0
  4  9  2  0  0  0
  5  6  1  0  0  0
  5 18  2  0  0  0
  6  7  1  0  0  0
  6 12  1  0  0  0
  6 17  1  0  0  0
  7  8  2  0  0  0
  7 10  1  0  0  0
  8  9  1  0  0  0
  8 40  1  0  0  0
  9 19  1  0  0  0
 10 11  1  0  0  0
 11 12  2  0  0  0
 11 13  1  0  0  0
 12 16  1  0  0  0
 13 14  2  0  0  0
 13 23  1  0  0  0
 14 15  1  0  0  0
 14 21  1  0  0  0
 15 16  2  0  0  0
 15 41  1  0  0  0
 16 20  1  0  0  0
 17 42  1  0  0  0
 17 43  1  0  0  0
 17 44  1  0  0  0
 20 45  1  0  0  0
 21 22  1  0  0  0
 22 46  1  0  0  0
 22 47  1  0  0  0
 22 48  1  0  0  0
 23 24  2  0  0  0
 23 25  1  0  0  0
 25 26  1  0  0  0
 25 49  1  0  0  0
 26 27  1  0  0  0
 26 50  1  0  0  0
 26 51  1  0  0  0
 27 28  2  0  0  0
 27 32  1  0  0  0
 28 29  1  0  0  0
 28 36  1  0  0  0
 29 30  2  0  0  0
 29 33  1  0  0  0
 30 31  1  0  0  0
 30 52  1  0  0  0
 31 32  2  0  0  0
 31 53  1  0  0  0
 32 54  1  0  0  0
 33 34  2  0  0  0
 33 55  1  0  0  0
 34 35  1  0  0  0
 34 56  1  0  0  0
 35 36  2  0  0  0
 35 57  1  0  0  0
 36 58  1  0  0  0
M  CHG  1  19  -1
M  END
> <s_m_source_file>
../3lmp_ligand.sdf

> <i_m_source_file_index>
1

> <s_epik_input>
W0NIM11DKD1PKUMoQzE9Tyk9QyhbT0hdKVtDSF09QyhbQ0BAXTEyW0NIM10pT2MzYzJjKFtPSF0pW2NIXWMoT1tDSDNdKWMzQyg9TylbTkhdW0NIMl1jNFtjSF1bY0hdW2NIXWMoYzQ1KVtjSF1bY0hdW2NIXVtjSF01

> <s_epik_cmdline>
J2VwaWtfYXBwJywgJy1pbWFlJywgJ2xpZ2FuZF9wcm8ubWFlJywgJy1vbWFlJywgJ2xpZ2FuZF9wcmVwLm1hZScsICctbXMnLCAnMScsICctcGgnLCAnNycsICctcGh0JywgJzAuNScsICctbnQn

> <r_epik_Ionization_Penalty>
  0.4220

> <r_epik_Ionization_Penalty_Charging>
  0.3886

> <r_epik_Ionization_Penalty_Neutral>
  0.0334

> <r_epik_State_Penalty>
  0.3871

> <r_epik_Charging_Adjusted_Penalty>
0.775710489452599

> <i_epik_Tot_Q>
-1

> <i_epik_Tot_abs_Q>
1

$$$$
