3lnj_ligand
                    3D
 Schrodinger Suite 2020-3.
210212  0  0  1  0            999 V2000
    2.2580  -52.1520    6.3310 N   0  3  0  0  0  0
    2.6410  -50.7360    6.2880 C   0  0  1  0  0  0
    1.5800  -50.0400    5.4310 C   0  0  1  0  0  0
    1.6800  -48.8050    5.2450 O   0  0  0  0  0  0
    2.6420  -50.1960    7.7330 C   0  0  0  0  0  0
    3.6050  -50.9480    8.7070 C   0  0  0  0  0  0
    4.4830  -50.3150    9.3050 O   0  0  0  0  0  0
    3.3690  -52.2790    8.9040 N   0  0  0  0  0  0
    1.8870  -50.7360    4.2210 N   0  3  0  0  0  0
    2.1150  -50.2440    2.8330 C   0  0  2  0  0  0
    2.5750  -51.3650    1.8280 C   0  0  0  0  0  0
    4.0750  -51.7170    1.9110 C   0  0  0  0  0  0
    4.5640  -52.7240    2.6580 C   0  0  0  0  0  0
    5.8920  -52.7970    2.5290 N   0  0  0  0  0  0
    6.3140  -51.8380    1.6850 C   0  0  0  0  0  0
    7.5930  -51.4760    1.2320 C   0  0  0  0  0  0
    7.7440  -50.4220    0.3170 C   0  0  0  0  0  0
    6.6080  -49.7190   -0.1300 C   0  0  0  0  0  0
    5.3280  -50.0740    0.3320 C   0  0  0  0  0  0
    5.1680  -51.1410    1.2460 C   0  0  0  0  0  0
    3.1140  -49.0400    2.8290 C   0  0  0  0  0  0
    3.1920  -48.4480    1.7010 O   0  0  0  0  0  0
    4.0870  -48.9660    3.6870 N   0  0  0  0  0  0
    5.2060  -48.0990    3.1880 C   0  0  1  0  0  0
    5.0590  -46.6730    3.7320 C   0  0  2  0  0  0
    6.1150  -46.0640    4.0590 O   0  0  0  0  0  0
    6.6190  -48.6850    3.4940 C   0  0  0  0  0  0
    6.6940  -49.2390    4.9290 C   0  0  0  0  0  0
    6.5040  -50.6080    5.1520 C   0  0  0  0  0  0
    6.9910  -48.4000    5.9880 C   0  0  0  0  0  0
    6.5330  -51.1310    6.4270 C   0  0  0  0  0  0
    7.0430  -48.9460    7.2730 C   0  0  0  0  0  0
    6.8200  -50.2890    7.4750 C   0  0  0  0  0  0
    6.8940  -50.8020    8.7160 O   0  0  0  0  0  0
    4.1770  -46.5990    4.6320 N   0  3  0  0  0  0
    3.8870  -45.4190    5.5040 C   0  0  2  0  0  0
    2.5540  -45.5530    6.2510 C   0  0  0  0  0  0
    3.7610  -44.1830    4.6600 C   0  0  0  0  0  0
    4.3340  -43.2310    5.1800 O   0  0  0  0  0  0
    3.2830  -43.9000    3.5180 N   0  0  0  0  0  0
    3.4890  -42.8310    2.5300 C   0  0  1  0  0  0
    4.9770  -42.7280    2.1440 C   0  0  0  0  0  0
    5.4510  -41.5690    2.3200 O   0  0  0  0  0  0
    2.6150  -42.8980    1.2280 C   0  0  0  0  0  0
    2.3890  -41.4330    0.8000 C   0  0  0  0  0  0
    2.5690  -41.0450   -0.3760 O   0  0  0  0  0  0
    2.0760  -40.6310    1.8440 N   0  0  0  0  0  0
    5.5140  -43.8080    1.7030 N   0  0  0  0  0  0
    6.9770  -43.8700    1.3700 C   0  0  2  0  0  0
    7.4670  -45.2920    1.2260 C   0  0  0  0  0  0
    8.3490  -45.5140   -0.0240 C   0  0  0  0  0  0
    9.2240  -44.3920   -0.5010 C   0  0  0  0  0  0
    9.1980  -46.7740    0.1120 C   0  0  0  0  0  0
    7.8340  -43.2400    2.5270 C   0  0  0  0  0  0
    8.5740  -42.2880    2.1840 O   0  0  0  0  0  0
    7.7780  -43.6820    3.7200 N   0  0  0  0  0  0
    8.5390  -43.0730    4.8740 C   0  0  1  0  0  0
    8.1510  -41.6000    5.0970 C   0  0  0  0  0  0
    9.1440  -40.8600    5.1000 O   0  0  0  0  0  0
    8.2620  -43.7630    6.2090 C   0  0  0  0  0  0
    8.8550  -45.1200    6.0740 C   0  0  0  0  0  0
   10.0430  -45.2970    7.0290 C   0  0  0  0  0  0
    9.8320  -46.1240    7.9710 O   0  0  0  0  0  0
   11.1300  -44.7110    6.7480 O   0  0  0  0  0  0
    7.0050  -41.1450    4.8230 N   0  0  0  0  0  0
    6.5560  -39.7850    5.1030 C   0  0  1  0  0  0
    7.1100  -38.9570    3.9610 C   0  0  0  0  0  0
    8.0830  -38.3020    4.3350 O   0  0  0  0  0  0
    4.9920  -39.6230    5.3140 C   0  0  0  0  0  0
    4.5820  -38.1490    5.4810 C   0  0  0  0  0  0
    3.0740  -37.8740    5.8380 C   0  0  0  0  0  0
    2.3150  -39.0120    6.6460 C   0  0  0  0  0  0
    1.9240  -38.5820    8.0330 N   0  3  0  0  0  0
    7.2650  -39.4490    2.7780 N   0  0  0  0  0  0
    8.0010  -38.7720    1.6680 C   0  0  2  0  0  0
    7.7400  -39.3080    0.2290 C   0  0  0  0  0  0
    6.2320  -39.4920   -0.0690 C   0  0  0  0  0  0
    5.4050  -38.2050    0.1460 C   0  0  0  0  0  0
    5.9780  -40.0890   -1.4700 C   0  0  0  0  0  0
    9.5140  -38.8810    1.9410 C   0  0  0  0  0  0
   10.2140  -37.9280    1.5710 O   0  0  0  0  0  0
    9.9760  -39.9640    2.4040 N   0  0  0  0  0  0
   11.4310  -40.0640    2.4430 C   0  0  2  0  0  0
   11.8180  -41.4920    2.8640 C   0  0  0  0  0  0
   11.9200  -42.5020    1.6980 C   0  0  0  0  0  0
   13.2140  -42.3640    0.8550 C   0  0  0  0  0  0
   11.8190  -43.8640    2.3030 C   0  0  0  0  0  0
   11.9690  -38.9820    3.4840 C   0  0  0  0  0  0
   12.9730  -38.3130    3.1110 O   0  0  0  0  0  0
   11.2660  -38.7420    4.5470 N   0  0  0  0  0  0
   11.4850  -37.8190    5.6990 C   0  0  2  0  0  0
   10.4090  -37.9480    6.7680 C   0  0  0  0  0  0
   10.6590  -39.1310    7.6860 C   0  0  0  0  0  0
    9.4150  -39.3140    8.5510 C   0  0  0  0  0  0
    9.7070  -39.8770    9.8910 N   0  0  0  0  0  0
   10.3100  -39.2270   10.9260 C   0  0  0  0  0  0
   10.8220  -37.9870   10.8150 N   0  0  0  0  0  0
   10.4060  -39.8710   12.1020 N   0  0  0  0  0  0
   11.4690  -36.3650    5.2230 C   0  0  0  0  0  0
   12.1840  -35.5440    5.7520 O   0  0  0  0  0  0
   10.8000  -35.9080    4.3040 O   0  0  0  0  0  0
    2.2500  -52.5608    5.3098 H   0  0  0  0  0  0
    1.2548  -52.2472    6.7720 H   0  0  0  0  0  0
    2.9822  -52.7093    6.9434 H   0  0  0  0  0  0
    3.6423  -50.6111    5.8501 H   0  0  0  0  0  0
    0.5526  -49.9301    5.8082 H   0  0  0  0  0  0
    1.4793  -48.1064    6.0707 H   0  0  0  0  0  0
    2.9517  -49.1405    7.7298 H   0  0  0  0  0  0
    1.6303  -50.2799    8.1565 H   0  0  0  0  0  0
    2.5719  -52.7856    8.3401 H   0  0  0  0  0  0
    3.9761  -52.8442    9.6265 H   0  0  0  0  0  0
    2.8352  -51.2804    4.3416 H   0  0  0  0  0  0
    1.0810  -51.4493    3.9936 H   0  0  0  0  0  0
    1.1130  -49.9111    2.5245 H   0  0  0  0  0  0
    2.0161  -52.2906    2.0303 H   0  0  0  0  0  0
    2.3787  -51.0361    0.7969 H   0  0  0  0  0  0
    3.9620  -53.3863    3.2802 H   0  0  0  0  0  0
    8.4700  -52.0143    1.5914 H   0  0  0  0  0  0
    8.7350  -50.1490   -0.0456 H   0  0  0  0  0  0
    6.7215  -48.8968   -0.8366 H   0  0  0  0  0  0
    4.4542  -49.5234   -0.0165 H   0  0  0  0  0  0
    4.1610  -49.4455    4.6742 H   0  0  0  0  0  0
    5.0869  -48.0771    2.0947 H   0  0  0  0  0  0
    4.7256  -45.9013    3.0226 H   0  0  0  0  0  0
    6.9731  -46.0428    3.3711 H   0  0  0  0  0  0
    6.8372  -49.5022    2.7908 H   0  0  0  0  0  0
    7.3757  -47.8943    3.3834 H   0  0  0  0  0  0
    6.3304  -51.2707    4.3041 H   0  0  0  0  0  0
    7.1798  -47.3391    5.8240 H   0  0  0  0  0  0
    6.3329  -52.1884    6.6003 H   0  0  0  0  0  0
    7.2625  -48.3017    8.1243 H   0  0  0  0  0  0
    6.7160  -51.8752    8.8790 H   0  0  0  0  0  0
    3.1845  -46.7636    4.1871 H   0  0  0  0  0  0
    4.3680  -47.3665    5.3965 H   0  0  0  0  0  0
    4.7328  -45.3626    6.2051 H   0  0  0  0  0  0
    2.5812  -46.4464    6.8922 H   0  0  0  0  0  0
    1.7342  -45.6483    5.5238 H   0  0  0  0  0  0
    2.3908  -44.6603    6.8727 H   0  0  0  0  0  0
    2.5581  -44.7025    3.3169 H   0  0  0  0  0  0
    3.1471  -41.9655    3.1165 H   0  0  0  0  0  0
    3.1544  -43.4622    0.4529 H   0  0  0  0  0  0
    1.6624  -43.4007    1.4513 H   0  0  0  0  0  0
    1.9360  -41.0623    2.8462 H   0  0  0  0  0  0
    1.9615  -39.5478    1.6905 H   0  0  0  0  0  0
    4.8816  -44.6982    1.5705 H   0  0  0  0  0  0
    7.0601  -43.3471    0.4058 H   0  0  0  0  0  0
    8.0677  -45.5637    2.1065 H   0  0  0  0  0  0
    6.6049  -45.9706    1.1466 H   0  0  0  0  0  0
    7.6032  -45.5884   -0.8291 H   0  0  0  0  0  0
    8.6230  -43.4764   -0.6033 H   0  0  0  0  0  0
    9.6594  -44.6557   -1.4761 H   0  0  0  0  0  0
   10.0310  -44.2215    0.2268 H   0  0  0  0  0  0
    8.5676  -47.6049    0.4614 H   0  0  0  0  0  0
   10.0051  -46.5957    0.8378 H   0  0  0  0  0  0
    9.6335  -47.0299   -0.8652 H   0  0  0  0  0  0
    7.1316  -44.5561    3.8876 H   0  0  0  0  0  0
    9.5901  -43.2013    4.5762 H   0  0  0  0  0  0
    8.7358  -43.1928    7.0217 H   0  0  0  0  0  0
    7.1762  -43.8104    6.3789 H   0  0  0  0  0  0
    8.0943  -45.8779    6.3123 H   0  0  0  0  0  0
    9.2067  -45.2655    5.0420 H   0  0  0  0  0  0
   10.6190  -46.3254    8.7126 H   0  0  0  0  0  0
    6.3244  -41.8599    4.3374 H   0  0  0  0  0  0
    7.0016  -39.4911    6.0648 H   0  0  0  0  0  0
    4.4602  -40.0305    4.4416 H   0  0  0  0  0  0
    4.6855  -40.1692    6.2183 H   0  0  0  0  0  0
    5.1698  -37.6946    6.2921 H   0  0  0  0  0  0
    4.7716  -37.6071    4.5427 H   0  0  0  0  0  0
    3.0034  -36.9684    6.4584 H   0  0  0  0  0  0
    2.4983  -37.7297    4.9118 H   0  0  0  0  0  0
    1.3960  -39.2915    6.1100 H   0  0  0  0  0  0
    2.9674  -39.8928    6.7393 H   0  0  0  0  0  0
    1.4046  -39.4084    8.5403 H   0  0  0  0  0  0
    1.2550  -37.7110    7.9719 H   0  0  0  0  0  0
    2.8264  -38.3122    8.6013 H   0  0  0  0  0  0
    6.8096  -40.4368    2.6139 H   0  0  0  0  0  0
    7.6013  -37.7481    1.7114 H   0  0  0  0  0  0
    8.1469  -38.5980   -0.5061 H   0  0  0  0  0  0
    8.2315  -40.2844    0.1066 H   0  0  0  0  0  0
    5.8754  -40.2219    0.6726 H   0  0  0  0  0  0
    5.6061  -37.8034    1.1501 H   0  0  0  0  0  0
    4.3340  -38.4374    0.0517 H   0  0  0  0  0  0
    5.6861  -37.4578   -0.6108 H   0  0  0  0  0  0
    6.5788  -41.0021   -1.5939 H   0  0  0  0  0  0
    6.2632  -39.3553   -2.2384 H   0  0  0  0  0  0
    4.9111  -40.3349   -1.5758 H   0  0  0  0  0  0
    9.3574  -40.7994    2.7638 H   0  0  0  0  0  0
   11.8100  -39.8881    1.4254 H   0  0  0  0  0  0
   12.8008  -41.4750    3.3577 H   0  0  0  0  0  0
   11.0640  -41.8857    3.5615 H   0  0  0  0  0  0
   11.0913  -42.3395    0.9931 H   0  0  0  0  0  0
   13.2635  -41.3541    0.4219 H   0  0  0  0  0  0
   13.2061  -43.1098    0.0464 H   0  0  0  0  0  0
   14.0904  -42.5303    1.4987 H   0  0  0  0  0  0
   10.8942  -43.9348    2.8944 H   0  0  0  0  0  0
   12.6863  -44.0403    2.9562 H   0  0  0  0  0  0
   11.8021  -44.6198    1.5039 H   0  0  0  0  0  0
   10.3662  -39.3738    4.5118 H   0  0  0  0  0  0
   12.4589  -38.1176    6.1142 H   0  0  0  0  0  0
   10.3902  -37.0351    7.3813 H   0  0  0  0  0  0
    9.4294  -38.0870    6.2873 H   0  0  0  0  0  0
   10.8420  -40.0318    7.0817 H   0  0  0  0  0  0
   11.5376  -38.9272    8.3157 H   0  0  0  0  0  0
    8.9265  -38.3400    8.7014 H   0  0  0  0  0  0
    8.7172  -40.0006    8.0493 H   0  0  0  0  0  0
    9.4301  -40.9159   10.1233 H   0  0  0  0  0  0
   10.7517  -37.4464    9.8596 H   0  0  0  0  0  0
   11.3107  -37.5143   11.6797 H   0  0  0  0  0  0
    9.9928  -40.8848   12.2093 H   0  0  0  0  0  0
   10.8710  -34.8400    4.0502 H   0  0  0  0  0  0
  1  2  1  0  0  0
  1102  1  0  0  0
  1103  1  0  0  0
  1104  1  0  0  0
  2  3  1  0  0  0
  2  5  1  0  0  0
  2105  1  0  0  0
  3  4  1  0  0  0
  3  9  1  0  0  0
  3106  1  0  0  0
  4107  1  0  0  0
  5  6  1  0  0  0
  5108  1  0  0  0
  5109  1  0  0  0
  6  7  2  0  0  0
  6  8  1  0  0  0
  8110  1  0  0  0
  8111  1  0  0  0
  9 10  1  0  0  0
  9112  1  0  0  0
  9113  1  0  0  0
 10 11  1  0  0  0
 10 21  1  0  0  0
 10114  1  0  0  0
 11 12  1  0  0  0
 11115  1  0  0  0
 11116  1  0  0  0
 12 13  2  0  0  0
 12 20  1  0  0  0
 13 14  1  0  0  0
 13117  1  0  0  0
 14 15  1  0  0  0
 15 16  1  0  0  0
 15 20  2  0  0  0
 16 17  2  0  0  0
 16118  1  0  0  0
 17 18  1  0  0  0
 17119  1  0  0  0
 18 19  2  0  0  0
 18120  1  0  0  0
 19 20  1  0  0  0
 19121  1  0  0  0
 21 22  2  0  0  0
 21 23  1  0  0  0
 23 24  1  0  0  0
 23122  1  0  0  0
 24 25  1  0  0  0
 24 27  1  0  0  0
 24123  1  0  0  0
 25 26  1  0  0  0
 25 35  1  0  0  0
 25124  1  0  0  0
 26125  1  0  0  0
 27 28  1  0  0  0
 27126  1  0  0  0
 27127  1  0  0  0
 28 29  2  0  0  0
 28 30  1  0  0  0
 29 31  1  0  0  0
 29128  1  0  0  0
 30 32  2  0  0  0
 30129  1  0  0  0
 31 33  2  0  0  0
 31130  1  0  0  0
 32 33  1  0  0  0
 32131  1  0  0  0
 33 34  1  0  0  0
 34132  1  0  0  0
 35 36  1  0  0  0
 35133  1  0  0  0
 35134  1  0  0  0
 36 37  1  0  0  0
 36 38  1  0  0  0
 36135  1  0  0  0
 37136  1  0  0  0
 37137  1  0  0  0
 37138  1  0  0  0
 38 39  2  0  0  0
 38 40  1  0  0  0
 40 41  1  0  0  0
 40139  1  0  0  0
 41 42  1  0  0  0
 41 44  1  0  0  0
 41140  1  0  0  0
 42 43  2  0  0  0
 42 48  1  0  0  0
 44 45  1  0  0  0
 44141  1  0  0  0
 44142  1  0  0  0
 45 46  2  0  0  0
 45 47  1  0  0  0
 47143  1  0  0  0
 47144  1  0  0  0
 48 49  1  0  0  0
 48145  1  0  0  0
 49 50  1  0  0  0
 49 54  1  0  0  0
 49146  1  0  0  0
 50 51  1  0  0  0
 50147  1  0  0  0
 50148  1  0  0  0
 51 52  1  0  0  0
 51 53  1  0  0  0
 51149  1  0  0  0
 52150  1  0  0  0
 52151  1  0  0  0
 52152  1  0  0  0
 53153  1  0  0  0
 53154  1  0  0  0
 53155  1  0  0  0
 54 55  2  0  0  0
 54 56  1  0  0  0
 56 57  1  0  0  0
 56156  1  0  0  0
 57 58  1  0  0  0
 57 60  1  0  0  0
 57157  1  0  0  0
 58 59  2  0  0  0
 58 65  1  0  0  0
 60 61  1  0  0  0
 60158  1  0  0  0
 60159  1  0  0  0
 61 62  1  0  0  0
 61160  1  0  0  0
 61161  1  0  0  0
 62 63  1  0  0  0
 62 64  2  0  0  0
 63162  1  0  0  0
 65 66  1  0  0  0
 65163  1  0  0  0
 66 67  1  0  0  0
 66 69  1  0  0  0
 66164  1  0  0  0
 67 68  2  0  0  0
 67 74  1  0  0  0
 69 70  1  0  0  0
 69165  1  0  0  0
 69166  1  0  0  0
 70 71  1  0  0  0
 70167  1  0  0  0
 70168  1  0  0  0
 71 72  1  0  0  0
 71169  1  0  0  0
 71170  1  0  0  0
 72 73  1  0  0  0
 72171  1  0  0  0
 72172  1  0  0  0
 73173  1  0  0  0
 73174  1  0  0  0
 73175  1  0  0  0
 74 75  1  0  0  0
 74176  1  0  0  0
 75 76  1  0  0  0
 75 80  1  0  0  0
 75177  1  0  0  0
 76 77  1  0  0  0
 76178  1  0  0  0
 76179  1  0  0  0
 77 78  1  0  0  0
 77 79  1  0  0  0
 77180  1  0  0  0
 78181  1  0  0  0
 78182  1  0  0  0
 78183  1  0  0  0
 79184  1  0  0  0
 79185  1  0  0  0
 79186  1  0  0  0
 80 81  2  0  0  0
 80 82  1  0  0  0
 82 83  1  0  0  0
 82187  1  0  0  0
 83 84  1  0  0  0
 83 88  1  0  0  0
 83188  1  0  0  0
 84 85  1  0  0  0
 84189  1  0  0  0
 84190  1  0  0  0
 85 86  1  0  0  0
 85 87  1  0  0  0
 85191  1  0  0  0
 86192  1  0  0  0
 86193  1  0  0  0
 86194  1  0  0  0
 87195  1  0  0  0
 87196  1  0  0  0
 87197  1  0  0  0
 88 89  2  0  0  0
 88 90  1  0  0  0
 90 91  1  0  0  0
 90198  1  0  0  0
 91 92  1  0  0  0
 91 99  1  0  0  0
 91199  1  0  0  0
 92 93  1  0  0  0
 92200  1  0  0  0
 92201  1  0  0  0
 93 94  1  0  0  0
 93202  1  0  0  0
 93203  1  0  0  0
 94 95  1  0  0  0
 94204  1  0  0  0
 94205  1  0  0  0
 95 96  1  0  0  0
 95206  1  0  0  0
 96 97  1  0  0  0
 96 98  2  0  0  0
 97207  1  0  0  0
 97208  1  0  0  0
 98209  1  0  0  0
 99100  2  0  0  0
 99101  1  0  0  0
101210  1  0  0  0
M  CHG  4   1   1   9   1  35   1  73   1
M  END
> <s_m_source_file>
../3lnj_ligand.sdf

> <i_m_source_file_index>
1

> <s_epik_input>
W2NIXTFbY0hdW2NIXVtjSF1jKGMxMiljKFtjSF1bbkhdMilbQ0gyXVtDQEBIXShbTkgyK11bQ0BIXShbT0hdKVtDQEhdKFtOSDMrXSlbQ0gyXUMoPU8pW05IMl0pQyg9TylbTkhdW0NASF0oW0NIMl1jM1tjSF1bY0hdYyhbT0hdKVtjSF1bY0hdMylbQ0BIXShbT0hdKVtOSDIrXVtDQEhdKFtDSDNdKUMoPU8pW05IXVtDQEhdKFtDSDJdQyg9TylbTkgyXSlDKD1PKVtOSF1bQ0BIXShbQ0gyXVtDSF0oW0NIM10pW0NIM10pQyg9TylbTkhdW0NASF0oW0NIMl1bQ0gyXUMoPU8pW09IXSlDKD1PKVtOSF1bQ0BIXShbQ0gyXVtDSDJdW0NIMl1bQ0gyXVtOSDMrXSlDKD1PKVtOSF1bQ0BIXShbQ0gyXVtDSF0oW0NIM10pW0NIM10pQyg9TylbTkhdW0NASF0oW0NIMl1bQ0hdKFtDSDNdKVtDSDNdKUMoPU8pW05IXVtDQEBIXShDKD1PKVtPSF0pW0NIMl1bQ0gyXVtDSDJdW05IXS9DKFtOSDJdKT1OXFtIXQ==

> <s_epik_cmdline>
J2VwaWtfYXBwJywgJy1pbWFlJywgJ2xpZ2FuZF9wcm8ubWFlJywgJy1vbWFlJywgJ2xpZ2FuZF9wcmVwLm1hZScsICctbXMnLCAnMScsICctcGgnLCAnNycsICctcGh0JywgJzAuNScsICctbnQn

> <s_epik_pKa_notes>
Molecule size exceeds maximum supported for generating protonation states

> <s_epik_Chemistry_Notes>
This compound has an imine and may undergo hydrolysis. This compound contains an acetal/aminal-like group ( X-CH(R)-Y where X, Y are N, S, or O) that may be acid/base labile, releasing an aldehyde.

$$$$
