3lnk_ligand
                    3D
 Schrodinger Suite 2020-3.
 88 91  0  0  1  0            999 V2000
   18.4900   13.3590   25.2480 C   0  0  0  0  0  0
   26.8380   10.8410   18.9120 F   0  0  0  0  0  0
   18.9890   12.1110   25.4530 N   0  0  0  0  0  0
   18.7770   14.0810   24.2960 O   0  0  0  0  0  0
   26.8970   14.3080   23.5050 C   0  0  0  0  0  0
   22.9970   13.3960   18.3660 F   0  0  0  0  0  0
   23.5040   11.7310   23.2950 N   0  0  0  0  0  0
   29.0280   13.7420   24.1420 O   0  0  0  0  0  0
   28.2720   13.8600   23.1470 C   0  0  0  0  0  0
   20.8220    9.9890   26.3000 N   0  3  0  0  0  0
   22.2150   13.5840   23.2130 O   0  0  0  0  0  0
   23.3010   13.0360   23.3900 C   0  0  0  0  0  0
   28.6280   13.5430   21.8730 N   0  0  0  0  0  0
   20.9410    8.9940   23.6350 O   0  0  0  0  0  0
   21.1780   10.8440   25.1400 C   0  0  1  0  0  0
   22.4520   10.7620   22.9250 C   0  0  2  0  0  0
   24.4740   13.8830   23.7000 C   0  0  0  0  0  0
   21.9070    9.9500   24.1180 C   0  0  2  0  0  0
   19.9420   11.5450   24.4770 C   0  0  0  0  0  0
   25.7670   13.4920   23.2220 C   0  0  0  0  0  0
   23.6990   10.6490   20.6760 C   0  0  0  0  0  0
   23.0310    9.8550   21.8090 C   0  0  0  0  0  0
   26.7270   15.5280   24.2230 C   0  0  0  0  0  0
   24.3090   15.1110   24.4430 C   0  0  0  0  0  0
   17.5390   13.9210   26.2380 C   0  0  0  0  0  0
   24.9680   12.1010   18.5590 C   0  0  0  0  0  0
   25.6270   11.0870   19.2590 C   0  0  0  0  0  0
   23.6460   12.4000   18.9710 C   0  0  0  0  0  0
   25.4670   15.9380   24.6970 C   0  0  0  0  0  0
   25.0450   10.3560   20.3280 C   0  0  0  0  0  0
   22.9880   11.6850   19.9960 C   0  0  0  0  0  0
   18.6520   11.1650   26.5710 C   0  0  0  0  0  0
   19.9690   10.6970   27.2830 C   0  0  0  0  0  0
   29.9450   12.9110   21.6220 C   0  0  0  0  0  0
   27.7720   13.9130   20.6930 C   0  0  0  0  0  0
   18.0740   14.6240   27.3720 C   0  0  0  0  0  0
   16.1270   13.7510   26.0570 C   0  0  0  0  0  0
   25.3310   17.2760   25.4790 C   0  0  0  0  0  0
   29.8600   11.4460   21.1230 C   0  0  0  0  0  0
   28.4620   14.9440   19.7640 C   0  0  0  0  0  0
   28.9420   10.5950   22.0150 C   0  0  0  0  0  0
   28.9060   16.2260   20.5150 C   0  0  0  0  0  0
   15.2220   14.2920   27.0130 C   0  0  0  0  0  0
   17.1700   15.1640   28.3300 C   0  0  0  0  0  0
   15.7550   14.9850   28.1420 C   0  0  0  0  0  0
   24.5241   11.3800   23.5098 H   0  0  0  0  0  0
   20.2716    9.1040   25.9480 H   0  0  0  0  0  0
   21.7398    9.6690   26.8151 H   0  0  0  0  0  0
   20.4370    8.3171   24.3405 H   0  0  0  0  0  0
   21.8302   11.6360   25.5368 H   0  0  0  0  0  0
   21.5947   11.3541   22.5721 H   0  0  0  0  0  0
   22.7388    9.4075   24.5911 H   0  0  0  0  0  0
   19.4303   10.7925   23.8589 H   0  0  0  0  0  0
   20.3272   12.3487   23.8322 H   0  0  0  0  0  0
   25.8839   12.5747   22.6450 H   0  0  0  0  0  0
   23.7893    9.1838   22.2386 H   0  0  0  0  0  0
   22.2212    9.2571   21.3654 H   0  0  0  0  0  0
   27.5956   16.1595   24.4096 H   0  0  0  0  0  0
   23.3258   15.4095   24.8067 H   0  0  0  0  0  0
   25.4467   12.6347   17.7379 H   0  0  0  0  0  0
   25.6122    9.5950   20.8641 H   0  0  0  0  0  0
   21.9575   11.9191   20.2631 H   0  0  0  0  0  0
   18.0048   11.6746   27.3000 H   0  0  0  0  0  0
   18.1265   10.2886   26.1639 H   0  0  0  0  0  0
   19.7218   10.0165   28.1112 H   0  0  0  0  0  0
   20.5097   11.5709   27.6754 H   0  0  0  0  0  0
   30.4859   13.4833   20.8540 H   0  0  0  0  0  0
   30.5308   12.9020   22.5530 H   0  0  0  0  0  0
   27.5559   13.0121   20.1000 H   0  0  0  0  0  0
   26.8285   14.3532   21.0481 H   0  0  0  0  0  0
   19.1506   14.7413   27.4959 H   0  0  0  0  0  0
   15.7479   13.2094   25.1904 H   0  0  0  0  0  0
   26.3189   17.7520   25.5658 H   0  0  0  0  0  0
   24.9315   17.0744   26.4839 H   0  0  0  0  0  0
   24.6465   17.9476   24.9402 H   0  0  0  0  0  0
   29.4595   11.4302   20.0986 H   0  0  0  0  0  0
   30.8642   10.9971   21.1310 H   0  0  0  0  0  0
   29.3577   14.4906   19.3143 H   0  0  0  0  0  0
   27.7646   15.2450   18.9683 H   0  0  0  0  0  0
   28.9079    9.5654   21.6294 H   0  0  0  0  0  0
   27.9282   11.0219   22.0108 H   0  0  0  0  0  0
   29.3329   10.5887   23.0432 H   0  0  0  0  0  0
   29.3871   16.9174   19.8075 H   0  0  0  0  0  0
   29.6195   15.9578   21.3081 H   0  0  0  0  0  0
   28.0264   16.7122   20.9621 H   0  0  0  0  0  0
   14.1453   14.1797   26.8861 H   0  0  0  0  0  0
   17.5460   15.7074   29.1969 H   0  0  0  0  0  0
   15.0682   15.3911   28.8846 H   0  0  0  0  0  0
  1  3  1  0  0  0
  1  4  2  0  0  0
  1 25  1  0  0  0
  2 27  1  0  0  0
  3 19  1  0  0  0
  3 32  1  0  0  0
  5  9  1  0  0  0
  5 20  2  0  0  0
  5 23  1  0  0  0
  6 28  1  0  0  0
  7 12  1  0  0  0
  7 16  1  0  0  0
  7 46  1  0  0  0
  8  9  2  0  0  0
  9 13  1  0  0  0
 10 15  1  0  0  0
 10 33  1  0  0  0
 10 47  1  0  0  0
 10 48  1  0  0  0
 11 12  2  0  0  0
 12 17  1  0  0  0
 13 34  1  0  0  0
 13 35  1  0  0  0
 14 18  1  0  0  0
 14 49  1  0  0  0
 15 18  1  0  0  0
 15 19  1  0  0  0
 15 50  1  0  0  0
 16 18  1  0  0  0
 16 22  1  0  0  0
 16 51  1  0  0  0
 17 20  1  0  0  0
 17 24  2  0  0  0
 18 52  1  0  0  0
 19 53  1  0  0  0
 19 54  1  0  0  0
 20 55  1  0  0  0
 21 22  1  0  0  0
 21 30  2  0  0  0
 21 31  1  0  0  0
 22 56  1  0  0  0
 22 57  1  0  0  0
 23 29  2  0  0  0
 23 58  1  0  0  0
 24 29  1  0  0  0
 24 59  1  0  0  0
 25 36  2  0  0  0
 25 37  1  0  0  0
 26 27  2  0  0  0
 26 28  1  0  0  0
 26 60  1  0  0  0
 27 30  1  0  0  0
 28 31  2  0  0  0
 29 38  1  0  0  0
 30 61  1  0  0  0
 31 62  1  0  0  0
 32 33  1  0  0  0
 32 63  1  0  0  0
 32 64  1  0  0  0
 33 65  1  0  0  0
 33 66  1  0  0  0
 34 39  1  0  0  0
 34 67  1  0  0  0
 34 68  1  0  0  0
 35 40  1  0  0  0
 35 69  1  0  0  0
 35 70  1  0  0  0
 36 44  1  0  0  0
 36 71  1  0  0  0
 37 43  2  0  0  0
 37 72  1  0  0  0
 38 73  1  0  0  0
 38 74  1  0  0  0
 38 75  1  0  0  0
 39 41  1  0  0  0
 39 76  1  0  0  0
 39 77  1  0  0  0
 40 42  1  0  0  0
 40 78  1  0  0  0
 40 79  1  0  0  0
 41 80  1  0  0  0
 41 81  1  0  0  0
 41 82  1  0  0  0
 42 83  1  0  0  0
 42 84  1  0  0  0
 42 85  1  0  0  0
 43 45  1  0  0  0
 43 86  1  0  0  0
 44 45  2  0  0  0
 44 87  1  0  0  0
 45 88  1  0  0  0
M  CHG  1  10   1
M  END
> <s_m_source_file>
../3lnk_ligand.sdf

> <i_m_source_file_index>
1

> <s_epik_input>
W2NIXTFbY0hdW2NIXVtjSF1bY0hdYzFDKD1PKU4yW0NIMl1bQ0BASF0oW05IMitdW0NIMl1bQ0gyXTIpW0NAQEhdKFtPSF0pW0NASF0oW0NIMl1jM1tjSF1jKEYpW2NIXWMoRilbY0hdMylbTkhdQyg9TyljKFtjSF1jKFtjSF00KVtDSDNdKVtjSF1jNEMoPU8pTihbQ0gyXVtDSDJdW0NIM10pW0NIMl1bQ0gyXVtDSDNd

> <s_epik_cmdline>
J2VwaWtfYXBwJywgJy1pbWFlJywgJ2xpZ2FuZF9wcm8ubWFlJywgJy1vbWFlJywgJ2xpZ2FuZF9wcmVwLm1hZScsICctbXMnLCAnMScsICctcGgnLCAnNycsICctcGh0JywgJzAuNScsICctbnQn

> <r_epik_Ionization_Penalty>
  0.2008

> <r_epik_Ionization_Penalty_Charging>
  0.2008

> <r_epik_Ionization_Penalty_Neutral>
  0.0000

> <r_epik_State_Penalty>
  0.1907

> <r_epik_Charging_Adjusted_Penalty>
0.391530408212297

> <i_epik_Tot_Q>
1

> <i_epik_Tot_abs_Q>
1

$$$$
