3loo_ligand
                    3D
 Schrodinger Suite 2020-3.
 77 82  0  0  1  0            999 V2000
   11.1900   -4.8910    7.8360 P   0  0  2  0  0  0
    9.7650   -4.3990    8.0370 O   0  0  0  0  0  0
   11.3940   -6.3890    7.6160 O   0  5  0  0  0  0
   11.9460   -4.5960    9.2210 O   0  0  0  0  0  0
   13.2510   -3.6820    9.2790 P   0  0  2  0  0  0
   12.9210   -2.2170    8.9840 O   0  5  0  0  0  0
   14.4520   -4.3320    8.6130 O   0  0  0  0  0  0
   13.1740   -3.9340   10.9210 O   0  0  0  0  0  0
   14.2770   -4.6270   11.8680 P   0  0  1  0  0  0
   14.0150   -6.0800   12.0730 O   0  0  0  0  0  0
   15.6300   -4.2950   11.2700 O   0  5  0  0  0  0
   14.1440   -3.8470   13.2600 O   0  0  0  0  0  0
   13.5800   -4.3270   14.6930 P   0  0  1  0  0  0
   12.4020   -5.1980   14.4560 O   0  0  0  0  0  0
   14.6810   -4.7720   15.6140 O   0  5  0  0  0  0
   11.9320   -4.0240    6.6790 O   0  0  0  0  0  0
   11.0820   -3.8040    5.5750 C   0  0  0  0  0  0
   11.7530   -3.1730    4.3890 C   0  0  1  0  0  0
   12.8470   -3.9430    3.8900 O   0  0  0  0  0  0
   10.7610   -3.1510    3.2590 C   0  0  1  0  0  0
   10.3250   -1.7800    3.1750 O   0  0  0  0  0  0
   11.5630   -3.5370    2.0210 C   0  0  1  0  0  0
   11.4330   -2.6410    0.9100 O   0  0  0  0  0  0
   13.0130   -3.6210    2.5340 C   0  0  2  0  0  0
   13.7280   -4.7040    1.8350 N   0  0  0  0  0  0
   13.4960   -6.0480    1.8920 C   0  0  0  0  0  0
   14.3950   -6.6660    1.0710 N   0  0  0  0  0  0
   15.1720   -5.7180    0.4680 C   0  0  0  0  0  0
   16.2420   -5.7370   -0.4420 C   0  0  0  0  0  0
   16.7290   -6.8890   -0.9990 N   0  0  0  0  0  0
   16.7880   -4.5590   -0.8360 N   0  0  0  0  0  0
   16.3560   -3.3780   -0.3270 C   0  0  0  0  0  0
   15.3440   -3.3360    0.5550 N   0  0  0  0  0  0
   14.7490   -4.4840    0.9710 C   0  0  0  0  0  0
   13.0080   -2.9160   15.1940 O   0  0  0  0  0  0
   13.7640   -1.7150   15.0890 C   0  0  0  0  0  0
   13.1440   -0.7260   16.0750 C   0  0  1  0  0  0
   11.7130   -0.6570   15.9390 O   0  0  0  0  0  0
   13.3270   -1.1970   17.5070 C   0  0  1  0  0  0
   14.6390   -0.8760   17.9510 O   0  0  0  0  0  0
   12.2310   -0.4430   18.2350 C   0  0  1  0  0  0
   12.6590    0.8990   18.5410 O   0  0  0  0  0  0
   11.0830   -0.4450   17.2090 C   0  0  2  0  0  0
   10.2150   -1.6270   17.5120 N   0  0  0  0  0  0
   10.2170   -2.8020   16.8510 C   0  0  0  0  0  0
    9.3210   -3.6640   17.3890 N   0  0  0  0  0  0
    8.7140   -3.0520   18.4270 C   0  0  0  0  0  0
    7.7440   -3.4060   19.3610 C   0  0  0  0  0  0
    7.1910   -4.6440   19.3010 N   0  0  0  0  0  0
    7.3480   -2.4990   20.3070 N   0  0  0  0  0  0
    7.8960   -1.2600   20.3680 C   0  0  0  0  0  0
    8.8590   -0.8620   19.4890 N   0  0  0  0  0  0
    9.3090   -1.7090   18.5110 C   0  0  0  0  0  0
   10.6672   -4.7642    5.2346 H   0  0  0  0  0  0
   10.2611   -3.1346    5.8719 H   0  0  0  0  0  0
   12.1552   -2.1982    4.7021 H   0  0  0  0  0  0
    9.8696   -3.7831    3.3850 H   0  0  0  0  0  0
    9.7317   -1.3406    3.9904 H   0  0  0  0  0  0
   11.1710   -4.4435    1.5367 H   0  0  0  0  0  0
   10.4499   -2.4839    0.4422 H   0  0  0  0  0  0
   13.6303   -2.7159    2.4353 H   0  0  0  0  0  0
   12.7281   -6.5411    2.4881 H   0  0  0  0  0  0
   16.3105   -7.8624   -0.7036 H   0  0  0  0  0  0
   17.5388   -6.8411   -1.7419 H   0  0  0  0  0  0
   16.8368   -2.4505   -0.6381 H   0  0  0  0  0  0
   14.8142   -1.9193   15.3445 H   0  0  0  0  0  0
   13.7048   -1.3333   14.0590 H   0  0  0  0  0  0
   13.5876    0.2565   15.8560 H   0  0  0  0  0  0
   13.3039   -2.2815   17.6894 H   0  0  0  0  0  0
   15.5104   -1.3650   17.4910 H   0  0  0  0  0  0
   11.9736   -0.8442   19.2264 H   0  0  0  0  0  0
   13.4744    1.0657   19.2603 H   0  0  0  0  0  0
   10.4815    0.4751   17.1700 H   0  0  0  0  0  0
   10.8551   -3.0285   15.9968 H   0  0  0  0  0  0
    7.5232   -5.3582   18.5331 H   0  0  0  0  0  0
    6.4106   -4.9332   20.0202 H   0  0  0  0  0  0
    7.5586   -0.5661   21.1379 H   0  0  0  0  0  0
  1  2  2  0  0  0
  1  3  1  0  0  0
  1  4  1  0  0  0
  1 16  1  0  0  0
  4  5  1  0  0  0
  5  6  1  0  0  0
  5  7  2  0  0  0
  5  8  1  0  0  0
  8  9  1  0  0  0
  9 10  2  0  0  0
  9 11  1  0  0  0
  9 12  1  0  0  0
 12 13  1  0  0  0
 13 14  2  0  0  0
 13 15  1  0  0  0
 13 35  1  0  0  0
 16 17  1  0  0  0
 17 18  1  0  0  0
 17 54  1  0  0  0
 17 55  1  0  0  0
 18 19  1  0  0  0
 18 20  1  0  0  0
 18 56  1  0  0  0
 19 24  1  0  0  0
 20 21  1  0  0  0
 20 22  1  0  0  0
 20 57  1  0  0  0
 21 58  1  0  0  0
 22 23  1  0  0  0
 22 24  1  0  0  0
 22 59  1  0  0  0
 23 60  1  0  0  0
 24 25  1  0  0  0
 24 61  1  0  0  0
 25 26  1  0  0  0
 25 34  1  0  0  0
 26 27  2  0  0  0
 26 62  1  0  0  0
 27 28  1  0  0  0
 28 29  2  0  0  0
 28 34  1  0  0  0
 29 30  1  0  0  0
 29 31  1  0  0  0
 30 63  1  0  0  0
 30 64  1  0  0  0
 31 32  2  0  0  0
 32 33  1  0  0  0
 32 65  1  0  0  0
 33 34  2  0  0  0
 35 36  1  0  0  0
 36 37  1  0  0  0
 36 66  1  0  0  0
 36 67  1  0  0  0
 37 38  1  0  0  0
 37 39  1  0  0  0
 37 68  1  0  0  0
 38 43  1  0  0  0
 39 40  1  0  0  0
 39 41  1  0  0  0
 39 69  1  0  0  0
 40 70  1  0  0  0
 41 42  1  0  0  0
 41 43  1  0  0  0
 41 71  1  0  0  0
 42 72  1  0  0  0
 43 44  1  0  0  0
 43 73  1  0  0  0
 44 45  1  0  0  0
 44 53  1  0  0  0
 45 46  2  0  0  0
 45 74  1  0  0  0
 46 47  1  0  0  0
 47 48  2  0  0  0
 47 53  1  0  0  0
 48 49  1  0  0  0
 48 50  1  0  0  0
 49 75  1  0  0  0
 49 76  1  0  0  0
 50 51  2  0  0  0
 51 52  1  0  0  0
 51 77  1  0  0  0
 52 53  2  0  0  0
M  CHG  4   3  -1   6  -1  11  -1  15  -1
M  END
> <s_m_source_file>
../3loo_ligand.sdf

> <i_m_source_file_index>
1

> <s_epik_input>
W05IMl1jMW5bY0hdbmMoYzEyKW4oW2NIXW4yKVtDQEBIXShbQ0BIXShbT0hdKVtDQEBIXTNbT0hdKU9bQ0BASF0zW0NIMl1PW1BAQF0oPU8pKFtPSF0pT1tQQEBdKD1PKShbT0hdKU9bUEBAXSg9TykoW09IXSlPW1BAQF0oPU8pKFtPSF0pT1tDSDJdW0NASF00T1tDQEhdKFtDQEhdKFtPSF0pW0NAQEhdNFtPSF0pbihbY0hdbjUpYyhjNTYpbltjSF1uYzZbTkgyXQ==

> <s_epik_cmdline>
J2VwaWtfYXBwJywgJy1pbWFlJywgJ2xpZ2FuZF9wcm8ubWFlJywgJy1vbWFlJywgJ2xpZ2FuZF9wcmVwLm1hZScsICctbXMnLCAnMScsICctcGgnLCAnNycsICctcGh0JywgJzAuNScsICctbnQn

> <r_lp_tautomer_probability>
1

> <r_epik_Ionization_Penalty>
  0.0017

> <r_epik_Ionization_Penalty_Charging>
  0.0009

> <r_epik_Ionization_Penalty_Neutral>
  0.0009

> <r_epik_State_Penalty>
 -0.0000

> <r_epik_Charging_Adjusted_Penalty>
0.000881798532028694

> <i_epik_Tot_Q>
-4

> <i_epik_Tot_abs_Q>
4

> <s_epik_Chemistry_Notes>
This compound contains an acetal/aminal-like group ( X-CH(R)-Y where X, Y are N, S, or O) that may be acid/base labile, releasing an aldehyde.

$$$$
