3lox_ligand
                    3D
 Schrodinger Suite 2020-3.
 91 94  0  0  1  0            999 V2000
  191.9840  -10.5550   48.6290 C   0  0  0  0  0  0
  192.5240  -11.6020   49.0190 O   0  0  0  0  0  0
  190.6720  -10.3400   48.7070 N   0  0  0  0  0  0
  189.7200  -11.3360   49.2460 C   0  0  0  0  0  0
  189.6260  -12.4860   48.2590 C   0  0  0  0  0  0
  188.3070  -10.7100   49.3590 C   0  0  0  0  0  0
  188.2710   -9.6810   50.4650 C   0  0  0  0  0  0
  188.6440  -10.3270   51.7930 C   0  0  0  0  0  0
  190.0380  -10.9510   51.7250 C   0  0  0  0  0  0
  190.1240  -11.9670   50.6020 C   0  0  0  0  0  0
  192.6760   -9.5580   48.0900 N   0  0  0  0  0  0
  194.1320   -9.5360   48.1240 C   0  0  1  0  0  0
  194.7250   -8.9530   46.8050 C   0  0  0  0  0  0
  196.2520   -8.8660   46.9590 C   0  0  0  0  0  0
  194.3760   -9.9340   45.6680 C   0  0  0  0  0  0
  194.2150   -7.5510   46.3770 C   0  0  0  0  0  0
  194.5750   -8.7350   49.3400 C   0  0  0  0  0  0
  194.2300   -7.5600   49.4730 O   0  0  0  0  0  0
  195.2460   -9.3920   50.2980 N   0  0  0  0  0  0
  195.5670  -10.8260   50.3820 C   0  0  0  0  0  0
  195.6990   -8.6650   51.4840 C   0  0  1  0  0  0
  196.2280   -9.6530   52.4360 C   0  0  2  0  0  0
  196.3550  -10.9060   51.6490 C   0  0  1  0  0  0
  195.4980  -10.8660   52.9250 C   0  0  0  0  0  0
  196.0510  -11.5240   54.1300 C   0  0  0  0  0  0
  193.9830  -10.8780   52.8280 C   0  0  0  0  0  0
  196.7210   -7.6350   51.0420 C   0  0  0  0  0  0
  197.7060   -7.9780   50.3890 O   0  0  0  0  0  0
  196.4660   -6.3720   51.3730 N   0  0  0  0  0  0
  197.3450   -5.2790   50.9840 C   0  0  1  0  0  0
  196.5500   -4.2430   50.1850 C   0  0  0  0  0  0
  195.9650   -4.7170   48.8280 C   0  0  0  0  0  0
  196.9240   -4.9110   47.6170 C   0  0  0  0  0  0
  195.2030   -3.6510   48.0150 C   0  0  0  0  0  0
  195.9710   -4.0650   46.7490 C   0  0  0  0  0  0
  198.6090   -5.6530   53.0430 O   0  0  0  0  0  0
  198.0920   -4.6080   52.1680 C   0  0  1  0  0  0
  199.0230   -2.5960   51.3360 O   0  0  0  0  0  0
  200.4210   -4.3390   51.2580 N   0  0  0  0  0  0
  199.2510   -3.7820   51.5480 C   0  0  0  0  0  0
  190.3053   -9.3675   48.3467 H   0  0  0  0  0  0
  189.3404  -12.0980   47.2701 H   0  0  0  0  0  0
  188.8678  -13.2043   48.6041 H   0  0  0  0  0  0
  190.6018  -12.9887   48.1878 H   0  0  0  0  0  0
  188.0450  -10.2223   48.4085 H   0  0  0  0  0  0
  187.5731  -11.4988   49.5808 H   0  0  0  0  0  0
  188.9872   -8.8767   50.2410 H   0  0  0  0  0  0
  187.2579   -9.2592   50.5406 H   0  0  0  0  0  0
  188.6365   -9.5650   52.5863 H   0  0  0  0  0  0
  187.9157  -11.1151   52.0347 H   0  0  0  0  0  0
  190.7841  -10.1629   51.5458 H   0  0  0  0  0  0
  190.2602  -11.4567   52.6762 H   0  0  0  0  0  0
  189.4485  -12.8040   50.8327 H   0  0  0  0  0  0
  191.1582  -12.3367   50.5408 H   0  0  0  0  0  0
  192.1246   -8.7361   47.6099 H   0  0  0  0  0  0
  194.4547  -10.5823   48.2292 H   0  0  0  0  0  0
  196.6463   -9.8469   47.2628 H   0  0  0  0  0  0
  196.5011   -8.1173   47.7254 H   0  0  0  0  0  0
  196.7011   -8.5716   45.9990 H   0  0  0  0  0  0
  194.7229  -10.9431   45.9350 H   0  0  0  0  0  0
  194.8697   -9.6102   44.7399 H   0  0  0  0  0  0
  193.2864   -9.9486   45.5179 H   0  0  0  0  0  0
  194.4464   -6.8201   47.1658 H   0  0  0  0  0  0
  193.1269   -7.5889   46.2199 H   0  0  0  0  0  0
  194.7102   -7.2504   45.4419 H   0  0  0  0  0  0
  194.6348  -11.4087   50.4210 H   0  0  0  0  0  0
  196.1489  -11.1239   49.4973 H   0  0  0  0  0  0
  194.8718   -8.1489   51.9933 H   0  0  0  0  0  0
  196.7833   -8.9280   53.0492 H   0  0  0  0  0  0
  197.1744  -11.5409   51.2809 H   0  0  0  0  0  0
  197.1492  -11.4638   54.1093 H   0  0  0  0  0  0
  195.7419  -12.5796   54.1458 H   0  0  0  0  0  0
  195.6729  -11.0177   55.0304 H   0  0  0  0  0  0
  193.6707  -10.3687   51.9044 H   0  0  0  0  0  0
  193.5558  -10.3560   53.6970 H   0  0  0  0  0  0
  193.6248  -11.9179   52.8124 H   0  0  0  0  0  0
  195.5582   -6.1658   51.9590 H   0  0  0  0  0  0
  198.0977   -5.7775   50.3556 H   0  0  0  0  0  0
  195.6904   -3.9016   50.7805 H   0  0  0  0  0  0
  197.1974   -3.3852   49.9504 H   0  0  0  0  0  0
  195.4571   -5.5913   49.2612 H   0  0  0  0  0  0
  197.9131   -4.4972   47.8627 H   0  0  0  0  0  0
  197.0205   -5.9838   47.3939 H   0  0  0  0  0  0
  194.1238   -3.8595   48.0577 H   0  0  0  0  0  0
  195.4012   -2.6555   48.4390 H   0  0  0  0  0  0
  196.5476   -3.2958   46.2144 H   0  0  0  0  0  0
  195.4637   -4.7151   46.0210 H   0  0  0  0  0  0
  197.9140   -6.3293   53.5622 H   0  0  0  0  0  0
  197.4480   -3.9911   52.8120 H   0  0  0  0  0  0
  200.5877   -5.4068   51.4630 H   0  0  0  0  0  0
  201.2235   -3.7326   50.8128 H   0  0  0  0  0  0
  1  2  2  0  0  0
  1  3  1  0  0  0
  1 11  1  0  0  0
  3  4  1  0  0  0
  3 41  1  0  0  0
  4  5  1  0  0  0
  4  6  1  0  0  0
  4 10  1  0  0  0
  5 42  1  0  0  0
  5 43  1  0  0  0
  5 44  1  0  0  0
  6  7  1  0  0  0
  6 45  1  0  0  0
  6 46  1  0  0  0
  7  8  1  0  0  0
  7 47  1  0  0  0
  7 48  1  0  0  0
  8  9  1  0  0  0
  8 49  1  0  0  0
  8 50  1  0  0  0
  9 10  1  0  0  0
  9 51  1  0  0  0
  9 52  1  0  0  0
 10 53  1  0  0  0
 10 54  1  0  0  0
 11 12  1  0  0  0
 11 55  1  0  0  0
 12 13  1  0  0  0
 12 17  1  0  0  0
 12 56  1  0  0  0
 13 14  1  0  0  0
 13 15  1  0  0  0
 13 16  1  0  0  0
 14 57  1  0  0  0
 14 58  1  0  0  0
 14 59  1  0  0  0
 15 60  1  0  0  0
 15 61  1  0  0  0
 15 62  1  0  0  0
 16 63  1  0  0  0
 16 64  1  0  0  0
 16 65  1  0  0  0
 17 18  2  0  0  0
 17 19  1  0  0  0
 19 20  1  0  0  0
 19 21  1  0  0  0
 20 23  1  0  0  0
 20 66  1  0  0  0
 20 67  1  0  0  0
 21 22  1  0  0  0
 21 27  1  0  0  0
 21 68  1  0  0  0
 22 23  1  0  0  0
 22 24  1  0  0  0
 22 69  1  0  0  0
 23 24  1  0  0  0
 23 70  1  0  0  0
 24 25  1  0  0  0
 24 26  1  0  0  0
 25 71  1  0  0  0
 25 72  1  0  0  0
 25 73  1  0  0  0
 26 74  1  0  0  0
 26 75  1  0  0  0
 26 76  1  0  0  0
 27 28  2  0  0  0
 27 29  1  0  0  0
 29 30  1  0  0  0
 29 77  1  0  0  0
 30 31  1  0  0  0
 30 37  1  0  0  0
 30 78  1  0  0  0
 31 32  1  0  0  0
 31 79  1  0  0  0
 31 80  1  0  0  0
 32 33  1  0  0  0
 32 34  1  0  0  0
 32 81  1  0  0  0
 33 35  1  0  0  0
 33 82  1  0  0  0
 33 83  1  0  0  0
 34 35  1  0  0  0
 34 84  1  0  0  0
 34 85  1  0  0  0
 35 86  1  0  0  0
 35 87  1  0  0  0
 36 37  1  0  0  0
 36 88  1  0  0  0
 37 40  1  0  0  0
 37 89  1  0  0  0
 38 40  2  0  0  0
 39 40  1  0  0  0
 39 90  1  0  0  0
 39 91  1  0  0  0
M  END
> <s_m_source_file>
../3lox_ligand.sdf

> <i_m_source_file_index>
1

> <s_epik_input>
W0NIMl0xW0NIMl1bQ0gyXVtDSDJdW0NIMl1DMShbQ0gzXSlbTkhdQyg9TylbTkhdW0NAQEhdKEMoW0NIM10pKFtDSDNdKVtDSDNdKUMoPU8pTihbQ0gyXVtDQEBIXShbQ0BASF0yMylDMyhbQ0gzXSlbQ0gzXSlbQ0BASF0yQyg9TylbTkhdW0NASF0oW0NAQEhdKFtPSF0pQyg9TylbTkgyXSlbQ0gyXVtDSF00W0NIMl1bQ0gyXVtDSDJdNA==

> <s_epik_cmdline>
J2VwaWtfYXBwJywgJy1pbWFlJywgJ2xpZ2FuZF9wcm8ubWFlJywgJy1vbWFlJywgJ2xpZ2FuZF9wcmVwLm1hZScsICctbXMnLCAnMScsICctcGgnLCAnNycsICctcGh0JywgJzAuNScsICctbnQn

> <r_lp_tautomer_probability>
1

> <r_epik_Ionization_Penalty>
  0.0001

> <r_epik_Ionization_Penalty_Charging>
  0.0000

> <r_epik_Ionization_Penalty_Neutral>
  0.0001

> <r_epik_State_Penalty>
 -0.0000

> <r_epik_Charging_Adjusted_Penalty>
0

> <i_epik_Tot_Q>
0

> <i_epik_Tot_abs_Q>
0

$$$$
