3lp0_ligand
                    3D
 Schrodinger Suite 2020-3.
 30 31  0  0  1  0            999 V2000
   -2.0410   70.9810   30.6270 C   0  0  0  0  0  0
   -3.9600   72.0390   31.6460 N   0  0  0  0  0  0
    0.3750   73.5500   32.8800 O   0  0  0  0  0  0
   -3.4130   71.1280   30.8040 C   0  0  0  0  0  0
   -1.2090   71.8230   31.3620 C   0  0  0  0  0  0
   -1.7300   72.7750   32.2400 C   0  0  0  0  0  0
   -3.1240   72.8450   32.3470 C   0  0  0  0  0  0
   -3.6420   73.7700   33.1990 N   0  0  0  0  0  0
   -2.9370   74.6440   33.9690 C   0  0  0  0  0  0
   -1.5390   74.5780   33.8650 C   0  0  3  0  0  0
   -0.9470   73.6440   33.0030 C   0  0  1  0  0  0
   -5.0310   73.8160   33.2860 O   0  0  0  0  0  0
   -3.5150   75.5240   34.7850 O   0  0  0  0  0  0
   -0.6560   75.4900   34.6700 C   0  0  0  0  0  0
   -0.8490   76.6890   34.8100 O   0  0  0  0  0  0
    0.3540   74.7940   35.2070 O   0  0  0  0  0  0
    0.0630   74.0480   36.4220 C   0  0  0  0  0  0
    1.1480   72.9870   36.6250 C   0  0  0  0  0  0
   -1.6337   70.2378   29.9416 H   0  0  0  0  0  0
    0.8123   72.8078   32.1960 H   0  0  0  0  0  0
   -4.0810   70.4789   30.2379 H   0  0  0  0  0  0
   -0.1283   71.7365   31.2490 H   0  0  0  0  0  0
   -0.9705   74.3815   32.1872 H   0  0  0  0  0  0
   -5.6429   73.1292   32.6828 H   0  0  0  0  0  0
    0.0505   74.7358   37.2804 H   0  0  0  0  0  0
   -0.9192   73.5618   36.3274 H   0  0  0  0  0  0
    0.9367   72.4172   37.5419 H   0  0  0  0  0  0
    2.1282   73.4777   36.7160 H   0  0  0  0  0  0
    1.1586   72.3038   35.7630 H   0  0  0  0  0  0
   -1.5131   73.8411   34.6813 H   0  0  0  0  0  0
  1  4  2  0  0  0
  1  5  1  0  0  0
  1 19  1  0  0  0
  2  4  1  0  0  0
  2  7  2  0  0  0
  3 11  1  0  0  0
  3 20  1  0  0  0
  4 21  1  0  0  0
  5  6  2  0  0  0
  5 22  1  0  0  0
  6  7  1  0  0  0
  6 11  1  0  0  0
  7  8  1  0  0  0
  8  9  1  0  0  0
  8 12  1  0  0  0
  9 10  1  0  0  0
  9 13  2  0  0  0
 10 11  1  0  0  0
 10 14  1  0  0  0
 10 30  1  0  0  0
 11 23  1  0  0  0
 12 24  1  0  0  0
 14 15  2  0  0  0
 14 16  1  0  0  0
 16 17  1  0  0  0
 17 18  1  0  0  0
 17 25  1  0  0  0
 17 26  1  0  0  0
 18 27  1  0  0  0
 18 28  1  0  0  0
 18 29  1  0  0  0
M  END
> <s_m_source_file>
../3lp0_ligand.sdf

> <i_m_source_file_index>
1

> <s_epik_input>
W2NIXTFbY0hdW2NIXW5jKGMxMilOKFtPSF0pQyhbT0hdKT1DKFtDSF0yW09IXSlDKD1PKU9bQ0gyXVtDSDNd

> <s_epik_cmdline>
J2VwaWtfYXBwJywgJy1pbWFlJywgJ2xpZ2FuZF9wcm8ubWFlJywgJy1vbWFlJywgJ2xpZ2FuZF9wcmVwLm1hZScsICctbXMnLCAnMScsICctcGgnLCAnNycsICctcGh0JywgJzAuNScsICctbnQn

> <r_lp_tautomer_probability>
1

> <r_epik_Ionization_Penalty>
  2.8601

> <r_epik_Ionization_Penalty_Charging>
  0.0000

> <r_epik_Ionization_Penalty_Neutral>
  2.8601

> <r_epik_State_Penalty>
 -0.0000

> <r_epik_Charging_Adjusted_Penalty>
0

> <i_epik_Tot_Q>
0

> <i_epik_Tot_abs_Q>
0

> <s_epik_Chemistry_Notes>
This compound has an ester and may undergo hydrolysis at high or low pH. This compound has a N-S or N-O group and may undergo hydrolysis at high or low pH.

$$$$
