3lp1_ligand
                    3D
 Schrodinger Suite 2020-3.
 30 32  0  0  1  0            999 V2000
   -3.6770   74.2700   34.2670 C   0  0  0  0  0  0
   -4.1660   73.3390   33.4110 N   0  0  0  0  0  0
   -5.5480   73.2280   33.3130 O   0  5  0  0  0  0
   -1.4930   73.5220   33.5850 C   0  0  0  0  0  0
   -2.2800   74.3790   34.3660 C   0  0  0  0  0  0
   -4.4980   75.0450   34.9750 O   0  5  0  0  0  0
   -3.4520   72.4910   32.6350 C   0  0  0  0  0  0
   -2.0610   72.5830   32.7230 C   0  0  0  0  0  0
   -1.3150   71.7140   31.9250 C   0  0  0  0  0  0
   -1.9420   70.7980   31.0830 C   0  0  0  0  0  0
   -3.3340   70.7840   31.0690 C   0  0  0  0  0  0
   -4.0920   71.6110   31.8270 N   0  0  0  0  0  0
   -0.1610   73.5110   33.5810 O   0  0  0  0  0  0
   -1.7320   75.4160   35.3310 C   0  0  0  0  0  0
   -1.2590   74.8600   36.6780 C   0  0  0  0  0  0
    0.1470   75.4150   36.9060 C   0  0  0  0  0  0
    0.1910   76.6900   36.0620 C   0  0  0  0  0  0
   -0.5960   76.3040   34.8070 C   0  0  0  0  0  0
   -0.2263   71.7526   31.9611 H   0  0  0  0  0  0
   -1.3638   70.1173   30.4581 H   0  0  0  0  0  0
   -3.8385   70.0722   30.4156 H   0  0  0  0  0  0
   -2.6425   76.0210   35.4529 H   0  0  0  0  0  0
   -1.9455   75.1892   37.4720 H   0  0  0  0  0  0
   -1.2462   73.7608   36.6369 H   0  0  0  0  0  0
    0.2894   75.6244   37.9765 H   0  0  0  0  0  0
    0.8912   74.6758   36.5748 H   0  0  0  0  0  0
   -0.2798   77.5142   36.6180 H   0  0  0  0  0  0
    1.2373   76.9475   35.8409 H   0  0  0  0  0  0
    0.0177   75.7323   34.0953 H   0  0  0  0  0  0
   -1.0214   77.1830   34.3007 H   0  0  0  0  0  0
  1  2  1  0  0  0
  1  5  2  0  0  0
  1  6  1  0  0  0
  2  3  1  0  0  0
  2  7  1  0  0  0
  4  5  1  0  0  0
  4  8  1  0  0  0
  4 13  2  0  0  0
  5 14  1  0  0  0
  7  8  1  0  0  0
  7 12  2  0  0  0
  8  9  2  0  0  0
  9 10  1  0  0  0
  9 19  1  0  0  0
 10 11  2  0  0  0
 10 20  1  0  0  0
 11 12  1  0  0  0
 11 21  1  0  0  0
 14 15  1  0  0  0
 14 18  1  0  0  0
 14 22  1  0  0  0
 15 16  1  0  0  0
 15 23  1  0  0  0
 15 24  1  0  0  0
 16 17  1  0  0  0
 16 25  1  0  0  0
 16 26  1  0  0  0
 17 18  1  0  0  0
 17 27  1  0  0  0
 17 28  1  0  0  0
 18 29  1  0  0  0
 18 30  1  0  0  0
M  CHG  2   3  -1   6  -1
M  END
> <s_m_source_file>
../3lp1_ligand.sdf

> <i_m_source_file_index>
1

> <s_epik_input>
W0NIMl0xW0NIMl1bQ0gyXVtDSDJdW0NIXTFjKGMoW24rXTJbTy1dKVtPSF0pYyhbT0hdKWMoYzIzKVtjSF1bY0hdW2NIXW4z

> <s_epik_cmdline>
J2VwaWtfYXBwJywgJy1pbWFlJywgJ2xpZ2FuZF9wcm8ubWFlJywgJy1vbWFlJywgJ2xpZ2FuZF9wcmVwLm1hZScsICctbXMnLCAnMScsICctcGgnLCAnNycsICctcGh0JywgJzAuNScsICctbnQn

> <r_epik_Ionization_Penalty>
  0.0155

> <r_epik_Ionization_Penalty_Charging>
  0.0155

> <r_epik_Ionization_Penalty_Neutral>
  0.0000

> <r_epik_State_Penalty>
  0.0097

> <r_epik_Charging_Adjusted_Penalty>
0.0251122462261082

> <i_epik_Tot_Q>
-2

> <i_epik_Tot_abs_Q>
2

$$$$
