3lp2_ligand
                    3D
 Schrodinger Suite 2020-3.
 51 53  0  0  1  0            999 V2000
    9.1360    8.3570   25.2210 C   0  0  0  0  0  0
   10.6280    9.5030   27.1800 N   0  0  0  0  0  0
    7.1270    6.5730   26.0080 O   0  0  0  0  0  0
   10.1390    9.2610   24.8700 C   0  0  0  0  0  0
   10.8970    9.8290   25.8940 C   0  0  0  0  0  0
    9.6550    8.6320   27.5390 C   0  0  0  0  0  0
    8.8680    8.0290   26.5540 C   0  0  0  0  0  0
    9.4170    8.3290   28.8380 N   0  0  0  0  0  0
    8.4670    7.4770   29.2980 C   0  0  0  0  0  0
    7.6650    6.8560   28.3270 C   0  0  0  0  0  0
    7.8680    7.1390   26.9630 C   0  0  0  0  0  0
    6.5810    5.8980   28.7420 C   0  0  0  0  0  0
    5.7460    6.1670   29.5950 O   0  0  0  0  0  0
    8.3010    7.2370   30.5980 O   0  5  0  0  0  0
   10.2340    8.9650   29.7690 O   0  5  0  0  0  0
   10.4050    9.5750   23.5960 O   0  0  0  0  0  0
   10.8350   10.7820   23.2190 C   0  0  0  0  0  0
    9.8740   11.7570   22.9740 C   0  0  0  0  0  0
   10.2700   13.0310   22.5710 C   0  0  0  0  0  0
   11.6010   13.4030   22.3740 C   0  0  0  0  0  0
   12.5380   12.3930   22.6260 C   0  0  0  0  0  0
   12.1810   11.1050   23.0310 C   0  0  0  0  0  0
   11.9240   14.6600   21.9940 N   0  0  0  0  0  0
   11.0620   15.4580   21.1120 C   0  0  0  0  0  0
   11.3480   15.2760   19.6210 C   0  0  0  0  0  0
   13.1160   15.3540   22.5070 C   0  0  0  0  0  0
   14.4000   15.1080   21.7120 C   0  0  0  0  0  0
    6.6790    4.7470   28.0640 O   0  0  0  0  0  0
    5.0820    4.0420   26.3600 C   0  0  0  0  0  0
    5.4510    3.9960   27.8480 C   0  0  0  0  0  0
    8.5435    7.8924   24.4328 H   0  0  0  0  0  0
   11.6990   10.5293   25.6607 H   0  0  0  0  0  0
    8.8159   11.5258   23.0966 H   0  0  0  0  0  0
    9.4964   13.7796   22.3999 H   0  0  0  0  0  0
   13.5960   12.6231   22.5001 H   0  0  0  0  0  0
   12.9515   10.3528   23.2002 H   0  0  0  0  0  0
   10.0109   15.1775   21.2748 H   0  0  0  0  0  0
   11.1955   16.5263   21.3374 H   0  0  0  0  0  0
   10.6615   15.9061   19.0364 H   0  0  0  0  0  0
   11.2018   14.2211   19.3457 H   0  0  0  0  0  0
   12.3864   15.5699   19.4083 H   0  0  0  0  0  0
   12.9415   16.4400   22.4952 H   0  0  0  0  0  0
   13.3161   15.0260   23.5377 H   0  0  0  0  0  0
   15.2286   15.6665   22.1718 H   0  0  0  0  0  0
   14.2599   15.4473   20.6751 H   0  0  0  0  0  0
   14.6345   14.0333   21.7176 H   0  0  0  0  0  0
    4.1541    3.4749   26.1947 H   0  0  0  0  0  0
    5.8944    3.5968   25.7669 H   0  0  0  0  0  0
    4.9329    5.0872   26.0514 H   0  0  0  0  0  0
    5.6010    2.9512   28.1575 H   0  0  0  0  0  0
    4.6394    4.4415   28.4420 H   0  0  0  0  0  0
  1  4  1  0  0  0
  1  7  2  0  0  0
  1 31  1  0  0  0
  2  5  1  0  0  0
  2  6  2  0  0  0
  3 11  2  0  0  0
  4  5  2  0  0  0
  4 16  1  0  0  0
  5 32  1  0  0  0
  6  7  1  0  0  0
  6  8  1  0  0  0
  7 11  1  0  0  0
  8  9  1  0  0  0
  8 15  1  0  0  0
  9 10  2  0  0  0
  9 14  1  0  0  0
 10 11  1  0  0  0
 10 12  1  0  0  0
 12 13  2  0  0  0
 12 28  1  0  0  0
 16 17  1  0  0  0
 17 18  2  0  0  0
 17 22  1  0  0  0
 18 19  1  0  0  0
 18 33  1  0  0  0
 19 20  2  0  0  0
 19 34  1  0  0  0
 20 21  1  0  0  0
 20 23  1  0  0  0
 21 22  2  0  0  0
 21 35  1  0  0  0
 22 36  1  0  0  0
 23 24  1  0  0  0
 23 26  1  0  0  0
 24 25  1  0  0  0
 24 37  1  0  0  0
 24 38  1  0  0  0
 25 39  1  0  0  0
 25 40  1  0  0  0
 25 41  1  0  0  0
 26 27  1  0  0  0
 26 42  1  0  0  0
 26 43  1  0  0  0
 27 44  1  0  0  0
 27 45  1  0  0  0
 27 46  1  0  0  0
 28 30  1  0  0  0
 29 30  1  0  0  0
 29 47  1  0  0  0
 29 48  1  0  0  0
 29 49  1  0  0  0
 30 50  1  0  0  0
 30 51  1  0  0  0
M  CHG  2  14  -1  15  -1
M  END
> <s_m_source_file>
../3lp2_ligand.sdf

> <i_m_source_file_index>
1

> <s_epik_input>
W0NIM11bQ0gyXU9DKD1PKWMoYyhbbitdMVtPLV0pW09IXSljKFtPSF0pYyhjMTIpW2NIXWMoW2NIXW4yKU9jM1tjSF1bY0hdYyhbY0hdW2NIXTMpTihbQ0gyXVtDSDNdKVtDSDJdW0NIM10=

> <s_epik_cmdline>
J2VwaWtfYXBwJywgJy1pbWFlJywgJ2xpZ2FuZF9wcm8ubWFlJywgJy1vbWFlJywgJ2xpZ2FuZF9wcmVwLm1hZScsICctbXMnLCAnMScsICctcGgnLCAnNycsICctcGh0JywgJzAuNScsICctbnQn

> <r_lp_tautomer_probability>
1

> <r_epik_Ionization_Penalty>
  0.0720

> <r_epik_Ionization_Penalty_Charging>
  0.0016

> <r_epik_Ionization_Penalty_Neutral>
  0.0704

> <r_epik_State_Penalty>
  0.0617

> <r_epik_Charging_Adjusted_Penalty>
0.0633222309684393

> <i_epik_Tot_Q>
-2

> <i_epik_Tot_abs_Q>
2

> <s_epik_Chemistry_Notes>
This compound has an ester and may undergo hydrolysis at high or low pH.

$$$$
