3lpf_ligand
                    3D
 Schrodinger Suite 2020-3.
 54 56  0  0  1  0            999 V2000
  -24.3860    4.2490   -4.1660 N   0  0  0  0  0  0
  -24.4770    6.6260   -4.1080 N   0  0  0  0  0  0
  -27.0610    6.4190   -7.9640 N   0  0  0  0  0  0
  -23.1520    0.3580   -0.2350 C   0  0  0  0  0  0
  -27.2850   11.6030  -10.3560 C   0  0  0  0  0  0
  -29.2220    9.5050  -11.1710 C   0  0  0  0  0  0
  -26.0620    4.9640   -6.4790 O   0  0  0  0  0  0
  -25.6080    9.9230   -2.7320 O   0  0  0  0  0  0
  -24.9050    5.4350   -1.8140 S   0  0  0  0  0  0
  -24.9480    0.6390   -4.0340 C   0  0  0  0  0  0
  -24.8060    1.9430   -4.5130 C   0  0  0  0  0  0
  -24.7960    0.3780   -2.6750 C   0  0  0  0  0  0
  -24.3570    2.7270   -2.2810 C   0  0  0  0  0  0
  -26.2530    9.9310   -8.7460 C   0  0  0  0  0  0
  -28.0710    7.9700   -9.5160 C   0  0  0  0  0  0
  -25.2310    8.3500   -7.1700 C   0  0  0  0  0  0
  -25.6460    8.8360   -3.6600 C   0  0  0  0  0  0
  -24.5720    7.8300   -3.2410 C   0  0  0  0  0  0
  -24.0810    6.7760   -5.5310 C   0  0  0  0  0  0
  -24.3520    1.1580   -0.4650 O   0  0  0  0  0  0
  -24.5550    5.4190   -3.5030 C   0  0  0  0  0  0
  -27.2160   10.2140   -9.7180 C   0  0  0  0  0  0
  -28.1370    9.2310  -10.1010 C   0  0  0  0  0  0
  -24.5100    3.0040   -3.6480 C   0  0  0  0  0  0
  -24.5010    1.4230   -1.7950 C   0  0  0  0  0  0
  -25.1820    7.0700   -6.5800 C   0  0  0  0  0  0
  -26.0990    6.1010   -6.9840 C   0  0  0  0  0  0
  -26.1940    8.6700   -8.1480 C   0  0  0  0  0  0
  -27.1050    7.6910   -8.5510 C   0  0  0  0  0  0
  -24.1209    4.2551   -5.2336 H   0  0  0  0  0  0
  -27.7944    5.6628   -8.2805 H   0  0  0  0  0  0
  -23.0479    0.1542    0.8409 H   0  0  0  0  0  0
  -22.2696    0.9101   -0.5907 H   0  0  0  0  0  0
  -23.2348   -0.5928   -0.7820 H   0  0  0  0  0  0
  -26.4908   12.2386   -9.9374 H   0  0  0  0  0  0
  -28.2655   12.0549  -10.1454 H   0  0  0  0  0  0
  -27.1483   11.5140  -11.4438 H   0  0  0  0  0  0
  -29.8316    8.6008  -11.3149 H   0  0  0  0  0  0
  -28.7394    9.7769  -12.1213 H   0  0  0  0  0  0
  -29.8658   10.3320  -10.8369 H   0  0  0  0  0  0
  -26.3032   10.7678   -2.8457 H   0  0  0  0  0  0
  -25.1776   -0.1735   -4.7233 H   0  0  0  0  0  0
  -24.9276    2.1385   -5.5784 H   0  0  0  0  0  0
  -24.9068   -0.6388   -2.2982 H   0  0  0  0  0  0
  -24.1233    3.5369   -1.5899 H   0  0  0  0  0  0
  -25.5408   10.7018   -8.4515 H   0  0  0  0  0  0
  -28.7786    7.1964   -9.8142 H   0  0  0  0  0  0
  -24.5094    9.1072   -6.8634 H   0  0  0  0  0  0
  -26.6406    8.3669   -3.6347 H   0  0  0  0  0  0
  -25.4437    9.2121   -4.6737 H   0  0  0  0  0  0
  -24.8083    7.5228   -2.2115 H   0  0  0  0  0  0
  -23.6119    8.3666   -3.2522 H   0  0  0  0  0  0
  -23.3718    7.6113   -5.6281 H   0  0  0  0  0  0
  -23.6040    5.8478   -5.8787 H   0  0  0  0  0  0
  1 21  1  0  0  0
  1 24  1  0  0  0
  1 30  1  0  0  0
  2 18  1  0  0  0
  2 19  1  0  0  0
  2 21  1  0  0  0
  3 27  1  0  0  0
  3 29  1  0  0  0
  3 31  1  0  0  0
  4 20  1  0  0  0
  4 32  1  0  0  0
  4 33  1  0  0  0
  4 34  1  0  0  0
  5 22  1  0  0  0
  5 35  1  0  0  0
  5 36  1  0  0  0
  5 37  1  0  0  0
  6 23  1  0  0  0
  6 38  1  0  0  0
  6 39  1  0  0  0
  6 40  1  0  0  0
  7 27  2  0  0  0
  8 17  1  0  0  0
  8 41  1  0  0  0
  9 21  2  0  0  0
 10 11  2  0  0  0
 10 12  1  0  0  0
 10 42  1  0  0  0
 11 24  1  0  0  0
 11 43  1  0  0  0
 12 25  2  0  0  0
 12 44  1  0  0  0
 13 24  2  0  0  0
 13 25  1  0  0  0
 13 45  1  0  0  0
 14 22  2  0  0  0
 14 28  1  0  0  0
 14 46  1  0  0  0
 15 23  2  0  0  0
 15 29  1  0  0  0
 15 47  1  0  0  0
 16 26  2  0  0  0
 16 28  1  0  0  0
 16 48  1  0  0  0
 17 18  1  0  0  0
 17 49  1  0  0  0
 17 50  1  0  0  0
 18 51  1  0  0  0
 18 52  1  0  0  0
 19 26  1  0  0  0
 19 53  1  0  0  0
 19 54  1  0  0  0
 20 25  1  0  0  0
 22 23  1  0  0  0
 26 27  1  0  0  0
 28 29  2  0  0  0
M  END
> <s_m_source_file>
../3lpf_ligand.sdf

> <i_m_source_file_index>
1

> <s_epik_input>
W0NIM11PYyhbY0hdMSlbY0hdW2NIXVtjSF1jMVtOSF1DKD1TKU4oW0NIMl1bQ0gyXVtPSF0pW0NIMl1jKFtjSF0yKWMoPU8pW25IXWMoYzIzKVtjSF1jKFtDSDNdKWMoW0NIM10pW2NIXTM=

> <s_epik_cmdline>
J2VwaWtfYXBwJywgJy1pbWFlJywgJ2xpZ2FuZF9wcm8ubWFlJywgJy1vbWFlJywgJ2xpZ2FuZF9wcmVwLm1hZScsICctbXMnLCAnMScsICctcGgnLCAnNycsICctcGh0JywgJzAuNScsICctbnQn

> <r_lp_tautomer_probability>
1

> <r_epik_Ionization_Penalty>
  0.0000

> <r_epik_Ionization_Penalty_Charging>
  0.0000

> <r_epik_Ionization_Penalty_Neutral>
  0.0000

> <r_epik_State_Penalty>
 -0.0000

> <r_epik_Charging_Adjusted_Penalty>
1.80024490901806e-05

> <i_epik_Tot_Q>
0

> <i_epik_Tot_abs_Q>
0

$$$$
