3lpj_ligand
                    3D
 Schrodinger Suite 2020-3.
 89 92  0  0  1  0            999 V2000
   26.7720   15.5390   24.4530 C   0  0  0  0  0  0
   26.9440   10.6810   19.1230 F   0  0  0  0  0  0
   28.5590   13.6580   21.9190 N   0  0  0  0  0  0
   29.0830   13.6710   24.1490 O   0  0  0  0  0  0
   26.9290   14.3350   23.7270 C   0  0  0  0  0  0
   23.0960   13.2670   18.3770 F   0  0  0  0  0  0
   23.5450   11.7420   23.3740 N   0  0  0  0  0  0
   22.1960   13.5700   23.4630 O   0  0  0  0  0  0
   25.7920   13.5270   23.4410 C   0  0  0  0  0  0
   21.0310    9.9670   26.5070 N   0  0  1  0  0  0
   21.0520    8.9800   23.8390 O   0  0  0  0  0  0
   24.5060   13.9100   23.8610 C   0  0  0  0  0  0
   19.1270   12.0900   25.8760 N   0  3  2  0  0  0
   24.3550   15.1240   24.5830 C   0  0  0  0  0  0
   25.4830   15.9430   24.8850 C   0  0  0  0  0  0
   28.2510   13.8790   23.2810 C   0  0  0  0  0  0
   29.9260   13.1710   21.6120 C   0  0  0  0  0  0
   27.6510   13.8710   20.7530 C   0  0  0  0  0  0
   28.1530   15.0140   19.8450 C   0  0  0  0  0  0
   28.3630   16.3380   20.6070 C   0  0  0  0  0  0
   29.8900   11.6850   21.1180 C   0  0  0  0  0  0
   29.1420   10.7020   22.0620 C   0  0  0  0  0  0
   25.3110   17.2320   25.6540 C   0  0  0  0  0  0
   23.3210   13.0860   23.5540 C   0  0  0  0  0  0
   22.4770   10.7660   23.0390 C   0  0  2  0  0  0
   21.9870    9.9670   24.2620 C   0  0  1  0  0  0
   23.0260    9.8400   21.9260 C   0  0  0  0  0  0
   23.7140   10.5970   20.8090 C   0  0  0  0  0  0
   25.0500   10.2850   20.4690 C   0  0  0  0  0  0
   25.6900   10.9910   19.4260 C   0  0  0  0  0  0
   25.0520   12.0090   18.6980 C   0  0  0  0  0  0
   23.7240   12.3130   19.0440 C   0  0  0  0  0  0
   23.0390   11.6330   20.0790 C   0  0  0  0  0  0
   21.2770   10.8240   25.3240 C   0  0  1  0  0  0
   19.9330   11.4310   24.8060 C   0  0  0  0  0  0
   19.0160   11.2530   27.1140 C   0  0  0  0  0  0
   20.3750   10.7170   27.5990 C   0  0  0  0  0  0
   17.7620   12.5170   25.3410 C   0  0  0  0  0  0
   16.7650   11.3810   25.0270 C   0  0  0  0  0  0
   15.7970   10.9700   25.9950 C   0  0  0  0  0  0
   14.8860    9.9250   25.7120 C   0  0  0  0  0  0
   14.9250    9.2740   24.4530 C   0  0  0  0  0  0
   15.8770    9.6690   23.4830 C   0  0  0  0  0  0
   16.7850   10.7120   23.7670 C   0  0  0  0  0  0
   27.6414   16.1559   24.6803 H   0  0  0  0  0  0
   24.5843   11.4013   23.4915 H   0  0  0  0  0  0
   25.9206   12.5967   22.8877 H   0  0  0  0  0  0
   20.3786    9.1282   26.2228 H   0  0  0  0  0  0
   21.3383    8.2433   23.0740 H   0  0  0  0  0  0
   19.6879   12.9850   26.1833 H   0  0  0  0  0  0
   23.3628   15.4341   24.9109 H   0  0  0  0  0  0
   30.3693   13.7961   20.8228 H   0  0  0  0  0  0
   30.5477   13.2283   22.5177 H   0  0  0  0  0  0
   27.5996   12.9491   20.1551 H   0  0  0  0  0  0
   26.6449   14.1303   21.1143 H   0  0  0  0  0  0
   29.1161   14.7296   19.3961 H   0  0  0  0  0  0
   27.4176   15.1992   19.0482 H   0  0  0  0  0  0
   28.7194   17.1101   19.9092 H   0  0  0  0  0  0
   29.1090   16.1894   21.4016 H   0  0  0  0  0  0
   27.4104   16.6590   21.0537 H   0  0  0  0  0  0
   29.3837   11.6350   20.1427 H   0  0  0  0  0  0
   30.9181   11.3071   21.0171 H   0  0  0  0  0  0
   29.1699    9.6893   21.6334 H   0  0  0  0  0  0
   28.0962   11.0245   22.1730 H   0  0  0  0  0  0
   29.6307   10.6967   23.0475 H   0  0  0  0  0  0
   26.2908   17.7146   25.7845 H   0  0  0  0  0  0
   24.8748   17.0151   26.6403 H   0  0  0  0  0  0
   24.6421   17.9047   25.0971 H   0  0  0  0  0  0
   21.6067   11.3444   22.6954 H   0  0  0  0  0  0
   22.8590    9.4619   24.7029 H   0  0  0  0  0  0
   23.7597    9.1433   22.3575 H   0  0  0  0  0  0
   22.1970    9.2702   21.4810 H   0  0  0  0  0  0
   25.5841    9.5032   21.0091 H   0  0  0  0  0  0
   25.5658   12.5414   17.8976 H   0  0  0  0  0  0
   22.0083   11.8933   20.3198 H   0  0  0  0  0  0
   21.9360   11.6530   25.6213 H   0  0  0  0  0  0
   19.3506   10.6108   24.3609 H   0  0  0  0  0  0
   20.1821   12.1679   24.0282 H   0  0  0  0  0  0
   18.5845   11.8558   27.9267 H   0  0  0  0  0  0
   18.3666   10.3878   26.9147 H   0  0  0  0  0  0
   20.2186   10.0499   28.4596 H   0  0  0  0  0  0
   21.0140   11.5602   27.9001 H   0  0  0  0  0  0
   17.2636   13.1613   26.0803 H   0  0  0  0  0  0
   17.8940   13.0722   24.4006 H   0  0  0  0  0  0
   15.7601   11.4681   26.9638 H   0  0  0  0  0  0
   14.1550    9.6207   26.4611 H   0  0  0  0  0  0
   14.2226    8.4702   24.2324 H   0  0  0  0  0  0
   15.9091    9.1674   22.5158 H   0  0  0  0  0  0
   17.5124   11.0107   23.0122 H   0  0  0  0  0  0
  1  5  2  0  0  0
  1 15  1  0  0  0
  1 45  1  0  0  0
  2 30  1  0  0  0
  3 16  1  0  0  0
  3 17  1  0  0  0
  3 18  1  0  0  0
  4 16  2  0  0  0
  5  9  1  0  0  0
  5 16  1  0  0  0
  6 32  1  0  0  0
  7 24  1  0  0  0
  7 25  1  0  0  0
  7 46  1  0  0  0
  8 24  2  0  0  0
  9 12  2  0  0  0
  9 47  1  0  0  0
 10 34  1  0  0  0
 10 37  1  0  0  0
 10 48  1  0  0  0
 11 26  1  0  0  0
 11 49  1  0  0  0
 12 14  1  0  0  0
 12 24  1  0  0  0
 13 35  1  0  0  0
 13 36  1  0  0  0
 13 38  1  0  0  0
 13 50  1  0  0  0
 14 15  2  0  0  0
 14 51  1  0  0  0
 15 23  1  0  0  0
 17 21  1  0  0  0
 17 52  1  0  0  0
 17 53  1  0  0  0
 18 19  1  0  0  0
 18 54  1  0  0  0
 18 55  1  0  0  0
 19 20  1  0  0  0
 19 56  1  0  0  0
 19 57  1  0  0  0
 20 58  1  0  0  0
 20 59  1  0  0  0
 20 60  1  0  0  0
 21 22  1  0  0  0
 21 61  1  0  0  0
 21 62  1  0  0  0
 22 63  1  0  0  0
 22 64  1  0  0  0
 22 65  1  0  0  0
 23 66  1  0  0  0
 23 67  1  0  0  0
 23 68  1  0  0  0
 25 26  1  0  0  0
 25 27  1  0  0  0
 25 69  1  0  0  0
 26 34  1  0  0  0
 26 70  1  0  0  0
 27 28  1  0  0  0
 27 71  1  0  0  0
 27 72  1  0  0  0
 28 29  2  0  0  0
 28 33  1  0  0  0
 29 30  1  0  0  0
 29 73  1  0  0  0
 30 31  2  0  0  0
 31 32  1  0  0  0
 31 74  1  0  0  0
 32 33  2  0  0  0
 33 75  1  0  0  0
 34 35  1  0  0  0
 34 76  1  0  0  0
 35 77  1  0  0  0
 35 78  1  0  0  0
 36 37  1  0  0  0
 36 79  1  0  0  0
 36 80  1  0  0  0
 37 81  1  0  0  0
 37 82  1  0  0  0
 38 39  1  0  0  0
 38 83  1  0  0  0
 38 84  1  0  0  0
 39 40  2  0  0  0
 39 44  1  0  0  0
 40 41  1  0  0  0
 40 85  1  0  0  0
 41 42  2  0  0  0
 41 86  1  0  0  0
 42 43  1  0  0  0
 42 87  1  0  0  0
 43 44  2  0  0  0
 43 88  1  0  0  0
 44 89  1  0  0  0
M  CHG  1  13   1
M  END
> <s_m_source_file>
../3lpj_ligand.sdf

> <i_m_source_file_index>
1

> <s_epik_input>
W0NIM11bQ0gyXVtDSDJdTihbQ0gyXVtDSDJdW0NIM10pQyg9TyljMVtjSF1jKFtDSDNdKVtjSF1jKFtjSF0xKUMoPU8pW05IXVtDQEBIXShbQ0gyXWMyW2NIXWMoRilbY0hdYyhGKVtjSF0yKVtDQEhdKFtPSF0pW0NASF0oW05IMitdW0NIMl1bQ0gyXTMpW0NIMl1bTkBIK10zW0NIMl1jNFtjSF1bY0hdW2NIXVtjSF1bY0hdNA==

> <s_epik_cmdline>
J2VwaWtfYXBwJywgJy1pbWFlJywgJ2xpZ2FuZF9wcm8ubWFlJywgJy1vbWFlJywgJ2xpZ2FuZF9wcmVwLm1hZScsICctbXMnLCAnMScsICctcGgnLCAnNycsICctcGh0JywgJzAuNScsICctbnQn

> <r_lp_tautomer_probability>
1

> <r_epik_Ionization_Penalty>
  0.0325

> <r_epik_Ionization_Penalty_Charging>
  0.0277

> <r_epik_Ionization_Penalty_Neutral>
  0.0048

> <r_epik_State_Penalty>
 -0.0000

> <r_epik_Charging_Adjusted_Penalty>
0.0276960380317493

> <i_epik_Tot_Q>
1

> <i_epik_Tot_abs_Q>
1

$$$$
