3lpk_ligand
                    3D
 Schrodinger Suite 2020-3.
 90 94  0  0  1  0            999 V2000
   26.8180   15.4440   24.4540 C   0  0  0  0  0  0
   26.8000   10.9570   18.7530 F   0  0  0  0  0  0
   28.5350   13.7020   21.9030 N   0  0  0  0  0  0
   29.2400   13.5910   24.0520 O   0  0  0  0  0  0
   17.8210   12.9150   25.2690 S   0  0  0  0  0  0
   26.9870   14.2580   23.6810 C   0  0  0  0  0  0
   22.6960   13.2920   18.1430 F   0  0  0  0  0  0
   23.6440   11.7320   23.2570 N   0  0  0  0  0  0
   22.2620   13.5200   23.1620 O   0  0  0  0  0  0
   25.8400   13.4740   23.3350 C   0  0  0  0  0  0
   21.1940    9.9620   26.3420 N   0  0  1  0  0  0
   21.1370    8.9980   23.6200 O   0  0  0  0  0  0
   24.5400   13.8700   23.7460 C   0  0  0  0  0  0
   19.2910   12.0850   25.7630 N   0  0  2  0  0  0
   24.3740   15.0610   24.5160 C   0  0  0  0  0  0
   29.2820   11.2170   22.5620 O   0  0  0  0  0  0
   25.5140   15.8460   24.8690 C   0  0  0  0  0  0
   17.3120   13.5330   26.4560 O   0  0  0  0  0  0
   28.3340   13.8310   23.2550 C   0  0  0  0  0  0
   18.1980   13.7170   24.1460 O   0  0  0  0  0  0
   29.8470   13.2800   21.4110 C   0  0  2  0  0  0
   27.5740   13.9570   20.8380 C   0  0  0  0  0  0
   28.3900   14.2350   19.6000 C   0  0  0  0  0  0
   29.8250   13.9050   20.0090 C   0  0  0  0  0  0
   29.7950   11.7450   21.3470 C   0  0  0  0  0  0
   25.3430   17.0730   25.6640 C   0  0  0  0  0  0
   23.3810   13.0550   23.3680 C   0  0  0  0  0  0
   22.5430   10.8400   22.8710 C   0  0  2  0  0  0
   22.0720    9.9840   24.0820 C   0  0  1  0  0  0
   23.0140    9.9060   21.7430 C   0  0  0  0  0  0
   23.6170   10.6880   20.5880 C   0  0  0  0  0  0
   24.9680   10.4490   20.2010 C   0  0  0  0  0  0
   25.5380   11.1780   19.1160 C   0  0  0  0  0  0
   24.7650   12.1420   18.4180 C   0  0  0  0  0  0
   23.4180   12.3830   18.8020 C   0  0  0  0  0  0
   22.8400   11.6570   19.8850 C   0  0  0  0  0  0
   20.0450   11.3900   24.6920 C   0  0  0  0  0  0
   19.1820   11.1940   26.9420 C   0  0  0  0  0  0
   20.5470   10.7280   27.4120 C   0  0  0  0  0  0
   21.3940   10.8400   25.1800 C   0  0  1  0  0  0
   15.6250    9.8930   21.5440 C   0  0  0  0  0  0
   29.5580    9.8250   22.6760 C   0  0  0  0  0  0
   15.9480   10.9250   25.7200 C   0  0  0  0  0  0
   15.0680    9.8830   25.3110 C   0  0  0  0  0  0
   14.9630    9.5440   23.9330 C   0  0  0  0  0  0
   15.7360   10.2450   22.9650 C   0  0  0  0  0  0
   16.6170   11.2870   23.3730 C   0  0  0  0  0  0
   16.7220   11.6270   24.7510 C   0  0  0  0  0  0
   27.6859   16.0439   24.7280 H   0  0  0  0  0  0
   24.6458   11.3191   23.4462 H   0  0  0  0  0  0
   25.9662   12.5632   22.7497 H   0  0  0  0  0  0
   22.1657    9.5869   26.6956 H   0  0  0  0  0  0
   21.4310    8.2870   22.8339 H   0  0  0  0  0  0
   23.3785   15.3708   24.8341 H   0  0  0  0  0  0
   30.7118   13.5845   22.0187 H   0  0  0  0  0  0
   26.9341   13.0727   20.7021 H   0  0  0  0  0  0
   26.9507   14.8228   21.1061 H   0  0  0  0  0  0
   28.0390   13.5939   18.7779 H   0  0  0  0  0  0
   28.2762   15.2914   19.3154 H   0  0  0  0  0  0
   30.4204   14.8299   20.0105 H   0  0  0  0  0  0
   30.2515   13.1956   19.2845 H   0  0  0  0  0  0
   30.8111   11.3584   21.1793 H   0  0  0  0  0  0
   29.1453   11.4426   20.5125 H   0  0  0  0  0  0
   26.3247   17.5387   25.8353 H   0  0  0  0  0  0
   24.8823   16.8222   26.6309 H   0  0  0  0  0  0
   24.6941   17.7750   25.1198 H   0  0  0  0  0  0
   21.7335   11.5002   22.5262 H   0  0  0  0  0  0
   22.9264    9.4409   24.5122 H   0  0  0  0  0  0
   23.7773    9.2164   22.1327 H   0  0  0  0  0  0
   22.1580    9.3288   21.3634 H   0  0  0  0  0  0
   25.5651    9.7093   20.7342 H   0  0  0  0  0  0
   25.2037   12.6968   17.5886 H   0  0  0  0  0  0
   21.8058   11.8420   20.1755 H   0  0  0  0  0  0
   19.4516   10.5436   24.3159 H   0  0  0  0  0  0
   20.2446   12.0922   23.8692 H   0  0  0  0  0  0
   18.6950   11.7350   27.7667 H   0  0  0  0  0  0
   18.5828   10.3097   26.6792 H   0  0  0  0  0  0
   20.4320   10.0907   28.3012 H   0  0  0  0  0  0
   21.1668   11.6010   27.6644 H   0  0  0  0  0  0
   22.0203   11.6914   25.4849 H   0  0  0  0  0  0
   14.9020    9.0726   21.4249 H   0  0  0  0  0  0
   16.6079    9.5731   21.1677 H   0  0  0  0  0  0
   15.2820   10.7696   20.9748 H   0  0  0  0  0  0
   29.1493    9.4467   23.6246 H   0  0  0  0  0  0
   30.6460    9.6640   22.6553 H   0  0  0  0  0  0
   29.0920    9.2888   21.8362 H   0  0  0  0  0  0
   16.0297   11.1859   26.7751 H   0  0  0  0  0  0
   14.4759    9.3460   26.0521 H   0  0  0  0  0  0
   14.2898    8.7466   23.6184 H   0  0  0  0  0  0
   17.2095   11.8229   22.6315 H   0  0  0  0  0  0
  1  6  2  0  0  0
  1 17  1  0  0  0
  1 49  1  0  0  0
  2 33  1  0  0  0
  3 19  1  0  0  0
  3 21  1  0  0  0
  3 22  1  0  0  0
  4 19  2  0  0  0
  5 14  1  0  0  0
  5 18  2  0  0  0
  5 20  2  0  0  0
  5 48  1  0  0  0
  6 10  1  0  0  0
  6 19  1  0  0  0
  7 35  1  0  0  0
  8 27  1  0  0  0
  8 28  1  0  0  0
  8 50  1  0  0  0
  9 27  2  0  0  0
 10 13  2  0  0  0
 10 51  1  0  0  0
 11 39  1  0  0  0
 11 40  1  0  0  0
 11 52  1  0  0  0
 12 29  1  0  0  0
 12 53  1  0  0  0
 13 15  1  0  0  0
 13 27  1  0  0  0
 14 37  1  0  0  0
 14 38  1  0  0  0
 15 17  2  0  0  0
 15 54  1  0  0  0
 16 25  1  0  0  0
 16 42  1  0  0  0
 17 26  1  0  0  0
 21 24  1  0  0  0
 21 25  1  0  0  0
 21 55  1  0  0  0
 22 23  1  0  0  0
 22 56  1  0  0  0
 22 57  1  0  0  0
 23 24  1  0  0  0
 23 58  1  0  0  0
 23 59  1  0  0  0
 24 60  1  0  0  0
 24 61  1  0  0  0
 25 62  1  0  0  0
 25 63  1  0  0  0
 26 64  1  0  0  0
 26 65  1  0  0  0
 26 66  1  0  0  0
 28 29  1  0  0  0
 28 30  1  0  0  0
 28 67  1  0  0  0
 29 40  1  0  0  0
 29 68  1  0  0  0
 30 31  1  0  0  0
 30 69  1  0  0  0
 30 70  1  0  0  0
 31 32  2  0  0  0
 31 36  1  0  0  0
 32 33  1  0  0  0
 32 71  1  0  0  0
 33 34  2  0  0  0
 34 35  1  0  0  0
 34 72  1  0  0  0
 35 36  2  0  0  0
 36 73  1  0  0  0
 37 40  1  0  0  0
 37 74  1  0  0  0
 37 75  1  0  0  0
 38 39  1  0  0  0
 38 76  1  0  0  0
 38 77  1  0  0  0
 39 78  1  0  0  0
 39 79  1  0  0  0
 40 80  1  0  0  0
 41 46  1  0  0  0
 41 81  1  0  0  0
 41 82  1  0  0  0
 41 83  1  0  0  0
 42 84  1  0  0  0
 42 85  1  0  0  0
 42 86  1  0  0  0
 43 44  2  0  0  0
 43 48  1  0  0  0
 43 87  1  0  0  0
 44 45  1  0  0  0
 44 88  1  0  0  0
 45 46  2  0  0  0
 45 89  1  0  0  0
 46 47  1  0  0  0
 47 48  2  0  0  0
 47 90  1  0  0  0
M  END
> <s_m_source_file>
../3lpk_ligand.sdf

> <i_m_source_file_index>
1

> <s_epik_input>
W0NIMl0xW0NIMl1bQ0gyXVtDQEhdKFtDSDJdT1tDSDNdKU4xQyg9TyljMltjSF1jKFtDSDNdKVtjSF1jKFtjSF0yKUMoPU8pW05IXVtDQEBIXShbQ0gyXWMzW2NIXWMoRilbY0hdYyhGKVtjSF0zKVtDQEhdKFtPSF0pW0NASF0oW05IMitdW0NIMl1bQ0gyXTQpW0NIMl1ONFMoPU8pKD1PKWMoW2NIXTUpW2NIXVtjSF1bY0hdYzVbQ0gzXQ==

> <s_epik_cmdline>
J2VwaWtfYXBwJywgJy1pbWFlJywgJ2xpZ2FuZF9wcm8ubWFlJywgJy1vbWFlJywgJ2xpZ2FuZF9wcmVwLm1hZScsICctbXMnLCAnMScsICctcGgnLCAnNycsICctcGh0JywgJzAuNScsICctbnQn

> <r_epik_Ionization_Penalty>
  0.2987

> <r_epik_Ionization_Penalty_Charging>
  0.0000

> <r_epik_Ionization_Penalty_Neutral>
  0.2987

> <r_epik_State_Penalty>
  0.2921

> <r_epik_Charging_Adjusted_Penalty>
0.292125192929124

> <i_epik_Tot_Q>
0

> <i_epik_Tot_abs_Q>
0

$$$$
