3lpp_ligand
                    3D
 Schrodinger Suite 2020-3.
 50 50  0  0  1  0            999 V2000
   42.6470   59.5550   72.8240 O   0  0  0  0  0  0
   40.0720   55.7350   84.0270 O   0  0  0  0  0  0
   41.2560   57.7780   74.3250 O   0  0  0  0  0  0
   36.5150   59.1090   83.8500 O   0  0  0  0  0  0
   37.6510   58.0580   78.7070 O   0  0  0  0  0  0
   38.7030   59.3910   73.9830 O   0  0  0  0  0  0
   39.1760   58.8960   84.8880 O   0  0  0  0  0  0
   39.6160   57.1640   75.9630 O   0  0  0  0  0  0
   41.6450   61.4230   76.9670 O   0  0  0  0  0  0
   41.1400   61.0200   79.2730 O   0  5  0  0  0  0
   43.1830   60.1080   78.3000 O   0  0  0  0  0  0
   41.4410   60.0520   73.4210 C   0  0  0  0  0  0
   40.7500   56.6760   83.1940 C   0  0  0  0  0  0
   37.4150   58.0280   81.7850 C   0  0  0  0  0  0
   39.5710   58.4240   80.1450 C   0  0  0  0  0  0
   41.0030   59.0560   77.6610 O   0  0  0  0  0  0
   41.0630   59.1770   74.6210 C   0  0  1  0  0  0
   37.6700   58.8820   83.0350 C   0  0  2  0  0  0
   39.0800   58.0570   78.7400 C   0  0  2  0  0  0
   39.6290   59.4520   75.0930 C   0  0  2  0  0  0
   38.7240   58.1130   83.8030 C   0  0  1  0  0  0
   39.1640   58.5140   76.2170 C   0  0  2  0  0  0
   39.8110   57.8080   82.7770 C   0  0  2  0  0  0
   39.5880   58.9840   77.6190 C   0  0  2  0  0  0
   38.9440   57.4870   81.3760 S   0  0  1  0  0  0
   41.7600   60.4420   78.0570 S   0  0  0  0  0  0
   43.0737   60.0593   71.9444 H   0  0  0  0  0  0
   40.6089   54.8566   84.4145 H   0  0  0  0  0  0
   42.2350   57.4201   73.9737 H   0  0  0  0  0  0
   35.6527   59.6564   83.4416 H   0  0  0  0  0  0
   37.0837   57.4548   79.4311 H   0  0  0  0  0  0
   38.8797   60.0015   73.0852 H   0  0  0  0  0  0
   38.4787   59.1785   85.6905 H   0  0  0  0  0  0
   39.3920   56.6809   75.0005 H   0  0  0  0  0  0
   41.5985   61.0870   73.7585 H   0  0  0  0  0  0
   40.6281   60.0276   72.6803 H   0  0  0  0  0  0
   41.6008   57.1055   83.7432 H   0  0  0  0  0  0
   41.1162   56.1680   82.2896 H   0  0  0  0  0  0
   36.7298   57.2051   82.0367 H   0  0  0  0  0  0
   36.9647   58.6528   80.9996 H   0  0  0  0  0  0
   40.6647   58.3155   80.1912 H   0  0  0  0  0  0
   39.2960   59.4652   80.3692 H   0  0  0  0  0  0
   41.7599   59.3781   75.4480 H   0  0  0  0  0  0
   37.9348   59.9205   82.7873 H   0  0  0  0  0  0
   39.4209   57.0303   78.5410 H   0  0  0  0  0  0
   39.5941   60.4866   75.4649 H   0  0  0  0  0  0
   38.3717   57.2071   84.3180 H   0  0  0  0  0  0
   38.0652   58.4665   76.1973 H   0  0  0  0  0  0
   40.5393   58.6318   82.7469 H   0  0  0  0  0  0
   39.2166   60.0029   77.8028 H   0  0  0  0  0  0
  1 12  1  0  0  0
  1 27  1  0  0  0
  2 13  1  0  0  0
  2 28  1  0  0  0
  3 17  1  0  0  0
  3 29  1  0  0  0
  4 18  1  0  0  0
  4 30  1  0  0  0
  5 19  1  0  0  0
  5 31  1  0  0  0
  6 20  1  0  0  0
  6 32  1  0  0  0
  7 21  1  0  0  0
  7 33  1  0  0  0
  8 22  1  0  0  0
  8 34  1  0  0  0
  9 26  2  0  0  0
 10 26  1  0  0  0
 11 26  2  0  0  0
 12 17  1  0  0  0
 12 35  1  0  0  0
 12 36  1  0  0  0
 13 23  1  0  0  0
 13 37  1  0  0  0
 13 38  1  0  0  0
 14 18  1  0  0  0
 14 25  1  0  0  0
 14 39  1  0  0  0
 14 40  1  0  0  0
 15 19  1  0  0  0
 15 25  1  0  0  0
 15 41  1  0  0  0
 15 42  1  0  0  0
 16 24  1  0  0  0
 16 26  1  0  0  0
 17 20  1  0  0  0
 17 43  1  0  0  0
 18 21  1  0  0  0
 18 44  1  0  0  0
 19 24  1  0  0  0
 19 45  1  0  0  0
 20 22  1  0  0  0
 20 46  1  0  0  0
 21 23  1  0  0  0
 21 47  1  0  0  0
 22 24  1  0  0  0
 22 48  1  0  0  0
 23 25  1  0  0  0
 23 49  1  0  0  0
 24 50  1  0  0  0
M  CHG  1  10  -1
M  END
> <s_m_source_file>
../3lpp_ligand.sdf

> <i_m_source_file_index>
1

> <s_epik_input>
W09IXVtDSDJdW0NASF0oW09IXSlbQ0BASF0oW09IXSlbQ0BASF0oW09IXSlbQ0BIXShPUyg9TykoPU8pW09IXSlbQ0BIXShbT0hdKVtDSDJdW1NASF0oW0NIMl1bQ0BIXTFbT0hdKVtDQEhdKFtDSDJdW09IXSlbQ0BIXTFbT0hd

> <s_epik_cmdline>
J2VwaWtfYXBwJywgJy1pbWFlJywgJ2xpZ2FuZF9wcm8ubWFlJywgJy1vbWFlJywgJ2xpZ2FuZF9wcmVwLm1hZScsICctbXMnLCAnMScsICctcGgnLCAnNycsICctcGh0JywgJzAuNScsICctbnQn

> <r_lp_tautomer_probability>
1

> <r_epik_Ionization_Penalty>
  0.0000

> <r_epik_Ionization_Penalty_Charging>
  0.0000

> <r_epik_Ionization_Penalty_Neutral>
  0.0000

> <r_epik_State_Penalty>
 -0.0000

> <r_epik_Charging_Adjusted_Penalty>
1.03515702312639e-10

> <i_epik_Tot_Q>
-1

> <i_epik_Tot_abs_Q>
1

$$$$
