3lpr_ligand
                    3D
 Schrodinger Suite 2020-3.
 58 58  0  0  1  0            999 V2000
   13.3950   42.1230   18.4390 N   0  3  0  0  0  0
   14.0740   40.8370   18.1880 C   0  0  2  0  0  0
   13.2860   39.5590   18.5100 C   0  0  0  0  0  0
   12.5540   39.4950   19.5330 O   0  0  0  0  0  0
   15.3450   40.7190   19.0220 C   0  0  0  0  0  0
   13.4790   38.6010   17.6180 N   0  0  0  0  0  0
   12.7370   37.3270   17.8020 C   0  0  2  0  0  0
   13.6570   36.1830   17.4020 C   0  0  0  0  0  0
   14.4930   36.4690   16.5500 O   0  0  0  0  0  0
   11.5350   37.3970   16.8520 C   0  0  0  0  0  0
   13.4180   35.0310   17.9690 N   0  0  0  0  0  0
   14.1920   33.8350   17.6370 C   0  0  2  0  0  0
   13.9820   33.4800   16.1590 C   0  0  0  0  0  0
   12.8750   33.7550   15.6660 O   0  0  0  0  0  0
   13.5770   32.7330   18.5060 C   0  0  0  0  0  0
   12.7890   33.4300   19.5770 C   0  0  0  0  0  0
   12.3520   34.7730   18.9690 C   0  0  0  0  0  0
   14.9580   32.8800   15.5020 N   0  0  0  0  0  0
   14.8580   32.4620   14.1040 C   0  0  1  0  0  0
   15.8830   33.1890   13.2190 C   0  0  0  0  0  0
   15.5590   34.6760   12.9610 C   0  0  0  0  0  0
   16.7520   35.3050   12.2450 C   0  0  0  0  0  0
   16.7530   36.8380   12.1810 C   0  0  0  0  0  0
   14.9600   30.8930   14.0800 B   0  0  0  0  0  0
   14.9410   30.3040   12.7170 O   0  0  0  0  0  0
   14.0240   30.2070   15.0150 O   0  0  0  0  0  0
   12.4834   42.1820   17.8262 H   0  0  0  0  0  0
   14.0689   42.9512   18.1745 H   0  0  0  0  0  0
   13.1266   42.1943   19.5034 H   0  0  0  0  0  0
   14.2253   40.9219   17.1018 H   0  0  0  0  0  0
   15.9782   41.6024   18.8524 H   0  0  0  0  0  0
   15.8939   39.8124   18.7275 H   0  0  0  0  0  0
   15.0798   40.6571   20.0878 H   0  0  0  0  0  0
   14.1601   38.7222   16.7628 H   0  0  0  0  0  0
   12.4235   37.1907   18.8475 H   0  0  0  0  0  0
   10.8786   38.2272   17.1518 H   0  0  0  0  0  0
   10.9750   36.4514   16.8990 H   0  0  0  0  0  0
   11.8894   37.5626   15.8239 H   0  0  0  0  0  0
   15.2621   34.0097   17.8224 H   0  0  0  0  0  0
   12.9258   32.0984   17.8869 H   0  0  0  0  0  0
   14.3791   32.1197   18.9424 H   0  0  0  0  0  0
   11.9196   32.8147   19.8517 H   0  0  0  0  0  0
   13.4256   33.5807   20.4613 H   0  0  0  0  0  0
   12.3340   35.5904   19.7049 H   0  0  0  0  0  0
   11.3782   34.7160   18.4605 H   0  0  0  0  0  0
   15.8852   32.6986   16.0653 H   0  0  0  0  0  0
   13.8851   32.7982   13.7163 H   0  0  0  0  0  0
   16.8721   33.1541   13.6991 H   0  0  0  0  0  0
   15.9345   32.6961   12.2370 H   0  0  0  0  0  0
   14.6582   34.7516   12.3342 H   0  0  0  0  0  0
   15.3819   35.1845   13.9202 H   0  0  0  0  0  0
   17.6813   35.0160   12.7577 H   0  0  0  0  0  0
   16.7826   34.9517   11.2037 H   0  0  0  0  0  0
   17.6512   37.1821   11.6473 H   0  0  0  0  0  0
   16.7536   37.2476   13.2019 H   0  0  0  0  0  0
   15.8549   37.1833   11.6479 H   0  0  0  0  0  0
   15.5874   30.7188   11.9295 H   0  0  0  0  0  0
   13.9416   30.5464   16.0581 H   0  0  0  0  0  0
  1  2  1  0  0  0
  1 27  1  0  0  0
  1 28  1  0  0  0
  1 29  1  0  0  0
  2  3  1  0  0  0
  2  5  1  0  0  0
  2 30  1  0  0  0
  3  4  2  0  0  0
  3  6  1  0  0  0
  5 31  1  0  0  0
  5 32  1  0  0  0
  5 33  1  0  0  0
  6  7  1  0  0  0
  6 34  1  0  0  0
  7  8  1  0  0  0
  7 10  1  0  0  0
  7 35  1  0  0  0
  8  9  2  0  0  0
  8 11  1  0  0  0
 10 36  1  0  0  0
 10 37  1  0  0  0
 10 38  1  0  0  0
 11 12  1  0  0  0
 11 17  1  0  0  0
 12 13  1  0  0  0
 12 15  1  0  0  0
 12 39  1  0  0  0
 13 14  2  0  0  0
 13 18  1  0  0  0
 15 16  1  0  0  0
 15 40  1  0  0  0
 15 41  1  0  0  0
 16 17  1  0  0  0
 16 42  1  0  0  0
 16 43  1  0  0  0
 17 44  1  0  0  0
 17 45  1  0  0  0
 18 19  1  0  0  0
 18 46  1  0  0  0
 19 20  1  0  0  0
 19 24  1  0  0  0
 19 47  1  0  0  0
 20 21  1  0  0  0
 20 48  1  0  0  0
 20 49  1  0  0  0
 21 22  1  0  0  0
 21 50  1  0  0  0
 21 51  1  0  0  0
 22 23  1  0  0  0
 22 52  1  0  0  0
 22 53  1  0  0  0
 23 54  1  0  0  0
 23 55  1  0  0  0
 23 56  1  0  0  0
 24 25  1  0  0  0
 24 26  1  0  0  0
 25 57  1  0  0  0
 26 58  1  0  0  0
M  CHG  1   1   1
M  END
> <s_m_source_file>
../3lpr_ligand.sdf

> <i_m_source_file_index>
1

> <s_epik_input>
W05IMytdW0NAQEhdKFtDSDNdKUMoPU8pW05IXVtDQEBIXShbQ0gzXSlDKD1PKU4xW0NAQEhdKFtDSDJdW0NIMl1bQ0gyXTEpQyg9TylbTkhdW0NASF0oQihbT0hdKVtPSF0pW0NIMl1bQ0gyXVtDSDJdW0NIM10=

> <s_epik_cmdline>
J2VwaWtfYXBwJywgJy1pbWFlJywgJ2xpZ2FuZF9wcm8ubWFlJywgJy1vbWFlJywgJ2xpZ2FuZF9wcmVwLm1hZScsICctbXMnLCAnMScsICctcGgnLCAnNycsICctcGh0JywgJzAuNScsICctbnQn

> <r_epik_Ionization_Penalty>
  0.1233

> <r_epik_Ionization_Penalty_Charging>
  0.1233

> <r_epik_Ionization_Penalty_Neutral>
  0.0000

> <r_epik_State_Penalty>
  0.1128

> <r_epik_Charging_Adjusted_Penalty>
0.236084207461101

> <i_epik_Tot_Q>
1

> <i_epik_Tot_abs_Q>
1

> <s_epik_Chemistry_Notes>
This compound contains a Lewis acid (boronic acid) which adds nucleophiles to form tetrahedral complexes, lowering the experimental pKa

$$$$
