3lq2_ligand
                    3D
 Schrodinger Suite 2020-3.
 42 43  0  0  1  0            999 V2000
   24.3550  -59.6140    1.5870 N   0  0  0  0  0  0
   24.1320  -58.7230    0.5550 C   0  0  0  0  0  0
   24.2420  -57.2720    0.8740 C   0  0  0  0  0  0
   23.8250  -59.1140   -0.6860 N   0  0  0  0  0  0
   23.7250  -60.4800   -0.9610 C   0  0  0  0  0  0
   23.4320  -60.8050   -2.2050 N   0  0  0  0  0  0
   23.9560  -61.4690    0.1180 C   0  0  0  0  0  0
   24.2660  -60.9720    1.3620 C   0  0  0  0  0  0
   23.8830  -62.9680   -0.0770 C   0  0  0  0  0  0
   22.4710  -63.5100   -0.0770 N   0  3  0  0  0  0
   21.7440  -63.6370   -1.1720 C   0  0  0  0  0  0
   20.2410  -64.2950   -0.8810 S   0  0  0  0  0  0
   20.5630  -64.4230    0.8080 C   0  0  0  0  0  0
   21.8180  -63.9540    1.0950 C   0  0  0  0  0  0
   22.4860  -63.8830    2.4390 C   0  0  0  0  0  0
   19.5490  -64.9870    1.7590 C   0  0  0  0  0  0
   18.1780  -65.1000    1.1420 C   0  0  0  0  0  0
   17.1940  -64.8800    2.1940 O   0  0  0  0  0  0
   15.9390  -63.8730    2.0090 P   0  0  1  0  0  0
   15.2310  -64.3730    0.6470 O   0  0  0  0  0  0
   15.0010  -64.1030    3.1330 O   0  0  0  0  0  0
   16.4580  -62.4920    1.7820 O   0  5  0  0  0  0
   14.6880  -65.7750    0.0690 P   0  0  0  0  0  0
   13.2930  -65.4720   -0.5610 O   0  5  0  0  0  0
   15.6240  -66.1910   -1.0090 O   0  0  0  0  0  0
   14.5090  -66.7050    1.2200 O   0  5  0  0  0  0
   24.4999  -57.1486    1.9362 H   0  0  0  0  0  0
   23.2805  -56.7779    0.6703 H   0  0  0  0  0  0
   25.0268  -56.8181    0.2510 H   0  0  0  0  0  0
   23.2730  -60.0175   -2.9563 H   0  0  0  0  0  0
   23.3466  -61.8636   -2.4914 H   0  0  0  0  0  0
   24.4447  -61.6637    2.1853 H   0  0  0  0  0  0
   24.3374  -63.2347   -1.0426 H   0  0  0  0  0  0
   24.4279  -63.4705    0.7358 H   0  0  0  0  0  0
   22.0907  -63.3423   -2.1625 H   0  0  0  0  0  0
   23.4930  -63.4552    2.3258 H   0  0  0  0  0  0
   22.5631  -64.8946    2.8640 H   0  0  0  0  0  0
   21.8909  -63.2472    3.1111 H   0  0  0  0  0  0
   19.8621  -65.9932    2.0744 H   0  0  0  0  0  0
   19.4704  -64.3342    2.6408 H   0  0  0  0  0  0
   18.0675  -64.3419    0.3527 H   0  0  0  0  0  0
   18.0530  -66.1027    0.7073 H   0  0  0  0  0  0
  1  2  2  0  0  0
  1  8  1  0  0  0
  2  3  1  0  0  0
  2  4  1  0  0  0
  3 27  1  0  0  0
  3 28  1  0  0  0
  3 29  1  0  0  0
  4  5  2  0  0  0
  5  6  1  0  0  0
  5  7  1  0  0  0
  6 30  1  0  0  0
  6 31  1  0  0  0
  7  8  2  0  0  0
  7  9  1  0  0  0
  8 32  1  0  0  0
  9 10  1  0  0  0
  9 33  1  0  0  0
  9 34  1  0  0  0
 10 11  2  0  0  0
 10 14  1  0  0  0
 11 12  1  0  0  0
 11 35  1  0  0  0
 12 13  1  0  0  0
 13 14  2  0  0  0
 13 16  1  0  0  0
 14 15  1  0  0  0
 15 36  1  0  0  0
 15 37  1  0  0  0
 15 38  1  0  0  0
 16 17  1  0  0  0
 16 39  1  0  0  0
 16 40  1  0  0  0
 17 18  1  0  0  0
 17 41  1  0  0  0
 17 42  1  0  0  0
 18 19  1  0  0  0
 19 20  1  0  0  0
 19 21  2  0  0  0
 19 22  1  0  0  0
 20 23  1  0  0  0
 23 24  1  0  0  0
 23 25  2  0  0  0
 23 26  1  0  0  0
M  CHG  4  10   1  22  -1  24  -1  26  -1
M  END
> <s_m_source_file>
../3lq2_ligand.sdf

> <i_m_source_file_index>
1

> <s_epik_input>
W0NIM11jMW5bY0hdYyhjKG4xKVtOSDJdKVtDSDJdW24rXTJbY0hdc2MoYzJbQ0gzXSlbQ0gyXVtDSDJdT1tQQEBdKD1PKShbT0hdKU9QKD1PKShbT0hdKVtPSF0=

> <s_epik_cmdline>
J2VwaWtfYXBwJywgJy1pbWFlJywgJ2xpZ2FuZF9wcm8ubWFlJywgJy1vbWFlJywgJ2xpZ2FuZF9wcmVwLm1hZScsICctbXMnLCAnMScsICctcGgnLCAnNycsICctcGh0JywgJzAuNScsICctbnQn

> <r_lp_tautomer_probability>
1

> <r_epik_Ionization_Penalty>
  0.1081

> <r_epik_Ionization_Penalty_Charging>
  0.0846

> <r_epik_Ionization_Penalty_Neutral>
  0.0235

> <r_epik_State_Penalty>
 -0.0000

> <r_epik_Charging_Adjusted_Penalty>
0.0846133443195182

> <i_epik_Tot_Q>
-2

> <i_epik_Tot_abs_Q>
4

$$$$
