3lq4_ligand
                    3D
 Schrodinger Suite 2020-3.
 42 43  0  0  1  0            999 V2000
   25.0280  -59.3640    1.4060 N   0  0  0  0  0  0
   24.5830  -58.4660    0.4550 C   0  0  0  0  0  0
   24.7260  -57.0140    0.7630 C   0  0  0  0  0  0
   24.0360  -58.8510   -0.6990 N   0  0  0  0  0  0
   23.9020  -60.2190   -0.9670 C   0  0  0  0  0  0
   23.3630  -60.5320   -2.1300 N   0  0  0  0  0  0
   24.3640  -61.2170    0.0260 C   0  0  0  0  0  0
   24.9150  -60.7250    1.1860 C   0  0  0  0  0  0
   24.2990  -62.7220   -0.1760 C   0  0  0  0  0  0
   22.8920  -63.2930   -0.2140 N   0  3  0  0  0  0
   22.2770  -63.6300   -1.3340 C   0  0  0  0  0  0
   20.7620  -64.2790   -1.0760 S   0  0  0  0  0  0
   20.9190  -64.1040    0.6320 C   0  0  0  0  0  0
   22.1330  -63.5540    0.9510 C   0  0  0  0  0  0
   22.6700  -63.2510    2.3190 C   0  0  0  0  0  0
   19.8160  -64.5110    1.5640 C   0  0  0  0  0  0
   18.4460  -64.2440    0.9890 C   0  0  0  0  0  0
   17.4760  -64.3920    2.0650 O   0  0  0  0  0  0
   16.0680  -63.5950    2.0730 P   0  0  1  0  0  0
   15.2800  -64.1770    0.7870 O   0  0  0  0  0  0
   15.3350  -63.9930    3.2930 O   0  0  0  0  0  0
   16.3290  -62.1460    1.8410 O   0  5  0  0  0  0
   14.8910  -65.6370    0.2170 P   0  0  0  0  0  0
   13.4600  -65.5020   -0.3900 O   0  5  0  0  0  0
   15.8470  -65.9450   -0.8760 O   0  0  0  0  0  0
   14.8430  -66.5790    1.3660 O   0  5  0  0  0  0
   25.1947  -56.8932    1.7508 H   0  0  0  0  0  0
   23.7330  -56.5407    0.7679 H   0  0  0  0  0  0
   25.3558  -56.5371   -0.0025 H   0  0  0  0  0  0
   23.0422  -59.7370   -2.8193 H   0  0  0  0  0  0
   23.2345  -61.5879   -2.4103 H   0  0  0  0  0  0
   25.2694  -61.4207    1.9465 H   0  0  0  0  0  0
   24.7763  -62.9846   -1.1316 H   0  0  0  0  0  0
   24.8261  -63.2256    0.6477 H   0  0  0  0  0  0
   22.7142  -63.4977   -2.3237 H   0  0  0  0  0  0
   23.6750  -62.8129    2.2296 H   0  0  0  0  0  0
   22.7258  -64.1802    2.9051 H   0  0  0  0  0  0
   22.0028  -62.5378    2.8251 H   0  0  0  0  0  0
   19.8916  -65.5883    1.7732 H   0  0  0  0  0  0
   19.9043  -63.9477    2.5047 H   0  0  0  0  0  0
   18.4119  -63.2227    0.5818 H   0  0  0  0  0  0
   18.2384  -64.9661    0.1856 H   0  0  0  0  0  0
  1  2  2  0  0  0
  1  8  1  0  0  0
  2  3  1  0  0  0
  2  4  1  0  0  0
  3 27  1  0  0  0
  3 28  1  0  0  0
  3 29  1  0  0  0
  4  5  2  0  0  0
  5  6  1  0  0  0
  5  7  1  0  0  0
  6 30  1  0  0  0
  6 31  1  0  0  0
  7  8  2  0  0  0
  7  9  1  0  0  0
  8 32  1  0  0  0
  9 10  1  0  0  0
  9 33  1  0  0  0
  9 34  1  0  0  0
 10 11  2  0  0  0
 10 14  1  0  0  0
 11 12  1  0  0  0
 11 35  1  0  0  0
 12 13  1  0  0  0
 13 14  2  0  0  0
 13 16  1  0  0  0
 14 15  1  0  0  0
 15 36  1  0  0  0
 15 37  1  0  0  0
 15 38  1  0  0  0
 16 17  1  0  0  0
 16 39  1  0  0  0
 16 40  1  0  0  0
 17 18  1  0  0  0
 17 41  1  0  0  0
 17 42  1  0  0  0
 18 19  1  0  0  0
 19 20  1  0  0  0
 19 21  2  0  0  0
 19 22  1  0  0  0
 20 23  1  0  0  0
 23 24  1  0  0  0
 23 25  2  0  0  0
 23 26  1  0  0  0
M  CHG  4  10   1  22  -1  24  -1  26  -1
M  END
> <s_m_source_file>
../3lq4_ligand.sdf

> <i_m_source_file_index>
1

> <s_epik_input>
W0NIM11jMW5bY0hdYyhjKG4xKVtOSDJdKVtDSDJdW24rXTJbY0hdc2MoYzJbQ0gzXSlbQ0gyXVtDSDJdT1tQQEBdKD1PKShbT0hdKU9QKD1PKShbT0hdKVtPSF0=

> <s_epik_cmdline>
J2VwaWtfYXBwJywgJy1pbWFlJywgJ2xpZ2FuZF9wcm8ubWFlJywgJy1vbWFlJywgJ2xpZ2FuZF9wcmVwLm1hZScsICctbXMnLCAnMScsICctcGgnLCAnNycsICctcGh0JywgJzAuNScsICctbnQn

> <r_lp_tautomer_probability>
1

> <r_epik_Ionization_Penalty>
  0.1081

> <r_epik_Ionization_Penalty_Charging>
  0.0846

> <r_epik_Ionization_Penalty_Neutral>
  0.0235

> <r_epik_State_Penalty>
 -0.0000

> <r_epik_Charging_Adjusted_Penalty>
0.0846133443195182

> <i_epik_Tot_Q>
-2

> <i_epik_Tot_abs_Q>
4

$$$$
