3lq5_ligand
                    3D
 Schrodinger Suite 2020-3.
 61 64  0  0  1  0            999 V2000
   55.3360  -17.5040  -11.3650 N   0  0  0  0  0  0
   52.5640  -20.6300  -12.4950 O   0  0  0  0  0  0
   53.9860  -17.4670  -11.4850 C   0  0  0  0  0  0
   53.1850  -18.5830  -11.0300 N   0  0  0  0  0  0
   53.3860  -16.3350  -11.9370 N   0  0  0  0  0  0
   54.1220  -15.2610  -12.2740 C   0  0  0  0  0  0
   55.4730  -15.3040  -12.1610 C   0  0  0  0  0  0
   56.0670  -16.4410  -11.7000 C   0  0  0  0  0  0
   57.4890  -16.5040  -11.4960 N   0  0  0  0  0  0
   55.9610  -14.1320  -12.5600 N   0  0  0  0  0  0
   54.9160  -13.3570  -12.9260 C   0  0  0  0  0  0
   52.4200  -13.6060  -12.9800 C   0  0  0  0  0  0
   53.7810  -14.0610  -12.7440 N   0  0  0  0  0  0
   59.3820  -17.8390  -12.1210 C   0  0  0  0  0  0
   51.6790  -14.3280  -14.1040 C   0  0  0  0  0  0
   51.5930  -13.4670  -11.7050 C   0  0  0  0  0  0
   52.0570  -19.2990  -10.4650 C   0  0  1  0  0  0
   50.7890  -18.4390  -10.5570 C   0  0  0  0  0  0
   49.4790  -19.1140  -10.1560 C   0  0  0  0  0  0
   51.8790  -20.5580  -11.2750 C   0  0  0  0  0  0
   61.1020  -19.7340  -15.3930 C   0  0  0  0  0  0
   61.8240  -18.9440  -16.2670 N   0  0  0  0  0  0
   60.1650  -17.1100  -13.0120 C   0  0  0  0  0  0
   60.9340  -21.1080  -15.6340 C   0  0  0  0  0  0
   60.7360  -17.7670  -14.0950 C   0  0  0  0  0  0
   61.5130  -21.6670  -16.7460 C   0  0  0  0  0  0
   60.5150  -19.1370  -14.2840 C   0  0  0  0  0  0
   62.2370  -20.8740  -17.6090 C   0  0  0  0  0  0
   59.7060  -19.8630  -13.3830 C   0  0  0  0  0  0
   62.3990  -19.4980  -17.3760 C   0  0  0  0  0  0
   59.1250  -19.2070  -12.2890 C   0  0  0  0  0  0
   58.7250  -17.0630  -11.0090 C   0  0  0  0  0  0
   52.4700  -21.5258  -13.1265 H   0  0  0  0  0  0
   54.0708  -19.1365  -11.3749 H   0  0  0  0  0  0
   57.4983  -15.5662  -12.0709 H   0  0  0  0  0  0
   54.9801  -12.3366  -13.3039 H   0  0  0  0  0  0
   52.6220  -12.5928  -13.3577 H   0  0  0  0  0  0
   52.3291  -14.3934  -14.9889 H   0  0  0  0  0  0
   50.7667  -13.7692  -14.3598 H   0  0  0  0  0  0
   51.4077  -15.3412  -13.7726 H   0  0  0  0  0  0
   52.1834  -12.9407  -10.9406 H   0  0  0  0  0  0
   51.3202  -14.4660  -11.3342 H   0  0  0  0  0  0
   50.6792  -12.8941  -11.9213 H   0  0  0  0  0  0
   52.2850  -19.5263   -9.4132 H   0  0  0  0  0  0
   50.8908  -17.5640   -9.8982 H   0  0  0  0  0  0
   50.6488  -18.1022  -11.5948 H   0  0  0  0  0  0
   48.6500  -18.3992  -10.2646 H   0  0  0  0  0  0
   49.5428  -19.4453   -9.1090 H   0  0  0  0  0  0
   49.3008  -19.9836  -10.8056 H   0  0  0  0  0  0
   50.7974  -20.6431  -11.4562 H   0  0  0  0  0  0
   52.2070  -21.3796  -10.6213 H   0  0  0  0  0  0
   60.3272  -16.0425  -12.8626 H   0  0  0  0  0  0
   60.3516  -21.7219  -14.9470 H   0  0  0  0  0  0
   61.3577  -17.2146  -14.7995 H   0  0  0  0  0  0
   61.4005  -22.7327  -16.9451 H   0  0  0  0  0  0
   62.6936  -21.3234  -18.4908 H   0  0  0  0  0  0
   59.5341  -20.9282  -13.5374 H   0  0  0  0  0  0
   62.9737  -18.8827  -18.0682 H   0  0  0  0  0  0
   58.4896  -19.7467  -11.5868 H   0  0  0  0  0  0
   59.3898  -16.2511  -10.6793 H   0  0  0  0  0  0
   58.5159  -17.7326  -10.1617 H   0  0  0  0  0  0
  1  3  1  0  0  0
  1  8  2  0  0  0
  2 20  1  0  0  0
  2 33  1  0  0  0
  3  4  1  0  0  0
  3  5  2  0  0  0
  4 17  1  0  0  0
  4 34  1  0  0  0
  5  6  1  0  0  0
  6  7  2  0  0  0
  6 13  1  0  0  0
  7  8  1  0  0  0
  7 10  1  0  0  0
  8  9  1  0  0  0
  9 32  1  0  0  0
  9 35  1  0  0  0
 10 11  2  0  0  0
 11 13  1  0  0  0
 11 36  1  0  0  0
 12 13  1  0  0  0
 12 15  1  0  0  0
 12 16  1  0  0  0
 12 37  1  0  0  0
 14 23  2  0  0  0
 14 31  1  0  0  0
 14 32  1  0  0  0
 15 38  1  0  0  0
 15 39  1  0  0  0
 15 40  1  0  0  0
 16 41  1  0  0  0
 16 42  1  0  0  0
 16 43  1  0  0  0
 17 18  1  0  0  0
 17 20  1  0  0  0
 17 44  1  0  0  0
 18 19  1  0  0  0
 18 45  1  0  0  0
 18 46  1  0  0  0
 19 47  1  0  0  0
 19 48  1  0  0  0
 19 49  1  0  0  0
 20 50  1  0  0  0
 20 51  1  0  0  0
 21 22  2  0  0  0
 21 24  1  0  0  0
 21 27  1  0  0  0
 22 30  1  0  0  0
 23 25  1  0  0  0
 23 52  1  0  0  0
 24 26  2  0  0  0
 24 53  1  0  0  0
 25 27  2  0  0  0
 25 54  1  0  0  0
 26 28  1  0  0  0
 26 55  1  0  0  0
 27 29  1  0  0  0
 28 30  2  0  0  0
 28 56  1  0  0  0
 29 31  2  0  0  0
 29 57  1  0  0  0
 30 58  1  0  0  0
 31 59  1  0  0  0
 32 60  1  0  0  0
 32 61  1  0  0  0
M  END
> <s_m_source_file>
../3lq5_ligand.sdf

> <i_m_source_file_index>
1

> <s_epik_input>
W09IXVtDSDJdW0NASF0oW0NIMl1bQ0gzXSlbTkhdYyhuMSluYyhjKGMxMiluW2NIXW4yW0NIXShbQ0gzXSlbQ0gzXSlbTkhdW0NIMl1jM1tjSF1bY0hdYyhbY0hdW2NIXTMpLWM0bltjSF1bY0hdW2NIXVtjSF00

> <s_epik_cmdline>
J2VwaWtfYXBwJywgJy1pbWFlJywgJ2xpZ2FuZF9wcm8ubWFlJywgJy1vbWFlJywgJ2xpZ2FuZF9wcmVwLm1hZScsICctbXMnLCAnMScsICctcGgnLCAnNycsICctcGh0JywgJzAuNScsICctbnQn

> <r_epik_Ionization_Penalty>
  0.0235

> <r_epik_Ionization_Penalty_Charging>
  0.0000

> <r_epik_Ionization_Penalty_Neutral>
  0.0235

> <r_epik_State_Penalty>
  0.0077

> <r_epik_Charging_Adjusted_Penalty>
0.0077056098726133

> <i_epik_Tot_Q>
0

> <i_epik_Tot_abs_Q>
0

$$$$
