3lqi_ligand
                    3D
 Schrodinger Suite 2020-3.
165164  0  0  1  0            999 V2000
   34.8750  -14.2330  -37.7620 N   0  3  0  0  0  0
   34.9730  -12.7630  -37.9940 C   0  0  2  0  0  0
   35.8140  -12.0980  -36.9110 C   0  0  0  0  0  0
   35.9420  -12.6210  -35.8040 O   0  0  0  0  0  0
   33.5840  -12.1560  -38.0180 C   0  0  0  0  0  0
   36.3860  -10.9410  -37.2330 N   0  0  0  0  0  0
   37.2140  -10.2110  -36.2790 C   0  0  2  0  0  0
   36.5550   -8.9020  -35.8560 C   0  0  0  0  0  0
   36.1000   -8.1220  -36.6960 O   0  0  0  0  0  0
   38.5840   -9.9090  -36.8820 C   0  0  0  0  0  0
   39.5740   -9.3560  -35.8730 C   0  0  0  0  0  0
   40.8520   -8.8960  -36.5430 C   0  0  0  0  0  0
   41.8710   -8.5200  -35.5690 N   0  0  0  0  0  0
   42.6460   -9.3880  -34.9260 C   0  0  0  0  0  0
   43.5450   -8.9550  -34.0520 N   0  0  0  0  0  0
   42.5350  -10.6870  -35.1680 N   0  0  0  0  0  0
   36.5190   -8.6630  -34.5480 N   0  0  0  0  0  0
   35.9100   -7.4580  -34.0050 C   0  0  2  0  0  0
   36.7670   -6.8530  -32.9010 C   0  0  0  0  0  0
   37.7390   -7.4570  -32.4480 O   0  0  0  0  0  0
   34.5130   -7.7580  -33.4210 C   0  0  2  0  0  0
   34.6470   -8.4650  -32.1800 O   0  0  0  0  0  0
   33.7100   -8.6070  -34.3870 C   0  0  0  0  0  0
   36.3940   -5.6560  -32.4670 N   0  0  0  0  0  0
   37.1230   -4.9650  -31.4130 C   0  0  1  0  0  0
   36.5170   -3.5770  -31.1810 C   0  0  0  0  0  0
   36.7830   -2.5850  -32.3120 C   0  0  0  0  0  0
   38.2500   -2.1660  -32.3560 C   0  0  0  0  0  0
   38.4980   -1.1280  -33.4400 C   0  0  0  0  0  0
   39.7970   -0.4380  -33.3000 N   0  3  0  0  0  0
   41.0110   -1.2670  -33.3230 C   0  0  0  0  0  0
   39.8760    0.5880  -34.3480 C   0  0  0  0  0  0
   37.1180   -5.7670  -30.1110 C   0  0  0  0  0  0
   37.9710   -5.5620  -29.2480 O   0  0  0  0  0  0
   36.1610   -6.6820  -29.9750 N   0  0  0  0  0  0
   36.0770   -7.5060  -28.7720 C   0  0  2  0  0  0
   37.0120   -8.7090  -28.8410 C   0  0  0  0  0  0
   37.5970   -9.1060  -27.8340 O   0  0  0  0  0  0
   34.6470   -8.0080  -28.5490 C   0  0  0  0  0  0
   33.6480   -6.9420  -28.1420 C   0  0  0  0  0  0
   32.4190   -7.5340  -27.4780 C   0  0  0  0  0  0
   32.2130   -8.7500  -27.4980 O   0  0  0  0  0  0
   31.5920   -6.6760  -26.8870 N   0  0  0  0  0  0
   37.1500   -9.2860  -30.0300 N   0  0  0  0  0  0
   38.0040  -10.4540  -30.2120 C   0  0  2  0  0  0
   39.4470  -10.0810  -30.5230 C   0  0  0  0  0  0
   40.3740  -10.8090  -30.1720 O   0  0  0  0  0  0
   37.4930  -11.3460  -31.3540 C   0  0  2  0  0  0
   37.7060  -10.6870  -32.6070 O   0  0  0  0  0  0
   36.0050  -11.6270  -31.1840 C   0  0  0  0  0  0
   39.6310   -8.9450  -31.1860 N   0  0  0  0  0  0
   40.9630   -8.4820  -31.5550 C   0  0  2  0  0  0
   41.8760   -8.3510  -30.3450 C   0  0  0  0  0  0
   43.1010   -8.3800  -30.4780 O   0  0  0  0  0  0
   40.8690   -7.1450  -32.2780 C   0  0  0  0  0  0
   41.2840   -8.2090  -29.1630 N   0  0  0  0  0  0
   42.0820   -8.0620  -27.9560 C   0  0  2  0  0  0
   41.2740   -8.2590  -26.6720 C   0  0  0  0  0  0
   40.0780   -7.9670  -26.6290 O   0  0  0  0  0  0
   42.7430   -6.6800  -27.9560 C   0  0  0  0  0  0
   43.8550   -6.5270  -26.9460 C   0  0  0  0  0  0
   44.4890   -5.1460  -27.0010 C   0  0  0  0  0  0
   45.2440   -4.8910  -25.7790 N   0  0  0  0  0  0
   46.0220   -3.8340  -25.5710 C   0  0  0  0  0  0
   46.1670   -2.9080  -26.5100 N   0  0  0  0  0  0
   46.6480   -3.7020  -24.4100 N   0  0  0  0  0  0
   41.9610   -8.7680  -25.6470 N   0  0  0  0  0  0
   41.4350   -9.0400  -24.3020 C   0  0  2  0  0  0
   41.8960  -10.3960  -23.7810 C   0  0  0  0  0  0
   41.1360  -11.0290  -23.0160 O   0  0  0  0  0  0
   39.9030   -8.9760  -24.2520 C   0  0  0  0  0  0
   39.3510   -7.5850  -23.9590 C   0  0  0  0  0  0
   37.8850   -7.6430  -23.5820 C   0  0  0  0  0  0
   37.2710   -6.2520  -23.5180 C   0  0  0  0  0  0
   37.9660   -5.3550  -22.5520 N   0  3  0  0  0  0
   43.0290  -10.7940  -24.1260 O   0  0  0  0  0  0
   35.8845  -14.6696  -37.7453 H   0  0  0  0  0  0
   34.2896  -14.6937  -38.5714 H   0  0  0  0  0  0
   34.3786  -14.4198  -36.7983 H   0  0  0  0  0  0
   35.4607  -12.6135  -38.9686 H   0  0  0  0  0  0
   32.9850  -12.6420  -38.8022 H   0  0  0  0  0  0
   33.6582  -11.0788  -38.2280 H   0  0  0  0  0  0
   33.1010  -12.3068  -37.0413 H   0  0  0  0  0  0
   36.2238  -10.5364  -38.2429 H   0  0  0  0  0  0
   37.3033  -10.8836  -35.4132 H   0  0  0  0  0  0
   39.0139  -10.8328  -37.2965 H   0  0  0  0  0  0
   38.4756   -9.1633  -37.6834 H   0  0  0  0  0  0
   39.1256   -8.4971  -35.3523 H   0  0  0  0  0  0
   39.8267  -10.1373  -35.1411 H   0  0  0  0  0  0
   41.2532   -9.7097  -37.1651 H   0  0  0  0  0  0
   40.6401   -8.0213  -37.1754 H   0  0  0  0  0  0
   42.0357   -7.4597  -35.3268 H   0  0  0  0  0  0
   43.6401   -7.8782  -33.8486 H   0  0  0  0  0  0
   44.1954   -9.6728  -33.5307 H   0  0  0  0  0  0
   41.7907  -11.0499  -35.8921 H   0  0  0  0  0  0
   36.9661   -9.4062  -33.8714 H   0  0  0  0  0  0
   35.8579   -6.7790  -34.8689 H   0  0  0  0  0  0
   33.9735   -6.8272  -33.1920 H   0  0  0  0  0  0
   35.2013   -8.0109  -31.3454 H   0  0  0  0  0  0
   33.6019   -8.0726  -35.3423 H   0  0  0  0  0  0
   32.7146   -8.8036  -33.9622 H   0  0  0  0  0  0
   34.2309   -9.5607  -34.5573 H   0  0  0  0  0  0
   35.5105   -5.1861  -32.9237 H   0  0  0  0  0  0
   38.1558   -4.8841  -31.7829 H   0  0  0  0  0  0
   35.4255   -3.6661  -31.0778 H   0  0  0  0  0  0
   36.9378   -3.1420  -30.2625 H   0  0  0  0  0  0
   36.5248   -3.0493  -33.2752 H   0  0  0  0  0  0
   36.1685   -1.6850  -32.1624 H   0  0  0  0  0  0
   38.5370   -1.7335  -31.3862 H   0  0  0  0  0  0
   38.8765   -3.0457  -32.5650 H   0  0  0  0  0  0
   38.4864   -1.6169  -34.4253 H   0  0  0  0  0  0
   37.7095   -0.3620  -33.4015 H   0  0  0  0  0  0
   39.8020   -0.0232  -32.2812 H   0  0  0  0  0  0
   40.9466   -2.0334  -32.5365 H   0  0  0  0  0  0
   41.8917   -0.6324  -33.1454 H   0  0  0  0  0  0
   41.1029   -1.7554  -34.3043 H   0  0  0  0  0  0
   38.9657    1.2051  -34.3263 H   0  0  0  0  0  0
   39.9663    0.1021  -35.3307 H   0  0  0  0  0  0
   40.7552    1.2252  -34.1718 H   0  0  0  0  0  0
   35.4273   -6.8133  -30.7839 H   0  0  0  0  0  0
   36.3931   -6.8284  -27.9652 H   0  0  0  0  0  0
   34.2668   -8.4567  -29.4786 H   0  0  0  0  0  0
   34.6441   -8.7633  -27.7493 H   0  0  0  0  0  0
   34.1208   -6.2488  -27.4307 H   0  0  0  0  0  0
   33.3212   -6.3863  -29.0333 H   0  0  0  0  0  0
   31.8182   -5.5995  -26.8953 H   0  0  0  0  0  0
   30.6819   -7.0429  -26.3900 H   0  0  0  0  0  0
   36.6039   -8.8650  -30.8871 H   0  0  0  0  0  0
   37.9440  -10.9535  -29.2338 H   0  0  0  0  0  0
   38.0596  -12.2878  -31.3978 H   0  0  0  0  0  0
   38.7233  -10.4000  -32.9116 H   0  0  0  0  0  0
   35.8350  -12.1336  -30.2225 H   0  0  0  0  0  0
   35.6576  -12.2718  -32.0046 H   0  0  0  0  0  0
   35.4483  -10.6784  -31.2022 H   0  0  0  0  0  0
   38.7470   -8.3490  -31.4568 H   0  0  0  0  0  0
   41.3614   -9.2625  -32.2198 H   0  0  0  0  0  0
   40.2079   -7.2461  -33.1514 H   0  0  0  0  0  0
   41.8712   -6.8367  -32.6105 H   0  0  0  0  0  0
   40.4600   -6.3865  -31.5944 H   0  0  0  0  0  0
   40.1858   -8.2030  -29.1004 H   0  0  0  0  0  0
   42.8214   -8.8742  -28.0162 H   0  0  0  0  0  0
   43.1770   -6.4811  -28.9470 H   0  0  0  0  0  0
   41.9891   -5.9129  -27.7253 H   0  0  0  0  0  0
   43.4541   -6.6806  -25.9332 H   0  0  0  0  0  0
   44.6383   -7.2726  -27.1473 H   0  0  0  0  0  0
   45.1691   -5.0889  -27.8637 H   0  0  0  0  0  0
   43.7016   -4.3848  -27.1039 H   0  0  0  0  0  0
   45.1928   -5.6031  -24.9422 H   0  0  0  0  0  0
   45.6482   -3.0162  -27.4739 H   0  0  0  0  0  0
   46.8061   -2.0321  -26.3246 H   0  0  0  0  0  0
   46.5287   -4.4689  -23.6305 H   0  0  0  0  0  0
   43.0133   -8.9872  -25.8808 H   0  0  0  0  0  0
   41.8658   -8.2337  -23.6902 H   0  0  0  0  0  0
   41.4425  -12.0102  -22.6245 H   0  0  0  0  0  0
   39.4910   -9.2917  -25.2218 H   0  0  0  0  0  0
   39.5336   -9.6456  -23.4613 H   0  0  0  0  0  0
   39.9097   -7.1373  -23.1239 H   0  0  0  0  0  0
   39.4578   -6.9524  -24.8525 H   0  0  0  0  0  0
   37.3366   -8.2318  -24.3320 H   0  0  0  0  0  0
   37.7787   -8.1165  -22.5948 H   0  0  0  0  0  0
   37.3252   -5.7813  -24.5107 H   0  0  0  0  0  0
   36.2191   -6.3295  -23.2059 H   0  0  0  0  0  0
   37.4783   -4.3690  -22.5511 H   0  0  0  0  0  0
   39.0194   -5.2428  -22.8484 H   0  0  0  0  0  0
   37.9133   -5.7911  -21.5435 H   0  0  0  0  0  0
  1  2  1  0  0  0
  1 77  1  0  0  0
  1 78  1  0  0  0
  1 79  1  0  0  0
  2  3  1  0  0  0
  2  5  1  0  0  0
  2 80  1  0  0  0
  3  4  2  0  0  0
  3  6  1  0  0  0
  5 81  1  0  0  0
  5 82  1  0  0  0
  5 83  1  0  0  0
  6  7  1  0  0  0
  6 84  1  0  0  0
  7  8  1  0  0  0
  7 10  1  0  0  0
  7 85  1  0  0  0
  8  9  2  0  0  0
  8 17  1  0  0  0
 10 11  1  0  0  0
 10 86  1  0  0  0
 10 87  1  0  0  0
 11 12  1  0  0  0
 11 88  1  0  0  0
 11 89  1  0  0  0
 12 13  1  0  0  0
 12 90  1  0  0  0
 12 91  1  0  0  0
 13 14  1  0  0  0
 13 92  1  0  0  0
 14 15  1  0  0  0
 14 16  2  0  0  0
 15 93  1  0  0  0
 15 94  1  0  0  0
 16 95  1  0  0  0
 17 18  1  0  0  0
 17 96  1  0  0  0
 18 19  1  0  0  0
 18 21  1  0  0  0
 18 97  1  0  0  0
 19 20  2  0  0  0
 19 24  1  0  0  0
 21 22  1  0  0  0
 21 23  1  0  0  0
 21 98  1  0  0  0
 22 99  1  0  0  0
 23100  1  0  0  0
 23101  1  0  0  0
 23102  1  0  0  0
 24 25  1  0  0  0
 24103  1  0  0  0
 25 26  1  0  0  0
 25 33  1  0  0  0
 25104  1  0  0  0
 26 27  1  0  0  0
 26105  1  0  0  0
 26106  1  0  0  0
 27 28  1  0  0  0
 27107  1  0  0  0
 27108  1  0  0  0
 28 29  1  0  0  0
 28109  1  0  0  0
 28110  1  0  0  0
 29 30  1  0  0  0
 29111  1  0  0  0
 29112  1  0  0  0
 30 31  1  0  0  0
 30 32  1  0  0  0
 30113  1  0  0  0
 31114  1  0  0  0
 31115  1  0  0  0
 31116  1  0  0  0
 32117  1  0  0  0
 32118  1  0  0  0
 32119  1  0  0  0
 33 34  2  0  0  0
 33 35  1  0  0  0
 35 36  1  0  0  0
 35120  1  0  0  0
 36 37  1  0  0  0
 36 39  1  0  0  0
 36121  1  0  0  0
 37 38  2  0  0  0
 37 44  1  0  0  0
 39 40  1  0  0  0
 39122  1  0  0  0
 39123  1  0  0  0
 40 41  1  0  0  0
 40124  1  0  0  0
 40125  1  0  0  0
 41 42  2  0  0  0
 41 43  1  0  0  0
 43126  1  0  0  0
 43127  1  0  0  0
 44 45  1  0  0  0
 44128  1  0  0  0
 45 46  1  0  0  0
 45 48  1  0  0  0
 45129  1  0  0  0
 46 47  2  0  0  0
 46 51  1  0  0  0
 48 49  1  0  0  0
 48 50  1  0  0  0
 48130  1  0  0  0
 49131  1  0  0  0
 50132  1  0  0  0
 50133  1  0  0  0
 50134  1  0  0  0
 51 52  1  0  0  0
 51135  1  0  0  0
 52 53  1  0  0  0
 52 55  1  0  0  0
 52136  1  0  0  0
 53 54  2  0  0  0
 53 56  1  0  0  0
 55137  1  0  0  0
 55138  1  0  0  0
 55139  1  0  0  0
 56 57  1  0  0  0
 56140  1  0  0  0
 57 58  1  0  0  0
 57 60  1  0  0  0
 57141  1  0  0  0
 58 59  2  0  0  0
 58 67  1  0  0  0
 60 61  1  0  0  0
 60142  1  0  0  0
 60143  1  0  0  0
 61 62  1  0  0  0
 61144  1  0  0  0
 61145  1  0  0  0
 62 63  1  0  0  0
 62146  1  0  0  0
 62147  1  0  0  0
 63 64  1  0  0  0
 63148  1  0  0  0
 64 65  1  0  0  0
 64 66  2  0  0  0
 65149  1  0  0  0
 65150  1  0  0  0
 66151  1  0  0  0
 67 68  1  0  0  0
 67152  1  0  0  0
 68 69  1  0  0  0
 68 71  1  0  0  0
 68153  1  0  0  0
 69 70  1  0  0  0
 69 76  2  0  0  0
 70154  1  0  0  0
 71 72  1  0  0  0
 71155  1  0  0  0
 71156  1  0  0  0
 72 73  1  0  0  0
 72157  1  0  0  0
 72158  1  0  0  0
 73 74  1  0  0  0
 73159  1  0  0  0
 73160  1  0  0  0
 74 75  1  0  0  0
 74161  1  0  0  0
 74162  1  0  0  0
 75163  1  0  0  0
 75164  1  0  0  0
 75165  1  0  0  0
M  CHG  3   1   1  30   1  75   1
M  END
> <s_m_source_file>
../3lqi_ligand.sdf

> <i_m_source_file_index>
1

> <s_epik_input>
W0hdL049QyhbTkgyXSlcW05IXVtDSDJdW0NIMl1bQ0gyXVtDQEhdKFtOSF1DKD1PKVtDQEBIXShbTkgzK10pW0NIM10pQyg9TylbTkhdW0NAQEhdKFtDQEhdKFtPSF0pW0NIM10pQyg9TylbTkhdW0NAQEhdKFtDSDJdW0NIMl1bQ0gyXVtDSDJdW05IK10oW0NIM10pW0NIM10pQyg9TylbTkhdW0NAQEhdKFtDSDJdW0NIMl1DKD1PKVtOSDJdKUMoPU8pW05IXVtDQEBIXShbQ0BIXShbT0hdKVtDSDNdKUMoPU8pW05IXVtDQEBIXShbQ0gzXSlDKD1PKVtOSF1bQ0BASF0oW0NIMl1bQ0gyXVtDSDJdW05IXS9DKFtOSDJdKT1OXFtIXSlDKD1PKVtOSF1bQ0BIXShDKD1PKVtPSF0pW0NIMl1bQ0gyXVtDSDJdW0NIMl1bTkgzK10=

> <s_epik_cmdline>
J2VwaWtfYXBwJywgJy1pbWFlJywgJ2xpZ2FuZF9wcm8ubWFlJywgJy1vbWFlJywgJ2xpZ2FuZF9wcmVwLm1hZScsICctbXMnLCAnMScsICctcGgnLCAnNycsICctcGh0JywgJzAuNScsICctbnQn

> <s_epik_pKa_notes>
Molecule size exceeds maximum supported for generating protonation states

> <s_epik_Chemistry_Notes>
This compound has an imine and may undergo hydrolysis.

$$$$
