3lqj_ligand
                    3D
 Schrodinger Suite 2020-3.
113112  0  0  1  0            999 V2000
   58.1090   34.7850   25.2510 N   0  3  0  0  0  0
   59.0110   33.8290   24.5420 C   0  0  2  0  0  0
   58.3640   33.3950   23.2350 C   0  0  0  0  0  0
   57.2990   32.7850   23.2400 O   0  0  0  0  0  0
   59.2700   32.6140   25.4240 C   0  0  0  0  0  0
   59.0060   33.7040   22.1140 N   0  0  0  0  0  0
   58.4560   33.3380   20.8090 C   0  0  2  0  0  0
   58.8820   31.9340   20.3850 C   0  0  0  0  0  0
   60.0480   31.5830   20.4870 O   0  0  0  0  0  0
   58.9060   34.3430   19.7460 C   0  0  0  0  0  0
   58.4540   35.7760   19.9860 C   0  0  0  0  0  0
   58.7880   36.6370   18.7760 C   0  0  0  0  0  0
   59.8980   37.5570   19.0120 N   0  0  0  0  0  0
   59.7720   38.7510   19.5840 C   0  0  0  0  0  0
   58.5790   39.1750   19.9800 N   0  3  0  0  0  0
   60.8350   39.5280   19.7520 N   0  0  0  0  0  0
   57.9330   31.1320   19.9070 N   0  0  0  0  0  0
   58.2410   29.7730   19.4640 C   0  0  2  0  0  0
   57.5610   29.5540   18.1260 C   0  0  0  0  0  0
   56.7630   30.3820   17.6970 O   0  0  0  0  0  0
   57.6970   28.7130   20.4350 C   0  0  2  0  0  0
   56.2670   28.7820   20.4530 O   0  0  0  0  0  0
   58.2180   28.9490   21.8400 C   0  0  0  0  0  0
   57.8690   28.4420   17.4670 N   0  0  0  0  0  0
   57.2390   28.1500   16.1850 C   0  0  1  0  0  0
   57.7470   26.8190   15.6270 C   0  0  0  0  0  0
   59.1500   26.8920   15.0490 C   0  0  0  0  0  0
   59.1800   27.7560   13.7930 C   0  0  0  0  0  0
   60.5940   27.8880   13.2520 C   0  0  0  0  0  0
   60.6460   28.4880   11.9170 N   0  3  0  0  0  0
   55.7370   28.0720   16.4010 C   0  0  0  0  0  0
   54.9430   28.4230   15.5290 O   0  0  0  0  0  0
   62.0810   28.6130   11.5970 C   0  0  0  0  0  0
   60.0020   29.8170   11.8200 C   0  0  0  0  0  0
   60.0050   27.6080   10.9300 C   0  0  0  0  0  0
   55.3550   27.6160   17.5850 N   0  0  0  0  0  0
   53.9520   27.4790   17.9270 C   0  0  2  0  0  0
   53.2450   28.8220   18.0840 C   0  0  0  0  0  0
   52.1290   28.9830   17.6010 O   0  0  0  0  0  0
   53.8100   26.6670   19.2120 C   0  0  0  0  0  0
   52.4110   26.1470   19.4560 C   0  0  0  0  0  0
   52.3350   25.2780   20.6870 C   0  0  0  0  0  0
   53.1130   24.3350   20.8420 O   0  0  0  0  0  0
   51.3930   25.5850   21.5720 N   0  0  0  0  0  0
   53.8780   29.7840   18.7530 N   0  0  0  0  0  0
   53.2470   31.0840   18.9380 C   0  0  2  0  0  0
   53.1970   31.8510   17.6230 C   0  0  0  0  0  0
   52.1033   31.8530   16.9974 O   0  5  0  0  0  0
   53.9870   31.9450   19.9870 C   0  0  2  0  0  0
   55.3080   32.2430   19.5270 O   0  0  0  0  0  0
   54.0690   31.2110   21.3190 C   0  0  0  0  0  0
   54.2077   32.4584   17.1791 O   0  0  0  0  0  0
   57.9254   35.6599   24.6100 H   0  0  0  0  0  0
   58.5837   35.1104   26.1884 H   0  0  0  0  0  0
   57.1535   34.2889   25.4767 H   0  0  0  0  0  0
   59.9623   34.3400   24.3326 H   0  0  0  0  0  0
   59.7374   32.9375   26.3657 H   0  0  0  0  0  0
   59.9423   31.9179   24.9011 H   0  0  0  0  0  0
   58.3172   32.1094   25.6420 H   0  0  0  0  0  0
   59.9633   34.2423   22.1760 H   0  0  0  0  0  0
   57.3651   33.3632   20.9482 H   0  0  0  0  0  0
   60.0049   34.3619   19.7012 H   0  0  0  0  0  0
   58.5042   34.0451   18.7663 H   0  0  0  0  0  0
   57.3671   35.7943   20.1542 H   0  0  0  0  0  0
   58.9687   36.1796   20.8704 H   0  0  0  0  0  0
   59.0671   35.9899   17.9314 H   0  0  0  0  0  0
   57.9099   37.2399   18.5014 H   0  0  0  0  0  0
   60.9180   37.2772   18.7099 H   0  0  0  0  0  0
   57.6947   38.5353   19.8433 H   0  0  0  0  0  0
   61.8266   39.1815   19.4255 H   0  0  0  0  0  0
   60.7243   40.5184   20.2177 H   0  0  0  0  0  0
   56.9013   31.5090   19.8486 H   0  0  0  0  0  0
   59.3382   29.7157   19.4096 H   0  0  0  0  0  0
   57.9676   27.7009   20.0998 H   0  0  0  0  0  0
   55.6976   28.6361   19.5232 H   0  0  0  0  0  0
   59.3168   28.8980   21.8370 H   0  0  0  0  0  0
   57.8170   28.1778   22.5141 H   0  0  0  0  0  0
   57.8980   29.9423   22.1877 H   0  0  0  0  0  0
   58.6021   27.7406   17.8920 H   0  0  0  0  0  0
   57.5051   28.9666   15.4978 H   0  0  0  0  0  0
   57.7634   26.0672   16.4298 H   0  0  0  0  0  0
   57.0792   26.4804   14.8212 H   0  0  0  0  0  0
   59.8311   27.3292   15.7939 H   0  0  0  0  0  0
   59.4925   25.8796   14.7886 H   0  0  0  0  0  0
   58.5485   27.2978   13.0176 H   0  0  0  0  0  0
   58.7992   28.7605   14.0297 H   0  0  0  0  0  0
   61.1865   28.5242   13.9259 H   0  0  0  0  0  0
   61.0563   26.8920   13.1873 H   0  0  0  0  0  0
   62.5649   29.2712   12.3336 H   0  0  0  0  0  0
   62.1962   29.0418   10.5906 H   0  0  0  0  0  0
   62.5515   27.6192   11.6282 H   0  0  0  0  0  0
   60.4613   30.5010   12.5488 H   0  0  0  0  0  0
   58.9275   29.7203   12.0345 H   0  0  0  0  0  0
   60.1387   30.2174   10.8046 H   0  0  0  0  0  0
   60.4631   26.6090   10.9773 H   0  0  0  0  0  0
   60.1417   28.0267    9.9220 H   0  0  0  0  0  0
   58.9305   27.5296   11.1519 H   0  0  0  0  0  0
   56.1289   27.3386   18.3159 H   0  0  0  0  0  0
   53.5171   26.9546   17.0634 H   0  0  0  0  0  0
   54.4791   25.7949   19.1704 H   0  0  0  0  0  0
   54.0792   27.2949   20.0742 H   0  0  0  0  0  0
   51.7233   26.9947   19.5922 H   0  0  0  0  0  0
   52.0870   25.5471   18.5928 H   0  0  0  0  0  0
   50.7222   26.4372   21.3880 H   0  0  0  0  0  0
   51.2838   24.9870   22.4888 H   0  0  0  0  0  0
   54.8797   29.5950   19.1663 H   0  0  0  0  0  0
   52.2336   30.8324   19.2840 H   0  0  0  0  0  0
   53.4900   32.9173   20.1197 H   0  0  0  0  0  0
   55.4520   32.7744   18.5747 H   0  0  0  0  0  0
   53.0536   30.9811   21.6741 H   0  0  0  0  0  0
   54.5804   31.8465   22.0570 H   0  0  0  0  0  0
   54.6322   30.2753   21.1879 H   0  0  0  0  0  0
   58.4741   40.1663   20.4451 H   0  0  0  0  0  0
  1  2  1  0  0  0
  1 53  1  0  0  0
  1 54  1  0  0  0
  1 55  1  0  0  0
  2  3  1  0  0  0
  2  5  1  0  0  0
  2 56  1  0  0  0
  3  4  2  0  0  0
  3  6  1  0  0  0
  5 57  1  0  0  0
  5 58  1  0  0  0
  5 59  1  0  0  0
  6  7  1  0  0  0
  6 60  1  0  0  0
  7  8  1  0  0  0
  7 10  1  0  0  0
  7 61  1  0  0  0
  8  9  2  0  0  0
  8 17  1  0  0  0
 10 11  1  0  0  0
 10 62  1  0  0  0
 10 63  1  0  0  0
 11 12  1  0  0  0
 11 64  1  0  0  0
 11 65  1  0  0  0
 12 13  1  0  0  0
 12 66  1  0  0  0
 12 67  1  0  0  0
 13 14  1  0  0  0
 13 68  1  0  0  0
 14 15  2  0  0  0
 14 16  1  0  0  0
 15 69  1  0  0  0
 15113  1  0  0  0
 16 70  1  0  0  0
 16 71  1  0  0  0
 17 18  1  0  0  0
 17 72  1  0  0  0
 18 19  1  0  0  0
 18 21  1  0  0  0
 18 73  1  0  0  0
 19 20  2  0  0  0
 19 24  1  0  0  0
 21 22  1  0  0  0
 21 23  1  0  0  0
 21 74  1  0  0  0
 22 75  1  0  0  0
 23 76  1  0  0  0
 23 77  1  0  0  0
 23 78  1  0  0  0
 24 25  1  0  0  0
 24 79  1  0  0  0
 25 26  1  0  0  0
 25 31  1  0  0  0
 25 80  1  0  0  0
 26 27  1  0  0  0
 26 81  1  0  0  0
 26 82  1  0  0  0
 27 28  1  0  0  0
 27 83  1  0  0  0
 27 84  1  0  0  0
 28 29  1  0  0  0
 28 85  1  0  0  0
 28 86  1  0  0  0
 29 30  1  0  0  0
 29 87  1  0  0  0
 29 88  1  0  0  0
 30 33  1  0  0  0
 30 34  1  0  0  0
 30 35  1  0  0  0
 31 32  2  0  0  0
 31 36  1  0  0  0
 33 89  1  0  0  0
 33 90  1  0  0  0
 33 91  1  0  0  0
 34 92  1  0  0  0
 34 93  1  0  0  0
 34 94  1  0  0  0
 35 95  1  0  0  0
 35 96  1  0  0  0
 35 97  1  0  0  0
 36 37  1  0  0  0
 36 98  1  0  0  0
 37 38  1  0  0  0
 37 40  1  0  0  0
 37 99  1  0  0  0
 38 39  2  0  0  0
 38 45  1  0  0  0
 40 41  1  0  0  0
 40100  1  0  0  0
 40101  1  0  0  0
 41 42  1  0  0  0
 41102  1  0  0  0
 41103  1  0  0  0
 42 43  2  0  0  0
 42 44  1  0  0  0
 44104  1  0  0  0
 44105  1  0  0  0
 45 46  1  0  0  0
 45106  1  0  0  0
 46 47  1  0  0  0
 46 49  1  0  0  0
 46107  1  0  0  0
 47 48  1  0  0  0
 47 52  2  0  0  0
 49 50  1  0  0  0
 49 51  1  0  0  0
 49108  1  0  0  0
 50109  1  0  0  0
 51110  1  0  0  0
 51111  1  0  0  0
 51112  1  0  0  0
M  CHG  4   1   1  15   1  30   1  48  -1
M  END
> <s_m_source_file>
../3lqj_ligand.sdf

> <i_m_source_file_index>
1

> <s_epik_input>
W0hdL049QyhbTkgyXSlcW05IXVtDSDJdW0NIMl1bQ0gyXVtDQEhdKFtOSF1DKD1PKVtDQEBIXShbTkgzK10pW0NIM10pQyg9TylbTkhdW0NAQEhdKFtDQEhdKFtPSF0pW0NIM10pQyg9TylbTkhdW0NAQEhdKFtDSDJdW0NIMl1bQ0gyXVtDSDJdW04rXShbQ0gzXSkoW0NIM10pW0NIM10pQyg9TylbTkhdW0NAQEhdKFtDSDJdW0NIMl1DKD1PKVtOSDJdKUMoPU8pW05IXVtDQEhdKEMoPU8pW09IXSlbQ0BIXShbT0hdKVtDSDNd

> <s_epik_cmdline>
J2VwaWtfYXBwJywgJy1pbWFlJywgJ2xpZ2FuZF9wcm8ubWFlJywgJy1vbWFlJywgJ2xpZ2FuZF9wcmVwLm1hZScsICctbXMnLCAnMScsICctcGgnLCAnNycsICctcGh0JywgJzAuNScsICctbnQn

> <r_epik_Ionization_Penalty>
  0.1252

> <r_epik_Ionization_Penalty_Charging>
  0.1252

> <r_epik_Ionization_Penalty_Neutral>
  0.0000

> <r_epik_State_Penalty>
  0.1145

> <r_epik_Charging_Adjusted_Penalty>
0.239736109172051

> <i_epik_Tot_Q>
2

> <i_epik_Tot_abs_Q>
4

> <s_epik_Chemistry_Notes>
This compound has an imine and may undergo hydrolysis.

$$$$
