3lrh_ligand
                    3D
 Schrodinger Suite 2020-3.
246247  0  0  1  0            999 V2000
   23.5880  -31.4880  -37.8930 N   0  3  0  0  0  0
   23.8280  -31.5950  -39.3640 C   0  0  2  0  0  0
   22.5880  -31.2320  -40.1860 C   0  0  0  0  0  0
   22.5800  -31.4050  -41.4070 O   0  0  0  0  0  0
   24.3140  -33.0030  -39.7310 C   0  0  0  0  0  0
   25.7450  -33.3110  -39.2980 C   0  0  0  0  0  0
   26.2000  -34.7040  -39.7060 C   0  0  0  0  0  0
   26.2890  -34.9790  -40.9220 O   0  0  0  0  0  0
   26.4790  -35.5240  -38.8060 O   0  0  0  0  0  0
   21.5530  -30.7280  -39.5130 N   0  0  0  0  0  0
   20.2910  -30.3500  -40.1610 C   0  0  2  0  0  0
   20.4780  -29.3480  -41.2960 C   0  0  0  0  0  0
   19.9830  -29.5640  -42.4060 O   0  0  0  0  0  0
   19.2890  -29.7950  -39.1380 C   0  0  0  0  0  0
   18.4970  -30.8510  -38.3790 C   0  0  0  0  0  0
   17.4340  -31.4930  -39.2580 C   0  0  0  0  0  0
   16.8060  -32.7000  -38.5810 C   0  0  0  0  0  0
   15.9890  -33.4810  -39.5460 N   0  3  0  0  0  0
   21.1950  -28.2620  -41.0090 N   0  0  0  0  0  0
   21.4370  -27.1990  -41.9820 C   0  0  2  0  0  0
   22.2570  -27.6860  -43.1750 C   0  0  0  0  0  0
   21.9480  -27.3450  -44.3200 O   0  0  0  0  0  0
   22.1140  -25.9970  -41.3100 C   0  0  0  0  0  0
   22.4360  -24.7470  -42.1400 C   0  0  0  0  0  0
   21.2000  -24.1710  -42.8260 C   0  0  0  0  0  0
   23.1010  -23.6950  -41.2680 C   0  0  0  0  0  0
   23.2940  -28.4780  -42.8990 N   0  0  0  0  0  0
   24.1430  -29.0570  -43.9430 C   0  0  2  0  0  0
   23.3320  -29.9610  -44.8740 C   0  0  0  0  0  0
   23.4170  -29.8360  -46.0990 O   0  0  0  0  0  0
   25.3060  -29.8430  -43.3240 C   0  0  0  0  0  0
   26.3660  -30.2790  -44.3270 C   0  0  0  0  0  0
   27.2440  -31.7770  -43.8430 S   0  0  0  0  0  0
   28.2560  -32.0580  -45.2960 C   0  0  0  0  0  0
   22.5460  -30.8570  -44.2790 N   0  0  0  0  0  0
   21.6940  -31.7900  -45.0190 C   0  0  2  0  0  0
   20.6920  -31.0360  -45.8900 C   0  0  0  0  0  0
   20.3650  -31.4760  -46.9920 O   0  0  0  0  0  0
   20.9630  -32.7280  -44.0510 C   0  0  0  0  0  0
   20.4500  -34.0170  -44.6840 C   0  0  0  0  0  0
   19.5720  -34.8070  -43.7170 C   0  0  0  0  0  0
   19.0910  -36.1100  -44.3460 C   0  0  0  0  0  0
   18.2280  -36.8940  -43.4200 N   0  3  0  0  0  0
   20.2240  -29.8980  -45.3830 N   0  0  0  0  0  0
   19.3200  -29.0060  -46.1160 C   0  0  2  0  0  0
   19.9930  -28.3240  -47.3130 C   0  0  0  0  0  0
   19.3530  -28.0990  -48.3370 O   0  0  0  0  0  0
   18.7210  -27.9670  -45.1760 C   0  0  0  0  0  0
   21.2740  -27.9870  -47.1750 N   0  0  0  0  0  0
   22.0520  -27.4630  -48.2980 C   0  0  2  0  0  0
   22.2660  -28.5350  -49.3650 C   0  0  0  0  0  0
   22.2960  -28.2330  -50.5580 O   0  0  0  0  0  0
   23.4010  -26.8980  -47.8370 C   0  0  0  0  0  0
   23.3270  -25.4860  -47.3100 C   0  0  0  0  0  0
   23.7670  -25.1870  -46.0230 C   0  0  0  0  0  0
   22.8230  -24.4550  -48.1030 C   0  0  0  0  0  0
   23.7030  -23.8820  -45.5310 C   0  0  0  0  0  0
   22.7540  -23.1500  -47.6230 C   0  0  0  0  0  0
   23.1940  -22.8610  -46.3340 C   0  0  0  0  0  0
   22.4040  -29.7840  -48.9250 N   0  0  0  0  0  0
   22.5770  -30.9200  -49.8320 C   0  0  2  0  0  0
   21.3060  -31.2180  -50.6320 C   0  0  0  0  0  0
   21.3760  -31.7480  -51.7430 O   0  0  0  0  0  0
   23.0310  -32.1600  -49.0610 C   0  0  0  0  0  0
   24.4390  -32.0520  -48.4850 C   0  0  0  0  0  0
   24.7330  -33.1230  -47.4520 C   0  0  0  0  0  0
   24.6400  -34.3230  -47.7860 O   0  0  0  0  0  0
   25.0630  -32.7640  -46.3020 O   0  0  0  0  0  0
   20.1510  -30.8740  -50.0640 N   0  0  0  0  0  0
   18.8780  -31.0070  -50.7650 C   0  0  2  0  0  0
   18.7280  -29.9260  -51.8350 C   0  0  0  0  0  0
   18.1050  -30.1590  -52.8700 O   0  0  0  0  0  0
   17.6990  -30.9850  -49.7860 C   0  0  0  0  0  0
   17.5390  -29.7160  -49.1760 O   0  0  0  0  0  0
   19.3050  -28.7510  -51.5810 N   0  0  0  0  0  0
   19.3540  -27.6780  -52.5750 C   0  0  2  0  0  0
   20.2900  -28.0510  -53.7260 C   0  0  0  0  0  0
   19.9630  -27.8250  -54.8940 O   0  0  0  0  0  0
   19.7950  -26.3530  -51.9410 C   0  0  0  0  0  0
   19.7900  -25.1140  -52.8510 C   0  0  0  0  0  0
   18.4360  -24.4170  -52.8290 C   0  0  0  0  0  0
   20.8850  -24.1420  -52.4570 C   0  0  0  0  0  0
   21.4460  -28.6220  -53.3850 N   0  0  0  0  0  0
   22.4090  -29.1080  -54.3710 C   0  0  2  0  0  0
   21.7630  -30.1360  -55.2990 C   0  0  0  0  0  0
   21.9530  -30.0900  -56.5140 O   0  0  0  0  0  0
   23.6280  -29.7230  -53.6750 C   0  0  0  0  0  0
   24.7830  -30.0480  -54.6100 C   0  0  0  0  0  0
   25.7330  -31.0600  -53.9910 C   0  0  0  0  0  0
   26.6660  -31.6440  -55.0410 C   0  0  0  0  0  0
   27.4360  -32.8030  -54.5170 N   0  3  0  0  0  0
   21.0000  -31.0550  -54.7100 N   0  0  0  0  0  0
   20.2430  -32.0520  -55.4580 C   0  0  2  0  0  0
   19.1200  -31.4150  -56.2790 C   0  0  0  0  0  0
   18.8300  -31.8660  -57.3900 O   0  0  0  0  0  0
   19.6680  -33.1030  -54.5040 C   0  0  0  0  0  0
   18.8410  -34.0280  -55.1890 O   0  0  0  0  0  0
   18.4990  -30.3720  -55.7280 N   0  0  0  0  0  0
   17.4000  -29.6700  -56.3970 C   0  0  2  0  0  0
   17.8650  -28.9140  -57.6390 C   0  0  0  0  0  0
   17.3620  -29.1530  -58.7370 O   0  0  0  0  0  0
   16.6740  -28.7230  -55.4290 C   0  0  0  0  0  0
   15.5450  -27.9440  -56.0610 C   0  0  0  0  0  0
   15.5710  -26.5490  -56.0790 C   0  0  0  0  0  0
   14.4630  -28.6010  -56.6440 C   0  0  0  0  0  0
   14.5330  -25.8200  -56.6590 C   0  0  0  0  0  0
   13.4210  -27.8820  -57.2310 C   0  0  0  0  0  0
   13.4560  -26.4880  -57.2380 C   0  0  0  0  0  0
   18.8210  -28.0060  -57.4600 N   0  0  0  0  0  0
   19.3170  -27.2000  -58.5720 C   0  0  2  0  0  0
   20.3630  -27.9540  -59.3880 C   0  0  0  0  0  0
   20.7830  -27.5040  -60.4530 O   0  0  0  0  0  0
   19.8550  -25.8470  -58.0830 C   0  0  0  0  0  0
   21.1140  -25.9010  -57.2270 C   0  0  0  0  0  0
   21.8010  -24.5500  -57.1050 C   0  0  0  0  0  0
   21.1590  -23.5010  -57.1400 O   0  0  0  0  0  0
   23.1180  -24.5730  -56.9580 N   0  0  0  0  0  0
   20.8030  -29.0380  -59.0030 O   0  0  0  0  0  0
   23.2407  -30.4727  -37.6511 H   0  0  0  0  0  0
   24.5239  -31.6939  -37.3529 H   0  0  0  0  0  0
   22.8227  -32.2187  -37.5923 H   0  0  0  0  0  0
   24.6115  -30.8556  -39.5863 H   0  0  0  0  0  0
   23.6663  -33.7512  -39.2508 H   0  0  0  0  0  0
   24.2754  -33.1313  -40.8228 H   0  0  0  0  0  0
   26.4317  -32.5858  -39.7590 H   0  0  0  0  0  0
   25.8197  -33.2416  -38.2027 H   0  0  0  0  0  0
   26.6162  -35.9809  -41.2368 H   0  0  0  0  0  0
   21.6739  -30.5993  -38.4273 H   0  0  0  0  0  0
   19.9321  -31.2966  -40.5913 H   0  0  0  0  0  0
   19.8259  -29.2002  -38.3844 H   0  0  0  0  0  0
   18.5544  -29.1581  -39.6525 H   0  0  0  0  0  0
   19.1794  -31.6390  -38.0278 H   0  0  0  0  0  0
   17.9990  -30.3857  -37.5156 H   0  0  0  0  0  0
   16.6410  -30.7603  -39.4688 H   0  0  0  0  0  0
   17.8898  -31.8222  -40.2035 H   0  0  0  0  0  0
   17.5985  -33.3493  -38.1805 H   0  0  0  0  0  0
   16.1576  -32.3631  -37.7588 H   0  0  0  0  0  0
   15.5457  -34.3477  -39.0339 H   0  0  0  0  0  0
   16.6288  -33.8298  -40.3700 H   0  0  0  0  0  0
   15.1879  -32.8435  -39.9483 H   0  0  0  0  0  0
   21.6114  -28.1837  -39.9939 H   0  0  0  0  0  0
   20.4356  -26.9213  -42.3427 H   0  0  0  0  0  0
   21.4746  -25.6235  -40.4966 H   0  0  0  0  0  0
   23.0865  -26.3062  -40.8994 H   0  0  0  0  0  0
   23.1354  -25.0431  -42.9357 H   0  0  0  0  0  0
   20.7332  -24.9461  -43.4516 H   0  0  0  0  0  0
   21.4942  -23.3189  -43.4564 H   0  0  0  0  0  0
   20.4820  -23.8330  -42.0643 H   0  0  0  0  0  0
   23.9881  -24.1282  -40.7829 H   0  0  0  0  0  0
   22.3920  -23.3547  -40.4989 H   0  0  0  0  0  0
   23.4042  -22.8406  -41.8910 H   0  0  0  0  0  0
   23.5016  -28.6914  -41.8401 H   0  0  0  0  0  0
   24.5279  -28.1965  -44.5099 H   0  0  0  0  0  0
   25.8102  -29.2195  -42.5709 H   0  0  0  0  0  0
   24.9189  -30.7547  -42.8456 H   0  0  0  0  0  0
   25.8915  -30.4760  -45.2996 H   0  0  0  0  0  0
   27.1148  -29.4811  -44.4393 H   0  0  0  0  0  0
   28.8654  -32.9619  -45.1491 H   0  0  0  0  0  0
   28.9160  -31.1927  -45.4560 H   0  0  0  0  0  0
   27.6074  -32.1918  -46.1743 H   0  0  0  0  0  0
   22.5565  -30.8757  -43.1792 H   0  0  0  0  0  0
   22.3729  -32.3672  -45.6640 H   0  0  0  0  0  0
   21.6447  -33.0204  -43.2387 H   0  0  0  0  0  0
   20.0895  -32.2102  -43.6281 H   0  0  0  0  0  0
   19.8536  -33.7753  -45.5761 H   0  0  0  0  0  0
   21.3031  -34.6483  -44.9733 H   0  0  0  0  0  0
   20.1481  -35.0469  -42.8111 H   0  0  0  0  0  0
   18.6932  -34.2044  -43.4438 H   0  0  0  0  0  0
   18.5075  -35.8866  -45.2513 H   0  0  0  0  0  0
   19.9591  -36.7306  -44.6131 H   0  0  0  0  0  0
   17.9065  -37.8219  -43.9157 H   0  0  0  0  0  0
   17.3442  -36.2977  -43.1493 H   0  0  0  0  0  0
   18.7958  -37.1416  -42.5110 H   0  0  0  0  0  0
   20.5463  -29.6380  -44.3639 H   0  0  0  0  0  0
   18.5334  -29.6728  -46.4989 H   0  0  0  0  0  0
   18.2435  -28.4746  -44.3249 H   0  0  0  0  0  0
   17.9698  -27.3729  -45.7170 H   0  0  0  0  0  0
   19.5173  -27.3036  -44.8075 H   0  0  0  0  0  0
   21.7459  -28.1103  -46.1890 H   0  0  0  0  0  0
   21.4331  -26.6501  -48.7056 H   0  0  0  0  0  0
   23.8044  -27.5255  -47.0286 H   0  0  0  0  0  0
   24.1045  -26.8925  -48.6826 H   0  0  0  0  0  0
   24.1661  -25.9813  -45.3922 H   0  0  0  0  0  0
   22.4781  -24.6744  -49.1135 H   0  0  0  0  0  0
   24.0500  -23.6613  -44.5216 H   0  0  0  0  0  0
   22.3563  -22.3560  -48.2551 H   0  0  0  0  0  0
   23.1410  -21.8409  -45.9537 H   0  0  0  0  0  0
   22.3845  -29.9467  -47.8373 H   0  0  0  0  0  0
   23.3644  -30.6003  -50.5304 H   0  0  0  0  0  0
   22.3481  -32.3375  -48.2171 H   0  0  0  0  0  0
   23.0206  -33.0325  -49.7308 H   0  0  0  0  0  0
   25.1756  -32.1547  -49.2955 H   0  0  0  0  0  0
   24.5624  -31.0728  -47.9993 H   0  0  0  0  0  0
   25.2822  -33.5184  -45.5320 H   0  0  0  0  0  0
   20.1749  -30.4803  -49.0372 H   0  0  0  0  0  0
   18.9227  -31.9926  -51.2514 H   0  0  0  0  0  0
   16.7707  -31.2267  -50.3245 H   0  0  0  0  0  0
   17.8670  -31.7285  -48.9929 H   0  0  0  0  0  0
   16.7300  -29.5535  -48.4486 H   0  0  0  0  0  0
   19.7531  -28.6014  -50.5876 H   0  0  0  0  0  0
   18.3225  -27.5840  -52.9455 H   0  0  0  0  0  0
   19.1278  -26.1083  -51.1014 H   0  0  0  0  0  0
   20.8274  -26.4481  -51.5733 H   0  0  0  0  0  0
   19.9872  -25.4478  -53.8804 H   0  0  0  0  0  0
   17.6509  -25.1319  -53.1163 H   0  0  0  0  0  0
   18.4445  -23.5768  -53.5390 H   0  0  0  0  0  0
   18.2347  -24.0389  -51.8158 H   0  0  0  0  0  0
   21.8569  -24.6569  -52.4767 H   0  0  0  0  0  0
   20.6913  -23.7630  -51.4427 H   0  0  0  0  0  0
   20.9012  -23.3010  -53.1658 H   0  0  0  0  0  0
   21.6616  -28.7203  -52.3108 H   0  0  0  0  0  0
   22.7080  -28.2211  -54.9490 H   0  0  0  0  0  0
   24.0121  -29.0211  -52.9202 H   0  0  0  0  0  0
   23.3350  -30.6636  -53.1856 H   0  0  0  0  0  0
   24.3890  -30.4683  -55.5471 H   0  0  0  0  0  0
   25.3472  -29.1294  -54.8288 H   0  0  0  0  0  0
   26.3383  -30.5680  -53.2154 H   0  0  0  0  0  0
   25.1534  -31.8786  -53.5394 H   0  0  0  0  0  0
   26.0775  -31.9846  -55.9057 H   0  0  0  0  0  0
   27.3815  -30.8738  -55.3649 H   0  0  0  0  0  0
   28.0953  -33.1924  -55.3067 H   0  0  0  0  0  0
   26.7392  -33.5924  -54.1987 H   0  0  0  0  0  0
   28.0431  -32.4816  -53.6579 H   0  0  0  0  0  0
   20.9551  -31.0410  -53.6110 H   0  0  0  0  0  0
   20.9746  -32.5053  -56.1430 H   0  0  0  0  0  0
   20.4914  -33.6568  -54.0293 H   0  0  0  0  0  0
   19.0665  -32.6050  -53.7293 H   0  0  0  0  0  0
   18.3543  -34.8450  -54.6362 H   0  0  0  0  0  0
   18.8388  -30.0422  -54.7351 H   0  0  0  0  0  0
   16.7242  -30.4773  -56.7156 H   0  0  0  0  0  0
   16.2427  -29.3050  -54.6012 H   0  0  0  0  0  0
   17.3891  -27.9897  -55.0280 H   0  0  0  0  0  0
   16.4144  -26.0215  -55.6335 H   0  0  0  0  0  0
   14.4302  -29.6905  -56.6414 H   0  0  0  0  0  0
   14.5642  -24.7304  -56.6593 H   0  0  0  0  0  0
   12.5810  -28.4092  -57.6833 H   0  0  0  0  0  0
   12.6436  -25.9229  -57.6949 H   0  0  0  0  0  0
   19.2384  -27.8681  -56.4517 H   0  0  0  0  0  0
   18.4354  -27.0323  -59.2081 H   0  0  0  0  0  0
   20.1008  -25.2154  -58.9494 H   0  0  0  0  0  0
   19.0897  -25.3477  -57.4706 H   0  0  0  0  0  0
   20.8537  -26.2387  -56.2130 H   0  0  0  0  0  0
   21.8319  -26.6041  -57.6746 H   0  0  0  0  0  0
   23.6518  -25.5344  -56.9320 H   0  0  0  0  0  0
   23.6772  -23.6306  -56.8619 H   0  0  0  0  0  0
   21.5568  -29.5697  -59.6022 H   0  0  0  0  0  0
  1  2  1  0  0  0
  1119  1  0  0  0
  1120  1  0  0  0
  1121  1  0  0  0
  2  3  1  0  0  0
  2  5  1  0  0  0
  2122  1  0  0  0
  3  4  2  0  0  0
  3 10  1  0  0  0
  5  6  1  0  0  0
  5123  1  0  0  0
  5124  1  0  0  0
  6  7  1  0  0  0
  6125  1  0  0  0
  6126  1  0  0  0
  7  8  1  0  0  0
  7  9  2  0  0  0
  8127  1  0  0  0
 10 11  1  0  0  0
 10128  1  0  0  0
 11 12  1  0  0  0
 11 14  1  0  0  0
 11129  1  0  0  0
 12 13  2  0  0  0
 12 19  1  0  0  0
 14 15  1  0  0  0
 14130  1  0  0  0
 14131  1  0  0  0
 15 16  1  0  0  0
 15132  1  0  0  0
 15133  1  0  0  0
 16 17  1  0  0  0
 16134  1  0  0  0
 16135  1  0  0  0
 17 18  1  0  0  0
 17136  1  0  0  0
 17137  1  0  0  0
 18138  1  0  0  0
 18139  1  0  0  0
 18140  1  0  0  0
 19 20  1  0  0  0
 19141  1  0  0  0
 20 21  1  0  0  0
 20 23  1  0  0  0
 20142  1  0  0  0
 21 22  2  0  0  0
 21 27  1  0  0  0
 23 24  1  0  0  0
 23143  1  0  0  0
 23144  1  0  0  0
 24 25  1  0  0  0
 24 26  1  0  0  0
 24145  1  0  0  0
 25146  1  0  0  0
 25147  1  0  0  0
 25148  1  0  0  0
 26149  1  0  0  0
 26150  1  0  0  0
 26151  1  0  0  0
 27 28  1  0  0  0
 27152  1  0  0  0
 28 29  1  0  0  0
 28 31  1  0  0  0
 28153  1  0  0  0
 29 30  2  0  0  0
 29 35  1  0  0  0
 31 32  1  0  0  0
 31154  1  0  0  0
 31155  1  0  0  0
 32 33  1  0  0  0
 32156  1  0  0  0
 32157  1  0  0  0
 33 34  1  0  0  0
 34158  1  0  0  0
 34159  1  0  0  0
 34160  1  0  0  0
 35 36  1  0  0  0
 35161  1  0  0  0
 36 37  1  0  0  0
 36 39  1  0  0  0
 36162  1  0  0  0
 37 38  2  0  0  0
 37 44  1  0  0  0
 39 40  1  0  0  0
 39163  1  0  0  0
 39164  1  0  0  0
 40 41  1  0  0  0
 40165  1  0  0  0
 40166  1  0  0  0
 41 42  1  0  0  0
 41167  1  0  0  0
 41168  1  0  0  0
 42 43  1  0  0  0
 42169  1  0  0  0
 42170  1  0  0  0
 43171  1  0  0  0
 43172  1  0  0  0
 43173  1  0  0  0
 44 45  1  0  0  0
 44174  1  0  0  0
 45 46  1  0  0  0
 45 48  1  0  0  0
 45175  1  0  0  0
 46 47  2  0  0  0
 46 49  1  0  0  0
 48176  1  0  0  0
 48177  1  0  0  0
 48178  1  0  0  0
 49 50  1  0  0  0
 49179  1  0  0  0
 50 51  1  0  0  0
 50 53  1  0  0  0
 50180  1  0  0  0
 51 52  2  0  0  0
 51 60  1  0  0  0
 53 54  1  0  0  0
 53181  1  0  0  0
 53182  1  0  0  0
 54 55  2  0  0  0
 54 56  1  0  0  0
 55 57  1  0  0  0
 55183  1  0  0  0
 56 58  2  0  0  0
 56184  1  0  0  0
 57 59  2  0  0  0
 57185  1  0  0  0
 58 59  1  0  0  0
 58186  1  0  0  0
 59187  1  0  0  0
 60 61  1  0  0  0
 60188  1  0  0  0
 61 62  1  0  0  0
 61 64  1  0  0  0
 61189  1  0  0  0
 62 63  2  0  0  0
 62 69  1  0  0  0
 64 65  1  0  0  0
 64190  1  0  0  0
 64191  1  0  0  0
 65 66  1  0  0  0
 65192  1  0  0  0
 65193  1  0  0  0
 66 67  2  0  0  0
 66 68  1  0  0  0
 68194  1  0  0  0
 69 70  1  0  0  0
 69195  1  0  0  0
 70 71  1  0  0  0
 70 73  1  0  0  0
 70196  1  0  0  0
 71 72  2  0  0  0
 71 75  1  0  0  0
 73 74  1  0  0  0
 73197  1  0  0  0
 73198  1  0  0  0
 74199  1  0  0  0
 75 76  1  0  0  0
 75200  1  0  0  0
 76 77  1  0  0  0
 76 79  1  0  0  0
 76201  1  0  0  0
 77 78  2  0  0  0
 77 83  1  0  0  0
 79 80  1  0  0  0
 79202  1  0  0  0
 79203  1  0  0  0
 80 81  1  0  0  0
 80 82  1  0  0  0
 80204  1  0  0  0
 81205  1  0  0  0
 81206  1  0  0  0
 81207  1  0  0  0
 82208  1  0  0  0
 82209  1  0  0  0
 82210  1  0  0  0
 83 84  1  0  0  0
 83211  1  0  0  0
 84 85  1  0  0  0
 84 87  1  0  0  0
 84212  1  0  0  0
 85 86  2  0  0  0
 85 92  1  0  0  0
 87 88  1  0  0  0
 87213  1  0  0  0
 87214  1  0  0  0
 88 89  1  0  0  0
 88215  1  0  0  0
 88216  1  0  0  0
 89 90  1  0  0  0
 89217  1  0  0  0
 89218  1  0  0  0
 90 91  1  0  0  0
 90219  1  0  0  0
 90220  1  0  0  0
 91221  1  0  0  0
 91222  1  0  0  0
 91223  1  0  0  0
 92 93  1  0  0  0
 92224  1  0  0  0
 93 94  1  0  0  0
 93 96  1  0  0  0
 93225  1  0  0  0
 94 95  2  0  0  0
 94 98  1  0  0  0
 96 97  1  0  0  0
 96226  1  0  0  0
 96227  1  0  0  0
 97228  1  0  0  0
 98 99  1  0  0  0
 98229  1  0  0  0
 99100  1  0  0  0
 99102  1  0  0  0
 99230  1  0  0  0
100101  2  0  0  0
100109  1  0  0  0
102103  1  0  0  0
102231  1  0  0  0
102232  1  0  0  0
103104  2  0  0  0
103105  1  0  0  0
104106  1  0  0  0
104233  1  0  0  0
105107  2  0  0  0
105234  1  0  0  0
106108  2  0  0  0
106235  1  0  0  0
107108  1  0  0  0
107236  1  0  0  0
108237  1  0  0  0
109110  1  0  0  0
109238  1  0  0  0
110111  1  0  0  0
110113  1  0  0  0
110239  1  0  0  0
111112  2  0  0  0
111118  1  0  0  0
113114  1  0  0  0
113240  1  0  0  0
113241  1  0  0  0
114115  1  0  0  0
114242  1  0  0  0
114243  1  0  0  0
115116  2  0  0  0
115117  1  0  0  0
117244  1  0  0  0
117245  1  0  0  0
118246  1  0  0  0
M  CHG  4   1   1  18   1  43   1  91   1
M  END
> <s_m_source_file>
../3lrh_ligand.sdf

> <i_m_source_file_index>
1

> <s_epik_input>
W09IXUMoPU8pW0NIMl1bQ0gyXVtDQEhdKFtOSDMrXSlDKD1PKVtOSF1bQ0BASF0oW0NIMl1bQ0gyXVtDSDJdW0NIMl1bTkgzK10pQyg9TylbTkhdW0NAQEhdKFtDSDJdW0NIXShbQ0gzXSlbQ0gzXSlDKD1PKVtOSF1bQ0BASF0oW0NIMl1bQ0gyXVNbQ0gzXSlDKD1PKVtOSF1bQ0BASF0oW0NIMl1bQ0gyXVtDSDJdW0NIMl1bTkgzK10pQyg9TylbTkhdW0NAQEhdKFtDSDNdKUMoPU8pW05IXVtDQEBIXShbQ0gyXWMxW2NIXVtjSF1bY0hdW2NIXVtjSF0xKUMoPU8pW05IXVtDQEBIXShbQ0gyXVtDSDJdQyg9TylbT0hdKUMoPU8pW05IXVtDQEBIXShbQ0gyXVtPSF0pQyg9TylbTkhdW0NAQEhdKFtDSDJdW0NIXShbQ0gzXSlbQ0gzXSlDKD1PKVtOSF1bQ0BASF0oW0NIMl1bQ0gyXVtDSDJdW0NIMl1bTkgzK10pQyg9TylbTkhdW0NAQEhdKFtDSDJdW09IXSlDKD1PKVtOSF1bQ0BIXShDKD1PKVtOSF1bQ0BIXShDKD1PKVtPSF0pW0NIMl1bQ0gyXUMoPU8pW05IMl0pW0NIMl1jMltjSF1bY0hdW2NIXVtjSF1bY0hdMg==

> <s_epik_cmdline>
J2VwaWtfYXBwJywgJy1pbWFlJywgJ2xpZ2FuZF9wcm8ubWFlJywgJy1vbWFlJywgJ2xpZ2FuZF9wcmVwLm1hZScsICctbXMnLCAnMScsICctcGgnLCAnNycsICctcGh0JywgJzAuNScsICctbnQn

> <s_epik_pKa_notes>
Molecule size exceeds maximum supported for generating protonation states

$$$$
