3ls4_ligand
                    3D
 Schrodinger Suite 2020-3.
 53 55  0  0  1  0            999 V2000
   29.0150   19.9760  -32.0420 C   0  0  0  0  0  0
   27.1890   21.4940  -31.9010 O   0  0  0  0  0  0
   30.1380   19.5470  -32.7250 C   0  0  0  0  0  0
   30.0360   21.7900  -35.6130 O   0  0  0  0  0  0
   30.4930   20.1700  -33.9280 C   0  0  0  0  0  0
   29.7100   21.2460  -34.4170 C   0  0  0  0  0  0
   28.6090   21.6850  -33.6790 C   0  0  0  0  0  0
   28.2930   21.0600  -32.5290 C   0  0  0  0  0  0
   27.5520   22.7750  -34.0670 C   0  0  2  0  0  0
   28.3500   23.8630  -34.8620 C   0  0  0  0  0  0
   27.9470   25.1910  -34.9040 C   0  0  0  0  0  0
   26.7040   25.5380  -34.1470 C   0  0  0  0  0  0
   25.7580   24.3870  -33.8040 C   0  0  0  0  0  0
   26.6440   23.4360  -32.9690 C   0  0  1  0  0  0
   25.9820   22.1990  -32.4140 C   0  0  0  0  0  0
   25.1160   22.5600  -31.2120 C   0  0  0  0  0  0
   25.3030   21.2740  -33.4530 C   0  0  0  0  0  0
   28.7780   26.3100  -35.5420 C   0  0  0  0  0  0
   30.9520   18.4100  -32.0530 C   0  0  0  0  0  0
   30.1610   17.1280  -31.9220 C   0  0  0  0  0  0
   30.9940   16.0910  -31.1180 C   0  0  0  0  0  0
   30.3050   14.7300  -31.0220 C   0  0  0  0  0  0
   31.2140   13.7710  -30.2270 C   0  0  0  0  0  0
   28.6986   19.4692  -31.1303 H   0  0  0  0  0  0
   30.9110   21.4181  -36.1662 H   0  0  0  0  0  0
   31.3660   19.8297  -34.4850 H   0  0  0  0  0  0
   26.7774   22.2360  -34.6322 H   0  0  0  0  0  0
   29.2566   23.5461  -35.3984 H   0  0  0  0  0  0
   26.9766   25.9944  -33.1840 H   0  0  0  0  0  0
   26.1042   26.2497  -34.7333 H   0  0  0  0  0  0
   24.9017   24.7742  -33.2323 H   0  0  0  0  0  0
   25.3978   23.9194  -34.7322 H   0  0  0  0  0  0
   27.0372   24.0178  -32.1223 H   0  0  0  0  0  0
   25.6832   23.2161  -30.5353 H   0  0  0  0  0  0
   24.8292   21.6422  -30.6778 H   0  0  0  0  0  0
   24.2109   23.0822  -31.5558 H   0  0  0  0  0  0
   26.0031   21.0722  -34.2771 H   0  0  0  0  0  0
   24.4026   21.7663  -33.8491 H   0  0  0  0  0  0
   25.0209   20.3263  -32.9711 H   0  0  0  0  0  0
   29.6488   25.8740  -36.0535 H   0  0  0  0  0  0
   29.1213   27.0032  -34.7599 H   0  0  0  0  0  0
   28.1602   26.8557  -36.2704 H   0  0  0  0  0  0
   31.8470   18.1946  -32.6551 H   0  0  0  0  0  0
   31.2560   18.7239  -31.0435 H   0  0  0  0  0  0
   29.2176   17.3316  -31.3942 H   0  0  0  0  0  0
   29.9422   16.7282  -32.9231 H   0  0  0  0  0  0
   31.9672   15.9427  -31.6088 H   0  0  0  0  0  0
   31.1523   16.4620  -30.0946 H   0  0  0  0  0  0
   29.3398   14.8432  -30.5067 H   0  0  0  0  0  0
   30.1361   14.3323  -32.0336 H   0  0  0  0  0  0
   30.7298   12.7863  -30.1501 H   0  0  0  0  0  0
   31.3821   14.1768  -29.2185 H   0  0  0  0  0  0
   32.1785   13.6659  -30.7454 H   0  0  0  0  0  0
  1  3  2  0  0  0
  1  8  1  0  0  0
  1 24  1  0  0  0
  2  8  1  0  0  0
  2 15  1  0  0  0
  3  5  1  0  0  0
  3 19  1  0  0  0
  4  6  1  0  0  0
  4 25  1  0  0  0
  5  6  2  0  0  0
  5 26  1  0  0  0
  6  7  1  0  0  0
  7  8  2  0  0  0
  7  9  1  0  0  0
  9 10  1  0  0  0
  9 14  1  0  0  0
  9 27  1  0  0  0
 10 11  2  0  0  0
 10 28  1  0  0  0
 11 12  1  0  0  0
 11 18  1  0  0  0
 12 13  1  0  0  0
 12 29  1  0  0  0
 12 30  1  0  0  0
 13 14  1  0  0  0
 13 31  1  0  0  0
 13 32  1  0  0  0
 14 15  1  0  0  0
 14 33  1  0  0  0
 15 16  1  0  0  0
 15 17  1  0  0  0
 16 34  1  0  0  0
 16 35  1  0  0  0
 16 36  1  0  0  0
 17 37  1  0  0  0
 17 38  1  0  0  0
 17 39  1  0  0  0
 18 40  1  0  0  0
 18 41  1  0  0  0
 18 42  1  0  0  0
 19 20  1  0  0  0
 19 43  1  0  0  0
 19 44  1  0  0  0
 20 21  1  0  0  0
 20 45  1  0  0  0
 20 46  1  0  0  0
 21 22  1  0  0  0
 21 47  1  0  0  0
 21 48  1  0  0  0
 22 23  1  0  0  0
 22 49  1  0  0  0
 22 50  1  0  0  0
 23 51  1  0  0  0
 23 52  1  0  0  0
 23 53  1  0  0  0
M  END
> <s_m_source_file>
../3ls4_ligand.sdf

> <i_m_source_file_index>
1

> <s_epik_input>
W0NIM11bQ0gyXVtDSDJdW0NIMl1bQ0gyXWMoW2NIXWMxW09IXSlbY0hdYyhjMTIpT0MoW0NIM10pKFtDSDNdKVtDQEhdM1tDQEhdMltDSF09QyhbQ0gzXSlbQ0gyXVtDSDJdMw==

> <s_epik_cmdline>
J2VwaWtfYXBwJywgJy1pbWFlJywgJ2xpZ2FuZF9wcm8ubWFlJywgJy1vbWFlJywgJ2xpZ2FuZF9wcmVwLm1hZScsICctbXMnLCAnMScsICctcGgnLCAnNycsICctcGh0JywgJzAuNScsICctbnQn

> <r_lp_tautomer_probability>
1

> <r_epik_Ionization_Penalty>
  0.0002

> <r_epik_Ionization_Penalty_Charging>
  0.0000

> <r_epik_Ionization_Penalty_Neutral>
  0.0002

> <r_epik_State_Penalty>
 -0.0000

> <r_epik_Charging_Adjusted_Penalty>
0

> <i_epik_Tot_Q>
0

> <i_epik_Tot_abs_Q>
0

$$$$
