3luo_ligand
                    3D
 Schrodinger Suite 2020-3.
 82 83  0  0  1  0            999 V2000
   16.2240  -17.0060  -23.3300 C   0  0  0  0  0  0
   17.4530  -17.0550  -23.5560 O   0  5  0  0  0  0
   15.3850  -16.7460  -24.2180 O   0  0  0  0  0  0
   15.7380  -17.2760  -21.9240 C   0  0  0  0  0  0
   14.2130  -17.2640  -21.8800 C   0  0  0  0  0  0
   13.7070  -18.6270  -21.4660 C   0  0  2  0  0  0
   14.3430  -19.6320  -21.7370 O   0  0  0  0  0  0
   12.5040  -18.5470  -22.0340 N   0  3  0  0  0  0
   11.5060  -19.2670  -22.8210 C   0  0  2  0  0  0
   10.3810  -18.3530  -23.3030 C   0  0  0  0  0  0
   10.4780  -17.7470  -24.3720 O   0  0  0  0  0  0
   10.9400  -20.4350  -22.0240 C   0  0  0  0  0  0
    9.3130  -18.2650  -22.5140 N   0  0  0  0  0  0
    8.1540  -17.4470  -22.8680 C   0  0  2  0  0  0
    8.5670  -15.9930  -23.1380 C   0  0  0  0  0  0
    9.5860  -15.5330  -22.6200 O   0  0  0  0  0  0
    7.0990  -17.5200  -21.7580 C   0  0  0  0  0  0
    6.7470  -18.9290  -21.2710 C   0  0  0  0  0  0
    5.6980  -18.8970  -20.1550 C   0  0  0  0  0  0
    6.2790  -19.7930  -22.4330 C   0  0  0  0  0  0
    7.7740  -15.2560  -23.9410 N   0  0  0  0  0  0
    6.4770  -15.5860  -24.5550 C   0  0  2  0  0  0
    6.5290  -16.6940  -25.6100 C   0  0  0  0  0  0
    7.2830  -16.5940  -26.5820 O   0  0  0  0  0  0
    6.0640  -14.2710  -25.2320 C   0  0  0  0  0  0
    6.9040  -13.2190  -24.6030 C   0  0  0  0  0  0
    8.1950  -13.8870  -24.2840 C   0  0  0  0  0  0
    5.7120  -17.7270  -25.4210 N   0  0  0  0  0  0
    5.5840  -18.7990  -26.4030 C   0  0  2  0  0  0
    4.1270  -18.9820  -26.8260 C   0  0  0  0  0  0
    3.8010  -19.8940  -27.5870 O   0  0  0  0  0  0
    6.1500  -20.1010  -25.8520 C   0  0  0  0  0  0
    3.0420  -18.2350  -26.6230 N   0  0  0  0  0  0
    1.7680  -18.0480  -27.0530 C   0  0  0  0  0  0
    1.5070  -17.9670  -28.4170 C   0  0  0  0  0  0
    0.2060  -17.7760  -28.8670 C   0  0  0  0  0  0
   -0.8370  -17.6700  -27.9530 C   0  0  0  0  0  0
   -2.1440  -17.4790  -28.4180 N   0  3  0  0  0  0
   -2.3300  -17.0980  -29.5630 O   0  0  0  0  0  0
   -3.1640  -17.7190  -27.6340 O   0  5  0  0  0  0
   -0.5790  -17.7510  -26.5880 C   0  0  0  0  0  0
    0.7240  -17.9400  -26.1380 C   0  0  0  0  0  0
   16.0992  -18.2612  -21.5941 H   0  0  0  0  0  0
   16.1231  -16.4989  -21.2474 H   0  0  0  0  0  0
   13.8731  -16.5116  -21.1531 H   0  0  0  0  0  0
   13.8194  -17.0151  -22.8765 H   0  0  0  0  0  0
   13.7575  -18.9896  -20.4287 H   0  0  0  0  0  0
   15.3464  -19.7794  -21.3111 H   0  0  0  0  0  0
   11.7472  -18.3417  -21.2625 H   0  0  0  0  0  0
   12.5018  -17.7342  -22.7752 H   0  0  0  0  0  0
   12.0573  -19.6377  -23.6977 H   0  0  0  0  0  0
   11.7634  -21.0813  -21.6857 H   0  0  0  0  0  0
   10.2557  -21.0156  -22.6601 H   0  0  0  0  0  0
   10.3922  -20.0516  -21.1506 H   0  0  0  0  0  0
    9.3192  -18.8312  -21.5709 H   0  0  0  0  0  0
    7.7529  -17.8838  -23.7944 H   0  0  0  0  0  0
    7.4560  -16.9682  -20.8759 H   0  0  0  0  0  0
    6.1596  -17.0725  -22.1149 H   0  0  0  0  0  0
    7.6590  -19.3807  -20.8537 H   0  0  0  0  0  0
    6.0603  -18.2671  -19.3292 H   0  0  0  0  0  0
    5.5227  -19.9188  -19.7872 H   0  0  0  0  0  0
    4.7578  -18.4821  -20.5473 H   0  0  0  0  0  0
    7.0488  -19.7989  -23.2188 H   0  0  0  0  0  0
    5.3426  -19.3840  -22.8401 H   0  0  0  0  0  0
    6.1074  -20.8206  -22.0800 H   0  0  0  0  0  0
    5.8144  -15.9662  -23.7635 H   0  0  0  0  0  0
    6.2513  -14.3409  -26.3137 H   0  0  0  0  0  0
    4.9936  -14.0885  -25.0563 H   0  0  0  0  0  0
    7.0432  -12.3888  -25.3112 H   0  0  0  0  0  0
    6.4068  -12.8469  -23.6950 H   0  0  0  0  0  0
    8.7070  -13.4341  -23.4222 H   0  0  0  0  0  0
    8.8814  -13.9188  -25.1430 H   0  0  0  0  0  0
    5.1232  -17.7586  -24.4924 H   0  0  0  0  0  0
    6.1797  -18.4765  -27.2697 H   0  0  0  0  0  0
    7.1977  -19.9482  -25.5538 H   0  0  0  0  0  0
    6.0992  -20.8799  -26.6271 H   0  0  0  0  0  0
    5.5619  -20.4153  -24.9772 H   0  0  0  0  0  0
    3.0523  -17.4473  -25.8552 H   0  0  0  0  0  0
    2.3237  -18.0534  -29.1336 H   0  0  0  0  0  0
    0.0031  -17.7093  -29.9359 H   0  0  0  0  0  0
   -1.3966  -17.6665  -25.8722 H   0  0  0  0  0  0
    0.9275  -18.0035  -25.0691 H   0  0  0  0  0  0
  1  2  1  0  0  0
  1  3  2  0  0  0
  1  4  1  0  0  0
  4  5  1  0  0  0
  4 43  1  0  0  0
  4 44  1  0  0  0
  5  6  1  0  0  0
  5 45  1  0  0  0
  5 46  1  0  0  0
  6  7  1  0  0  0
  6  8  1  0  0  0
  6 47  1  0  0  0
  7 48  1  0  0  0
  8  9  1  0  0  0
  8 49  1  0  0  0
  8 50  1  0  0  0
  9 10  1  0  0  0
  9 12  1  0  0  0
  9 51  1  0  0  0
 10 11  2  0  0  0
 10 13  1  0  0  0
 12 52  1  0  0  0
 12 53  1  0  0  0
 12 54  1  0  0  0
 13 14  1  0  0  0
 13 55  1  0  0  0
 14 15  1  0  0  0
 14 17  1  0  0  0
 14 56  1  0  0  0
 15 16  2  0  0  0
 15 21  1  0  0  0
 17 18  1  0  0  0
 17 57  1  0  0  0
 17 58  1  0  0  0
 18 19  1  0  0  0
 18 20  1  0  0  0
 18 59  1  0  0  0
 19 60  1  0  0  0
 19 61  1  0  0  0
 19 62  1  0  0  0
 20 63  1  0  0  0
 20 64  1  0  0  0
 20 65  1  0  0  0
 21 22  1  0  0  0
 21 27  1  0  0  0
 22 23  1  0  0  0
 22 25  1  0  0  0
 22 66  1  0  0  0
 23 24  2  0  0  0
 23 28  1  0  0  0
 25 26  1  0  0  0
 25 67  1  0  0  0
 25 68  1  0  0  0
 26 27  1  0  0  0
 26 69  1  0  0  0
 26 70  1  0  0  0
 27 71  1  0  0  0
 27 72  1  0  0  0
 28 29  1  0  0  0
 28 73  1  0  0  0
 29 30  1  0  0  0
 29 32  1  0  0  0
 29 74  1  0  0  0
 30 31  2  0  0  0
 30 33  1  0  0  0
 32 75  1  0  0  0
 32 76  1  0  0  0
 32 77  1  0  0  0
 33 34  1  0  0  0
 33 78  1  0  0  0
 34 35  2  0  0  0
 34 42  1  0  0  0
 35 36  1  0  0  0
 35 79  1  0  0  0
 36 37  2  0  0  0
 36 80  1  0  0  0
 37 38  1  0  0  0
 37 41  1  0  0  0
 38 39  2  0  0  0
 38 40  1  0  0  0
 41 42  2  0  0  0
 41 81  1  0  0  0
 42 82  1  0  0  0
M  CHG  4   2  -1   8   1  38   1  40  -1
M  END
> <s_m_source_file>
../3luo_ligand.sdf

> <i_m_source_file_index>
1

> <s_epik_input>
W09IXUMoPU8pW0NIMl1bQ0gyXVtDQEhdKFtPSF0pW05IMitdW0NAQEhdKFtDSDNdKUMoPU8pW05IXVtDQEBIXShbQ0gyXVtDSF0oW0NIM10pW0NIM10pQyg9TylOMVtDQEBIXShbQ0gyXVtDSDJdW0NIMl0xKUMoPU8pW05IXVtDQEBIXShbQ0gzXSlDKD1PKVtOSF1jMltjSF1bY0hdYyhbTitdKD1PKVtPLV0pW2NIXVtjSF0y

> <s_epik_cmdline>
J2VwaWtfYXBwJywgJy1pbWFlJywgJ2xpZ2FuZF9wcm8ubWFlJywgJy1vbWFlJywgJ2xpZ2FuZF9wcmVwLm1hZScsICctbXMnLCAnMScsICctcGgnLCAnNycsICctcGh0JywgJzAuNScsICctbnQn

> <r_epik_Ionization_Penalty>
  0.2192

> <r_epik_Ionization_Penalty_Charging>
  0.1966

> <r_epik_Ionization_Penalty_Neutral>
  0.0227

> <r_epik_State_Penalty>
  0.1987

> <r_epik_Charging_Adjusted_Penalty>
0.395271422517834

> <i_epik_Tot_Q>
0

> <i_epik_Tot_abs_Q>
4

> <s_epik_Chemistry_Notes>
This compound contains an acetal/aminal-like group ( X-CH(R)-Y where X, Y are N, S, or O) that may be acid/base labile, releasing an aldehyde.

$$$$
