3lvp_ligand
                    3D
 Schrodinger Suite 2020-3.
 39 42  0  0  1  0            999 V2000
    1.4650   57.3500   16.7910 Cl  0  0  0  0  0  0
    2.6170   52.6810   12.7820 C   0  0  0  0  0  0
    2.8760   51.6660   11.8810 C   0  0  0  0  0  0
    2.8050   50.3280   12.3290 C   0  0  0  0  0  0
    2.4670   50.0280   13.6850 C   0  0  0  0  0  0
    2.2110   51.1220   14.5690 C   0  0  0  0  0  0
    2.2810   52.4260   14.1310 N   0  0  0  0  0  0
    2.7360   53.9290   12.1410 C   0  0  0  0  0  0
    3.0870   53.5760   10.8140 C   0  0  0  0  0  0
    3.1740   52.1930   10.6550 N   0  0  0  0  0  0
    2.1370   56.9050   14.1150 C   0  0  0  0  0  0
    2.4390   57.4250   12.8440 C   0  0  0  0  0  0
    2.6990   56.4140   11.9500 N   0  3  0  0  0  0
    2.5380   55.2900   12.7450 C   0  0  0  0  0  0
    2.1840   55.5020   14.1150 C   0  0  0  0  0  0
    1.8730   59.2820   14.8710 C   0  0  0  0  0  0
    2.1940   59.6820   13.5320 C   0  0  0  0  0  0
    2.4680   58.7870   12.5480 N   0  0  0  0  0  0
    1.8460   57.8830   15.1640 C   0  0  0  0  0  0
    3.5150   51.4620    9.4160 C   0  0  0  0  0  0
    1.8810   50.8380   15.9130 O   0  0  0  0  0  0
    1.3220   51.9500   16.6210 C   0  0  0  0  0  0
    2.3800   48.7270   14.1920 O   0  0  0  0  0  0
    1.5400   47.7920   13.4990 C   0  0  0  0  0  0
    3.0104   49.5151   11.6325 H   0  0  0  0  0  0
    3.2668   54.2965   10.0161 H   0  0  0  0  0  0
    2.0429   54.6419   14.7860 H   0  0  0  0  0  0
    1.6563   60.0217   15.6417 H   0  0  0  0  0  0
    2.2191   60.7456   13.2947 H   0  0  0  0  0  0
    3.5010   50.3799    9.6131 H   0  0  0  0  0  0
    4.5186   51.7603    9.0787 H   0  0  0  0  0  0
    2.7791   51.7020    8.6344 H   0  0  0  0  0  0
    1.0934   51.6494   17.6542 H   0  0  0  0  0  0
    0.3980   52.2760   16.1210 H   0  0  0  0  0  0
    2.0451   52.7788   16.6317 H   0  0  0  0  0  0
    1.5732   46.8193   14.0117 H   0  0  0  0  0  0
    1.8975   47.6741   12.4654 H   0  0  0  0  0  0
    0.5056   48.1660   13.4888 H   0  0  0  0  0  0
    2.9531   56.6540   10.9070 H   0  0  0  0  0  0
  1 19  1  0  0  0
  2  3  2  0  0  0
  2  7  1  0  0  0
  2  8  1  0  0  0
  3  4  1  0  0  0
  3 10  1  0  0  0
  4  5  2  0  0  0
  4 25  1  0  0  0
  5  6  1  0  0  0
  5 23  1  0  0  0
  6  7  2  0  0  0
  6 21  1  0  0  0
  8  9  2  0  0  0
  8 14  1  0  0  0
  9 10  1  0  0  0
  9 26  1  0  0  0
 10 20  1  0  0  0
 11 12  2  0  0  0
 11 15  1  0  0  0
 11 19  1  0  0  0
 12 13  1  0  0  0
 12 18  1  0  0  0
 13 14  1  0  0  0
 13 39  1  0  0  0
 14 15  2  0  0  0
 15 27  1  0  0  0
 16 17  1  0  0  0
 16 19  2  0  0  0
 16 28  1  0  0  0
 17 18  2  0  0  0
 17 29  1  0  0  0
 20 30  1  0  0  0
 20 31  1  0  0  0
 20 32  1  0  0  0
 21 22  1  0  0  0
 22 33  1  0  0  0
 22 34  1  0  0  0
 22 35  1  0  0  0
 23 24  1  0  0  0
 24 36  1  0  0  0
 24 37  1  0  0  0
 24 38  1  0  0  0
M  CHG  1  13   1
M  END
> <s_m_source_file>
../3lvp_ligand.sdf

> <i_m_source_file_index>
1

> <s_epik_input>
Q2xjMVtjSF1bY0hdbmMoYzEyKVtuSF1jKFtjSF0yKS1jM1tjSF1uKFtDSDNdKWMoYzM0KVtjSF1jKE9bQ0gzXSljKG40KU9bQ0gzXQ==

> <s_epik_cmdline>
J2VwaWtfYXBwJywgJy1pbWFlJywgJ2xpZ2FuZF9wcm8ubWFlJywgJy1vbWFlJywgJ2xpZ2FuZF9wcmVwLm1hZScsICctbXMnLCAnMScsICctcGgnLCAnNycsICctcGh0JywgJzAuNScsICctbnQn

> <r_lp_tautomer_probability>
1

> <r_epik_Ionization_Penalty>
  0.0000

> <r_epik_Ionization_Penalty_Charging>
  0.0000

> <r_epik_Ionization_Penalty_Neutral>
  0.0000

> <r_epik_State_Penalty>
 -0.0000

> <r_epik_Charging_Adjusted_Penalty>
0

> <i_epik_Tot_Q>
1

> <i_epik_Tot_abs_Q>
1

$$$$
