3lvw_ligand
                    3D
 Schrodinger Suite 2020-3.
 36 35  0  0  1  0            999 V2000
    1.5710   35.5950  -18.6260 N   0  3  0  0  0  0
    0.9400   34.9980  -19.8150 C   0  0  2  0  0  0
    1.0610   35.8670  -21.0700 C   0  0  0  0  0  0
    0.6150   35.3250  -22.1390 O   0  0  0  0  0  0
    1.5960   37.0510  -21.0330 O   0  5  0  0  0  0
   -0.5580   34.7450  -19.6180 C   0  0  0  0  0  0
   -0.9570   33.9430  -18.3810 C   0  0  0  0  0  0
   -0.6500   32.4680  -18.6060 C   0  0  0  0  0  0
   -0.6650   31.9560  -19.7230 O   0  0  0  0  0  0
   -0.3790   31.8080  -17.4910 N   0  0  0  0  0  0
   -0.0930   30.3970  -17.4670 C   0  0  2  0  0  0
   -1.3610   29.6390  -17.2150 C   0  0  0  0  0  0
   -1.5520   28.6450  -17.8730 O   0  0  0  0  0  0
    0.9660   30.1780  -16.3730 C   0  0  0  0  0  0
    1.6530   28.4950  -16.2930 S   0  0  0  0  0  0
   -2.2380   30.0930  -16.3200 N   0  0  0  0  0  0
   -3.4970   29.4650  -15.9260 C   0  0  0  0  0  0
   -3.1200   28.3820  -14.9020 C   0  0  0  0  0  0
   -1.9530   28.3860  -14.4020 O   0  5  0  0  0  0
   -3.9610   27.4980  -14.5620 O   0  0  0  0  0  0
    2.6418   35.7551  -18.8206 H   0  0  0  0  0  0
    1.4516   34.9170  -17.7681 H   0  0  0  0  0  0
    1.0910   36.5589  -18.4012 H   0  0  0  0  0  0
    1.5138   34.0650  -19.9158 H   0  0  0  0  0  0
   -1.0845   35.7072  -19.5349 H   0  0  0  0  0  0
   -0.9516   34.1849  -20.4790 H   0  0  0  0  0  0
   -0.3902   34.3053  -17.5106 H   0  0  0  0  0  0
   -2.0340   34.0675  -18.1949 H   0  0  0  0  0  0
   -0.3784   32.3853  -16.5547 H   0  0  0  0  0  0
    0.2757   30.0737  -18.4517 H   0  0  0  0  0  0
    1.8147   30.8568  -16.5432 H   0  0  0  0  0  0
    0.5232   30.3845  -15.3875 H   0  0  0  0  0  0
    2.4165   28.2478  -15.5407 H   0  0  0  0  0  0
   -1.9305   31.0441  -15.8609 H   0  0  0  0  0  0
   -4.1608   30.2214  -15.4818 H   0  0  0  0  0  0
   -3.9811   29.0269  -16.8113 H   0  0  0  0  0  0
  1  2  1  0  0  0
  1 21  1  0  0  0
  1 22  1  0  0  0
  1 23  1  0  0  0
  2  3  1  0  0  0
  2  6  1  0  0  0
  2 24  1  0  0  0
  3  4  2  0  0  0
  3  5  1  0  0  0
  6  7  1  0  0  0
  6 25  1  0  0  0
  6 26  1  0  0  0
  7  8  1  0  0  0
  7 27  1  0  0  0
  7 28  1  0  0  0
  8  9  2  0  0  0
  8 10  1  0  0  0
 10 11  1  0  0  0
 10 29  1  0  0  0
 11 12  1  0  0  0
 11 14  1  0  0  0
 11 30  1  0  0  0
 12 13  2  0  0  0
 12 16  1  0  0  0
 14 15  1  0  0  0
 14 31  1  0  0  0
 14 32  1  0  0  0
 15 33  1  0  0  0
 16 17  1  0  0  0
 16 34  1  0  0  0
 17 18  1  0  0  0
 17 35  1  0  0  0
 17 36  1  0  0  0
 18 19  1  0  0  0
 18 20  2  0  0  0
M  CHG  3   1   1   5  -1  19  -1
M  END
> <s_m_source_file>
../3lvw_ligand.sdf

> <i_m_source_file_index>
1

> <s_epik_input>
Tz1DKFtPSF0pW0NAQEhdKFtOSDMrXSlbQ0gyXVtDSDJdQyg9TylbTkhdW0NAQEhdKFtDSDJdW1NIXSlDKD1PKVtOSF1bQ0gyXUMoPU8pW09IXQ==

> <s_epik_cmdline>
J2VwaWtfYXBwJywgJy1pbWFlJywgJ2xpZ2FuZF9wcm8ubWFlJywgJy1vbWFlJywgJ2xpZ2FuZF9wcmVwLm1hZScsICctbXMnLCAnMScsICctcGgnLCAnNycsICctcGh0JywgJzAuNScsICctbnQn

> <r_lp_tautomer_probability>
1

> <r_epik_Ionization_Penalty>
  0.0108

> <r_epik_Ionization_Penalty_Charging>
  0.0025

> <r_epik_Ionization_Penalty_Neutral>
  0.0083

> <r_epik_State_Penalty>
 -0.0000

> <r_epik_Charging_Adjusted_Penalty>
0.0025426613454744

> <i_epik_Tot_Q>
-1

> <i_epik_Tot_abs_Q>
3

$$$$
