3lw0_ligand
                    3D
 Schrodinger Suite 2020-3.
 64 68  0  0  1  0            999 V2000
   -1.7020  -22.5570  -56.0160 C   0  0  0  0  0  0
   -0.5290  -22.6360  -56.7460 C   0  0  0  0  0  0
   -2.4910  -21.4040  -56.0170 C   0  0  0  0  0  0
   -0.0740  -21.5530  -57.5000 C   0  0  0  0  0  0
   -2.0470  -20.3140  -56.7880 C   0  0  0  0  0  0
   -0.8480  -20.3940  -57.5210 C   0  0  0  0  0  0
   -1.8670  -23.7750  -55.3800 C   0  0  0  0  0  0
   -0.7720  -24.5640  -55.7380 C   0  0  0  0  0  0
    0.0190  -23.8580  -56.5610 N   0  3  0  0  0  0
   -3.0190  -24.1540  -54.4620 C   0  0  0  0  0  0
   -2.8280  -19.1130  -56.8110 C   0  0  0  0  0  0
   -3.4780  -18.1500  -56.8000 N   0  0  0  0  0  0
   -2.5680  -24.1880  -53.0010 C   0  0  0  0  0  0
   -3.6820  -24.5270  -52.0160 C   0  0  0  0  0  0
   -4.4390  -23.2640  -51.5930 C   0  0  0  0  0  0
   -6.8630  -24.4190  -48.8430 C   0  0  0  0  0  0
   -7.2920  -22.9860  -48.5370 C   0  0  1  0  0  0
   -5.5740  -24.3320  -49.6840 C   0  0  0  0  0  0
   -7.6570  -22.3370  -49.8680 C   0  0  0  0  0  0
   -5.7470  -23.5410  -50.9450 N   0  3  1  0  0  0
   -6.3960  -22.2250  -50.7270 C   0  0  0  0  0  0
   -8.4220  -22.9300  -47.5980 N   0  0  0  0  0  0
   -8.6310  -21.7860  -46.7580 C   0  0  0  0  0  0
   -9.7980  -21.7450  -45.8590 C   0  0  0  0  0  0
  -12.0510  -21.6110  -44.1710 C   0  0  0  0  0  0
  -11.1960  -22.6980  -44.1560 C   0  0  0  0  0  0
  -11.7710  -20.5710  -45.0510 C   0  0  0  0  0  0
  -10.0950  -22.7730  -44.9750 C   0  0  0  0  0  0
  -10.6520  -20.6400  -45.8900 C   0  0  0  0  0  0
  -11.2350  -23.8400  -43.3980 C   0  0  0  0  0  0
  -10.1430  -24.6000  -43.7770 C   0  0  0  0  0  0
   -9.4650  -23.9330  -44.7360 N   0  3  0  0  0  0
  -12.2270  -24.1630  -42.4200 C   0  0  0  0  0  0
  -13.0930  -24.3560  -41.6660 N   0  0  0  0  0  0
   -7.8690  -20.8450  -46.7670 O   0  0  0  0  0  0
   -3.4156  -21.3509  -55.4422 H   0  0  0  0  0  0
    0.8610  -21.6120  -58.0571 H   0  0  0  0  0  0
   -0.5207  -19.5389  -58.1124 H   0  0  0  0  0  0
   -0.6795  -25.5873  -55.3451 H   0  0  0  0  0  0
   -3.8276  -23.4152  -54.5642 H   0  0  0  0  0  0
   -3.3954  -25.1501  -54.7380 H   0  0  0  0  0  0
   -1.7827  -24.9483  -52.8773 H   0  0  0  0  0  0
   -2.1719  -23.2020  -52.7165 H   0  0  0  0  0  0
   -4.3906  -25.2227  -52.4891 H   0  0  0  0  0  0
   -3.2492  -24.9970  -51.1206 H   0  0  0  0  0  0
   -3.8309  -22.6957  -50.8738 H   0  0  0  0  0  0
   -4.6372  -22.6416  -52.4780 H   0  0  0  0  0  0
   -6.6775  -24.9553  -47.9007 H   0  0  0  0  0  0
   -7.6602  -24.9285  -49.4041 H   0  0  0  0  0  0
   -6.4930  -22.4403  -48.0138 H   0  0  0  0  0  0
   -4.7826  -23.8479  -49.0930 H   0  0  0  0  0  0
   -5.2522  -25.3449  -49.9676 H   0  0  0  0  0  0
   -8.4052  -22.9560  -50.3848 H   0  0  0  0  0  0
   -8.0729  -21.3351  -49.6856 H   0  0  0  0  0  0
   -6.3900  -24.1608  -51.5872 H   0  0  0  0  0  0
   -6.6580  -21.8065  -51.7100 H   0  0  0  0  0  0
   -5.6705  -21.5649  -50.2290 H   0  0  0  0  0  0
   -9.1240  -23.7742  -47.5313 H   0  0  0  0  0  0
  -12.9187  -21.5706  -43.5126 H   0  0  0  0  0  0
  -12.4246  -19.6995  -45.0877 H   0  0  0  0  0  0
  -10.4444  -19.8197  -46.5771 H   0  0  0  0  0  0
   -9.9600  -25.5751  -43.3019 H   0  0  0  0  0  0
    0.9652  -24.1174  -57.0583 H   0  0  0  0  0  0
   -8.5524  -24.1885  -45.2945 H   0  0  0  0  0  0
  1  2  2  0  0  0
  1  3  1  0  0  0
  1  7  1  0  0  0
  2  4  1  0  0  0
  2  9  1  0  0  0
  3  5  2  0  0  0
  3 36  1  0  0  0
  4  6  2  0  0  0
  4 37  1  0  0  0
  5  6  1  0  0  0
  5 11  1  0  0  0
  6 38  1  0  0  0
  7  8  2  0  0  0
  7 10  1  0  0  0
  8  9  1  0  0  0
  8 39  1  0  0  0
  9 63  1  0  0  0
 10 13  1  0  0  0
 10 40  1  0  0  0
 10 41  1  0  0  0
 11 12  3  0  0  0
 13 14  1  0  0  0
 13 42  1  0  0  0
 13 43  1  0  0  0
 14 15  1  0  0  0
 14 44  1  0  0  0
 14 45  1  0  0  0
 15 20  1  0  0  0
 15 46  1  0  0  0
 15 47  1  0  0  0
 16 17  1  0  0  0
 16 18  1  0  0  0
 16 48  1  0  0  0
 16 49  1  0  0  0
 17 19  1  0  0  0
 17 22  1  0  0  0
 17 50  1  0  0  0
 18 20  1  0  0  0
 18 51  1  0  0  0
 18 52  1  0  0  0
 19 21  1  0  0  0
 19 53  1  0  0  0
 19 54  1  0  0  0
 20 21  1  0  0  0
 20 55  1  0  0  0
 21 56  1  0  0  0
 21 57  1  0  0  0
 22 23  1  0  0  0
 22 58  1  0  0  0
 23 24  1  0  0  0
 23 35  2  0  0  0
 24 28  2  0  0  0
 24 29  1  0  0  0
 25 26  2  0  0  0
 25 27  1  0  0  0
 25 59  1  0  0  0
 26 28  1  0  0  0
 26 30  1  0  0  0
 27 29  2  0  0  0
 27 60  1  0  0  0
 28 32  1  0  0  0
 29 61  1  0  0  0
 30 31  2  0  0  0
 30 33  1  0  0  0
 31 32  1  0  0  0
 31 62  1  0  0  0
 32 64  1  0  0  0
 33 34  3  0  0  0
M  CHG  3   9   1  20   1  32   1
M  END
> <s_m_source_file>
../3lw0_ligand.sdf

> <i_m_source_file_index>
1

> <s_epik_input>
TiNDYyhbY0hdMSlbY0hdW2NIXWMoYzEyKVtuSF1bY0hdYzJbQ0gyXVtDSDJdW0NIMl1bQ0gyXVtOQEgrXShbQ0gyXVtDSDJdMylbQ0gyXVtDSDJdW0NAQEhdM1tOSF1DKD1PKWMoW2NIXVtjSF1bY0hdNCljKGM0NSlbbkhdW2NIXWM1QyNO

> <s_epik_cmdline>
J2VwaWtfYXBwJywgJy1pbWFlJywgJ2xpZ2FuZF9wcm8ubWFlJywgJy1vbWFlJywgJ2xpZ2FuZF9wcmVwLm1hZScsICctbXMnLCAnMScsICctcGgnLCAnNycsICctcGh0JywgJzAuNScsICctbnQn

> <r_lp_tautomer_probability>
1

> <r_epik_Ionization_Penalty>
  0.0045

> <r_epik_Ionization_Penalty_Charging>
  0.0044

> <r_epik_Ionization_Penalty_Neutral>
  0.0001

> <r_epik_State_Penalty>
 -0.0000

> <r_epik_Charging_Adjusted_Penalty>
0.00443088350723092

> <i_epik_Tot_Q>
3

> <i_epik_Tot_abs_Q>
3

$$$$
