3lxe_ligand
                    3D
 Schrodinger Suite 2020-3.
 43 45  0  0  1  0            999 V2000
  -19.9080   36.8120   44.8220 C   0  0  0  0  0  0
  -18.7750   36.7690   43.8230 C   0  0  0  0  0  0
  -19.1420   37.4720   42.5230 C   0  0  0  0  0  0
  -18.4590   35.3750   43.5640 O   0  0  0  0  0  0
  -17.5480   37.2210   44.4390 O   0  0  0  0  0  0
  -16.4530   36.5000   43.8620 C   0  0  1  0  0  0
  -15.2490   36.5550   44.8130 C   0  0  2  0  0  0
  -14.1100   36.2060   44.0390 O   0  0  0  0  0  0
  -13.1970   35.3780   44.7740 C   0  0  0  0  0  0
  -11.9740   36.1530   45.2700 C   0  0  0  0  0  0
  -12.8890   34.1700   43.9370 C   0  0  0  0  0  0
  -13.9620   34.9420   45.9070 O   0  0  0  0  0  0
  -15.2210   35.5930   46.0320 C   0  0  2  0  0  0
  -16.2800   34.5000   46.0330 C   0  0  0  0  0  0
  -16.7340   34.1490   44.7020 O   0  0  0  0  0  0
  -17.0710   35.0810   43.6810 C   0  0  1  0  0  0
  -16.5960   34.2960   42.4820 C   0  0  0  0  0  0
  -16.7790   35.0520   41.2480 O   0  0  0  0  0  0
  -16.3050   34.4690   39.8670 S   0  0  0  0  0  0
  -17.3240   33.5430   39.5350 O   0  0  0  0  0  0
  -16.1080   35.6540   39.1060 O   0  0  0  0  0  0
  -14.9310   33.7020   40.0820 N   0  0  0  0  0  0
  -20.8346   36.4659   44.3406 H   0  0  0  0  0  0
  -20.0433   37.8437   45.1787 H   0  0  0  0  0  0
  -19.6708   36.1577   45.6738 H   0  0  0  0  0  0
  -20.0854   37.0590   42.1365 H   0  0  0  0  0  0
  -18.3430   37.3156   41.7834 H   0  0  0  0  0  0
  -19.2627   38.5492   42.7101 H   0  0  0  0  0  0
  -16.0980   36.9485   42.9224 H   0  0  0  0  0  0
  -15.2211   37.5862   45.1950 H   0  0  0  0  0  0
  -11.3804   36.4919   44.4081 H   0  0  0  0  0  0
  -11.3583   35.4990   45.9049 H   0  0  0  0  0  0
  -12.3044   37.0251   45.8534 H   0  0  0  0  0  0
  -12.3014   34.4732   43.0579 H   0  0  0  0  0  0
  -13.8288   33.7035   43.6067 H   0  0  0  0  0  0
  -12.3112   33.4484   44.5332 H   0  0  0  0  0  0
  -15.3420   36.1432   46.9768 H   0  0  0  0  0  0
  -15.8682   33.5910   46.4957 H   0  0  0  0  0  0
  -17.1559   34.8386   46.6059 H   0  0  0  0  0  0
  -15.5266   34.0645   42.5955 H   0  0  0  0  0  0
  -17.1679   33.3594   42.4069 H   0  0  0  0  0  0
  -14.5878   33.2886   39.1222 H   0  0  0  0  0  0
  -15.0767   32.8837   40.8025 H   0  0  0  0  0  0
  1  2  1  0  0  0
  1 23  1  0  0  0
  1 24  1  0  0  0
  1 25  1  0  0  0
  2  3  1  0  0  0
  2  4  1  0  0  0
  2  5  1  0  0  0
  3 26  1  0  0  0
  3 27  1  0  0  0
  3 28  1  0  0  0
  4 16  1  0  0  0
  5  6  1  0  0  0
  6  7  1  0  0  0
  6 16  1  0  0  0
  6 29  1  0  0  0
  7  8  1  0  0  0
  7 13  1  0  0  0
  7 30  1  0  0  0
  8  9  1  0  0  0
  9 10  1  0  0  0
  9 11  1  0  0  0
  9 12  1  0  0  0
 10 31  1  0  0  0
 10 32  1  0  0  0
 10 33  1  0  0  0
 11 34  1  0  0  0
 11 35  1  0  0  0
 11 36  1  0  0  0
 12 13  1  0  0  0
 13 14  1  0  0  0
 13 37  1  0  0  0
 14 15  1  0  0  0
 14 38  1  0  0  0
 14 39  1  0  0  0
 15 16  1  0  0  0
 16 17  1  0  0  0
 17 18  1  0  0  0
 17 40  1  0  0  0
 17 41  1  0  0  0
 18 19  1  0  0  0
 19 20  2  0  0  0
 19 21  2  0  0  0
 19 22  1  0  0  0
 22 42  1  0  0  0
 22 43  1  0  0  0
M  END
> <s_m_source_file>
../3lxe_ligand.sdf

> <i_m_source_file_index>
1

> <s_epik_input>
Tz1TKD1PKShbTkgyXSlPW0NIMl1bQ0BAXTEyW0NAQEhdKE9DKE8xKShbQ0gzXSlbQ0gzXSlbQ0BIXTNbQ0BASF0oW0NIMl1PMilPQyhPMykoW0NIM10pW0NIM10=

> <s_epik_cmdline>
J2VwaWtfYXBwJywgJy1pbWFlJywgJ2xpZ2FuZF9wcm8ubWFlJywgJy1vbWFlJywgJ2xpZ2FuZF9wcmVwLm1hZScsICctbXMnLCAnMScsICctcGgnLCAnNycsICctcGh0JywgJzAuNScsICctbnQn

> <r_epik_Ionization_Penalty>
  0.0143

> <r_epik_Ionization_Penalty_Charging>
  0.0000

> <r_epik_Ionization_Penalty_Neutral>
  0.0143

> <r_epik_State_Penalty>
  0.0112

> <r_epik_Charging_Adjusted_Penalty>
0.0111872457789687

> <i_epik_Tot_Q>
0

> <i_epik_Tot_abs_Q>
0

$$$$
