3lxg_ligand
                    3D
 Schrodinger Suite 2020-3.
 38 40  0  0  1  0            999 V2000
   14.4540   15.2040  -11.0020 C   0  0  0  0  0  0
   14.3880   15.6980   -9.6930 C   0  0  0  0  0  0
   13.6970   15.8320  -12.0020 N   0  0  0  0  0  0
   13.6040   16.7480   -9.4040 N   0  0  0  0  0  0
   12.8950   16.9260  -11.6630 C   0  0  0  0  0  0
   12.8650   17.3780  -10.3370 C   0  0  0  0  0  0
   11.3270   19.1390  -10.9570 C   0  0  0  0  0  0
   12.0860   18.4710  -10.0020 N   0  0  0  0  0  0
   11.3520   18.6900  -12.2750 C   0  0  0  0  0  0
   12.1360   17.5940  -12.6190 C   0  0  0  0  0  0
   13.7320   17.0210   -8.0890 C   0  0  0  0  0  0
   14.5840   16.1380   -7.5120 N   0  0  0  0  0  0
   15.0050   15.3150   -8.4930 C   0  0  0  0  0  0
   15.3100   14.0200  -11.3770 C   0  0  0  0  0  0
   15.9790   14.1920   -8.2360 C   0  0  0  0  0  0
   13.0310   18.0920   -7.3100 C   0  0  0  0  0  0
   11.6980   17.4430   -6.8970 C   0  0  0  0  0  0
   10.7420   18.3330   -6.0940 C   0  0  0  0  0  0
   10.5670   20.2170  -10.5740 O   0  0  0  0  0  0
   10.3430   20.4910   -9.1860 C   0  0  0  0  0  0
   10.7581   19.1967  -13.0357 H   0  0  0  0  0  0
   12.1562   17.2528  -13.6540 H   0  0  0  0  0  0
   15.8338   13.6487  -10.4838 H   0  0  0  0  0  0
   16.0473   14.3257  -12.1340 H   0  0  0  0  0  0
   14.6731   13.2222  -11.7867 H   0  0  0  0  0  0
   16.1774   13.6564   -9.1761 H   0  0  0  0  0  0
   15.5498   13.4955   -7.5007 H   0  0  0  0  0  0
   16.9199   14.6053   -7.8438 H   0  0  0  0  0  0
   13.6423   18.3718   -6.4393 H   0  0  0  0  0  0
   12.8811   18.9732   -7.9511 H   0  0  0  0  0  0
   11.1464   17.1338   -7.7970 H   0  0  0  0  0  0
   11.8980   16.5624   -6.2689 H   0  0  0  0  0  0
    9.8285   17.7684   -5.8558 H   0  0  0  0  0  0
   10.4800   19.2202   -6.6892 H   0  0  0  0  0  0
   11.2317   18.6488   -5.1610 H   0  0  0  0  0  0
    9.7153   21.3888   -9.0862 H   0  0  0  0  0  0
   11.3077   20.6605   -8.6854 H   0  0  0  0  0  0
    9.8340   19.6341   -8.7206 H   0  0  0  0  0  0
  1  2  1  0  0  0
  1  3  2  0  0  0
  1 14  1  0  0  0
  2  4  1  0  0  0
  2 13  2  0  0  0
  3  5  1  0  0  0
  4  6  1  0  0  0
  4 11  1  0  0  0
  5  6  2  0  0  0
  5 10  1  0  0  0
  6  8  1  0  0  0
  7  8  2  0  0  0
  7  9  1  0  0  0
  7 19  1  0  0  0
  9 10  2  0  0  0
  9 21  1  0  0  0
 10 22  1  0  0  0
 11 12  2  0  0  0
 11 16  1  0  0  0
 12 13  1  0  0  0
 13 15  1  0  0  0
 14 23  1  0  0  0
 14 24  1  0  0  0
 14 25  1  0  0  0
 15 26  1  0  0  0
 15 27  1  0  0  0
 15 28  1  0  0  0
 16 17  1  0  0  0
 16 29  1  0  0  0
 16 30  1  0  0  0
 17 18  1  0  0  0
 17 31  1  0  0  0
 17 32  1  0  0  0
 18 33  1  0  0  0
 18 34  1  0  0  0
 18 35  1  0  0  0
 19 20  1  0  0  0
 20 36  1  0  0  0
 20 37  1  0  0  0
 20 38  1  0  0  0
M  END
> <s_m_source_file>
../3lxg_ligand.sdf

> <i_m_source_file_index>
1

> <s_epik_input>
W0NIM11PYyhuMSlbY0hdW2NIXWMobmMyW0NIM10pYzFuKGMyMyljKG5jM1tDSDNdKVtDSDJdW0NIMl1bQ0gzXQ==

> <s_epik_cmdline>
J2VwaWtfYXBwJywgJy1pbWFlJywgJ2xpZ2FuZF9wcm8ubWFlJywgJy1vbWFlJywgJ2xpZ2FuZF9wcmVwLm1hZScsICctbXMnLCAnMScsICctcGgnLCAnNycsICctcGh0JywgJzAuNScsICctbnQn

> <r_epik_Ionization_Penalty>
  0.0153

> <r_epik_Ionization_Penalty_Charging>
  0.0000

> <r_epik_Ionization_Penalty_Neutral>
  0.0153

> <r_epik_State_Penalty>
  0.0120

> <r_epik_Charging_Adjusted_Penalty>
0.0119686397229213

> <i_epik_Tot_Q>
0

> <i_epik_Tot_abs_Q>
0

$$$$
