3lxl_ligand
                    3D
 Schrodinger Suite 2020-3.
 39 42  0  0  1  0            999 V2000
   -2.8790   13.5630    2.7270 O   0  0  0  0  0  0
   -1.8130   13.2280    3.2460 C   0  0  0  0  0  0
   -1.4780   11.9060    3.3560 N   0  0  0  0  0  0
   -0.2970   11.4250    3.8890 C   0  0  0  0  0  0
    0.6130   12.2730    4.3800 C   0  0  0  0  0  0
    0.3360   13.7010    4.3320 C   0  0  0  0  0  0
    1.2530   14.5970    4.8430 C   0  0  0  0  0  0
   -0.8320   14.2260    3.7800 C   0  0  0  0  0  0
   -1.0700   15.6020    3.7430 C   0  0  0  0  0  0
   -2.2290   16.1700    3.2060 C   0  0  0  0  0  0
   -2.4070   17.5410    3.1960 C   0  0  0  0  0  0
   -3.5440   18.0760    2.6530 F   0  0  0  0  0  0
   -1.4540   18.4010    3.7210 C   0  0  0  0  0  0
   -0.2940   17.8580    4.2590 C   0  0  0  0  0  0
   -0.1270   16.4860    4.2640 C   0  0  0  0  0  0
    1.0500   15.9630    4.8210 C   0  0  0  0  0  0
    2.1140   16.6110    5.4000 N   0  3  0  0  0  0
    2.9700   15.6730    5.7670 C   0  0  0  0  0  0
    2.4820   14.4340    5.4500 N   0  0  0  0  0  0
    4.2680   15.8830    6.4690 C   0  0  0  0  0  0
    5.0540   14.5930    6.6050 C   0  0  0  0  0  0
    3.8560   16.3250    7.8570 C   0  0  0  0  0  0
    5.1230   16.9580    5.8420 C   0  0  0  0  0  0
   -0.1038   10.3423    3.9100 H   0  0  0  0  0  0
    0.7780   12.0569    5.4459 H   0  0  0  0  0  0
    1.5588   12.1541    3.8311 H   0  0  0  0  0  0
   -3.0020   15.5239    2.7900 H   0  0  0  0  0  0
   -1.6117   19.4795    3.7117 H   0  0  0  0  0  0
    0.4770   18.5077    4.6732 H   0  0  0  0  0  0
    4.4169   13.8220    7.0628 H   0  0  0  0  0  0
    5.9349   14.7657    7.2407 H   0  0  0  0  0  0
    5.3802   14.2558    5.6101 H   0  0  0  0  0  0
    3.2324   15.5459    8.3199 H   0  0  0  0  0  0
    3.2825   17.2611    7.7885 H   0  0  0  0  0  0
    4.7537   16.4891    8.4711 H   0  0  0  0  0  0
    5.4261   16.6431    4.8325 H   0  0  0  0  0  0
    6.0185   17.1210    6.4596 H   0  0  0  0  0  0
    4.5472   17.8930    5.7771 H   0  0  0  0  0  0
    2.1150   17.7085    5.4748 H   0  0  0  0  0  0
  1  2  2  0  0  0
  2  3  1  0  0  0
  2  8  1  0  0  0
  3  4  2  0  0  0
  4  5  1  0  0  0
  4 24  1  0  0  0
  5  6  1  0  0  0
  5 25  1  0  0  0
  5 26  1  0  0  0
  6  7  2  0  0  0
  6  8  1  0  0  0
  7 16  1  0  0  0
  7 19  1  0  0  0
  8  9  2  0  0  0
  9 10  1  0  0  0
  9 15  1  0  0  0
 10 11  2  0  0  0
 10 27  1  0  0  0
 11 12  1  0  0  0
 11 13  1  0  0  0
 13 14  2  0  0  0
 13 28  1  0  0  0
 14 15  1  0  0  0
 14 29  1  0  0  0
 15 16  2  0  0  0
 16 17  1  0  0  0
 17 18  1  0  0  0
 17 39  1  0  0  0
 18 19  2  0  0  0
 18 20  1  0  0  0
 20 21  1  0  0  0
 20 22  1  0  0  0
 20 23  1  0  0  0
 21 30  1  0  0  0
 21 31  1  0  0  0
 21 32  1  0  0  0
 22 33  1  0  0  0
 22 34  1  0  0  0
 22 35  1  0  0  0
 23 36  1  0  0  0
 23 37  1  0  0  0
 23 38  1  0  0  0
M  CHG  1  17   1
M  END
> <s_m_source_file>
../3lxl_ligand.sdf

> <i_m_source_file_index>
1

> <s_epik_input>
W0NIMl0xW0NIXT1OQyg9TyljMmMoW2NIXWMoRilbY0hdW2NIXTMpYzNjKGM0YzEyKVtuSF1jKG40KUMoW0NIM10pKFtDSDNdKVtDSDNd

> <s_epik_cmdline>
J2VwaWtfYXBwJywgJy1pbWFlJywgJ2xpZ2FuZF9wcm8ubWFlJywgJy1vbWFlJywgJ2xpZ2FuZF9wcmVwLm1hZScsICctbXMnLCAnMScsICctcGgnLCAnNycsICctcGh0JywgJzAuNScsICctbnQn

> <r_epik_Ionization_Penalty>
  0.0000

> <r_epik_Ionization_Penalty_Charging>
  0.0000

> <r_epik_Ionization_Penalty_Neutral>
  0.0000

> <r_epik_State_Penalty>
  0.0017

> <r_epik_Charging_Adjusted_Penalty>
0.00171970211728229

> <i_epik_Tot_Q>
1

> <i_epik_Tot_abs_Q>
1

> <s_epik_Chemistry_Notes>
This compound has an imine and may undergo hydrolysis.

$$$$
