3lxo_ligand
                    3D
 Schrodinger Suite 2020-3.
 34 35  0  0  1  0            999 V2000
   -2.2910  -20.9770    4.6440 P   0  0  0  0  0  0
   -1.9680  -20.1200    3.4580 O   0  0  0  0  0  0
   -2.4110  -22.4070    4.1930 O   0  5  0  0  0  0
   -1.1090  -20.8120    5.6300 O   0  5  0  0  0  0
   -4.2150  -17.0680    5.0340 O   0  0  0  0  0  0
   -5.4740  -17.5750    4.7720 C   0  0  0  0  0  0
   -5.6770  -19.0220    5.0600 C   0  0  1  0  0  0
   -6.9520  -19.6760    5.3510 O   0  0  0  0  0  0
   -4.6890  -20.1240    4.7110 C   0  0  1  0  0  0
   -3.5600  -20.4830    5.3900 O   0  0  0  0  0  0
   -5.5590  -21.0660    3.9540 C   0  0  0  0  0  0
   -6.8230  -21.0250    4.7970 C   0  0  2  0  0  0
   -8.0350  -21.7100    4.4950 N   0  0  0  0  0  0
   -8.1980  -23.0120    5.0020 C   0  0  0  0  0  0
   -7.3050  -23.5130    5.7020 O   0  0  0  0  0  0
   -9.3510  -23.7040    4.6320 N   0  0  0  0  0  0
  -10.2420  -23.1420    3.8240 C   0  0  0  0  0  0
  -11.3850  -23.8030    3.4430 O   0  0  0  0  0  0
  -10.0520  -21.7930    3.3070 C   0  0  0  0  0  0
  -11.0900  -21.1810    2.4050 C   0  0  0  0  0  0
   -8.9350  -21.1240    3.6590 C   0  0  0  0  0  0
   -3.9989  -16.0064    4.8432 H   0  0  0  0  0  0
   -6.2187  -17.0390    5.3788 H   0  0  0  0  0  0
   -5.7074  -17.4439    3.7051 H   0  0  0  0  0  0
   -5.4810  -18.3010    5.8673 H   0  0  0  0  0  0
   -3.6901  -19.8513    4.3397 H   0  0  0  0  0  0
   -5.7001  -20.6918    2.9293 H   0  0  0  0  0  0
   -5.0836  -22.0574    3.9201 H   0  0  0  0  0  0
   -6.7248  -21.8199    5.5510 H   0  0  0  0  0  0
   -9.5266  -24.7220    5.0100 H   0  0  0  0  0  0
  -11.9105  -21.8974    2.2513 H   0  0  0  0  0  0
  -10.6331  -20.9332    1.4355 H   0  0  0  0  0  0
  -11.4849  -20.2652    2.8690 H   0  0  0  0  0  0
   -8.7541  -20.1196    3.2761 H   0  0  0  0  0  0
  1  2  2  0  0  0
  1  3  1  0  0  0
  1  4  1  0  0  0
  1 10  1  0  0  0
  5  6  1  0  0  0
  5 22  1  0  0  0
  6  7  1  0  0  0
  6 23  1  0  0  0
  6 24  1  0  0  0
  7  8  1  0  0  0
  7  9  1  0  0  0
  7 25  1  0  0  0
  8 12  1  0  0  0
  9 10  1  0  0  0
  9 11  1  0  0  0
  9 26  1  0  0  0
 11 12  1  0  0  0
 11 27  1  0  0  0
 11 28  1  0  0  0
 12 13  1  0  0  0
 12 29  1  0  0  0
 13 14  1  0  0  0
 13 21  1  0  0  0
 14 15  2  0  0  0
 14 16  1  0  0  0
 16 17  1  0  0  0
 16 30  1  0  0  0
 17 18  2  0  0  0
 17 19  1  0  0  0
 19 20  1  0  0  0
 19 21  2  0  0  0
 20 31  1  0  0  0
 20 32  1  0  0  0
 20 33  1  0  0  0
 21 34  1  0  0  0
M  CHG  2   3  -1   4  -1
M  END
> <s_m_source_file>
../3lxo_ligand.sdf

> <i_m_source_file_index>
1

> <s_epik_input>
Tz1QKFtPSF0pKFtPSF0pT1tDQEhdMVtDSDJdW0NAQEhdKE9bQ0BASF0xW0NIMl1bT0hdKW4yYyg9TylbbkhdYyg9TyljKFtDSDNdKVtjSF0y

> <s_epik_cmdline>
J2VwaWtfYXBwJywgJy1pbWFlJywgJ2xpZ2FuZF9wcm8ubWFlJywgJy1vbWFlJywgJ2xpZ2FuZF9wcmVwLm1hZScsICctbXMnLCAnMScsICctcGgnLCAnNycsICctcGh0JywgJzAuNScsICctbnQn

> <r_lp_tautomer_probability>
0.999537046341301

> <r_epik_Ionization_Penalty>
  0.1027

> <r_epik_Ionization_Penalty_Charging>
  0.1027

> <r_epik_Ionization_Penalty_Neutral>
  0.0000

> <r_epik_State_Penalty>
  0.0915

> <r_epik_Charging_Adjusted_Penalty>
0.194201457218613

> <i_epik_Tot_Q>
-2

> <i_epik_Tot_abs_Q>
2

> <s_epik_Chemistry_Notes>
This compound contains an acetal/aminal-like group ( X-CH(R)-Y where X, Y are N, S, or O) that may be acid/base labile, releasing an aldehyde.

$$$$
