3lxs_ligand
                    3D
 Schrodinger Suite 2020-3.
 86 88  0  0  1  0            999 V2000
   50.1440   -1.4760   22.5040 O   0  0  0  0  0  0
   51.2330   -1.5990   23.4510 S   0  0  0  0  0  0
   52.1470   -0.4390   23.4160 O   0  0  0  0  0  0
   50.5700   -1.8690   25.0250 C   0  0  0  0  0  0
   51.1530   -2.7610   25.8800 C   0  0  0  0  0  0
   50.5990   -2.9800   27.1350 C   0  0  0  0  0  0
   49.5000   -2.2670   27.5380 C   0  0  0  0  0  0
   48.8920   -1.3860   26.6600 C   0  0  0  0  0  0
   49.4460   -1.1590   25.3870 C   0  0  0  0  0  0
   52.1860   -3.0340   23.0180 C   0  0  0  0  0  0
   52.5040   -3.1280   21.5050 C   0  0  0  0  0  0
   51.9070   -4.4310   20.8350 C   0  0  2  0  0  0
   50.3550   -4.3930   20.9620 C   0  0  0  0  0  0
   49.7650   -5.3680   19.9000 C   0  0  0  0  0  0
   48.2530   -5.4430   19.9440 C   0  0  0  0  0  0
   47.6810   -6.6550   20.2910 C   0  0  0  0  0  0
   46.2850   -6.7810   20.3380 C   0  0  0  0  0  0
   45.5090   -5.7060   20.0030 C   0  0  0  0  0  0
   46.0680   -4.4930   19.6740 C   0  0  0  0  0  0
   47.4580   -4.3500   19.6020 C   0  0  0  0  0  0
   52.3840   -5.6130   21.5460 N   0  0  0  0  0  0
   53.2880   -6.4580   21.0250 C   0  0  0  0  0  0
   53.5190   -6.2040   19.6070 O   0  0  0  0  0  0
   53.8140   -7.7530   21.3220 C   0  0  2  0  0  0
   55.2600   -7.3690   21.6990 C   0  0  0  0  0  0
   55.8610   -8.4990   22.5690 C   0  0  0  0  0  0
   56.6920   -9.4560   21.7120 C   0  0  0  0  0  0
   57.0690  -10.6920   22.3960 N   0  0  0  0  0  0
   56.2820  -11.7480   22.5190 C   0  0  0  0  0  0
   56.8120  -12.8790   22.9530 N   0  3  0  0  0  0
   54.9700  -11.6740   22.2350 N   0  0  0  0  0  0
   53.6750   -8.7790   20.4480 N   0  0  0  0  0  0
   52.4490   -9.1120   20.0860 C   0  0  0  0  0  0
   51.4750   -8.5040   20.5200 O   0  0  0  0  0  0
   52.2640  -10.1450   19.2820 N   0  0  0  0  0  0
   50.9120  -10.4890   18.8190 C   0  0  0  0  0  0
   50.7450  -11.9900   18.9290 C   0  0  0  0  0  0
   53.3930  -10.9850   18.9220 C   0  0  0  0  0  0
   53.0740  -12.4470   18.9720 C   0  0  0  0  0  0
   51.8370  -12.6740   18.2120 N   0  3  0  0  0  0
   51.5630  -14.1270   18.3070 C   0  0  0  0  0  0
   52.0511   -3.2998   25.5780 H   0  0  0  0  0  0
   51.0398   -3.7214   27.8015 H   0  0  0  0  0  0
   49.1060   -2.3932   28.5464 H   0  0  0  0  0  0
   47.9808   -0.8664   26.9562 H   0  0  0  0  0  0
   48.9968   -0.4386   24.7033 H   0  0  0  0  0  0
   53.1451   -3.0133   23.5563 H   0  0  0  0  0  0
   51.6293   -3.9413   23.2954 H   0  0  0  0  0  0
   52.0777   -2.2569   20.9859 H   0  0  0  0  0  0
   53.5943   -3.1440   21.3597 H   0  0  0  0  0  0
   52.2377   -4.5410   19.7917 H   0  0  0  0  0  0
   50.0621   -4.7091   21.9741 H   0  0  0  0  0  0
   49.9971   -3.3689   20.7798 H   0  0  0  0  0  0
   50.0545   -5.0324   18.8932 H   0  0  0  0  0  0
   50.1558   -6.3812   20.0752 H   0  0  0  0  0  0
   48.3146   -7.5099   20.5273 H   0  0  0  0  0  0
   45.8249   -7.7227   20.6374 H   0  0  0  0  0  0
   44.4242   -5.8126   19.9965 H   0  0  0  0  0  0
   45.4241   -3.6379   19.4681 H   0  0  0  0  0  0
   47.9076   -3.4084   19.2867 H   0  0  0  0  0  0
   52.0014   -5.8416   22.5517 H   0  0  0  0  0  0
   53.1486   -8.3094   21.9985 H   0  0  0  0  0  0
   55.8567   -7.2441   20.7834 H   0  0  0  0  0  0
   55.2533   -6.4252   22.2639 H   0  0  0  0  0  0
   56.5084   -8.0609   23.3429 H   0  0  0  0  0  0
   55.0482   -9.0647   23.0480 H   0  0  0  0  0  0
   56.1169   -9.7417   20.8189 H   0  0  0  0  0  0
   57.6234   -8.9581   21.4046 H   0  0  0  0  0  0
   58.0660  -10.7867   22.8511 H   0  0  0  0  0  0
   57.8865  -12.9303   23.1829 H   0  0  0  0  0  0
   54.5378  -10.7289   21.8745 H   0  0  0  0  0  0
   54.3288  -12.5585   22.3632 H   0  0  0  0  0  0
   54.5649   -9.3012   20.0669 H   0  0  0  0  0  0
   50.1680   -9.9778   19.4476 H   0  0  0  0  0  0
   50.7901  -10.1697   17.7735 H   0  0  0  0  0  0
   50.7679  -12.2848   19.9885 H   0  0  0  0  0  0
   49.7819  -12.2852   18.4871 H   0  0  0  0  0  0
   53.7141  -10.7481   17.8970 H   0  0  0  0  0  0
   54.2242  -10.8005   19.6185 H   0  0  0  0  0  0
   53.9015  -13.0183   18.5261 H   0  0  0  0  0  0
   52.9366  -12.7568   20.0185 H   0  0  0  0  0  0
   51.9221  -12.3165   17.1752 H   0  0  0  0  0  0
   50.6421  -14.3634   17.7538 H   0  0  0  0  0  0
   51.4388  -14.4084   19.3631 H   0  0  0  0  0  0
   52.4047  -14.6879   17.8746 H   0  0  0  0  0  0
   56.1784  -13.7686   23.0842 H   0  0  0  0  0  0
  1  2  2  0  0  0
  2  3  2  0  0  0
  2  4  1  0  0  0
  2 10  1  0  0  0
  4  5  2  0  0  0
  4  9  1  0  0  0
  5  6  1  0  0  0
  5 42  1  0  0  0
  6  7  2  0  0  0
  6 43  1  0  0  0
  7  8  1  0  0  0
  7 44  1  0  0  0
  8  9  2  0  0  0
  8 45  1  0  0  0
  9 46  1  0  0  0
 10 11  1  0  0  0
 10 47  1  0  0  0
 10 48  1  0  0  0
 11 12  1  0  0  0
 11 49  1  0  0  0
 11 50  1  0  0  0
 12 13  1  0  0  0
 12 21  1  0  0  0
 12 51  1  0  0  0
 13 14  1  0  0  0
 13 52  1  0  0  0
 13 53  1  0  0  0
 14 15  1  0  0  0
 14 54  1  0  0  0
 14 55  1  0  0  0
 15 16  2  0  0  0
 15 20  1  0  0  0
 16 17  1  0  0  0
 16 56  1  0  0  0
 17 18  2  0  0  0
 17 57  1  0  0  0
 18 19  1  0  0  0
 18 58  1  0  0  0
 19 20  2  0  0  0
 19 59  1  0  0  0
 20 60  1  0  0  0
 21 22  1  0  0  0
 21 61  1  0  0  0
 22 23  2  0  0  0
 22 24  1  0  0  0
 24 25  1  0  0  0
 24 32  1  0  0  0
 24 62  1  0  0  0
 25 26  1  0  0  0
 25 63  1  0  0  0
 25 64  1  0  0  0
 26 27  1  0  0  0
 26 65  1  0  0  0
 26 66  1  0  0  0
 27 28  1  0  0  0
 27 67  1  0  0  0
 27 68  1  0  0  0
 28 29  1  0  0  0
 28 69  1  0  0  0
 29 30  2  0  0  0
 29 31  1  0  0  0
 30 70  1  0  0  0
 30 86  1  0  0  0
 31 71  1  0  0  0
 31 72  1  0  0  0
 32 33  1  0  0  0
 32 73  1  0  0  0
 33 34  2  0  0  0
 33 35  1  0  0  0
 35 36  1  0  0  0
 35 38  1  0  0  0
 36 37  1  0  0  0
 36 74  1  0  0  0
 36 75  1  0  0  0
 37 40  1  0  0  0
 37 76  1  0  0  0
 37 77  1  0  0  0
 38 39  1  0  0  0
 38 78  1  0  0  0
 38 79  1  0  0  0
 39 40  1  0  0  0
 39 80  1  0  0  0
 39 81  1  0  0  0
 40 41  1  0  0  0
 40 82  1  0  0  0
 41 83  1  0  0  0
 41 84  1  0  0  0
 41 85  1  0  0  0
M  CHG  2  30   1  40   1
M  END
> <s_m_source_file>
../3lxs_ligand.sdf

> <i_m_source_file_index>
1

> <s_epik_input>
W2NIXTFbY0hdW2NIXVtjSF1bY0hdYzFTKD1PKSg9TylbQ0gyXVtDSDJdW0NASF0oW0NIMl1bQ0gyXWMyW2NIXVtjSF1bY0hdW2NIXVtjSF0yKVtOSF1DKD1PKVtDQEhdKFtDSDJdW0NIMl1bQ0gyXVtOSF0vQyg9TlxbSF0pW05IMl0pW05IXUMoPU8pTjNbQ0gyXVtDSDJdW05IK10oW0NIM10pW0NIMl1bQ0gyXTM=

> <s_epik_cmdline>
J2VwaWtfYXBwJywgJy1pbWFlJywgJ2xpZ2FuZF9wcm8ubWFlJywgJy1vbWFlJywgJ2xpZ2FuZF9wcmVwLm1hZScsICctbXMnLCAnMScsICctcGgnLCAnNycsICctcGh0JywgJzAuNScsICctbnQn

> <r_epik_Ionization_Penalty>
  0.1841

> <r_epik_Ionization_Penalty_Charging>
  0.1841

> <r_epik_Ionization_Penalty_Neutral>
  0.0000

> <r_epik_State_Penalty>
  0.1736

> <r_epik_Charging_Adjusted_Penalty>
0.35767165029062

> <i_epik_Tot_Q>
2

> <i_epik_Tot_abs_Q>
2

> <s_epik_Chemistry_Notes>
This compound has an imine and may undergo hydrolysis.

$$$$
