3ly2_ligand
                    3D
 Schrodinger Suite 2020-3.
 46 49  0  0  1  0            999 V2000
  -12.8940   42.0090   41.5780 C   0  0  0  0  0  0
  -12.4930   42.0180   42.9380 C   0  0  0  0  0  0
  -11.1540   41.7480   43.2860 O   0  0  0  0  0  0
  -10.5670   40.6820   42.5160 C   0  0  0  0  0  0
  -10.1420   39.5230   43.4280 C   0  0  0  0  0  0
   -8.6100   39.5340   43.4990 C   0  0  0  0  0  0
   -8.1190   40.6790   42.6000 C   0  0  0  0  0  0
   -9.3140   41.1630   41.7900 C   0  0  0  0  0  0
  -13.4590   42.2210   43.9480 C   0  0  0  0  0  0
  -12.2480   41.9510   39.2050 C   0  0  0  0  0  0
  -11.8900   41.8680   40.5650 O   0  0  0  0  0  0
  -11.3010   41.8550   38.3870 O   0  0  0  0  0  0
  -13.0500   42.2610   45.3020 O   0  0  0  0  0  0
  -14.0290   42.8150   46.1930 C   0  0  0  0  0  0
  -14.8410   42.4190   43.6170 C   0  0  0  0  0  0
  -15.2330   42.4020   42.2430 C   0  0  0  0  0  0
  -14.2400   42.1990   41.2070 C   0  0  0  0  0  0
  -14.5740   42.1860   39.8560 C   0  0  0  0  0  0
  -15.9660   42.2050   39.5040 N   0  0  0  0  0  0
  -13.6340   42.1280   38.8840 C   0  0  0  0  0  0
  -16.4120   41.9600   38.1420 C   0  0  0  0  0  0
  -16.9860   42.9600   37.4380 C   0  0  0  0  0  0
  -17.2570   44.4730   38.1850 Cl  0  0  0  0  0  0
  -17.3390   42.7650   36.0810 C   0  0  0  0  0  0
  -17.1100   41.5420   35.4490 N   0  0  0  0  0  0
  -16.5250   40.5360   36.2010 C   0  0  0  0  0  0
  -16.1810   40.7520   37.5610 C   0  0  0  0  0  0
  -15.5270   39.4770   38.4850 Cl  0  0  0  0  0  0
  -11.3662   40.3978   41.8157 H   0  0  0  0  0  0
  -10.5752   39.6662   44.4289 H   0  0  0  0  0  0
  -10.5014   38.5731   43.0054 H   0  0  0  0  0  0
   -8.2923   39.6968   44.5395 H   0  0  0  0  0  0
   -8.2195   38.5692   43.1431 H   0  0  0  0  0  0
   -7.7219   41.4919   43.2257 H   0  0  0  0  0  0
   -7.3259   40.3081   41.9341 H   0  0  0  0  0  0
   -9.2933   40.7399   40.7748 H   0  0  0  0  0  0
   -9.3242   42.2613   41.7294 H   0  0  0  0  0  0
  -13.6348   42.8098   47.2199 H   0  0  0  0  0  0
  -14.9475   42.2112   46.1498 H   0  0  0  0  0  0
  -14.2552   43.8486   45.8923 H   0  0  0  0  0  0
  -15.5804   42.5799   44.4015 H   0  0  0  0  0  0
  -16.2799   42.5418   41.9738 H   0  0  0  0  0  0
  -16.7252   42.4086   40.2735 H   0  0  0  0  0  0
  -13.9356   42.2173   37.8404 H   0  0  0  0  0  0
  -17.7961   43.5815   35.5220 H   0  0  0  0  0  0
  -16.3266   39.5671   35.7427 H   0  0  0  0  0  0
  1  2  2  0  0  0
  1 11  1  0  0  0
  1 17  1  0  0  0
  2  3  1  0  0  0
  2  9  1  0  0  0
  3  4  1  0  0  0
  4  5  1  0  0  0
  4  8  1  0  0  0
  4 29  1  0  0  0
  5  6  1  0  0  0
  5 30  1  0  0  0
  5 31  1  0  0  0
  6  7  1  0  0  0
  6 32  1  0  0  0
  6 33  1  0  0  0
  7  8  1  0  0  0
  7 34  1  0  0  0
  7 35  1  0  0  0
  8 36  1  0  0  0
  8 37  1  0  0  0
  9 13  1  0  0  0
  9 15  2  0  0  0
 10 11  1  0  0  0
 10 12  2  0  0  0
 10 20  1  0  0  0
 13 14  1  0  0  0
 14 38  1  0  0  0
 14 39  1  0  0  0
 14 40  1  0  0  0
 15 16  1  0  0  0
 15 41  1  0  0  0
 16 17  2  0  0  0
 16 42  1  0  0  0
 17 18  1  0  0  0
 18 19  1  0  0  0
 18 20  2  0  0  0
 19 21  1  0  0  0
 19 43  1  0  0  0
 20 44  1  0  0  0
 21 22  2  0  0  0
 21 27  1  0  0  0
 22 23  1  0  0  0
 22 24  1  0  0  0
 24 25  2  0  0  0
 24 45  1  0  0  0
 25 26  1  0  0  0
 26 27  2  0  0  0
 26 46  1  0  0  0
 27 28  1  0  0  0
M  END
> <s_m_source_file>
../3ly2_ligand.sdf

> <i_m_source_file_index>
1

> <s_epik_input>
Q2xjMVtjSF1uW2NIXWMoQ2wpYzFbTkhdYyhbY0hdYyhvMik9TyljKGMyMylbY0hdW2NIXWMoT1tDSDNdKWMzT1tDSF00W0NIMl1bQ0gyXVtDSDJdW0NIMl00

> <s_epik_cmdline>
J2VwaWtfYXBwJywgJy1pbWFlJywgJ2xpZ2FuZF9wcm8ubWFlJywgJy1vbWFlJywgJ2xpZ2FuZF9wcmVwLm1hZScsICctbXMnLCAnMScsICctcGgnLCAnNycsICctcGh0JywgJzAuNScsICctbnQn

> <r_lp_tautomer_probability>
1

> <r_epik_Ionization_Penalty>
  0.0001

> <r_epik_Ionization_Penalty_Charging>
  0.0000

> <r_epik_Ionization_Penalty_Neutral>
  0.0001

> <r_epik_State_Penalty>
 -0.0000

> <r_epik_Charging_Adjusted_Penalty>
4.64082447413011e-07

> <i_epik_Tot_Q>
0

> <i_epik_Tot_abs_Q>
0

> <s_epik_Chemistry_Notes>
This compound has an imine and may undergo hydrolysis.

$$$$
