3lzb_ligand
                    3D
 Schrodinger Suite 2020-3.
 72 78  0  0  1  0            999 V2000
   15.7310    7.2150   -4.6190 C   0  0  0  0  0  0
   15.9960    7.8550   -3.4340 C   0  0  0  0  0  0
   19.9780    2.7350   -5.8490 C   0  0  0  0  0  0
   19.8650    0.5560   -4.8720 C   0  0  0  0  0  0
   13.3330   12.0430    2.5220 C   0  0  0  0  0  0
   16.1820    5.9370   -4.8070 C   0  0  0  0  0  0
   13.8500    7.1610   -1.4780 C   0  0  0  0  0  0
   12.4960    7.1050   -1.6000 C   0  0  0  0  0  0
   19.2590    1.7440   -5.2150 C   0  0  0  0  0  0
   16.8630    5.2930   -3.8040 C   0  0  0  0  0  0
   14.3280    8.0380   -0.5410 C   0  0  0  0  0  0
   16.8250    7.8290   -1.1300 C   0  0  0  0  0  0
   12.2620    8.6740    0.0570 C   0  0  0  0  0  0
   15.8070    9.2680    1.9420 C   0  0  0  0  0  0
   17.2850    3.2670   -5.1250 C   0  0  0  0  0  0
   21.9260    1.3230   -5.8050 C   0  0  0  0  0  0
   21.3100    2.5140   -6.1330 C   0  0  0  0  0  0
   21.1960    0.3430   -5.1700 C   0  0  0  0  0  0
   11.2390   11.7270    3.6830 C   0  0  0  0  0  0
   12.9790   11.0740    1.6200 C   0  0  0  0  0  0
   10.9010   10.7750    2.7500 C   0  0  0  0  0  0
   17.0810    5.9200   -2.6070 C   0  0  0  0  0  0
   16.6770    7.2130   -2.4260 C   0  0  0  0  0  0
   12.4700   12.3220    3.5640 C   0  0  0  0  0  0
   11.7720   10.4210    1.7440 C   0  0  0  0  0  0
   15.7470    8.1830   -0.3400 C   0  0  0  0  0  0
   17.6240    8.6570    0.6260 C   0  0  0  0  0  0
   16.8380    9.6330    2.7150 C   0  0  0  0  0  0
   14.0770   13.8760    4.5700 C   0  0  0  0  0  0
   11.8660   13.3660    5.6180 C   0  0  0  0  0  0
   13.9810   14.9860    5.5980 C   0  0  0  0  0  0
   12.8010   13.2890    6.8090 C   0  0  0  0  0  0
   17.8200    1.8960   -4.8840 C   0  0  0  0  0  0
   11.7090    7.8660   -0.8480 N   0  0  0  0  0  0
   13.5710    8.7820    0.2520 N   0  0  0  0  0  0
   18.0140    8.1210   -0.5130 N   0  0  0  0  0  0
   16.2850    8.7110    0.7860 N   0  0  0  0  0  0
   12.7750   13.2520    4.5270 N   0  0  0  0  0  0
   11.3800    9.4570    0.8130 N   0  0  0  0  0  0
   17.3050    3.9630   -3.9340 N   0  0  0  0  0  0
   16.9050    3.6460   -6.2300 O   0  0  0  0  0  0
   13.5800   14.4850    6.8900 O   0  0  0  0  0  0
   18.4130    9.2930    2.0410 S   0  0  0  0  0  0
   15.1666    7.7201   -5.4028 H   0  0  0  0  0  0
   15.6632    8.8830   -3.2902 H   0  0  0  0  0  0
   19.5022    3.6771   -6.1213 H   0  0  0  0  0  0
   19.2917   -0.2190   -4.3633 H   0  0  0  0  0  0
   14.2749   12.5818    2.4195 H   0  0  0  0  0  0
   16.0003    5.4296   -5.7544 H   0  0  0  0  0  0
   14.5125    6.5466   -2.0876 H   0  0  0  0  0  0
   12.0503    6.4251   -2.3261 H   0  0  0  0  0  0
   14.7539    9.3943    2.1933 H   0  0  0  0  0  0
   22.9766    1.1603   -6.0455 H   0  0  0  0  0  0
   21.8876    3.2957   -6.6264 H   0  0  0  0  0  0
   21.6695   -0.6016   -4.9025 H   0  0  0  0  0  0
   10.5549   11.9988    4.4869 H   0  0  0  0  0  0
   13.6537   10.8193    0.8027 H   0  0  0  0  0  0
    9.9257   10.2918    2.8079 H   0  0  0  0  0  0
   17.5779    5.3869   -1.7964 H   0  0  0  0  0  0
   16.7046   10.1052    3.6883 H   0  0  0  0  0  0
   14.3429   14.3039    3.5921 H   0  0  0  0  0  0
   14.8502   13.1568    4.8780 H   0  0  0  0  0  0
   11.1419   12.5393    5.6663 H   0  0  0  0  0  0
   11.3286   14.3256    5.6352 H   0  0  0  0  0  0
   14.9618   15.4724    5.7050 H   0  0  0  0  0  0
   13.2380   15.7274    5.2689 H   0  0  0  0  0  0
   12.2118   13.1751    7.7309 H   0  0  0  0  0  0
   13.4717   12.4248    6.6934 H   0  0  0  0  0  0
   17.2271    1.2029   -5.4989 H   0  0  0  0  0  0
   17.6625    1.6681   -3.8195 H   0  0  0  0  0  0
   10.2936    9.3330    0.6931 H   0  0  0  0  0  0
   17.6922    3.4239   -3.0568 H   0  0  0  0  0  0
  1  2  2  0  0  0
  1  6  1  0  0  0
  1 44  1  0  0  0
  2 23  1  0  0  0
  2 45  1  0  0  0
  3  9  2  0  0  0
  3 17  1  0  0  0
  3 46  1  0  0  0
  4  9  1  0  0  0
  4 18  2  0  0  0
  4 47  1  0  0  0
  5 20  2  0  0  0
  5 24  1  0  0  0
  5 48  1  0  0  0
  6 10  2  0  0  0
  6 49  1  0  0  0
  7  8  2  0  0  0
  7 11  1  0  0  0
  7 50  1  0  0  0
  8 34  1  0  0  0
  8 51  1  0  0  0
  9 33  1  0  0  0
 10 22  1  0  0  0
 10 40  1  0  0  0
 11 26  1  0  0  0
 11 35  2  0  0  0
 12 23  1  0  0  0
 12 26  2  0  0  0
 12 36  1  0  0  0
 13 34  2  0  0  0
 13 35  1  0  0  0
 13 39  1  0  0  0
 14 28  2  0  0  0
 14 37  1  0  0  0
 14 52  1  0  0  0
 15 33  1  0  0  0
 15 40  1  0  0  0
 15 41  2  0  0  0
 16 17  2  0  0  0
 16 18  1  0  0  0
 16 53  1  0  0  0
 17 54  1  0  0  0
 18 55  1  0  0  0
 19 21  1  0  0  0
 19 24  2  0  0  0
 19 56  1  0  0  0
 20 25  1  0  0  0
 20 57  1  0  0  0
 21 25  2  0  0  0
 21 58  1  0  0  0
 22 23  2  0  0  0
 22 59  1  0  0  0
 24 38  1  0  0  0
 25 39  1  0  0  0
 26 37  1  0  0  0
 27 36  2  0  0  0
 27 37  1  0  0  0
 27 43  1  0  0  0
 28 43  1  0  0  0
 28 60  1  0  0  0
 29 31  1  0  0  0
 29 38  1  0  0  0
 29 61  1  0  0  0
 29 62  1  0  0  0
 30 32  1  0  0  0
 30 38  1  0  0  0
 30 63  1  0  0  0
 30 64  1  0  0  0
 31 42  1  0  0  0
 31 65  1  0  0  0
 31 66  1  0  0  0
 32 42  1  0  0  0
 32 67  1  0  0  0
 32 68  1  0  0  0
 33 69  1  0  0  0
 33 70  1  0  0  0
 39 71  1  0  0  0
 40 72  1  0  0  0
M  END
> <s_m_source_file>
../3lzb_ligand.sdf

> <i_m_source_file_index>
1

> <s_epik_input>
W2NIXTFbY0hdW2NIXVtjSF1bY0hdYzFbQ0gyXUMoPU8pW05IXWMyW2NIXVtjSF1bY0hdYyhbY0hdMiktYyhuMyljKG4oYzM0KVtjSF1bY0hdczQpLWM1W2NIXVtjSF1uYyhuNSlbTkhdYyhbY0hdW2NIXTYpW2NIXVtjSF1jNk43W0NIMl1bQ0gyXU9bQ0gyXVtDSDJdNw==

> <s_epik_cmdline>
J2VwaWtfYXBwJywgJy1pbWFlJywgJ2xpZ2FuZF9wcm8ubWFlJywgJy1vbWFlJywgJ2xpZ2FuZF9wcmVwLm1hZScsICctbXMnLCAnMScsICctcGgnLCAnNycsICctcGh0JywgJzAuNScsICctbnQn

> <r_lp_tautomer_probability>
1

> <r_epik_Ionization_Penalty>
  0.0002

> <r_epik_Ionization_Penalty_Charging>
  0.0000

> <r_epik_Ionization_Penalty_Neutral>
  0.0002

> <r_epik_State_Penalty>
 -0.0000

> <r_epik_Charging_Adjusted_Penalty>
0

> <i_epik_Tot_Q>
0

> <i_epik_Tot_abs_Q>
0

$$$$
