3lzs_ligand
                    3D
 Schrodinger Suite 2020-3.
 75 78  0  0  1  0            999 V2000
   -8.1290   16.3510   -8.1130 N   0  0  0  0  0  0
   -8.2680   16.1010   -6.7880 C   0  0  0  0  0  0
   -7.1400   15.8180   -6.0340 C   0  0  0  0  0  0
   -7.2610   15.5480   -4.6770 C   0  0  0  0  0  0
   -8.5110   15.5830   -4.0740 C   0  0  0  0  0  0
   -9.6500   15.8580   -4.8300 C   0  0  0  0  0  0
   -9.5250   16.1250   -6.1910 C   0  0  0  0  0  0
   -8.6110   15.2710   -2.5100 S   0  0  0  0  0  0
   -9.9040   14.7120   -2.2320 O   0  0  0  0  0  0
   -7.5390   14.3820   -2.1810 O   0  0  0  0  0  0
   -8.4390   16.5670   -1.5710 N   0  0  1  0  0  0
   -7.2400   17.3720   -1.8690 C   0  0  0  0  0  0
   -6.7330   18.0570   -0.5970 C   0  0  0  0  0  0
   -6.0740   17.0800    0.3710 C   0  0  0  0  0  0
   -5.7300   19.1680   -0.9050 C   0  0  0  0  0  0
   -9.6900   17.3380   -1.5520 C   0  0  0  0  0  0
  -10.1370   17.4200   -0.1010 C   0  0  1  0  0  0
  -11.2110   18.3570    0.0170 O   0  0  0  0  0  0
  -10.5460   16.0490    0.4360 C   0  0  1  0  0  0
  -10.6740   16.1600    1.8750 N   0  0  0  0  0  0
   -9.9400   15.4960    2.7530 C   0  0  0  0  0  0
   -9.0530   14.7040    2.4690 O   0  0  0  0  0  0
  -10.3230   15.7450    4.1330 O   0  0  0  0  0  0
   -9.6380   14.9890    5.1210 C   0  0  1  0  0  0
   -9.2420   15.9870    6.1890 C   0  0  0  0  0  0
  -10.4790   16.2380    6.8460 O   0  0  0  0  0  0
  -11.2960   15.0530    6.8020 C   0  0  1  0  0  0
  -12.6240   15.2760    6.2910 O   0  0  0  0  0  0
  -12.9250   14.4300    5.1860 C   0  0  0  0  0  0
  -11.7370   13.4980    5.0000 C   0  0  0  0  0  0
  -10.6240   14.0930    5.8430 C   0  0  1  0  0  0
  -11.8590   15.5470   -0.1650 C   0  0  0  0  0  0
  -13.4160   14.1780    1.2660 C   0  0  0  0  0  0
  -13.8180   12.9810    1.8520 C   0  0  0  0  0  0
  -13.0830   11.8220    1.6350 C   0  0  0  0  0  0
  -11.9530   11.8740    0.8180 C   0  0  0  0  0  0
  -11.5530   13.0700    0.2320 C   0  0  0  0  0  0
  -12.2790   14.2330    0.4610 C   0  0  0  0  0  0
   -7.1310   16.3295   -8.5750 H   0  0  0  0  0  0
   -9.0142   16.5753   -8.7262 H   0  0  0  0  0  0
   -6.1576   15.8073   -6.5062 H   0  0  0  0  0  0
   -6.3764   15.3091   -4.0867 H   0  0  0  0  0  0
  -10.6326   15.8639   -4.3583 H   0  0  0  0  0  0
  -10.4090   16.3521   -6.7869 H   0  0  0  0  0  0
   -6.4490   16.7186   -2.2656 H   0  0  0  0  0  0
   -7.4902   18.1398   -2.6160 H   0  0  0  0  0  0
   -7.6287   18.4843   -0.1224 H   0  0  0  0  0  0
   -6.7777   16.2687    0.6089 H   0  0  0  0  0  0
   -5.7985   17.6092    1.2952 H   0  0  0  0  0  0
   -5.1705   16.6575   -0.0929 H   0  0  0  0  0  0
   -6.1827   19.8875   -1.6031 H   0  0  0  0  0  0
   -4.8287   18.7322   -1.3608 H   0  0  0  0  0  0
   -5.4566   19.6840    0.0272 H   0  0  0  0  0  0
   -9.5076   18.3428   -1.9607 H   0  0  0  0  0  0
  -10.4463   16.8249   -2.1641 H   0  0  0  0  0  0
   -9.3257   17.8241    0.5223 H   0  0  0  0  0  0
  -11.0769   19.3934   -0.3262 H   0  0  0  0  0  0
   -9.7656   15.3079    0.2084 H   0  0  0  0  0  0
  -11.4253   16.8356    2.3099 H   0  0  0  0  0  0
   -8.8289   14.4445    4.6121 H   0  0  0  0  0  0
   -8.4894   15.5353    6.8520 H   0  0  0  0  0  0
   -8.8202   16.8848    5.7136 H   0  0  0  0  0  0
  -11.4138   14.7252    7.8454 H   0  0  0  0  0  0
  -13.8383   13.8561    5.4017 H   0  0  0  0  0  0
  -13.0814   15.0435    4.2864 H   0  0  0  0  0  0
  -12.0062   12.4880    5.3426 H   0  0  0  0  0  0
  -11.4616   13.4628    3.9356 H   0  0  0  0  0  0
  -10.0785   13.2321    6.2567 H   0  0  0  0  0  0
  -12.6509   16.2897    0.0120 H   0  0  0  0  0  0
  -11.7329   15.3963   -1.2473 H   0  0  0  0  0  0
  -13.9974   15.0837    1.4387 H   0  0  0  0  0  0
  -14.7083   12.9530    2.4803 H   0  0  0  0  0  0
  -13.3857   10.8827    2.0978 H   0  0  0  0  0  0
  -11.3770   10.9665    0.6370 H   0  0  0  0  0  0
  -10.6702   13.0955   -0.4069 H   0  0  0  0  0  0
  1  2  1  0  0  0
  1 39  1  0  0  0
  1 40  1  0  0  0
  2  3  2  0  0  0
  2  7  1  0  0  0
  3  4  1  0  0  0
  3 41  1  0  0  0
  4  5  2  0  0  0
  4 42  1  0  0  0
  5  6  1  0  0  0
  5  8  1  0  0  0
  6  7  2  0  0  0
  6 43  1  0  0  0
  7 44  1  0  0  0
  8  9  2  0  0  0
  8 10  2  0  0  0
  8 11  1  0  0  0
 11 12  1  0  0  0
 11 16  1  0  0  0
 12 13  1  0  0  0
 12 45  1  0  0  0
 12 46  1  0  0  0
 13 14  1  0  0  0
 13 15  1  0  0  0
 13 47  1  0  0  0
 14 48  1  0  0  0
 14 49  1  0  0  0
 14 50  1  0  0  0
 15 51  1  0  0  0
 15 52  1  0  0  0
 15 53  1  0  0  0
 16 17  1  0  0  0
 16 54  1  0  0  0
 16 55  1  0  0  0
 17 18  1  0  0  0
 17 19  1  0  0  0
 17 56  1  0  0  0
 18 57  1  0  0  0
 19 20  1  0  0  0
 19 32  1  0  0  0
 19 58  1  0  0  0
 20 21  1  0  0  0
 20 59  1  0  0  0
 21 22  2  0  0  0
 21 23  1  0  0  0
 23 24  1  0  0  0
 24 25  1  0  0  0
 24 31  1  0  0  0
 24 60  1  0  0  0
 25 26  1  0  0  0
 25 61  1  0  0  0
 25 62  1  0  0  0
 26 27  1  0  0  0
 27 28  1  0  0  0
 27 31  1  0  0  0
 27 63  1  0  0  0
 28 29  1  0  0  0
 29 30  1  0  0  0
 29 64  1  0  0  0
 29 65  1  0  0  0
 30 31  1  0  0  0
 30 66  1  0  0  0
 30 67  1  0  0  0
 31 68  1  0  0  0
 32 38  1  0  0  0
 32 69  1  0  0  0
 32 70  1  0  0  0
 33 34  2  0  0  0
 33 38  1  0  0  0
 33 71  1  0  0  0
 34 35  1  0  0  0
 34 72  1  0  0  0
 35 36  2  0  0  0
 35 73  1  0  0  0
 36 37  1  0  0  0
 36 74  1  0  0  0
 37 38  2  0  0  0
 37 75  1  0  0  0
M  END
> <s_m_source_file>
../3lzs_ligand.sdf

> <i_m_source_file_index>
1

> <s_epik_input>
W05IMl1jMVtjSF1bY0hdYyhbY0hdW2NIXTEpUyg9TykoPU8pTihbQ0gyXVtDSF0oW0NIM10pW0NIM10pW0NIMl1bQ0BASF0oW09IXSlbQ0BASF0oW05IXUMoPU8pT1tDQEBIXShbQ0gyXU8yKVtDQEBIXShbQ0BASF0yMylbQ0gyXVtDSDJdTzMpW0NIMl1jNFtjSF1bY0hdW2NIXVtjSF1bY0hdNA==

> <s_epik_cmdline>
J2VwaWtfYXBwJywgJy1pbWFlJywgJ2xpZ2FuZF9wcm8ubWFlJywgJy1vbWFlJywgJ2xpZ2FuZF9wcmVwLm1hZScsICctbXMnLCAnMScsICctcGgnLCAnNycsICctcGh0JywgJzAuNScsICctbnQn

> <r_lp_tautomer_probability>
1

> <r_epik_Ionization_Penalty>
  0.0000

> <r_epik_Ionization_Penalty_Charging>
  0.0000

> <r_epik_Ionization_Penalty_Neutral>
  0.0000

> <r_epik_State_Penalty>
 -0.0000

> <r_epik_Charging_Adjusted_Penalty>
0

> <i_epik_Tot_Q>
0

> <i_epik_Tot_abs_Q>
0

> <s_epik_Chemistry_Notes>
This compound has an ester and may undergo hydrolysis at high or low pH. This compound contains an acetal/aminal-like group ( X-CH(R)-Y where X, Y are N, S, or O) that may be acid/base labile, releasing an aldehyde.

$$$$
