3lzu_ligand
                    3D
 Schrodinger Suite 2020-3.
 75 78  0  0  1  0            999 V2000
    8.9630  -16.2910   -7.9310 N   0  0  0  0  0  0
    8.8030  -16.0010   -6.6240 C   0  0  0  0  0  0
    7.5340  -15.8130   -6.0870 C   0  0  0  0  0  0
    7.3980  -15.5000   -4.7360 C   0  0  0  0  0  0
    8.5400  -15.3880   -3.9490 C   0  0  0  0  0  0
    9.7980  -15.5710   -4.5040 C   0  0  0  0  0  0
    9.9370  -15.8820   -5.8440 C   0  0  0  0  0  0
    8.4700  -15.0480   -2.3950 S   0  0  0  0  0  0
    9.6710  -14.3460   -2.0590 O   0  0  0  0  0  0
    7.3100  -14.2510   -2.1400 O   0  0  0  0  0  0
    8.3160  -16.3440   -1.4310 N   0  0  1  0  0  0
    7.1740  -17.1870   -1.8270 C   0  0  0  0  0  0
    6.6310  -17.9590   -0.6290 C   0  0  0  0  0  0
    6.2750  -17.0200    0.5160 C   0  0  0  0  0  0
    5.4090  -18.7900   -1.0160 C   0  0  0  0  0  0
    9.5510  -17.1450   -1.3220 C   0  0  0  0  0  0
    9.9820  -17.1410    0.1440 C   0  0  1  0  0  0
   11.0550  -18.0650    0.3350 O   0  0  0  0  0  0
   10.4380  -15.7720    0.6320 C   0  0  1  0  0  0
   10.5840  -15.8550    2.0680 N   0  0  0  0  0  0
    9.7690  -15.2500    2.9200 C   0  0  0  0  0  0
    8.7960  -14.5570    2.6300 O   0  0  0  0  0  0
   10.1670  -15.5040    4.2900 O   0  0  0  0  0  0
    9.5010  -14.7070    5.2530 C   0  0  1  0  0  0
    9.1030  -15.6180    6.3950 C   0  0  0  0  0  0
   10.3110  -15.7140    7.1450 O   0  0  0  0  0  0
   11.0480  -14.4960    7.0400 C   0  0  1  0  0  0
   12.4220  -14.8100    6.8090 O   0  0  0  0  0  0
   12.7650  -14.5840    5.4510 C   0  0  0  0  0  0
   11.7670  -13.5410    4.9610 C   0  0  0  0  0  0
   10.5340  -13.7550    5.8250 C   0  0  1  0  0  0
   11.7870  -15.3360    0.0700 C   0  0  0  0  0  0
   13.2830  -14.0060    1.5940 C   0  0  0  0  0  0
   13.6800  -12.8060    2.1660 C   0  0  0  0  0  0
   13.0200  -11.6290    1.8390 C   0  0  0  0  0  0
   11.9620  -11.6590    0.9410 C   0  0  0  0  0  0
   11.5650  -12.8590    0.3660 C   0  0  0  0  0  0
   12.2210  -14.0340    0.6920 C   0  0  0  0  0  0
    8.0833  -16.3935   -8.5833 H   0  0  0  0  0  0
    9.9733  -16.4251   -8.3450 H   0  0  0  0  0  0
    6.6512  -15.9099   -6.7190 H   0  0  0  0  0  0
    6.4104  -15.3450   -4.3016 H   0  0  0  0  0  0
   10.6846  -15.4687   -3.8783 H   0  0  0  0  0  0
   10.9257  -16.0309   -6.2781 H   0  0  0  0  0  0
    6.3728  -16.5519   -2.2328 H   0  0  0  0  0  0
    7.4972  -17.9050   -2.5951 H   0  0  0  0  0  0
    7.4283  -18.6369   -0.2901 H   0  0  0  0  0  0
    7.1584  -16.4246    0.7901 H   0  0  0  0  0  0
    5.9461  -17.6093    1.3847 H   0  0  0  0  0  0
    5.4634  -16.3480    0.2002 H   0  0  0  0  0  0
    5.6722  -19.4659   -1.8430 H   0  0  0  0  0  0
    4.5962  -18.1206   -1.3340 H   0  0  0  0  0  0
    5.0788  -19.3819   -0.1496 H   0  0  0  0  0  0
    9.3521  -18.1731   -1.6587 H   0  0  0  0  0  0
   10.3346  -16.6982   -1.9515 H   0  0  0  0  0  0
    9.1321  -17.4824    0.7532 H   0  0  0  0  0  0
   10.9315  -19.1189    0.0451 H   0  0  0  0  0  0
    9.6779  -15.0287    0.3496 H   0  0  0  0  0  0
   11.4046  -16.4435    2.5043 H   0  0  0  0  0  0
    8.6500  -14.2125    4.7618 H   0  0  0  0  0  0
    8.2822  -15.1563    6.9634 H   0  0  0  0  0  0
    8.7711  -16.5865    5.9928 H   0  0  0  0  0  0
   10.9614  -13.9389    7.9845 H   0  0  0  0  0  0
   13.7998  -14.2159    5.3906 H   0  0  0  0  0  0
   12.6774  -15.5256    4.8891 H   0  0  0  0  0  0
   12.1918  -12.5353    5.0957 H   0  0  0  0  0  0
   11.5543  -13.7094    3.8950 H   0  0  0  0  0  0
   10.0600  -12.7732    5.9717 H   0  0  0  0  0  0
   12.5415  -16.1059    0.2889 H   0  0  0  0  0  0
   11.7048  -15.2023   -1.0187 H   0  0  0  0  0  0
   13.8029  -14.9290    1.8507 H   0  0  0  0  0  0
   14.5101  -12.7872    2.8722 H   0  0  0  0  0  0
   13.3316  -10.6849    2.2858 H   0  0  0  0  0  0
   11.4405  -10.7365    0.6860 H   0  0  0  0  0  0
   10.7366  -12.8760   -0.3423 H   0  0  0  0  0  0
  1  2  1  0  0  0
  1 39  1  0  0  0
  1 40  1  0  0  0
  2  3  2  0  0  0
  2  7  1  0  0  0
  3  4  1  0  0  0
  3 41  1  0  0  0
  4  5  2  0  0  0
  4 42  1  0  0  0
  5  6  1  0  0  0
  5  8  1  0  0  0
  6  7  2  0  0  0
  6 43  1  0  0  0
  7 44  1  0  0  0
  8  9  2  0  0  0
  8 10  2  0  0  0
  8 11  1  0  0  0
 11 12  1  0  0  0
 11 16  1  0  0  0
 12 13  1  0  0  0
 12 45  1  0  0  0
 12 46  1  0  0  0
 13 14  1  0  0  0
 13 15  1  0  0  0
 13 47  1  0  0  0
 14 48  1  0  0  0
 14 49  1  0  0  0
 14 50  1  0  0  0
 15 51  1  0  0  0
 15 52  1  0  0  0
 15 53  1  0  0  0
 16 17  1  0  0  0
 16 54  1  0  0  0
 16 55  1  0  0  0
 17 18  1  0  0  0
 17 19  1  0  0  0
 17 56  1  0  0  0
 18 57  1  0  0  0
 19 20  1  0  0  0
 19 32  1  0  0  0
 19 58  1  0  0  0
 20 21  1  0  0  0
 20 59  1  0  0  0
 21 22  2  0  0  0
 21 23  1  0  0  0
 23 24  1  0  0  0
 24 25  1  0  0  0
 24 31  1  0  0  0
 24 60  1  0  0  0
 25 26  1  0  0  0
 25 61  1  0  0  0
 25 62  1  0  0  0
 26 27  1  0  0  0
 27 28  1  0  0  0
 27 31  1  0  0  0
 27 63  1  0  0  0
 28 29  1  0  0  0
 29 30  1  0  0  0
 29 64  1  0  0  0
 29 65  1  0  0  0
 30 31  1  0  0  0
 30 66  1  0  0  0
 30 67  1  0  0  0
 31 68  1  0  0  0
 32 38  1  0  0  0
 32 69  1  0  0  0
 32 70  1  0  0  0
 33 34  2  0  0  0
 33 38  1  0  0  0
 33 71  1  0  0  0
 34 35  1  0  0  0
 34 72  1  0  0  0
 35 36  2  0  0  0
 35 73  1  0  0  0
 36 37  1  0  0  0
 36 74  1  0  0  0
 37 38  2  0  0  0
 37 75  1  0  0  0
M  END
> <s_m_source_file>
../3lzu_ligand.sdf

> <i_m_source_file_index>
1

> <s_epik_input>
W05IMl1jMVtjSF1bY0hdYyhbY0hdW2NIXTEpUyg9TykoPU8pTihbQ0gyXVtDSF0oW0NIM10pW0NIM10pW0NIMl1bQ0BASF0oW09IXSlbQ0BASF0oW05IXUMoPU8pT1tDQEBIXShbQ0gyXU8yKVtDQEBIXShbQ0BASF0yMylbQ0gyXVtDSDJdTzMpW0NIMl1jNFtjSF1bY0hdW2NIXVtjSF1bY0hdNA==

> <s_epik_cmdline>
J2VwaWtfYXBwJywgJy1pbWFlJywgJ2xpZ2FuZF9wcm8ubWFlJywgJy1vbWFlJywgJ2xpZ2FuZF9wcmVwLm1hZScsICctbXMnLCAnMScsICctcGgnLCAnNycsICctcGh0JywgJzAuNScsICctbnQn

> <r_lp_tautomer_probability>
1

> <r_epik_Ionization_Penalty>
  0.0000

> <r_epik_Ionization_Penalty_Charging>
  0.0000

> <r_epik_Ionization_Penalty_Neutral>
  0.0000

> <r_epik_State_Penalty>
 -0.0000

> <r_epik_Charging_Adjusted_Penalty>
0

> <i_epik_Tot_Q>
0

> <i_epik_Tot_abs_Q>
0

> <s_epik_Chemistry_Notes>
This compound has an ester and may undergo hydrolysis at high or low pH. This compound contains an acetal/aminal-like group ( X-CH(R)-Y where X, Y are N, S, or O) that may be acid/base labile, releasing an aldehyde.

$$$$
