3lzv_ligand
                    3D
 Schrodinger Suite 2020-3.
 75 78  0  0  1  0            999 V2000
   14.3560   -5.8210   12.7960 N   0  0  0  0  0  0
   15.2880   -5.3030   13.6250 C   0  0  0  0  0  0
   16.3750   -6.0690   14.0710 C   0  0  0  0  0  0
   17.2900   -5.4760   14.9380 C   0  0  0  0  0  0
   17.1630   -4.1500   15.3640 C   0  0  0  0  0  0
   16.0880   -3.4050   14.8700 C   0  0  0  0  0  0
   15.1420   -3.9780   14.0300 C   0  0  0  0  0  0
   18.2630   -3.4380   16.3120 S   0  0  0  0  0  0
   18.8370   -4.4120   17.2170 O   0  0  0  0  0  0
   17.6670   -2.3190   17.0100 O   0  0  0  0  0  0
   19.4670   -2.8050   15.4090 N   0  0  1  0  0  0
   20.2120   -3.7770   14.5680 C   0  0  0  0  0  0
   21.7100   -3.4530   14.5170 C   0  0  0  0  0  0
   22.3870   -3.4120   15.8840 C   0  0  0  0  0  0
   22.4890   -4.3750   13.5840 C   0  0  0  0  0  0
   19.1120   -1.5630   14.6860 C   0  0  0  0  0  0
   19.9620   -0.4530   15.3120 C   0  0  1  0  0  0
   19.9200    0.7100   14.4780 O   0  0  0  0  0  0
   19.6230   -0.0510   16.7470 C   0  0  1  0  0  0
   20.7640    0.7460   17.1420 N   0  0  0  0  0  0
   21.6150    0.5050   18.1280 C   0  0  0  0  0  0
   21.6090   -0.4810   18.8310 O   0  0  0  0  0  0
   22.6180    1.5360   18.3430 O   0  0  0  0  0  0
   23.3360    1.4990   19.5770 C   0  0  1  0  0  0
   24.7050    2.0700   19.2640 C   0  0  0  0  0  0
   24.5400    3.4850   19.3230 O   0  0  0  0  0  0
   23.6010    3.7520   20.3580 C   0  0  1  0  0  0
   22.6690    4.7420   19.9460 O   0  0  0  0  0  0
   21.3920    4.1340   19.7290 C   0  0  0  0  0  0
   21.3630    2.8820   20.5790 C   0  0  0  0  0  0
   22.8360    2.4690   20.6270 C   0  0  1  0  0  0
   18.2850    0.7070   16.9130 C   0  0  0  0  0  0
   18.1700    2.5020   18.6800 C   0  0  0  0  0  0
   18.0120    2.9600   19.9850 C   0  0  0  0  0  0
   17.7160    2.0550   20.9900 C   0  0  0  0  0  0
   17.5820    0.7040   20.6610 C   0  0  0  0  0  0
   17.7320    0.2550   19.3490 C   0  0  0  0  0  0
   18.0470    1.1590   18.3410 C   0  0  0  0  0  0
   14.4405   -6.8639   12.4566 H   0  0  0  0  0  0
   13.5124   -5.2000   12.4602 H   0  0  0  0  0  0
   16.5006   -7.1022   13.7474 H   0  0  0  0  0  0
   18.1337   -6.0656   15.2966 H   0  0  0  0  0  0
   15.9906   -2.3558   15.1491 H   0  0  0  0  0  0
   14.2880   -3.3929   13.6887 H   0  0  0  0  0  0
   20.0909   -4.7887   14.9824 H   0  0  0  0  0  0
   19.8175   -3.7516   13.5415 H   0  0  0  0  0  0
   21.7455   -2.4331   14.1065 H   0  0  0  0  0  0
   21.8221   -2.7463   16.5531 H   0  0  0  0  0  0
   23.4143   -3.0348   15.7732 H   0  0  0  0  0  0
   22.4126   -4.4254   16.3110 H   0  0  0  0  0  0
   21.9975   -4.4014   12.6003 H   0  0  0  0  0  0
   22.5147   -5.3895   14.0084 H   0  0  0  0  0  0
   23.5164   -3.9988   13.4706 H   0  0  0  0  0  0
   19.3401   -1.6833   13.6167 H   0  0  0  0  0  0
   18.0382   -1.3600   14.8112 H   0  0  0  0  0  0
   20.9936   -0.8343   15.3330 H   0  0  0  0  0  0
   20.1371    0.6241   13.4031 H   0  0  0  0  0  0
   19.5156   -0.9234   17.4083 H   0  0  0  0  0  0
   21.0035    1.6713   16.5976 H   0  0  0  0  0  0
   23.2360    0.4542   19.9061 H   0  0  0  0  0  0
   25.4299    1.7153   20.0115 H   0  0  0  0  0  0
   25.0197    1.7403   18.2628 H   0  0  0  0  0  0
   24.1537    4.1603   21.2169 H   0  0  0  0  0  0
   20.5974    4.8325   20.0303 H   0  0  0  0  0  0
   21.2793    3.8883   18.6627 H   0  0  0  0  0  0
   20.9575    3.1228   21.5728 H   0  0  0  0  0  0
   20.7261    2.1259   20.0966 H   0  0  0  0  0  0
   22.9825    1.9576   21.5898 H   0  0  0  0  0  0
   18.2875    1.6002   16.2710 H   0  0  0  0  0  0
   17.4525    0.0492   16.6228 H   0  0  0  0  0  0
   18.3986    3.2227   17.8949 H   0  0  0  0  0  0
   18.1202    4.0203   20.2133 H   0  0  0  0  0  0
   17.5898    2.3906   22.0194 H   0  0  0  0  0  0
   17.3550   -0.0157   21.4475 H   0  0  0  0  0  0
   17.6026   -0.8016   19.1147 H   0  0  0  0  0  0
  1  2  1  0  0  0
  1 39  1  0  0  0
  1 40  1  0  0  0
  2  3  2  0  0  0
  2  7  1  0  0  0
  3  4  1  0  0  0
  3 41  1  0  0  0
  4  5  2  0  0  0
  4 42  1  0  0  0
  5  6  1  0  0  0
  5  8  1  0  0  0
  6  7  2  0  0  0
  6 43  1  0  0  0
  7 44  1  0  0  0
  8  9  2  0  0  0
  8 10  2  0  0  0
  8 11  1  0  0  0
 11 12  1  0  0  0
 11 16  1  0  0  0
 12 13  1  0  0  0
 12 45  1  0  0  0
 12 46  1  0  0  0
 13 14  1  0  0  0
 13 15  1  0  0  0
 13 47  1  0  0  0
 14 48  1  0  0  0
 14 49  1  0  0  0
 14 50  1  0  0  0
 15 51  1  0  0  0
 15 52  1  0  0  0
 15 53  1  0  0  0
 16 17  1  0  0  0
 16 54  1  0  0  0
 16 55  1  0  0  0
 17 18  1  0  0  0
 17 19  1  0  0  0
 17 56  1  0  0  0
 18 57  1  0  0  0
 19 20  1  0  0  0
 19 32  1  0  0  0
 19 58  1  0  0  0
 20 21  1  0  0  0
 20 59  1  0  0  0
 21 22  2  0  0  0
 21 23  1  0  0  0
 23 24  1  0  0  0
 24 25  1  0  0  0
 24 31  1  0  0  0
 24 60  1  0  0  0
 25 26  1  0  0  0
 25 61  1  0  0  0
 25 62  1  0  0  0
 26 27  1  0  0  0
 27 28  1  0  0  0
 27 31  1  0  0  0
 27 63  1  0  0  0
 28 29  1  0  0  0
 29 30  1  0  0  0
 29 64  1  0  0  0
 29 65  1  0  0  0
 30 31  1  0  0  0
 30 66  1  0  0  0
 30 67  1  0  0  0
 31 68  1  0  0  0
 32 38  1  0  0  0
 32 69  1  0  0  0
 32 70  1  0  0  0
 33 34  2  0  0  0
 33 38  1  0  0  0
 33 71  1  0  0  0
 34 35  1  0  0  0
 34 72  1  0  0  0
 35 36  2  0  0  0
 35 73  1  0  0  0
 36 37  1  0  0  0
 36 74  1  0  0  0
 37 38  2  0  0  0
 37 75  1  0  0  0
M  END
> <s_m_source_file>
../3lzv_ligand.sdf

> <i_m_source_file_index>
1

> <s_epik_input>
W05IMl1jMVtjSF1bY0hdYyhbY0hdW2NIXTEpUyg9TykoPU8pTihbQ0gyXVtDSF0oW0NIM10pW0NIM10pW0NIMl1bQ0BASF0oW09IXSlbQ0BASF0oW05IXUMoPU8pT1tDQEBIXShbQ0gyXU8yKVtDQEBIXShbQ0BASF0yMylbQ0gyXVtDSDJdTzMpW0NIMl1jNFtjSF1bY0hdW2NIXVtjSF1bY0hdNA==

> <s_epik_cmdline>
J2VwaWtfYXBwJywgJy1pbWFlJywgJ2xpZ2FuZF9wcm8ubWFlJywgJy1vbWFlJywgJ2xpZ2FuZF9wcmVwLm1hZScsICctbXMnLCAnMScsICctcGgnLCAnNycsICctcGh0JywgJzAuNScsICctbnQn

> <r_lp_tautomer_probability>
1

> <r_epik_Ionization_Penalty>
  0.0000

> <r_epik_Ionization_Penalty_Charging>
  0.0000

> <r_epik_Ionization_Penalty_Neutral>
  0.0000

> <r_epik_State_Penalty>
 -0.0000

> <r_epik_Charging_Adjusted_Penalty>
0

> <i_epik_Tot_Q>
0

> <i_epik_Tot_abs_Q>
0

> <s_epik_Chemistry_Notes>
This compound has an ester and may undergo hydrolysis at high or low pH. This compound contains an acetal/aminal-like group ( X-CH(R)-Y where X, Y are N, S, or O) that may be acid/base labile, releasing an aldehyde.

$$$$
