3lzz_ligand
                    3D
 Schrodinger Suite 2020-3.
 40 42  0  0  1  0            999 V2000
  -24.9580   -7.4180   15.6940 P   0  0  0  0  0  0
  -26.1250   -8.3610   15.7750 O   0  5  0  0  0  0
  -25.4530   -6.0140   15.4630 O   0  5  0  0  0  0
  -24.2230   -7.4770   16.9940 O   0  0  0  0  0  0
  -24.0090   -7.9040   14.4980 O   0  0  0  0  0  0
  -24.6460   -8.7390   13.2770 P   0  0  2  0  0  0
  -26.1230   -8.4870   13.2390 O   0  0  0  0  0  0
  -24.2690  -10.2020   13.2840 O   0  5  0  0  0  0
  -24.0910   -8.1220   11.9440 O   0  0  0  0  0  0
  -25.1200   -7.8100   11.0450 C   0  0  0  0  0  0
  -24.7040   -8.2670    9.6800 C   0  0  1  0  0  0
  -25.8750   -8.4550    8.9100 O   0  0  0  0  0  0
  -23.8540   -7.2480    8.9450 C   0  0  1  0  0  0
  -22.4920   -7.6880    8.8420 O   0  0  0  0  0  0
  -24.5000   -7.2160    7.5790 C   0  0  1  0  0  0
  -23.4900   -7.3970    6.6310 O   0  0  0  0  0  0
  -25.3390   -8.4550    7.6210 C   0  0  2  0  0  0
  -26.2450   -8.7170    6.5030 N   0  0  0  0  0  0
  -27.4640   -9.2350    6.4740 C   0  0  0  0  0  0
  -27.8770   -9.3510    5.2030 N   0  0  0  0  0  0
  -26.8930   -8.9430    4.3990 C   0  0  0  0  0  0
  -26.6010   -8.7720    2.9540 C   0  0  0  0  0  0
  -27.3740   -9.0550    2.0730 O   0  0  0  0  0  0
  -25.4460   -8.2800    2.6090 N   0  3  0  0  0  0
  -24.5470   -7.9480    3.5320 C   0  0  0  0  0  0
  -23.3610   -7.4530    3.1980 N   0  0  0  0  0  0
  -24.7270   -8.0730    4.8250 N   0  0  0  0  0  0
  -25.8460   -8.5370    5.2990 C   0  0  0  0  0  0
  -26.0428   -8.3247   11.3510 H   0  0  0  0  0  0
  -25.2894   -6.7231   11.0444 H   0  0  0  0  0  0
  -24.1601   -9.2175    9.7833 H   0  0  0  0  0  0
  -23.7625   -6.2732    9.4464 H   0  0  0  0  0  0
  -21.8706   -7.7700    9.7460 H   0  0  0  0  0  0
  -25.0200   -6.2919    7.2862 H   0  0  0  0  0  0
  -22.7596   -6.5956    6.4457 H   0  0  0  0  0  0
  -24.7649   -9.3852    7.4982 H   0  0  0  0  0  0
  -28.0439   -9.5234    7.3507 H   0  0  0  0  0  0
  -23.1048   -7.3064    2.1383 H   0  0  0  0  0  0
  -22.6347   -7.1895    3.9810 H   0  0  0  0  0  0
  -25.2054   -8.1351    1.5455 H   0  0  0  0  0  0
  1  2  1  0  0  0
  1  3  1  0  0  0
  1  4  2  0  0  0
  1  5  1  0  0  0
  5  6  1  0  0  0
  6  7  2  0  0  0
  6  8  1  0  0  0
  6  9  1  0  0  0
  9 10  1  0  0  0
 10 11  1  0  0  0
 10 29  1  0  0  0
 10 30  1  0  0  0
 11 12  1  0  0  0
 11 13  1  0  0  0
 11 31  1  0  0  0
 12 17  1  0  0  0
 13 14  1  0  0  0
 13 15  1  0  0  0
 13 32  1  0  0  0
 14 33  1  0  0  0
 15 16  1  0  0  0
 15 17  1  0  0  0
 15 34  1  0  0  0
 16 35  1  0  0  0
 17 18  1  0  0  0
 17 36  1  0  0  0
 18 19  1  0  0  0
 18 28  1  0  0  0
 19 20  2  0  0  0
 19 37  1  0  0  0
 20 21  1  0  0  0
 21 22  1  0  0  0
 21 28  2  0  0  0
 22 23  2  0  0  0
 22 24  1  0  0  0
 24 25  1  0  0  0
 24 40  1  0  0  0
 25 26  1  0  0  0
 25 27  2  0  0  0
 26 38  1  0  0  0
 26 39  1  0  0  0
 27 28  1  0  0  0
M  CHG  4   2  -1   3  -1   8  -1  24   1
M  END
> <s_m_source_file>
../3lzz_ligand.sdf

> <i_m_source_file_index>
1

> <s_epik_input>
W09IXVAoPU8pKFtPSF0pT1tQQF0oPU8pKFtPSF0pT1tDSDJdW0NASF0xT1tDQEhdKFtDQEhdKFtPSF0pW0NAQEhdMVtPSF0pbihbY0hdbjIpYyhjMjMpW25IXWMoPU5cW0hdKVxbbkhdYzM9Tw==

> <s_epik_cmdline>
J2VwaWtfYXBwJywgJy1pbWFlJywgJ2xpZ2FuZF9wcm8ubWFlJywgJy1vbWFlJywgJ2xpZ2FuZF9wcmVwLm1hZScsICctbXMnLCAnMScsICctcGgnLCAnNycsICctcGh0JywgJzAuNScsICctbnQn

> <r_epik_Ionization_Penalty>
  2.4918

> <r_epik_Ionization_Penalty_Charging>
  2.4918

> <r_epik_Ionization_Penalty_Neutral>
  0.0000

> <r_epik_State_Penalty>
  0.1302

> <r_epik_Charging_Adjusted_Penalty>
2.62193179535438

> <i_epik_Tot_Q>
-2

> <i_epik_Tot_abs_Q>
4

> <s_epik_Chemistry_Notes>
This compound has an imine and may undergo hydrolysis. This compound contains an acetal/aminal-like group ( X-CH(R)-Y where X, Y are N, S, or O) that may be acid/base labile, releasing an aldehyde.

$$$$
