3m17_ligand
                    3D
 Schrodinger Suite 2020-3.
209214  0  0  1  0            999 V2000
   14.4620   85.4180   50.5800 C   0  0  0  0  0  0
   15.5590   85.6350   50.0590 O   0  0  0  0  0  0
   13.1710   85.8830   49.9730 C   0  0  0  0  0  0
   14.3060   84.6470   51.6490 N   0  0  0  0  0  0
   15.3600   83.8410   52.2510 C   0  0  2  0  0  0
   15.6360   82.5920   51.4090 C   0  0  0  0  0  0
   14.7490   81.7560   51.2120 O   0  0  0  0  0  0
   14.9470   83.4400   53.6700 C   0  0  0  0  0  0
   16.0890   83.3150   54.6660 C   0  0  0  0  0  0
   16.1540   84.5220   55.5900 C   0  0  0  0  0  0
   17.2770   84.4200   56.5220 N   0  0  0  0  0  0
   17.6930   85.3980   57.3240 C   0  0  0  0  0  0
   17.0850   86.5810   57.3270 N   0  0  0  0  0  0
   18.7300   85.1910   58.1260 N   0  0  0  0  0  0
   16.8670   82.4750   50.9140 N   0  0  0  0  0  0
   17.2810   81.3300   50.0990 C   0  0  2  0  0  0
   18.5990   80.7180   50.5690 C   0  0  0  0  0  0
   19.5670   81.4310   50.8410 O   0  0  0  0  0  0
   17.3840   81.7230   48.6220 C   0  0  0  0  0  0
   16.0550   81.8770   47.9420 C   0  0  0  0  0  0
   15.4410   80.7850   47.3350 C   0  0  0  0  0  0
   15.4130   83.1130   47.9100 C   0  0  0  0  0  0
   14.2070   80.9200   46.7050 C   0  0  0  0  0  0
   14.1770   83.2590   47.2820 C   0  0  0  0  0  0
   13.5730   82.1600   46.6780 C   0  0  0  0  0  0
   19.3910   76.8970   49.4600 O   0  0  0  0  0  0
   20.3630   77.5510   49.7990 C   0  0  0  0  0  0
   20.1880   78.6340   50.8380 C   0  0  1  0  0  0
   19.0840   79.5020   50.3270 N   0  0  0  0  0  0
   19.8880   78.0880   52.2420 C   0  0  0  0  0  0
   20.0880   79.1350   53.3330 C   0  0  0  0  0  0
   20.7600   76.8890   52.6250 C   0  0  0  0  0  0
   18.1770   77.6170   52.3920 S   0  0  0  0  0  0
   21.5760   77.6150   49.2490 N   0  0  0  0  0  0
   22.2960   76.6350   48.4390 C   0  0  2  0  0  0
   22.1800   75.2450   49.0570 C   0  0  0  0  0  0
   22.4290   75.0610   50.2470 O   0  0  0  0  0  0
   23.7850   77.0210   48.2480 C   0  0  2  0  0  0
   23.8690   78.3230   47.6570 O   0  0  0  0  0  0
   24.5020   76.0270   47.3420 C   0  0  0  0  0  0
   21.7890   74.2750   48.2360 N   0  0  0  0  0  0
   21.6510   72.8920   48.6770 C   0  0  0  0  0  0
   22.9790   72.1720   48.8030 C   0  0  0  0  0  0
   24.0210   72.6960   48.3950 O   0  0  0  0  0  0
   22.9370   70.9670   49.3710 N   0  0  0  0  0  0
   24.1330   70.1390   49.5330 C   0  0  2  0  0  0
   24.6950   69.7130   48.1790 C   0  0  0  0  0  0
   25.8940   69.4520   48.0480 O   0  0  0  0  0  0
   23.8340   68.9130   50.4030 C   0  0  0  0  0  0
   25.0200   68.0240   50.6200 C   0  0  0  0  0  0
   26.0540   68.3540   51.4700 N   0  0  0  0  0  0
   25.3440   66.8240   50.0830 C   0  0  0  0  0  0
   26.9610   67.3930   51.4520 C   0  0  0  0  0  0
   26.5530   66.4520   50.6200 N   0  0  0  0  0  0
   23.8220   69.6510   47.1770 N   0  0  0  0  0  0
   24.2370   69.3170   45.8200 C   0  0  2  0  0  0
   23.9830   70.4650   44.8450 C   0  0  0  0  0  0
   23.7940   70.2450   43.6450 O   0  0  0  0  0  0
   23.5500   68.0340   45.3500 C   0  0  0  0  0  0
   23.8810   66.8300   46.1840 C   0  0  0  0  0  0
   25.1670   66.2860   46.1710 C   0  0  0  0  0  0
   22.9050   66.2310   46.9750 C   0  0  0  0  0  0
   25.4750   65.1700   46.9370 C   0  0  0  0  0  0
   23.2010   65.1120   47.7440 C   0  0  0  0  0  0
   24.4880   64.5790   47.7260 C   0  0  0  0  0  0
   23.9930   71.6880   45.3720 N   0  0  0  0  0  0
   23.7730   72.8800   44.5640 C   0  0  0  0  0  0
   22.3030   73.2160   44.3680 C   0  0  0  0  0  0
   21.4240   72.4750   44.8250 O   0  0  0  0  0  0
   22.0340   74.3360   43.6930 N   0  0  0  0  0  0
   20.6560   74.7890   43.5170 C   0  0  0  0  0  0
   20.2120   75.7020   44.6440 C   0  0  0  0  0  0
   20.8170   75.6820   45.7200 O   0  0  0  0  0  0
   23.0680   75.1710   43.1020 C   0  0  0  0  0  0
   19.1720   76.5060   44.4090 N   0  0  0  0  0  0
   18.5250   76.5620   43.1010 C   0  0  0  0  0  0
   18.6570   77.3700   45.4870 C   0  0  1  0  0  0
   18.6050   78.8570   45.1090 C   0  0  0  0  0  0
   19.9790   79.4760   44.8460 C   0  0  0  0  0  0
   19.8420   80.7460   44.0110 C   0  0  0  0  0  0
   20.7450   79.7570   46.1380 C   0  0  0  0  0  0
   17.3250   76.9300   46.0380 C   0  0  0  0  0  0
   16.3840   76.6870   45.2810 O   0  0  0  0  0  0
   17.2430   76.8260   47.3610 N   0  0  0  0  0  0
   16.0440   76.3280   48.0320 C   0  0  2  0  0  0
   15.5470   77.3470   49.0560 C   0  0  0  0  0  0
   16.3530   78.0690   49.6450 O   0  0  0  0  0  0
   16.3300   74.9820   48.7140 C   0  0  0  0  0  0
   16.8580   73.9060   47.7870 C   0  0  0  0  0  0
   16.0290   72.8840   47.3300 C   0  0  0  0  0  0
   18.1930   73.9060   47.3710 C   0  0  0  0  0  0
   16.5150   71.8920   46.4750 C   0  0  0  0  0  0
   18.6820   72.9250   46.5180 C   0  0  0  0  0  0
   17.8410   71.9200   46.0760 C   0  0  0  0  0  0
   18.3360   70.9450   45.2380 O   0  0  0  0  0  0
   14.2200   77.4130   49.2710 N   0  0  0  0  0  0
   13.6670   78.4120   50.1870 C   0  0  2  0  0  0
   13.8520   78.0450   51.6580 C   0  0  0  0  0  0
   13.6450   76.8900   52.0410 O   0  0  0  0  0  0
   12.1810   78.4360   49.8210 C   0  0  0  0  0  0
   11.9010   77.0680   49.3150 C   0  0  0  0  0  0
   13.1650   76.5790   48.6610 C   0  0  0  0  0  0
   14.2450   79.0290   52.4670 N   0  0  0  0  0  0
   14.4170   78.8370   53.9130 C   0  0  2  0  0  0
   14.1690   80.1200   54.6960 C   0  0  0  0  0  0
   13.1070   80.7320   54.5740 O   0  0  0  0  0  0
   15.8060   78.2770   54.2410 C   0  0  0  0  0  0
   17.1950   79.0880   53.4080 S   0  0  0  0  0  0
   14.9600   80.6990   55.5950 N   0  0  0  0  0  0
   13.3838   86.5132   49.0969 H   0  0  0  0  0  0
   12.6058   86.4657   50.7153 H   0  0  0  0  0  0
   12.5771   85.0110   49.6619 H   0  0  0  0  0  0
   13.2950   84.6430   52.0825 H   0  0  0  0  0  0
   16.2574   84.4769   52.2698 H   0  0  0  0  0  0
   14.2571   84.1935   54.0778 H   0  0  0  0  0  0
   14.4464   82.4609   53.6433 H   0  0  0  0  0  0
   15.9437   82.4134   55.2791 H   0  0  0  0  0  0
   17.0426   83.2393   54.1229 H   0  0  0  0  0  0
   16.2792   85.4360   54.9909 H   0  0  0  0  0  0
   15.2226   84.5893   56.1714 H   0  0  0  0  0  0
   17.8467   83.4819   56.5962 H   0  0  0  0  0  0
   16.2250   86.7591   56.6647 H   0  0  0  0  0  0
   17.4422   87.3813   57.9918 H   0  0  0  0  0  0
   19.2372   84.2149   58.1284 H   0  0  0  0  0  0
   17.5838   83.2790   51.1373 H   0  0  0  0  0  0
   16.4792   80.5927   50.2519 H   0  0  0  0  0  0
   17.9089   82.6857   48.5345 H   0  0  0  0  0  0
   17.9429   80.9495   48.0749 H   0  0  0  0  0  0
   15.9325   79.8123   47.3532 H   0  0  0  0  0  0
   15.8827   83.9762   48.3816 H   0  0  0  0  0  0
   13.7376   80.0566   46.2335 H   0  0  0  0  0  0
   13.6848   84.2314   47.2640 H   0  0  0  0  0  0
   12.6068   82.2694   46.1854 H   0  0  0  0  0  0
   21.1185   79.2102   50.9485 H   0  0  0  0  0  0
   18.4231   79.1373   49.5269 H   0  0  0  0  0  0
   21.1297   79.4881   53.3158 H   0  0  0  0  0  0
   19.8682   78.6888   54.3141 H   0  0  0  0  0  0
   19.4104   79.9832   53.1558 H   0  0  0  0  0  0
   21.8213   77.1646   52.5372 H   0  0  0  0  0  0
   20.5427   76.0474   51.9508 H   0  0  0  0  0  0
   20.5424   76.5937   53.6620 H   0  0  0  0  0  0
   22.0427   78.5826   49.4853 H   0  0  0  0  0  0
   21.7826   76.6539   47.4664 H   0  0  0  0  0  0
   24.2970   77.0790   49.2199 H   0  0  0  0  0  0
   23.4094   79.1863   48.1605 H   0  0  0  0  0  0
   24.4455   75.0213   47.7839 H   0  0  0  0  0  0
   25.5563   76.3222   47.2358 H   0  0  0  0  0  0
   24.0216   76.0202   46.3525 H   0  0  0  0  0  0
   21.5667   74.5445   47.1929 H   0  0  0  0  0  0
   21.1647   72.8685   49.6634 H   0  0  0  0  0  0
   21.0381   72.3356   47.9526 H   0  0  0  0  0  0
   21.9619   70.5997   49.7235 H   0  0  0  0  0  0
   24.8648   70.7853   50.0397 H   0  0  0  0  0  0
   23.4863   69.2422   51.3933 H   0  0  0  0  0  0
   23.0527   68.3049   49.9236 H   0  0  0  0  0  0
   24.8395   66.1689   49.3575 H   0  0  0  0  0  0
   27.8876   67.3794   52.0259 H   0  0  0  0  0  0
   22.7637   69.8595   47.3929 H   0  0  0  0  0  0
   25.3231   69.1576   45.8905 H   0  0  0  0  0  0
   22.4588   68.1676   45.3874 H   0  0  0  0  0  0
   23.8569   67.8108   44.3175 H   0  0  0  0  0  0
   25.9386   66.7433   45.5517 H   0  0  0  0  0  0
   21.8966   66.6445   46.9915 H   0  0  0  0  0  0
   26.4837   64.7573   46.9220 H   0  0  0  0  0  0
   22.4280   64.6524   48.3599 H   0  0  0  0  0  0
   24.7235   63.7012   48.3277 H   0  0  0  0  0  0
   24.1746   71.7820   46.4528 H   0  0  0  0  0  0
   24.2469   73.7453   45.0505 H   0  0  0  0  0  0
   24.2134   72.7334   43.5667 H   0  0  0  0  0  0
   20.5703   75.3434   42.5708 H   0  0  0  0  0  0
   19.9839   73.9185   43.4941 H   0  0  0  0  0  0
   24.0551   74.7281   43.3009 H   0  0  0  0  0  0
   23.0224   76.1779   43.5425 H   0  0  0  0  0  0
   22.9085   75.2384   42.0157 H   0  0  0  0  0  0
   19.0247   75.8627   42.4145 H   0  0  0  0  0  0
   18.5967   77.5838   42.6999 H   0  0  0  0  0  0
   17.4662   76.2817   43.2034 H   0  0  0  0  0  0
   19.4109   77.2112   46.2721 H   0  0  0  0  0  0
   18.0100   78.9817   44.1922 H   0  0  0  0  0  0
   18.1414   79.4274   45.9274 H   0  0  0  0  0  0
   20.5671   78.7403   44.2777 H   0  0  0  0  0  0
   19.2884   80.5198   43.0878 H   0  0  0  0  0  0
   20.8420   81.1262   43.7551 H   0  0  0  0  0  0
   19.2969   81.5073   44.5883 H   0  0  0  0  0  0
   20.8312   78.8290   46.7223 H   0  0  0  0  0  0
   20.2050   80.5127   46.7274 H   0  0  0  0  0  0
   21.7501   80.1316   45.8942 H   0  0  0  0  0  0
   18.1185   77.1304   47.9534 H   0  0  0  0  0  0
   15.2898   76.1975   47.2419 H   0  0  0  0  0  0
   17.0846   75.1232   49.5018 H   0  0  0  0  0  0
   15.4029   74.5925   49.1599 H   0  0  0  0  0  0
   14.9856   72.8580   47.6443 H   0  0  0  0  0  0
   18.8626   74.6908   47.7228 H   0  0  0  0  0  0
   15.8539   71.0998   46.1236 H   0  0  0  0  0  0
   19.7239   72.9471   46.1984 H   0  0  0  0  0  0
   17.6765   70.1407   44.8800 H   0  0  0  0  0  0
   14.1985   79.3656   50.0527 H   0  0  0  0  0  0
   11.5867   78.6721   50.7160 H   0  0  0  0  0  0
   12.0052   79.2022   49.0515 H   0  0  0  0  0  0
   11.6191   76.4168   50.1555 H   0  0  0  0  0  0
   11.0757   77.1074   48.5888 H   0  0  0  0  0  0
   13.1582   76.7348   47.5721 H   0  0  0  0  0  0
   13.3638   75.5192   48.8785 H   0  0  0  0  0  0
   14.4424   80.0124   52.0154 H   0  0  0  0  0  0
   13.6413   78.1046   54.1812 H   0  0  0  0  0  0
   15.9946   78.3732   55.3204 H   0  0  0  0  0  0
   15.8507   77.2160   53.9541 H   0  0  0  0  0  0
   15.9477   80.2686   55.8169 H   0  0  0  0  0  0
   14.6265   81.6082   56.1166 H   0  0  0  0  0  0
  1  2  2  0  0  0
  1  3  1  0  0  0
  1  4  1  0  0  0
  3110  1  0  0  0
  3111  1  0  0  0
  3112  1  0  0  0
  4  5  1  0  0  0
  4113  1  0  0  0
  5  6  1  0  0  0
  5  8  1  0  0  0
  5114  1  0  0  0
  6  7  2  0  0  0
  6 15  1  0  0  0
  8  9  1  0  0  0
  8115  1  0  0  0
  8116  1  0  0  0
  9 10  1  0  0  0
  9117  1  0  0  0
  9118  1  0  0  0
 10 11  1  0  0  0
 10119  1  0  0  0
 10120  1  0  0  0
 11 12  1  0  0  0
 11121  1  0  0  0
 12 13  1  0  0  0
 12 14  2  0  0  0
 13122  1  0  0  0
 13123  1  0  0  0
 14124  1  0  0  0
 15 16  1  0  0  0
 15125  1  0  0  0
 16 17  1  0  0  0
 16 19  1  0  0  0
 16126  1  0  0  0
 17 18  2  0  0  0
 17 29  1  0  0  0
 19 20  1  0  0  0
 19127  1  0  0  0
 19128  1  0  0  0
 20 21  2  0  0  0
 20 22  1  0  0  0
 21 23  1  0  0  0
 21129  1  0  0  0
 22 24  2  0  0  0
 22130  1  0  0  0
 23 25  2  0  0  0
 23131  1  0  0  0
 24 25  1  0  0  0
 24132  1  0  0  0
 25133  1  0  0  0
 26 27  2  0  0  0
 27 28  1  0  0  0
 27 34  1  0  0  0
 28 29  1  0  0  0
 28 30  1  0  0  0
 28134  1  0  0  0
 29135  1  0  0  0
 30 31  1  0  0  0
 30 32  1  0  0  0
 30 33  1  0  0  0
 31136  1  0  0  0
 31137  1  0  0  0
 31138  1  0  0  0
 32139  1  0  0  0
 32140  1  0  0  0
 32141  1  0  0  0
 33108  1  0  0  0
 34 35  1  0  0  0
 34142  1  0  0  0
 35 36  1  0  0  0
 35 38  1  0  0  0
 35143  1  0  0  0
 36 37  2  0  0  0
 36 41  1  0  0  0
 38 39  1  0  0  0
 38 40  1  0  0  0
 38144  1  0  0  0
 39145  1  0  0  0
 40146  1  0  0  0
 40147  1  0  0  0
 40148  1  0  0  0
 41 42  1  0  0  0
 41149  1  0  0  0
 42 43  1  0  0  0
 42150  1  0  0  0
 42151  1  0  0  0
 43 44  2  0  0  0
 43 45  1  0  0  0
 45 46  1  0  0  0
 45152  1  0  0  0
 46 47  1  0  0  0
 46 49  1  0  0  0
 46153  1  0  0  0
 47 48  2  0  0  0
 47 55  1  0  0  0
 49 50  1  0  0  0
 49154  1  0  0  0
 49155  1  0  0  0
 50 51  2  0  0  0
 50 52  1  0  0  0
 51 53  1  0  0  0
 52 54  2  0  0  0
 52156  1  0  0  0
 53 54  1  0  0  0
 53157  1  0  0  0
 55 56  1  0  0  0
 55158  1  0  0  0
 56 57  1  0  0  0
 56 59  1  0  0  0
 56159  1  0  0  0
 57 58  2  0  0  0
 57 66  1  0  0  0
 59 60  1  0  0  0
 59160  1  0  0  0
 59161  1  0  0  0
 60 61  2  0  0  0
 60 62  1  0  0  0
 61 63  1  0  0  0
 61162  1  0  0  0
 62 64  2  0  0  0
 62163  1  0  0  0
 63 65  2  0  0  0
 63164  1  0  0  0
 64 65  1  0  0  0
 64165  1  0  0  0
 65166  1  0  0  0
 66 67  1  0  0  0
 66167  1  0  0  0
 67 68  1  0  0  0
 67168  1  0  0  0
 67169  1  0  0  0
 68 69  2  0  0  0
 68 70  1  0  0  0
 70 71  1  0  0  0
 70 74  1  0  0  0
 71 72  1  0  0  0
 71170  1  0  0  0
 71171  1  0  0  0
 72 73  2  0  0  0
 72 75  1  0  0  0
 74172  1  0  0  0
 74173  1  0  0  0
 74174  1  0  0  0
 75 76  1  0  0  0
 75 77  1  0  0  0
 76175  1  0  0  0
 76176  1  0  0  0
 76177  1  0  0  0
 77 78  1  0  0  0
 77 82  1  0  0  0
 77178  1  0  0  0
 78 79  1  0  0  0
 78179  1  0  0  0
 78180  1  0  0  0
 79 80  1  0  0  0
 79 81  1  0  0  0
 79181  1  0  0  0
 80182  1  0  0  0
 80183  1  0  0  0
 80184  1  0  0  0
 81185  1  0  0  0
 81186  1  0  0  0
 81187  1  0  0  0
 82 83  2  0  0  0
 82 84  1  0  0  0
 84 85  1  0  0  0
 84188  1  0  0  0
 85 86  1  0  0  0
 85 88  1  0  0  0
 85189  1  0  0  0
 86 87  2  0  0  0
 86 96  1  0  0  0
 88 89  1  0  0  0
 88190  1  0  0  0
 88191  1  0  0  0
 89 90  2  0  0  0
 89 91  1  0  0  0
 90 92  1  0  0  0
 90192  1  0  0  0
 91 93  2  0  0  0
 91193  1  0  0  0
 92 94  2  0  0  0
 92194  1  0  0  0
 93 94  1  0  0  0
 93195  1  0  0  0
 94 95  1  0  0  0
 95196  1  0  0  0
 96 97  1  0  0  0
 96102  1  0  0  0
 97 98  1  0  0  0
 97100  1  0  0  0
 97197  1  0  0  0
 98 99  2  0  0  0
 98103  1  0  0  0
100101  1  0  0  0
100198  1  0  0  0
100199  1  0  0  0
101102  1  0  0  0
101200  1  0  0  0
101201  1  0  0  0
102202  1  0  0  0
102203  1  0  0  0
103104  1  0  0  0
103204  1  0  0  0
104105  1  0  0  0
104107  1  0  0  0
104205  1  0  0  0
105106  2  0  0  0
105109  1  0  0  0
107108  1  0  0  0
107206  1  0  0  0
107207  1  0  0  0
109208  1  0  0  0
109209  1  0  0  0
M  END
> <s_m_source_file>
../3m17_ligand.sdf

> <i_m_source_file_index>
1

> <s_epik_input>
W0hdL049QyhbTkgyXSlcW05IXVtDSDJdW0NIMl1bQ0gyXVtDQEhdKFtOSF1DKD1PKVtDSDNdKUMoPU8pW05IXVtDQEBIXShbQ0gyXWMxW2NIXVtjSF1bY0hdW2NIXVtjSF0xKUMoPU8pW05IXVtDQEBIXShDKFtDSDNdKShbQ0gzXSlTU1tDSDJdW0NAQEhdKEMoPU8pW05IMl0pW05IXUMoPU8pW0NAQEhdKE4yMylbQ0gyXVtDSDJdW0NIMl0zKUMoPU8pW05IXVtDQEBIXShbQ0BIXShbT0hdKVtDSDNdKUMoPU8pW05IXVtDSDJdQyg9TylbTkhdW0NAQEhdKFtDSDJdQzQ9TltDSDJdTj1bQ0hdNClDKD1PKVtOSF1bQ0BASF0oW0NIMl1jNVtjSF1bY0hdW2NIXVtjSF1bY0hdNSlDKD1PKVtOSF1bQ0gyXUMoPU8pTihbQ0gzXSlbQ0gyXUMoPU8pTihbQ0gzXSlbQ0BASF0oW0NIMl1bQ0hdKFtDSDNdKVtDSDNdKUMoPU8pW05IXVtDQEhdKEMyPU8pW0NIMl1jNltjSF1bY0hdYyhbT0hdKVtjSF1bY0hdNg==

> <s_epik_cmdline>
J2VwaWtfYXBwJywgJy1pbWFlJywgJ2xpZ2FuZF9wcm8ubWFlJywgJy1vbWFlJywgJ2xpZ2FuZF9wcmVwLm1hZScsICctbXMnLCAnMScsICctcGgnLCAnNycsICctcGh0JywgJzAuNScsICctbnQn

> <s_epik_pKa_notes>
Molecule size exceeds maximum supported for generating protonation states

> <s_epik_Chemistry_Notes>
This compound has an imine and may undergo hydrolysis.

$$$$
