3m1s_ligand
                    3D
 Schrodinger Suite 2020-3.
 40 50  0  0  1  0            999 V2000
   42.6720   79.6840   30.1730 O   0  0  0  0  0  0
   43.6010   80.0090   30.7560 C   0  0  0  0  0  0
   45.5520   82.4750   30.8590 C   0  0  0  0  0  0
   46.0240   81.4430   30.0160 C   0  0  0  0  0  0
   46.9990   80.7230   30.7110 C   0  0  0  0  0  0
   47.1400   81.3190   31.9730 C   0  0  0  0  0  0
   46.2530   82.4000   32.0710 C   0  0  0  0  0  0
   45.4500   78.5910   32.5090 N   0  0  0  0  0  0
   46.1920   77.6250   31.9590 C   0  0  0  0  0  0
   46.3950   76.4150   32.6290 C   0  0  0  0  0  0
   45.8080   76.2460   33.8810 C   0  0  0  0  0  0
   43.9740   80.6570   33.5550 N   0  0  0  0  0  0
   43.2040   81.4500   34.3420 C   0  0  0  0  0  0
   42.8980   80.7510   35.5150 C   0  0  0  0  0  0
   42.1260   81.3290   36.5250 C   0  0  0  0  0  0
   41.6420   82.6180   36.3090 C   0  0  0  0  0  0
   41.9780   83.2830   35.1230 C   0  0  0  0  0  0
   42.7610   82.7150   34.1170 C   0  0  0  0  0  0
   40.8550   83.2010   37.2580 O   0  0  0  0  0  0
   43.5090   79.5030   35.4230 C   0  0  0  0  0  0
   44.1580   79.4790   34.2200 C   0  0  0  0  0  0
   44.8970   78.4320   33.7260 C   0  0  0  0  0  0
   45.0370   77.2710   34.4460 C   0  0  0  0  0  0
   43.6340   78.3430   36.1860 C   0  0  0  0  0  0
   44.3890   77.2570   35.6880 C   0  0  3  0  0  0
   43.1420   77.9460   37.4430 C   0  0  0  0  0  0
   42.4310   78.6290   38.1740 O   0  5  0  0  0  0
   43.5520   76.6670   37.7710 N   0  0  0  0  0  0
   44.3060   76.2950   36.6820 C   0  0  0  0  0  0
   44.8270   75.2170   36.6500 O   0  0  0  0  0  0
   45.0650   80.5500   31.7320 Ru  0  0  0  0  0  0
   44.6028   79.8321   30.3375 H   0  0  0  0  0  0
   46.5728   83.3115   32.5973 H   0  0  0  0  0  0
   46.6448   77.7887   30.9700 H   0  0  0  0  0  0
   47.0055   75.6257   32.1661 H   0  0  0  0  0  0
   45.9523   75.3018   34.4266 H   0  0  0  0  0  0
   41.9099   80.7917   37.4484 H   0  0  0  0  0  0
   41.6083   84.2981   34.9780 H   0  0  0  0  0  0
   43.0036   83.2556   33.2021 H   0  0  0  0  0  0
   40.6080   82.6538   38.1797 H   0  0  0  0  0  0
  1  2  2  0  0  0
  2 31  1  0  0  0
  2 32  1  0  0  0
  3  4  2  0  0  0
  3  7  1  0  0  0
  3 31  1  0  0  0
  4  5  1  0  0  0
  4 31  1  0  0  0
  5  6  2  0  0  0
  5 31  1  0  0  0
  6  7  1  0  0  0
  6 31  1  0  0  0
  7 31  1  0  0  0
  7 33  1  0  0  0
  8  9  1  0  0  0
  8 22  1  0  0  0
  8 31  1  0  0  0
  9 10  2  0  0  0
  9 34  1  0  0  0
 10 11  1  0  0  0
 10 35  1  0  0  0
 11 23  2  0  0  0
 11 36  1  0  0  0
 12 13  1  0  0  0
 12 21  1  0  0  0
 12 31  1  0  0  0
 13 14  2  0  0  0
 13 18  1  0  0  0
 14 15  1  0  0  0
 14 20  1  0  0  0
 15 16  2  0  0  0
 15 37  1  0  0  0
 16 17  1  0  0  0
 16 19  1  0  0  0
 17 18  2  0  0  0
 17 38  1  0  0  0
 18 39  1  0  0  0
 19 40  1  0  0  0
 20 21  1  0  0  0
 20 24  2  0  0  0
 21 22  2  0  0  0
 22 23  1  0  0  0
 23 25  1  0  0  0
 24 25  1  0  0  0
 24 26  1  0  0  0
 25 29  1  0  0  0
 26 27  1  0  0  0
 26 28  2  0  0  0
 28 29  1  0  0  0
 29 30  2  0  0  0
M  CHG  1  27  -1
M  END
> <s_m_source_file>
../3m1s_ligand.sdf

> <i_m_source_file_index>
1

> <s_epik_input>
W0NIXTEyQzM9QzRDNT1DMVtSdV0yMzQ1NihbQ0hdPU8pTjdDOD1jOW42YzFjKFtjSF1jKFtPSF0pW2NIXVtjSF0xKWM5PUMxW0NIXShDKD1PKVtOSF1DMT1PKUM4PVtDSF1bQ0hdPVtDSF03

> <s_epik_cmdline>
J2VwaWtfYXBwJywgJy1pbWFlJywgJ2xpZ2FuZF9wcm8ubWFlJywgJy1vbWFlJywgJ2xpZ2FuZF9wcmVwLm1hZScsICctbXMnLCAnMScsICctcGgnLCAnNycsICctcGh0JywgJzAuNScsICctbnQn

> <r_epik_Ionization_Penalty>
  0.0396

> <r_epik_Ionization_Penalty_Charging>
  0.0001

> <r_epik_Ionization_Penalty_Neutral>
  0.0394

> <r_epik_State_Penalty>
  0.0331

> <r_epik_Charging_Adjusted_Penalty>
0.0332559727213467

> <i_epik_Tot_Q>
-1

> <i_epik_Tot_abs_Q>
1

$$$$
