3m2u_ligand
                    3D
 Schrodinger Suite 2020-3.
 37 36  0  0  1  0            999 V2000
   23.3090   38.9740  -20.0060 C   0  0  0  0  0  0
   23.5660   37.6400  -17.9430 N   0  0  0  0  0  0
   24.5510   39.2930  -19.8320 O   0  5  0  0  0  0
   22.2190   42.0550  -17.8220 P   0  0  0  0  0  0
   23.3960   36.3990  -17.4470 C   0  0  0  0  0  0
   22.3400   35.7600  -17.6620 O   0  0  0  0  0  0
   24.5470   35.8960  -16.5700 C   0  0  0  0  0  0
   24.8950   34.3690  -16.5980 C   0  0  0  0  0  0
   25.9330   33.8830  -15.5850 C   0  0  0  0  0  0
   25.2760   33.4920  -14.2390 C   0  0  0  0  0  0
   25.0470   31.9970  -14.2380 C   0  0  0  0  0  0
   24.0990   31.4360  -12.8190 S   0  0  0  0  0  0
   22.5720   38.3250  -18.8340 C   0  0  1  0  0  0
   21.7420   39.4370  -18.1170 C   0  0  1  0  0  0
   21.0540   38.8870  -16.8300 C   0  0  0  0  0  0
   23.5680   42.8180  -17.6170 O   0  5  0  0  0  0
   21.6410   42.2790  -19.1940 O   0  5  0  0  0  0
   21.2680   42.3560  -16.6960 O   0  0  0  0  0  0
   22.6740   40.5030  -17.7110 O   0  0  0  0  0  0
   22.6940   39.2220  -21.0660 O   0  0  0  0  0  0
   24.4967   38.1537  -17.6602 H   0  0  0  0  0  0
   25.4789   36.4020  -16.8624 H   0  0  0  0  0  0
   24.3266   36.1147  -15.5147 H   0  0  0  0  0  0
   23.9860   33.7821  -16.3996 H   0  0  0  0  0  0
   25.2950   34.1022  -17.5873 H   0  0  0  0  0  0
   26.4525   33.0007  -15.9870 H   0  0  0  0  0  0
   26.6631   34.6836  -15.3953 H   0  0  0  0  0  0
   25.9432   33.7717  -13.4104 H   0  0  0  0  0  0
   24.3171   34.0203  -14.1319 H   0  0  0  0  0  0
   24.4943   31.7101  -15.1448 H   0  0  0  0  0  0
   26.0165   31.4775  -14.2198 H   0  0  0  0  0  0
   23.8645   30.3677  -12.7017 H   0  0  0  0  0  0
   21.8976   37.5196  -19.1604 H   0  0  0  0  0  0
   20.9890   39.8549  -18.8013 H   0  0  0  0  0  0
   20.3503   38.0871  -17.1037 H   0  0  0  0  0  0
   20.5079   39.7005  -16.3300 H   0  0  0  0  0  0
   21.8185   38.4855  -16.1486 H   0  0  0  0  0  0
  1  3  1  0  0  0
  1 13  1  0  0  0
  1 20  2  0  0  0
  2  5  1  0  0  0
  2 13  1  0  0  0
  2 21  1  0  0  0
  4 16  1  0  0  0
  4 17  1  0  0  0
  4 18  2  0  0  0
  4 19  1  0  0  0
  5  6  2  0  0  0
  5  7  1  0  0  0
  7  8  1  0  0  0
  7 22  1  0  0  0
  7 23  1  0  0  0
  8  9  1  0  0  0
  8 24  1  0  0  0
  8 25  1  0  0  0
  9 10  1  0  0  0
  9 26  1  0  0  0
  9 27  1  0  0  0
 10 11  1  0  0  0
 10 28  1  0  0  0
 10 29  1  0  0  0
 11 12  1  0  0  0
 11 30  1  0  0  0
 11 31  1  0  0  0
 12 32  1  0  0  0
 13 14  1  0  0  0
 13 33  1  0  0  0
 14 15  1  0  0  0
 14 19  1  0  0  0
 14 34  1  0  0  0
 15 35  1  0  0  0
 15 36  1  0  0  0
 15 37  1  0  0  0
M  CHG  3   3  -1  16  -1  17  -1
M  END
> <s_m_source_file>
../3m2u_ligand.sdf

> <i_m_source_file_index>
1

> <s_epik_input>
W09IXVAoPU8pKFtPSF0pT1tDQEhdKFtDSDNdKVtDQEBIXShDKD1PKVtPSF0pW05IXUMoPU8pW0NIMl1bQ0gyXVtDSDJdW0NIMl1bQ0gyXVtTSF0=

> <s_epik_cmdline>
J2VwaWtfYXBwJywgJy1pbWFlJywgJ2xpZ2FuZF9wcm8ubWFlJywgJy1vbWFlJywgJ2xpZ2FuZF9wcmVwLm1hZScsICctbXMnLCAnMScsICctcGgnLCAnNycsICctcGh0JywgJzAuNScsICctbnQn

> <r_epik_Ionization_Penalty>
  0.1339

> <r_epik_Ionization_Penalty_Charging>
  0.1329

> <r_epik_Ionization_Penalty_Neutral>
  0.0010

> <r_epik_State_Penalty>
  0.1222

> <r_epik_Charging_Adjusted_Penalty>
0.255085422361126

> <i_epik_Tot_Q>
-3

> <i_epik_Tot_abs_Q>
3

$$$$
