3m2w_ligand
                    3D
 Schrodinger Suite 2020-3.
 47 52  0  0  1  0            999 V2000
   35.6060    3.4560   14.9520 F   0  0  0  0  0  0
   35.4680    3.8250   13.6740 C   0  0  0  0  0  0
   36.3700    4.6900   13.0540 C   0  0  0  0  0  0
   36.2080    5.0540   11.7280 C   0  0  0  0  0  0
   35.1280    4.5510   11.0110 C   0  0  0  0  0  0
   34.2310    3.6720   11.6260 C   0  0  0  0  0  0
   34.3920    3.3180   12.9550 C   0  0  0  0  0  0
   37.5130    5.2770   13.7690 C   0  0  0  0  0  0
   38.5820    5.6040   13.0200 N   0  0  0  0  0  0
   39.6670    6.1750   13.5520 C   0  0  0  0  0  0
   39.7140    6.4530   14.9180 C   0  0  0  0  0  0
   38.6120    6.1180   15.7060 C   0  0  0  0  0  0
   37.4800    5.5440   15.1400 C   0  0  0  0  0  0
   38.6800    6.4310   17.1550 C   0  0  0  0  0  0
   37.9170    6.0220   18.1170 N   0  0  0  0  0  0
   38.2930    6.5310   19.2680 C   0  0  3  0  0  0
   39.3690    7.3240   19.0810 C   0  0  0  0  0  0
   39.6180    7.2520   17.6360 C   0  0  0  0  0  0
   40.6590    7.9360   16.8000 C   0  0  0  0  0  0
   40.9670    7.0940   15.5330 C   0  0  0  0  0  0
   40.0070    8.0830   20.1680 C   0  0  0  0  0  0
   39.4130    8.0790   21.3760 N   0  0  0  0  0  0
   38.1820    7.3490   21.6740 C   0  0  0  0  0  0
   37.7020    6.3020   20.6390 C   0  0  2  0  0  0
   37.9850    4.8390   21.0540 C   0  0  0  0  0  0
   36.5710    4.6780   21.4640 N   0  0  2  0  0  0
   36.2040    5.9810   20.8300 C   0  0  0  0  0  0
   36.3460    4.5230   22.9320 C   0  0  0  0  0  0
   41.0140    8.7550   19.9850 O   0  0  0  0  0  0
   36.9197    5.7279   11.2511 H   0  0  0  0  0  0
   34.9808    4.8415    9.9708 H   0  0  0  0  0  0
   33.3982    3.2621   11.0545 H   0  0  0  0  0  0
   33.6797    2.6463   13.4340 H   0  0  0  0  0  0
   40.5171    6.4240   12.9169 H   0  0  0  0  0  0
   36.6014    5.3114   15.7417 H   0  0  0  0  0  0
   41.1847    8.8873   16.9694 H   0  0  0  0  0  0
   42.0010    7.0079   15.1678 H   0  0  0  0  0  0
   39.9070    8.6684   22.1625 H   0  0  0  0  0  0
   38.3045    6.7922   22.6147 H   0  0  0  0  0  0
   37.3491    8.0604   21.7749 H   0  0  0  0  0  0
   38.3384    4.2719   20.1802 H   0  0  0  0  0  0
   38.7564    4.8229   21.8380 H   0  0  0  0  0  0
   35.7409    6.7542   21.4606 H   0  0  0  0  0  0
   35.7055    5.9604   19.8497 H   0  0  0  0  0  0
   36.6626    3.5179   23.2473 H   0  0  0  0  0  0
   35.2774    4.6578   23.1554 H   0  0  0  0  0  0
   36.9323    5.2792   23.4746 H   0  0  0  0  0  0
  1  2  1  0  0  0
  2  3  2  0  0  0
  2  7  1  0  0  0
  3  4  1  0  0  0
  3  8  1  0  0  0
  4  5  2  0  0  0
  4 30  1  0  0  0
  5  6  1  0  0  0
  5 31  1  0  0  0
  6  7  2  0  0  0
  6 32  1  0  0  0
  7 33  1  0  0  0
  8  9  2  0  0  0
  8 13  1  0  0  0
  9 10  1  0  0  0
 10 11  2  0  0  0
 10 34  1  0  0  0
 11 12  1  0  0  0
 11 20  1  0  0  0
 12 13  2  0  0  0
 12 14  1  0  0  0
 13 35  1  0  0  0
 14 15  2  0  0  0
 14 18  1  0  0  0
 15 16  1  0  0  0
 16 17  1  0  0  0
 16 24  1  0  0  0
 17 18  2  0  0  0
 17 21  1  0  0  0
 18 19  1  0  0  0
 19 20  2  0  0  0
 19 36  1  0  0  0
 20 37  1  0  0  0
 21 22  1  0  0  0
 21 29  2  0  0  0
 22 23  1  0  0  0
 22 38  1  0  0  0
 23 24  1  0  0  0
 23 39  1  0  0  0
 23 40  1  0  0  0
 24 25  1  0  0  0
 24 27  1  0  0  0
 25 26  1  0  0  0
 25 41  1  0  0  0
 25 42  1  0  0  0
 26 27  1  0  0  0
 26 28  1  0  0  0
 27 43  1  0  0  0
 27 44  1  0  0  0
 28 45  1  0  0  0
 28 46  1  0  0  0
 28 47  1  0  0  0
M  END
> <s_m_source_file>
../3m2w_ligand.sdf

> <i_m_source_file_index>
1

> <s_epik_input>
W2NIXTFbY0hdW2NIXVtjSF1jKGMxRiktYyhbY0hdMiluW2NIXWMoW2NIXVtjSF0zKWMyYyg9TjQpYzM9QyhDKD1PKVtOSF1bQ0gyXTUpW0NIXTRbQ0BAXTU2W0NIMl1bTkBIK10oW0NIMl02KVtDSDNd

> <s_epik_cmdline>
J2VwaWtfYXBwJywgJy1pbWFlJywgJ2xpZ2FuZF9wcm8ubWFlJywgJy1vbWFlJywgJ2xpZ2FuZF9wcmVwLm1hZScsICctbXMnLCAnMScsICctcGgnLCAnNycsICctcGh0JywgJzAuNScsICctbnQn

> <r_lp_tautomer_probability>
1

> <r_epik_Ionization_Penalty>
  0.0078

> <r_epik_Ionization_Penalty_Charging>
  0.0000

> <r_epik_Ionization_Penalty_Neutral>
  0.0078

> <r_epik_State_Penalty>
 -0.0000

> <r_epik_Charging_Adjusted_Penalty>
0

> <i_epik_Tot_Q>
0

> <i_epik_Tot_abs_Q>
0

> <s_epik_Chemistry_Notes>
This compound has an imine and may undergo hydrolysis.

$$$$
