3m3c_ligand
                    3D
 Schrodinger Suite 2020-3.
 63 65  0  0  1  0            999 V2000
  -14.8870    9.1930  -29.5470 C   0  0  1  0  0  0
  -14.9480    7.6820  -29.3130 C   0  0  1  0  0  0
  -15.2650    7.3640  -27.8510 C   0  0  2  0  0  0
  -14.2600    8.0920  -26.9570 C   0  0  2  0  0  0
  -14.2880    9.5870  -27.2810 C   0  0  1  0  0  0
  -13.3040   10.3250  -26.3720 C   0  0  0  0  0  0
  -15.9320    7.0880  -30.1650 O   0  0  0  0  0  0
  -15.1590    5.9530  -27.6440 O   0  0  0  0  0  0
  -12.9490    7.5760  -27.2030 O   0  0  0  0  0  0
  -13.9290    9.7910  -28.6570 O   0  0  0  0  0  0
  -13.3420   11.7230  -26.6700 O   0  0  0  0  0  0
  -14.6350   13.0880  -32.9320 O   0  0  0  0  0  0
  -15.3030   11.9560  -33.5120 C   0  0  1  0  0  0
  -14.7280   10.6590  -32.9400 C   0  0  2  0  0  0
  -15.4160    9.5110  -33.5470 N   0  0  0  0  0  0
  -14.9670   10.6280  -31.4300 C   0  0  1  0  0  0
  -14.4540    9.3960  -30.9010 O   0  0  0  0  0  0
  -14.2450   11.8450  -30.8510 C   0  0  1  0  0  0
  -12.8430   11.7200  -31.1000 O   0  0  0  0  0  0
  -14.7740   13.1270  -31.5010 C   0  0  1  0  0  0
  -13.9780   14.3200  -30.9710 C   0  0  0  0  0  0
  -14.4830   15.5280  -31.5480 O   0  0  0  0  0  0
  -14.8740    8.8000  -34.5320 C   0  0  0  0  0  0
  -13.6450    9.1290  -35.0110 O   0  0  0  0  0  0
  -15.5640    7.7170  -35.0650 C   0  0  0  0  0  0
  -19.1240   14.5990  -35.2490 C   0  0  0  0  0  0
  -19.5820   13.9670  -34.0990 C   0  0  0  0  0  0
  -18.7390   13.1150  -33.3950 C   0  0  0  0  0  0
  -17.4410   12.8890  -33.8380 C   0  0  0  0  0  0
  -16.9800   13.5300  -34.9830 C   0  0  0  0  0  0
  -17.8220   14.3850  -35.6870 C   0  0  0  0  0  0
  -16.7060   11.9330  -33.2080 O   0  0  0  0  0  0
  -19.9550   15.3730  -35.9430 N   0  3  0  0  0  0
  -19.5280   15.9870  -37.1510 O   0  0  0  0  0  0
  -21.2820   15.5760  -35.4790 O   0  5  0  0  0  0
  -15.8463    9.7051  -29.3811 H   0  0  0  0  0  0
  -13.9925    7.2204  -29.6027 H   0  0  0  0  0  0
  -16.3001    7.6286  -27.5893 H   0  0  0  0  0  0
  -14.4624    7.9093  -25.8913 H   0  0  0  0  0  0
  -15.3034    9.9966  -27.1751 H   0  0  0  0  0  0
  -13.5853   10.1650  -25.3207 H   0  0  0  0  0  0
  -12.2878    9.9398  -26.5424 H   0  0  0  0  0  0
  -15.8631    7.2135  -31.2556 H   0  0  0  0  0  0
  -15.8081    5.2645  -28.2049 H   0  0  0  0  0  0
  -12.7346    6.5117  -27.0258 H   0  0  0  0  0  0
  -12.6983   12.4213  -26.1151 H   0  0  0  0  0  0
  -15.1838   12.0960  -34.5965 H   0  0  0  0  0  0
  -13.6569   10.5749  -33.1760 H   0  0  0  0  0  0
  -16.4128    9.2147  -33.1883 H   0  0  0  0  0  0
  -16.0282   10.6165  -31.1406 H   0  0  0  0  0  0
  -14.3567   11.8894  -29.7576 H   0  0  0  0  0  0
  -12.2895   10.8546  -30.7066 H   0  0  0  0  0  0
  -15.8542   13.2214  -31.3158 H   0  0  0  0  0  0
  -14.0758   14.3689  -29.8764 H   0  0  0  0  0  0
  -12.9178   14.2019  -31.2395 H   0  0  0  0  0  0
  -14.0311   16.4951  -31.2826 H   0  0  0  0  0  0
  -16.5313    7.6102  -34.5522 H   0  0  0  0  0  0
  -14.9719    6.8005  -34.9256 H   0  0  0  0  0  0
  -15.7347    7.8835  -36.1388 H   0  0  0  0  0  0
  -20.6001   14.1391  -33.7499 H   0  0  0  0  0  0
  -19.0974   12.6219  -32.4914 H   0  0  0  0  0  0
  -15.9598   13.3626  -35.3285 H   0  0  0  0  0  0
  -17.4602   14.8881  -36.5837 H   0  0  0  0  0  0
  1  2  1  0  0  0
  1 10  1  0  0  0
  1 17  1  0  0  0
  1 36  1  0  0  0
  2  3  1  0  0  0
  2  7  1  0  0  0
  2 37  1  0  0  0
  3  4  1  0  0  0
  3  8  1  0  0  0
  3 38  1  0  0  0
  4  5  1  0  0  0
  4  9  1  0  0  0
  4 39  1  0  0  0
  5  6  1  0  0  0
  5 10  1  0  0  0
  5 40  1  0  0  0
  6 11  1  0  0  0
  6 41  1  0  0  0
  6 42  1  0  0  0
  7 43  1  0  0  0
  8 44  1  0  0  0
  9 45  1  0  0  0
 11 46  1  0  0  0
 12 13  1  0  0  0
 12 20  1  0  0  0
 13 14  1  0  0  0
 13 32  1  0  0  0
 13 47  1  0  0  0
 14 15  1  0  0  0
 14 16  1  0  0  0
 14 48  1  0  0  0
 15 23  1  0  0  0
 15 49  1  0  0  0
 16 17  1  0  0  0
 16 18  1  0  0  0
 16 50  1  0  0  0
 18 19  1  0  0  0
 18 20  1  0  0  0
 18 51  1  0  0  0
 19 52  1  0  0  0
 20 21  1  0  0  0
 20 53  1  0  0  0
 21 22  1  0  0  0
 21 54  1  0  0  0
 21 55  1  0  0  0
 22 56  1  0  0  0
 23 24  2  0  0  0
 23 25  1  0  0  0
 25 57  1  0  0  0
 25 58  1  0  0  0
 25 59  1  0  0  0
 26 27  2  0  0  0
 26 31  1  0  0  0
 26 33  1  0  0  0
 27 28  1  0  0  0
 27 60  1  0  0  0
 28 29  2  0  0  0
 28 61  1  0  0  0
 29 30  1  0  0  0
 29 32  1  0  0  0
 30 31  2  0  0  0
 30 62  1  0  0  0
 31 63  1  0  0  0
 33 34  2  0  0  0
 33 35  1  0  0  0
M  CHG  2  33   1  35  -1
M  END
> <s_m_source_file>
../3m3c_ligand.sdf

> <i_m_source_file_index>
1

> <s_epik_input>
W09IXVtDSDJdW0NAQEhdKE8xKVtDQEhdKFtPSF0pW0NASF0oW09IXSlbQ0BASF0oW09IXSlbQ0BASF0xT1tDQEhdKFtDQEhdMltOSF1DKD1PKVtDSDNdKVtDQEBIXShbT0hdKVtDQEBIXShbQ0gyXVtPSF0pT1tDQEBIXTJPYyhbY0hdW2NIXTMpW2NIXVtjSF1jM1tOK10oPU8pW08tXQ==

> <s_epik_cmdline>
J2VwaWtfYXBwJywgJy1pbWFlJywgJ2xpZ2FuZF9wcm8ubWFlJywgJy1vbWFlJywgJ2xpZ2FuZF9wcmVwLm1hZScsICctbXMnLCAnMScsICctcGgnLCAnNycsICctcGh0JywgJzAuNScsICctbnQn

> <r_lp_tautomer_probability>
1

> <r_epik_Ionization_Penalty>
  0.0000

> <r_epik_Ionization_Penalty_Charging>
  0.0000

> <r_epik_Ionization_Penalty_Neutral>
  0.0000

> <r_epik_State_Penalty>
 -0.0000

> <r_epik_Charging_Adjusted_Penalty>
0

> <i_epik_Tot_Q>
0

> <i_epik_Tot_abs_Q>
2

> <s_epik_Chemistry_Notes>
This compound contains an acetal/aminal-like group ( X-CH(R)-Y where X, Y are N, S, or O) that may be acid/base labile, releasing an aldehyde.

$$$$
