3m3e_ligand
                    3D
 Schrodinger Suite 2020-3.
 63 65  0  0  1  0            999 V2000
   39.3280    3.7230    6.5370 C   0  0  1  0  0  0
   38.2470    4.1620    5.5470 C   0  0  1  0  0  0
   37.0530    4.7920    6.2640 C   0  0  2  0  0  0
   36.5590    3.8290    7.3440 C   0  0  2  0  0  0
   37.7240    3.4830    8.2730 C   0  0  1  0  0  0
   37.2320    2.5580    9.3880 C   0  0  0  0  0  0
   38.7960    5.0810    4.6000 O   0  0  0  0  0  0
   36.0130    5.0390    5.3150 O   0  0  0  0  0  0
   36.0670    2.6320    6.7340 O   0  0  0  0  0  0
   38.7660    2.8410    7.5230 O   0  0  0  0  0  0
   38.2860    2.3290   10.3270 O   0  0  0  0  0  0
   44.0710    1.9360    7.2740 O   0  0  0  0  0  0
   44.0380    2.6930    6.0540 C   0  0  1  0  0  0
   42.6590    2.5470    5.4080 C   0  0  2  0  0  0
   42.6350    3.3230    4.1600 N   0  0  0  0  0  0
   41.6060    3.1100    6.3640 C   0  0  1  0  0  0
   40.3060    3.0030    5.7710 O   0  0  0  0  0  0
   41.6960    2.3130    7.6670 C   0  0  1  0  0  0
   41.3990    0.9380    7.4070 O   0  0  0  0  0  0
   43.1150    2.4260    8.2280 C   0  0  1  0  0  0
   43.2320    1.6240    9.5250 C   0  0  0  0  0  0
   44.5570    1.7600   10.0450 O   0  0  0  0  0  0
   42.8570    2.7610    2.9760 C   0  0  0  0  0  0
   43.1110    1.4280    2.8950 O   0  0  0  0  0  0
   42.8450    3.5400    1.8250 C   0  0  0  0  0  0
   47.4730    5.3640    8.4550 C   0  0  0  0  0  0
   46.3120    6.1270    8.4260 C   0  0  0  0  0  0
   45.2070    5.6780    7.7120 C   0  0  0  0  0  0
   45.2600    4.4710    7.0240 C   0  0  0  0  0  0
   46.4200    3.7050    7.0560 C   0  0  0  0  0  0
   47.5250    4.1530    7.7730 C   0  0  0  0  0  0
   44.1820    4.1040    6.2810 O   0  0  0  0  0  0
   48.5300    5.8020    9.1340 N   0  3  0  0  0  0
   49.7210    5.0280    9.1800 O   0  0  0  0  0  0
   48.4610    7.0450    9.8210 O   0  5  0  0  0  0
   39.8014    4.5509    7.0851 H   0  0  0  0  0  0
   37.9079    3.2986    4.9558 H   0  0  0  0  0  0
   37.3012    5.7746    6.6918 H   0  0  0  0  0  0
   35.7084    4.2518    7.8987 H   0  0  0  0  0  0
   38.1814    4.3912    8.6925 H   0  0  0  0  0  0
   36.3805    3.0260    9.9037 H   0  0  0  0  0  0
   36.9155    1.5977    8.9548 H   0  0  0  0  0  0
   39.6654    4.7905    3.9920 H   0  0  0  0  0  0
   36.1933    5.7127    4.4643 H   0  0  0  0  0  0
   35.2240    2.6804    6.0290 H   0  0  0  0  0  0
   38.1134    1.6837   11.2010 H   0  0  0  0  0  0
   44.9015    2.3280    5.4786 H   0  0  0  0  0  0
   42.4455    1.4973    5.1578 H   0  0  0  0  0  0
   42.4286    4.4031    4.1878 H   0  0  0  0  0  0
   41.7215    4.1889    6.5449 H   0  0  0  0  0  0
   40.9451    2.6514    8.3961 H   0  0  0  0  0  0
   40.4180    0.6551    6.9976 H   0  0  0  0  0  0
   43.3751    3.4822    8.3919 H   0  0  0  0  0  0
   42.5068    2.0057   10.2588 H   0  0  0  0  0  0
   43.0231    0.5636    9.3205 H   0  0  0  0  0  0
   44.8359    1.2516   10.9798 H   0  0  0  0  0  0
   42.6230    4.5840    2.0911 H   0  0  0  0  0  0
   42.0734    3.1650    1.1365 H   0  0  0  0  0  0
   43.8291    3.4875    1.3364 H   0  0  0  0  0  0
   46.2678    7.0752    8.9618 H   0  0  0  0  0  0
   44.2951    6.2748    7.6914 H   0  0  0  0  0  0
   46.4635    2.7564    6.5210 H   0  0  0  0  0  0
   48.4345    3.5529    7.8003 H   0  0  0  0  0  0
  1  2  1  0  0  0
  1 10  1  0  0  0
  1 17  1  0  0  0
  1 36  1  0  0  0
  2  3  1  0  0  0
  2  7  1  0  0  0
  2 37  1  0  0  0
  3  4  1  0  0  0
  3  8  1  0  0  0
  3 38  1  0  0  0
  4  5  1  0  0  0
  4  9  1  0  0  0
  4 39  1  0  0  0
  5  6  1  0  0  0
  5 10  1  0  0  0
  5 40  1  0  0  0
  6 11  1  0  0  0
  6 41  1  0  0  0
  6 42  1  0  0  0
  7 43  1  0  0  0
  8 44  1  0  0  0
  9 45  1  0  0  0
 11 46  1  0  0  0
 12 13  1  0  0  0
 12 20  1  0  0  0
 13 14  1  0  0  0
 13 32  1  0  0  0
 13 47  1  0  0  0
 14 15  1  0  0  0
 14 16  1  0  0  0
 14 48  1  0  0  0
 15 23  1  0  0  0
 15 49  1  0  0  0
 16 17  1  0  0  0
 16 18  1  0  0  0
 16 50  1  0  0  0
 18 19  1  0  0  0
 18 20  1  0  0  0
 18 51  1  0  0  0
 19 52  1  0  0  0
 20 21  1  0  0  0
 20 53  1  0  0  0
 21 22  1  0  0  0
 21 54  1  0  0  0
 21 55  1  0  0  0
 22 56  1  0  0  0
 23 24  2  0  0  0
 23 25  1  0  0  0
 25 57  1  0  0  0
 25 58  1  0  0  0
 25 59  1  0  0  0
 26 27  2  0  0  0
 26 31  1  0  0  0
 26 33  1  0  0  0
 27 28  1  0  0  0
 27 60  1  0  0  0
 28 29  2  0  0  0
 28 61  1  0  0  0
 29 30  1  0  0  0
 29 32  1  0  0  0
 30 31  2  0  0  0
 30 62  1  0  0  0
 31 63  1  0  0  0
 33 34  2  0  0  0
 33 35  1  0  0  0
M  CHG  2  33   1  35  -1
M  END
> <s_m_source_file>
../3m3e_ligand.sdf

> <i_m_source_file_index>
1

> <s_epik_input>
W09IXVtDSDJdW0NAQEhdKE8xKVtDQEhdKFtPSF0pW0NASF0oW09IXSlbQ0BASF0oW09IXSlbQ0BASF0xT1tDQEhdKFtDQEhdMltOSF1DKD1PKVtDSDNdKVtDQEBIXShbT0hdKVtDQEBIXShbQ0gyXVtPSF0pT1tDQEBIXTJPYyhbY0hdW2NIXTMpW2NIXVtjSF1jM1tOK10oPU8pW08tXQ==

> <s_epik_cmdline>
J2VwaWtfYXBwJywgJy1pbWFlJywgJ2xpZ2FuZF9wcm8ubWFlJywgJy1vbWFlJywgJ2xpZ2FuZF9wcmVwLm1hZScsICctbXMnLCAnMScsICctcGgnLCAnNycsICctcGh0JywgJzAuNScsICctbnQn

> <r_lp_tautomer_probability>
1

> <r_epik_Ionization_Penalty>
  0.0000

> <r_epik_Ionization_Penalty_Charging>
  0.0000

> <r_epik_Ionization_Penalty_Neutral>
  0.0000

> <r_epik_State_Penalty>
 -0.0000

> <r_epik_Charging_Adjusted_Penalty>
0

> <i_epik_Tot_Q>
0

> <i_epik_Tot_abs_Q>
2

> <s_epik_Chemistry_Notes>
This compound contains an acetal/aminal-like group ( X-CH(R)-Y where X, Y are N, S, or O) that may be acid/base labile, releasing an aldehyde.

$$$$
