3m3o_ligand
                    3D
 Schrodinger Suite 2020-3.
 63 65  0  0  1  0            999 V2000
    1.8920  -19.5680   -0.2800 C   0  0  1  0  0  0
    0.9340  -18.3750   -0.3250 C   0  0  1  0  0  0
    1.7030  -17.0600   -0.4630 C   0  0  2  0  0  0
    2.7380  -16.9750    0.6580 C   0  0  2  0  0  0
    3.6330  -18.2160    0.6100 C   0  0  1  0  0  0
    4.7100  -18.1320    1.6950 C   0  0  0  0  0  0
    0.0200  -18.5290   -1.4130 O   0  0  0  0  0  0
    0.7940  -15.9610   -0.3600 O   0  0  0  0  0  0
    2.0570  -16.9250    1.9150 O   0  0  0  0  0  0
    2.8400  -19.4000    0.7870 O   0  0  0  0  0  0
    5.6120  -19.2360    1.5730 O   0  0  0  0  0  0
    2.5570  -24.6460   -0.0040 O   0  0  0  0  0  0
    1.4050  -24.4010   -0.8250 C   0  0  1  0  0  0
    0.7490  -23.0950   -0.3700 C   0  0  2  0  0  0
   -0.4560  -22.8180   -1.1660 N   0  0  0  0  0  0
    1.7250  -21.9260   -0.5060 C   0  0  1  0  0  0
    1.0930  -20.7320   -0.0230 O   0  0  0  0  0  0
    2.9950  -22.2740    0.2740 C   0  0  1  0  0  0
    2.7070  -22.3510    1.6720 O   0  0  0  0  0  0
    3.5440  -23.6210   -0.2010 C   0  0  1  0  0  0
    4.8050  -23.9650    0.5930 C   0  0  0  0  0  0
    5.3390  -25.2020    0.1160 O   0  0  0  0  0  0
   -1.6480  -23.2930   -0.8160 C   0  0  0  0  0  0
   -1.7670  -24.0560    0.3030 O   0  0  0  0  0  0
   -2.7680  -23.0030   -1.5860 C   0  0  0  0  0  0
   -1.0690  -25.2350   -4.9730 C   0  0  0  0  0  0
   -0.0370  -24.3650   -5.3070 C   0  0  0  0  0  0
    0.9210  -24.0270   -4.3570 C   0  0  0  0  0  0
    0.8500  -24.5620   -3.0750 C   0  0  0  0  0  0
   -0.1860  -25.4260   -2.7410 C   0  0  0  0  0  0
   -1.1470  -25.7620   -3.6880 C   0  0  0  0  0  0
    1.8440  -24.2900   -2.1870 O   0  0  0  0  0  0
   -1.9800  -25.5620   -5.8840 N   0  3  0  0  0  0
   -3.0570  -26.4230   -5.5370 O   0  0  0  0  0  0
   -1.8870  -25.0320   -7.1990 O   0  5  0  0  0  0
    2.4751  -19.7100   -1.2019 H   0  0  0  0  0  0
    0.3104  -18.3505    0.5808 H   0  0  0  0  0  0
    2.1708  -16.9647   -1.4540 H   0  0  0  0  0  0
    3.3322  -16.0515    0.5943 H   0  0  0  0  0  0
    4.0958  -18.3228   -0.3822 H   0  0  0  0  0  0
    5.2703  -17.1920    1.5835 H   0  0  0  0  0  0
    4.2346  -18.1600    2.6866 H   0  0  0  0  0  0
   -0.6178  -19.4232   -1.4731 H   0  0  0  0  0  0
   -0.0251  -15.8548   -1.0865 H   0  0  0  0  0  0
    1.3650  -16.0982    2.1331 H   0  0  0  0  0  0
    6.4538  -19.3384    2.2736 H   0  0  0  0  0  0
    0.7201  -25.2595   -0.7620 H   0  0  0  0  0  0
    0.4268  -23.2006    0.6764 H   0  0  0  0  0  0
   -0.3849  -22.2042   -2.0760 H   0  0  0  0  0  0
    1.9771  -21.6851   -1.5493 H   0  0  0  0  0  0
    3.7439  -21.4753    0.1679 H   0  0  0  0  0  0
    2.3011  -21.4749    2.1990 H   0  0  0  0  0  0
    3.7468  -23.6048   -1.2820 H   0  0  0  0  0  0
    5.5502  -23.1666    0.4617 H   0  0  0  0  0  0
    4.5525  -24.0591    1.6595 H   0  0  0  0  0  0
    6.2522  -25.6173    0.5672 H   0  0  0  0  0  0
   -2.4726  -22.3791   -2.4424 H   0  0  0  0  0  0
   -3.5035  -22.4607   -0.9737 H   0  0  0  0  0  0
   -3.2143  -23.9397   -1.9513 H   0  0  0  0  0  0
    0.0212  -23.9482   -6.3125 H   0  0  0  0  0  0
    1.7281  -23.3423   -4.6173 H   0  0  0  0  0  0
   -0.2453  -25.8410   -1.7348 H   0  0  0  0  0  0
   -1.9606  -26.4376   -3.4238 H   0  0  0  0  0  0
  1  2  1  0  0  0
  1 10  1  0  0  0
  1 17  1  0  0  0
  1 36  1  0  0  0
  2  3  1  0  0  0
  2  7  1  0  0  0
  2 37  1  0  0  0
  3  4  1  0  0  0
  3  8  1  0  0  0
  3 38  1  0  0  0
  4  5  1  0  0  0
  4  9  1  0  0  0
  4 39  1  0  0  0
  5  6  1  0  0  0
  5 10  1  0  0  0
  5 40  1  0  0  0
  6 11  1  0  0  0
  6 41  1  0  0  0
  6 42  1  0  0  0
  7 43  1  0  0  0
  8 44  1  0  0  0
  9 45  1  0  0  0
 11 46  1  0  0  0
 12 13  1  0  0  0
 12 20  1  0  0  0
 13 14  1  0  0  0
 13 32  1  0  0  0
 13 47  1  0  0  0
 14 15  1  0  0  0
 14 16  1  0  0  0
 14 48  1  0  0  0
 15 23  1  0  0  0
 15 49  1  0  0  0
 16 17  1  0  0  0
 16 18  1  0  0  0
 16 50  1  0  0  0
 18 19  1  0  0  0
 18 20  1  0  0  0
 18 51  1  0  0  0
 19 52  1  0  0  0
 20 21  1  0  0  0
 20 53  1  0  0  0
 21 22  1  0  0  0
 21 54  1  0  0  0
 21 55  1  0  0  0
 22 56  1  0  0  0
 23 24  2  0  0  0
 23 25  1  0  0  0
 25 57  1  0  0  0
 25 58  1  0  0  0
 25 59  1  0  0  0
 26 27  2  0  0  0
 26 31  1  0  0  0
 26 33  1  0  0  0
 27 28  1  0  0  0
 27 60  1  0  0  0
 28 29  2  0  0  0
 28 61  1  0  0  0
 29 30  1  0  0  0
 29 32  1  0  0  0
 30 31  2  0  0  0
 30 62  1  0  0  0
 31 63  1  0  0  0
 33 34  2  0  0  0
 33 35  1  0  0  0
M  CHG  2  33   1  35  -1
M  END
> <s_m_source_file>
../3m3o_ligand.sdf

> <i_m_source_file_index>
1

> <s_epik_input>
W09IXVtDSDJdW0NAQEhdKE8xKVtDQEhdKFtPSF0pW0NASF0oW09IXSlbQ0BASF0oW09IXSlbQ0BASF0xT1tDQEhdKFtDQEhdMltOSF1DKD1PKVtDSDNdKVtDQEBIXShbT0hdKVtDQEBIXShbQ0gyXVtPSF0pT1tDQEBIXTJPYyhbY0hdW2NIXTMpW2NIXVtjSF1jM1tOK10oPU8pW08tXQ==

> <s_epik_cmdline>
J2VwaWtfYXBwJywgJy1pbWFlJywgJ2xpZ2FuZF9wcm8ubWFlJywgJy1vbWFlJywgJ2xpZ2FuZF9wcmVwLm1hZScsICctbXMnLCAnMScsICctcGgnLCAnNycsICctcGh0JywgJzAuNScsICctbnQn

> <r_lp_tautomer_probability>
1

> <r_epik_Ionization_Penalty>
  0.0000

> <r_epik_Ionization_Penalty_Charging>
  0.0000

> <r_epik_Ionization_Penalty_Neutral>
  0.0000

> <r_epik_State_Penalty>
 -0.0000

> <r_epik_Charging_Adjusted_Penalty>
0

> <i_epik_Tot_Q>
0

> <i_epik_Tot_abs_Q>
2

> <s_epik_Chemistry_Notes>
This compound contains an acetal/aminal-like group ( X-CH(R)-Y where X, Y are N, S, or O) that may be acid/base labile, releasing an aldehyde.

$$$$
