3m3r_ligand
                    3D
 Schrodinger Suite 2020-3.
147154  0  0  1  0            999 V2000
   32.7870   37.6620   28.4920 C   0  0  2  0  0  0
   32.3440   38.3590   27.1560 C   0  0  2  0  0  0
   30.9550   38.0770   26.9350 O   0  0  0  0  0  0
   33.2350   37.8800   25.9920 C   0  0  1  0  0  0
   32.8550   38.5440   24.8060 O   0  0  0  0  0  0
   34.6560   38.2110   26.3070 C   0  0  2  0  0  0
   35.4670   37.7580   25.2130 O   0  0  0  0  0  0
   35.1070   37.5020   27.5940 C   0  0  2  0  0  0
   34.2150   37.9440   28.7250 O   0  0  0  0  0  0
   36.5210   37.8300   28.0240 C   0  0  0  0  0  0
   36.8250   37.1190   29.2260 O   0  0  0  0  0  0
   36.3850   38.6190   24.6070 C   0  0  2  0  0  0
   36.2470   38.6100   23.0600 C   0  0  2  0  0  0
   34.9270   39.0270   22.7590 O   0  0  0  0  0  0
   36.6090   37.1960   22.5830 C   0  0  1  0  0  0
   36.5360   37.1550   21.1630 O   0  0  0  0  0  0
   38.0280   36.8450   22.9680 C   0  0  2  0  0  0
   38.2300   35.5170   22.5040 O   0  0  0  0  0  0
   38.1720   37.0980   24.5220 C   0  0  2  0  0  0
   37.7150   38.1830   24.9370 O   0  0  0  0  0  0
   39.5970   36.7940   24.9510 C   0  0  0  0  0  0
   39.4210   36.1880   26.2300 O   0  0  0  0  0  0
   39.3450   35.1200   21.7580 C   0  0  2  0  0  0
   38.9180   34.2240   20.5720 C   0  0  2  0  0  0
   38.0180   34.9530   19.7250 O   0  0  0  0  0  0
   38.2780   32.9420   21.0950 C   0  0  1  0  0  0
   37.9030   32.1080   20.0010 O   0  0  0  0  0  0
   39.2710   32.2420   21.9750 C   0  0  2  0  0  0
   38.6880   31.0630   22.4580 O   0  0  0  0  0  0
   39.6570   33.1700   23.1540 C   0  0  2  0  0  0
   40.2180   34.3790   22.6210 O   0  0  0  0  0  0
   40.7110   32.5090   24.0750 C   0  0  0  0  0  0
   40.6890   32.8770   25.3950 O   0  0  0  0  0  0
   39.3040   29.8100   22.2040 C   0  0  2  0  0  0
   38.2390   28.8630   21.4870 C   0  0  2  0  0  0
   37.8130   29.4280   20.2920 O   0  0  0  0  0  0
   37.0720   28.6340   22.4520 C   0  0  1  0  0  0
   36.0970   27.8050   21.8720 O   0  0  0  0  0  0
   37.6080   27.9910   23.7180 C   0  0  2  0  0  0
   36.5200   27.8210   24.6300 O   0  0  0  0  0  0
   38.6600   28.8990   24.3610 C   0  0  2  0  0  0
   39.7090   29.2400   23.4360 O   0  0  0  0  0  0
   39.3150   28.1450   25.5520 C   0  0  0  0  0  0
   40.2590   29.0110   26.1190 O   0  0  0  0  0  0
   36.2960   26.5220   25.2050 C   0  0  2  0  0  0
   34.8350   26.1340   24.9720 C   0  0  2  0  0  0
   34.5230   26.0950   23.5830 O   0  0  0  0  0  0
   33.9250   27.1590   25.6890 C   0  0  1  0  0  0
   32.5500   26.8150   25.5060 O   0  0  0  0  0  0
   34.2610   27.1530   27.1670 C   0  0  2  0  0  0
   33.3920   28.1750   27.6970 O   0  0  0  0  0  0
   35.7610   27.5280   27.3760 C   0  0  2  0  0  0
   36.5740   26.5840   26.6030 O   0  0  0  0  0  0
   36.1550   27.4810   28.8080 C   0  0  0  0  0  0
   36.7360   28.6830   29.2580 O   0  0  0  0  0  0
   32.6310   27.9490   28.9080 C   0  0  2  0  0  0
   31.2320   28.3820   28.6090 C   0  0  2  0  0  0
   30.8410   27.8090   27.3500 O   0  0  0  0  0  0
   31.1080   29.9150   28.5040 C   0  0  1  0  0  0
   29.6950   30.2390   28.5330 O   0  0  0  0  0  0
   31.7500   30.6170   29.6180 C   0  0  2  0  0  0
   31.6730   32.0430   29.3320 O   0  0  0  0  0  0
   33.2010   30.2300   29.7000 C   0  0  2  0  0  0
   33.2680   28.7680   29.9490 O   0  0  0  0  0  0
   33.9770   30.8740   30.8190 C   0  0  0  0  0  0
   34.9850   31.4610   30.2770 O   0  0  0  0  0  0
   31.0310   32.8780   30.3360 C   0  0  2  0  0  0
   30.0230   33.7540   29.5690 C   0  0  2  0  0  0
   29.0900   32.9430   28.8600 O   0  0  0  0  0  0
   30.7930   34.6600   28.5710 C   0  0  1  0  0  0
   29.8500   35.5220   27.9320 O   0  0  0  0  0  0
   31.8460   35.4910   29.3250 C   0  0  2  0  0  0
   32.5290   36.2970   28.3390 O   0  0  0  0  0  0
   32.8440   34.5340   30.0050 C   0  0  2  0  0  0
   32.0660   33.6660   30.9560 O   0  0  0  0  0  0
   33.9020   35.2720   30.8360 C   0  0  0  0  0  0
   35.0930   34.4870   30.8250 O   0  0  0  0  0  0
   32.2545   37.9447   29.4120 H   0  0  0  0  0  0
   32.3854   39.4576   27.1929 H   0  0  0  0  0  0
   30.2083   38.3665   27.6890 H   0  0  0  0  0  0
   33.1258   36.8064   25.7786 H   0  0  0  0  0  0
   31.8359   38.4227   24.4101 H   0  0  0  0  0  0
   34.7721   39.3012   26.3961 H   0  0  0  0  0  0
   35.0551   36.4216   27.3938 H   0  0  0  0  0  0
   37.2236   37.5321   27.2318 H   0  0  0  0  0  0
   36.6081   38.9118   28.2035 H   0  0  0  0  0  0
   37.8137   37.2296   29.6953 H   0  0  0  0  0  0
   36.1796   39.5978   25.0649 H   0  0  0  0  0  0
   36.8497   39.3362   22.4948 H   0  0  0  0  0  0
   34.5829   40.0263   23.0640 H   0  0  0  0  0  0
   35.8990   36.4586   22.9856 H   0  0  0  0  0  0
   35.5868   37.3792   20.6544 H   0  0  0  0  0  0
   38.8288   37.3853   22.4419 H   0  0  0  0  0  0
   37.4223   36.6176   25.1679 H   0  0  0  0  0  0
   40.0629   36.1157   24.2210 H   0  0  0  0  0  0
   40.1725   37.7301   25.0010 H   0  0  0  0  0  0
   40.2967   35.8511   26.8042 H   0  0  0  0  0  0
   39.8452   36.0472   21.4417 H   0  0  0  0  0  0
   39.7630   33.9636   19.9176 H   0  0  0  0  0  0
   38.3377   35.9024   19.2706 H   0  0  0  0  0  0
   37.3428   33.1293   21.6429 H   0  0  0  0  0  0
   37.1788   32.4701   19.2564 H   0  0  0  0  0  0
   40.1477   31.9112   21.3989 H   0  0  0  0  0  0
   38.7618   33.4468   23.7302 H   0  0  0  0  0  0
   40.5731   31.4177   24.0658 H   0  0  0  0  0  0
   41.7202   32.7541   23.7123 H   0  0  0  0  0  0
   41.4131   32.4418   26.0994 H   0  0  0  0  0  0
   40.2317   30.0019   21.6449 H   0  0  0  0  0  0
   38.6340   27.9032   21.1227 H   0  0  0  0  0  0
   38.5415   29.6510   19.4986 H   0  0  0  0  0  0
   36.5262   29.5659   22.6612 H   0  0  0  0  0  0
   35.5962   28.1124   20.9421 H   0  0  0  0  0  0
   38.0213   26.9932   23.5092 H   0  0  0  0  0  0
   38.1883   29.8546   24.6337 H   0  0  0  0  0  0
   38.5415   27.8793   26.2876 H   0  0  0  0  0  0
   39.8008   27.2294   25.1837 H   0  0  0  0  0  0
   40.8520   28.6862   26.9867 H   0  0  0  0  0  0
   37.0049   25.8028   24.7689 H   0  0  0  0  0  0
   34.6552   25.1003   25.3023 H   0  0  0  0  0  0
   35.0745   25.4178   22.9142 H   0  0  0  0  0  0
   34.0198   28.1693   25.2643 H   0  0  0  0  0  0
   32.1248   26.7687   24.4926 H   0  0  0  0  0  0
   34.0598   26.1962   27.6710 H   0  0  0  0  0  0
   35.9806   28.5517   27.0388 H   0  0  0  0  0  0
   35.2663   27.2870   29.4266 H   0  0  0  0  0  0
   36.8901   26.6769   28.9599 H   0  0  0  0  0  0
   37.0707   28.7751   30.3018 H   0  0  0  0  0  0
   32.6317   26.9005   29.2407 H   0  0  0  0  0  0
   30.5754   27.9906   29.4000 H   0  0  0  0  0  0
   30.8581   26.7176   27.2134 H   0  0  0  0  0  0
   31.5843   30.2882   27.5854 H   0  0  0  0  0  0
   29.0178   29.8145   27.7773 H   0  0  0  0  0  0
   31.2288   30.3770   30.5565 H   0  0  0  0  0  0
   33.6510   30.5490   28.7483 H   0  0  0  0  0  0
   33.3349   31.5990   31.3406 H   0  0  0  0  0  0
   34.3081   30.1009   31.5280 H   0  0  0  0  0  0
   35.7055   32.0073   30.9034 H   0  0  0  0  0  0
   30.5618   32.2965   31.1433 H   0  0  0  0  0  0
   29.3974   34.3322   30.2649 H   0  0  0  0  0  0
   28.4513   32.2335   29.4065 H   0  0  0  0  0  0
   31.2724   34.0884   27.7626 H   0  0  0  0  0  0
   29.0236   35.0945   27.3453 H   0  0  0  0  0  0
   31.4075   36.1766   30.0651 H   0  0  0  0  0  0
   33.3523   33.9485   29.2248 H   0  0  0  0  0  0
   34.0929   36.2603   30.3923 H   0  0  0  0  0  0
   33.5375   35.3969   31.8663 H   0  0  0  0  0  0
   35.9859   34.8347   31.3652 H   0  0  0  0  0  0
  1  2  1  0  0  0
  1  9  1  0  0  0
  1 73  1  0  0  0
  1 78  1  0  0  0
  2  3  1  0  0  0
  2  4  1  0  0  0
  2 79  1  0  0  0
  3 80  1  0  0  0
  4  5  1  0  0  0
  4  6  1  0  0  0
  4 81  1  0  0  0
  5 82  1  0  0  0
  6  7  1  0  0  0
  6  8  1  0  0  0
  6 83  1  0  0  0
  7 12  1  0  0  0
  8  9  1  0  0  0
  8 10  1  0  0  0
  8 84  1  0  0  0
 10 11  1  0  0  0
 10 85  1  0  0  0
 10 86  1  0  0  0
 11 87  1  0  0  0
 12 13  1  0  0  0
 12 20  1  0  0  0
 12 88  1  0  0  0
 13 14  1  0  0  0
 13 15  1  0  0  0
 13 89  1  0  0  0
 14 90  1  0  0  0
 15 16  1  0  0  0
 15 17  1  0  0  0
 15 91  1  0  0  0
 16 92  1  0  0  0
 17 18  1  0  0  0
 17 19  1  0  0  0
 17 93  1  0  0  0
 18 23  1  0  0  0
 19 20  1  0  0  0
 19 21  1  0  0  0
 19 94  1  0  0  0
 21 22  1  0  0  0
 21 95  1  0  0  0
 21 96  1  0  0  0
 22 97  1  0  0  0
 23 24  1  0  0  0
 23 31  1  0  0  0
 23 98  1  0  0  0
 24 25  1  0  0  0
 24 26  1  0  0  0
 24 99  1  0  0  0
 25100  1  0  0  0
 26 27  1  0  0  0
 26 28  1  0  0  0
 26101  1  0  0  0
 27102  1  0  0  0
 28 29  1  0  0  0
 28 30  1  0  0  0
 28103  1  0  0  0
 29 34  1  0  0  0
 30 31  1  0  0  0
 30 32  1  0  0  0
 30104  1  0  0  0
 32 33  1  0  0  0
 32105  1  0  0  0
 32106  1  0  0  0
 33107  1  0  0  0
 34 35  1  0  0  0
 34 42  1  0  0  0
 34108  1  0  0  0
 35 36  1  0  0  0
 35 37  1  0  0  0
 35109  1  0  0  0
 36110  1  0  0  0
 37 38  1  0  0  0
 37 39  1  0  0  0
 37111  1  0  0  0
 38112  1  0  0  0
 39 40  1  0  0  0
 39 41  1  0  0  0
 39113  1  0  0  0
 40 45  1  0  0  0
 41 42  1  0  0  0
 41 43  1  0  0  0
 41114  1  0  0  0
 43 44  1  0  0  0
 43115  1  0  0  0
 43116  1  0  0  0
 44117  1  0  0  0
 45 46  1  0  0  0
 45 53  1  0  0  0
 45118  1  0  0  0
 46 47  1  0  0  0
 46 48  1  0  0  0
 46119  1  0  0  0
 47120  1  0  0  0
 48 49  1  0  0  0
 48 50  1  0  0  0
 48121  1  0  0  0
 49122  1  0  0  0
 50 51  1  0  0  0
 50 52  1  0  0  0
 50123  1  0  0  0
 51 56  1  0  0  0
 52 53  1  0  0  0
 52 54  1  0  0  0
 52124  1  0  0  0
 54 55  1  0  0  0
 54125  1  0  0  0
 54126  1  0  0  0
 55127  1  0  0  0
 56 57  1  0  0  0
 56 64  1  0  0  0
 56128  1  0  0  0
 57 58  1  0  0  0
 57 59  1  0  0  0
 57129  1  0  0  0
 58130  1  0  0  0
 59 60  1  0  0  0
 59 61  1  0  0  0
 59131  1  0  0  0
 60132  1  0  0  0
 61 62  1  0  0  0
 61 63  1  0  0  0
 61133  1  0  0  0
 62 67  1  0  0  0
 63 64  1  0  0  0
 63 65  1  0  0  0
 63134  1  0  0  0
 65 66  1  0  0  0
 65135  1  0  0  0
 65136  1  0  0  0
 66137  1  0  0  0
 67 68  1  0  0  0
 67 75  1  0  0  0
 67138  1  0  0  0
 68 69  1  0  0  0
 68 70  1  0  0  0
 68139  1  0  0  0
 69140  1  0  0  0
 70 71  1  0  0  0
 70 72  1  0  0  0
 70141  1  0  0  0
 71142  1  0  0  0
 72 73  1  0  0  0
 72 74  1  0  0  0
 72143  1  0  0  0
 74 75  1  0  0  0
 74 76  1  0  0  0
 74144  1  0  0  0
 76 77  1  0  0  0
 76145  1  0  0  0
 76146  1  0  0  0
 77147  1  0  0  0
M  END
> <s_m_source_file>
../3m3r_ligand.sdf

> <i_m_source_file_index>
1

> <s_epik_input>
W0NAQEhdMTJbQ0BIXShbT0hdKVtDQEBIXShbT0hdKVtDQEBIXShbQ0BIXShPMSlbQ0gyXVtPSF0pT1tDQEBIXTNbQ0BIXShbT0hdKVtDQEBIXShbT0hdKVtDQEBIXShbQ0BIXShPMylbQ0gyXVtPSF0pT1tDQEBIXTRbQ0BIXShbT0hdKVtDQEBIXShbT0hdKVtDQEBIXShbQ0BIXShPNClbQ0gyXVtPSF0pT1tDQEBIXTVbQ0BIXShbT0hdKVtDQEBIXShbT0hdKVtDQEBIXShbQ0BIXShPNSlbQ0gyXVtPSF0pT1tDQEBIXTZbQ0BIXShbT0hdKVtDQEBIXShbT0hdKVtDQEBIXShbQ0BIXShPNilbQ0gyXVtPSF0pT1tDQEBIXTdbQ0BIXShbT0hdKVtDQEBIXShbT0hdKVtDQEBIXShbQ0BIXShPNylbQ0gyXVtPSF0pT1tDQEBIXThbQ0BIXShbT0hdKVtDQEBIXShbT0hdKVtDQEhdKE8yKVtDQEhdKE84KVtDSDJdW09IXQ==

> <s_epik_cmdline>
J2VwaWtfYXBwJywgJy1pbWFlJywgJ2xpZ2FuZF9wcm8ubWFlJywgJy1vbWFlJywgJ2xpZ2FuZF9wcmVwLm1hZScsICctbXMnLCAnMScsICctcGgnLCAnNycsICctcGh0JywgJzAuNScsICctbnQn

> <r_lp_tautomer_probability>
1

> <r_epik_Ionization_Penalty>
  0.0000

> <r_epik_Ionization_Penalty_Charging>
  0.0000

> <r_epik_Ionization_Penalty_Neutral>
  0.0000

> <r_epik_State_Penalty>
 -0.0000

> <r_epik_Charging_Adjusted_Penalty>
0

> <i_epik_Tot_Q>
0

> <i_epik_Tot_abs_Q>
0

> <s_epik_Chemistry_Notes>
This compound contains an acetal/aminal-like group ( X-CH(R)-Y where X, Y are N, S, or O) that may be acid/base labile, releasing an aldehyde.

$$$$
