3m3z_ligand
                    3D
 Schrodinger Suite 2020-3.
 44 46  0  0  1  0            999 V2000
   18.1480   -5.4300   -2.5750 N   0  0  0  0  0  0
   16.8420   -5.5240   -2.1230 C   0  0  0  0  0  0
   16.4750   -4.9270   -1.0320 N   0  0  0  0  0  0
   19.0730   -4.6700   -1.8790 C   0  0  0  0  0  0
   17.2550   -3.5120    0.7800 N   0  0  0  0  0  0
   18.4610   -2.8960    1.0340 C   0  0  0  0  0  0
   19.3250   -3.2470    0.0820 N   0  0  0  0  0  0
   18.6750   -4.0120   -0.7830 C   0  0  0  0  0  0
   17.3670   -4.1690   -0.3320 C   0  0  0  0  0  0
   20.3680   -4.5720   -2.3070 N   0  0  0  0  0  0
   16.0250   -3.3400    1.5100 C   0  0  2  0  0  0
   15.8710   -1.9360    1.7750 O   0  0  0  0  0  0
   14.9210   -1.8530    2.8650 C   0  0  1  0  0  0
   14.9880   -3.2230    3.5840 C   0  0  2  0  0  0
   16.0850   -3.9490    2.8750 C   0  0  1  0  0  0
   15.4010   -0.7500    3.7900 C   0  0  0  0  0  0
   16.7400   -1.0440    4.1680 O   0  0  0  0  0  0
   15.7810   -5.3600    2.8060 O   0  0  0  0  0  0
   13.7570   -3.9060    3.3990 O   0  0  0  0  0  0
   18.6740   -2.0950    2.0850 N   0  0  0  0  0  0
   19.9810   -1.3760    2.2200 C   0  0  0  0  0  0
   17.1630   -0.2000    5.2310 C   0  0  0  0  0  0
   18.1870   -0.9610    6.0580 C   0  0  0  0  0  0
   18.0280   -2.1600    6.2810 O   0  0  0  0  0  0
   19.2550   -0.3450    6.5110 N   0  0  0  0  0  0
   16.1154   -6.1057   -2.6902 H   0  0  0  0  0  0
   20.6920   -5.1138   -3.2078 H   0  0  0  0  0  0
   21.0857   -3.9514   -1.7505 H   0  0  0  0  0  0
   15.2329   -3.7744    0.8824 H   0  0  0  0  0  0
   13.9133   -1.6174    2.4921 H   0  0  0  0  0  0
   15.1240   -3.1966    4.6752 H   0  0  0  0  0  0
   17.0693   -3.8978    3.3634 H   0  0  0  0  0  0
   15.3584    0.2147    3.2632 H   0  0  0  0  0  0
   14.7554   -0.7107    4.6797 H   0  0  0  0  0  0
   16.4827   -6.0505    2.3152 H   0  0  0  0  0  0
   12.8358   -3.5121    3.8531 H   0  0  0  0  0  0
   17.8928   -1.9639    2.8482 H   0  0  0  0  0  0
   19.9729   -0.7699    3.1379 H   0  0  0  0  0  0
   20.1307   -0.7208    1.3492 H   0  0  0  0  0  0
   20.7992   -2.1094    2.2720 H   0  0  0  0  0  0
   17.6136    0.7138    4.8165 H   0  0  0  0  0  0
   16.2965    0.0682    5.8533 H   0  0  0  0  0  0
   19.3974    0.7274    6.3117 H   0  0  0  0  0  0
   20.0070   -0.9015    7.0897 H   0  0  0  0  0  0
  1  2  2  0  0  0
  1  4  1  0  0  0
  2  3  1  0  0  0
  2 26  1  0  0  0
  3  9  2  0  0  0
  4  8  2  0  0  0
  4 10  1  0  0  0
  5  6  1  0  0  0
  5  9  1  0  0  0
  5 11  1  0  0  0
  6  7  2  0  0  0
  6 20  1  0  0  0
  7  8  1  0  0  0
  8  9  1  0  0  0
 10 27  1  0  0  0
 10 28  1  0  0  0
 11 12  1  0  0  0
 11 15  1  0  0  0
 11 29  1  0  0  0
 12 13  1  0  0  0
 13 14  1  0  0  0
 13 16  1  0  0  0
 13 30  1  0  0  0
 14 15  1  0  0  0
 14 19  1  0  0  0
 14 31  1  0  0  0
 15 18  1  0  0  0
 15 32  1  0  0  0
 16 17  1  0  0  0
 16 33  1  0  0  0
 16 34  1  0  0  0
 17 22  1  0  0  0
 18 35  1  0  0  0
 19 36  1  0  0  0
 20 21  1  0  0  0
 20 37  1  0  0  0
 21 38  1  0  0  0
 21 39  1  0  0  0
 21 40  1  0  0  0
 22 23  1  0  0  0
 22 41  1  0  0  0
 22 42  1  0  0  0
 23 24  2  0  0  0
 23 25  1  0  0  0
 25 43  1  0  0  0
 25 44  1  0  0  0
M  END
> <s_m_source_file>
../3m3z_ligand.sdf

> <i_m_source_file_index>
1

> <s_epik_input>
W05IMl1jMW5bY0hdbmMoYzEyKW4oYyhuMilbTkhdW0NIM10pW0NAQEhdM09bQ0BASF0oW0NAQEhdKFtPSF0pW0NASF0zW09IXSlbQ0gyXU9bQ0gyXUMoPU8pW05IMl0=

> <s_epik_cmdline>
J2VwaWtfYXBwJywgJy1pbWFlJywgJ2xpZ2FuZF9wcm8ubWFlJywgJy1vbWFlJywgJ2xpZ2FuZF9wcmVwLm1hZScsICctbXMnLCAnMScsICctcGgnLCAnNycsICctcGh0JywgJzAuNScsICctbnQn

> <r_epik_Ionization_Penalty>
  0.0175

> <r_epik_Ionization_Penalty_Charging>
  0.0000

> <r_epik_Ionization_Penalty_Neutral>
  0.0175

> <r_epik_State_Penalty>
  0.0134

> <r_epik_Charging_Adjusted_Penalty>
0.0133884639467199

> <i_epik_Tot_Q>
0

> <i_epik_Tot_abs_Q>
0

> <s_epik_Chemistry_Notes>
This compound contains an acetal/aminal-like group ( X-CH(R)-Y where X, Y are N, S, or O) that may be acid/base labile, releasing an aldehyde.

$$$$
