3m40_ligand
                    3D
 Schrodinger Suite 2020-3.
 29 30  0  0  1  0            999 V2000
   -5.9300    7.8370   11.2480 N   0  0  0  0  0  0
   -6.5420    6.9080   11.9300 C   0  0  0  0  0  0
   -5.8370    6.1600   12.7740 N   0  0  0  0  0  0
   -4.5230    6.3650   13.0740 C   0  0  0  0  0  0
   -3.8360    7.3330   12.2880 C   0  0  0  0  0  0
   -4.6610    8.0930   11.3950 C   0  0  0  0  0  0
   -3.7620    5.4360   13.8720 N   0  0  0  0  0  0
   -4.3490    4.3860   14.5900 C   0  0  0  0  0  0
   -3.5010    3.4090   15.0890 C   0  0  0  0  0  0
   -4.0420    2.3570   15.7990 C   0  0  0  0  0  0
   -5.4080    2.2540   16.0090 C   0  0  0  0  0  0
   -6.2560    3.2220   15.4900 C   0  0  0  0  0  0
   -5.7310    4.2920   14.7190 C   0  0  0  0  0  0
   -6.0150    0.8830   16.8730 S   0  0  0  0  0  0
   -5.4480    0.9490   18.2350 O   0  0  0  0  0  0
   -7.4980    0.8850   16.7420 O   0  0  0  0  0  0
   -5.3330   -0.4870   16.1380 N   0  0  0  0  0  0
   -2.3700    7.4570   12.5160 N   0  3  0  0  0  0
   -2.1510    7.5690   13.6740 O   0  0  0  0  0  0
   -1.8910    7.3250   11.4390 O   0  5  0  0  0  0
   -4.1880    9.4210   10.3890 Cl  0  0  0  0  0  0
   -7.6134    6.7476   11.8100 H   0  0  0  0  0  0
   -2.6683    5.5341   13.9370 H   0  0  0  0  0  0
   -2.4255    3.4710   14.9232 H   0  0  0  0  0  0
   -3.3809    1.5905   16.2034 H   0  0  0  0  0  0
   -7.3284    3.1606   15.6749 H   0  0  0  0  0  0
   -6.3903    5.0176   14.2427 H   0  0  0  0  0  0
   -5.6875   -1.3931   16.6511 H   0  0  0  0  0  0
   -4.2365   -0.4321   16.2063 H   0  0  0  0  0  0
  1  2  2  0  0  0
  1  6  1  0  0  0
  2  3  1  0  0  0
  2 22  1  0  0  0
  3  4  2  0  0  0
  4  5  1  0  0  0
  4  7  1  0  0  0
  5  6  2  0  0  0
  5 18  1  0  0  0
  6 21  1  0  0  0
  7  8  1  0  0  0
  7 23  1  0  0  0
  8  9  2  0  0  0
  8 13  1  0  0  0
  9 10  1  0  0  0
  9 24  1  0  0  0
 10 11  2  0  0  0
 10 25  1  0  0  0
 11 12  1  0  0  0
 11 14  1  0  0  0
 12 13  2  0  0  0
 12 26  1  0  0  0
 13 27  1  0  0  0
 14 15  2  0  0  0
 14 16  2  0  0  0
 14 17  1  0  0  0
 17 28  1  0  0  0
 17 29  1  0  0  0
 18 19  2  0  0  0
 18 20  1  0  0  0
M  CHG  2  18   1  20  -1
M  END
> <s_m_source_file>
../3m40_ligand.sdf

> <i_m_source_file_index>
1

> <s_epik_input>
Tz1bTitdKFtPLV0pYzFjKENsKW5bY0hdbmMxW05IXWMyW2NIXVtjSF1jKFtjSF1bY0hdMilTKD1PKSg9TylbTkgyXQ==

> <s_epik_cmdline>
J2VwaWtfYXBwJywgJy1pbWFlJywgJ2xpZ2FuZF9wcm8ubWFlJywgJy1vbWFlJywgJ2xpZ2FuZF9wcmVwLm1hZScsICctbXMnLCAnMScsICctcGgnLCAnNycsICctcGh0JywgJzAuNScsICctbnQn

> <r_lp_tautomer_probability>
1

> <r_epik_Ionization_Penalty>
  0.0006

> <r_epik_Ionization_Penalty_Charging>
  0.0000

> <r_epik_Ionization_Penalty_Neutral>
  0.0006

> <r_epik_State_Penalty>
 -0.0000

> <r_epik_Charging_Adjusted_Penalty>
0

> <i_epik_Tot_Q>
0

> <i_epik_Tot_abs_Q>
2

$$$$
