3m53_ligand
                    3D
 Schrodinger Suite 2020-3.
153153  0  0  1  0            999 V2000
  -38.2610    4.9210    2.6030 C   0  0  0  0  0  0
  -39.2470    4.2840    2.1700 O   0  0  0  0  0  0
  -38.2140    5.5220    3.9740 C   0  0  0  0  0  0
  -37.0920    5.0450    1.9680 N   0  0  0  0  0  0
  -36.0320    5.8580    2.5520 C   0  0  2  0  0  0
  -35.0820    6.4640    1.5300 C   0  0  0  0  0  0
  -34.3670    7.4010    1.8580 O   0  0  0  0  0  0
  -35.2530    5.0850    3.6400 C   0  0  0  0  0  0
  -34.2320    4.2420    3.1060 O   0  0  0  0  0  0
  -35.0510    5.9780    0.2920 N   0  0  0  0  0  0
  -34.2280    6.7000   -0.6900 C   0  0  2  0  0  0
  -35.0310    7.7780   -1.4520 C   0  0  0  0  0  0
  -34.9480    7.8750   -2.6730 O   0  0  0  0  0  0
  -33.5280    5.7670   -1.6690 C   0  0  0  0  0  0
  -32.7860    4.5890   -1.0150 C   0  0  0  0  0  0
  -31.7810    4.0350   -2.0040 C   0  0  0  0  0  0
  -30.9400    2.8960   -1.4230 C   0  0  0  0  0  0
  -30.1300    2.3480   -2.5410 N   0  3  0  0  0  0
  -35.8060    8.5650   -0.7120 N   0  0  0  0  0  0
  -36.6320    9.6230   -1.3150 C   0  0  2  0  0  0
  -36.6380   10.8390   -0.3660 C   0  0  0  0  0  0
  -36.3010   10.6950    0.8160 O   0  0  0  0  0  0
  -38.0330    9.1000   -1.5680 C   0  0  0  0  0  0
  -38.6950    8.6750   -0.3840 O   0  0  0  0  0  0
  -36.9430   12.0300   -0.8850 N   0  0  0  0  0  0
  -37.0140   13.2210   -0.0260 C   0  0  2  0  0  0
  -38.2520   13.2430    0.8710 C   0  0  0  0  0  0
  -39.3160   12.6790    0.5500 O   0  0  0  0  0  0
  -37.0050   14.4850   -0.8640 C   0  0  0  0  0  0
  -35.8560   14.6050   -1.7770 C   0  0  0  0  0  0
  -36.1960   15.5640   -2.8900 C   0  0  0  0  0  0
  -35.1500   15.5660   -3.9530 C   0  0  0  0  0  0
  -35.4050   16.6550   -4.9060 N   0  3  0  0  0  0
  -38.0960   13.8750    2.0350 N   0  0  0  0  0  0
  -39.2400   14.3160    2.8190 C   0  0  2  0  0  0
  -40.1290   13.2080    3.3940 C   0  0  0  0  0  0
  -41.3160   13.4170    3.5570 O   0  0  0  0  0  0
  -40.0980   15.2850    1.9660 C   0  0  0  0  0  0
  -40.9140   16.2410    2.8100 C   0  0  0  0  0  0
  -40.3850   16.7170    3.8370 O   0  0  0  0  0  0
  -42.0930   16.5070    2.4660 O   0  0  0  0  0  0
  -39.5790   12.0350    3.7170 N   0  0  0  0  0  0
  -40.3820   11.0070    4.4170 C   0  0  2  0  0  0
  -40.6460   11.3300    5.9160 C   0  0  0  0  0  0
  -39.9290   12.1110    6.5480 O   0  0  0  0  0  0
  -39.7370    9.6110    4.2870 C   0  0  0  0  0  0
  -40.5590    8.4510    4.9420 C   0  0  0  0  0  0
  -41.3860    7.6280    3.9240 C   0  0  0  0  0  0
  -42.2810    6.6310    4.5420 N   0  0  0  0  0  0
  -43.4520    6.9190    5.1240 C   0  0  0  0  0  0
  -43.8730    8.1820    5.1880 N   0  0  0  0  0  0
  -44.2050    5.9580    5.6520 N   0  0  0  0  0  0
  -41.6740   10.7190    6.4930 N   0  0  0  0  0  0
  -41.9910   10.9510    7.9280 C   0  0  2  0  0  0
  -41.4420    9.8910    8.9100 C   0  0  0  0  0  0
  -42.1850    9.3410    9.7370 O   0  0  0  0  0  0
  -43.5040   11.1040    8.1220 C   0  0  0  0  0  0
  -44.0850   12.1390    7.1980 C   0  0  0  0  0  0
  -43.0120   13.1890    6.8990 C   0  0  0  0  0  0
  -43.6340   14.4750    6.3890 C   0  0  0  0  0  0
  -42.7930   15.6240    6.8090 N   0  3  0  0  0  0
  -40.1470    9.6060    8.8460 N   0  0  0  0  0  0
  -39.5590    8.7030    9.8230 C   0  0  2  0  0  0
  -40.1200    9.0340   11.1940 C   0  0  0  0  0  0
  -39.4523    9.7384   11.9975 O   0  0  0  0  0  0
  -38.0450    8.8540    9.8440 C   0  0  0  0  0  0
  -37.4590    8.8450    8.4630 C   0  0  0  0  0  0
  -37.5240    7.7020    7.6760 C   0  0  0  0  0  0
  -36.8710    9.9850    7.9300 C   0  0  0  0  0  0
  -37.0030    7.6870    6.4060 C   0  0  0  0  0  0
  -36.3500    9.9820    6.6570 C   0  0  0  0  0  0
  -36.4210    8.8310    5.9010 C   0  0  0  0  0  0
  -35.8960    8.8170    4.6360 O   0  0  0  0  0  0
  -41.2557    8.6034   11.5293 O   0  0  0  0  0  0
  -39.1923    5.3996    4.4617 H   0  0  0  0  0  0
  -37.9741    6.5928    3.8969 H   0  0  0  0  0  0
  -37.4410    5.0151    4.5702 H   0  0  0  0  0  0
  -36.9283    4.5356    1.0069 H   0  0  0  0  0  0
  -36.6004    6.6906    2.9921 H   0  0  0  0  0  0
  -34.7712    5.7996    4.3235 H   0  0  0  0  0  0
  -35.9485    4.4480    4.2062 H   0  0  0  0  0  0
  -33.6073    3.6392    3.7816 H   0  0  0  0  0  0
  -35.6063    5.0782   -0.0113 H   0  0  0  0  0  0
  -33.4616    7.1775   -0.0618 H   0  0  0  0  0  0
  -34.2694    5.3337   -2.3564 H   0  0  0  0  0  0
  -32.7810    6.3331   -2.2448 H   0  0  0  0  0  0
  -32.2654    4.9397   -0.1117 H   0  0  0  0  0  0
  -33.5092    3.8068   -0.7410 H   0  0  0  0  0  0
  -32.3109    3.6445   -2.8853 H   0  0  0  0  0  0
  -31.0929    4.8350   -2.3146 H   0  0  0  0  0  0
  -30.2911    3.2888   -0.6263 H   0  0  0  0  0  0
  -31.6048    2.1245   -1.0074 H   0  0  0  0  0  0
  -29.5052    1.5219   -2.1706 H   0  0  0  0  0  0
  -29.4856    3.1403   -2.9496 H   0  0  0  0  0  0
  -30.7993    1.9760   -3.3307 H   0  0  0  0  0  0
  -35.8200    8.4098    0.3769 H   0  0  0  0  0  0
  -36.1970    9.8963   -2.2877 H   0  0  0  0  0  0
  -38.6439    9.8934   -2.0233 H   0  0  0  0  0  0
  -37.9850    8.2377   -2.2493 H   0  0  0  0  0  0
  -39.7183    8.2753   -0.4393 H   0  0  0  0  0  0
  -37.1420   12.1170   -1.9634 H   0  0  0  0  0  0
  -36.1110   13.1469    0.5978 H   0  0  0  0  0  0
  -37.9119   14.5193   -1.4855 H   0  0  0  0  0  0
  -36.9805   15.3634   -0.2024 H   0  0  0  0  0  0
  -34.9844   14.9819   -1.2218 H   0  0  0  0  0  0
  -35.6210   13.6182   -2.2024 H   0  0  0  0  0  0
  -37.1534   15.2718   -3.3461 H   0  0  0  0  0  0
  -36.2793   16.5828   -2.4836 H   0  0  0  0  0  0
  -34.1609   15.7108   -3.4939 H   0  0  0  0  0  0
  -35.1688   14.6049   -4.4878 H   0  0  0  0  0  0
  -34.6293   16.6489   -5.6859 H   0  0  0  0  0  0
  -35.3843   17.6186   -4.3758 H   0  0  0  0  0  0
  -36.3923   16.5127   -5.3697 H   0  0  0  0  0  0
  -37.0749   14.0609    2.3994 H   0  0  0  0  0  0
  -38.7494   14.7879    3.6831 H   0  0  0  0  0  0
  -39.4404   15.8842    1.3191 H   0  0  0  0  0  0
  -40.7958   14.7057    1.3435 H   0  0  0  0  0  0
  -42.6988   17.1997    3.0687 H   0  0  0  0  0  0
  -38.5281   11.8328    3.4625 H   0  0  0  0  0  0
  -41.3392   11.0434    3.8762 H   0  0  0  0  0  0
  -39.6208    9.3585    3.2227 H   0  0  0  0  0  0
  -38.7499    9.6165    4.7725 H   0  0  0  0  0  0
  -39.8729    7.7554    5.4474 H   0  0  0  0  0  0
  -41.2632    8.8697    5.6761 H   0  0  0  0  0  0
  -42.0170    8.3061    3.3307 H   0  0  0  0  0  0
  -40.7051    7.0815    3.2549 H   0  0  0  0  0  0
  -42.0010    5.5672    4.5444 H   0  0  0  0  0  0
  -43.2617    8.9881    4.7560 H   0  0  0  0  0  0
  -44.8317    8.4183    5.6728 H   0  0  0  0  0  0
  -43.8714    4.9108    5.6073 H   0  0  0  0  0  0
  -42.2945   10.0342    5.8964 H   0  0  0  0  0  0
  -41.4580   11.8893    8.1414 H   0  0  0  0  0  0
  -43.9988   10.1430    7.9181 H   0  0  0  0  0  0
  -43.7117   11.4108    9.1577 H   0  0  0  0  0  0
  -44.4062   11.6568    6.2630 H   0  0  0  0  0  0
  -44.9506   12.6167    7.6803 H   0  0  0  0  0  0
  -42.4495   13.4104    7.8180 H   0  0  0  0  0  0
  -42.3243   12.8025    6.1324 H   0  0  0  0  0  0
  -43.6938   14.4431    5.2911 H   0  0  0  0  0  0
  -44.6450   14.5848    6.8082 H   0  0  0  0  0  0
  -43.2401   16.5594    6.4414 H   0  0  0  0  0  0
  -41.7823   15.5112    6.3898 H   0  0  0  0  0  0
  -42.7335   15.6528    7.9070 H   0  0  0  0  0  0
  -39.5192   10.0492    8.0589 H   0  0  0  0  0  0
  -39.8282    7.6813    9.5169 H   0  0  0  0  0  0
  -37.7782    9.8073   10.3236 H   0  0  0  0  0  0
  -37.6013    8.0219   10.4103 H   0  0  0  0  0  0
  -37.9960    6.8033    8.0730 H   0  0  0  0  0  0
  -36.8218   10.8945    8.5288 H   0  0  0  0  0  0
  -37.0488    6.7803    5.8028 H   0  0  0  0  0  0
  -35.8858   10.8803    6.2500 H   0  0  0  0  0  0
  -35.9497    7.9017    4.0283 H   0  0  0  0  0  0
  -41.6633    8.8426   12.5226 H   0  0  0  0  0  0
  1  2  2  0  0  0
  1  3  1  0  0  0
  1  4  1  0  0  0
  3 75  1  0  0  0
  3 76  1  0  0  0
  3 77  1  0  0  0
  4  5  1  0  0  0
  4 78  1  0  0  0
  5  6  1  0  0  0
  5  8  1  0  0  0
  5 79  1  0  0  0
  6  7  2  0  0  0
  6 10  1  0  0  0
  8  9  1  0  0  0
  8 80  1  0  0  0
  8 81  1  0  0  0
  9 82  1  0  0  0
 10 11  1  0  0  0
 10 83  1  0  0  0
 11 12  1  0  0  0
 11 14  1  0  0  0
 11 84  1  0  0  0
 12 13  2  0  0  0
 12 19  1  0  0  0
 14 15  1  0  0  0
 14 85  1  0  0  0
 14 86  1  0  0  0
 15 16  1  0  0  0
 15 87  1  0  0  0
 15 88  1  0  0  0
 16 17  1  0  0  0
 16 89  1  0  0  0
 16 90  1  0  0  0
 17 18  1  0  0  0
 17 91  1  0  0  0
 17 92  1  0  0  0
 18 93  1  0  0  0
 18 94  1  0  0  0
 18 95  1  0  0  0
 19 20  1  0  0  0
 19 96  1  0  0  0
 20 21  1  0  0  0
 20 23  1  0  0  0
 20 97  1  0  0  0
 21 22  2  0  0  0
 21 25  1  0  0  0
 23 24  1  0  0  0
 23 98  1  0  0  0
 23 99  1  0  0  0
 24100  1  0  0  0
 25 26  1  0  0  0
 25101  1  0  0  0
 26 27  1  0  0  0
 26 29  1  0  0  0
 26102  1  0  0  0
 27 28  2  0  0  0
 27 34  1  0  0  0
 29 30  1  0  0  0
 29103  1  0  0  0
 29104  1  0  0  0
 30 31  1  0  0  0
 30105  1  0  0  0
 30106  1  0  0  0
 31 32  1  0  0  0
 31107  1  0  0  0
 31108  1  0  0  0
 32 33  1  0  0  0
 32109  1  0  0  0
 32110  1  0  0  0
 33111  1  0  0  0
 33112  1  0  0  0
 33113  1  0  0  0
 34 35  1  0  0  0
 34114  1  0  0  0
 35 36  1  0  0  0
 35 38  1  0  0  0
 35115  1  0  0  0
 36 37  2  0  0  0
 36 42  1  0  0  0
 38 39  1  0  0  0
 38116  1  0  0  0
 38117  1  0  0  0
 39 40  2  0  0  0
 39 41  1  0  0  0
 41118  1  0  0  0
 42 43  1  0  0  0
 42119  1  0  0  0
 43 44  1  0  0  0
 43 46  1  0  0  0
 43120  1  0  0  0
 44 45  2  0  0  0
 44 53  1  0  0  0
 46 47  1  0  0  0
 46121  1  0  0  0
 46122  1  0  0  0
 47 48  1  0  0  0
 47123  1  0  0  0
 47124  1  0  0  0
 48 49  1  0  0  0
 48125  1  0  0  0
 48126  1  0  0  0
 49 50  1  0  0  0
 49127  1  0  0  0
 50 51  1  0  0  0
 50 52  2  0  0  0
 51128  1  0  0  0
 51129  1  0  0  0
 52130  1  0  0  0
 53 54  1  0  0  0
 53131  1  0  0  0
 54 55  1  0  0  0
 54 57  1  0  0  0
 54132  1  0  0  0
 55 56  2  0  0  0
 55 62  1  0  0  0
 57 58  1  0  0  0
 57133  1  0  0  0
 57134  1  0  0  0
 58 59  1  0  0  0
 58135  1  0  0  0
 58136  1  0  0  0
 59 60  1  0  0  0
 59137  1  0  0  0
 59138  1  0  0  0
 60 61  1  0  0  0
 60139  1  0  0  0
 60140  1  0  0  0
 61141  1  0  0  0
 61142  1  0  0  0
 61143  1  0  0  0
 62 63  1  0  0  0
 62144  1  0  0  0
 63 64  1  0  0  0
 63 66  1  0  0  0
 63145  1  0  0  0
 64 65  2  0  0  0
 64 74  1  0  0  0
 66 67  1  0  0  0
 66146  1  0  0  0
 66147  1  0  0  0
 67 68  2  0  0  0
 67 69  1  0  0  0
 68 70  1  0  0  0
 68148  1  0  0  0
 69 71  2  0  0  0
 69149  1  0  0  0
 70 72  2  0  0  0
 70150  1  0  0  0
 71 72  1  0  0  0
 71151  1  0  0  0
 72 73  1  0  0  0
 73152  1  0  0  0
 74153  1  0  0  0
M  CHG  3  18   1  33   1  61   1
M  END
> <s_m_source_file>
../3m53_ligand.sdf

> <i_m_source_file_index>
1

> <s_epik_input>
Tz1DKFtDSDNdKVtOSF1bQ0BASF0oW0NIMl1bT0hdKUMoPU8pW05IXVtDQEBIXShbQ0gyXVtDSDJdW0NIMl1bQ0gyXVtOSDMrXSlDKD1PKVtOSF1bQ0BASF0oW0NIMl1bT0hdKUMoPU8pW05IXVtDQEBIXShbQ0gyXVtDSDJdW0NIMl1bQ0gyXVtOSDMrXSlDKD1PKVtOSF1bQ0BASF0oW0NIMl1DKD1PKVtPSF0pQyg9TylbTkhdW0NAQEhdKFtDSDJdW0NIMl1bQ0gyXVtOSF0vQyhbTkgyXSk9TlxbSF0pQyg9TylbTkhdW0NAQEhdKFtDSDJdW0NIMl1bQ0gyXVtDSDJdW05IMytdKUMoPU8pW05IXVtDQEhdKEMoPU8pW09IXSlbQ0gyXWMxW2NIXVtjSF1jKFtPSF0pW2NIXVtjSF0x

> <s_epik_cmdline>
J2VwaWtfYXBwJywgJy1pbWFlJywgJ2xpZ2FuZF9wcm8ubWFlJywgJy1vbWFlJywgJ2xpZ2FuZF9wcmVwLm1hZScsICctbXMnLCAnMScsICctcGgnLCAnNycsICctcGh0JywgJzAuNScsICctbnQn

> <s_epik_pKa_notes>
Molecule size exceeds maximum supported for generating protonation states

> <s_epik_Chemistry_Notes>
This compound has an imine and may undergo hydrolysis.

$$$$
