3m54_ligand
                    3D
 Schrodinger Suite 2020-3.
153153  0  0  1  0            999 V2000
  -49.0860    4.1540  -19.4620 C   0  0  0  0  0  0
  -49.7000    3.7380  -18.4670 O   0  0  0  0  0  0
  -49.2460    3.5480  -20.8260 C   0  0  0  0  0  0
  -48.3430    5.2630  -19.4530 N   0  0  0  0  0  0
  -47.5920    5.6870  -18.2670 C   0  0  2  0  0  0
  -48.4920    6.5030  -17.3650 C   0  0  0  0  0  0
  -49.0900    7.4900  -17.7950 O   0  0  0  0  0  0
  -46.3850    6.5200  -18.6880 C   0  0  0  0  0  0
  -45.5110    5.7630  -19.5220 O   0  0  0  0  0  0
  -48.5990    6.1080  -16.1030 N   0  0  0  0  0  0
  -49.4780    6.8150  -15.1950 C   0  0  2  0  0  0
  -48.6980    7.8780  -14.4120 C   0  0  0  0  0  0
  -48.7340    7.9150  -13.1750 O   0  0  0  0  0  0
  -50.1650    5.8480  -14.2280 C   0  0  0  0  0  0
  -51.0120    4.7710  -14.9300 C   0  0  0  0  0  0
  -51.8530    4.0180  -13.9100 C   0  0  0  0  0  0
  -52.6820    2.8870  -14.5480 C   0  0  0  0  0  0
  -53.5810    2.3270  -13.5080 N   0  3  0  0  0  0
  -47.9890    8.7220  -15.1560 N   0  0  0  0  0  0
  -47.1800    9.7820  -14.5470 C   0  0  2  0  0  0
  -47.1340   11.0040  -15.4700 C   0  0  0  0  0  0
  -47.3360   10.8760  -16.6860 O   0  0  0  0  0  0
  -45.7830    9.2570  -14.3090 C   0  0  0  0  0  0
  -45.1850    8.8150  -15.5110 O   0  0  0  0  0  0
  -46.8780   12.1760  -14.8870 N   0  0  0  0  0  0
  -46.7620   13.4150  -15.6620 C   0  0  2  0  0  0
  -45.5250   13.4150  -16.5740 C   0  0  0  0  0  0
  -44.4670   12.8640  -16.2530 O   0  0  0  0  0  0
  -46.6980   14.6110  -14.7150 C   0  0  0  0  0  0
  -47.8300   14.7420  -13.7240 C   0  0  0  0  0  0
  -47.5530   15.7650  -12.6520 C   0  0  0  0  0  0
  -48.6840   15.8830  -11.6720 C   0  0  0  0  0  0
  -48.4130   16.5900  -10.3880 N   0  3  0  0  0  0
  -45.6760   14.0190  -17.7570 N   0  0  0  0  0  0
  -44.5230   14.3820  -18.5800 C   0  0  2  0  0  0
  -43.6670   13.2150  -19.0620 C   0  0  0  0  0  0
  -42.4520   13.3510  -19.1620 O   0  0  0  0  0  0
  -43.6360   15.3760  -17.7990 C   0  0  0  0  0  0
  -42.8250   16.2940  -18.7040 C   0  0  0  0  0  0
  -43.4120   16.8580  -19.6590 O   0  0  0  0  0  0
  -41.6030   16.4690  -18.4700 O   0  0  0  0  0  0
  -44.2700   12.0730  -19.3850 N   0  0  0  0  0  0
  -43.4840   10.9950  -20.0070 C   0  0  2  0  0  0
  -43.2060   11.3210  -21.4780 C   0  0  0  0  0  0
  -44.0360   11.9330  -22.1460 O   0  0  0  0  0  0
  -44.2090    9.6480  -19.9000 C   0  0  0  0  0  0
  -43.5210    8.5070  -20.6810 C   0  0  0  0  0  0
  -42.7320    7.5530  -19.7860 C   0  0  0  0  0  0
  -42.0160    6.5390  -20.5710 N   0  0  0  0  0  0
  -40.6870    6.4400  -20.6480 C   0  0  0  0  0  0
  -39.9140    7.2740  -19.9680 N   0  0  0  0  0  0
  -40.1220    5.4980  -21.3920 N   0  0  0  0  0  0
  -42.0440   10.9280  -21.9860 N   0  0  0  0  0  0
  -41.7420   11.1110  -23.4230 C   0  0  2  0  0  0
  -42.2040    9.9030  -24.2430 C   0  0  0  0  0  0
  -41.7500    8.7770  -24.0150 O   0  0  0  0  0  0
  -40.2460   11.3600  -23.6540 C   0  0  0  0  0  0
  -39.7110   12.5570  -22.8710 C   0  0  0  0  0  0
  -40.7680   13.6630  -22.7940 C   0  0  0  0  0  0
  -40.1870   14.9530  -22.2230 C   0  0  0  0  0  0
  -41.1180   16.1120  -22.4170 N   0  3  0  0  0  0
  -43.1190   10.1450  -25.1790 N   0  0  0  0  0  0
  -43.5870    9.1130  -26.0990 C   0  0  2  0  0  0
  -43.0310    9.4090  -27.4960 C   0  0  0  0  0  0
  -42.8726    8.4922  -28.3458 O   0  0  0  0  0  0
  -45.1220    9.0670  -26.1510 C   0  0  0  0  0  0
  -45.8350    9.0520  -24.8020 C   0  0  0  0  0  0
  -45.8520    7.9030  -24.0060 C   0  0  0  0  0  0
  -46.5230   10.1830  -24.3410 C   0  0  0  0  0  0
  -46.5210    7.8860  -22.7740 C   0  0  0  0  0  0
  -47.1870   10.1790  -23.1180 C   0  0  0  0  0  0
  -47.1810    9.0330  -22.3360 C   0  0  0  0  0  0
  -47.8370    9.0340  -21.1220 O   0  0  0  0  0  0
  -42.7261   10.5929  -27.8010 O   0  0  0  0  0  0
  -49.8668    2.6427  -20.7545 H   0  0  0  0  0  0
  -48.2568    3.2835  -21.2280 H   0  0  0  0  0  0
  -49.7316    4.2737  -21.4950 H   0  0  0  0  0  0
  -48.3046    5.8653  -20.3727 H   0  0  0  0  0  0
  -47.2623    4.7774  -17.7435 H   0  0  0  0  0  0
  -46.7266    7.4052  -19.2446 H   0  0  0  0  0  0
  -45.8308    6.8407  -17.7936 H   0  0  0  0  0  0
  -44.5901    6.2206  -19.9124 H   0  0  0  0  0  0
  -48.0200    5.2434  -15.7464 H   0  0  0  0  0  0
  -50.2290    7.2871  -15.8455 H   0  0  0  0  0  0
  -49.4042    5.3274  -13.6278 H   0  0  0  0  0  0
  -50.8358    6.4104  -13.5619 H   0  0  0  0  0  0
  -51.6778    5.2488  -15.6638 H   0  0  0  0  0  0
  -50.3485    4.0606  -15.4449 H   0  0  0  0  0  0
  -51.1946    3.5688  -13.1519 H   0  0  0  0  0  0
  -52.5504    4.7156  -13.4231 H   0  0  0  0  0  0
  -53.2746    3.2921  -15.3815 H   0  0  0  0  0  0
  -52.0065    2.1048  -14.9246 H   0  0  0  0  0  0
  -54.1838    1.5159  -13.9425 H   0  0  0  0  0  0
  -54.2468    3.1187  -13.1339 H   0  0  0  0  0  0
  -52.9786    1.9314  -12.6770 H   0  0  0  0  0  0
  -48.0183    8.6123  -16.2501 H   0  0  0  0  0  0
  -47.6493   10.0507  -13.5891 H   0  0  0  0  0  0
  -45.1588   10.0560  -13.8825 H   0  0  0  0  0  0
  -45.8240    8.4101  -13.6082 H   0  0  0  0  0  0
  -44.1645    8.4045  -15.4991 H   0  0  0  0  0  0
  -46.7531   12.1970  -13.7943 H   0  0  0  0  0  0
  -47.6697   13.4479  -16.2825 H   0  0  0  0  0  0
  -45.7770   14.5556  -14.1161 H   0  0  0  0  0  0
  -46.6993   15.5425  -15.3001 H   0  0  0  0  0  0
  -48.7455   15.0478  -14.2515 H   0  0  0  0  0  0
  -47.9980   13.7741  -13.2291 H   0  0  0  0  0  0
  -46.6486   15.4775  -12.0957 H   0  0  0  0  0  0
  -47.4001   16.7504  -13.1163 H   0  0  0  0  0  0
  -49.5155   16.4334  -12.1363 H   0  0  0  0  0  0
  -49.0254   14.8780  -11.3833 H   0  0  0  0  0  0
  -49.3261   16.5992   -9.7747 H   0  0  0  0  0  0
  -48.1016   17.6240  -10.5974 H   0  0  0  0  0  0
  -47.6114   16.0685   -9.8444 H   0  0  0  0  0  0
  -46.6943   14.2424  -18.1078 H   0  0  0  0  0  0
  -44.9945   14.8104  -19.4767 H   0  0  0  0  0  0
  -44.2698   16.0113  -17.1629 H   0  0  0  0  0  0
  -42.9269   14.8184  -17.1696 H   0  0  0  0  0  0
  -41.0082   17.1300  -19.1175 H   0  0  0  0  0  0
  -45.3434   11.9300  -19.1920 H   0  0  0  0  0  0
  -42.5422   10.9515  -19.4403 H   0  0  0  0  0  0
  -44.2562    9.3398  -18.8451 H   0  0  0  0  0  0
  -45.2293    9.7480  -20.2987 H   0  0  0  0  0  0
  -44.2818    7.9133  -21.2089 H   0  0  0  0  0  0
  -42.8179    8.9344  -21.4111 H   0  0  0  0  0  0
  -41.9944    8.1234  -19.2024 H   0  0  0  0  0  0
  -43.4218    7.0375  -19.1015 H   0  0  0  0  0  0
  -42.5796    5.7919  -21.1491 H   0  0  0  0  0  0
  -40.3667    8.0606  -19.3464 H   0  0  0  0  0  0
  -40.7496    4.7977  -21.9627 H   0  0  0  0  0  0
  -39.0259    5.4173  -21.4382 H   0  0  0  0  0  0
  -41.3009   10.4608  -21.3230 H   0  0  0  0  0  0
  -42.3129   12.0017  -23.7241 H   0  0  0  0  0  0
  -39.6742   10.4740  -23.3408 H   0  0  0  0  0  0
  -40.0670   11.5531  -24.7220 H   0  0  0  0  0  0
  -39.4499   12.2404  -21.8504 H   0  0  0  0  0  0
  -38.8155   12.9527  -23.3726 H   0  0  0  0  0  0
  -41.1544   13.8718  -23.8025 H   0  0  0  0  0  0
  -41.5941   13.3362  -22.1453 H   0  0  0  0  0  0
  -40.0079   14.8287  -21.1448 H   0  0  0  0  0  0
  -39.2373   15.1826  -22.7284 H   0  0  0  0  0  0
  -40.6653   17.0208  -21.9936 H   0  0  0  0  0  0
  -42.0711   15.9058  -21.9081 H   0  0  0  0  0  0
  -41.3006   16.2597  -23.4916 H   0  0  0  0  0  0
  -43.5243   11.1655  -25.2449 H   0  0  0  0  0  0
  -43.2067    8.1589  -25.7053 H   0  0  0  0  0  0
  -42.4717    8.7293  -29.3423 H   0  0  0  0  0  0
  -45.4974    9.9519  -26.6858 H   0  0  0  0  0  0
  -45.4439    8.1564  -26.6775 H   0  0  0  0  0  0
  -45.3368    7.0057  -24.3487 H   0  0  0  0  0  0
  -46.5382   11.0846  -24.9534 H   0  0  0  0  0  0
  -46.5250    6.9830  -22.1635 H   0  0  0  0  0  0
  -47.7095   11.0723  -22.7759 H   0  0  0  0  0  0
  -47.8370    8.1295  -20.4961 H   0  0  0  0  0  0
  1  2  2  0  0  0
  1  3  1  0  0  0
  1  4  1  0  0  0
  3 75  1  0  0  0
  3 76  1  0  0  0
  3 77  1  0  0  0
  4  5  1  0  0  0
  4 78  1  0  0  0
  5  6  1  0  0  0
  5  8  1  0  0  0
  5 79  1  0  0  0
  6  7  2  0  0  0
  6 10  1  0  0  0
  8  9  1  0  0  0
  8 80  1  0  0  0
  8 81  1  0  0  0
  9 82  1  0  0  0
 10 11  1  0  0  0
 10 83  1  0  0  0
 11 12  1  0  0  0
 11 14  1  0  0  0
 11 84  1  0  0  0
 12 13  2  0  0  0
 12 19  1  0  0  0
 14 15  1  0  0  0
 14 85  1  0  0  0
 14 86  1  0  0  0
 15 16  1  0  0  0
 15 87  1  0  0  0
 15 88  1  0  0  0
 16 17  1  0  0  0
 16 89  1  0  0  0
 16 90  1  0  0  0
 17 18  1  0  0  0
 17 91  1  0  0  0
 17 92  1  0  0  0
 18 93  1  0  0  0
 18 94  1  0  0  0
 18 95  1  0  0  0
 19 20  1  0  0  0
 19 96  1  0  0  0
 20 21  1  0  0  0
 20 23  1  0  0  0
 20 97  1  0  0  0
 21 22  2  0  0  0
 21 25  1  0  0  0
 23 24  1  0  0  0
 23 98  1  0  0  0
 23 99  1  0  0  0
 24100  1  0  0  0
 25 26  1  0  0  0
 25101  1  0  0  0
 26 27  1  0  0  0
 26 29  1  0  0  0
 26102  1  0  0  0
 27 28  2  0  0  0
 27 34  1  0  0  0
 29 30  1  0  0  0
 29103  1  0  0  0
 29104  1  0  0  0
 30 31  1  0  0  0
 30105  1  0  0  0
 30106  1  0  0  0
 31 32  1  0  0  0
 31107  1  0  0  0
 31108  1  0  0  0
 32 33  1  0  0  0
 32109  1  0  0  0
 32110  1  0  0  0
 33111  1  0  0  0
 33112  1  0  0  0
 33113  1  0  0  0
 34 35  1  0  0  0
 34114  1  0  0  0
 35 36  1  0  0  0
 35 38  1  0  0  0
 35115  1  0  0  0
 36 37  2  0  0  0
 36 42  1  0  0  0
 38 39  1  0  0  0
 38116  1  0  0  0
 38117  1  0  0  0
 39 40  2  0  0  0
 39 41  1  0  0  0
 41118  1  0  0  0
 42 43  1  0  0  0
 42119  1  0  0  0
 43 44  1  0  0  0
 43 46  1  0  0  0
 43120  1  0  0  0
 44 45  2  0  0  0
 44 53  1  0  0  0
 46 47  1  0  0  0
 46121  1  0  0  0
 46122  1  0  0  0
 47 48  1  0  0  0
 47123  1  0  0  0
 47124  1  0  0  0
 48 49  1  0  0  0
 48125  1  0  0  0
 48126  1  0  0  0
 49 50  1  0  0  0
 49127  1  0  0  0
 50 51  2  0  0  0
 50 52  1  0  0  0
 51128  1  0  0  0
 52129  1  0  0  0
 52130  1  0  0  0
 53 54  1  0  0  0
 53131  1  0  0  0
 54 55  1  0  0  0
 54 57  1  0  0  0
 54132  1  0  0  0
 55 56  2  0  0  0
 55 62  1  0  0  0
 57 58  1  0  0  0
 57133  1  0  0  0
 57134  1  0  0  0
 58 59  1  0  0  0
 58135  1  0  0  0
 58136  1  0  0  0
 59 60  1  0  0  0
 59137  1  0  0  0
 59138  1  0  0  0
 60 61  1  0  0  0
 60139  1  0  0  0
 60140  1  0  0  0
 61141  1  0  0  0
 61142  1  0  0  0
 61143  1  0  0  0
 62 63  1  0  0  0
 62144  1  0  0  0
 63 64  1  0  0  0
 63 66  1  0  0  0
 63145  1  0  0  0
 64 65  1  0  0  0
 64 74  2  0  0  0
 65146  1  0  0  0
 66 67  1  0  0  0
 66147  1  0  0  0
 66148  1  0  0  0
 67 68  2  0  0  0
 67 69  1  0  0  0
 68 70  1  0  0  0
 68149  1  0  0  0
 69 71  2  0  0  0
 69150  1  0  0  0
 70 72  2  0  0  0
 70151  1  0  0  0
 71 72  1  0  0  0
 71152  1  0  0  0
 72 73  1  0  0  0
 73153  1  0  0  0
M  CHG  3  18   1  33   1  61   1
M  END
> <s_m_source_file>
../3m54_ligand.sdf

> <i_m_source_file_index>
1

> <s_epik_input>
Tz1DKFtDSDNdKVtOSF1bQ0BASF0oW0NIMl1bT0hdKUMoPU8pW05IXVtDQEBIXShbQ0gyXVtDSDJdW0NIMl1bQ0gyXVtOSDMrXSlDKD1PKVtOSF1bQ0BASF0oW0NIMl1bT0hdKUMoPU8pW05IXVtDQEBIXShbQ0gyXVtDSDJdW0NIMl1bQ0gyXVtOSDMrXSlDKD1PKVtOSF1bQ0BASF0oW0NIMl1DKD1PKVtPSF0pQyg9TylbTkhdW0NAQEhdKFtDSDJdW0NIMl1bQ0gyXVtOSF0vQyg9TlxbSF0pW05IMl0pQyg9TylbTkhdW0NAQEhdKFtDSDJdW0NIMl1bQ0gyXVtDSDJdW05IMytdKUMoPU8pW05IXVtDQEhdKEMoPU8pW09IXSlbQ0gyXWMxW2NIXVtjSF1jKFtPSF0pW2NIXVtjSF0x

> <s_epik_cmdline>
J2VwaWtfYXBwJywgJy1pbWFlJywgJ2xpZ2FuZF9wcm8ubWFlJywgJy1vbWFlJywgJ2xpZ2FuZF9wcmVwLm1hZScsICctbXMnLCAnMScsICctcGgnLCAnNycsICctcGh0JywgJzAuNScsICctbnQn

> <s_epik_pKa_notes>
Molecule size exceeds maximum supported for generating protonation states

> <s_epik_Chemistry_Notes>
This compound has an imine and may undergo hydrolysis.

$$$$
