3m55_ligand
                    3D
 Schrodinger Suite 2020-3.
117116  0  0  1  0            999 V2000
   21.1510  -27.4810   -4.3070 C   0  0  0  0  0  0
   20.1760  -27.4360   -3.5540 O   0  0  0  0  0  0
   21.0780  -27.0180   -5.7390 C   0  0  0  0  0  0
   22.3830  -27.6120   -3.8310 N   0  0  0  0  0  0
   22.6070  -28.1280   -2.4880 C   0  0  2  0  0  0
   22.9370  -27.0130   -1.5260 C   0  0  0  0  0  0
   23.5280  -25.9980   -1.8990 O   0  0  0  0  0  0
   23.7270  -29.1390   -2.5170 C   0  0  0  0  0  0
   23.5440  -30.0070   -3.6250 O   0  0  0  0  0  0
   22.5530  -27.1820   -0.2700 N   0  0  0  0  0  0
   22.7780  -26.1070    0.6690 C   0  0  2  0  0  0
   24.0900  -26.2740    1.4380 C   0  0  0  0  0  0
   24.1080  -26.2560    2.6670 O   0  0  0  0  0  0
   21.6070  -25.9630    1.6300 C   0  0  0  0  0  0
   20.2850  -25.7380    0.9160 C   0  0  0  0  0  0
   19.2060  -25.3260    1.8950 C   0  0  0  0  0  0
   17.8570  -25.2390    1.1840 C   0  0  0  0  0  0
   16.8200  -24.8190    2.1680 N   0  3  0  0  0  0
   25.1700  -26.4200    0.6780 N   0  0  0  0  0  0
   26.5170  -26.5970    1.2450 C   0  0  2  0  0  0
   27.5650  -26.0560    0.2750 C   0  0  0  0  0  0
   27.2990  -25.9030   -0.9250 O   0  0  0  0  0  0
   26.7880  -28.0660    1.5170 C   0  0  0  0  0  0
   26.6530  -28.8830    0.3690 O   0  0  0  0  0  0
   28.7620  -25.7890    0.7900 N   0  0  0  0  0  0
   29.8390  -25.2540   -0.0470 C   0  0  1  0  0  0
   30.9620  -24.7290    0.8450 C   0  0  0  0  0  0
   30.5510  -23.6030    1.7690 C   0  0  0  0  0  0
   31.5070  -23.5900    2.9580 C   0  0  0  0  0  0
   31.2390  -22.4180    3.8880 C   0  0  0  0  0  0
   32.2010  -22.3670    5.0010 N   0  3  0  0  0  0
   31.8000  -21.4970    6.1380 C   0  0  0  0  0  0
   30.4340  -26.3130   -0.9350 C   0  0  0  0  0  0
   30.4750  -27.4930   -0.5960 O   0  0  0  0  0  0
   30.8890  -25.8950   -2.1220 N   0  0  0  0  0  0
   31.8470  -26.6970   -2.9000 C   0  0  2  0  0  0
   31.3180  -28.0460   -3.3950 C   0  0  0  0  0  0
   32.0670  -29.0160   -3.4710 O   0  0  0  0  0  0
   33.1130  -26.9230   -2.0490 C   0  0  0  0  0  0
   34.3670  -27.1490   -2.8900 C   0  0  0  0  0  0
   34.6070  -26.3470   -3.8230 O   0  0  0  0  0  0
   35.1180  -28.1180   -2.6260 O   0  5  0  0  0  0
   30.0390  -28.1410   -3.7460 N   0  0  0  0  0  0
   29.5770  -29.3870   -4.3560 C   0  0  2  0  0  0
   30.0120  -29.4620   -5.8320 C   0  0  0  0  0  0
   30.1260  -28.4320   -6.5090 O   0  0  0  0  0  0
   28.0620  -29.5710   -4.2170 C   0  0  0  0  0  0
   27.6420  -30.9990   -4.5850 C   0  0  0  0  0  0
   26.2510  -31.3690   -4.0920 C   0  0  0  0  0  0
   25.9670  -32.7820   -4.3380 N   0  3  0  0  0  0
   30.2740  -30.6700   -6.3230 N   0  0  0  0  0  0
   30.7370  -30.8490   -7.7230 C   0  0  2  0  0  0
   29.6110  -30.6800   -8.7510 C   0  0  0  0  0  0
   28.4804  -31.2024   -8.5602 O   0  0  0  0  0  0
   31.4260  -32.2080   -7.9060 C   0  0  0  0  0  0
   29.8192  -30.0111   -9.7983 O   0  5  0  0  0  0
   20.0245  -26.9386   -6.0454 H   0  0  0  0  0  0
   21.5943  -27.7429   -6.3855 H   0  0  0  0  0  0
   21.5619  -26.0345   -5.8315 H   0  0  0  0  0  0
   23.2388  -27.3269   -4.4605 H   0  0  0  0  0  0
   21.6664  -28.6037   -2.1734 H   0  0  0  0  0  0
   24.6902  -28.6165   -2.6127 H   0  0  0  0  0  0
   23.7178  -29.7233   -1.5850 H   0  0  0  0  0  0
   24.2646  -30.8162   -3.8146 H   0  0  0  0  0  0
   22.0729  -28.1133    0.0649 H   0  0  0  0  0  0
   22.8461  -25.2162    0.0273 H   0  0  0  0  0  0
   21.5124  -26.8785    2.2324 H   0  0  0  0  0  0
   21.7812  -25.1035    2.2940 H   0  0  0  0  0  0
   20.4043  -24.9426    0.1656 H   0  0  0  0  0  0
   19.9743  -26.6683    0.4179 H   0  0  0  0  0  0
   19.1407  -26.0696    2.7030 H   0  0  0  0  0  0
   19.4535  -24.3425    2.3209 H   0  0  0  0  0  0
   17.9183  -24.5014    0.3703 H   0  0  0  0  0  0
   17.5978  -26.2236    0.7676 H   0  0  0  0  0  0
   15.8435  -24.7531    1.6659 H   0  0  0  0  0  0
   17.0857  -23.8358    2.5836 H   0  0  0  0  0  0
   16.7652  -25.5580    2.9809 H   0  0  0  0  0  0
   25.0301  -26.4051   -0.4130 H   0  0  0  0  0  0
   26.5379  -26.0356    2.1907 H   0  0  0  0  0  0
   27.8159  -28.1863    1.8898 H   0  0  0  0  0  0
   26.0786  -28.4361    2.2718 H   0  0  0  0  0  0
   26.8249  -29.9670    0.4421 H   0  0  0  0  0  0
   28.9377  -25.9752    1.8598 H   0  0  0  0  0  0
   29.3701  -24.4720   -0.6622 H   0  0  0  0  0  0
   31.3374  -25.5448    1.4803 H   0  0  0  0  0  0
   31.7805  -24.3467    0.2174 H   0  0  0  0  0  0
   30.6064  -22.6465    1.2286 H   0  0  0  0  0  0
   29.5200  -23.7698    2.1143 H   0  0  0  0  0  0
   31.3893  -24.5201    3.5333 H   0  0  0  0  0  0
   32.5425  -23.5119    2.5951 H   0  0  0  0  0  0
   31.3162  -21.4770    3.3236 H   0  0  0  0  0  0
   30.2279  -22.5097    4.3115 H   0  0  0  0  0  0
   32.3406  -23.3779    5.4116 H   0  0  0  0  0  0
   33.1649  -21.9834    4.6353 H   0  0  0  0  0  0
   32.5791  -21.5255    6.9140 H   0  0  0  0  0  0
   30.8500  -21.8582    6.5587 H   0  0  0  0  0  0
   31.6742  -20.4637    5.7824 H   0  0  0  0  0  0
   30.5327  -24.9309   -2.5140 H   0  0  0  0  0  0
   32.0219  -26.0853   -3.7974 H   0  0  0  0  0  0
   33.2910  -26.0416   -1.4154 H   0  0  0  0  0  0
   32.9739  -27.8097   -1.4131 H   0  0  0  0  0  0
   29.3340  -27.3116   -3.5878 H   0  0  0  0  0  0
   30.0722  -30.1779   -3.7735 H   0  0  0  0  0  0
   27.7626  -29.3737   -3.1771 H   0  0  0  0  0  0
   27.5443  -28.8689   -4.8871 H   0  0  0  0  0  0
   27.6440  -31.1113   -5.6793 H   0  0  0  0  0  0
   28.3496  -31.7151   -4.1417 H   0  0  0  0  0  0
   26.1824  -31.1783   -3.0108 H   0  0  0  0  0  0
   25.5012  -30.7613   -4.6198 H   0  0  0  0  0  0
   24.9575  -33.0221   -3.9728 H   0  0  0  0  0  0
   26.7055  -33.4020   -3.8086 H   0  0  0  0  0  0
   26.0243  -32.9850   -5.4176 H   0  0  0  0  0  0
   30.1419  -31.5461   -5.6711 H   0  0  0  0  0  0
   31.4614  -30.0353   -7.8751 H   0  0  0  0  0  0
   32.2300  -32.3145   -7.1628 H   0  0  0  0  0  0
   31.8519  -32.2698   -8.9183 H   0  0  0  0  0  0
   30.6900  -33.0138   -7.7680 H   0  0  0  0  0  0
  1  2  2  0  0  0
  1  3  1  0  0  0
  1  4  1  0  0  0
  3 57  1  0  0  0
  3 58  1  0  0  0
  3 59  1  0  0  0
  4  5  1  0  0  0
  4 60  1  0  0  0
  5  6  1  0  0  0
  5  8  1  0  0  0
  5 61  1  0  0  0
  6  7  2  0  0  0
  6 10  1  0  0  0
  8  9  1  0  0  0
  8 62  1  0  0  0
  8 63  1  0  0  0
  9 64  1  0  0  0
 10 11  1  0  0  0
 10 65  1  0  0  0
 11 12  1  0  0  0
 11 14  1  0  0  0
 11 66  1  0  0  0
 12 13  2  0  0  0
 12 19  1  0  0  0
 14 15  1  0  0  0
 14 67  1  0  0  0
 14 68  1  0  0  0
 15 16  1  0  0  0
 15 69  1  0  0  0
 15 70  1  0  0  0
 16 17  1  0  0  0
 16 71  1  0  0  0
 16 72  1  0  0  0
 17 18  1  0  0  0
 17 73  1  0  0  0
 17 74  1  0  0  0
 18 75  1  0  0  0
 18 76  1  0  0  0
 18 77  1  0  0  0
 19 20  1  0  0  0
 19 78  1  0  0  0
 20 21  1  0  0  0
 20 23  1  0  0  0
 20 79  1  0  0  0
 21 22  2  0  0  0
 21 25  1  0  0  0
 23 24  1  0  0  0
 23 80  1  0  0  0
 23 81  1  0  0  0
 24 82  1  0  0  0
 25 26  1  0  0  0
 25 83  1  0  0  0
 26 27  1  0  0  0
 26 33  1  0  0  0
 26 84  1  0  0  0
 27 28  1  0  0  0
 27 85  1  0  0  0
 27 86  1  0  0  0
 28 29  1  0  0  0
 28 87  1  0  0  0
 28 88  1  0  0  0
 29 30  1  0  0  0
 29 89  1  0  0  0
 29 90  1  0  0  0
 30 31  1  0  0  0
 30 91  1  0  0  0
 30 92  1  0  0  0
 31 32  1  0  0  0
 31 93  1  0  0  0
 31 94  1  0  0  0
 32 95  1  0  0  0
 32 96  1  0  0  0
 32 97  1  0  0  0
 33 34  2  0  0  0
 33 35  1  0  0  0
 35 36  1  0  0  0
 35 98  1  0  0  0
 36 37  1  0  0  0
 36 39  1  0  0  0
 36 99  1  0  0  0
 37 38  2  0  0  0
 37 43  1  0  0  0
 39 40  1  0  0  0
 39100  1  0  0  0
 39101  1  0  0  0
 40 41  2  0  0  0
 40 42  1  0  0  0
 43 44  1  0  0  0
 43102  1  0  0  0
 44 45  1  0  0  0
 44 47  1  0  0  0
 44103  1  0  0  0
 45 46  2  0  0  0
 45 51  1  0  0  0
 47 48  1  0  0  0
 47104  1  0  0  0
 47105  1  0  0  0
 48 49  1  0  0  0
 48106  1  0  0  0
 48107  1  0  0  0
 49 50  1  0  0  0
 49108  1  0  0  0
 49109  1  0  0  0
 50110  1  0  0  0
 50111  1  0  0  0
 50112  1  0  0  0
 51 52  1  0  0  0
 51113  1  0  0  0
 52 53  1  0  0  0
 52 55  1  0  0  0
 52114  1  0  0  0
 53 54  2  0  0  0
 53 56  1  0  0  0
 55115  1  0  0  0
 55116  1  0  0  0
 55117  1  0  0  0
M  CHG  5  18   1  31   1  42  -1  50   1  56  -1
M  END
> <s_m_source_file>
../3m55_ligand.sdf

> <i_m_source_file_index>
1

> <s_epik_input>
Tz1DKFtDSDNdKVtOSF1bQ0BASF0oW0NIMl1bT0hdKUMoPU8pW05IXVtDQEBIXShbQ0gyXVtDSDJdW0NIMl1bQ0gyXVtOSDMrXSlDKD1PKVtOSF1bQ0BASF0oW0NIMl1bT0hdKUMoPU8pW05IXVtDQEBIXShbQ0gyXVtDSDJdW0NIMl1bQ0gyXVtOSDIrXVtDSDNdKUMoPU8pW05IXVtDQEBIXShbQ0gyXUMoPU8pW09IXSlDKD1PKVtOSF1bQ0BASF0oW0NIMl1bQ0gyXVtDSDJdW05IMytdKUMoPU8pW05IXVtDQEBIXShbQ0gzXSlDKD1PKVtPSF0=

> <s_epik_cmdline>
J2VwaWtfYXBwJywgJy1pbWFlJywgJ2xpZ2FuZF9wcm8ubWFlJywgJy1vbWFlJywgJ2xpZ2FuZF9wcmVwLm1hZScsICctbXMnLCAnMScsICctcGgnLCAnNycsICctcGh0JywgJzAuNScsICctbnQn

> <r_lp_tautomer_probability>
1

> <r_epik_Ionization_Penalty>
  0.0050

> <r_epik_Ionization_Penalty_Charging>
  0.0050

> <r_epik_Ionization_Penalty_Neutral>
  0.0000

> <r_epik_State_Penalty>
 -0.0000

> <r_epik_Charging_Adjusted_Penalty>
0.00501218995976801

> <i_epik_Tot_Q>
1

> <i_epik_Tot_abs_Q>
5

$$$$
