3m56_ligand
                    3D
 Schrodinger Suite 2020-3.
115114  0  0  1  0            999 V2000
   49.5300   -4.3250  -19.9140 C   0  0  0  0  0  0
   49.9320   -3.5320  -19.0590 O   0  0  0  0  0  0
   49.9660   -4.2170  -21.3560 C   0  0  0  0  0  0
   48.3660   -4.9230  -19.7660 N   0  0  0  0  0  0
   47.7660   -4.9920  -18.4450 C   0  0  2  0  0  0
   48.5860   -5.9350  -17.5690 C   0  0  0  0  0  0
   49.0860   -6.9430  -18.0500 O   0  0  0  0  0  0
   46.3170   -5.4590  -18.5560 C   0  0  0  0  0  0
   45.4240   -4.3650  -18.3970 O   0  0  0  0  0  0
   48.7280   -5.6120  -16.2820 N   0  0  0  0  0  0
   49.5420   -6.4370  -15.3970 C   0  0  2  0  0  0
   48.6730   -7.4380  -14.6490 C   0  0  0  0  0  0
   48.6150   -7.4520  -13.4130 O   0  0  0  0  0  0
   50.3550   -5.5820  -14.4270 C   0  0  0  0  0  0
   51.2240   -4.5320  -15.1360 C   0  0  0  0  0  0
   52.1220   -3.8030  -14.1430 C   0  0  0  0  0  0
   52.8390   -2.6260  -14.8160 C   0  0  0  0  0  0
   53.8030   -2.0010  -13.8650 N   0  3  0  0  0  0
   48.0160   -8.2920  -15.4260 N   0  0  0  0  0  0
   47.2150   -9.3810  -14.8640 C   0  0  2  0  0  0
   47.1220  -10.5400  -15.8480 C   0  0  0  0  0  0
   47.3480  -10.3640  -17.0470 O   0  0  0  0  0  0
   45.8350   -8.8810  -14.5370 C   0  0  0  0  0  0
   45.2590   -8.2830  -15.6640 O   0  0  0  0  0  0
   46.8130  -11.7230  -15.3310 N   0  0  0  0  0  0
   46.6850  -12.9280  -16.1540 C   0  0  1  0  0  0
   46.5320  -14.1540  -15.2650 C   0  0  0  0  0  0
   47.7420  -14.5520  -14.4330 C   0  0  0  0  0  0
   47.2860  -15.4430  -13.2770 C   0  0  0  0  0  0
   48.4100  -15.6940  -12.2890 C   0  0  0  0  0  0
   47.9340  -16.5560  -11.1990 N   0  3  0  0  0  0
   47.6490  -17.9400  -11.6570 C   0  0  0  0  0  0
   48.8910  -16.6750  -10.1130 C   0  0  0  0  0  0
   45.4900  -12.8690  -17.0730 C   0  0  0  0  0  0
   44.4770  -12.2380  -16.7840 O   0  0  0  0  0  0
   45.6140  -13.5030  -18.2320 N   0  0  0  0  0  0
   44.4490  -13.8870  -19.0190 C   0  0  2  0  0  0
   43.5600  -12.7220  -19.4980 C   0  0  0  0  0  0
   42.3490  -12.8850  -19.6550 O   0  0  0  0  0  0
   43.6220  -14.9440  -18.2300 C   0  0  0  0  0  0
   42.6450  -15.7350  -19.1140 C   0  0  0  0  0  0
   43.0880  -16.2890  -20.1390 O   0  0  0  0  0  0
   41.4290  -15.7810  -18.7990 O   0  5  0  0  0  0
   44.1200  -11.5430  -19.7550 N   0  0  0  0  0  0
   43.2410  -10.4960  -20.2870 C   0  0  2  0  0  0
   42.8720  -10.7890  -21.7410 C   0  0  0  0  0  0
   43.7186  -11.3221  -22.5069 O   0  5  0  0  0  0
   43.8450   -9.0880  -20.1790 C   0  0  0  0  0  0
   42.8610   -8.0560  -20.7220 C   0  0  0  0  0  0
   43.2360   -6.6180  -20.4430 C   0  0  0  0  0  0
   42.0520   -5.7640  -20.5680 N   0  0  0  0  0  0
   41.9840   -4.4970  -20.1500 C   0  0  0  0  0  0
   43.0400   -3.9120  -19.5830 N   0  0  0  0  0  0
   40.8570   -3.8040  -20.2960 N   0  3  0  0  0  0
   41.7245  -10.4983  -22.1725 O   0  0  0  0  0  0
   50.9409   -3.7101  -21.4073 H   0  0  0  0  0  0
   49.2214   -3.6379  -21.9218 H   0  0  0  0  0  0
   50.0533   -5.2244  -21.7891 H   0  0  0  0  0  0
   47.8485   -5.3674  -20.6290 H   0  0  0  0  0  0
   47.7880   -3.9761  -18.0238 H   0  0  0  0  0  0
   46.1525   -5.9118  -19.5449 H   0  0  0  0  0  0
   46.1107   -6.2035  -17.7729 H   0  0  0  0  0  0
   44.3377   -4.5296  -18.4497 H   0  0  0  0  0  0
   48.2252   -4.7155  -15.8901 H   0  0  0  0  0  0
   50.2341   -6.9772  -16.0597 H   0  0  0  0  0  0
   49.6731   -5.0485  -13.7485 H   0  0  0  0  0  0
   51.0242   -6.2287  -13.8404 H   0  0  0  0  0  0
   51.8579   -5.0269  -15.8865 H   0  0  0  0  0  0
   50.5762   -3.7944  -15.6322 H   0  0  0  0  0  0
   51.5128   -3.4177  -13.3121 H   0  0  0  0  0  0
   52.8774   -4.5002  -13.7513 H   0  0  0  0  0  0
   53.3862   -2.9867  -15.6994 H   0  0  0  0  0  0
   52.0983   -1.8739  -15.1253 H   0  0  0  0  0  0
   54.3108   -1.1590  -14.3581 H   0  0  0  0  0  0
   54.5485   -2.7480  -13.5548 H   0  0  0  0  0  0
   53.2607   -1.6351  -12.9807 H   0  0  0  0  0  0
   48.0845   -8.1658  -16.5166 H   0  0  0  0  0  0
   47.7224   -9.7057  -13.9436 H   0  0  0  0  0  0
   45.2062   -9.7243  -14.2153 H   0  0  0  0  0  0
   45.8961   -8.1393  -13.7270 H   0  0  0  0  0  0
   44.2453   -7.8600  -15.6046 H   0  0  0  0  0  0
   46.6513  -11.7794  -14.2444 H   0  0  0  0  0  0
   47.6070  -12.9567  -16.7533 H   0  0  0  0  0  0
   45.7177  -13.9855  -14.5450 H   0  0  0  0  0  0
   46.2964  -15.0305  -15.8865 H   0  0  0  0  0  0
   48.4558  -15.1021  -15.0638 H   0  0  0  0  0  0
   48.2259  -13.6483  -14.0340 H   0  0  0  0  0  0
   46.4568  -14.9555  -12.7434 H   0  0  0  0  0  0
   46.9481  -16.4123  -13.6723 H   0  0  0  0  0  0
   49.2469  -16.1886  -12.8037 H   0  0  0  0  0  0
   48.7516  -14.7356  -11.8709 H   0  0  0  0  0  0
   47.0279  -16.0501  -10.8343 H   0  0  0  0  0  0
   46.9249  -17.9106  -12.4845 H   0  0  0  0  0  0
   47.2300  -18.5230  -10.8236 H   0  0  0  0  0  0
   48.5811  -18.4113  -12.0020 H   0  0  0  0  0  0
   49.1401  -15.6734   -9.7324 H   0  0  0  0  0  0
   49.8044  -17.1650  -10.4813 H   0  0  0  0  0  0
   48.4533  -17.2767   -9.3029 H   0  0  0  0  0  0
   46.6252  -13.7381  -18.5956 H   0  0  0  0  0  0
   44.9073  -14.2962  -19.9314 H   0  0  0  0  0  0
   44.3046  -15.6679  -17.7609 H   0  0  0  0  0  0
   43.0305  -14.4401  -17.4514 H   0  0  0  0  0  0
   45.1867  -11.3329  -19.5874 H   0  0  0  0  0  0
   42.3539  -10.5501  -19.6388 H   0  0  0  0  0  0
   44.0619   -8.8620  -19.1245 H   0  0  0  0  0  0
   44.7763   -9.0427  -20.7627 H   0  0  0  0  0  0
   42.7872   -8.1592  -21.8147 H   0  0  0  0  0  0
   41.8714   -8.2199  -20.2706 H   0  0  0  0  0  0
   43.6383   -6.5354  -19.4226 H   0  0  0  0  0  0
   43.9985   -6.2911  -21.1653 H   0  0  0  0  0  0
   41.1362   -6.1581  -21.0328 H   0  0  0  0  0  0
   43.9775   -4.4733  -19.4562 H   0  0  0  0  0  0
   42.9734   -2.8683  -19.2421 H   0  0  0  0  0  0
   39.9786   -4.2743  -20.7620 H   0  0  0  0  0  0
   40.8041   -2.7610  -19.9507 H   0  0  0  0  0  0
  1  2  2  0  0  0
  1  3  1  0  0  0
  1  4  1  0  0  0
  3 56  1  0  0  0
  3 57  1  0  0  0
  3 58  1  0  0  0
  4  5  1  0  0  0
  4 59  1  0  0  0
  5  6  1  0  0  0
  5  8  1  0  0  0
  5 60  1  0  0  0
  6  7  2  0  0  0
  6 10  1  0  0  0
  8  9  1  0  0  0
  8 61  1  0  0  0
  8 62  1  0  0  0
  9 63  1  0  0  0
 10 11  1  0  0  0
 10 64  1  0  0  0
 11 12  1  0  0  0
 11 14  1  0  0  0
 11 65  1  0  0  0
 12 13  2  0  0  0
 12 19  1  0  0  0
 14 15  1  0  0  0
 14 66  1  0  0  0
 14 67  1  0  0  0
 15 16  1  0  0  0
 15 68  1  0  0  0
 15 69  1  0  0  0
 16 17  1  0  0  0
 16 70  1  0  0  0
 16 71  1  0  0  0
 17 18  1  0  0  0
 17 72  1  0  0  0
 17 73  1  0  0  0
 18 74  1  0  0  0
 18 75  1  0  0  0
 18 76  1  0  0  0
 19 20  1  0  0  0
 19 77  1  0  0  0
 20 21  1  0  0  0
 20 23  1  0  0  0
 20 78  1  0  0  0
 21 22  2  0  0  0
 21 25  1  0  0  0
 23 24  1  0  0  0
 23 79  1  0  0  0
 23 80  1  0  0  0
 24 81  1  0  0  0
 25 26  1  0  0  0
 25 82  1  0  0  0
 26 27  1  0  0  0
 26 34  1  0  0  0
 26 83  1  0  0  0
 27 28  1  0  0  0
 27 84  1  0  0  0
 27 85  1  0  0  0
 28 29  1  0  0  0
 28 86  1  0  0  0
 28 87  1  0  0  0
 29 30  1  0  0  0
 29 88  1  0  0  0
 29 89  1  0  0  0
 30 31  1  0  0  0
 30 90  1  0  0  0
 30 91  1  0  0  0
 31 32  1  0  0  0
 31 33  1  0  0  0
 31 92  1  0  0  0
 32 93  1  0  0  0
 32 94  1  0  0  0
 32 95  1  0  0  0
 33 96  1  0  0  0
 33 97  1  0  0  0
 33 98  1  0  0  0
 34 35  2  0  0  0
 34 36  1  0  0  0
 36 37  1  0  0  0
 36 99  1  0  0  0
 37 38  1  0  0  0
 37 40  1  0  0  0
 37100  1  0  0  0
 38 39  2  0  0  0
 38 44  1  0  0  0
 40 41  1  0  0  0
 40101  1  0  0  0
 40102  1  0  0  0
 41 42  2  0  0  0
 41 43  1  0  0  0
 44 45  1  0  0  0
 44103  1  0  0  0
 45 46  1  0  0  0
 45 48  1  0  0  0
 45104  1  0  0  0
 46 47  1  0  0  0
 46 55  2  0  0  0
 48 49  1  0  0  0
 48105  1  0  0  0
 48106  1  0  0  0
 49 50  1  0  0  0
 49107  1  0  0  0
 49108  1  0  0  0
 50 51  1  0  0  0
 50109  1  0  0  0
 50110  1  0  0  0
 51 52  1  0  0  0
 51111  1  0  0  0
 52 53  1  0  0  0
 52 54  2  0  0  0
 53112  1  0  0  0
 53113  1  0  0  0
 54114  1  0  0  0
 54115  1  0  0  0
M  CHG  5  18   1  31   1  43  -1  47  -1  54   1
M  END
> <s_m_source_file>
../3m56_ligand.sdf

> <i_m_source_file_index>
1

> <s_epik_input>
Tz1DKFtDSDNdKVtOSF1bQ0BASF0oW0NIMl1bT0hdKUMoPU8pW05IXVtDQEBIXShbQ0gyXVtDSDJdW0NIMl1bQ0gyXVtOSDMrXSlDKD1PKVtOSF1bQ0BASF0oW0NIMl1bT0hdKUMoPU8pW05IXVtDQEBIXShbQ0gyXVtDSDJdW0NIMl1bQ0gyXVtOSCtdKFtDSDNdKVtDSDNdKUMoPU8pW05IXVtDQEBIXShbQ0gyXUMoPU8pW09IXSlDKD1PKVtOSF1bQ0BIXShDKD1PKVtPSF0pW0NIMl1bQ0gyXVtDSDJdW05IXS9DKFtOSDJdKT1OXFtIXQ==

> <s_epik_cmdline>
J2VwaWtfYXBwJywgJy1pbWFlJywgJ2xpZ2FuZF9wcm8ubWFlJywgJy1vbWFlJywgJ2xpZ2FuZF9wcmVwLm1hZScsICctbXMnLCAnMScsICctcGgnLCAnNycsICctcGh0JywgJzAuNScsICctbnQn

> <r_lp_tautomer_probability>
1

> <r_epik_Ionization_Penalty>
  0.0067

> <r_epik_Ionization_Penalty_Charging>
  0.0067

> <r_epik_Ionization_Penalty_Neutral>
  0.0000

> <r_epik_State_Penalty>
 -0.0000

> <r_epik_Charging_Adjusted_Penalty>
0.00668074499719875

> <i_epik_Tot_Q>
1

> <i_epik_Tot_abs_Q>
5

> <s_epik_Chemistry_Notes>
This compound has an imine and may undergo hydrolysis.

$$$$
