3m57_ligand
                    3D
 Schrodinger Suite 2020-3.
153153  0  0  1  0            999 V2000
   21.0480  -27.7650   -4.1720 C   0  0  0  0  0  0
   20.0700  -27.5490   -3.4440 O   0  0  0  0  0  0
   21.0680  -27.3990   -5.6460 C   0  0  0  0  0  0
   22.2570  -28.0150   -3.6570 N   0  0  0  0  0  0
   22.4510  -28.4270   -2.2640 C   0  0  2  0  0  0
   22.7690  -27.2300   -1.3840 C   0  0  0  0  0  0
   23.3340  -26.2530   -1.8440 O   0  0  0  0  0  0
   23.5710  -29.4450   -2.1920 C   0  0  0  0  0  0
   23.0890  -30.7630   -2.4160 O   0  0  0  0  0  0
   22.4180  -27.2890   -0.1060 N   0  0  0  0  0  0
   22.6590  -26.1400    0.7470 C   0  0  2  0  0  0
   23.9860  -26.3360    1.4960 C   0  0  0  0  0  0
   24.0630  -26.2100    2.7250 O   0  0  0  0  0  0
   21.5150  -25.9540    1.7440 C   0  0  0  0  0  0
   20.1340  -25.9200    1.0420 C   0  0  0  0  0  0
   19.0770  -25.2890    1.9570 C   0  0  0  0  0  0
   17.7120  -25.2840    1.2380 C   0  0  0  0  0  0
   16.6680  -25.0030    2.2530 N   0  3  0  0  0  0
   25.0140  -26.6450    0.7230 N   0  0  0  0  0  0
   26.3720  -26.8290    1.2890 C   0  0  2  0  0  0
   27.4050  -26.2770    0.3050 C   0  0  0  0  0  0
   27.1190  -26.1620   -0.8920 O   0  0  0  0  0  0
   26.6280  -28.2940    1.5770 C   0  0  0  0  0  0
   26.5240  -29.1350    0.4230 O   0  0  0  0  0  0
   28.5780  -25.9380    0.8300 N   0  0  0  0  0  0
   29.6920  -25.3910    0.0200 C   0  0  2  0  0  0
   30.3440  -26.4560   -0.8580 C   0  0  0  0  0  0
   30.4130  -27.6650   -0.5150 O   0  0  0  0  0  0
   30.7470  -24.7710    0.9470 C   0  0  0  0  0  0
   30.2830  -23.6480    1.8010 C   0  0  0  0  0  0
   31.2760  -23.2870    2.9210 C   0  0  0  0  0  0
   30.4940  -22.6160    4.0610 C   0  0  0  0  0  0
   31.2640  -21.9780    5.1820 N   0  3  0  0  0  0
   30.8060  -26.0400   -2.0450 N   0  0  0  0  0  0
   31.7330  -26.8730   -2.8080 C   0  0  2  0  0  0
   31.1920  -28.2040   -3.2540 C   0  0  0  0  0  0
   31.9310  -29.1740   -3.3580 O   0  0  0  0  0  0
   33.0350  -27.1050   -1.9870 C   0  0  0  0  0  0
   34.2400  -27.3700   -2.8690 C   0  0  0  0  0  0
   34.4190  -26.6180   -3.8680 O   0  0  0  0  0  0
   35.0210  -28.3050   -2.5720 O   0  0  0  0  0  0
   29.8900  -28.2980   -3.5270 N   0  0  0  0  0  0
   29.4330  -29.5360   -4.1160 C   0  0  2  0  0  0
   29.8360  -29.5450   -5.5880 C   0  0  0  0  0  0
   29.9070  -28.4920   -6.2320 O   0  0  0  0  0  0
   27.9180  -29.6650   -3.9980 C   0  0  0  0  0  0
   27.4250  -30.9860   -4.5390 C   0  0  0  0  0  0
   25.9630  -31.1210   -4.2380 C   0  0  0  0  0  0
   25.3630  -32.3180   -4.8180 N   0  0  0  0  0  0
   24.8990  -32.3890   -6.0690 C   0  0  0  0  0  0
   25.0050  -31.3430   -6.8880 N   0  0  0  0  0  0
   24.3400  -33.5170   -6.5160 N   0  0  0  0  0  0
   30.1320  -30.7090   -6.1380 N   0  0  0  0  0  0
   30.4350  -30.7210   -7.5760 C   0  0  2  0  0  0
   29.1350  -30.9500   -8.3380 C   0  0  0  0  0  0
   28.5410  -32.0310   -8.2550 O   0  0  0  0  0  0
   31.4900  -31.7820   -7.9040 C   0  0  0  0  0  0
   32.7140  -31.6580   -6.9790 C   0  0  0  0  0  0
   33.1310  -30.1720   -6.8050 C   0  0  0  0  0  0
   34.4250  -30.0330   -5.9990 C   0  0  0  0  0  0
   35.2440  -28.8130   -6.3790 N   0  3  0  0  0  0
   28.6760  -29.9210   -9.0490 N   0  0  0  0  0  0
   27.4080  -30.0050   -9.7780 C   0  0  2  0  0  0
   27.6100  -30.5310  -11.1900 C   0  0  0  0  0  0
   28.7673  -30.5494  -11.6879 O   0  0  0  0  0  0
   26.7220  -28.6420   -9.8010 C   0  0  0  0  0  0
   26.3240  -28.1830   -8.4160 C   0  0  0  0  0  0
   25.3720  -28.8930   -7.6720 C   0  0  0  0  0  0
   26.9070  -27.0500   -7.8390 C   0  0  0  0  0  0
   25.0080  -28.4820   -6.3820 C   0  0  0  0  0  0
   26.5510  -26.6340   -6.5620 C   0  0  0  0  0  0
   25.6000  -27.3510   -5.8470 C   0  0  0  0  0  0
   25.2470  -26.9330   -4.5930 O   0  0  0  0  0  0
   26.6259  -30.9461  -11.8585 O   0  0  0  0  0  0
   20.0407  -27.2098   -5.9908 H   0  0  0  0  0  0
   21.5018  -28.2284   -6.2239 H   0  0  0  0  0  0
   21.6760  -26.4938   -5.7908 H   0  0  0  0  0  0
   23.1252  -27.9006   -4.3227 H   0  0  0  0  0  0
   21.5048  -28.8765   -1.9286 H   0  0  0  0  0  0
   24.3258  -29.2145   -2.9583 H   0  0  0  0  0  0
   24.0365  -29.4082   -1.1960 H   0  0  0  0  0  0
   23.7854  -31.6142   -2.3952 H   0  0  0  0  0  0
   21.9498  -28.1937    0.3092 H   0  0  0  0  0  0
   22.7026  -25.2693    0.0762 H   0  0  0  0  0  0
   21.5152  -26.7874    2.4619 H   0  0  0  0  0  0
   21.6497  -25.0050    2.2838 H   0  0  0  0  0  0
   20.2063  -25.3256    0.1192 H   0  0  0  0  0  0
   19.8233  -26.9457    0.7941 H   0  0  0  0  0  0
   19.0002  -25.8733    2.8858 H   0  0  0  0  0  0
   19.3691  -24.2560    2.1967 H   0  0  0  0  0  0
   17.7096  -24.5050    0.4613 H   0  0  0  0  0  0
   17.5388  -26.2658    0.7731 H   0  0  0  0  0  0
   15.6800  -24.9928    1.7696 H   0  0  0  0  0  0
   16.8602  -24.0235    2.7152 H   0  0  0  0  0  0
   16.6895  -25.7843    3.0271 H   0  0  0  0  0  0
   24.8476  -26.7653   -0.3577 H   0  0  0  0  0  0
   26.4240  -26.2794    2.2404 H   0  0  0  0  0  0
   27.6441  -28.4163    1.9803 H   0  0  0  0  0  0
   25.8953  -28.6565    2.3130 H   0  0  0  0  0  0
   26.6904  -30.2184    0.5152 H   0  0  0  0  0  0
   28.7033  -26.0785    1.9138 H   0  0  0  0  0  0
   29.2390  -24.6332   -0.6362 H   0  0  0  0  0  0
   31.1286  -25.5403    1.6344 H   0  0  0  0  0  0
   31.5769  -24.3738    0.3441 H   0  0  0  0  0  0
   30.1409  -22.7505    1.1811 H   0  0  0  0  0  0
   29.3294  -23.9194    2.2774 H   0  0  0  0  0  0
   31.7650  -24.2021    3.2865 H   0  0  0  0  0  0
   32.0369  -22.5966    2.5280 H   0  0  0  0  0  0
   29.8721  -21.8061    3.6519 H   0  0  0  0  0  0
   29.8500  -23.3606    4.5518 H   0  0  0  0  0  0
   30.5615  -21.5465    5.9102 H   0  0  0  0  0  0
   31.9082  -21.1829    4.7784 H   0  0  0  0  0  0
   31.8861  -22.7374    5.6782 H   0  0  0  0  0  0
   30.4845  -25.0669   -2.4446 H   0  0  0  0  0  0
   31.8671  -26.2835   -3.7270 H   0  0  0  0  0  0
   33.2497  -26.2129   -1.3803 H   0  0  0  0  0  0
   32.9019  -27.9744   -1.3263 H   0  0  0  0  0  0
   35.2821  -26.7797   -4.5305 H   0  0  0  0  0  0
   29.1739  -27.4880   -3.3245 H   0  0  0  0  0  0
   29.9161  -30.3473   -3.5518 H   0  0  0  0  0  0
   27.6253  -29.5937   -2.9401 H   0  0  0  0  0  0
   27.4357  -28.8566   -4.5672 H   0  0  0  0  0  0
   27.5845  -31.0192   -5.6269 H   0  0  0  0  0  0
   27.9795  -31.8075   -4.0619 H   0  0  0  0  0  0
   25.8159  -31.1709   -3.1490 H   0  0  0  0  0  0
   25.4237  -30.2512   -4.6413 H   0  0  0  0  0  0
   25.2719  -33.2343   -4.2163 H   0  0  0  0  0  0
   25.4635  -30.4091   -6.5309 H   0  0  0  0  0  0
   24.2472  -34.3867   -5.8489 H   0  0  0  0  0  0
   23.9725  -33.5761   -7.5511 H   0  0  0  0  0  0
   30.1571  -31.6463   -5.5628 H   0  0  0  0  0  0
   30.8555  -29.7403   -7.8431 H   0  0  0  0  0  0
   31.0545  -32.7840   -7.7758 H   0  0  0  0  0  0
   31.8238  -31.6577   -8.9447 H   0  0  0  0  0  0
   32.4702  -32.0743   -5.9904 H   0  0  0  0  0  0
   33.5589  -32.2133   -7.4124 H   0  0  0  0  0  0
   33.2907  -29.7178   -7.7940 H   0  0  0  0  0  0
   32.3353  -29.6274   -6.2756 H   0  0  0  0  0  0
   34.1833  -29.9483   -4.9292 H   0  0  0  0  0  0
   35.0563  -30.9187   -6.1633 H   0  0  0  0  0  0
   36.1549  -28.7766   -5.7634 H   0  0  0  0  0  0
   34.6489  -27.9039   -6.2075 H   0  0  0  0  0  0
   35.5218  -28.8743   -7.4416 H   0  0  0  0  0  0
   29.2692  -28.9952   -9.0821 H   0  0  0  0  0  0
   26.7922  -30.7284   -9.2235 H   0  0  0  0  0  0
   27.4070  -27.8939  -10.2265 H   0  0  0  0  0  0
   25.8129  -28.6994  -10.4177 H   0  0  0  0  0  0
   24.9069  -29.7794   -8.1034 H   0  0  0  0  0  0
   27.6517  -26.4850   -8.3996 H   0  0  0  0  0  0
   24.2704  -29.0443   -5.8094 H   0  0  0  0  0  0
   27.0151  -25.7504   -6.1239 H   0  0  0  0  0  0
   24.4950  -27.4932   -4.0179 H   0  0  0  0  0  0
   26.7758  -31.3260  -12.8799 H   0  0  0  0  0  0
  1  2  2  0  0  0
  1  3  1  0  0  0
  1  4  1  0  0  0
  3 75  1  0  0  0
  3 76  1  0  0  0
  3 77  1  0  0  0
  4  5  1  0  0  0
  4 78  1  0  0  0
  5  6  1  0  0  0
  5  8  1  0  0  0
  5 79  1  0  0  0
  6  7  2  0  0  0
  6 10  1  0  0  0
  8  9  1  0  0  0
  8 80  1  0  0  0
  8 81  1  0  0  0
  9 82  1  0  0  0
 10 11  1  0  0  0
 10 83  1  0  0  0
 11 12  1  0  0  0
 11 14  1  0  0  0
 11 84  1  0  0  0
 12 13  2  0  0  0
 12 19  1  0  0  0
 14 15  1  0  0  0
 14 85  1  0  0  0
 14 86  1  0  0  0
 15 16  1  0  0  0
 15 87  1  0  0  0
 15 88  1  0  0  0
 16 17  1  0  0  0
 16 89  1  0  0  0
 16 90  1  0  0  0
 17 18  1  0  0  0
 17 91  1  0  0  0
 17 92  1  0  0  0
 18 93  1  0  0  0
 18 94  1  0  0  0
 18 95  1  0  0  0
 19 20  1  0  0  0
 19 96  1  0  0  0
 20 21  1  0  0  0
 20 23  1  0  0  0
 20 97  1  0  0  0
 21 22  2  0  0  0
 21 25  1  0  0  0
 23 24  1  0  0  0
 23 98  1  0  0  0
 23 99  1  0  0  0
 24100  1  0  0  0
 25 26  1  0  0  0
 25101  1  0  0  0
 26 27  1  0  0  0
 26 29  1  0  0  0
 26102  1  0  0  0
 27 28  2  0  0  0
 27 34  1  0  0  0
 29 30  1  0  0  0
 29103  1  0  0  0
 29104  1  0  0  0
 30 31  1  0  0  0
 30105  1  0  0  0
 30106  1  0  0  0
 31 32  1  0  0  0
 31107  1  0  0  0
 31108  1  0  0  0
 32 33  1  0  0  0
 32109  1  0  0  0
 32110  1  0  0  0
 33111  1  0  0  0
 33112  1  0  0  0
 33113  1  0  0  0
 34 35  1  0  0  0
 34114  1  0  0  0
 35 36  1  0  0  0
 35 38  1  0  0  0
 35115  1  0  0  0
 36 37  2  0  0  0
 36 42  1  0  0  0
 38 39  1  0  0  0
 38116  1  0  0  0
 38117  1  0  0  0
 39 40  1  0  0  0
 39 41  2  0  0  0
 40118  1  0  0  0
 42 43  1  0  0  0
 42119  1  0  0  0
 43 44  1  0  0  0
 43 46  1  0  0  0
 43120  1  0  0  0
 44 45  2  0  0  0
 44 53  1  0  0  0
 46 47  1  0  0  0
 46121  1  0  0  0
 46122  1  0  0  0
 47 48  1  0  0  0
 47123  1  0  0  0
 47124  1  0  0  0
 48 49  1  0  0  0
 48125  1  0  0  0
 48126  1  0  0  0
 49 50  1  0  0  0
 49127  1  0  0  0
 50 51  2  0  0  0
 50 52  1  0  0  0
 51128  1  0  0  0
 52129  1  0  0  0
 52130  1  0  0  0
 53 54  1  0  0  0
 53131  1  0  0  0
 54 55  1  0  0  0
 54 57  1  0  0  0
 54132  1  0  0  0
 55 56  2  0  0  0
 55 62  1  0  0  0
 57 58  1  0  0  0
 57133  1  0  0  0
 57134  1  0  0  0
 58 59  1  0  0  0
 58135  1  0  0  0
 58136  1  0  0  0
 59 60  1  0  0  0
 59137  1  0  0  0
 59138  1  0  0  0
 60 61  1  0  0  0
 60139  1  0  0  0
 60140  1  0  0  0
 61141  1  0  0  0
 61142  1  0  0  0
 61143  1  0  0  0
 62 63  1  0  0  0
 62144  1  0  0  0
 63 64  1  0  0  0
 63 66  1  0  0  0
 63145  1  0  0  0
 64 65  2  0  0  0
 64 74  1  0  0  0
 66 67  1  0  0  0
 66146  1  0  0  0
 66147  1  0  0  0
 67 68  2  0  0  0
 67 69  1  0  0  0
 68 70  1  0  0  0
 68148  1  0  0  0
 69 71  2  0  0  0
 69149  1  0  0  0
 70 72  2  0  0  0
 70150  1  0  0  0
 71 72  1  0  0  0
 71151  1  0  0  0
 72 73  1  0  0  0
 73152  1  0  0  0
 74153  1  0  0  0
M  CHG  3  18   1  33   1  61   1
M  END
> <s_m_source_file>
../3m57_ligand.sdf

> <i_m_source_file_index>
1

> <s_epik_input>
Tz1DKFtDSDNdKVtOSF1bQ0BASF0oW0NIMl1bT0hdKUMoPU8pW05IXVtDQEBIXShbQ0gyXVtDSDJdW0NIMl1bQ0gyXVtOSDMrXSlDKD1PKVtOSF1bQ0BASF0oW0NIMl1bT0hdKUMoPU8pW05IXVtDQEBIXShbQ0gyXVtDSDJdW0NIMl1bQ0gyXVtOSDMrXSlDKD1PKVtOSF1bQ0BASF0oW0NIMl1DKD1PKVtPSF0pQyg9TylbTkhdW0NAQEhdKFtDSDJdW0NIMl1bQ0gyXVtOSF0vQyg9TlxbSF0pW05IMl0pQyg9TylbTkhdW0NAQEhdKFtDSDJdW0NIMl1bQ0gyXVtDSDJdW05IMytdKUMoPU8pW05IXVtDQEhdKEMoPU8pW09IXSlbQ0gyXWMxW2NIXVtjSF1jKFtPSF0pW2NIXVtjSF0x

> <s_epik_cmdline>
J2VwaWtfYXBwJywgJy1pbWFlJywgJ2xpZ2FuZF9wcm8ubWFlJywgJy1vbWFlJywgJ2xpZ2FuZF9wcmVwLm1hZScsICctbXMnLCAnMScsICctcGgnLCAnNycsICctcGh0JywgJzAuNScsICctbnQn

> <s_epik_pKa_notes>
Molecule size exceeds maximum supported for generating protonation states

> <s_epik_Chemistry_Notes>
This compound has an imine and may undergo hydrolysis.

$$$$
