3m58_ligand
                    3D
 Schrodinger Suite 2020-3.
152152  0  0  1  0            999 V2000
  -33.9720    4.2680    4.3210 C   0  0  0  0  0  0
  -33.4040    3.5870    3.4630 O   0  0  0  0  0  0
  -33.5460    4.4100    5.7570 C   0  0  0  0  0  0
  -34.8390    5.1620    3.9190 N   0  0  0  0  0  0
  -35.3340    4.9710    2.5730 C   0  0  2  0  0  0
  -34.5380    5.8760    1.6650 C   0  0  0  0  0  0
  -34.0780    6.9280    2.0910 O   0  0  0  0  0  0
  -36.8020    5.3350    2.5520 C   0  0  0  0  0  0
  -37.3720    4.9500    3.7960 O   0  0  0  0  0  0
  -34.3840    5.4710    0.4050 N   0  0  0  0  0  0
  -33.5740    6.2500   -0.5240 C   0  0  2  0  0  0
  -34.4400    7.2900   -1.2520 C   0  0  0  0  0  0
  -34.4720    7.3660   -2.4830 O   0  0  0  0  0  0
  -32.8130    5.3370   -1.5030 C   0  0  0  0  0  0
  -31.7190    4.4660   -0.8300 C   0  0  0  0  0  0
  -30.8150    3.8210   -1.8790 C   0  0  0  0  0  0
  -29.9350    2.7610   -1.2250 C   0  0  0  0  0  0
  -30.8220    1.7770   -0.5420 N   0  3  0  0  0  0
  -35.1230    8.1010   -0.4570 N   0  0  0  0  0  0
  -36.0140    9.1420   -0.9850 C   0  0  2  0  0  0
  -36.1300   10.2490    0.0370 C   0  0  0  0  0  0
  -35.9200   10.0300    1.2310 O   0  0  0  0  0  0
  -37.4050    8.5920   -1.3190 C   0  0  0  0  0  0
  -38.0790    8.0490   -0.1960 O   0  0  0  0  0  0
  -36.4700   11.4380   -0.4310 N   0  0  0  0  0  0
  -36.5410   12.6000    0.4150 C   0  0  1  0  0  0
  -36.5730   13.8790   -0.4300 C   0  0  0  0  0  0
  -35.3330   14.0510   -1.2930 C   0  0  0  0  0  0
  -35.7180   15.2320   -2.1820 C   0  0  0  0  0  0
  -35.0740   15.2240   -3.5380 C   0  0  0  0  0  0
  -35.6580   16.2600   -4.4210 N   0  3  0  0  0  0
  -34.5930   16.6520   -5.3490 C   0  0  0  0  0  0
  -37.8170   12.6610    1.2170 C   0  0  0  0  0  0
  -38.8710   12.2000    0.7810 O   0  0  0  0  0  0
  -37.7270   13.2590    2.4050 N   0  0  0  0  0  0
  -38.9240   13.7560    3.1180 C   0  0  2  0  0  0
  -39.8800   12.6700    3.5750 C   0  0  0  0  0  0
  -41.0800   12.9080    3.6700 O   0  0  0  0  0  0
  -39.6700   14.7790    2.2310 C   0  0  0  0  0  0
  -40.5370   15.7620    3.0280 C   0  0  0  0  0  0
  -40.0310   16.3750    3.9910 O   0  0  0  0  0  0
  -41.7240   15.9700    2.6500 O   0  0  0  0  0  0
  -39.3690   11.4710    3.8610 N   0  0  0  0  0  0
  -40.2400   10.4470    4.4310 C   0  0  2  0  0  0
  -40.5010   10.7600    5.9020 C   0  0  0  0  0  0
  -39.6310   11.2850    6.5930 O   0  0  0  0  0  0
  -39.6360    9.0400    4.2710 C   0  0  0  0  0  0
  -40.6210    7.9540    4.6220 C   0  0  0  0  0  0
  -40.1000    6.5900    4.2540 C   0  0  0  0  0  0
  -41.0910    5.5600    4.5570 N   0  3  0  0  0  0
  -41.7010   10.4580    6.3860 N   0  0  0  0  0  0
  -41.9160   10.5710    7.8280 C   0  0  2  0  0  0
  -41.3770    9.3170    8.5130 C   0  0  0  0  0  0
  -41.7830    8.1910    8.1970 O   0  0  0  0  0  0
  -43.3840   10.8360    8.1800 C   0  0  0  0  0  0
  -43.5700   11.4460    9.5830 C   0  0  0  0  0  0
  -44.7140   12.4710    9.6260 C   0  0  0  0  0  0
  -44.9210   13.0610   11.0370 C   0  0  0  0  0  0
  -45.8010   14.2670   11.0490 N   0  3  0  0  0  0
  -40.4100    9.5100    9.3970 N   0  0  0  0  0  0
  -39.8100    8.4090   10.1400 C   0  0  2  0  0  0
  -40.3960    8.3810   11.5470 C   0  0  0  0  0  0
  -40.9022    9.4262   12.0358 O   0  0  0  0  0  0
  -38.2950    8.5890   10.2050 C   0  0  0  0  0  0
  -37.6310    8.4620    8.8550 C   0  0  0  0  0  0
  -37.5740    7.2320    8.2130 C   0  0  0  0  0  0
  -37.0630    9.5660    8.2180 C   0  0  0  0  0  0
  -36.9830    7.0940    6.9740 C   0  0  0  0  0  0
  -36.4610    9.4360    6.9630 C   0  0  0  0  0  0
  -36.4300    8.1940    6.3560 C   0  0  0  0  0  0
  -35.8570    8.0170    5.1240 O   0  0  0  0  0  0
  -40.3742    7.3156   12.2193 O   0  0  0  0  0  0
  -32.8209    3.6206    6.0041 H   0  0  0  0  0  0
  -34.4255    4.3179    6.4112 H   0  0  0  0  0  0
  -33.0801    5.3953    5.9055 H   0  0  0  0  0  0
  -35.1953    6.0111    4.5207 H   0  0  0  0  0  0
  -35.2066    3.9204    2.2729 H   0  0  0  0  0  0
  -36.9086    6.4201    2.4066 H   0  0  0  0  0  0
  -37.2997    4.8039    1.7272 H   0  0  0  0  0  0
  -38.4402    5.1270    3.9898 H   0  0  0  0  0  0
  -34.8711    4.5446    0.0667 H   0  0  0  0  0  0
  -32.8375    6.7748    0.1022 H   0  0  0  0  0  0
  -33.5213    4.6507   -1.9902 H   0  0  0  0  0  0
  -32.3148    5.9525   -2.2665 H   0  0  0  0  0  0
  -31.1031    5.0956   -0.1710 H   0  0  0  0  0  0
  -32.1960    3.6716   -0.2373 H   0  0  0  0  0  0
  -31.4340    3.3493   -2.6564 H   0  0  0  0  0  0
  -30.1763    4.5911   -2.3361 H   0  0  0  0  0  0
  -29.3338    2.2569   -1.9960 H   0  0  0  0  0  0
  -29.2669    3.2393   -0.4937 H   0  0  0  0  0  0
  -30.2076    1.0011   -0.0619 H   0  0  0  0  0  0
  -31.4899    1.3107   -1.2812 H   0  0  0  0  0  0
  -31.4230    2.2931    0.2212 H   0  0  0  0  0  0
  -35.0065    7.9760    0.6297 H   0  0  0  0  0  0
  -35.5456    9.5101   -1.9097 H   0  0  0  0  0  0
  -38.0321    9.4010   -1.7219 H   0  0  0  0  0  0
  -37.3128    7.7919   -2.0682 H   0  0  0  0  0  0
  -39.0867    7.6235   -0.3121 H   0  0  0  0  0  0
  -36.7024   11.5230   -1.5028 H   0  0  0  0  0  0
  -35.6538   12.4723    1.0526 H   0  0  0  0  0  0
  -37.4455   13.8545   -1.0994 H   0  0  0  0  0  0
  -36.6435   14.7544    0.2323 H   0  0  0  0  0  0
  -34.4656   14.2627   -0.6505 H   0  0  0  0  0  0
  -35.1512   13.1273   -1.8619 H   0  0  0  0  0  0
  -36.8060   15.2297   -2.3438 H   0  0  0  0  0  0
  -35.4222   16.1714   -1.6922 H   0  0  0  0  0  0
  -33.9970   15.4217   -3.4336 H   0  0  0  0  0  0
  -35.2223   14.2409   -4.0086 H   0  0  0  0  0  0
  -36.5188   15.8388   -4.9610 H   0  0  0  0  0  0
  -35.9890   17.1153   -3.8137 H   0  0  0  0  0  0
  -34.9703   17.4249   -6.0347 H   0  0  0  0  0  0
  -34.2697   15.7743   -5.9279 H   0  0  0  0  0  0
  -33.7399   17.0509   -4.7806 H   0  0  0  0  0  0
  -36.7300   13.3788    2.8541 H   0  0  0  0  0  0
  -38.5183   14.2059    4.0362 H   0  0  0  0  0  0
  -38.9393   15.3716    1.6610 H   0  0  0  0  0  0
  -40.3329   14.2454    1.5340 H   0  0  0  0  0  0
  -42.3636   16.6708    3.2065 H   0  0  0  0  0  0
  -38.3082   11.2485    3.6734 H   0  0  0  0  0  0
  -41.1778   10.5011    3.8586 H   0  0  0  0  0  0
  -39.3222    8.8922    3.2271 H   0  0  0  0  0  0
  -38.7642    8.9377    4.9339 H   0  0  0  0  0  0
  -40.8144    7.9704    5.7047 H   0  0  0  0  0  0
  -41.5624    8.1233    4.0788 H   0  0  0  0  0  0
  -39.8752    6.5615    3.1776 H   0  0  0  0  0  0
  -39.1837    6.3810    4.8256 H   0  0  0  0  0  0
  -40.6905    4.5734    4.2809 H   0  0  0  0  0  0
  -42.0100    5.7559    3.9851 H   0  0  0  0  0  0
  -41.3185    5.5754    5.6331 H   0  0  0  0  0  0
  -42.5220   10.1299    5.7316 H   0  0  0  0  0  0
  -41.3444   11.4532    8.1522 H   0  0  0  0  0  0
  -43.8145   11.5391    7.4518 H   0  0  0  0  0  0
  -43.9444    9.8899    8.1516 H   0  0  0  0  0  0
  -43.8014   10.6468   10.3025 H   0  0  0  0  0  0
  -42.6440   11.9561    9.8868 H   0  0  0  0  0  0
  -44.4887   13.3009    8.9401 H   0  0  0  0  0  0
  -45.6525   11.9862    9.3191 H   0  0  0  0  0  0
  -45.3865   12.3046   11.6860 H   0  0  0  0  0  0
  -43.9483   13.3563   11.4573 H   0  0  0  0  0  0
  -45.9055   14.6343   12.0806 H   0  0  0  0  0  0
  -46.7920   14.0017   10.6520 H   0  0  0  0  0  0
  -45.3538   15.0534   10.4233 H   0  0  0  0  0  0
  -40.0613   10.5400    9.5628 H   0  0  0  0  0  0
  -40.0535    7.4818    9.6005 H   0  0  0  0  0  0
  -41.3259    9.4094   13.0508 H   0  0  0  0  0  0
  -38.0612    9.5882   10.6012 H   0  0  0  0  0  0
  -37.8626    7.8225   10.8649 H   0  0  0  0  0  0
  -38.0055    6.3566    8.6984 H   0  0  0  0  0  0
  -37.0890   10.5410    8.7046 H   0  0  0  0  0  0
  -36.9538    6.1195    6.4866 H   0  0  0  0  0  0
  -36.0216   10.3027    6.4692 H   0  0  0  0  0  0
  -35.8446    7.0191    4.6614 H   0  0  0  0  0  0
  1  2  2  0  0  0
  1  3  1  0  0  0
  1  4  1  0  0  0
  3 73  1  0  0  0
  3 74  1  0  0  0
  3 75  1  0  0  0
  4  5  1  0  0  0
  4 76  1  0  0  0
  5  6  1  0  0  0
  5  8  1  0  0  0
  5 77  1  0  0  0
  6  7  2  0  0  0
  6 10  1  0  0  0
  8  9  1  0  0  0
  8 78  1  0  0  0
  8 79  1  0  0  0
  9 80  1  0  0  0
 10 11  1  0  0  0
 10 81  1  0  0  0
 11 12  1  0  0  0
 11 14  1  0  0  0
 11 82  1  0  0  0
 12 13  2  0  0  0
 12 19  1  0  0  0
 14 15  1  0  0  0
 14 83  1  0  0  0
 14 84  1  0  0  0
 15 16  1  0  0  0
 15 85  1  0  0  0
 15 86  1  0  0  0
 16 17  1  0  0  0
 16 87  1  0  0  0
 16 88  1  0  0  0
 17 18  1  0  0  0
 17 89  1  0  0  0
 17 90  1  0  0  0
 18 91  1  0  0  0
 18 92  1  0  0  0
 18 93  1  0  0  0
 19 20  1  0  0  0
 19 94  1  0  0  0
 20 21  1  0  0  0
 20 23  1  0  0  0
 20 95  1  0  0  0
 21 22  2  0  0  0
 21 25  1  0  0  0
 23 24  1  0  0  0
 23 96  1  0  0  0
 23 97  1  0  0  0
 24 98  1  0  0  0
 25 26  1  0  0  0
 25 99  1  0  0  0
 26 27  1  0  0  0
 26 33  1  0  0  0
 26100  1  0  0  0
 27 28  1  0  0  0
 27101  1  0  0  0
 27102  1  0  0  0
 28 29  1  0  0  0
 28103  1  0  0  0
 28104  1  0  0  0
 29 30  1  0  0  0
 29105  1  0  0  0
 29106  1  0  0  0
 30 31  1  0  0  0
 30107  1  0  0  0
 30108  1  0  0  0
 31 32  1  0  0  0
 31109  1  0  0  0
 31110  1  0  0  0
 32111  1  0  0  0
 32112  1  0  0  0
 32113  1  0  0  0
 33 34  2  0  0  0
 33 35  1  0  0  0
 35 36  1  0  0  0
 35114  1  0  0  0
 36 37  1  0  0  0
 36 39  1  0  0  0
 36115  1  0  0  0
 37 38  2  0  0  0
 37 43  1  0  0  0
 39 40  1  0  0  0
 39116  1  0  0  0
 39117  1  0  0  0
 40 41  2  0  0  0
 40 42  1  0  0  0
 42118  1  0  0  0
 43 44  1  0  0  0
 43119  1  0  0  0
 44 45  1  0  0  0
 44 47  1  0  0  0
 44120  1  0  0  0
 45 46  2  0  0  0
 45 51  1  0  0  0
 47 48  1  0  0  0
 47121  1  0  0  0
 47122  1  0  0  0
 48 49  1  0  0  0
 48123  1  0  0  0
 48124  1  0  0  0
 49 50  1  0  0  0
 49125  1  0  0  0
 49126  1  0  0  0
 50127  1  0  0  0
 50128  1  0  0  0
 50129  1  0  0  0
 51 52  1  0  0  0
 51130  1  0  0  0
 52 53  1  0  0  0
 52 55  1  0  0  0
 52131  1  0  0  0
 53 54  2  0  0  0
 53 60  1  0  0  0
 55 56  1  0  0  0
 55132  1  0  0  0
 55133  1  0  0  0
 56 57  1  0  0  0
 56134  1  0  0  0
 56135  1  0  0  0
 57 58  1  0  0  0
 57136  1  0  0  0
 57137  1  0  0  0
 58 59  1  0  0  0
 58138  1  0  0  0
 58139  1  0  0  0
 59140  1  0  0  0
 59141  1  0  0  0
 59142  1  0  0  0
 60 61  1  0  0  0
 60143  1  0  0  0
 61 62  1  0  0  0
 61 64  1  0  0  0
 61144  1  0  0  0
 62 63  1  0  0  0
 62 72  2  0  0  0
 63145  1  0  0  0
 64 65  1  0  0  0
 64146  1  0  0  0
 64147  1  0  0  0
 65 66  2  0  0  0
 65 67  1  0  0  0
 66 68  1  0  0  0
 66148  1  0  0  0
 67 69  2  0  0  0
 67149  1  0  0  0
 68 70  2  0  0  0
 68150  1  0  0  0
 69 70  1  0  0  0
 69151  1  0  0  0
 70 71  1  0  0  0
 71152  1  0  0  0
M  CHG  4  18   1  31   1  50   1  59   1
M  END
> <s_m_source_file>
../3m58_ligand.sdf

> <i_m_source_file_index>
1

> <s_epik_input>
Tz1DKFtDSDNdKVtOSF1bQ0BASF0oW0NIMl1bT0hdKUMoPU8pW05IXVtDQEBIXShbQ0gyXVtDSDJdW0NIMl1bQ0gyXVtOSDMrXSlDKD1PKVtOSF1bQ0BASF0oW0NIMl1bT0hdKUMoPU8pW05IXVtDQEBIXShbQ0gyXVtDSDJdW0NIMl1bQ0gyXVtOSDIrXVtDSDNdKUMoPU8pW05IXVtDQEBIXShbQ0gyXUMoPU8pW09IXSlDKD1PKVtOSF1bQ0BASF0oW0NIMl1bQ0gyXVtDSDJdW05IMytdKUMoPU8pW05IXVtDQEBIXShbQ0gyXVtDSDJdW0NIMl1bQ0gyXVtOSDMrXSlDKD1PKVtOSF1bQ0BIXShDKD1PKVtPSF0pW0NIMl1jMVtjSF1bY0hdYyhbT0hdKVtjSF1bY0hdMQ==

> <s_epik_cmdline>
J2VwaWtfYXBwJywgJy1pbWFlJywgJ2xpZ2FuZF9wcm8ubWFlJywgJy1vbWFlJywgJ2xpZ2FuZF9wcmVwLm1hZScsICctbXMnLCAnMScsICctcGgnLCAnNycsICctcGh0JywgJzAuNScsICctbnQn

> <s_epik_pKa_notes>
Molecule size exceeds maximum supported for generating protonation states

$$$$
