3m59_ligand
                    3D
 Schrodinger Suite 2020-3.
146146  0  0  1  0            999 V2000
   28.3640  -40.2350   20.3670 C   0  0  0  0  0  0
   28.1770  -41.1920   19.5890 O   0  0  0  0  0  0
   28.4260  -40.4040   21.8700 C   0  0  0  0  0  0
   28.7350  -39.0160   19.9230 N   0  0  0  0  0  0
   28.5010  -38.6490   18.5240 C   0  0  2  0  0  0
   29.6710  -38.9820   17.6040 C   0  0  0  0  0  0
   30.8210  -38.9330   18.0080 O   0  0  0  0  0  0
   28.1190  -37.1820   18.4140 C   0  0  0  0  0  0
   26.7290  -37.0320   18.6940 O   0  0  0  0  0  0
   29.3760  -39.2970   16.3460 N   0  0  0  0  0  0
   30.4260  -39.6540   15.4070 C   0  0  2  0  0  0
   30.9100  -38.4080   14.6290 C   0  0  0  0  0  0
   31.0330  -38.4160   13.4010 O   0  0  0  0  0  0
   29.9550  -40.7480   14.4390 C   0  0  0  0  0  0
   29.3430  -41.9760   15.1500 C   0  0  0  0  0  0
   29.2130  -43.1480   14.1770 C   0  0  0  0  0  0
   28.9060  -44.4720   14.9020 C   0  0  0  0  0  0
   27.7310  -44.3180   15.7960 N   0  3  0  0  0  0
   31.2230  -37.3670   15.3860 N   0  0  0  0  0  0
   31.7510  -36.1230   14.8130 C   0  0  2  0  0  0
   32.7160  -35.4760   15.8250 C   0  0  0  0  0  0
   32.6710  -35.7760   17.0320 O   0  0  0  0  0  0
   30.6210  -35.1810   14.4620 C   0  0  0  0  0  0
   29.8510  -34.8090   15.6100 O   0  0  0  0  0  0
   33.6130  -34.6450   15.3170 N   0  0  0  0  0  0
   34.6260  -33.9730   16.1510 C   0  0  1  0  0  0
   35.7220  -33.4040   15.2640 C   0  0  0  0  0  0
   36.4590  -34.4420   14.4240 C   0  0  0  0  0  0
   37.5510  -33.8310   13.5400 C   0  0  0  0  0  0
   36.9600  -33.3430   12.2430 C   0  0  0  0  0  0
   37.9600  -32.9030   11.2560 N   0  3  0  0  0  0
   37.2180  -32.1520   10.2100 C   0  0  0  0  0  0
   38.7580  -33.9390   10.6070 C   0  0  0  0  0  0
   34.0600  -32.8440   16.9640 C   0  0  0  0  0  0
   33.0850  -32.1780   16.5760 O   0  0  0  0  0  0
   34.6500  -32.6230   18.1420 N   0  0  0  0  0  0
   34.4500  -31.3550   18.8610 C   0  0  2  0  0  0
   33.0220  -31.1260   19.3300 C   0  0  0  0  0  0
   32.5860  -29.9810   19.4340 O   0  0  0  0  0  0
   34.9180  -30.1570   17.9760 C   0  0  0  0  0  0
   35.3470  -28.9360   18.8030 C   0  0  0  0  0  0
   36.0680  -29.1150   19.8070 O   0  0  0  0  0  0
   34.9690  -27.7930   18.4530 O   0  5  0  0  0  0
   32.2710  -32.1890   19.6470 N   0  0  0  0  0  0
   30.9590  -31.9710   20.2370 C   0  0  2  0  0  0
   31.1440  -31.5630   21.6930 C   0  0  0  0  0  0
   32.0730  -32.0180   22.3540 O   0  0  0  0  0  0
   30.0520  -33.2150   20.1440 C   0  0  0  0  0  0
   28.6080  -32.8800   20.5020 C   0  0  0  0  0  0
   27.6280  -34.0220   20.2260 C   0  0  0  0  0  0
   26.2400  -33.5430   20.2930 N   0  0  0  0  0  0
   25.1830  -34.2070   19.8100 C   0  0  0  0  0  0
   25.3460  -35.3880   19.2060 N   0  0  0  0  0  0
   23.9550  -33.6940   19.9230 N   0  3  0  0  0  0
   30.2840  -30.6770   22.1770 N   0  0  0  0  0  0
   30.2960  -30.3030   23.5960 C   0  0  2  0  0  0
   29.4950  -31.3620   24.3620 C   0  0  0  0  0  0
   28.2690  -31.4080   24.2410 O   0  0  0  0  0  0
   29.6640  -28.9200   23.7910 C   0  0  0  0  0  0
   30.1830  -32.2330   25.1010 N   0  0  0  0  0  0
   29.5070  -33.2140   25.9580 C   0  0  2  0  0  0
   29.3680  -32.6690   27.3810 C   0  0  0  0  0  0
   29.0607  -31.4643   27.5855 O   0  5  0  0  0  0
   30.2530  -34.5590   25.9780 C   0  0  0  0  0  0
   30.4270  -35.1870   24.6140 C   0  0  0  0  0  0
   29.3330  -35.7370   23.9310 C   0  0  0  0  0  0
   31.6840  -35.2310   24.0030 C   0  0  0  0  0  0
   29.4910  -36.3130   22.6770 C   0  0  0  0  0  0
   31.8510  -35.8000   22.7540 C   0  0  0  0  0  0
   30.7540  -36.3340   22.0970 C   0  0  0  0  0  0
   30.9230  -36.8870   20.8660 O   0  0  0  0  0  0
   29.5635  -33.4355   28.3617 O   0  0  0  0  0  0
   28.1080  -41.4224   22.1379 H   0  0  0  0  0  0
   27.7578  -39.6732   22.3490 H   0  0  0  0  0  0
   29.4573  -40.2392   22.2153 H   0  0  0  0  0  0
   29.2116  -38.2988   20.6074 H   0  0  0  0  0  0
   27.6557  -39.2834   18.2188 H   0  0  0  0  0  0
   28.7047  -36.5954   19.1371 H   0  0  0  0  0  0
   28.3292  -36.8237   17.3954 H   0  0  0  0  0  0
   26.2662  -36.0346   18.6630 H   0  0  0  0  0  0
   28.3259  -39.2856   16.0186 H   0  0  0  0  0  0
   31.2355  -40.0513   16.0370 H   0  0  0  0  0  0
   29.1857  -40.3377   13.7683 H   0  0  0  0  0  0
   30.8089  -41.1032   13.8435 H   0  0  0  0  0  0
   29.9912  -42.2761   15.9865 H   0  0  0  0  0  0
   28.3450  -41.7178   15.5339 H   0  0  0  0  0  0
   28.3954  -42.9477   13.4689 H   0  0  0  0  0  0
   30.1555  -43.2713   13.6234 H   0  0  0  0  0  0
   28.6890  -45.2546   14.1600 H   0  0  0  0  0  0
   29.7761  -44.7700   15.5054 H   0  0  0  0  0  0
   27.5287  -45.2728   16.3034 H   0  0  0  0  0  0
   26.8533  -44.0259   15.2008 H   0  0  0  0  0  0
   27.9404  -43.5412   16.5462 H   0  0  0  0  0  0
   31.0772  -37.4535   16.4729 H   0  0  0  0  0  0
   32.2743  -36.3835   13.8812 H   0  0  0  0  0  0
   31.0333  -34.2642   14.0154 H   0  0  0  0  0  0
   29.9473  -35.6687   13.7421 H   0  0  0  0  0  0
   28.9955  -34.1263   15.5008 H   0  0  0  0  0  0
   33.5847  -34.4629   14.2325 H   0  0  0  0  0  0
   34.9917  -34.7499   16.8385 H   0  0  0  0  0  0
   35.2860  -32.6768   14.5632 H   0  0  0  0  0  0
   36.4768  -32.9040   15.8888 H   0  0  0  0  0  0
   36.9385  -35.1770   15.0872 H   0  0  0  0  0  0
   35.7436  -34.9551   13.7645 H   0  0  0  0  0  0
   38.0158  -32.9833   14.0647 H   0  0  0  0  0  0
   38.3154  -34.5916   13.3230 H   0  0  0  0  0  0
   36.3792  -34.1527   11.7771 H   0  0  0  0  0  0
   36.3002  -32.4853   12.4404 H   0  0  0  0  0  0
   38.7098  -32.3272   11.8183 H   0  0  0  0  0  0
   36.6109  -31.3665   10.6837 H   0  0  0  0  0  0
   36.5608  -32.8417    9.6601 H   0  0  0  0  0  0
   37.9331  -31.6920    9.5121 H   0  0  0  0  0  0
   39.3141  -34.5047   11.3691 H   0  0  0  0  0  0
   39.4667  -33.4716    9.9075 H   0  0  0  0  0  0
   38.0944  -34.6213   10.0555 H   0  0  0  0  0  0
   35.2925  -33.4046   18.5736 H   0  0  0  0  0  0
   35.0579  -31.4822   19.7689 H   0  0  0  0  0  0
   35.7783  -30.4669   17.3646 H   0  0  0  0  0  0
   34.0943  -29.8436   17.3178 H   0  0  0  0  0  0
   32.6305  -33.2132   19.4685 H   0  0  0  0  0  0
   30.5064  -31.1625   19.6441 H   0  0  0  0  0  0
   30.0742  -33.6090   19.1172 H   0  0  0  0  0  0
   30.4141  -33.9857   20.8404 H   0  0  0  0  0  0
   28.5417  -32.6421   21.5739 H   0  0  0  0  0  0
   28.2759  -32.0125   19.9127 H   0  0  0  0  0  0
   27.8149  -34.4310   19.2221 H   0  0  0  0  0  0
   27.7673  -34.8142   20.9764 H   0  0  0  0  0  0
   26.0142  -32.5757   20.7656 H   0  0  0  0  0  0
   26.3524  -35.8208   19.1068 H   0  0  0  0  0  0
   24.4737  -35.9273   18.8080 H   0  0  0  0  0  0
   23.8081  -32.7227   20.4181 H   0  0  0  0  0  0
   29.5527  -30.2202   21.4940 H   0  0  0  0  0  0
   31.3440  -30.2667   23.9282 H   0  0  0  0  0  0
   30.2468  -28.1692   23.2373 H   0  0  0  0  0  0
   29.6612  -28.6658   24.8612 H   0  0  0  0  0  0
   28.6306  -28.9327   23.4144 H   0  0  0  0  0  0
   31.2818  -32.2049   25.0581 H   0  0  0  0  0  0
   28.5146  -33.3540   25.5047 H   0  0  0  0  0  0
   31.2589  -34.4141   26.3989 H   0  0  0  0  0  0
   29.6964  -35.2778   26.5973 H   0  0  0  0  0  0
   28.3449  -35.7122   24.3904 H   0  0  0  0  0  0
   32.5463  -34.8098   24.5198 H   0  0  0  0  0  0
   28.6361  -36.7427   22.1548 H   0  0  0  0  0  0
   32.8370  -35.8283   22.2902 H   0  0  0  0  0  0
   30.0616  -37.3148   20.3323 H   0  0  0  0  0  0
   23.0906  -34.2428   19.5210 H   0  0  0  0  0  0
  1  2  2  0  0  0
  1  3  1  0  0  0
  1  4  1  0  0  0
  3 73  1  0  0  0
  3 74  1  0  0  0
  3 75  1  0  0  0
  4  5  1  0  0  0
  4 76  1  0  0  0
  5  6  1  0  0  0
  5  8  1  0  0  0
  5 77  1  0  0  0
  6  7  2  0  0  0
  6 10  1  0  0  0
  8  9  1  0  0  0
  8 78  1  0  0  0
  8 79  1  0  0  0
  9 80  1  0  0  0
 10 11  1  0  0  0
 10 81  1  0  0  0
 11 12  1  0  0  0
 11 14  1  0  0  0
 11 82  1  0  0  0
 12 13  2  0  0  0
 12 19  1  0  0  0
 14 15  1  0  0  0
 14 83  1  0  0  0
 14 84  1  0  0  0
 15 16  1  0  0  0
 15 85  1  0  0  0
 15 86  1  0  0  0
 16 17  1  0  0  0
 16 87  1  0  0  0
 16 88  1  0  0  0
 17 18  1  0  0  0
 17 89  1  0  0  0
 17 90  1  0  0  0
 18 91  1  0  0  0
 18 92  1  0  0  0
 18 93  1  0  0  0
 19 20  1  0  0  0
 19 94  1  0  0  0
 20 21  1  0  0  0
 20 23  1  0  0  0
 20 95  1  0  0  0
 21 22  2  0  0  0
 21 25  1  0  0  0
 23 24  1  0  0  0
 23 96  1  0  0  0
 23 97  1  0  0  0
 24 98  1  0  0  0
 25 26  1  0  0  0
 25 99  1  0  0  0
 26 27  1  0  0  0
 26 34  1  0  0  0
 26100  1  0  0  0
 27 28  1  0  0  0
 27101  1  0  0  0
 27102  1  0  0  0
 28 29  1  0  0  0
 28103  1  0  0  0
 28104  1  0  0  0
 29 30  1  0  0  0
 29105  1  0  0  0
 29106  1  0  0  0
 30 31  1  0  0  0
 30107  1  0  0  0
 30108  1  0  0  0
 31 32  1  0  0  0
 31 33  1  0  0  0
 31109  1  0  0  0
 32110  1  0  0  0
 32111  1  0  0  0
 32112  1  0  0  0
 33113  1  0  0  0
 33114  1  0  0  0
 33115  1  0  0  0
 34 35  2  0  0  0
 34 36  1  0  0  0
 36 37  1  0  0  0
 36116  1  0  0  0
 37 38  1  0  0  0
 37 40  1  0  0  0
 37117  1  0  0  0
 38 39  2  0  0  0
 38 44  1  0  0  0
 40 41  1  0  0  0
 40118  1  0  0  0
 40119  1  0  0  0
 41 42  2  0  0  0
 41 43  1  0  0  0
 44 45  1  0  0  0
 44120  1  0  0  0
 45 46  1  0  0  0
 45 48  1  0  0  0
 45121  1  0  0  0
 46 47  2  0  0  0
 46 55  1  0  0  0
 48 49  1  0  0  0
 48122  1  0  0  0
 48123  1  0  0  0
 49 50  1  0  0  0
 49124  1  0  0  0
 49125  1  0  0  0
 50 51  1  0  0  0
 50126  1  0  0  0
 50127  1  0  0  0
 51 52  1  0  0  0
 51128  1  0  0  0
 52 53  1  0  0  0
 52 54  2  0  0  0
 53129  1  0  0  0
 53130  1  0  0  0
 54131  1  0  0  0
 54146  1  0  0  0
 55 56  1  0  0  0
 55132  1  0  0  0
 56 57  1  0  0  0
 56 59  1  0  0  0
 56133  1  0  0  0
 57 58  2  0  0  0
 57 60  1  0  0  0
 59134  1  0  0  0
 59135  1  0  0  0
 59136  1  0  0  0
 60 61  1  0  0  0
 60137  1  0  0  0
 61 62  1  0  0  0
 61 64  1  0  0  0
 61138  1  0  0  0
 62 63  1  0  0  0
 62 72  2  0  0  0
 64 65  1  0  0  0
 64139  1  0  0  0
 64140  1  0  0  0
 65 66  2  0  0  0
 65 67  1  0  0  0
 66 68  1  0  0  0
 66141  1  0  0  0
 67 69  2  0  0  0
 67142  1  0  0  0
 68 70  2  0  0  0
 68143  1  0  0  0
 69 70  1  0  0  0
 69144  1  0  0  0
 70 71  1  0  0  0
 71145  1  0  0  0
M  CHG  5  18   1  31   1  43  -1  54   1  63  -1
M  END
> <s_m_source_file>
../3m59_ligand.sdf

> <i_m_source_file_index>
1

> <s_epik_input>
Tz1DKFtDSDNdKVtOSF1bQ0BASF0oW0NIMl1bT0hdKUMoPU8pW05IXVtDQEBIXShbQ0gyXVtDSDJdW0NIMl1bQ0gyXVtOSDMrXSlDKD1PKVtOSF1bQ0BASF0oW0NIMl1bT0hdKUMoPU8pW05IXVtDQEBIXShbQ0gyXVtDSDJdW0NIMl1bQ0gyXVtOSCtdKFtDSDNdKVtDSDNdKUMoPU8pW05IXVtDQEBIXShbQ0gyXUMoPU8pW09IXSlDKD1PKVtOSF1bQ0BASF0oW0NIMl1bQ0gyXVtDSDJdW05IXS9DKFtOSDJdKT1OXFtIXSlDKD1PKVtOSF1bQ0BASF0oW0NIM10pQyg9TylbTkhdW0NASF0oQyg9TylbT0hdKVtDSDJdYzFbY0hdW2NIXWMoW09IXSlbY0hdW2NIXTE=

> <s_epik_cmdline>
J2VwaWtfYXBwJywgJy1pbWFlJywgJ2xpZ2FuZF9wcm8ubWFlJywgJy1vbWFlJywgJ2xpZ2FuZF9wcmVwLm1hZScsICctbXMnLCAnMScsICctcGgnLCAnNycsICctcGh0JywgJzAuNScsICctbnQn

> <r_lp_tautomer_probability>
1

> <r_epik_Ionization_Penalty>
  0.0064

> <r_epik_Ionization_Penalty_Charging>
  0.0057

> <r_epik_Ionization_Penalty_Neutral>
  0.0006

> <r_epik_State_Penalty>
 -0.0000

> <r_epik_Charging_Adjusted_Penalty>
0.00574626081813191

> <i_epik_Tot_Q>
1

> <i_epik_Tot_abs_Q>
5

> <s_epik_Chemistry_Notes>
This compound has an imine and may undergo hydrolysis.

$$$$
