3m5a_ligand
                    3D
 Schrodinger Suite 2020-3.
149149  0  0  1  0            999 V2000
  -28.5580   40.3220   20.2290 C   0  0  0  0  0  0
  -28.2170   41.1740   19.4010 O   0  0  0  0  0  0
  -28.4680   40.5560   21.7110 C   0  0  0  0  0  0
  -28.8510   39.0730   19.8520 N   0  0  0  0  0  0
  -28.5360   38.6500   18.4870 C   0  0  2  0  0  0
  -29.6940   38.9540   17.5700 C   0  0  0  0  0  0
  -30.8450   38.9080   17.9830 O   0  0  0  0  0  0
  -28.1820   37.1660   18.4330 C   0  0  0  0  0  0
  -26.8010   36.9830   18.7160 O   0  0  0  0  0  0
  -29.3940   39.2810   16.3180 N   0  0  0  0  0  0
  -30.4470   39.6270   15.3890 C   0  0  2  0  0  0
  -30.8920   38.3940   14.5990 C   0  0  0  0  0  0
  -30.9020   38.3940   13.3670 O   0  0  0  0  0  0
  -29.9840   40.7390   14.4520 C   0  0  0  0  0  0
  -29.3980   41.9430   15.1950 C   0  0  0  0  0  0
  -29.0670   43.0590   14.2130 C   0  0  0  0  0  0
  -28.5510   44.3070   14.9350 C   0  0  0  0  0  0
  -28.3430   45.3950   13.9330 N   0  3  0  0  0  0
  -31.2740   37.3570   15.3370 N   0  0  0  0  0  0
  -31.7590   36.1170   14.7370 C   0  0  2  0  0  0
  -32.7400   35.4830   15.7210 C   0  0  0  0  0  0
  -32.6980   35.7700   16.9200 O   0  0  0  0  0  0
  -30.5930   35.1880   14.4380 C   0  0  0  0  0  0
  -29.8790   34.8440   15.6150 O   0  0  0  0  0  0
  -33.6320   34.6460   15.2190 N   0  0  0  0  0  0
  -34.5970   33.9800   16.0810 C   0  0  1  0  0  0
  -35.6750   33.3580   15.1970 C   0  0  0  0  0  0
  -36.4770   34.3920   14.4180 C   0  0  0  0  0  0
  -37.5930   33.7660   13.5770 C   0  0  0  0  0  0
  -37.0290   32.9860   12.4040 C   0  0  0  0  0  0
  -37.7790   33.2140   11.1410 N   0  3  0  0  0  0
  -33.9720   32.9100   16.9390 C   0  0  0  0  0  0
  -32.9740   32.2880   16.5710 O   0  0  0  0  0  0
  -39.1080   32.6020   11.1680 C   0  0  0  0  0  0
  -37.0240   32.6090   10.0090 C   0  0  0  0  0  0
  -37.9500   34.6460   10.8960 C   0  0  0  0  0  0
  -34.5470   32.6940   18.1170 N   0  0  0  0  0  0
  -34.3350   31.4520   18.8420 C   0  0  2  0  0  0
  -32.9070   31.2200   19.3050 C   0  0  0  0  0  0
  -32.4740   30.0780   19.4240 O   0  0  0  0  0  0
  -34.7980   30.2510   17.9890 C   0  0  0  0  0  0
  -35.1200   29.0200   18.8380 C   0  0  0  0  0  0
  -35.8050   29.1650   19.8840 O   0  5  0  0  0  0
  -34.6970   27.9070   18.4680 O   0  0  0  0  0  0
  -32.1600   32.2800   19.5830 N   0  0  0  0  0  0
  -30.8440   32.0580   20.1580 C   0  0  2  0  0  0
  -31.0190   31.7430   21.6440 C   0  0  0  0  0  0
  -31.8960   32.3070   22.2970 O   0  0  0  0  0  0
  -29.9130   33.2610   19.9530 C   0  0  0  0  0  0
  -28.5230   33.0160   20.5230 C   0  0  0  0  0  0
  -27.5060   34.0780   20.1280 C   0  0  0  0  0  0
  -26.1490   33.5730   20.3380 N   0  0  0  0  0  0
  -25.0340   34.1960   19.9600 C   0  0  0  0  0  0
  -25.0910   35.3750   19.3460 N   0  0  0  0  0  0
  -23.8520   33.6370   20.2000 N   0  3  0  0  0  0
  -30.2080   30.8260   22.1660 N   0  0  0  0  0  0
  -30.2280   30.5150   23.5990 C   0  0  2  0  0  0
  -29.3490   31.5350   24.3120 C   0  0  0  0  0  0
  -28.1430   31.5900   24.0660 O   0  0  0  0  0  0
  -29.7220   29.0910   23.8610 C   0  0  0  0  0  0
  -29.9540   32.3460   25.1760 N   0  0  0  0  0  0
  -29.2430   33.4560   25.8260 C   0  0  2  0  0  0
  -28.7240   33.1270   27.2260 C   0  0  0  0  0  0
  -28.8896   31.9810   27.7228 O   0  5  0  0  0  0
  -30.1440   34.6860   25.8730 C   0  0  0  0  0  0
  -30.3750   35.2940   24.5100 C   0  0  0  0  0  0
  -29.3090   35.8100   23.7770 C   0  0  0  0  0  0
  -31.6520   35.3540   23.9520 C   0  0  0  0  0  0
  -29.5010   36.3730   22.5220 C   0  0  0  0  0  0
  -31.8580   35.9150   22.6930 C   0  0  0  0  0  0
  -30.7730   36.4220   21.9850 C   0  0  0  0  0  0
  -30.9570   36.9830   20.7450 O   0  0  0  0  0  0
  -28.1233   34.0127   27.8910 O   0  0  0  0  0  0
  -28.2236   41.6115   21.9014 H   0  0  0  0  0  0
  -27.6817   39.9151   22.1363 H   0  0  0  0  0  0
  -29.4329   40.3127   22.1799 H   0  0  0  0  0  0
  -29.3222   38.3670   20.5517 H   0  0  0  0  0  0
  -27.6613   39.2417   18.1790 H   0  0  0  0  0  0
  -28.7788   36.6194   19.1780 H   0  0  0  0  0  0
  -28.4000   36.7733   17.4289 H   0  0  0  0  0  0
  -26.3698   35.9710   18.7203 H   0  0  0  0  0  0
  -28.3448   39.2886   15.9878 H   0  0  0  0  0  0
  -31.2796   39.9901   16.0094 H   0  0  0  0  0  0
  -29.2054   40.3508   13.7789 H   0  0  0  0  0  0
  -30.8376   41.0967   13.8575 H   0  0  0  0  0  0
  -30.1304   42.3140   15.9271 H   0  0  0  0  0  0
  -28.4788   41.6396   15.7174 H   0  0  0  0  0  0
  -28.2900   42.7145   13.5148 H   0  0  0  0  0  0
  -29.9714   43.3318   13.6495 H   0  0  0  0  0  0
  -29.2890   44.6283   15.6847 H   0  0  0  0  0  0
  -27.5988   44.0745   15.4342 H   0  0  0  0  0  0
  -27.9720   46.2966   14.4424 H   0  0  0  0  0  0
  -29.2970   45.6218   13.4346 H   0  0  0  0  0  0
  -27.6067   45.0679   13.1841 H   0  0  0  0  0  0
  -31.2166   37.4528   16.4313 H   0  0  0  0  0  0
  -32.2554   36.3563   13.7850 H   0  0  0  0  0  0
  -30.9702   34.2620   13.9796 H   0  0  0  0  0  0
  -29.8978   35.6836   13.7445 H   0  0  0  0  0  0
  -29.0071   34.1762   15.5539 H   0  0  0  0  0  0
  -33.6389   34.4556   14.1356 H   0  0  0  0  0  0
  -34.9853   34.7582   16.7545 H   0  0  0  0  0  0
  -35.2057   32.6812   14.4678 H   0  0  0  0  0  0
  -36.3801   32.7910   15.8226 H   0  0  0  0  0  0
  -36.9418   35.1001   15.1198 H   0  0  0  0  0  0
  -35.8079   34.9374   13.7362 H   0  0  0  0  0  0
  -38.1823   33.0793   14.2025 H   0  0  0  0  0  0
  -38.2473   34.5596   13.1870 H   0  0  0  0  0  0
  -35.9850   33.2867   12.2317 H   0  0  0  0  0  0
  -37.0685   31.9095   12.6265 H   0  0  0  0  0  0
  -39.0105   31.5217   11.3511 H   0  0  0  0  0  0
  -39.6071   32.7666   10.2017 H   0  0  0  0  0  0
  -39.7052   33.0577   11.9715 H   0  0  0  0  0  0
  -36.8933   31.5318   10.1896 H   0  0  0  0  0  0
  -36.0378   33.0895    9.9276 H   0  0  0  0  0  0
  -37.5832   32.7588    9.0737 H   0  0  0  0  0  0
  -38.5075   35.0967   11.7303 H   0  0  0  0  0  0
  -38.5082   34.7937    9.9597 H   0  0  0  0  0  0
  -36.9629   35.1243   10.8137 H   0  0  0  0  0  0
  -35.1934   33.4758   18.5425 H   0  0  0  0  0  0
  -34.9445   31.6066   19.7445 H   0  0  0  0  0  0
  -35.7059   30.5253   17.4318 H   0  0  0  0  0  0
  -34.0024   29.9757   17.2810 H   0  0  0  0  0  0
  -32.5104   33.3048   19.3905 H   0  0  0  0  0  0
  -30.4132   31.2040   19.6148 H   0  0  0  0  0  0
  -29.8099   33.4657   18.8771 H   0  0  0  0  0  0
  -30.3375   34.1429   20.4550 H   0  0  0  0  0  0
  -28.5743   33.0032   21.6217 H   0  0  0  0  0  0
  -28.1441   32.0484   20.1623 H   0  0  0  0  0  0
  -27.6369   34.3340   19.0662 H   0  0  0  0  0  0
  -27.6570   34.9772   20.7433 H   0  0  0  0  0  0
  -25.9932   32.6083   20.8431 H   0  0  0  0  0  0
  -26.0656   35.8435   19.1442 H   0  0  0  0  0  0
  -24.1635   35.8813   19.0402 H   0  0  0  0  0  0
  -23.7973   32.6624   20.7072 H   0  0  0  0  0  0
  -29.5124   30.2969   21.4980 H   0  0  0  0  0  0
  -31.2718   30.5841   23.9392 H   0  0  0  0  0  0
  -30.3685   28.3703   23.3388 H   0  0  0  0  0  0
  -29.7438   28.8872   24.9417 H   0  0  0  0  0  0
  -28.6908   28.9943   23.4904 H   0  0  0  0  0  0
  -31.0162   32.1673   25.3993 H   0  0  0  0  0  0
  -28.3646   33.6240   25.1855 H   0  0  0  0  0  0
  -31.1241   34.4069   26.2871 H   0  0  0  0  0  0
  -29.6822   35.4547   26.5101 H   0  0  0  0  0  0
  -28.3038   35.7712   24.1968 H   0  0  0  0  0  0
  -32.5008   34.9565   24.5085 H   0  0  0  0  0  0
  -28.6541   36.7734   21.9647 H   0  0  0  0  0  0
  -32.8604   35.9562   22.2668 H   0  0  0  0  0  0
  -30.0962   37.3826   20.1889 H   0  0  0  0  0  0
  -22.9286   34.1490   19.8914 H   0  0  0  0  0  0
  1  2  2  0  0  0
  1  3  1  0  0  0
  1  4  1  0  0  0
  3 74  1  0  0  0
  3 75  1  0  0  0
  3 76  1  0  0  0
  4  5  1  0  0  0
  4 77  1  0  0  0
  5  6  1  0  0  0
  5  8  1  0  0  0
  5 78  1  0  0  0
  6  7  2  0  0  0
  6 10  1  0  0  0
  8  9  1  0  0  0
  8 79  1  0  0  0
  8 80  1  0  0  0
  9 81  1  0  0  0
 10 11  1  0  0  0
 10 82  1  0  0  0
 11 12  1  0  0  0
 11 14  1  0  0  0
 11 83  1  0  0  0
 12 13  2  0  0  0
 12 19  1  0  0  0
 14 15  1  0  0  0
 14 84  1  0  0  0
 14 85  1  0  0  0
 15 16  1  0  0  0
 15 86  1  0  0  0
 15 87  1  0  0  0
 16 17  1  0  0  0
 16 88  1  0  0  0
 16 89  1  0  0  0
 17 18  1  0  0  0
 17 90  1  0  0  0
 17 91  1  0  0  0
 18 92  1  0  0  0
 18 93  1  0  0  0
 18 94  1  0  0  0
 19 20  1  0  0  0
 19 95  1  0  0  0
 20 21  1  0  0  0
 20 23  1  0  0  0
 20 96  1  0  0  0
 21 22  2  0  0  0
 21 25  1  0  0  0
 23 24  1  0  0  0
 23 97  1  0  0  0
 23 98  1  0  0  0
 24 99  1  0  0  0
 25 26  1  0  0  0
 25100  1  0  0  0
 26 27  1  0  0  0
 26 32  1  0  0  0
 26101  1  0  0  0
 27 28  1  0  0  0
 27102  1  0  0  0
 27103  1  0  0  0
 28 29  1  0  0  0
 28104  1  0  0  0
 28105  1  0  0  0
 29 30  1  0  0  0
 29106  1  0  0  0
 29107  1  0  0  0
 30 31  1  0  0  0
 30108  1  0  0  0
 30109  1  0  0  0
 31 34  1  0  0  0
 31 35  1  0  0  0
 31 36  1  0  0  0
 32 33  2  0  0  0
 32 37  1  0  0  0
 34110  1  0  0  0
 34111  1  0  0  0
 34112  1  0  0  0
 35113  1  0  0  0
 35114  1  0  0  0
 35115  1  0  0  0
 36116  1  0  0  0
 36117  1  0  0  0
 36118  1  0  0  0
 37 38  1  0  0  0
 37119  1  0  0  0
 38 39  1  0  0  0
 38 41  1  0  0  0
 38120  1  0  0  0
 39 40  2  0  0  0
 39 45  1  0  0  0
 41 42  1  0  0  0
 41121  1  0  0  0
 41122  1  0  0  0
 42 43  1  0  0  0
 42 44  2  0  0  0
 45 46  1  0  0  0
 45123  1  0  0  0
 46 47  1  0  0  0
 46 49  1  0  0  0
 46124  1  0  0  0
 47 48  2  0  0  0
 47 56  1  0  0  0
 49 50  1  0  0  0
 49125  1  0  0  0
 49126  1  0  0  0
 50 51  1  0  0  0
 50127  1  0  0  0
 50128  1  0  0  0
 51 52  1  0  0  0
 51129  1  0  0  0
 51130  1  0  0  0
 52 53  1  0  0  0
 52131  1  0  0  0
 53 54  1  0  0  0
 53 55  2  0  0  0
 54132  1  0  0  0
 54133  1  0  0  0
 55134  1  0  0  0
 55149  1  0  0  0
 56 57  1  0  0  0
 56135  1  0  0  0
 57 58  1  0  0  0
 57 60  1  0  0  0
 57136  1  0  0  0
 58 59  2  0  0  0
 58 61  1  0  0  0
 60137  1  0  0  0
 60138  1  0  0  0
 60139  1  0  0  0
 61 62  1  0  0  0
 61140  1  0  0  0
 62 63  1  0  0  0
 62 65  1  0  0  0
 62141  1  0  0  0
 63 64  1  0  0  0
 63 73  2  0  0  0
 65 66  1  0  0  0
 65142  1  0  0  0
 65143  1  0  0  0
 66 67  2  0  0  0
 66 68  1  0  0  0
 67 69  1  0  0  0
 67144  1  0  0  0
 68 70  2  0  0  0
 68145  1  0  0  0
 69 71  2  0  0  0
 69146  1  0  0  0
 70 71  1  0  0  0
 70147  1  0  0  0
 71 72  1  0  0  0
 72148  1  0  0  0
M  CHG  5  18   1  31   1  43  -1  55   1  64  -1
M  END
> <s_m_source_file>
../3m5a_ligand.sdf

> <i_m_source_file_index>
1

> <s_epik_input>
Tz1DKFtDSDNdKVtOSF1bQ0BASF0oW0NIMl1bT0hdKUMoPU8pW05IXVtDQEBIXShbQ0gyXVtDSDJdW0NIMl1bQ0gyXVtOSDMrXSlDKD1PKVtOSF1bQ0BASF0oW0NIMl1bT0hdKUMoPU8pW05IXVtDQEBIXShbQ0gyXVtDSDJdW0NIMl1bQ0gyXVtOK10oW0NIM10pKFtDSDNdKVtDSDNdKUMoPU8pW05IXVtDQEBIXShbQ0gyXUMoPU8pW09IXSlDKD1PKVtOSF1bQ0BASF0oW0NIMl1bQ0gyXVtDSDJdW05IXS9DKFtOSDJdKT1OXFtIXSlDKD1PKVtOSF1bQ0BASF0oW0NIM10pQyg9TylbTkhdW0NASF0oQyg9TylbT0hdKVtDSDJdYzFbY0hdW2NIXWMoW09IXSlbY0hdW2NIXTE=

> <s_epik_cmdline>
J2VwaWtfYXBwJywgJy1pbWFlJywgJ2xpZ2FuZF9wcm8ubWFlJywgJy1vbWFlJywgJ2xpZ2FuZF9wcmVwLm1hZScsICctbXMnLCAnMScsICctcGgnLCAnNycsICctcGh0JywgJzAuNScsICctbnQn

> <r_lp_tautomer_probability>
1

> <r_epik_Ionization_Penalty>
  0.0048

> <r_epik_Ionization_Penalty_Charging>
  0.0041

> <r_epik_Ionization_Penalty_Neutral>
  0.0006

> <r_epik_State_Penalty>
 -0.0000

> <r_epik_Charging_Adjusted_Penalty>
0.0041192295487793

> <i_epik_Tot_Q>
1

> <i_epik_Tot_abs_Q>
5

> <s_epik_Chemistry_Notes>
This compound has an imine and may undergo hydrolysis.

$$$$
