3m5e_ligand
                    3D
 Schrodinger Suite 2020-3.
 36 37  0  0  1  0            999 V2000
   -3.9920   10.3070   12.0910 N   0  0  0  0  0  0
   -3.1700    9.6420   12.8920 C   0  0  0  0  0  0
   -3.3250    8.3480   13.1610 N   0  0  0  0  0  0
   -4.3410    7.6760   12.6170 C   0  0  0  0  0  0
   -5.2300    8.3340   11.7690 C   0  0  0  0  0  0
   -5.0160    9.6860   11.5230 C   0  0  0  0  0  0
   -4.5230    6.2790   12.9080 N   0  0  0  0  0  0
   -4.3930    4.4640   14.5850 C   0  0  0  0  0  0
   -5.7580    4.4460   14.8790 C   0  0  0  0  0  0
   -6.2990    3.3530   15.5670 C   0  0  0  0  0  0
   -5.4550    2.3000   15.9460 C   0  0  0  0  0  0
   -4.1020    2.3320   15.6440 C   0  0  0  0  0  0
   -3.5710    3.4190   14.9650 C   0  0  0  0  0  0
   -6.0500    0.9100   16.8020 S   0  0  0  0  0  0
   -5.5290    0.9820   18.2150 O   0  0  0  0  0  0
   -7.5630    0.8980   16.6340 O   0  0  0  0  0  0
   -5.3950   -0.4920   16.0580 N   0  0  0  0  0  0
   -6.3720    7.6330   11.1400 C   0  0  0  0  0  0
   -6.8100    6.5920   11.6350 O   0  0  0  0  0  0
   -6.0670   10.5930   10.4990 Cl  0  0  0  0  0  0
   -1.8240   10.4710   13.6590 S   0  0  0  0  0  0
   -1.1030    9.4600   14.9940 C   0  0  0  0  0  0
   -3.6940    5.5650   13.8580 C   0  0  0  0  0  0
   -5.3293    5.7521   12.3767 H   0  0  0  0  0  0
   -6.3967    5.2755   14.5756 H   0  0  0  0  0  0
   -7.3623    3.3214   15.8047 H   0  0  0  0  0  0
   -3.4569    1.5046   15.9396 H   0  0  0  0  0  0
   -2.5068    3.4493   14.7313 H   0  0  0  0  0  0
   -5.7572   -1.3885   16.5825 H   0  0  0  0  0  0
   -4.2968   -0.4554   16.1098 H   0  0  0  0  0  0
   -6.8301    8.0436   10.2281 H   0  0  0  0  0  0
   -0.2648   10.0040   15.4540 H   0  0  0  0  0  0
   -0.7388    8.5091   14.5779 H   0  0  0  0  0  0
   -1.8704    9.2570   15.7555 H   0  0  0  0  0  0
   -2.8418    5.1102   13.3317 H   0  0  0  0  0  0
   -3.3226    6.2660   14.6200 H   0  0  0  0  0  0
  1  2  2  0  0  0
  1  6  1  0  0  0
  2  3  1  0  0  0
  2 21  1  0  0  0
  3  4  2  0  0  0
  4  5  1  0  0  0
  4  7  1  0  0  0
  5  6  2  0  0  0
  5 18  1  0  0  0
  6 20  1  0  0  0
  7 23  1  0  0  0
  7 24  1  0  0  0
  8  9  2  0  0  0
  8 13  1  0  0  0
  8 23  1  0  0  0
  9 10  1  0  0  0
  9 25  1  0  0  0
 10 11  2  0  0  0
 10 26  1  0  0  0
 11 12  1  0  0  0
 11 14  1  0  0  0
 12 13  2  0  0  0
 12 27  1  0  0  0
 13 28  1  0  0  0
 14 15  2  0  0  0
 14 16  2  0  0  0
 14 17  1  0  0  0
 17 29  1  0  0  0
 17 30  1  0  0  0
 18 19  2  0  0  0
 18 31  1  0  0  0
 21 22  1  0  0  0
 22 32  1  0  0  0
 22 33  1  0  0  0
 22 34  1  0  0  0
 23 35  1  0  0  0
 23 36  1  0  0  0
M  END
> <s_m_source_file>
../3m5e_ligand.sdf

> <i_m_source_file_index>
1

> <s_epik_input>
W0NIM11TYzFuYyhDbCljKFtDSF09TyljKG4xKVtOSF1bQ0gyXWMyW2NIXVtjSF1jKFtjSF1bY0hdMilTKD1PKSg9TylbTkgyXQ==

> <s_epik_cmdline>
J2VwaWtfYXBwJywgJy1pbWFlJywgJ2xpZ2FuZF9wcm8ubWFlJywgJy1vbWFlJywgJ2xpZ2FuZF9wcmVwLm1hZScsICctbXMnLCAnMScsICctcGgnLCAnNycsICctcGh0JywgJzAuNScsICctbnQn

> <r_lp_tautomer_probability>
1

> <r_epik_Ionization_Penalty>
  0.0003

> <r_epik_Ionization_Penalty_Charging>
  0.0000

> <r_epik_Ionization_Penalty_Neutral>
  0.0003

> <r_epik_State_Penalty>
 -0.0000

> <r_epik_Charging_Adjusted_Penalty>
0

> <i_epik_Tot_Q>
0

> <i_epik_Tot_abs_Q>
0

$$$$
