3m67_ligand
                    3D
 Schrodinger Suite 2020-3.
 43 46  0  0  1  0            999 V2000
   -0.9270   10.1030   12.6310 O   0  0  0  0  0  0
   -0.0930   10.6550   13.6500 C   0  0  0  0  0  0
   -0.2270    9.8520   14.9910 C   0  0  0  0  0  0
   -1.3620    9.0050   15.0230 O   0  0  0  0  0  0
   -1.4000    8.1260   13.9740 C   0  0  0  0  0  0
   -1.1380    8.7250   12.6270 C   0  0  0  0  0  0
   -1.1110    7.9580   11.5160 C   0  0  0  0  0  0
   -1.3320    6.5110   11.7280 C   0  0  0  0  0  0
   -1.3290    5.4380   10.7570 N   0  3  0  0  0  0
   -1.5480    4.3620   11.4530 C   0  0  0  0  0  0
   -1.7210    4.6760   12.8490 N   0  3  0  0  0  0
   -1.5620    6.0270   12.9320 C   0  0  0  0  0  0
   -1.6090    6.8340   14.1510 C   0  0  0  0  0  0
   -1.7000    2.6640   10.8590 S   0  0  0  0  0  0
   -2.8380    2.0910   12.2030 C   0  0  0  0  0  0
   -4.0810    3.0480   12.3070 C   0  0  0  0  0  0
   -4.5050    3.6230   11.2210 O   0  0  0  0  0  0
   -4.7750    3.2600   13.6590 C   0  0  0  0  0  0
   -4.9800    2.1460   14.6020 C   0  0  0  0  0  0
   -5.5860    2.3660   15.7880 C   0  0  0  0  0  0
   -6.0250    3.7320   16.0690 C   0  0  0  0  0  0
   -5.8820    4.7600   15.2190 C   0  0  0  0  0  0
   -5.2350    4.5050   13.9510 C   0  0  0  0  0  0
   -5.8860    0.9300   16.8560 S   0  0  0  0  0  0
   -7.4410    0.8990   16.8550 O   0  0  0  0  0  0
   -6.7940    3.9290   17.5810 Cl  0  0  0  0  0  0
   -5.2700    1.1430   18.2330 O   0  0  0  0  0  0
   -5.1900   -0.3770   16.0070 N   0  0  0  0  0  0
    0.9569   10.6196   13.3237 H   0  0  0  0  0  0
   -0.3840   11.6993   13.8362 H   0  0  0  0  0  0
    0.6628    9.2206   15.1307 H   0  0  0  0  0  0
   -0.3134   10.5552   15.8324 H   0  0  0  0  0  0
   -0.9373    8.3786   10.5256 H   0  0  0  0  0  0
   -1.8022    6.4012   15.1326 H   0  0  0  0  0  0
   -3.1861    1.0719   11.9790 H   0  0  0  0  0  0
   -2.3014    2.0923   13.1632 H   0  0  0  0  0  0
   -4.6418    1.1431   14.3414 H   0  0  0  0  0  0
   -6.2422    5.7562   15.4760 H   0  0  0  0  0  0
   -5.1161    5.3125   13.2285 H   0  0  0  0  0  0
   -5.3246   -1.3031   16.5852 H   0  0  0  0  0  0
   -4.1161   -0.1889   15.8607 H   0  0  0  0  0  0
   -1.1921    5.3700    9.6677 H   0  0  0  0  0  0
   -1.9331    3.8737   13.5710 H   0  0  0  0  0  0
  1  2  1  0  0  0
  1  6  1  0  0  0
  2  3  1  0  0  0
  2 29  1  0  0  0
  2 30  1  0  0  0
  3  4  1  0  0  0
  3 31  1  0  0  0
  3 32  1  0  0  0
  4  5  1  0  0  0
  5  6  2  0  0  0
  5 13  1  0  0  0
  6  7  1  0  0  0
  7  8  2  0  0  0
  7 33  1  0  0  0
  8  9  1  0  0  0
  8 12  1  0  0  0
  9 10  2  0  0  0
  9 42  1  0  0  0
 10 11  1  0  0  0
 10 14  1  0  0  0
 11 12  1  0  0  0
 11 43  1  0  0  0
 12 13  2  0  0  0
 13 34  1  0  0  0
 14 15  1  0  0  0
 15 16  1  0  0  0
 15 35  1  0  0  0
 15 36  1  0  0  0
 16 17  2  0  0  0
 16 18  1  0  0  0
 18 19  2  0  0  0
 18 23  1  0  0  0
 19 20  1  0  0  0
 19 37  1  0  0  0
 20 21  2  0  0  0
 20 24  1  0  0  0
 21 22  1  0  0  0
 21 26  1  0  0  0
 22 23  2  0  0  0
 22 38  1  0  0  0
 23 39  1  0  0  0
 24 25  2  0  0  0
 24 27  2  0  0  0
 24 28  1  0  0  0
 28 40  1  0  0  0
 28 41  1  0  0  0
M  CHG  2   9   1  11   1
M  END
> <s_m_source_file>
../3m67_ligand.sdf

> <i_m_source_file_index>
1

> <s_epik_input>
TzFbQ0gyXVtDSDJdT2MoYzEyKVtjSF1jM2MoW2NIXTIpW25IXWMobjMpU1tDSDJdQyg9TyljNFtjSF1jKFMoPU8pKD1PKVtOSDJdKWMoQ2wpW2NIXVtjSF00

> <s_epik_cmdline>
J2VwaWtfYXBwJywgJy1pbWFlJywgJ2xpZ2FuZF9wcm8ubWFlJywgJy1vbWFlJywgJ2xpZ2FuZF9wcmVwLm1hZScsICctbXMnLCAnMScsICctcGgnLCAnNycsICctcGh0JywgJzAuNScsICctbnQn

> <r_lp_tautomer_probability>
1

> <r_epik_Ionization_Penalty>
 23.4558

> <r_epik_Ionization_Penalty_Charging>
 23.4515

> <r_epik_Ionization_Penalty_Neutral>
  0.0042

> <r_epik_State_Penalty>
 -0.0000

> <r_epik_Charging_Adjusted_Penalty>
23.4515203635278

> <i_epik_Tot_Q>
2

> <i_epik_Tot_abs_Q>
2

> <s_epik_Chemistry_Notes>
This compound has an imine and may undergo hydrolysis.

$$$$
