3m6f_ligand
                    3D
 Schrodinger Suite 2020-3.
 55 59  0  0  1  0            999 V2000
   -5.9740   -0.3550   28.4070 C   0  0  0  0  0  0
   -7.1610    0.2840   27.9800 C   0  0  0  0  0  0
   -7.8720    1.1230   28.8960 C   0  0  0  0  0  0
   -7.3270    1.3300   30.1760 C   0  0  0  0  0  0
   -6.1400    0.6880   30.5640 C   0  0  0  0  0  0
   -5.4570   -0.1730   29.6950 C   0  0  0  0  0  0
   -5.5160    0.9920   32.1730 Cl  0  0  0  0  0  0
   -9.1040    1.6450   28.5790 N   0  0  0  0  0  0
  -10.2190    1.5700   29.3560 C   0  0  0  0  0  0
  -11.2740    2.0750   28.6980 N   0  0  0  0  0  0
  -10.9240    2.4560   27.3350 C   0  0  2  0  0  0
   -9.4000    2.2090   27.3770 C   0  0  0  0  0  0
   -8.6300    2.4830   26.4510 O   0  0  0  0  0  0
  -11.2150    3.9130   26.9380 C   0  0  0  0  0  0
  -11.5990    3.7830   25.5290 N   0  0  0  0  0  0
  -11.4550    2.4270   24.9970 C   0  0  0  0  0  0
  -11.5590    1.5730   26.2490 C   0  0  1  0  0  0
  -11.0030    0.1580   26.1760 C   0  0  0  0  0  0
  -11.5440   -0.8190   27.0310 C   0  0  0  0  0  0
  -10.9650   -2.0990   27.1200 C   0  0  0  0  0  0
   -9.8640   -2.4130   26.3020 C   0  0  0  0  0  0
   -9.3290   -1.4770   25.4150 C   0  0  0  0  0  0
   -9.9100   -0.1970   25.3370 C   0  0  0  0  0  0
   -9.3230   -3.7420   26.3490 C   0  0  0  0  0  0
   -8.8790   -4.8110   26.3930 N   0  0  0  0  0  0
  -12.1200    4.8260   24.7860 C   0  0  0  0  0  0
  -12.4140    6.0050   25.4090 N   0  0  0  0  0  0
  -12.9240    7.0480   24.6940 C   0  0  0  0  0  0
  -13.1420    6.9810   23.3100 C   0  0  0  0  0  0
  -12.8270    5.7780   22.6610 C   0  0  0  0  0  0
  -12.3250    4.6870   23.3940 C   0  0  0  0  0  0
  -13.6690    8.1410   22.5670 C   0  0  0  0  0  0
  -13.7640    8.1500   21.3780 O   0  0  0  0  0  0
  -14.0130    9.1790   23.3390 O   0  5  0  0  0  0
  -12.6450    2.1280   29.2500 C   0  0  0  0  0  0
  -10.3000    1.1100   30.4910 O   0  0  0  0  0  0
   -5.0970   -1.3710   27.3310 Cl  0  0  0  0  0  0
   -7.5303    0.1392   26.9647 H   0  0  0  0  0  0
   -7.8320    1.9966   30.8750 H   0  0  0  0  0  0
   -4.5494   -0.6862   30.0127 H   0  0  0  0  0  0
  -12.0249    4.3098   27.5677 H   0  0  0  0  0  0
  -10.3087    4.5199   27.0806 H   0  0  0  0  0  0
  -12.2614    2.2286   24.2756 H   0  0  0  0  0  0
  -10.4814    2.3319   24.4939 H   0  0  0  0  0  0
  -12.6098    1.3117   26.4429 H   0  0  0  0  0  0
  -12.4221   -0.5822   27.6319 H   0  0  0  0  0  0
  -11.3648   -2.8381   27.8143 H   0  0  0  0  0  0
   -8.4729   -1.7338   24.7912 H   0  0  0  0  0  0
   -9.5181    0.5302   24.6259 H   0  0  0  0  0  0
  -13.1722    7.9705   25.2188 H   0  0  0  0  0  0
  -12.9717    5.6880   21.5844 H   0  0  0  0  0  0
  -12.0968    3.7455   22.8945 H   0  0  0  0  0  0
  -12.6324    1.7882   30.2961 H   0  0  0  0  0  0
  -13.3034    1.4737   28.6598 H   0  0  0  0  0  0
  -13.0188    3.1615   29.2047 H   0  0  0  0  0  0
  1  2  2  0  0  0
  1  6  1  0  0  0
  1 37  1  0  0  0
  2  3  1  0  0  0
  2 38  1  0  0  0
  3  4  2  0  0  0
  3  8  1  0  0  0
  4  5  1  0  0  0
  4 39  1  0  0  0
  5  6  2  0  0  0
  5  7  1  0  0  0
  6 40  1  0  0  0
  8  9  1  0  0  0
  8 12  1  0  0  0
  9 10  1  0  0  0
  9 36  2  0  0  0
 10 11  1  0  0  0
 10 35  1  0  0  0
 11 12  1  0  0  0
 11 14  1  0  0  0
 11 17  1  0  0  0
 12 13  2  0  0  0
 14 15  1  0  0  0
 14 41  1  0  0  0
 14 42  1  0  0  0
 15 16  1  0  0  0
 15 26  1  0  0  0
 16 17  1  0  0  0
 16 43  1  0  0  0
 16 44  1  0  0  0
 17 18  1  0  0  0
 17 45  1  0  0  0
 18 19  2  0  0  0
 18 23  1  0  0  0
 19 20  1  0  0  0
 19 46  1  0  0  0
 20 21  2  0  0  0
 20 47  1  0  0  0
 21 22  1  0  0  0
 21 24  1  0  0  0
 22 23  2  0  0  0
 22 48  1  0  0  0
 23 49  1  0  0  0
 24 25  3  0  0  0
 26 27  2  0  0  0
 26 31  1  0  0  0
 27 28  1  0  0  0
 28 29  2  0  0  0
 28 50  1  0  0  0
 29 30  1  0  0  0
 29 32  1  0  0  0
 30 31  2  0  0  0
 30 51  1  0  0  0
 31 52  1  0  0  0
 32 33  2  0  0  0
 32 34  1  0  0  0
 35 53  1  0  0  0
 35 54  1  0  0  0
 35 55  1  0  0  0
M  CHG  1  34  -1
M  END
> <s_m_source_file>
../3m6f_ligand.sdf

> <i_m_source_file_index>
1

> <s_epik_input>
W2NIXTFjKENsKVtjSF1jKFtjSF1jMUNsKU4oQzI9TylDKD1PKU4oW0NIM10pW0NAQF0yM1tDSDJdTihjNG5bY0hdYyhbY0hdW2NIXTQpQyg9TylbT0hdKVtDSDJdW0NASF0zYzVbY0hdW2NIXWMoQyNOKVtjSF1bY0hdNQ==

> <s_epik_cmdline>
J2VwaWtfYXBwJywgJy1pbWFlJywgJ2xpZ2FuZF9wcm8ubWFlJywgJy1vbWFlJywgJ2xpZ2FuZF9wcmVwLm1hZScsICctbXMnLCAnMScsICctcGgnLCAnNycsICctcGh0JywgJzAuNScsICctbnQn

> <r_lp_tautomer_probability>
1

> <r_epik_Ionization_Penalty>
  0.1991

> <r_epik_Ionization_Penalty_Charging>
  0.0003

> <r_epik_Ionization_Penalty_Neutral>
  0.1989

> <r_epik_State_Penalty>
  0.1887

> <r_epik_Charging_Adjusted_Penalty>
0.188945228513498

> <i_epik_Tot_Q>
-1

> <i_epik_Tot_abs_Q>
1

$$$$
