3m6p_ligand
                    3D
 Schrodinger Suite 2020-3.
 62 62  0  0  1  0            999 V2000
   16.6930   11.4440   26.4200 C   0  0  0  0  0  0
   16.2320   11.4980   27.8370 C   0  0  0  0  0  0
   16.8700   10.8950   28.6730 O   0  0  0  0  0  0
   15.1070   12.1800   28.1040 N   0  0  0  0  0  0
   14.7060   12.1920   29.4080 O   0  0  0  0  0  0
   16.3060   10.0010   26.0410 C   0  0  2  0  0  0
   16.9130    9.6400   24.7250 C   0  0  0  0  0  0
   16.8880   10.4350   23.7850 O   0  0  0  0  0  0
   14.7340    9.9090   25.8150 C   0  0  0  0  0  0
   14.2780    8.5110   25.2870 C   0  0  0  0  0  0
   12.7890    8.4730   25.0830 C   0  0  0  0  0  0
   12.3180    6.9530   25.0570 C   0  0  0  0  0  0
   13.1440    6.0580   24.0800 C   0  0  0  0  0  0
   17.4130    8.4370   24.6770 N   0  0  0  0  0  0
   17.9520    7.9160   23.4410 C   0  0  1  0  0  0
   19.4650    7.6840   23.5130 C   0  0  0  0  0  0
   20.1800    9.0590   23.6460 C   0  0  0  0  0  0
   19.7830    6.8770   24.7190 C   0  0  0  0  0  0
   17.1280    6.6430   23.0870 C   0  0  0  0  0  0
   16.6840    5.9060   23.9880 O   0  0  0  0  0  0
   16.8840    6.3400   21.7840 N   0  0  0  0  0  0
   16.1200    5.1700   21.3430 C   0  0  1  0  0  0
   17.3290    7.1430   20.6180 C   0  0  0  0  0  0
   16.3290    6.7780   19.5230 C   0  0  0  0  0  0
   15.9020    5.3640   19.8400 C   0  0  0  0  0  0
   16.9330    3.8650   21.5450 C   0  0  0  0  0  0
   15.9890    2.7900   21.3710 O   0  0  0  0  0  0
   16.1642   12.2094   25.8330 H   0  0  0  0  0  0
   17.7757   11.6338   26.3792 H   0  0  0  0  0  0
   14.5167   12.7103   27.3422 H   0  0  0  0  0  0
   13.7924   12.7319   29.6975 H   0  0  0  0  0  0
   16.6953    9.3341   26.8244 H   0  0  0  0  0  0
   14.2153   10.0936   26.7673 H   0  0  0  0  0  0
   14.4249   10.6637   25.0768 H   0  0  0  0  0  0
   14.7715    8.3031   24.3262 H   0  0  0  0  0  0
   14.5544    7.7355   26.0165 H   0  0  0  0  0  0
   12.2922    9.0047   25.9079 H   0  0  0  0  0  0
   12.5371    8.9592   24.1290 H   0  0  0  0  0  0
   12.4196    6.5204   26.0633 H   0  0  0  0  0  0
   11.2660    6.9005   24.7398 H   0  0  0  0  0  0
   12.7627    5.0269   24.1163 H   0  0  0  0  0  0
   14.2024    6.0683   24.3795 H   0  0  0  0  0  0
   13.0488    6.4484   23.0560 H   0  0  0  0  0  0
   17.4229    7.8173   25.5858 H   0  0  0  0  0  0
   17.8323    8.7011   22.6799 H   0  0  0  0  0  0
   19.8006    7.1247   22.6272 H   0  0  0  0  0  0
   19.9581    9.6747   22.7619 H   0  0  0  0  0  0
   21.2662    8.9018   23.7201 H   0  0  0  0  0  0
   19.8214    9.5728   24.5501 H   0  0  0  0  0  0
   19.2866    5.8980   24.6464 H   0  0  0  0  0  0
   19.4265    7.4032   25.6168 H   0  0  0  0  0  0
   20.8713    6.7322   24.7868 H   0  0  0  0  0  0
   15.1911    5.1297   21.9308 H   0  0  0  0  0  0
   17.2942    8.2121   20.8744 H   0  0  0  0  0  0
   18.3589    6.8632   20.3517 H   0  0  0  0  0  0
   15.4793    7.4758   19.5551 H   0  0  0  0  0  0
   16.8204    6.8435   18.5410 H   0  0  0  0  0  0
   16.5109    4.6358   19.2842 H   0  0  0  0  0  0
   14.8392    5.2116   19.6010 H   0  0  0  0  0  0
   17.7390    3.8158   20.7980 H   0  0  0  0  0  0
   17.3683    3.8568   22.5552 H   0  0  0  0  0  0
   16.3212    1.7456   21.4655 H   0  0  0  0  0  0
  1  2  1  0  0  0
  1  6  1  0  0  0
  1 28  1  0  0  0
  1 29  1  0  0  0
  2  3  2  0  0  0
  2  4  1  0  0  0
  4  5  1  0  0  0
  4 30  1  0  0  0
  5 31  1  0  0  0
  6  7  1  0  0  0
  6  9  1  0  0  0
  6 32  1  0  0  0
  7  8  2  0  0  0
  7 14  1  0  0  0
  9 10  1  0  0  0
  9 33  1  0  0  0
  9 34  1  0  0  0
 10 11  1  0  0  0
 10 35  1  0  0  0
 10 36  1  0  0  0
 11 12  1  0  0  0
 11 37  1  0  0  0
 11 38  1  0  0  0
 12 13  1  0  0  0
 12 39  1  0  0  0
 12 40  1  0  0  0
 13 41  1  0  0  0
 13 42  1  0  0  0
 13 43  1  0  0  0
 14 15  1  0  0  0
 14 44  1  0  0  0
 15 16  1  0  0  0
 15 19  1  0  0  0
 15 45  1  0  0  0
 16 17  1  0  0  0
 16 18  1  0  0  0
 16 46  1  0  0  0
 17 47  1  0  0  0
 17 48  1  0  0  0
 17 49  1  0  0  0
 18 50  1  0  0  0
 18 51  1  0  0  0
 18 52  1  0  0  0
 19 20  2  0  0  0
 19 21  1  0  0  0
 21 22  1  0  0  0
 21 23  1  0  0  0
 22 25  1  0  0  0
 22 26  1  0  0  0
 22 53  1  0  0  0
 23 24  1  0  0  0
 23 54  1  0  0  0
 23 55  1  0  0  0
 24 25  1  0  0  0
 24 56  1  0  0  0
 24 57  1  0  0  0
 25 58  1  0  0  0
 25 59  1  0  0  0
 26 27  1  0  0  0
 26 60  1  0  0  0
 26 61  1  0  0  0
 27 62  1  0  0  0
M  END
> <s_m_source_file>
../3m6p_ligand.sdf

> <i_m_source_file_index>
1

> <s_epik_input>
W0NIM11bQ0gyXVtDSDJdW0NIMl1bQ0gyXVtDQEhdKFtDSDJdQyg9TylbTkhdW09IXSlDKD1PKVtOSF1bQ0BASF0oW0NIXShbQ0gzXSlbQ0gzXSlDKD1PKU4xW0NASF0oW0NIMl1bT0hdKVtDSDJdW0NIMl1bQ0gyXTE=

> <s_epik_cmdline>
J2VwaWtfYXBwJywgJy1pbWFlJywgJ2xpZ2FuZF9wcm8ubWFlJywgJy1vbWFlJywgJ2xpZ2FuZF9wcmVwLm1hZScsICctbXMnLCAnMScsICctcGgnLCAnNycsICctcGh0JywgJzAuNScsICctbnQn

> <r_lp_tautomer_probability>
1

> <r_epik_Ionization_Penalty>
  0.0055

> <r_epik_Ionization_Penalty_Charging>
  0.0000

> <r_epik_Ionization_Penalty_Neutral>
  0.0055

> <r_epik_State_Penalty>
 -0.0000

> <r_epik_Charging_Adjusted_Penalty>
0

> <i_epik_Tot_Q>
0

> <i_epik_Tot_abs_Q>
0

> <s_epik_Chemistry_Notes>
This compound has a N-S or N-O group and may undergo hydrolysis at high or low pH.

$$$$
