3m6q_ligand
                    3D
 Schrodinger Suite 2020-3.
 62 62  0  0  1  0            999 V2000
    2.7360  -16.8050  -28.3820 C   0  0  0  0  0  0
    2.2210  -16.5830  -26.9590 C   0  0  0  0  0  0
    2.8840  -17.0620  -26.0520 O   0  0  0  0  0  0
    1.0770  -15.9230  -26.7400 N   0  0  0  0  0  0
    0.8780  -15.8570  -25.4360 O   0  0  0  0  0  0
    2.2260  -18.1560  -28.8850 C   0  0  2  0  0  0
    2.5760  -18.5130  -30.3640 C   0  0  0  0  0  0
    2.4540  -17.7430  -31.3370 O   0  0  0  0  0  0
    0.6570  -18.1000  -28.8610 C   0  0  0  0  0  0
    0.1280  -19.4400  -29.4200 C   0  0  0  0  0  0
   -1.4010  -19.5800  -29.5090 C   0  0  0  0  0  0
   -1.7540  -21.1040  -29.4050 C   0  0  0  0  0  0
   -1.8550  -21.6740  -30.7910 C   0  0  0  0  0  0
    2.9900  -19.7800  -30.4480 N   0  0  0  0  0  0
    3.2570  -20.4000  -31.6900 C   0  0  1  0  0  0
    4.7310  -20.7700  -31.8880 C   0  0  0  0  0  0
    5.3680  -19.6730  -32.8120 C   0  0  0  0  0  0
    5.5540  -21.1290  -30.6270 C   0  0  0  0  0  0
    2.3510  -21.6480  -31.7390 C   0  0  0  0  0  0
    2.0620  -22.2310  -30.6660 O   0  0  0  0  0  0
    1.8660  -21.9790  -33.0050 N   0  0  0  0  0  0
    1.0360  -23.1240  -33.4230 C   0  0  1  0  0  0
    2.2520  -21.1880  -34.2300 C   0  0  0  0  0  0
    1.5270  -21.7400  -35.4530 C   0  0  0  0  0  0
    1.0700  -23.1250  -34.9790 C   0  0  0  0  0  0
    1.6820  -24.4580  -32.9330 C   0  0  0  0  0  0
    1.1100  -25.6590  -33.5480 O   0  0  0  0  0  0
    2.3670  -16.0005  -29.0351 H   0  0  0  0  0  0
    3.8360  -16.7993  -28.3789 H   0  0  0  0  0  0
    0.3498  -15.4715  -27.4309 H   0  0  0  0  0  0
   -0.0149  -15.3505  -25.0408 H   0  0  0  0  0  0
    2.7181  -18.8848  -28.2242 H   0  0  0  0  0  0
    0.3111  -17.9546  -27.8270 H   0  0  0  0  0  0
    0.3104  -17.2628  -29.4847 H   0  0  0  0  0  0
    0.5069  -19.5859  -30.4423 H   0  0  0  0  0  0
    0.4723  -20.2658  -28.7801 H   0  0  0  0  0  0
   -1.8688  -19.0242  -28.6830 H   0  0  0  0  0  0
   -1.7512  -19.1733  -30.4692 H   0  0  0  0  0  0
   -0.9645  -21.6258  -28.8443 H   0  0  0  0  0  0
   -2.7146  -21.2231  -28.8824 H   0  0  0  0  0  0
   -2.1026  -22.7441  -30.7302 H   0  0  0  0  0  0
   -0.8931  -21.5491  -31.3098 H   0  0  0  0  0  0
   -2.6433  -21.1463  -31.3479 H   0  0  0  0  0  0
    3.1219  -20.3433  -29.5124 H   0  0  0  0  0  0
    3.0272  -19.6382  -32.4495 H   0  0  0  0  0  0
    4.7435  -21.7605  -32.3663 H   0  0  0  0  0  0
    4.7092  -19.4921  -33.6742 H   0  0  0  0  0  0
    6.3503  -20.0180  -33.1671 H   0  0  0  0  0  0
    5.4909  -18.7400  -32.2424 H   0  0  0  0  0  0
    5.0241  -21.9020  -30.0511 H   0  0  0  0  0  0
    5.6816  -20.2311  -30.0046 H   0  0  0  0  0  0
    6.5410  -21.5090  -30.9293 H   0  0  0  0  0  0
    0.0318  -22.9976  -32.9921 H   0  0  0  0  0  0
    1.9736  -20.1333  -34.0882 H   0  0  0  0  0  0
    3.3381  -21.2625  -34.3874 H   0  0  0  0  0  0
    0.6855  -21.0797  -35.7094 H   0  0  0  0  0  0
    2.2252  -21.7904  -36.3015 H   0  0  0  0  0  0
    1.7736  -23.8943  -35.3299 H   0  0  0  0  0  0
    0.0643  -23.3433  -35.3676 H   0  0  0  0  0  0
    2.7565  -24.4533  -33.1686 H   0  0  0  0  0  0
    1.5454  -24.5539  -31.8457 H   0  0  0  0  0  0
    1.4926  -26.6531  -33.2733 H   0  0  0  0  0  0
  1  2  1  0  0  0
  1  6  1  0  0  0
  1 28  1  0  0  0
  1 29  1  0  0  0
  2  3  2  0  0  0
  2  4  1  0  0  0
  4  5  1  0  0  0
  4 30  1  0  0  0
  5 31  1  0  0  0
  6  7  1  0  0  0
  6  9  1  0  0  0
  6 32  1  0  0  0
  7  8  2  0  0  0
  7 14  1  0  0  0
  9 10  1  0  0  0
  9 33  1  0  0  0
  9 34  1  0  0  0
 10 11  1  0  0  0
 10 35  1  0  0  0
 10 36  1  0  0  0
 11 12  1  0  0  0
 11 37  1  0  0  0
 11 38  1  0  0  0
 12 13  1  0  0  0
 12 39  1  0  0  0
 12 40  1  0  0  0
 13 41  1  0  0  0
 13 42  1  0  0  0
 13 43  1  0  0  0
 14 15  1  0  0  0
 14 44  1  0  0  0
 15 16  1  0  0  0
 15 19  1  0  0  0
 15 45  1  0  0  0
 16 17  1  0  0  0
 16 18  1  0  0  0
 16 46  1  0  0  0
 17 47  1  0  0  0
 17 48  1  0  0  0
 17 49  1  0  0  0
 18 50  1  0  0  0
 18 51  1  0  0  0
 18 52  1  0  0  0
 19 20  2  0  0  0
 19 21  1  0  0  0
 21 22  1  0  0  0
 21 23  1  0  0  0
 22 25  1  0  0  0
 22 26  1  0  0  0
 22 53  1  0  0  0
 23 24  1  0  0  0
 23 54  1  0  0  0
 23 55  1  0  0  0
 24 25  1  0  0  0
 24 56  1  0  0  0
 24 57  1  0  0  0
 25 58  1  0  0  0
 25 59  1  0  0  0
 26 27  1  0  0  0
 26 60  1  0  0  0
 26 61  1  0  0  0
 27 62  1  0  0  0
M  END
> <s_m_source_file>
../3m6q_ligand.sdf

> <i_m_source_file_index>
1

> <s_epik_input>
W0NIM11bQ0gyXVtDSDJdW0NIMl1bQ0gyXVtDQEhdKFtDSDJdQyg9TylbTkhdW09IXSlDKD1PKVtOSF1bQ0BASF0oW0NIXShbQ0gzXSlbQ0gzXSlDKD1PKU4xW0NASF0oW0NIMl1bT0hdKVtDSDJdW0NIMl1bQ0gyXTE=

> <s_epik_cmdline>
J2VwaWtfYXBwJywgJy1pbWFlJywgJ2xpZ2FuZF9wcm8ubWFlJywgJy1vbWFlJywgJ2xpZ2FuZF9wcmVwLm1hZScsICctbXMnLCAnMScsICctcGgnLCAnNycsICctcGh0JywgJzAuNScsICctbnQn

> <r_lp_tautomer_probability>
1

> <r_epik_Ionization_Penalty>
  0.0055

> <r_epik_Ionization_Penalty_Charging>
  0.0000

> <r_epik_Ionization_Penalty_Neutral>
  0.0055

> <r_epik_State_Penalty>
 -0.0000

> <r_epik_Charging_Adjusted_Penalty>
0

> <i_epik_Tot_Q>
0

> <i_epik_Tot_abs_Q>
0

> <s_epik_Chemistry_Notes>
This compound has a N-S or N-O group and may undergo hydrolysis at high or low pH.

$$$$
