3m6r_ligand
                    3D
 Schrodinger Suite 2020-3.
 62 62  0  0  1  0            999 V2000
  -14.4930    6.5380  -30.9450 C   0  0  0  0  0  0
  -13.0760    6.0100  -30.3690 C   0  0  0  0  0  0
  -12.9100    5.0710  -31.1580 O   0  0  0  0  0  0
  -12.1660    6.2950  -29.4450 N   0  0  0  0  0  0
  -11.0260    5.5230  -29.2970 O   0  0  0  0  0  0
  -15.5390    5.7470  -30.0750 C   0  0  2  0  0  0
  -16.8890    6.3080  -30.6430 C   0  0  0  0  0  0
  -17.0380    7.5400  -30.7230 O   0  0  0  0  0  0
  -15.4020    6.1400  -28.5770 C   0  0  0  0  0  0
  -16.4430    5.3020  -27.7910 C   0  0  0  0  0  0
  -16.4480    5.5840  -26.3190 C   0  0  0  0  0  0
  -17.3450    4.5260  -25.6810 C   0  0  0  0  0  0
  -18.8040    4.9680  -25.7230 C   0  0  0  0  0  0
  -17.7620    5.2940  -30.9740 N   0  0  0  0  0  0
  -19.1390    5.7910  -30.6900 C   0  0  1  0  0  0
  -19.8890    5.6290  -32.0890 C   0  0  0  0  0  0
  -19.6120    6.8170  -33.0460 C   0  0  0  0  0  0
  -19.5010    4.2950  -32.8330 C   0  0  0  0  0  0
  -19.9160    4.9540  -29.6240 C   0  0  0  0  0  0
  -19.4120    3.9610  -29.1460 O   0  0  0  0  0  0
  -21.2540    5.7280  -29.3630 N   0  0  0  0  0  0
  -22.2220    5.2020  -28.3520 C   0  0  1  0  0  0
  -21.8520    7.0110  -29.8960 C   0  0  0  0  0  0
  -22.7320    7.5250  -28.7400 C   0  0  0  0  0  0
  -23.3980    6.2000  -28.3140 C   0  0  0  0  0  0
  -22.7530    3.8120  -28.7680 C   0  0  0  0  0  0
  -23.6650    3.2990  -27.7990 O   0  0  0  0  0  0
  -14.5623    7.6270  -30.8062 H   0  0  0  0  0  0
  -14.5651    6.2996  -32.0164 H   0  0  0  0  0  0
  -12.3311    7.1632  -28.7901 H   0  0  0  0  0  0
  -10.2855    5.7780  -28.5245 H   0  0  0  0  0  0
  -15.4343    4.6526  -30.1126 H   0  0  0  0  0  0
  -14.3821    5.9163  -28.2311 H   0  0  0  0  0  0
  -15.6011    7.2155  -28.4604 H   0  0  0  0  0  0
  -17.4518    5.5198  -28.1717 H   0  0  0  0  0  0
  -16.2254    4.2316  -27.9207 H   0  0  0  0  0  0
  -15.4215    5.5173  -25.9294 H   0  0  0  0  0  0
  -16.8429    6.5951  -26.1407 H   0  0  0  0  0  0
  -17.2424    3.5786  -26.2305 H   0  0  0  0  0  0
  -17.0468    4.3761  -24.6329 H   0  0  0  0  0  0
  -19.4348    4.1949  -25.2598 H   0  0  0  0  0  0
  -19.1126    5.1151  -26.7685 H   0  0  0  0  0  0
  -18.9169    5.9127  -25.1709 H   0  0  0  0  0  0
  -17.6149    4.2799  -31.3739 H   0  0  0  0  0  0
  -19.0375    6.8036  -30.2724 H   0  0  0  0  0  0
  -20.9647    5.6168  -31.8594 H   0  0  0  0  0  0
  -19.8765    7.7602  -32.5456 H   0  0  0  0  0  0
  -20.2177    6.7028  -33.9571 H   0  0  0  0  0  0
  -18.5453    6.8307  -33.3142 H   0  0  0  0  0  0
  -19.6900    3.4374  -32.1706 H   0  0  0  0  0  0
  -18.4349    4.3222  -33.1024 H   0  0  0  0  0  0
  -20.1073    4.1943  -33.7453 H   0  0  0  0  0  0
  -21.7072    5.1087  -27.3844 H   0  0  0  0  0  0
  -21.0450    7.7155  -30.1459 H   0  0  0  0  0  0
  -22.4415    6.7935  -30.7989 H   0  0  0  0  0  0
  -22.0938    7.9769  -27.9664 H   0  0  0  0  0  0
  -23.4353    8.2796  -29.1220 H   0  0  0  0  0  0
  -24.1798    5.8723  -29.0150 H   0  0  0  0  0  0
  -23.8121    6.2402  -27.2957 H   0  0  0  0  0  0
  -23.2742    3.8925  -29.7333 H   0  0  0  0  0  0
  -21.9106    3.1112  -28.8635 H   0  0  0  0  0  0
  -24.1323    2.3148  -27.9504 H   0  0  0  0  0  0
  1  2  1  0  0  0
  1  6  1  0  0  0
  1 28  1  0  0  0
  1 29  1  0  0  0
  2  3  2  0  0  0
  2  4  1  0  0  0
  4  5  1  0  0  0
  4 30  1  0  0  0
  5 31  1  0  0  0
  6  7  1  0  0  0
  6  9  1  0  0  0
  6 32  1  0  0  0
  7  8  2  0  0  0
  7 14  1  0  0  0
  9 10  1  0  0  0
  9 33  1  0  0  0
  9 34  1  0  0  0
 10 11  1  0  0  0
 10 35  1  0  0  0
 10 36  1  0  0  0
 11 12  1  0  0  0
 11 37  1  0  0  0
 11 38  1  0  0  0
 12 13  1  0  0  0
 12 39  1  0  0  0
 12 40  1  0  0  0
 13 41  1  0  0  0
 13 42  1  0  0  0
 13 43  1  0  0  0
 14 15  1  0  0  0
 14 44  1  0  0  0
 15 16  1  0  0  0
 15 19  1  0  0  0
 15 45  1  0  0  0
 16 17  1  0  0  0
 16 18  1  0  0  0
 16 46  1  0  0  0
 17 47  1  0  0  0
 17 48  1  0  0  0
 17 49  1  0  0  0
 18 50  1  0  0  0
 18 51  1  0  0  0
 18 52  1  0  0  0
 19 20  2  0  0  0
 19 21  1  0  0  0
 21 22  1  0  0  0
 21 23  1  0  0  0
 22 25  1  0  0  0
 22 26  1  0  0  0
 22 53  1  0  0  0
 23 24  1  0  0  0
 23 54  1  0  0  0
 23 55  1  0  0  0
 24 25  1  0  0  0
 24 56  1  0  0  0
 24 57  1  0  0  0
 25 58  1  0  0  0
 25 59  1  0  0  0
 26 27  1  0  0  0
 26 60  1  0  0  0
 26 61  1  0  0  0
 27 62  1  0  0  0
M  END
> <s_m_source_file>
../3m6r_ligand.sdf

> <i_m_source_file_index>
1

> <s_epik_input>
W0NIM11bQ0gyXVtDSDJdW0NIMl1bQ0gyXVtDQEhdKFtDSDJdQyg9TylbTkhdW09IXSlDKD1PKVtOSF1bQ0BASF0oW0NIXShbQ0gzXSlbQ0gzXSlDKD1PKU4xW0NASF0oW0NIMl1bT0hdKVtDSDJdW0NIMl1bQ0gyXTE=

> <s_epik_cmdline>
J2VwaWtfYXBwJywgJy1pbWFlJywgJ2xpZ2FuZF9wcm8ubWFlJywgJy1vbWFlJywgJ2xpZ2FuZF9wcmVwLm1hZScsICctbXMnLCAnMScsICctcGgnLCAnNycsICctcGh0JywgJzAuNScsICctbnQn

> <r_lp_tautomer_probability>
1

> <r_epik_Ionization_Penalty>
  0.0055

> <r_epik_Ionization_Penalty_Charging>
  0.0000

> <r_epik_Ionization_Penalty_Neutral>
  0.0055

> <r_epik_State_Penalty>
 -0.0000

> <r_epik_Charging_Adjusted_Penalty>
0

> <i_epik_Tot_Q>
0

> <i_epik_Tot_abs_Q>
0

> <s_epik_Chemistry_Notes>
This compound has a N-S or N-O group and may undergo hydrolysis at high or low pH.

$$$$
