3m89_ligand
                    3D
 Schrodinger Suite 2020-3.
 45 47  0  0  1  0            999 V2000
  -18.2990  -22.9910  -20.8370 P   0  0  1  0  0  0
  -19.0790  -23.0480  -19.3760 O   0  0  0  0  0  0
  -18.9740  -24.6010  -21.5030 S   0  0  0  0  0  0
  -18.7890  -21.6980  -21.3940 O   0  0  0  0  0  0
  -16.8340  -23.2910  -20.7280 O   0  5  0  0  0  0
  -19.0160  -21.9530  -18.1140 P   0  0  1  0  0  0
  -18.1790  -20.9390  -18.7060 O   0  0  0  0  0  0
  -20.3150  -21.4010  -17.6090 O   0  5  0  0  0  0
  -18.9770  -23.8550  -16.0120 P   0  0  1  0  0  0
  -20.0570  -23.2180  -15.2070 O   0  0  0  0  0  0
  -19.1970  -25.0660  -16.8820 O   0  5  0  0  0  0
  -18.3170  -22.7270  -16.8870 O   0  0  0  0  0  0
  -17.7740  -24.2360  -14.9460 O   0  0  0  0  0  0
  -16.4520  -23.5800  -14.8870 C   0  0  0  0  0  0
  -15.6960  -24.2420  -13.7520 C   0  0  1  0  0  0
  -16.6280  -24.6030  -12.6480 O   0  0  0  0  0  0
  -14.9890  -25.5960  -14.1380 C   0  0  1  0  0  0
  -13.6270  -25.5400  -13.5980 O   0  0  0  0  0  0
  -15.8500  -26.7430  -13.4630 C   0  0  1  0  0  0
  -15.0340  -27.8780  -13.0160 O   0  0  0  0  0  0
  -16.6010  -26.0140  -12.2760 C   0  0  2  0  0  0
  -18.0540  -26.3520  -12.0770 N   0  0  0  0  0  0
  -19.0880  -26.6970  -12.9460 C   0  0  0  0  0  0
  -20.2530  -26.9380  -12.4070 N   0  0  0  0  0  0
  -19.9880  -26.7270  -11.0460 C   0  0  0  0  0  0
  -20.9040  -26.8460   -9.8900 C   0  0  0  0  0  0
  -22.0980  -27.1550  -10.0260 O   0  0  0  0  0  0
  -20.2120  -26.5410   -8.6590 N   0  3  0  0  0  0
  -18.8360  -26.1880   -8.5230 C   0  0  0  0  0  0
  -18.3150  -25.9350   -7.3370 N   0  0  0  0  0  0
  -18.0020  -26.0930   -9.6130 N   0  0  0  0  0  0
  -18.6360  -26.3780  -10.8380 C   0  0  0  0  0  0
  -20.0514  -24.7069  -21.6982 H   0  0  0  0  0  0
  -15.9291  -23.7221  -15.8443 H   0  0  0  0  0  0
  -16.5844  -22.5045  -14.6977 H   0  0  0  0  0  0
  -14.9758  -23.4690  -13.4459 H   0  0  0  0  0  0
  -14.8504  -25.7729  -15.2148 H   0  0  0  0  0  0
  -12.9162  -24.7900  -13.9752 H   0  0  0  0  0  0
  -16.5178  -27.2774  -14.1546 H   0  0  0  0  0  0
  -14.4623  -28.4667  -13.7486 H   0  0  0  0  0  0
  -16.0938  -26.2534  -11.3297 H   0  0  0  0  0  0
  -18.9318  -26.7624  -14.0228 H   0  0  0  0  0  0
  -18.9426  -25.9981   -6.4358 H   0  0  0  0  0  0
  -17.2532  -25.6611   -7.2498 H   0  0  0  0  0  0
  -20.7537  -26.5692   -7.7020 H   0  0  0  0  0  0
  1  2  1  0  0  0
  1  3  1  0  0  0
  1  4  2  0  0  0
  1  5  1  0  0  0
  2  6  1  0  0  0
  3 33  1  0  0  0
  6  7  2  0  0  0
  6  8  1  0  0  0
  6 12  1  0  0  0
  9 10  2  0  0  0
  9 11  1  0  0  0
  9 12  1  0  0  0
  9 13  1  0  0  0
 13 14  1  0  0  0
 14 15  1  0  0  0
 14 34  1  0  0  0
 14 35  1  0  0  0
 15 16  1  0  0  0
 15 17  1  0  0  0
 15 36  1  0  0  0
 16 21  1  0  0  0
 17 18  1  0  0  0
 17 19  1  0  0  0
 17 37  1  0  0  0
 18 38  1  0  0  0
 19 20  1  0  0  0
 19 21  1  0  0  0
 19 39  1  0  0  0
 20 40  1  0  0  0
 21 22  1  0  0  0
 21 41  1  0  0  0
 22 23  1  0  0  0
 22 32  1  0  0  0
 23 24  2  0  0  0
 23 42  1  0  0  0
 24 25  1  0  0  0
 25 26  1  0  0  0
 25 32  2  0  0  0
 26 27  2  0  0  0
 26 28  1  0  0  0
 28 29  1  0  0  0
 28 45  1  0  0  0
 29 30  1  0  0  0
 29 31  2  0  0  0
 30 43  1  0  0  0
 30 44  1  0  0  0
 31 32  1  0  0  0
M  CHG  4   5  -1   8  -1  11  -1  28   1
M  END
> <s_m_source_file>
../3m89_ligand.sdf

> <i_m_source_file_index>
1

> <s_epik_input>
W1NIXVtQQF0oPU8pKFtPSF0pT1tQQEBdKD1PKShbT0hdKU9bUEBAXSg9TykoW09IXSlPW0NIMl1bQ0BIXTFPW0NASF0oW0NASF0oW09IXSlbQ0BASF0xW09IXSluKFtjSF1uMiljKGMyMylbbkhdYyg9TlxbSF0pXFtuSF1jMz1P

> <s_epik_cmdline>
J2VwaWtfYXBwJywgJy1pbWFlJywgJ2xpZ2FuZF9wcm8ubWFlJywgJy1vbWFlJywgJ2xpZ2FuZF9wcmVwLm1hZScsICctbXMnLCAnMScsICctcGgnLCAnNycsICctcGh0JywgJzAuNScsICctbnQn

> <r_lp_tautomer_probability>
1

> <r_epik_Ionization_Penalty>
  2.4687

> <r_epik_Ionization_Penalty_Charging>
  2.3889

> <r_epik_Ionization_Penalty_Neutral>
  0.0798

> <r_epik_State_Penalty>
 -0.0000

> <r_epik_Charging_Adjusted_Penalty>
2.38892939070001

> <i_epik_Tot_Q>
-2

> <i_epik_Tot_abs_Q>
4

> <s_epik_Chemistry_Notes>
This compound has an imine and may undergo hydrolysis. This compound contains an acetal/aminal-like group ( X-CH(R)-Y where X, Y are N, S, or O) that may be acid/base labile, releasing an aldehyde.

$$$$
