3m8p_ligand
                    3D
 Schrodinger Suite 2020-3.
 43 45  0  0  1  0            999 V2000
   47.9040   63.5680   18.4550 C   0  0  0  0  0  0
   47.2220   62.8850   17.4840 O   0  0  0  0  0  0
   48.4750   62.9450   19.5340 C   0  0  0  0  0  0
   48.2670   61.4780   19.6200 C   0  0  0  0  0  0
   49.1690   63.6380   20.4660 C   0  0  0  0  0  0
   49.3260   65.0450   20.2720 C   0  0  0  0  0  0
   48.7950   65.7150   19.1790 C   0  0  0  0  0  0
   48.0490   64.9330   18.2810 C   0  0  0  0  0  0
   47.3720   65.5150   17.0620 C   0  0  0  0  0  0
   47.9240   62.6310   16.3520 C   0  0  0  0  0  0
   49.1360   63.1130   16.0130 N   0  0  0  0  0  0
   49.7040   62.7730   14.8630 C   0  0  0  0  0  0
   50.9760   63.2390   14.4950 N   0  0  0  0  0  0
   49.0640   61.9550   14.0420 N   0  0  0  0  0  0
   47.8750   61.4840   14.3090 C   0  0  0  0  0  0
   47.1780   60.6560   13.4450 N   0  0  0  0  0  0
   47.2950   61.8310   15.4960 C   0  0  0  0  0  0
   51.6350   64.2330   15.1740 C   0  0  0  0  0  0
   51.3040   64.5860   16.5010 C   0  0  0  0  0  0
   52.0060   65.5850   17.1580 C   0  0  0  0  0  0
   53.0340   66.2480   16.4800 C   0  0  0  0  0  0
   53.3340   65.8760   15.1530 C   0  0  0  0  0  0
   52.6570   64.8730   14.4880 C   0  0  0  0  0  0
   53.8380   67.2970   17.0870 C   0  0  0  0  0  0
   54.5340   68.1430   17.4750 N   0  0  0  0  0  0
   50.0200   65.8690   21.2030 C   0  0  0  0  0  0
   50.5830   66.5110   21.9770 N   0  0  0  0  0  0
   45.6200   61.2370   16.0680 Br  0  0  0  0  0  0
   47.6772   61.1400   18.7552 H   0  0  0  0  0  0
   47.7276   61.2380   20.5481 H   0  0  0  0  0  0
   49.2421   60.9688   19.6205 H   0  0  0  0  0  0
   49.5946   63.1392   21.3367 H   0  0  0  0  0  0
   48.9474   66.7834   19.0262 H   0  0  0  0  0  0
   46.8514   64.7153   16.5148 H   0  0  0  0  0  0
   48.1272   65.9753   16.4079 H   0  0  0  0  0  0
   46.6446   66.2781   17.3759 H   0  0  0  0  0  0
   51.4908   62.8041   13.6256 H   0  0  0  0  0  0
   47.6249   60.3632   12.4835 H   0  0  0  0  0  0
   46.1774   60.2912   13.7202 H   0  0  0  0  0  0
   50.4913   64.0696   17.0119 H   0  0  0  0  0  0
   51.7606   65.8494   18.1866 H   0  0  0  0  0  0
   54.1333   66.4020   14.6309 H   0  0  0  0  0  0
   52.9150   64.5954   13.4660 H   0  0  0  0  0  0
  1  2  1  0  0  0
  1  3  2  0  0  0
  1  8  1  0  0  0
  2 10  1  0  0  0
  3  4  1  0  0  0
  3  5  1  0  0  0
  4 29  1  0  0  0
  4 30  1  0  0  0
  4 31  1  0  0  0
  5  6  2  0  0  0
  5 32  1  0  0  0
  6  7  1  0  0  0
  6 26  1  0  0  0
  7  8  2  0  0  0
  7 33  1  0  0  0
  8  9  1  0  0  0
  9 34  1  0  0  0
  9 35  1  0  0  0
  9 36  1  0  0  0
 10 11  2  0  0  0
 10 17  1  0  0  0
 11 12  1  0  0  0
 12 13  1  0  0  0
 12 14  2  0  0  0
 13 18  1  0  0  0
 13 37  1  0  0  0
 14 15  1  0  0  0
 15 16  1  0  0  0
 15 17  2  0  0  0
 16 38  1  0  0  0
 16 39  1  0  0  0
 17 28  1  0  0  0
 18 19  2  0  0  0
 18 23  1  0  0  0
 19 20  1  0  0  0
 19 40  1  0  0  0
 20 21  2  0  0  0
 20 41  1  0  0  0
 21 22  1  0  0  0
 21 24  1  0  0  0
 22 23  2  0  0  0
 22 42  1  0  0  0
 23 43  1  0  0  0
 24 25  3  0  0  0
 26 27  3  0  0  0
M  END
> <s_m_source_file>
../3m8p_ligand.sdf

> <i_m_source_file_index>
1

> <s_epik_input>
W0NIM11jMVtjSF1jKEMjTilbY0hdYyhbQ0gzXSljMU9jMm5jKG5jKFtOSDJdKWMyQnIpW05IXWMzW2NIXVtjSF1jKEMjTilbY0hdW2NIXTM=

> <s_epik_cmdline>
J2VwaWtfYXBwJywgJy1pbWFlJywgJ2xpZ2FuZF9wcm8ubWFlJywgJy1vbWFlJywgJ2xpZ2FuZF9wcmVwLm1hZScsICctbXMnLCAnMScsICctcGgnLCAnNycsICctcGh0JywgJzAuNScsICctbnQn

> <r_lp_tautomer_probability>
1

> <r_epik_Ionization_Penalty>
  0.0000

> <r_epik_Ionization_Penalty_Charging>
  0.0000

> <r_epik_Ionization_Penalty_Neutral>
  0.0000

> <r_epik_State_Penalty>
 -0.0000

> <r_epik_Charging_Adjusted_Penalty>
0

> <i_epik_Tot_Q>
0

> <i_epik_Tot_abs_Q>
0

$$$$
