3m8q_ligand
                    3D
 Schrodinger Suite 2020-3.
 65 68  0  0  1  0            999 V2000
   47.0640   62.6010   17.1410 O   0  0  0  0  0  0
   47.5350   62.2890   15.8800 C   0  0  0  0  0  0
   48.7320   62.8470   15.3710 N   0  0  0  0  0  0
   48.5990   61.6920   13.2100 N   0  0  0  0  0  0
   47.4070   61.1020   13.6790 C   0  0  0  0  0  0
   49.2650   62.5910   14.1000 C   0  0  0  0  0  0
   46.8480   61.3950   15.0290 C   0  0  0  0  0  0
   47.8630   63.3860   18.0110 C   0  0  0  0  0  0
   47.9590   64.8070   17.7580 C   0  0  0  0  0  0
   48.7900   65.6280   18.6130 C   0  0  0  0  0  0
   49.4990   65.0310   19.7340 C   0  0  0  0  0  0
   49.3860   63.5930   19.9980 C   0  0  0  0  0  0
   48.5890   62.8170   19.1300 C   0  0  0  0  0  0
   48.5800   61.3570   19.4720 C   0  0  0  0  0  0
   47.2110   65.5320   16.6070 C   0  0  0  0  0  0
   50.2820   65.9280   20.5330 C   0  0  0  0  0  0
   50.4310   63.2040   13.7160 N   0  0  0  0  0  0
   51.3200   63.7750   14.6750 C   0  0  1  0  0  0
   52.7380   63.6800   14.1190 C   0  0  0  0  0  0
   53.5630   64.4980   15.0630 C   0  0  0  0  0  0
   53.1900   65.9110   15.0240 N   0  3  1  0  0  0
   51.8770   66.0280   15.7000 C   0  0  0  0  0  0
   50.7880   65.2540   14.8930 C   0  0  0  0  0  0
   50.9040   66.6410   21.1680 N   0  0  0  0  0  0
   54.2340   66.6740   15.7090 C   0  0  0  0  0  0
   54.0390   68.1930   15.5180 C   0  0  0  0  0  0
   54.5230   69.0390   16.5670 C   0  0  0  0  0  0
   54.3230   70.4360   16.3760 C   0  0  0  0  0  0
   53.6670   71.0650   15.2100 C   0  0  0  0  0  0
   53.1770   70.1840   14.1280 C   0  0  0  0  0  0
   53.3660   68.7850   14.2870 C   0  0  0  0  0  0
   53.4770   72.9010   15.1240 S   0  0  0  0  0  0
   54.2460   73.0980   13.9170 O   0  0  0  0  0  0
   52.0440   73.1550   14.9050 O   0  0  0  0  0  0
   54.4740   73.4980   16.5370 C   0  0  0  0  0  0
   46.8750   60.4061   13.0302 H   0  0  0  0  0  0
   45.9203   60.9252   15.3558 H   0  0  0  0  0  0
   48.8846   66.6959   18.4163 H   0  0  0  0  0  0
   49.9035   63.1362   20.8416 H   0  0  0  0  0  0
   47.9418   60.8169   18.7572 H   0  0  0  0  0  0
   48.1864   61.2214   20.4902 H   0  0  0  0  0  0
   49.6052   60.9618   19.4195 H   0  0  0  0  0  0
   46.6194   64.8009   16.0365 H   0  0  0  0  0  0
   47.9420   66.0126   15.9401 H   0  0  0  0  0  0
   46.5416   66.2962   17.0288 H   0  0  0  0  0  0
   50.6747   63.2500   12.6443 H   0  0  0  0  0  0
   51.3222   63.1908   15.6070 H   0  0  0  0  0  0
   53.0554   62.6269   14.1020 H   0  0  0  0  0  0
   52.7590   64.0858   13.0968 H   0  0  0  0  0  0
   53.4181   64.1304   16.0896 H   0  0  0  0  0  0
   54.6251   64.4132   14.7897 H   0  0  0  0  0  0
   53.1138   66.3014   13.9985 H   0  0  0  0  0  0
   51.9466   65.6031   16.7122 H   0  0  0  0  0  0
   51.5919   67.0883   15.7663 H   0  0  0  0  0  0
   50.6209   65.7312   13.9161 H   0  0  0  0  0  0
   49.8419   65.2245   15.4533 H   0  0  0  0  0  0
   54.2043   66.4511   16.7858 H   0  0  0  0  0  0
   55.2178   66.3949   15.3038 H   0  0  0  0  0  0
   55.0131   68.6394   17.4548 H   0  0  0  0  0  0
   54.6861   71.1010   17.1596 H   0  0  0  0  0  0
   52.6896   70.5923   13.2426 H   0  0  0  0  0  0
   53.0179   68.1134   13.5022 H   0  0  0  0  0  0
   55.5115   73.1493   16.4270 H   0  0  0  0  0  0
   54.0528   73.1060   17.4745 H   0  0  0  0  0  0
   54.4571   74.5977   16.5590 H   0  0  0  0  0  0
  1  2  1  0  0  0
  1  8  1  0  0  0
  2  3  2  0  0  0
  2  7  1  0  0  0
  3  6  1  0  0  0
  4  5  1  0  0  0
  4  6  2  0  0  0
  5  7  2  0  0  0
  5 36  1  0  0  0
  6 17  1  0  0  0
  7 37  1  0  0  0
  8  9  2  0  0  0
  8 13  1  0  0  0
  9 10  1  0  0  0
  9 15  1  0  0  0
 10 11  2  0  0  0
 10 38  1  0  0  0
 11 12  1  0  0  0
 11 16  1  0  0  0
 12 13  2  0  0  0
 12 39  1  0  0  0
 13 14  1  0  0  0
 14 40  1  0  0  0
 14 41  1  0  0  0
 14 42  1  0  0  0
 15 43  1  0  0  0
 15 44  1  0  0  0
 15 45  1  0  0  0
 16 24  3  0  0  0
 17 18  1  0  0  0
 17 46  1  0  0  0
 18 19  1  0  0  0
 18 23  1  0  0  0
 18 47  1  0  0  0
 19 20  1  0  0  0
 19 48  1  0  0  0
 19 49  1  0  0  0
 20 21  1  0  0  0
 20 50  1  0  0  0
 20 51  1  0  0  0
 21 22  1  0  0  0
 21 25  1  0  0  0
 21 52  1  0  0  0
 22 23  1  0  0  0
 22 53  1  0  0  0
 22 54  1  0  0  0
 23 55  1  0  0  0
 23 56  1  0  0  0
 25 26  1  0  0  0
 25 57  1  0  0  0
 25 58  1  0  0  0
 26 27  2  0  0  0
 26 31  1  0  0  0
 27 28  1  0  0  0
 27 59  1  0  0  0
 28 29  2  0  0  0
 28 60  1  0  0  0
 29 30  1  0  0  0
 29 32  1  0  0  0
 30 31  2  0  0  0
 30 61  1  0  0  0
 31 62  1  0  0  0
 32 33  2  0  0  0
 32 34  2  0  0  0
 32 35  1  0  0  0
 35 63  1  0  0  0
 35 64  1  0  0  0
 35 65  1  0  0  0
M  CHG  1  21   1
M  END
> <s_m_source_file>
../3m8q_ligand.sdf

> <i_m_source_file_index>
1

> <s_epik_input>
W0NIM11jMVtjSF1jKEMjTilbY0hdYyhbQ0gzXSljMU9jMm5jKG5bY0hdW2NIXTIpW05IXVtDQEhdM1tDSDJdW0NIMl1bTkBASCtdKFtDSDJdW0NIMl0zKVtDSDJdYzRbY0hdW2NIXWMoW2NIXVtjSF00KVMoPU8pKD1PKVtDSDNd

> <s_epik_cmdline>
J2VwaWtfYXBwJywgJy1pbWFlJywgJ2xpZ2FuZF9wcm8ubWFlJywgJy1vbWFlJywgJ2xpZ2FuZF9wcmVwLm1hZScsICctbXMnLCAnMScsICctcGgnLCAnNycsICctcGh0JywgJzAuNScsICctbnQn

> <r_lp_tautomer_probability>
0.999999917912647

> <r_epik_Ionization_Penalty>
  0.1965

> <r_epik_Ionization_Penalty_Charging>
  0.1965

> <r_epik_Ionization_Penalty_Neutral>
  0.0000

> <r_epik_State_Penalty>
  0.1862

> <r_epik_Charging_Adjusted_Penalty>
0.382731643022744

> <i_epik_Tot_Q>
1

> <i_epik_Tot_abs_Q>
1

$$$$
