3m93_ligand
                    3D
 Schrodinger Suite 2020-3.
 43 45  0  0  1  0            999 V2000
   -4.5780  -14.4720  -32.6400 P   0  0  1  0  0  0
   -3.1260  -14.4970  -32.2140 O   0  5  0  0  0  0
   -5.3470  -15.7750  -32.6150 O   0  0  0  0  0  0
   -5.4220  -13.3930  -31.7500 O   0  0  0  0  0  0
   -4.5990  -13.8110  -34.1190 O   0  0  0  0  0  0
   -6.4150  -12.1940  -32.2600 P   0  0  0  0  0  0
   -5.8290  -11.3990  -33.4140 O   0  5  0  0  0  0
   -6.7950  -11.4120  -31.0200 O   0  0  0  0  0  0
   -7.7410  -12.9530  -32.7940 O   0  5  0  0  0  0
   -5.3030  -14.3290  -35.2520 C   0  0  0  0  0  0
   -4.3810  -14.0990  -36.4420 C   0  0  1  0  0  0
   -3.2150  -14.8980  -36.2570 O   0  0  0  0  0  0
   -4.9780  -14.5070  -37.7790 C   0  0  1  0  0  0
   -4.5540  -13.5540  -38.7700 O   0  0  0  0  0  0
   -4.4120  -15.8910  -38.0680 C   0  0  1  0  0  0
   -4.0860  -16.0840  -39.4570 O   0  0  0  0  0  0
   -3.1540  -15.9550  -37.2150 C   0  0  2  0  0  0
   -2.9440  -17.2340  -36.4920 N   0  3  0  0  0  0
   -2.8620  -17.3680  -35.1570 C   0  0  0  0  0  0
   -2.6380  -18.6520  -34.8390 N   0  0  0  0  0  0
   -2.5010  -19.1760  -33.4550 C   0  0  0  0  0  0
   -2.5700  -19.3150  -35.9970 C   0  0  0  0  0  0
   -2.3520  -20.6690  -36.2300 C   0  0  0  0  0  0
   -2.1850  -21.4820  -35.2930 O   0  0  0  0  0  0
   -2.3370  -21.0840  -37.5240 N   0  0  0  0  0  0
   -2.5230  -20.2080  -38.5460 C   0  0  0  0  0  0
   -2.4970  -20.6590  -39.8160 N   0  0  0  0  0  0
   -2.7320  -18.8910  -38.3190 N   0  0  0  0  0  0
   -2.7580  -18.4330  -37.0440 C   0  0  0  0  0  0
   -5.5045  -15.3997  -35.1003 H   0  0  0  0  0  0
   -6.2546  -13.7900  -35.3703 H   0  0  0  0  0  0
   -4.1187  -13.0311  -36.4702 H   0  0  0  0  0  0
   -6.0772  -14.4911  -37.8185 H   0  0  0  0  0  0
   -4.8806  -12.5059  -38.7003 H   0  0  0  0  0  0
   -5.1398  -16.6967  -37.8914 H   0  0  0  0  0  0
   -4.8819  -16.0676  -40.2162 H   0  0  0  0  0  0
   -2.2783  -15.8302  -37.8688 H   0  0  0  0  0  0
   -2.9626  -16.5540  -34.4391 H   0  0  0  0  0  0
   -2.6120  -18.3497  -32.7374 H   0  0  0  0  0  0
   -1.5093  -19.6362  -33.3337 H   0  0  0  0  0  0
   -3.2803  -19.9299  -33.2696 H   0  0  0  0  0  0
   -2.3281  -21.7272  -40.0170 H   0  0  0  0  0  0
   -2.6447  -19.9588  -40.6514 H   0  0  0  0  0  0
  1  2  1  0  0  0
  1  3  2  0  0  0
  1  4  1  0  0  0
  1  5  1  0  0  0
  4  6  1  0  0  0
  5 10  1  0  0  0
  6  7  1  0  0  0
  6  8  2  0  0  0
  6  9  1  0  0  0
 10 11  1  0  0  0
 10 30  1  0  0  0
 10 31  1  0  0  0
 11 12  1  0  0  0
 11 13  1  0  0  0
 11 32  1  0  0  0
 12 17  1  0  0  0
 13 14  1  0  0  0
 13 15  1  0  0  0
 13 33  1  0  0  0
 14 34  1  0  0  0
 15 16  1  0  0  0
 15 17  1  0  0  0
 15 35  1  0  0  0
 16 36  1  0  0  0
 17 18  1  0  0  0
 17 37  1  0  0  0
 18 19  2  0  0  0
 18 29  1  0  0  0
 19 20  1  0  0  0
 19 38  1  0  0  0
 20 21  1  0  0  0
 20 22  1  0  0  0
 21 39  1  0  0  0
 21 40  1  0  0  0
 21 41  1  0  0  0
 22 23  1  0  0  0
 22 29  2  0  0  0
 23 24  2  0  0  0
 23 25  1  0  0  0
 25 26  1  0  0  0
 26 27  1  0  0  0
 26 28  2  0  0  0
 27 42  1  0  0  0
 27 43  1  0  0  0
 28 29  1  0  0  0
M  CHG  4   2  -1   7  -1   9  -1  18   1
M  END
> <s_m_source_file>
../3m93_ligand.sdf

> <i_m_source_file_index>
1

> <s_epik_input>
W09IXVAoPU8pKFtPSF0pT1tQQF0oPU8pKFtPSF0pT1tDSDJdW0NASF0xT1tDQEhdKFtDQEhdKFtPSF0pW0NAQEhdMVtPSF0pW24rXShbY0hdbjJbQ0gzXSljKGMyMylbbkhdYyg9TlxbSF0pXFtuSF1jMz1P

> <s_epik_cmdline>
J2VwaWtfYXBwJywgJy1pbWFlJywgJ2xpZ2FuZF9wcm8ubWFlJywgJy1vbWFlJywgJ2xpZ2FuZF9wcmVwLm1hZScsICctbXMnLCAnMScsICctcGgnLCAnNycsICctcGh0JywgJzAuNScsICctbnQn

> <r_epik_Ionization_Penalty>
  0.1034

> <r_epik_Ionization_Penalty_Charging>
  0.1033

> <r_epik_Ionization_Penalty_Neutral>
  0.0002

> <r_epik_State_Penalty>
  0.0921

> <r_epik_Charging_Adjusted_Penalty>
0.195403953447929

> <i_epik_Tot_Q>
-2

> <i_epik_Tot_abs_Q>
4

> <s_epik_Chemistry_Notes>
This compound has an imine and may undergo hydrolysis. This compound contains an acetal/aminal-like group ( X-CH(R)-Y where X, Y are N, S, or O) that may be acid/base labile, releasing an aldehyde.

$$$$
