3m94_ligand
                    3D
 Schrodinger Suite 2020-3.
 50 52  0  0  1  0            999 V2000
    7.8120   12.1920    3.4680 O   0  5  0  0  0  0
    6.7100   11.6030    5.5970 O   0  0  0  0  0  0
    6.4400   12.2750    4.2970 P   0  0  0  0  0  0
    5.3300   11.7750    3.4370 O   0  5  0  0  0  0
    1.9920   21.5080    0.0090 O   0  0  0  0  0  0
    2.4060   19.7330    2.0700 C   0  0  0  0  0  0
    6.1800   13.8340    4.5650 O   0  0  0  0  0  0
    2.1200   20.7570   -2.0930 N   0  0  0  0  0  0
    2.1780   20.5710   -0.7800 C   0  0  0  0  0  0
    2.4670   19.3060   -0.3600 C   0  0  0  0  0  0
    2.5800   18.8990    0.8740 N   0  3  0  0  0  0
    2.8650   17.6100    0.8220 C   0  0  0  0  0  0
    3.7110   13.8640    4.9230 O   0  0  0  0  0  0
    4.7980   14.5880    4.2600 P   0  0  1  0  0  0
    5.0210   16.0380    4.4770 O   0  5  0  0  0  0
    2.3320   19.7370   -2.9210 C   0  0  0  0  0  0
    2.6140   18.4980   -2.5130 N   0  0  0  0  0  0
    2.6830   18.2730   -1.2060 C   0  0  0  0  0  0
    2.9190   17.2320   -0.4460 N   0  0  0  0  0  0
    3.2110   15.8800   -0.9170 C   0  0  2  0  0  0
    3.4030   14.9900    0.1660 O   0  0  0  0  0  0
    4.7730   14.7000    0.3820 C   0  0  2  0  0  0
    5.1740   15.1580    1.7660 C   0  0  0  0  0  0
    4.6320   14.2770    2.7170 O   0  0  0  0  0  0
    2.2560   20.0130   -4.2110 N   0  0  0  0  0  0
    2.4700   18.9710   -5.1780 C   0  0  0  0  0  0
    4.5170   15.9590   -1.6440 C   0  0  1  0  0  0
    5.5140   15.5770   -0.5850 C   0  0  2  0  0  0
    1.9590   21.3650   -4.6170 C   0  0  0  0  0  0
    4.4550   14.9930   -2.6770 O   0  0  0  0  0  0
    6.6240   14.8720   -1.1140 O   0  0  0  0  0  0
    2.1748   20.7648    1.7670 H   0  0  0  0  0  0
    3.3333   19.7236    2.6616 H   0  0  0  0  0  0
    1.5796   19.3352    2.6773 H   0  0  0  0  0  0
    3.0291   16.9625    1.6833 H   0  0  0  0  0  0
    2.3602   15.4983   -1.5004 H   0  0  0  0  0  0
    4.9247   13.6188    0.2483 H   0  0  0  0  0  0
    6.2710   15.1613    1.8476 H   0  0  0  0  0  0
    4.7902   16.1738    1.9416 H   0  0  0  0  0  0
    2.6805   18.0252   -4.6573 H   0  0  0  0  0  0
    3.3244   19.2350   -5.8185 H   0  0  0  0  0  0
    1.5688   18.8555   -5.7981 H   0  0  0  0  0  0
    4.7635   16.9071   -2.1443 H   0  0  0  0  0  0
    5.9776   16.4629   -0.1265 H   0  0  0  0  0  0
    1.8329   21.9963   -3.7251 H   0  0  0  0  0  0
    1.0310   21.3750   -5.2075 H   0  0  0  0  0  0
    2.7866   21.7545   -5.2280 H   0  0  0  0  0  0
    3.7678   15.1367   -3.5238 H   0  0  0  0  0  0
    7.4293   14.5328   -0.4458 H   0  0  0  0  0  0
    1.8965   21.7551   -2.4978 H   0  0  0  0  0  0
  1  3  1  0  0  0
  2  3  2  0  0  0
  3  4  1  0  0  0
  3  7  1  0  0  0
  5  9  2  0  0  0
  6 11  1  0  0  0
  6 32  1  0  0  0
  6 33  1  0  0  0
  6 34  1  0  0  0
  7 14  1  0  0  0
  8  9  1  0  0  0
  8 16  1  0  0  0
  8 50  1  0  0  0
  9 10  1  0  0  0
 10 11  1  0  0  0
 10 18  2  0  0  0
 11 12  2  0  0  0
 12 19  1  0  0  0
 12 35  1  0  0  0
 13 14  2  0  0  0
 14 15  1  0  0  0
 14 24  1  0  0  0
 16 17  2  0  0  0
 16 25  1  0  0  0
 17 18  1  0  0  0
 18 19  1  0  0  0
 19 20  1  0  0  0
 20 21  1  0  0  0
 20 27  1  0  0  0
 20 36  1  0  0  0
 21 22  1  0  0  0
 22 23  1  0  0  0
 22 28  1  0  0  0
 22 37  1  0  0  0
 23 24  1  0  0  0
 23 38  1  0  0  0
 23 39  1  0  0  0
 25 26  1  0  0  0
 25 29  1  0  0  0
 26 40  1  0  0  0
 26 41  1  0  0  0
 26 42  1  0  0  0
 27 28  1  0  0  0
 27 30  1  0  0  0
 27 43  1  0  0  0
 28 31  1  0  0  0
 28 44  1  0  0  0
 29 45  1  0  0  0
 29 46  1  0  0  0
 29 47  1  0  0  0
 30 48  1  0  0  0
 31 49  1  0  0  0
M  CHG  4   1  -1   4  -1  11   1  15  -1
M  END
> <s_m_source_file>
../3m94_ligand.sdf

> <i_m_source_file_index>
1

> <s_epik_input>
W09IXVAoPU8pKFtPSF0pT1tQQEBdKD1PKShbT0hdKU9bQ0gyXVtDQEhdKFtDQEBIXShbT0hdKVtDQEhdMVtPSF0pT1tDQEhdMW4oW2NIXVtuK10yW0NIM10pYyhjMjMpW25IXWMobmMzPU8pTihbQ0gzXSlbQ0gzXQ==

> <s_epik_cmdline>
J2VwaWtfYXBwJywgJy1pbWFlJywgJ2xpZ2FuZF9wcm8ubWFlJywgJy1vbWFlJywgJ2xpZ2FuZF9wcmVwLm1hZScsICctbXMnLCAnMScsICctcGgnLCAnNycsICctcGh0JywgJzAuNScsICctbnQn

> <r_lp_tautomer_probability>
0.999967801415809

> <r_epik_Ionization_Penalty>
  0.2902

> <r_epik_Ionization_Penalty_Charging>
  0.2902

> <r_epik_Ionization_Penalty_Neutral>
  0.0000

> <r_epik_State_Penalty>
  0.0029

> <r_epik_Charging_Adjusted_Penalty>
0.293070391407507

> <i_epik_Tot_Q>
-2

> <i_epik_Tot_abs_Q>
4

> <s_epik_Chemistry_Notes>
This compound contains an acetal/aminal-like group ( X-CH(R)-Y where X, Y are N, S, or O) that may be acid/base labile, releasing an aldehyde.

$$$$
