3m96_ligand
                    3D
 Schrodinger Suite 2020-3.
 36 38  0  0  1  0            999 V2000
   -0.2710    4.6250   11.0300 N   0  0  0  0  0  0
   -1.1940    3.7840   11.5270 C   0  0  0  0  0  0
   -1.8170    4.3030   12.6130 N   0  3  0  0  0  0
   -1.2880    5.5040   12.7800 C   0  0  0  0  0  0
   -0.3130    5.7000   11.8200 C   0  0  0  0  0  0
    0.4660    6.8740   11.7480 C   0  0  0  0  0  0
    0.2040    7.8520   12.7210 C   0  0  0  0  0  0
   -0.8230    7.5760   13.6760 C   0  0  0  0  0  0
   -1.6080    6.4480   13.7310 C   0  0  0  0  0  0
   -1.6170    2.1790   10.8660 S   0  0  0  0  0  0
   -3.0000    1.7600   12.0340 C   0  0  0  0  0  0
   -4.1650    2.7500   12.1140 C   0  0  0  0  0  0
   -4.6320    3.3460   11.0770 O   0  0  0  0  0  0
   -1.2970    8.7700   15.0770 Br  0  0  0  0  0  0
   -4.7670    3.0550   13.5230 C   0  0  0  0  0  0
   -5.0000    1.9870   14.4210 C   0  0  0  0  0  0
   -5.5450    2.1980   15.6290 C   0  0  0  0  0  0
   -5.9720    3.4660   16.0130 C   0  0  0  0  0  0
   -5.7520    4.5410   15.1320 C   0  0  0  0  0  0
   -5.1900    4.3260   13.9260 C   0  0  0  0  0  0
   -5.8940    0.7730   16.6870 S   0  0  0  0  0  0
   -7.3930    0.6870   16.6940 O   0  0  0  0  0  0
   -6.7030    3.7980   17.4640 Cl  0  0  0  0  0  0
   -5.2650    1.0420   17.9690 O   0  0  0  0  0  0
   -5.2850   -0.5600   16.0000 N   0  0  0  0  0  0
    1.2277    7.0139   10.9810 H   0  0  0  0  0  0
    0.7633    8.7872   12.7470 H   0  0  0  0  0  0
   -2.4082    6.3135   14.4588 H   0  0  0  0  0  0
   -3.4480    0.7988   11.7419 H   0  0  0  0  0  0
   -2.6051    1.6844   13.0579 H   0  0  0  0  0  0
   -4.7315    0.9726   14.1259 H   0  0  0  0  0  0
   -6.0371    5.5511   15.4260 H   0  0  0  0  0  0
   -5.0613    5.1671   13.2448 H   0  0  0  0  0  0
   -5.4943   -1.4303   16.6393 H   0  0  0  0  0  0
   -4.1975   -0.4464   15.8798 H   0  0  0  0  0  0
   -2.5852    3.7170   13.1388 H   0  0  0  0  0  0
  1  2  2  0  0  0
  1  5  1  0  0  0
  2  3  1  0  0  0
  2 10  1  0  0  0
  3  4  1  0  0  0
  3 36  1  0  0  0
  4  5  2  0  0  0
  4  9  1  0  0  0
  5  6  1  0  0  0
  6  7  2  0  0  0
  6 26  1  0  0  0
  7  8  1  0  0  0
  7 27  1  0  0  0
  8  9  2  0  0  0
  8 14  1  0  0  0
  9 28  1  0  0  0
 10 11  1  0  0  0
 11 12  1  0  0  0
 11 29  1  0  0  0
 11 30  1  0  0  0
 12 13  2  0  0  0
 12 15  1  0  0  0
 15 16  2  0  0  0
 15 20  1  0  0  0
 16 17  1  0  0  0
 16 31  1  0  0  0
 17 18  2  0  0  0
 17 21  1  0  0  0
 18 19  1  0  0  0
 18 23  1  0  0  0
 19 20  2  0  0  0
 19 32  1  0  0  0
 20 33  1  0  0  0
 21 22  2  0  0  0
 21 24  2  0  0  0
 21 25  1  0  0  0
 25 34  1  0  0  0
 25 35  1  0  0  0
M  CHG  1   3   1
M  END
> <s_m_source_file>
../3m96_ligand.sdf

> <i_m_source_file_index>
1

> <s_epik_input>
W2NIXTFjKEJyKVtjSF1bY0hdYyhjMTIpbmMoW25IXTIpU1tDSDJdQyg9TyljM1tjSF1jKFMoPU8pKD1PKVtOSDJdKWMoQ2wpW2NIXVtjSF0z

> <s_epik_cmdline>
J2VwaWtfYXBwJywgJy1pbWFlJywgJ2xpZ2FuZF9wcm8ubWFlJywgJy1vbWFlJywgJ2xpZ2FuZF9wcmVwLm1hZScsICctbXMnLCAnMScsICctcGgnLCAnNycsICctcGh0JywgJzAuNScsICctbnQn

> <r_epik_Ionization_Penalty>
  0.0044

> <r_epik_Ionization_Penalty_Charging>
  0.0000

> <r_epik_Ionization_Penalty_Neutral>
  0.0044

> <r_epik_State_Penalty>
  0.0000

> <r_epik_Charging_Adjusted_Penalty>
7.68231617883821e-06

> <i_epik_Tot_Q>
1

> <i_epik_Tot_abs_Q>
1

> <s_epik_Chemistry_Notes>
This compound has an imine and may undergo hydrolysis.

$$$$
