3m9f_ligand
                    3D
 Schrodinger Suite 2020-3.
 94 96  0  0  1  0            999 V2000
  -13.7280   23.8690   -2.7340 C   0  0  0  0  0  0
  -12.9780   24.4600   -1.7810 N   0  0  0  0  0  0
  -17.9530   21.7060   -5.5680 O   0  0  0  0  0  0
  -16.3170   21.8720   -6.0010 S   0  0  0  0  0  0
  -13.6140   24.1790   -4.0880 C   0  0  0  0  0  0
  -14.3950   23.5670   -5.0720 C   0  0  0  0  0  0
  -15.3670   22.6010   -4.7850 C   0  0  0  0  0  0
  -15.4890   22.2980   -3.4310 C   0  0  0  0  0  0
  -14.7000   22.9030   -2.4450 C   0  0  0  0  0  0
  -15.6970   20.3240   -6.3300 N   0  0  3  0  0  0
  -16.1120   22.7840   -7.4070 O   0  0  0  0  0  0
  -16.2970   19.1910   -5.5510 C   0  0  1  0  0  0
  -16.9660   18.1000   -6.4050 C   0  0  0  0  0  0
  -14.9460   20.1280   -7.6000 C   0  0  0  0  0  0
  -13.4440   20.3240   -7.4430 C   0  0  0  0  0  0
  -13.0000   21.6920   -7.9520 C   0  0  0  0  0  0
  -13.4550   21.9340   -9.3960 C   0  0  0  0  0  0
  -11.4720   21.7510   -7.9050 C   0  0  0  0  0  0
  -18.2260   18.6580   -7.0930 C   0  0  0  0  0  0
  -18.8900   17.7100   -8.1040 C   0  0  0  0  0  0
  -19.4910   16.4720   -7.4360 C   0  0  1  0  0  0
  -20.6910   16.8280   -6.6860 N   0  0  0  0  0  0
  -21.2030   16.1570   -5.6410 C   0  0  0  0  0  0
  -22.5330   16.6210   -5.1110 C   0  0  1  0  0  0
  -23.5800   15.6720   -5.4830 N   0  0  0  0  0  0
  -24.5860   15.7710   -6.3710 C   0  0  0  0  0  0
  -25.3890   14.7020   -6.4900 O   0  0  0  0  0  0
  -26.5620   14.7750   -7.3370 C   0  0  0  0  0  0
  -24.8640   16.7280   -7.0890 O   0  0  0  0  0  0
  -15.4730   18.6230   -4.3780 C   0  0  0  0  0  0
  -14.0880   18.3200   -4.6190 O   0  0  0  0  0  0
  -20.6330   15.2210   -5.1020 O   0  0  0  0  0  0
  -23.6100   17.7300   -2.9820 C   0  0  0  0  0  0
  -21.1340   17.8830   -3.3570 C   0  0  0  0  0  0
  -20.0610   17.2570   -2.7250 C   0  0  0  0  0  0
  -18.8950   17.9760   -2.4410 C   0  0  0  0  0  0
  -18.7420   19.3210   -2.7690 C   0  0  0  0  0  0
  -19.8060   19.9630   -3.4000 C   0  0  0  0  0  0
  -20.9640   19.2340   -3.6660 C   0  0  0  0  0  0
  -23.7220   17.5600   -1.5990 C   0  0  0  0  0  0
  -24.7800   18.1120   -0.8850 C   0  0  0  0  0  0
  -25.7570   18.8630   -1.5420 C   0  0  0  0  0  0
  -25.6550   19.0510   -2.9170 C   0  0  0  0  0  0
  -24.5870   18.4870   -3.6230 C   0  0  0  0  0  0
  -19.9070   15.4960   -8.5470 C   0  0  0  0  0  0
  -22.4080   17.1100   -3.6670 C   0  0  0  0  0  0
  -12.2271   25.2136   -2.0607 H   0  0  0  0  0  0
  -13.1173   24.1882   -0.7242 H   0  0  0  0  0  0
  -12.8852   24.9303   -4.3921 H   0  0  0  0  0  0
  -14.2402   23.8552   -6.1118 H   0  0  0  0  0  0
  -16.2298   21.5588   -3.1261 H   0  0  0  0  0  0
  -14.8490   22.6090   -1.4060 H   0  0  0  0  0  0
  -17.1043   19.7534   -5.0591 H   0  0  0  0  0  0
  -16.2607   17.7526   -7.1743 H   0  0  0  0  0  0
  -17.2524   17.2549   -5.7617 H   0  0  0  0  0  0
  -15.1114   19.1053   -7.9697 H   0  0  0  0  0  0
  -15.2994   20.8507   -8.3502 H   0  0  0  0  0  0
  -13.1730   20.2444   -6.3799 H   0  0  0  0  0  0
  -12.9114   19.5507   -8.0160 H   0  0  0  0  0  0
  -13.4540   22.4621   -7.3111 H   0  0  0  0  0  0
  -14.5532   21.8945   -9.4459 H   0  0  0  0  0  0
  -13.0301   21.1577  -10.0493 H   0  0  0  0  0  0
  -13.1082   22.9234   -9.7288 H   0  0  0  0  0  0
  -11.1300   21.5789   -6.8738 H   0  0  0  0  0  0
  -11.1327   22.7411   -8.2435 H   0  0  0  0  0  0
  -11.0547   20.9754   -8.5640 H   0  0  0  0  0  0
  -18.9867   18.8896   -6.3329 H   0  0  0  0  0  0
  -17.9675   19.5742   -7.6441 H   0  0  0  0  0  0
  -19.6996   18.2403   -8.6268 H   0  0  0  0  0  0
  -18.1415   17.3713   -8.8354 H   0  0  0  0  0  0
  -18.7807   16.0395   -6.7159 H   0  0  0  0  0  0
  -21.2676   17.7228   -6.9632 H   0  0  0  0  0  0
  -22.9245   17.5077   -5.6311 H   0  0  0  0  0  0
  -23.6236   14.6843   -5.0008 H   0  0  0  0  0  0
  -27.0936   13.8124   -7.3108 H   0  0  0  0  0  0
  -26.2552   14.9965   -8.3699 H   0  0  0  0  0  0
  -27.2278   15.5716   -6.9734 H   0  0  0  0  0  0
  -15.4704   19.3451   -3.5482 H   0  0  0  0  0  0
  -15.9208   17.6770   -4.0395 H   0  0  0  0  0  0
  -13.4650   17.9131   -3.8089 H   0  0  0  0  0  0
  -20.1305   16.2042   -2.4512 H   0  0  0  0  0  0
  -18.0727   17.4627   -1.9427 H   0  0  0  0  0  0
  -17.8196   19.8544   -2.5395 H   0  0  0  0  0  0
  -19.7341   21.0140   -3.6799 H   0  0  0  0  0  0
  -21.7924   19.7535   -4.1476 H   0  0  0  0  0  0
  -22.9642   16.9827   -1.0692 H   0  0  0  0  0  0
  -24.8470   17.9578    0.1920 H   0  0  0  0  0  0
  -26.5881   19.2960   -0.9854 H   0  0  0  0  0  0
  -26.4073   19.6378   -3.4441 H   0  0  0  0  0  0
  -24.5182   18.6438   -4.6995 H   0  0  0  0  0  0
  -19.0214   15.2077   -9.1323 H   0  0  0  0  0  0
  -20.6402   15.9827   -9.2069 H   0  0  0  0  0  0
  -20.3572   14.5988   -8.0972 H   0  0  0  0  0  0
  -22.3503   16.1262   -3.1784 H   0  0  0  0  0  0
  1  2  1  0  0  0
  1  5  2  0  0  0
  1  9  1  0  0  0
  2 47  1  0  0  0
  2 48  1  0  0  0
  3  4  2  0  0  0
  4  7  1  0  0  0
  4 10  1  0  0  0
  4 11  2  0  0  0
  5  6  1  0  0  0
  5 49  1  0  0  0
  6  7  2  0  0  0
  6 50  1  0  0  0
  7  8  1  0  0  0
  8  9  2  0  0  0
  8 51  1  0  0  0
  9 52  1  0  0  0
 10 12  1  0  0  0
 10 14  1  0  0  0
 12 13  1  0  0  0
 12 30  1  0  0  0
 12 53  1  0  0  0
 13 19  1  0  0  0
 13 54  1  0  0  0
 13 55  1  0  0  0
 14 15  1  0  0  0
 14 56  1  0  0  0
 14 57  1  0  0  0
 15 16  1  0  0  0
 15 58  1  0  0  0
 15 59  1  0  0  0
 16 17  1  0  0  0
 16 18  1  0  0  0
 16 60  1  0  0  0
 17 61  1  0  0  0
 17 62  1  0  0  0
 17 63  1  0  0  0
 18 64  1  0  0  0
 18 65  1  0  0  0
 18 66  1  0  0  0
 19 20  1  0  0  0
 19 67  1  0  0  0
 19 68  1  0  0  0
 20 21  1  0  0  0
 20 69  1  0  0  0
 20 70  1  0  0  0
 21 22  1  0  0  0
 21 45  1  0  0  0
 21 71  1  0  0  0
 22 23  1  0  0  0
 22 72  1  0  0  0
 23 24  1  0  0  0
 23 32  2  0  0  0
 24 25  1  0  0  0
 24 46  1  0  0  0
 24 73  1  0  0  0
 25 26  1  0  0  0
 25 74  1  0  0  0
 26 27  1  0  0  0
 26 29  2  0  0  0
 27 28  1  0  0  0
 28 75  1  0  0  0
 28 76  1  0  0  0
 28 77  1  0  0  0
 30 31  1  0  0  0
 30 78  1  0  0  0
 30 79  1  0  0  0
 31 80  1  0  0  0
 33 40  2  0  0  0
 33 44  1  0  0  0
 33 46  1  0  0  0
 34 35  2  0  0  0
 34 39  1  0  0  0
 34 46  1  0  0  0
 35 36  1  0  0  0
 35 81  1  0  0  0
 36 37  2  0  0  0
 36 82  1  0  0  0
 37 38  1  0  0  0
 37 83  1  0  0  0
 38 39  2  0  0  0
 38 84  1  0  0  0
 39 85  1  0  0  0
 40 41  1  0  0  0
 40 86  1  0  0  0
 41 42  2  0  0  0
 41 87  1  0  0  0
 42 43  1  0  0  0
 42 88  1  0  0  0
 43 44  2  0  0  0
 43 89  1  0  0  0
 44 90  1  0  0  0
 45 91  1  0  0  0
 45 92  1  0  0  0
 45 93  1  0  0  0
 46 94  1  0  0  0
M  END
> <s_m_source_file>
../3m9f_ligand.sdf

> <i_m_source_file_index>
1

> <s_epik_input>
W05IMl1jMVtjSF1bY0hdYyhbY0hdW2NIXTEpUyg9TykoPU8pTihbQ0gyXVtDSDJdW0NIXShbQ0gzXSlbQ0gzXSlbQ0BIXShbQ0gyXVtPSF0pW0NIMl1bQ0gyXVtDSDJdW0NASF0oW0NIM10pW05IXUMoPU8pW0NAQEhdKFtOSF1DKD1PKU9bQ0gzXSlbQ0hdKGMyW2NIXVtjSF1bY0hdW2NIXVtjSF0yKWMzW2NIXVtjSF1bY0hdW2NIXVtjSF0z

> <s_epik_cmdline>
J2VwaWtfYXBwJywgJy1pbWFlJywgJ2xpZ2FuZF9wcm8ubWFlJywgJy1vbWFlJywgJ2xpZ2FuZF9wcmVwLm1hZScsICctbXMnLCAnMScsICctcGgnLCAnNycsICctcGh0JywgJzAuNScsICctbnQn

> <r_lp_tautomer_probability>
1

> <r_epik_Ionization_Penalty>
  0.0000

> <r_epik_Ionization_Penalty_Charging>
  0.0000

> <r_epik_Ionization_Penalty_Neutral>
  0.0000

> <r_epik_State_Penalty>
 -0.0000

> <r_epik_Charging_Adjusted_Penalty>
0

> <i_epik_Tot_Q>
0

> <i_epik_Tot_abs_Q>
0

> <s_epik_Chemistry_Notes>
This compound has an ester and may undergo hydrolysis at high or low pH.

$$$$
