3mb6_ligand
                    3D
 Schrodinger Suite 2020-3.
 28 31  0  0  1  0            999 V2000
   23.2490    9.9230   12.2360 C   0  0  0  0  0  0
   23.1760   10.5980   13.4430 C   0  0  0  0  0  0
   22.9990    9.9070   14.7290 C   0  0  0  0  0  0
   22.8890    8.5190   14.8290 C   0  0  0  0  0  0
   22.9570    7.8130   13.6190 C   0  0  0  0  0  0
   23.1370    8.5320   12.2970 C   0  0  0  0  0  0
   22.8660    6.4240   13.5400 C   0  0  0  0  0  0
   22.9410    5.7620   12.2240 C   0  0  0  0  0  0
   23.1100    6.4440   11.0310 C   0  0  0  0  0  0
   23.2060    7.8330   11.0860 C   0  0  0  0  0  0
   23.2530   12.0070   13.7010 C   0  0  0  0  0  0
   23.1240   12.1330   15.0910 C   0  0  0  0  0  0
   22.9710   10.9160   15.7420 O   0  0  0  0  0  0
   22.6940    5.3870   14.5280 C   0  0  0  0  0  0
   22.6730    4.1850   13.7910 C   0  0  0  0  0  0
   22.8250    4.3600   12.4290 O   0  0  0  0  0  0
   22.5140    2.8070   14.3410 C   0  0  0  0  0  0
   23.1510   13.4520   15.8020 C   0  0  0  0  0  0
   23.0260   13.4630   17.0490 O   0  0  0  0  0  0
   22.3820    2.6270   15.5730 O   0  5  0  0  0  0
   22.5120    1.8750   13.5120 O   0  0  0  0  0  0
   23.2930   14.5020   15.1300 O   0  5  0  0  0  0
   23.3863   10.4481   11.2907 H   0  0  0  0  0  0
   22.7585    8.0156   15.7870 H   0  0  0  0  0  0
   23.1660    5.9124   10.0811 H   0  0  0  0  0  0
   23.3387    8.3915   10.1594 H   0  0  0  0  0  0
   23.3837   12.8074   12.9728 H   0  0  0  0  0  0
   22.6007    5.5064   15.6074 H   0  0  0  0  0  0
  1  2  2  0  0  0
  1  6  1  0  0  0
  1 23  1  0  0  0
  2  3  1  0  0  0
  2 11  1  0  0  0
  3  4  2  0  0  0
  3 13  1  0  0  0
  4  5  1  0  0  0
  4 24  1  0  0  0
  5  6  2  0  0  0
  5  7  1  0  0  0
  6 10  1  0  0  0
  7  8  2  0  0  0
  7 14  1  0  0  0
  8  9  1  0  0  0
  8 16  1  0  0  0
  9 10  2  0  0  0
  9 25  1  0  0  0
 10 26  1  0  0  0
 11 12  2  0  0  0
 11 27  1  0  0  0
 12 13  1  0  0  0
 12 18  1  0  0  0
 14 15  2  0  0  0
 14 28  1  0  0  0
 15 16  1  0  0  0
 15 17  1  0  0  0
 17 20  1  0  0  0
 17 21  2  0  0  0
 18 19  2  0  0  0
 18 22  1  0  0  0
M  CHG  2  20  -1  22  -1
M  END
> <s_m_source_file>
../3mb6_ligand.sdf

> <i_m_source_file_index>
1

> <s_epik_input>
Tz1DKFtPSF0pYyhbY0hdMSlvYyhjMTIpW2NIXWMzYyhbY0hdMilbY0hdW2NIXWM0YzNbY0hdYyhvNClDKD1PKVtPSF0=

> <s_epik_cmdline>
J2VwaWtfYXBwJywgJy1pbWFlJywgJ2xpZ2FuZF9wcm8ubWFlJywgJy1vbWFlJywgJ2xpZ2FuZF9wcmVwLm1hZScsICctbXMnLCAnMScsICctcGgnLCAnNycsICctcGh0JywgJzAuNScsICctbnQn

> <r_lp_tautomer_probability>
1

> <r_epik_Ionization_Penalty>
  0.0001

> <r_epik_Ionization_Penalty_Charging>
  0.0001

> <r_epik_Ionization_Penalty_Neutral>
  0.0000

> <r_epik_State_Penalty>
 -0.0000

> <r_epik_Charging_Adjusted_Penalty>
7.57191277828588e-05

> <i_epik_Tot_Q>
-2

> <i_epik_Tot_abs_Q>
2

$$$$
