3mbl_ligand
                    3D
 Schrodinger Suite 2020-3.
 42 43  0  0  1  0            999 V2000
   35.9590   28.1310   43.4100 C   0  0  0  0  0  0
   36.8190   27.3050   42.6850 C   0  0  0  0  0  0
   36.3010   26.4990   41.6310 C   0  0  0  0  0  0
   34.9600   26.5160   41.2970 C   0  0  0  0  0  0
   34.0630   27.3150   41.9990 C   0  0  0  0  0  0
   34.6000   28.1440   43.0990 C   0  0  0  0  0  0
   33.7140   28.8930   43.7720 F   0  0  0  0  0  0
   38.8950   27.2220   43.1730 I   0  0  0  0  0  0
   32.7170   27.3530   41.7890 N   0  0  0  0  0  0
   32.0440   26.6710   40.8290 C   0  0  0  0  0  0
   32.1490   25.3610   40.5930 N   0  0  0  0  0  0
   31.3390   25.1350   39.5260 C   0  0  0  0  0  0
   30.6900   26.3240   39.0710 C   0  0  0  0  0  0
   31.0990   27.3460   39.8960 C   0  0  0  0  0  0
   30.8190   28.7990   40.0490 C   0  0  0  0  0  0
   31.2800   29.3920   41.0480 O   0  0  0  0  0  0
   30.0550   29.4550   39.1800 N   0  0  0  0  0  0
   29.6830   30.8670   39.4560 O   0  0  0  0  0  0
   28.5140   31.5320   38.9290 C   0  0  0  0  0  0
   28.1550   32.7440   39.7870 C   0  0  0  0  0  0
   27.1380   33.5050   39.1040 O   0  0  0  0  0  0
   33.0240   24.4060   41.3140 C   0  0  0  0  0  0
   31.1730   23.8080   38.8880 C   0  0  0  0  0  0
   31.8090   22.7950   39.2000 O   0  0  0  0  0  0
   30.1550   23.8370   37.7960 C   0  0  0  0  0  0
   36.3460   28.7599   44.2117 H   0  0  0  0  0  0
   36.9792   25.8526   41.0739 H   0  0  0  0  0  0
   34.6013   25.8968   40.4748 H   0  0  0  0  0  0
   32.0778   27.9782   42.4298 H   0  0  0  0  0  0
   30.0016   26.4057   38.2299 H   0  0  0  0  0  0
   29.6990   28.9615   38.2637 H   0  0  0  0  0  0
   28.7158   31.8690   37.9015 H   0  0  0  0  0  0
   27.6648   30.8328   38.9254 H   0  0  0  0  0  0
   27.7769   32.4037   40.7623 H   0  0  0  0  0  0
   29.0504   33.3651   39.9373 H   0  0  0  0  0  0
   26.7396   34.4236   39.5594 H   0  0  0  0  0  0
   33.5416   24.9286   42.1319 H   0  0  0  0  0  0
   33.7663   23.9905   40.6166 H   0  0  0  0  0  0
   32.4134   23.5903   41.7284 H   0  0  0  0  0  0
   29.7327   24.8495   37.7153 H   0  0  0  0  0  0
   29.3513   23.1216   38.0249 H   0  0  0  0  0  0
   30.6311   23.5613   36.8435 H   0  0  0  0  0  0
  1  2  2  0  0  0
  1  6  1  0  0  0
  1 26  1  0  0  0
  2  3  1  0  0  0
  2  8  1  0  0  0
  3  4  2  0  0  0
  3 27  1  0  0  0
  4  5  1  0  0  0
  4 28  1  0  0  0
  5  6  2  0  0  0
  5  9  1  0  0  0
  6  7  1  0  0  0
  9 10  1  0  0  0
  9 29  1  0  0  0
 10 11  1  0  0  0
 10 14  2  0  0  0
 11 12  1  0  0  0
 11 22  1  0  0  0
 12 13  2  0  0  0
 12 23  1  0  0  0
 13 14  1  0  0  0
 13 30  1  0  0  0
 14 15  1  0  0  0
 15 16  2  0  0  0
 15 17  1  0  0  0
 17 18  1  0  0  0
 17 31  1  0  0  0
 18 19  1  0  0  0
 19 20  1  0  0  0
 19 32  1  0  0  0
 19 33  1  0  0  0
 20 21  1  0  0  0
 20 34  1  0  0  0
 20 35  1  0  0  0
 21 36  1  0  0  0
 22 37  1  0  0  0
 22 38  1  0  0  0
 22 39  1  0  0  0
 23 24  2  0  0  0
 23 25  1  0  0  0
 25 40  1  0  0  0
 25 41  1  0  0  0
 25 42  1  0  0  0
M  END
> <s_m_source_file>
../3mbl_ligand.sdf

> <i_m_source_file_index>
1

> <s_epik_input>
SWMxW2NIXWMoRiljKFtjSF1bY0hdMSlbTkhdYzJuKFtDSDNdKWMoQyg9TylbQ0gzXSlbY0hdYzJDKD1PKVtOSF1PW0NIMl1bQ0gyXVtPSF0=

> <s_epik_cmdline>
J2VwaWtfYXBwJywgJy1pbWFlJywgJ2xpZ2FuZF9wcm8ubWFlJywgJy1vbWFlJywgJ2xpZ2FuZF9wcmVwLm1hZScsICctbXMnLCAnMScsICctcGgnLCAnNycsICctcGh0JywgJzAuNScsICctbnQn

> <r_lp_tautomer_probability>
1

> <r_epik_Ionization_Penalty>
  0.0000

> <r_epik_Ionization_Penalty_Charging>
  0.0000

> <r_epik_Ionization_Penalty_Neutral>
  0.0000

> <r_epik_State_Penalty>
 -0.0000

> <r_epik_Charging_Adjusted_Penalty>
0

> <i_epik_Tot_Q>
0

> <i_epik_Tot_abs_Q>
0

> <s_epik_Chemistry_Notes>
This compound has a N-S or N-O group and may undergo hydrolysis at high or low pH.

$$$$
