3mbz_ligand
                    3D
 Schrodinger Suite 2020-3.
 47 48  0  0  1  0            999 V2000
  107.7910   32.8210   27.8330 C   0  0  0  0  0  0
  107.0570   31.6450   27.9670 C   0  0  0  0  0  0
  105.8770   31.6250   28.7000 C   0  0  0  0  0  0
  105.0370   30.6230   28.9550 C   0  0  0  0  0  0
  104.0460   31.0730   29.7120 C   0  0  0  0  0  0
  104.2250   32.4320   29.9670 C   0  0  0  0  0  0
  106.1500   34.0060   29.1730 C   0  0  0  0  0  0
  107.3390   34.0040   28.4360 C   0  0  0  0  0  0
  109.0900   32.7610   27.0110 C   0  0  0  0  0  0
  102.8920   30.1720   30.1600 C   0  0  0  0  0  0
  103.5760   33.5220   32.0970 C   0  0  1  0  0  0
  104.4410   34.7770   32.2350 C   0  0  0  0  0  0
  102.2010   33.7440   32.8030 C   0  0  2  0  0  0
  101.6760   35.1980   32.6760 C   0  0  0  0  0  0
  102.4250   33.3840   34.2980 C   0  0  0  0  0  0
  101.4520   33.2640   36.3590 C   0  0  0  0  0  0
  105.4070   32.8050   29.3140 N   0  0  0  0  0  0
  109.8150   33.8780   27.0160 N   0  0  0  0  0  0
  103.4060   33.2230   30.6650 N   0  0  0  0  0  0
  100.1940   33.3020   36.8190 N   0  0  0  0  0  0
  102.0240   30.0680   29.2890 O   0  0  0  0  0  0
  109.4110   31.7350   26.4050 O   0  0  0  0  0  0
  104.7760   35.3360   31.1630 O   0  0  0  0  0  0
  104.7080   35.1780   33.4010 O   0  5  0  0  0  0
   99.6480   32.7240   32.9140 O   0  0  0  0  0  0
  101.3800   31.2560   32.0660 O   0  0  0  0  0  0
  101.8130   34.1490   35.3720 O   0  0  0  0  0  0
  102.2860   32.4440   36.7650 O   0  0  0  0  0  0
  100.9130   32.6210   32.1030 S   0  0  0  0  0  0
  107.4121   30.7306   27.4917 H   0  0  0  0  0  0
  105.1467   29.5987   28.5988 H   0  0  0  0  0  0
  105.7956   34.9263   29.6372 H   0  0  0  0  0  0
  107.9151   34.9232   28.3302 H   0  0  0  0  0  0
  103.2775   29.1663   30.3836 H   0  0  0  0  0  0
  102.4256   30.5948   31.0621 H   0  0  0  0  0  0
  104.0808   32.6475   32.5335 H   0  0  0  0  0  0
  102.4225   35.8944   33.0855 H   0  0  0  0  0  0
  100.7348   35.2982   33.2364 H   0  0  0  0  0  0
  101.4984   35.4324   31.6160 H   0  0  0  0  0  0
  102.0649   32.3619   34.4869 H   0  0  0  0  0  0
  103.4980   33.4440   34.5328 H   0  0  0  0  0  0
  109.4676   34.7567   27.5792 H   0  0  0  0  0  0
  110.7613   33.9220   26.4569 H   0  0  0  0  0  0
  102.5649   33.6611   30.1077 H   0  0  0  0  0  0
   99.4877   34.0492   36.4280 H   0  0  0  0  0  0
   99.8676   32.5860   37.5876 H   0  0  0  0  0  0
  101.1328   29.4497   29.4717 H   0  0  0  0  0  0
  1  2  2  0  0  0
  1  8  1  0  0  0
  1  9  1  0  0  0
  2  3  1  0  0  0
  2 30  1  0  0  0
  3  4  2  0  0  0
  3 17  1  0  0  0
  4  5  1  0  0  0
  4 31  1  0  0  0
  5  6  2  0  0  0
  5 10  1  0  0  0
  6 17  1  0  0  0
  6 19  1  0  0  0
  7  8  2  0  0  0
  7 17  1  0  0  0
  7 32  1  0  0  0
  8 33  1  0  0  0
  9 18  1  0  0  0
  9 22  2  0  0  0
 10 21  1  0  0  0
 10 34  1  0  0  0
 10 35  1  0  0  0
 11 12  1  0  0  0
 11 13  1  0  0  0
 11 19  1  0  0  0
 11 36  1  0  0  0
 12 23  2  0  0  0
 12 24  1  0  0  0
 13 14  1  0  0  0
 13 15  1  0  0  0
 13 29  1  0  0  0
 14 37  1  0  0  0
 14 38  1  0  0  0
 14 39  1  0  0  0
 15 27  1  0  0  0
 15 40  1  0  0  0
 15 41  1  0  0  0
 16 20  1  0  0  0
 16 27  1  0  0  0
 16 28  2  0  0  0
 18 42  1  0  0  0
 18 43  1  0  0  0
 19 44  1  0  0  0
 20 45  1  0  0  0
 20 46  1  0  0  0
 21 47  1  0  0  0
 25 29  1  0  0  0
 26 29  1  0  0  0
M  CHG  1  24  -1
M  END
> <s_m_source_file>
../3mbz_ligand.sdf

> <i_m_source_file_index>
1

> <s_epik_input>
W05IMl1DKD1PKWMoW2NIXTEpW2NIXVtjSF1uKGMxMiljKGMoW2NIXTIpW0NIMl1bT0hdKVtOSF1bQ0BASF0oQyg9TylbT0hdKVtDQEBdKFtDSDNdKShbU0hdKFtPSF0pW09IXSlbQ0gyXU9DKD1PKVtOSDJd

> <s_epik_cmdline>
J2VwaWtfYXBwJywgJy1pbWFlJywgJ2xpZ2FuZF9wcm8ubWFlJywgJy1vbWFlJywgJ2xpZ2FuZF9wcmVwLm1hZScsICctbXMnLCAnMScsICctcGgnLCAnNycsICctcGh0JywgJzAuNScsICctbnQn

> <r_lp_tautomer_probability>
1

> <r_epik_Ionization_Penalty>
  0.0005

> <r_epik_Ionization_Penalty_Charging>
  0.0004

> <r_epik_Ionization_Penalty_Neutral>
  0.0000

> <r_epik_State_Penalty>
 -0.0000

> <r_epik_Charging_Adjusted_Penalty>
0.000448586166189726

> <i_epik_Tot_Q>
-1

> <i_epik_Tot_abs_Q>
1

> <s_epik_Chemistry_Notes>
This compound has an ester and may undergo hydrolysis at high or low pH.

$$$$
