3mdz_ligand
                    3D
 Schrodinger Suite 2020-3.
 26 27  0  0  1  0            999 V2000
   15.8730   12.5730   80.9780 N   0  0  0  0  0  0
   15.2480    7.8930   81.7440 C   0  0  0  0  0  0
   14.0870    7.6460   80.9600 C   0  0  0  0  0  0
   13.4120    6.4610   81.0850 C   0  0  0  0  0  0
   13.8010    5.4700   81.9760 C   0  0  0  0  0  0
   13.6890    3.1060   82.2510 C   0  0  0  0  0  0
   16.7720   11.2790   79.0280 O   0  0  0  0  0  0
   14.4110   11.6960   79.0050 O   0  0  0  0  0  0
   15.5860   11.4040   79.8610 S   0  0  0  0  0  0
   15.1850    9.8450   80.5200 C   0  0  0  0  0  0
   15.8370    9.1190   81.4750 N   0  0  0  0  0  0
   13.7630    8.9930   79.9280 S   0  0  0  0  0  0
   14.9260    5.6800   82.7960 C   0  0  0  0  0  0
   15.6290    6.8790   82.6620 C   0  0  0  0  0  0
   12.9920    4.3580   82.0000 O   0  0  0  0  0  0
   12.6010    2.0430   81.9650 C   0  0  0  0  0  0
   16.1166   13.5163   80.4672 H   0  0  0  0  0  0
   16.7179   12.2721   81.6149 H   0  0  0  0  0  0
   12.5352    6.2892   80.4606 H   0  0  0  0  0  0
   14.5509    3.0238   81.5725 H   0  0  0  0  0  0
   14.0396    3.0841   83.2934 H   0  0  0  0  0  0
   15.2403    4.9256   83.5173 H   0  0  0  0  0  0
   16.5062    7.0433   83.2878 H   0  0  0  0  0  0
   13.0192    1.0382   82.1245 H   0  0  0  0  0  0
   12.2610    2.1375   80.9232 H   0  0  0  0  0  0
   11.7496    2.1979   82.6441 H   0  0  0  0  0  0
  1  9  1  0  0  0
  1 17  1  0  0  0
  1 18  1  0  0  0
  2  3  2  0  0  0
  2 11  1  0  0  0
  2 14  1  0  0  0
  3  4  1  0  0  0
  3 12  1  0  0  0
  4  5  2  0  0  0
  4 19  1  0  0  0
  5 13  1  0  0  0
  5 15  1  0  0  0
  6 15  1  0  0  0
  6 16  1  0  0  0
  6 20  1  0  0  0
  6 21  1  0  0  0
  7  9  2  0  0  0
  8  9  2  0  0  0
  9 10  1  0  0  0
 10 11  2  0  0  0
 10 12  1  0  0  0
 13 14  2  0  0  0
 13 22  1  0  0  0
 14 23  1  0  0  0
 16 24  1  0  0  0
 16 25  1  0  0  0
 16 26  1  0  0  0
M  END
> <s_m_source_file>
../3mdz_ligand.sdf

> <i_m_source_file_index>
1

> <s_epik_input>
W05IMl1TKD1PKSg9TyljKG4xKXNjKGMxMilbY0hdYyhbY0hdW2NIXTIpT1tDSDJdW0NIM10=

> <s_epik_cmdline>
J2VwaWtfYXBwJywgJy1pbWFlJywgJ2xpZ2FuZF9wcm8ubWFlJywgJy1vbWFlJywgJ2xpZ2FuZF9wcmVwLm1hZScsICctbXMnLCAnMScsICctcGgnLCAnNycsICctcGh0JywgJzAuNScsICctbnQn

> <r_epik_Ionization_Penalty>
  0.0198

> <r_epik_Ionization_Penalty_Charging>
  0.0000

> <r_epik_Ionization_Penalty_Neutral>
  0.0198

> <r_epik_State_Penalty>
  0.0158

> <r_epik_Charging_Adjusted_Penalty>
0.0158177740285826

> <i_epik_Tot_Q>
0

> <i_epik_Tot_abs_Q>
0

$$$$
