3me9_ligand
                    3D
 Schrodinger Suite 2020-3.
 82 81  0  0  1  0            999 V2000
   53.8440    9.1890   48.9200 N   0  3  0  0  0  0
   53.6340   10.1620   47.7920 C   0  0  2  0  0  0
   54.0910   11.5320   48.1870 C   0  0  0  0  0  0
   54.1320   11.8640   49.3680 O   0  0  0  0  0  0
   52.1430   10.2370   47.3860 C   0  0  0  0  0  0
   54.4460   12.3340   47.1930 N   0  0  0  0  0  0
   54.7910   13.7520   47.4040 C   0  0  2  0  0  0
   53.5920   14.5670   46.9120 C   0  0  0  0  0  0
   53.2350   14.4880   45.7350 O   0  0  0  0  0  0
   56.0660   14.1080   46.6380 C   0  0  0  0  0  0
   56.6580   15.5060   46.9660 C   0  0  0  0  0  0
   58.0620   15.6750   46.4090 C   0  0  0  0  0  0
   58.9500   14.6110   46.8800 N   0  0  0  0  0  0
   60.1910   14.3730   46.4420 C   0  0  0  0  0  0
   60.7620   15.1280   45.5090 N   0  3  0  0  0  0
   60.8700   13.3540   46.9610 N   0  0  0  0  0  0
   52.9290   15.2930   47.8090 N   0  0  0  0  0  0
   51.7430   16.0670   47.4530 C   0  0  2  0  0  0
   52.1110   17.4800   47.0940 C   0  0  0  0  0  0
   53.1900   17.9440   47.4190 O   0  0  0  0  0  0
   50.7160   16.1250   48.6030 C   0  0  2  0  0  0
   51.3110   16.7570   49.7520 O   0  0  0  0  0  0
   50.2550   14.7490   48.9670 C   0  0  0  0  0  0
   51.1910   18.1580   46.4350 N   0  0  0  0  0  0
   51.2580   19.6010   46.2750 C   0  0  1  0  0  0
   50.0650   19.9800   45.3890 C   0  0  0  0  0  0
   49.9190   21.4720   45.1620 C   0  0  0  0  0  0
   48.9320   21.6530   44.0230 C   0  0  0  0  0  0
   47.4960   21.3900   44.4720 C   0  0  0  0  0  0
   46.5160   21.8260   43.4580 N   0  3  0  0  0  0
   51.3010   20.2900   47.6150 C   0  0  0  0  0  0
   52.0970   21.2400   47.7450 O   0  0  0  0  0  0
   46.5960   23.2780   43.2730 C   0  0  0  0  0  0
   45.1840   21.4580   43.9140 C   0  0  0  0  0  0
   46.7460   21.1830   42.1560 C   0  0  0  0  0  0
   50.5615   19.9201   48.5658 O   0  5  0  0  0  0
   54.9113    9.1589   49.1844 H   0  0  0  0  0  0
   53.5156    8.1872   48.6060 H   0  0  0  0  0  0
   53.2586    9.5094   49.7944 H   0  0  0  0  0  0
   54.2522    9.8079   46.9539 H   0  0  0  0  0  0
   51.7921    9.2366   47.0927 H   0  0  0  0  0  0
   52.0281   10.9289   46.5386 H   0  0  0  0  0  0
   51.5488   10.5988   48.2380 H   0  0  0  0  0  0
   54.4778   11.9050   46.1806 H   0  0  0  0  0  0
   54.9865   13.9315   48.4715 H   0  0  0  0  0  0
   56.8498   13.3713   46.8682 H   0  0  0  0  0  0
   55.8595   14.0982   45.5576 H   0  0  0  0  0  0
   56.0187   16.2868   46.5282 H   0  0  0  0  0  0
   56.7033   15.6382   48.0571 H   0  0  0  0  0  0
   58.0269   15.6419   45.3101 H   0  0  0  0  0  0
   58.4713   16.6430   46.7338 H   0  0  0  0  0  0
   58.6108   13.9186   47.6645 H   0  0  0  0  0  0
   60.2105   15.9736   45.0722 H   0  0  0  0  0  0
   60.4081   12.7220   47.7338 H   0  0  0  0  0  0
   61.8935   13.1432   46.6175 H   0  0  0  0  0  0
   53.2991   15.2989   48.8448 H   0  0  0  0  0  0
   51.3410   15.5353   46.5780 H   0  0  0  0  0  0
   49.8395   16.7305   48.3289 H   0  0  0  0  0  0
   51.7092   17.7793   49.6728 H   0  0  0  0  0  0
   49.8012   14.2696   48.0871 H   0  0  0  0  0  0
   49.5106   14.8133   49.7743 H   0  0  0  0  0  0
   51.1143   14.1525   49.3073 H   0  0  0  0  0  0
   50.3527   17.5946   45.9992 H   0  0  0  0  0  0
   52.2049   19.8928   45.7973 H   0  0  0  0  0  0
   50.1779   19.5096   44.4011 H   0  0  0  0  0  0
   49.1339   19.6291   45.8579 H   0  0  0  0  0  0
   49.5443   21.9477   46.0804 H   0  0  0  0  0  0
   50.8977   21.9006   44.9001 H   0  0  0  0  0  0
   48.9930   22.6843   43.6454 H   0  0  0  0  0  0
   49.1751   20.9506   43.2121 H   0  0  0  0  0  0
   47.3575   20.3126   44.6452 H   0  0  0  0  0  0
   47.2966   21.9397   45.4037 H   0  0  0  0  0  0
   46.4265   23.7803   44.2368 H   0  0  0  0  0  0
   45.8291   23.5986   42.5526 H   0  0  0  0  0  0
   47.5924   23.5446   42.8908 H   0  0  0  0  0  0
   44.9874   21.9279   44.8889 H   0  0  0  0  0  0
   45.1199   20.3645   44.0144 H   0  0  0  0  0  0
   44.4379   21.8035   43.1833 H   0  0  0  0  0  0
   47.7490   21.4465   41.7890 H   0  0  0  0  0  0
   45.9895   21.5302   41.4369 H   0  0  0  0  0  0
   46.6716   20.0912   42.2680 H   0  0  0  0  0  0
   61.7861   14.9072   45.1736 H   0  0  0  0  0  0
  1  2  1  0  0  0
  1 37  1  0  0  0
  1 38  1  0  0  0
  1 39  1  0  0  0
  2  3  1  0  0  0
  2  5  1  0  0  0
  2 40  1  0  0  0
  3  4  2  0  0  0
  3  6  1  0  0  0
  5 41  1  0  0  0
  5 42  1  0  0  0
  5 43  1  0  0  0
  6  7  1  0  0  0
  6 44  1  0  0  0
  7  8  1  0  0  0
  7 10  1  0  0  0
  7 45  1  0  0  0
  8  9  2  0  0  0
  8 17  1  0  0  0
 10 11  1  0  0  0
 10 46  1  0  0  0
 10 47  1  0  0  0
 11 12  1  0  0  0
 11 48  1  0  0  0
 11 49  1  0  0  0
 12 13  1  0  0  0
 12 50  1  0  0  0
 12 51  1  0  0  0
 13 14  1  0  0  0
 13 52  1  0  0  0
 14 15  2  0  0  0
 14 16  1  0  0  0
 15 53  1  0  0  0
 15 82  1  0  0  0
 16 54  1  0  0  0
 16 55  1  0  0  0
 17 18  1  0  0  0
 17 56  1  0  0  0
 18 19  1  0  0  0
 18 21  1  0  0  0
 18 57  1  0  0  0
 19 20  2  0  0  0
 19 24  1  0  0  0
 21 22  1  0  0  0
 21 23  1  0  0  0
 21 58  1  0  0  0
 22 59  1  0  0  0
 23 60  1  0  0  0
 23 61  1  0  0  0
 23 62  1  0  0  0
 24 25  1  0  0  0
 24 63  1  0  0  0
 25 26  1  0  0  0
 25 31  1  0  0  0
 25 64  1  0  0  0
 26 27  1  0  0  0
 26 65  1  0  0  0
 26 66  1  0  0  0
 27 28  1  0  0  0
 27 67  1  0  0  0
 27 68  1  0  0  0
 28 29  1  0  0  0
 28 69  1  0  0  0
 28 70  1  0  0  0
 29 30  1  0  0  0
 29 71  1  0  0  0
 29 72  1  0  0  0
 30 33  1  0  0  0
 30 34  1  0  0  0
 30 35  1  0  0  0
 31 32  2  0  0  0
 31 36  1  0  0  0
 33 73  1  0  0  0
 33 74  1  0  0  0
 33 75  1  0  0  0
 34 76  1  0  0  0
 34 77  1  0  0  0
 34 78  1  0  0  0
 35 79  1  0  0  0
 35 80  1  0  0  0
 35 81  1  0  0  0
M  CHG  4   1   1  15   1  30   1  36  -1
M  END
> <s_m_source_file>
../3me9_ligand.sdf

> <i_m_source_file_index>
1

> <s_epik_input>
W0hdL049QyhbTkgyXSlcW05IXVtDSDJdW0NIMl1bQ0gyXVtDQEhdKFtOSF1DKD1PKVtDQEBIXShbTkgzK10pW0NIM10pQyg9TylbTkhdW0NAQEhdKFtDQEhdKFtPSF0pW0NIM10pQyg9TylbTkhdW0NASF0oQyg9TylbT0hdKVtDSDJdW0NIMl1bQ0gyXVtDSDJdW04rXShbQ0gzXSkoW0NIM10pW0NIM10=

> <s_epik_cmdline>
J2VwaWtfYXBwJywgJy1pbWFlJywgJ2xpZ2FuZF9wcm8ubWFlJywgJy1vbWFlJywgJ2xpZ2FuZF9wcmVwLm1hZScsICctbXMnLCAnMScsICctcGgnLCAnNycsICctcGh0JywgJzAuNScsICctbnQn

> <r_epik_Ionization_Penalty>
  0.1252

> <r_epik_Ionization_Penalty_Charging>
  0.1252

> <r_epik_Ionization_Penalty_Neutral>
  0.0000

> <r_epik_State_Penalty>
  0.1145

> <r_epik_Charging_Adjusted_Penalty>
0.23975720826656

> <i_epik_Tot_Q>
2

> <i_epik_Tot_abs_Q>
4

> <s_epik_Chemistry_Notes>
This compound has an imine and may undergo hydrolysis.

$$$$
