3mea_ligand
                    3D
 Schrodinger Suite 2020-3.
 82 81  0  0  1  0            999 V2000
   22.4470   21.8520    4.2010 N   0  3  0  0  0  0
   21.8230   21.6540    5.5520 C   0  0  2  0  0  0
   22.5720   22.5230    6.5410 C   0  0  0  0  0  0
   23.7480   22.8290    6.3540 O   0  0  0  0  0  0
   21.8440   20.1830    5.9780 C   0  0  0  0  0  0
   21.8680   22.9560    7.5610 N   0  0  0  0  0  0
   22.4610   23.7400    8.6310 C   0  0  2  0  0  0
   22.6510   22.8140    9.8220 C   0  0  0  0  0  0
   21.6850   22.2590   10.3470 O   0  0  0  0  0  0
   21.5220   24.8700    8.9920 C   0  0  0  0  0  0
   22.0040   25.8510   10.0340 C   0  0  0  0  0  0
   20.8320   26.7880   10.3590 C   0  0  0  0  0  0
   21.1830   27.9140   11.2290 N   0  0  0  0  0  0
   20.2920   28.7320   11.8110 C   0  0  0  0  0  0
   18.9800   28.5450   11.6350 N   0  0  0  0  0  0
   20.7140   29.7400   12.5770 N   0  3  0  0  0  0
   23.8940   22.6050   10.2250 N   0  0  0  0  0  0
   24.2130   21.7300   11.3500 C   0  0  2  0  0  0
   24.2950   22.5370   12.6500 C   0  0  0  0  0  0
   24.2720   23.7840   12.6350 O   0  0  0  0  0  0
   25.5410   20.9360   11.1280 C   0  0  2  0  0  0
   26.6430   21.8460   11.0970 O   0  0  0  0  0  0
   25.5240   20.1080    9.8430 C   0  0  0  0  0  0
   24.3850   21.8200   13.7680 N   0  0  0  0  0  0
   24.5150   22.4450   15.1150 C   0  0  1  0  0  0
   24.2590   21.3700   16.2330 C   0  0  0  0  0  0
   25.4440   20.4260   16.3590 C   0  0  0  0  0  0
   25.2760   19.0700   17.0440 C   0  0  0  0  0  0
   24.1990   19.0760   18.0790 C   0  0  0  0  0  0
   24.3230   17.9460   19.0710 N   0  3  0  0  0  0
   25.8260   23.1920   15.3220 C   0  0  0  0  0  0
   26.0150   23.8810   16.3430 O   0  0  0  0  0  0
   24.6950   18.4650   20.4010 C   0  0  0  0  0  0
   25.2330   16.8190   18.7310 C   0  0  0  0  0  0
   23.0010   17.3480   19.1680 C   0  0  0  0  0  0
   26.7314   23.1123   14.4494 O   0  5  0  0  0  0
   22.4117   22.9184    3.9336 H   0  0  0  0  0  0
   21.8927   21.2676    3.4519 H   0  0  0  0  0  0
   23.4938   21.5151    4.2277 H   0  0  0  0  0  0
   20.7675   21.9599    5.5035 H   0  0  0  0  0  0
   21.2932   19.5800    5.2411 H   0  0  0  0  0  0
   21.3688   20.0802    6.9647 H   0  0  0  0  0  0
   22.8851   19.8324    6.0341 H   0  0  0  0  0  0
   20.7968   22.7078    7.5897 H   0  0  0  0  0  0
   23.4200   24.1545    8.2866 H   0  0  0  0  0  0
   21.3087   25.4702    8.0952 H   0  0  0  0  0  0
   20.5831   24.4546    9.3870 H   0  0  0  0  0  0
   22.3207   25.3037   10.9341 H   0  0  0  0  0  0
   22.8546   26.4224    9.6340 H   0  0  0  0  0  0
   20.4338   27.2141    9.4264 H   0  0  0  0  0  0
   20.0402   26.2210   10.8705 H   0  0  0  0  0  0
   22.2390   28.1353   11.4431 H   0  0  0  0  0  0
   18.6220   27.7170   11.0055 H   0  0  0  0  0  0
   18.2585   29.2191   12.1197 H   0  0  0  0  0  0
   21.7914   29.9023   12.7281 H   0  0  0  0  0  0
   24.7010   23.1173    9.6806 H   0  0  0  0  0  0
   23.3603   21.0360   11.3867 H   0  0  0  0  0  0
   25.7289   20.2586   11.9740 H   0  0  0  0  0  0
   26.8170   22.5280   11.9423 H   0  0  0  0  0  0
   24.6755   19.4085    9.8688 H   0  0  0  0  0  0
   26.4634   19.5419    9.7591 H   0  0  0  0  0  0
   25.4209   20.7778    8.9766 H   0  0  0  0  0  0
   24.3603   20.7247   13.6700 H   0  0  0  0  0  0
   23.7490   23.2342   15.1332 H   0  0  0  0  0  0
   24.1045   21.8745   17.1982 H   0  0  0  0  0  0
   23.3643   20.7826   15.9789 H   0  0  0  0  0  0
   25.8178   20.1710   15.3564 H   0  0  0  0  0  0
   26.2432   20.9156   16.9348 H   0  0  0  0  0  0
   25.0169   18.3094   16.2928 H   0  0  0  0  0  0
   26.2175   18.7903   17.5394 H   0  0  0  0  0  0
   24.2379   20.0195   18.6431 H   0  0  0  0  0  0
   23.2188   18.9821   17.5888 H   0  0  0  0  0  0
   25.6940   18.9226   20.3497 H   0  0  0  0  0  0
   24.7070   17.6386   21.1268 H   0  0  0  0  0  0
   23.9613   19.2208   20.7180 H   0  0  0  0  0  0
   26.2629   17.1942   18.6393 H   0  0  0  0  0  0
   24.9200   16.3701   17.7768 H   0  0  0  0  0  0
   25.1888   16.0595   19.5255 H   0  0  0  0  0  0
   22.2645   18.1254   19.4193 H   0  0  0  0  0  0
   23.0037   16.5779   19.9534 H   0  0  0  0  0  0
   22.7349   16.8884   18.2047 H   0  0  0  0  0  0
   19.9844   30.4086   13.0573 H   0  0  0  0  0  0
  1  2  1  0  0  0
  1 37  1  0  0  0
  1 38  1  0  0  0
  1 39  1  0  0  0
  2  3  1  0  0  0
  2  5  1  0  0  0
  2 40  1  0  0  0
  3  4  2  0  0  0
  3  6  1  0  0  0
  5 41  1  0  0  0
  5 42  1  0  0  0
  5 43  1  0  0  0
  6  7  1  0  0  0
  6 44  1  0  0  0
  7  8  1  0  0  0
  7 10  1  0  0  0
  7 45  1  0  0  0
  8  9  2  0  0  0
  8 17  1  0  0  0
 10 11  1  0  0  0
 10 46  1  0  0  0
 10 47  1  0  0  0
 11 12  1  0  0  0
 11 48  1  0  0  0
 11 49  1  0  0  0
 12 13  1  0  0  0
 12 50  1  0  0  0
 12 51  1  0  0  0
 13 14  1  0  0  0
 13 52  1  0  0  0
 14 15  1  0  0  0
 14 16  2  0  0  0
 15 53  1  0  0  0
 15 54  1  0  0  0
 16 55  1  0  0  0
 16 82  1  0  0  0
 17 18  1  0  0  0
 17 56  1  0  0  0
 18 19  1  0  0  0
 18 21  1  0  0  0
 18 57  1  0  0  0
 19 20  2  0  0  0
 19 24  1  0  0  0
 21 22  1  0  0  0
 21 23  1  0  0  0
 21 58  1  0  0  0
 22 59  1  0  0  0
 23 60  1  0  0  0
 23 61  1  0  0  0
 23 62  1  0  0  0
 24 25  1  0  0  0
 24 63  1  0  0  0
 25 26  1  0  0  0
 25 31  1  0  0  0
 25 64  1  0  0  0
 26 27  1  0  0  0
 26 65  1  0  0  0
 26 66  1  0  0  0
 27 28  1  0  0  0
 27 67  1  0  0  0
 27 68  1  0  0  0
 28 29  1  0  0  0
 28 69  1  0  0  0
 28 70  1  0  0  0
 29 30  1  0  0  0
 29 71  1  0  0  0
 29 72  1  0  0  0
 30 33  1  0  0  0
 30 34  1  0  0  0
 30 35  1  0  0  0
 31 32  2  0  0  0
 31 36  1  0  0  0
 33 73  1  0  0  0
 33 74  1  0  0  0
 33 75  1  0  0  0
 34 76  1  0  0  0
 34 77  1  0  0  0
 34 78  1  0  0  0
 35 79  1  0  0  0
 35 80  1  0  0  0
 35 81  1  0  0  0
M  CHG  4   1   1  16   1  30   1  36  -1
M  END
> <s_m_source_file>
../3mea_ligand.sdf

> <i_m_source_file_index>
1

> <s_epik_input>
W0hdL049QyhbTkgyXSlcW05IXVtDSDJdW0NIMl1bQ0gyXVtDQEhdKFtOSF1DKD1PKVtDQEBIXShbTkgzK10pW0NIM10pQyg9TylbTkhdW0NAQEhdKFtDQEhdKFtPSF0pW0NIM10pQyg9TylbTkhdW0NASF0oQyg9TylbT0hdKVtDSDJdW0NIMl1bQ0gyXVtDSDJdW04rXShbQ0gzXSkoW0NIM10pW0NIM10=

> <s_epik_cmdline>
J2VwaWtfYXBwJywgJy1pbWFlJywgJ2xpZ2FuZF9wcm8ubWFlJywgJy1vbWFlJywgJ2xpZ2FuZF9wcmVwLm1hZScsICctbXMnLCAnMScsICctcGgnLCAnNycsICctcGh0JywgJzAuNScsICctbnQn

> <r_epik_Ionization_Penalty>
  0.1252

> <r_epik_Ionization_Penalty_Charging>
  0.1252

> <r_epik_Ionization_Penalty_Neutral>
  0.0000

> <r_epik_State_Penalty>
  0.1145

> <r_epik_Charging_Adjusted_Penalty>
0.239744347178702

> <i_epik_Tot_Q>
2

> <i_epik_Tot_abs_Q>
4

> <s_epik_Chemistry_Notes>
This compound has an imine and may undergo hydrolysis.

$$$$
