3met_ligand
                    3D
 Schrodinger Suite 2020-3.
137136  0  0  1  0            999 V2000
    4.0470   10.6600   -3.7600 N   0  3  0  0  0  0
    3.7600   11.6910   -4.8040 C   0  0  2  0  0  0
    4.3240   13.0180   -4.3740 C   0  0  0  0  0  0
    4.5510   13.2530   -3.1960 O   0  0  0  0  0  0
    2.2470   11.8150   -5.0790 C   0  0  0  0  0  0
    4.5790   13.8820   -5.3370 N   0  0  0  0  0  0
    4.9500   15.2670   -5.0290 C   0  0  2  0  0  0
    3.7720   16.1360   -5.4480 C   0  0  0  0  0  0
    3.4000   16.1330   -6.6130 O   0  0  0  0  0  0
    6.2450   15.6740   -5.7410 C   0  0  0  0  0  0
    6.8030   16.9970   -5.1960 C   0  0  0  0  0  0
    8.2760   17.2800   -5.5280 C   0  0  0  0  0  0
    8.7520   18.3640   -4.6840 N   0  0  0  0  0  0
    8.7890   19.6590   -5.0080 C   0  0  0  0  0  0
    9.2110   20.5270   -4.1010 N   0  3  0  0  0  0
    8.4340   20.1080   -6.2160 N   0  0  0  0  0  0
    3.1670   16.8450   -4.4940 N   0  0  0  0  0  0
    2.0140   17.7040   -4.7950 C   0  0  2  0  0  0
    2.4330   19.1130   -5.1270 C   0  0  0  0  0  0
    3.5380   19.5420   -4.7880 O   0  0  0  0  0  0
    1.0850   17.8180   -3.6130 C   0  0  2  0  0  0
    1.8220   18.4140   -2.5410 O   0  0  0  0  0  0
    0.5280   16.4010   -3.1930 C   0  0  0  0  0  0
    1.5240   19.8370   -5.7790 N   0  0  0  0  0  0
    1.6530   21.2800   -5.9560 C   0  0  1  0  0  0
    0.4140   21.8470   -6.6820 C   0  0  0  0  0  0
    0.5640   23.3280   -7.0070 C   0  0  0  0  0  0
   -0.2770   23.7710   -8.2140 C   0  0  0  0  0  0
   -1.7650   23.7800   -7.8750 C   0  0  0  0  0  0
   -2.5710   24.5000   -8.8880 N   0  3  0  0  0  0
   -2.5820   23.7730  -10.1620 C   0  0  0  0  0  0
   -2.0680   25.8530   -9.1070 C   0  0  0  0  0  0
    1.8570   22.0220   -4.6320 C   0  0  0  0  0  0
    2.6560   22.9540   -4.5630 O   0  0  0  0  0  0
    1.1470   21.6260   -3.5800 N   0  0  0  0  0  0
    1.2220   22.3740   -2.2950 C   0  0  2  0  0  0
    2.6360   22.2860   -1.7420 C   0  0  0  0  0  0
    3.2000   23.2890   -1.3070 O   0  0  0  0  0  0
    0.1960   21.8550   -1.2610 C   0  0  0  0  0  0
    3.2060   21.0790   -1.7940 N   0  0  0  0  0  0
    4.6200   20.8510   -1.4970 C   0  0  2  0  0  0
    5.5230   21.6330   -2.4400 C   0  0  0  0  0  0
    6.4210   22.3430   -1.9830 O   0  0  0  0  0  0
    4.9610   19.3490   -1.5790 C   0  0  2  0  0  0
    4.1630   18.6370   -0.6150 O   0  0  0  0  0  0
    6.4730   19.0830   -1.3180 C   0  0  0  0  0  0
    5.2710   21.5170   -3.7480 N   0  0  0  0  0  0
    6.0690   22.2140   -4.7820 C   0  0  2  0  0  0
    6.0760   23.7360   -4.6140 C   0  0  0  0  0  0
    7.0740   24.3990   -4.9140 O   0  0  0  0  0  0
    5.5700   21.8460   -6.1860 C   0  0  0  0  0  0
    4.9620   24.2800   -4.1260 N   0  0  0  0  0  0
    4.8020   25.7230   -4.0120 C   0  0  2  0  0  0
    4.8350   26.1110   -2.5420 C   0  0  0  0  0  0
    5.7380   26.8300   -2.1150 O   0  0  0  0  0  0
    3.4910   26.1930   -4.6980 C   0  0  0  0  0  0
    3.4040   25.8460   -6.2170 C   0  0  0  0  0  0
    2.5390   26.8410   -7.0440 C   0  0  0  0  0  0
    1.1240   26.8760   -6.6390 N   0  0  0  0  0  0
    0.2400   27.8240   -7.0080 C   0  0  0  0  0  0
   -1.0230   27.7450   -6.5680 N   0  3  0  0  0  0
    0.5960   28.8560   -7.8110 N   0  0  0  0  0  0
    3.9375   25.6962   -1.7609 O   0  5  0  0  0  0
    5.1325   10.6007   -3.5919 H   0  0  0  0  0  0
    3.6744    9.6819   -4.0984 H   0  0  0  0  0  0
    3.5453   10.9389   -2.8216 H   0  0  0  0  0  0
    4.2683   11.3685   -5.7247 H   0  0  0  0  0  0
    1.8499   10.8380   -5.3919 H   0  0  0  0  0  0
    2.0788   12.5521   -5.8779 H   0  0  0  0  0  0
    1.7336   12.1432   -4.1632 H   0  0  0  0  0  0
    4.5101   13.5508   -6.3837 H   0  0  0  0  0  0
    5.1407   15.3488   -3.9487 H   0  0  0  0  0  0
    7.0049   14.8922   -5.5951 H   0  0  0  0  0  0
    6.0488   15.7985   -6.8162 H   0  0  0  0  0  0
    6.2249   17.8367   -5.6093 H   0  0  0  0  0  0
    6.7255   17.0034   -4.0988 H   0  0  0  0  0  0
    8.8740   16.3756   -5.3424 H   0  0  0  0  0  0
    8.3647   17.5675   -6.5861 H   0  0  0  0  0  0
    9.1280   18.1493   -3.6728 H   0  0  0  0  0  0
    9.5076   20.1772   -3.1012 H   0  0  0  0  0  0
    8.0809   19.4029   -6.9829 H   0  0  0  0  0  0
    8.4950   21.1826   -6.4431 H   0  0  0  0  0  0
    3.5483   16.7770   -3.4644 H   0  0  0  0  0  0
    1.5349   17.2092   -5.6527 H   0  0  0  0  0  0
    0.2626   18.5114   -3.8429 H   0  0  0  0  0  0
    2.2778   19.4065   -2.6720 H   0  0  0  0  0  0
   -0.0336   15.9644   -4.0321 H   0  0  0  0  0  0
   -0.1377   16.5115   -2.3243 H   0  0  0  0  0  0
    1.3673   15.7403   -2.9302 H   0  0  0  0  0  0
    0.6520   19.3081   -6.1911 H   0  0  0  0  0  0
    2.5644   21.3849   -6.5628 H   0  0  0  0  0  0
    0.2620   21.3040   -7.6265 H   0  0  0  0  0  0
   -0.4729   21.7260   -6.0427 H   0  0  0  0  0  0
    0.2447   23.9274   -6.1417 H   0  0  0  0  0  0
    1.6169   23.5481   -7.2370 H   0  0  0  0  0  0
    0.0207   24.7861   -8.5156 H   0  0  0  0  0  0
   -0.1116   23.0766   -9.0509 H   0  0  0  0  0  0
   -2.1347   22.7455   -7.8197 H   0  0  0  0  0  0
   -1.9171   24.2760   -6.9050 H   0  0  0  0  0  0
   -3.6003   24.5745   -8.5073 H   0  0  0  0  0  0
   -2.9607   22.7532   -9.9989 H   0  0  0  0  0  0
   -1.5597   23.7244  -10.5652 H   0  0  0  0  0  0
   -3.2338   24.2963  -10.8771 H   0  0  0  0  0  0
   -2.0590   26.3998   -8.1526 H   0  0  0  0  0  0
   -2.7200   26.3752   -9.8227 H   0  0  0  0  0  0
   -1.0460   25.8033   -9.5108 H   0  0  0  0  0  0
    0.5011   20.7395   -3.6635 H   0  0  0  0  0  0
    0.9801   23.4214   -2.5284 H   0  0  0  0  0  0
   -0.8177   21.9280   -1.6819 H   0  0  0  0  0  0
    0.2579   22.4628   -0.3462 H   0  0  0  0  0  0
    0.4180   20.8051   -1.0194 H   0  0  0  0  0  0
    2.5600   20.2344   -2.0758 H   0  0  0  0  0  0
    4.7516   21.2319   -0.4735 H   0  0  0  0  0  0
    4.6793   18.9533   -2.5660 H   0  0  0  0  0  0
    3.0659   18.7093   -0.6483 H   0  0  0  0  0  0
    7.0747   19.6304   -2.0585 H   0  0  0  0  0  0
    6.6760   18.0054   -1.4049 H   0  0  0  0  0  0
    6.7362   19.4253   -0.3063 H   0  0  0  0  0  0
    4.4310   20.8715   -4.0440 H   0  0  0  0  0  0
    7.0947   21.8506   -4.6214 H   0  0  0  0  0  0
    5.5677   20.7518   -6.2992 H   0  0  0  0  0  0
    6.2356   22.2913   -6.9401 H   0  0  0  0  0  0
    4.5490   22.2311   -6.3249 H   0  0  0  0  0  0
    4.1511   23.6097   -3.8051 H   0  0  0  0  0  0
    5.6628   26.1734   -4.5279 H   0  0  0  0  0  0
    2.6294   25.7158   -4.2081 H   0  0  0  0  0  0
    3.4032   27.2860   -4.6111 H   0  0  0  0  0  0
    4.4138   25.8531   -6.6531 H   0  0  0  0  0  0
    2.9584   24.8479   -6.3402 H   0  0  0  0  0  0
    2.9379   27.8593   -6.9260 H   0  0  0  0  0  0
    2.5678   26.5567   -8.1062 H   0  0  0  0  0  0
    0.7189   26.0880   -5.9871 H   0  0  0  0  0  0
   -1.3271   26.9132   -5.9155 H   0  0  0  0  0  0
    1.6292   28.9345   -8.1803 H   0  0  0  0  0  0
   -0.1482   29.6152   -8.0935 H   0  0  0  0  0  0
    9.2648   21.5977   -4.3475 H   0  0  0  0  0  0
   -1.7559   28.5119   -6.8592 H   0  0  0  0  0  0
  1  2  1  0  0  0
  1 64  1  0  0  0
  1 65  1  0  0  0
  1 66  1  0  0  0
  2  3  1  0  0  0
  2  5  1  0  0  0
  2 67  1  0  0  0
  3  4  2  0  0  0
  3  6  1  0  0  0
  5 68  1  0  0  0
  5 69  1  0  0  0
  5 70  1  0  0  0
  6  7  1  0  0  0
  6 71  1  0  0  0
  7  8  1  0  0  0
  7 10  1  0  0  0
  7 72  1  0  0  0
  8  9  2  0  0  0
  8 17  1  0  0  0
 10 11  1  0  0  0
 10 73  1  0  0  0
 10 74  1  0  0  0
 11 12  1  0  0  0
 11 75  1  0  0  0
 11 76  1  0  0  0
 12 13  1  0  0  0
 12 77  1  0  0  0
 12 78  1  0  0  0
 13 14  1  0  0  0
 13 79  1  0  0  0
 14 15  2  0  0  0
 14 16  1  0  0  0
 15 80  1  0  0  0
 15136  1  0  0  0
 16 81  1  0  0  0
 16 82  1  0  0  0
 17 18  1  0  0  0
 17 83  1  0  0  0
 18 19  1  0  0  0
 18 21  1  0  0  0
 18 84  1  0  0  0
 19 20  2  0  0  0
 19 24  1  0  0  0
 21 22  1  0  0  0
 21 23  1  0  0  0
 21 85  1  0  0  0
 22 86  1  0  0  0
 23 87  1  0  0  0
 23 88  1  0  0  0
 23 89  1  0  0  0
 24 25  1  0  0  0
 24 90  1  0  0  0
 25 26  1  0  0  0
 25 33  1  0  0  0
 25 91  1  0  0  0
 26 27  1  0  0  0
 26 92  1  0  0  0
 26 93  1  0  0  0
 27 28  1  0  0  0
 27 94  1  0  0  0
 27 95  1  0  0  0
 28 29  1  0  0  0
 28 96  1  0  0  0
 28 97  1  0  0  0
 29 30  1  0  0  0
 29 98  1  0  0  0
 29 99  1  0  0  0
 30 31  1  0  0  0
 30 32  1  0  0  0
 30100  1  0  0  0
 31101  1  0  0  0
 31102  1  0  0  0
 31103  1  0  0  0
 32104  1  0  0  0
 32105  1  0  0  0
 32106  1  0  0  0
 33 34  2  0  0  0
 33 35  1  0  0  0
 35 36  1  0  0  0
 35107  1  0  0  0
 36 37  1  0  0  0
 36 39  1  0  0  0
 36108  1  0  0  0
 37 38  2  0  0  0
 37 40  1  0  0  0
 39109  1  0  0  0
 39110  1  0  0  0
 39111  1  0  0  0
 40 41  1  0  0  0
 40112  1  0  0  0
 41 42  1  0  0  0
 41 44  1  0  0  0
 41113  1  0  0  0
 42 43  2  0  0  0
 42 47  1  0  0  0
 44 45  1  0  0  0
 44 46  1  0  0  0
 44114  1  0  0  0
 45115  1  0  0  0
 46116  1  0  0  0
 46117  1  0  0  0
 46118  1  0  0  0
 47 48  1  0  0  0
 47119  1  0  0  0
 48 49  1  0  0  0
 48 51  1  0  0  0
 48120  1  0  0  0
 49 50  2  0  0  0
 49 52  1  0  0  0
 51121  1  0  0  0
 51122  1  0  0  0
 51123  1  0  0  0
 52 53  1  0  0  0
 52124  1  0  0  0
 53 54  1  0  0  0
 53 56  1  0  0  0
 53125  1  0  0  0
 54 55  2  0  0  0
 54 63  1  0  0  0
 56 57  1  0  0  0
 56126  1  0  0  0
 56127  1  0  0  0
 57 58  1  0  0  0
 57128  1  0  0  0
 57129  1  0  0  0
 58 59  1  0  0  0
 58130  1  0  0  0
 58131  1  0  0  0
 59 60  1  0  0  0
 59132  1  0  0  0
 60 61  2  0  0  0
 60 62  1  0  0  0
 61133  1  0  0  0
 61137  1  0  0  0
 62134  1  0  0  0
 62135  1  0  0  0
M  CHG  5   1   1  15   1  30   1  61   1  63  -1
M  END
> <s_m_source_file>
../3met_ligand.sdf

> <i_m_source_file_index>
1

> <s_epik_input>
W0hdL049QyhbTkgyXSlcW05IXVtDSDJdW0NIMl1bQ0gyXVtDQEhdKFtOSF1DKD1PKVtDQEBIXShbTkgzK10pW0NIM10pQyg9TylbTkhdW0NAQEhdKFtDQEhdKFtPSF0pW0NIM10pQyg9TylbTkhdW0NAQEhdKFtDSDJdW0NIMl1bQ0gyXVtDSDJdW05IK10oW0NIM10pW0NIM10pQyg9TylbTkhdW0NAQEhdKFtDSDNdKUMoPU8pW05IXVtDQEBIXShbQ0BIXShbT0hdKVtDSDNdKUMoPU8pW05IXVtDQEBIXShbQ0gzXSlDKD1PKVtOSF1bQ0BIXShDKD1PKVtPSF0pW0NIMl1bQ0gyXVtDSDJdW05IXS9DKD1OXFtIXSlbTkgyXQ==

> <s_epik_cmdline>
J2VwaWtfYXBwJywgJy1pbWFlJywgJ2xpZ2FuZF9wcm8ubWFlJywgJy1vbWFlJywgJ2xpZ2FuZF9wcmVwLm1hZScsICctbXMnLCAnMScsICctcGgnLCAnNycsICctcGh0JywgJzAuNScsICctbnQn

> <r_epik_Ionization_Penalty>
  0.1269

> <r_epik_Ionization_Penalty_Charging>
  0.1269

> <r_epik_Ionization_Penalty_Neutral>
  0.0000

> <r_epik_State_Penalty>
  0.1145

> <r_epik_Charging_Adjusted_Penalty>
0.241395806949658

> <i_epik_Tot_Q>
3

> <i_epik_Tot_abs_Q>
5

> <s_epik_Chemistry_Notes>
This compound has an imine and may undergo hydrolysis.

$$$$
