3meu_ligand
                    3D
 Schrodinger Suite 2020-3.
100 99  0  0  1  0            999 V2000
    4.3440  -10.6280    3.7870 N   0  3  0  0  0  0
    4.0100  -11.6560    4.7940 C   0  0  2  0  0  0
    4.5680  -12.9810    4.2920 C   0  0  0  0  0  0
    4.7890  -13.2140    3.1020 O   0  0  0  0  0  0
    2.4860  -11.7480    4.9880 C   0  0  0  0  0  0
    4.9340  -13.9160    5.3480 N   0  0  0  0  0  0
    5.2240  -15.3000    5.0420 C   0  0  1  0  0  0
    6.5460  -15.7220    5.6800 C   0  0  0  0  0  0
    6.8700  -17.1970    5.3740 C   0  0  0  0  0  0
    8.2630  -17.5920    5.9090 C   0  0  0  0  0  0
    8.4290  -19.0630    5.9540 N   0  0  2  0  0  0
    8.7960  -19.7800    4.8740 C   0  0  1  0  0  0
    9.0770  -19.1740    3.7020 N   0  3  2  0  0  0
    9.4970  -19.9460    2.5110 C   0  0  0  0  0  0
    8.9350  -21.1020    4.9770 N   0  0  2  0  0  0
    8.6630  -21.8400    6.2230 C   0  0  0  0  0  0
    4.0410  -16.0990    5.5440 C   0  0  0  0  0  0
    3.6680  -16.1010    6.7070 O   0  0  0  0  0  0
    3.2380  -16.8710    4.5740 N   0  0  0  0  0  0
    2.0560  -17.6840    4.9390 C   0  0  2  0  0  0
    2.5250  -19.1090    5.2200 C   0  0  0  0  0  0
    3.6650  -19.4880    4.8930 O   0  0  0  0  0  0
    1.0240  -17.6670    3.8070 C   0  0  2  0  0  0
    1.6190  -18.2950    2.6640 O   0  0  0  0  0  0
    0.6510  -16.2250    3.4450 C   0  0  0  0  0  0
    1.6410  -19.8790    5.8450 N   0  0  0  0  0  0
    1.8210  -21.3220    5.9490 C   0  0  1  0  0  0
    0.7500  -21.9260    6.8730 C   0  0  0  0  0  0
    0.9480  -23.4070    7.1760 C   0  0  0  0  0  0
    0.0320  -23.8250    8.3270 C   0  0  0  0  0  0
   -1.4150  -23.7810    7.8620 C   0  0  0  0  0  0
   -2.3770  -24.3490    8.8090 N   0  3  0  0  0  0
    1.8100  -21.9420    4.5780 C   0  0  0  0  0  0
    0.9780  -21.5900    3.7340 O   0  0  0  0  0  0
   -2.1820  -25.7930    8.9400 C   0  0  0  0  0  0
   -3.7160  -24.0710    8.2800 C   0  0  0  0  0  0
   -2.3130  -23.6950   10.1330 C   0  0  0  0  0  0
    2.7310  -22.8810    4.3620 N   0  0  0  0  0  0
    2.8950  -23.5420    3.0710 C   0  0  2  0  0  0
    2.0110  -24.7810    2.9940 C   0  0  0  0  0  0
    0.9330  -24.8250    3.5920 O   0  0  0  0  0  0
    4.3630  -23.9250    2.8490 C   0  0  0  0  0  0
    2.3855  -25.7718    2.3116 O   0  5  0  0  0  0
    5.4358  -10.5775    3.6628 H   0  0  0  0  0  0
    3.9675   -9.6503    4.1223 H   0  0  0  0  0  0
    3.8774  -10.8907    2.8261 H   0  0  0  0  0  0
    4.4704  -11.3726    5.7520 H   0  0  0  0  0  0
    2.1036  -10.7824    5.3503 H   0  0  0  0  0  0
    2.2568  -12.5326    5.7241 H   0  0  0  0  0  0
    2.0085  -11.9948    4.0283 H   0  0  0  0  0  0
    4.9886  -13.5594    6.3871 H   0  0  0  0  0  0
    5.3375  -15.4226    3.9548 H   0  0  0  0  0  0
    7.3599  -15.0960    5.2854 H   0  0  0  0  0  0
    6.4831  -15.5968    6.7710 H   0  0  0  0  0  0
    6.1179  -17.8438    5.8494 H   0  0  0  0  0  0
    6.8564  -17.3573    4.2858 H   0  0  0  0  0  0
    9.0401  -17.1736    5.2525 H   0  0  0  0  0  0
    8.3907  -17.1956    6.9271 H   0  0  0  0  0  0
    9.2032  -19.3222    6.6912 H   0  0  0  0  0  0
    7.7191  -19.8003    4.6505 H   0  0  0  0  0  0
    8.1881  -18.6317    3.3473 H   0  0  0  0  0  0
    9.6737  -19.2576    1.6714 H   0  0  0  0  0  0
    8.7058  -20.6603    2.2393 H   0  0  0  0  0  0
   10.4237  -20.4938    2.7372 H   0  0  0  0  0  0
    8.2669  -21.5981    4.2576 H   0  0  0  0  0  0
    8.8477  -22.9123    6.0618 H   0  0  0  0  0  0
    7.6139  -21.6888    6.5171 H   0  0  0  0  0  0
    9.3243  -21.4698    7.0202 H   0  0  0  0  0  0
    3.5656  -16.8166    3.5253 H   0  0  0  0  0  0
    1.5986  -17.2443    5.8376 H   0  0  0  0  0  0
    0.1236  -18.2393    4.0748 H   0  0  0  0  0  0
    1.9566  -19.3402    2.7242 H   0  0  0  0  0  0
    0.1933  -15.7348    4.3169 H   0  0  0  0  0  0
   -0.0646  -16.2301    2.6096 H   0  0  0  0  0  0
    1.5566  -15.6754    3.1488 H   0  0  0  0  0  0
    0.7557  -19.4016    6.2904 H   0  0  0  0  0  0
    2.8166  -21.4948    6.3837 H   0  0  0  0  0  0
    0.7562  -21.3961    7.8369 H   0  0  0  0  0  0
   -0.2396  -21.8224    6.4040 H   0  0  0  0  0  0
    0.7040  -23.9999    6.2822 H   0  0  0  0  0  0
    1.9954  -23.5863    7.4602 H   0  0  0  0  0  0
    0.2851  -24.8474    8.6442 H   0  0  0  0  0  0
    0.1674  -23.1346    9.1726 H   0  0  0  0  0  0
   -1.7138  -22.7361    7.6919 H   0  0  0  0  0  0
   -1.5165  -24.3485    6.9252 H   0  0  0  0  0  0
   -2.2329  -26.2615    7.9461 H   0  0  0  0  0  0
   -2.9692  -26.2124    9.5838 H   0  0  0  0  0  0
   -1.1973  -25.9908    9.3887 H   0  0  0  0  0  0
   -3.8226  -24.5364    7.2890 H   0  0  0  0  0  0
   -3.8568  -22.9836    8.1915 H   0  0  0  0  0  0
   -4.4730  -24.4844    8.9626 H   0  0  0  0  0  0
   -1.3240  -23.8707   10.5813 H   0  0  0  0  0  0
   -3.0918  -24.1142   10.7870 H   0  0  0  0  0  0
   -2.4756  -22.6134   10.0159 H   0  0  0  0  0  0
    3.3826  -23.1525    5.2056 H   0  0  0  0  0  0
    2.5750  -22.8097    2.3151 H   0  0  0  0  0  0
    4.9900  -23.0231    2.9069 H   0  0  0  0  0  0
    4.4755  -24.3867    1.8569 H   0  0  0  0  0  0
    4.6766  -24.6400    3.6239 H   0  0  0  0  0  0
    9.9060  -18.4653    3.8452 H   0  0  0  0  0  0
  1  2  1  0  0  0
  1 44  1  0  0  0
  1 45  1  0  0  0
  1 46  1  0  0  0
  2  3  1  0  0  0
  2  5  1  0  0  0
  2 47  1  0  0  0
  3  4  2  0  0  0
  3  6  1  0  0  0
  5 48  1  0  0  0
  5 49  1  0  0  0
  5 50  1  0  0  0
  6  7  1  0  0  0
  6 51  1  0  0  0
  7  8  1  0  0  0
  7 17  1  0  0  0
  7 52  1  0  0  0
  8  9  1  0  0  0
  8 53  1  0  0  0
  8 54  1  0  0  0
  9 10  1  0  0  0
  9 55  1  0  0  0
  9 56  1  0  0  0
 10 11  1  0  0  0
 10 57  1  0  0  0
 10 58  1  0  0  0
 11 12  1  0  0  0
 11 59  1  0  0  0
 12 13  1  0  0  0
 12 15  1  0  0  0
 12 60  1  0  0  0
 13 14  1  0  0  0
 13 61  1  0  0  0
 13100  1  0  0  0
 14 62  1  0  0  0
 14 63  1  0  0  0
 14 64  1  0  0  0
 15 16  1  0  0  0
 15 65  1  0  0  0
 16 66  1  0  0  0
 16 67  1  0  0  0
 16 68  1  0  0  0
 17 18  2  0  0  0
 17 19  1  0  0  0
 19 20  1  0  0  0
 19 69  1  0  0  0
 20 21  1  0  0  0
 20 23  1  0  0  0
 20 70  1  0  0  0
 21 22  2  0  0  0
 21 26  1  0  0  0
 23 24  1  0  0  0
 23 25  1  0  0  0
 23 71  1  0  0  0
 24 72  1  0  0  0
 25 73  1  0  0  0
 25 74  1  0  0  0
 25 75  1  0  0  0
 26 27  1  0  0  0
 26 76  1  0  0  0
 27 28  1  0  0  0
 27 33  1  0  0  0
 27 77  1  0  0  0
 28 29  1  0  0  0
 28 78  1  0  0  0
 28 79  1  0  0  0
 29 30  1  0  0  0
 29 80  1  0  0  0
 29 81  1  0  0  0
 30 31  1  0  0  0
 30 82  1  0  0  0
 30 83  1  0  0  0
 31 32  1  0  0  0
 31 84  1  0  0  0
 31 85  1  0  0  0
 32 35  1  0  0  0
 32 36  1  0  0  0
 32 37  1  0  0  0
 33 34  2  0  0  0
 33 38  1  0  0  0
 35 86  1  0  0  0
 35 87  1  0  0  0
 35 88  1  0  0  0
 36 89  1  0  0  0
 36 90  1  0  0  0
 36 91  1  0  0  0
 37 92  1  0  0  0
 37 93  1  0  0  0
 37 94  1  0  0  0
 38 39  1  0  0  0
 38 95  1  0  0  0
 39 40  1  0  0  0
 39 42  1  0  0  0
 39 96  1  0  0  0
 40 41  2  0  0  0
 40 43  1  0  0  0
 42 97  1  0  0  0
 42 98  1  0  0  0
 42 99  1  0  0  0
M  CHG  4   1   1  13   1  32   1  43  -1
M  END
> <s_m_source_file>
../3meu_ligand.sdf

> <i_m_source_file_index>
1

> <s_epik_input>
W0NIM11bTkhdW0NIXShbTkhdW0NIM10pW05IXVtDSDJdW0NIMl1bQ0gyXVtDQEhdKFtOSF1DKD1PKVtDQEBIXShbTkgzK10pW0NIM10pQyg9TylbTkhdW0NAQEhdKFtDQEhdKFtPSF0pW0NIM10pQyg9TylbTkhdW0NASF0oQyg9TylbTkhdW0NAQEhdKFtDSDNdKUMoPU8pW09IXSlbQ0gyXVtDSDJdW0NIMl1bQ0gyXVtOK10oW0NIM10pKFtDSDNdKVtDSDNd

> <s_epik_cmdline>
J2VwaWtfYXBwJywgJy1pbWFlJywgJ2xpZ2FuZF9wcm8ubWFlJywgJy1vbWFlJywgJ2xpZ2FuZF9wcmVwLm1hZScsICctbXMnLCAnMScsICctcGgnLCAnNycsICctcGh0JywgJzAuNScsICctbnQn

> <r_lp_tautomer_probability>
1

> <r_epik_Ionization_Penalty>
  0.1204

> <r_epik_Ionization_Penalty_Charging>
  0.1204

> <r_epik_Ionization_Penalty_Neutral>
  0.0000

> <r_epik_State_Penalty>
 -0.0000

> <r_epik_Charging_Adjusted_Penalty>
0.120351988589432

> <i_epik_Tot_Q>
2

> <i_epik_Tot_abs_Q>
4

> <s_epik_Chemistry_Notes>
This compound contains an acetal/aminal-like group ( X-CH(R)-Y where X, Y are N, S, or O) that may be acid/base labile, releasing an aldehyde.

$$$$
