3mf5_ligand
                    3D
 Schrodinger Suite 2020-3.
 50 53  0  0  1  0            999 V2000
   77.4740   31.8080   -8.2860 S   0  0  0  0  0  0
   75.9660   32.0190   -9.0730 C   0  0  0  0  0  0
   76.1540   32.6770  -10.2470 C   0  0  0  0  0  0
   77.4250   32.9780  -10.4910 C   0  0  0  0  0  0
   78.3290   32.6010   -9.5580 C   0  0  0  0  0  0
   74.8030   31.5710   -8.3730 C   0  0  0  0  0  0
   79.7530   32.7670   -9.4860 C   0  0  0  0  0  0
   77.7580   33.6670  -11.7390 C   0  0  0  0  0  0
   80.3440   32.2960   -8.4880 O   0  5  0  0  0  0
   80.5080   33.3050  -10.2320 O   0  0  0  0  0  0
   77.7570   35.0380  -11.9170 C   0  0  0  0  0  0
   78.4340   34.7500  -14.3400 C   0  0  0  0  0  0
   78.4260   33.3160  -14.1450 C   0  0  0  0  0  0
   78.0830   35.6180  -13.2300 C   0  0  0  0  0  0
   78.0900   32.7610  -12.8580 C   0  0  0  0  0  0
   73.6180   32.3910   -8.5960 C   0  0  0  0  0  0
   72.4180   30.8830   -6.9710 C   0  0  0  0  0  0
   73.5770   30.0840   -6.7220 C   0  0  0  0  0  0
   72.4360   32.0250   -7.8850 C   0  0  0  0  0  0
   74.7710   30.4180   -7.4260 C   0  0  0  0  0  0
   77.3840   35.9280  -10.7470 C   0  0  1  0  0  0
   78.3000   37.1080  -10.4950 C   0  0  0  0  0  0
   77.6860   37.9500   -9.3230 C   0  0  0  0  0  0
   76.2550   38.4040   -9.6340 C   0  0  1  0  0  0
   75.2460   37.2660  -10.0810 C   0  0  0  0  0  0
   75.8870   36.3030  -11.1350 C   0  0  0  0  0  0
   75.6650   39.3010   -8.5220 C   0  0  0  0  0  0
   75.3394   32.9336  -10.9243 H   0  0  0  0  0  0
   78.7003   35.1734  -15.3084 H   0  0  0  0  0  0
   78.6749   32.6536  -14.9741 H   0  0  0  0  0  0
   78.0609   36.6989  -13.3691 H   0  0  0  0  0  0
   78.0809   31.6810  -12.7113 H   0  0  0  0  0  0
   73.6343   33.2440   -9.2744 H   0  0  0  0  0  0
   71.4876   30.6323   -6.4616 H   0  0  0  0  0  0
   73.5489   29.2505   -6.0201 H   0  0  0  0  0  0
   71.5267   32.6092   -8.0261 H   0  0  0  0  0  0
   75.6716   29.8239   -7.2706 H   0  0  0  0  0  0
   77.5386   35.4338   -9.7765 H   0  0  0  0  0  0
   79.3005   36.7432  -10.2194 H   0  0  0  0  0  0
   78.3708   37.7186  -11.4072 H   0  0  0  0  0  0
   77.6629   37.3412   -8.4071 H   0  0  0  0  0  0
   78.3021   38.8452   -9.1527 H   0  0  0  0  0  0
   76.4077   39.0359  -10.5214 H   0  0  0  0  0  0
   74.9519   36.6714   -9.2035 H   0  0  0  0  0  0
   74.3523   37.7240  -10.5299 H   0  0  0  0  0  0
   75.8764   36.8025  -12.1150 H   0  0  0  0  0  0
   75.2804   35.3867  -11.1839 H   0  0  0  0  0  0
   76.3985   40.0728   -8.2458 H   0  0  0  0  0  0
   75.4304   38.6860   -7.6407 H   0  0  0  0  0  0
   74.7463   39.7825   -8.8882 H   0  0  0  0  0  0
  1  2  1  0  0  0
  1  5  1  0  0  0
  2  3  2  0  0  0
  2  6  1  0  0  0
  3  4  1  0  0  0
  3 28  1  0  0  0
  4  5  2  0  0  0
  4  8  1  0  0  0
  5  7  1  0  0  0
  6 16  2  0  0  0
  6 20  1  0  0  0
  7  9  1  0  0  0
  7 10  2  0  0  0
  8 11  2  0  0  0
  8 15  1  0  0  0
 11 14  1  0  0  0
 11 21  1  0  0  0
 12 13  1  0  0  0
 12 14  2  0  0  0
 12 29  1  0  0  0
 13 15  2  0  0  0
 13 30  1  0  0  0
 14 31  1  0  0  0
 15 32  1  0  0  0
 16 19  1  0  0  0
 16 33  1  0  0  0
 17 18  1  0  0  0
 17 19  2  0  0  0
 17 34  1  0  0  0
 18 20  2  0  0  0
 18 35  1  0  0  0
 19 36  1  0  0  0
 20 37  1  0  0  0
 21 22  1  0  0  0
 21 26  1  0  0  0
 21 38  1  0  0  0
 22 23  1  0  0  0
 22 39  1  0  0  0
 22 40  1  0  0  0
 23 24  1  0  0  0
 23 41  1  0  0  0
 23 42  1  0  0  0
 24 25  1  0  0  0
 24 27  1  0  0  0
 24 43  1  0  0  0
 25 26  1  0  0  0
 25 44  1  0  0  0
 25 45  1  0  0  0
 26 46  1  0  0  0
 26 47  1  0  0  0
 27 48  1  0  0  0
 27 49  1  0  0  0
 27 50  1  0  0  0
M  CHG  1   9  -1
M  END
> <s_m_source_file>
../3mf5_ligand.sdf

> <i_m_source_file_index>
1

> <s_epik_input>
W2NIXTFbY0hdW2NIXVtjSF1bY0hdYzEtYzJzYyhDKD1PKVtPSF0pYyhbY0hdMiktYzNjKFtjSF1bY0hdW2NIXVtjSF0zKVtDQEhdNFtDSDJdW0NIMl1bQ0BIXShbQ0gzXSlbQ0gyXVtDSDJdNA==

> <s_epik_cmdline>
J2VwaWtfYXBwJywgJy1pbWFlJywgJ2xpZ2FuZF9wcm8ubWFlJywgJy1vbWFlJywgJ2xpZ2FuZF9wcmVwLm1hZScsICctbXMnLCAnMScsICctcGgnLCAnNycsICctcGh0JywgJzAuNScsICctbnQn

> <r_lp_tautomer_probability>
1

> <r_epik_Ionization_Penalty>
  0.0000

> <r_epik_Ionization_Penalty_Charging>
  0.0000

> <r_epik_Ionization_Penalty_Neutral>
  0.0000

> <r_epik_State_Penalty>
 -0.0000

> <r_epik_Charging_Adjusted_Penalty>
3.43847063575555e-05

> <i_epik_Tot_Q>
-1

> <i_epik_Tot_abs_Q>
1

$$$$
