3mg0_ligand
                    3D
 Schrodinger Suite 2020-3.
 53 54  0  0  1  0            999 V2000
   62.2320 -135.4130   35.2100 N   0  0  0  0  0  0
   62.0830 -134.4560   36.1520 C   0  0  0  0  0  0
   62.5400 -133.1640   35.8890 C   0  0  0  0  0  0
   63.0950 -132.8720   34.7080 N   0  0  0  0  0  0
   63.2340 -133.8220   33.7720 C   0  0  0  0  0  0
   62.7910 -135.1170   34.0280 C   0  0  0  0  0  0
   61.4800 -134.7780   37.4900 C   0  0  0  0  0  0
   60.8910 -133.9160   38.1260 O   0  0  0  0  0  0
   61.6180 -136.0100   37.9610 N   0  0  0  0  0  0
   61.1030 -136.3550   39.2760 C   0  0  1  0  0  0
   60.3480 -137.6740   39.2030 C   0  0  0  0  0  0
   58.9470 -137.4520   38.6920 C   0  0  0  0  0  0
   58.6460 -137.7850   37.3650 C   0  0  0  0  0  0
   57.3520 -137.5930   36.8650 C   0  0  0  0  0  0
   56.3570 -137.0710   37.6990 C   0  0  0  0  0  0
   56.6620 -136.7430   39.0280 C   0  0  0  0  0  0
   57.9540 -136.9330   39.5330 C   0  0  0  0  0  0
   62.2840 -136.5390   40.1800 C   0  0  0  0  0  0
   63.3400 -137.0060   39.7610 O   0  0  0  0  0  0
   62.1250 -136.1360   41.4300 N   0  0  0  0  0  0
   63.2130 -136.3040   42.3820 C   0  0  1  0  0  0
   63.8520 -134.9760   42.8390 C   0  0  0  0  0  0
   63.2550 -133.6600   42.3570 C   0  0  0  0  0  0
   62.2100 -133.1480   43.3300 C   0  0  0  0  0  0
   64.3410 -132.6080   42.2260 C   0  0  0  0  0  0
   62.5430 -137.0990   43.5990 B   0  0  0  0  0  0
   61.7900 -136.3500   44.6940 O   0  0  0  0  0  0
   62.5890 -138.6320   43.6320 O   0  0  0  0  0  0
   62.4441 -132.3893   36.6497 H   0  0  0  0  0  0
   63.6927 -133.5811   32.8130 H   0  0  0  0  0  0
   62.8987 -135.8902   33.2673 H   0  0  0  0  0  0
   62.1250 -136.7725   37.3515 H   0  0  0  0  0  0
   60.4431 -135.5430   39.6154 H   0  0  0  0  0  0
   60.8728 -138.3596   38.5214 H   0  0  0  0  0  0
   60.2959 -138.1227   40.2060 H   0  0  0  0  0  0
   59.4222 -138.1952   36.7189 H   0  0  0  0  0  0
   57.1210 -137.8490   35.8310 H   0  0  0  0  0  0
   55.3475 -136.9197   37.3167 H   0  0  0  0  0  0
   55.8848 -136.3358   39.6748 H   0  0  0  0  0  0
   58.1844 -136.6802   40.5679 H   0  0  0  0  0  0
   61.1787 -135.6766   41.7517 H   0  0  0  0  0  0
   64.0309 -136.8164   41.8543 H   0  0  0  0  0  0
   63.8132 -134.9089   43.9363 H   0  0  0  0  0  0
   64.8999 -134.9397   42.5063 H   0  0  0  0  0  0
   62.7841 -133.8430   41.3799 H   0  0  0  0  0  0
   61.4123 -133.8975   43.4392 H   0  0  0  0  0  0
   61.7817 -132.2096   42.9479 H   0  0  0  0  0  0
   62.6782 -132.9657   44.3085 H   0  0  0  0  0  0
   65.1102 -132.9607   41.5232 H   0  0  0  0  0  0
   64.7982 -132.4285   43.2103 H   0  0  0  0  0  0
   63.9017 -131.6724   41.8496 H   0  0  0  0  0  0
   61.7501 -135.2508   44.6809 H   0  0  0  0  0  0
   63.1289 -139.1831   42.8479 H   0  0  0  0  0  0
  1  2  2  0  0  0
  1  6  1  0  0  0
  2  3  1  0  0  0
  2  7  1  0  0  0
  3  4  2  0  0  0
  3 29  1  0  0  0
  4  5  1  0  0  0
  5  6  2  0  0  0
  5 30  1  0  0  0
  6 31  1  0  0  0
  7  8  2  0  0  0
  7  9  1  0  0  0
  9 10  1  0  0  0
  9 32  1  0  0  0
 10 11  1  0  0  0
 10 18  1  0  0  0
 10 33  1  0  0  0
 11 12  1  0  0  0
 11 34  1  0  0  0
 11 35  1  0  0  0
 12 13  2  0  0  0
 12 17  1  0  0  0
 13 14  1  0  0  0
 13 36  1  0  0  0
 14 15  2  0  0  0
 14 37  1  0  0  0
 15 16  1  0  0  0
 15 38  1  0  0  0
 16 17  2  0  0  0
 16 39  1  0  0  0
 17 40  1  0  0  0
 18 19  2  0  0  0
 18 20  1  0  0  0
 20 21  1  0  0  0
 20 41  1  0  0  0
 21 22  1  0  0  0
 21 26  1  0  0  0
 21 42  1  0  0  0
 22 23  1  0  0  0
 22 43  1  0  0  0
 22 44  1  0  0  0
 23 24  1  0  0  0
 23 25  1  0  0  0
 23 45  1  0  0  0
 24 46  1  0  0  0
 24 47  1  0  0  0
 24 48  1  0  0  0
 25 49  1  0  0  0
 25 50  1  0  0  0
 25 51  1  0  0  0
 26 27  1  0  0  0
 26 28  1  0  0  0
 27 52  1  0  0  0
 28 53  1  0  0  0
M  END
> <s_m_source_file>
../3mg0_ligand.sdf

> <i_m_source_file_index>
1

> <s_epik_input>
W2NIXTFuW2NIXVtjSF1uYzFDKD1PKVtOSF1bQ0BIXShDKD1PKVtOSF1bQ0BIXShCKFtPSF0pW09IXSlbQ0gyXVtDSF0oW0NIM10pW0NIM10pW0NIMl1jMltjSF1bY0hdW2NIXVtjSF1bY0hdMg==

> <s_epik_cmdline>
J2VwaWtfYXBwJywgJy1pbWFlJywgJ2xpZ2FuZF9wcm8ubWFlJywgJy1vbWFlJywgJ2xpZ2FuZF9wcmVwLm1hZScsICctbXMnLCAnMScsICctcGgnLCAnNycsICctcGh0JywgJzAuNScsICctbnQn

> <r_lp_tautomer_probability>
1

> <r_epik_Ionization_Penalty>
  0.0000

> <r_epik_Ionization_Penalty_Charging>
  0.0000

> <r_epik_Ionization_Penalty_Neutral>
  0.0000

> <r_epik_State_Penalty>
 -0.0000

> <r_epik_Charging_Adjusted_Penalty>
0

> <i_epik_Tot_Q>
0

> <i_epik_Tot_abs_Q>
0

> <s_epik_Chemistry_Notes>
This compound contains a Lewis acid (boronic acid) which adds nucleophiles to form tetrahedral complexes, lowering the experimental pKa

$$$$
