3mg6_ligand
                    3D
 Schrodinger Suite 2020-3.
 82 85  0  0  1  0            999 V2000
   13.9130 -135.7030   23.8450 C   0  0  0  0  0  0
   13.3750 -136.0610   25.0750 C   0  0  0  0  0  0
   14.0710 -135.7200   26.2180 C   0  0  0  0  0  0
   13.5200 -136.1000   27.4020 O   0  0  0  0  0  0
   14.2460 -135.4720   28.4220 C   0  0  0  0  0  0
   15.2780 -135.0090   26.1260 C   0  0  0  0  0  0
   15.8060 -134.6320   24.8830 C   0  0  0  0  0  0
   15.1060 -134.9770   23.7270 C   0  0  0  0  0  0
   15.3220 -134.7970   22.3530 C   0  0  0  0  0  0
   15.9660 -133.8840   21.8380 O   0  0  0  0  0  0
   14.6280 -135.9500   21.5880 C   0  0  0  0  0  0
   13.3690 -135.8410   22.4330 C   0  0  1  0  0  0
   12.2350 -136.8890   22.3930 C   0  0  0  0  0  0
    7.9100 -131.2320   13.2820 C   0  0  0  0  0  0
    8.5870 -132.6020   13.1240 C   0  0  0  0  0  0
    8.0670 -133.7370   13.7410 C   0  0  0  0  0  0
    8.6980 -134.9640   13.5670 C   0  0  0  0  0  0
    9.8490 -135.0300   12.7720 C   0  0  0  0  0  0
   10.3590 -133.9010   12.1510 C   0  0  0  0  0  0
    9.7250 -132.6860   12.3320 C   0  0  0  0  0  0
   10.5790 -136.3520   12.5520 C   0  0  0  0  0  0
   11.3630 -136.6520   13.7410 N   0  0  0  0  0  0
   10.8810 -137.4650   14.6650 C   0  0  0  0  0  0
    9.7650 -137.9870   14.5690 O   0  0  0  0  0  0
   11.8250 -137.6960   15.8800 C   0  0  2  0  0  0
   12.5820 -139.0080   15.7310 C   0  0  0  0  0  0
   11.0400 -137.7150   17.1240 N   0  0  0  0  0  0
   13.4250 -139.2660   16.9850 C   0  0  0  0  0  0
   11.1050 -136.7740   18.0620 C   0  0  0  0  0  0
   11.8310 -135.7900   18.0370 O   0  0  0  0  0  0
   10.1700 -137.0320   19.2240 C   0  0  1  0  0  0
   10.7180 -136.6750   20.5470 N   0  0  0  0  0  0
    8.8070 -136.3740   19.0170 C   0  0  2  0  0  0
    7.9450 -136.9120   19.9990 O   0  0  0  0  0  0
    8.2200 -136.6960   17.6550 C   0  0  0  0  0  0
   14.6910 -138.4150   16.9490 C   0  0  0  0  0  0
   15.5470 -138.4810   15.8420 C   0  0  0  0  0  0
   14.9830 -137.5680   18.0120 C   0  0  0  0  0  0
   16.7160 -137.7160   15.7950 C   0  0  0  0  0  0
   17.0130 -136.8740   16.8630 C   0  0  0  0  0  0
   16.1520 -136.8020   17.9590 C   0  0  0  0  0  0
   11.8070 -137.2660   21.0100 C   0  0  0  0  0  0
   12.4760 -138.0910   20.4000 O   0  0  0  0  0  0
   12.4280 -136.5972   25.1362 H   0  0  0  0  0  0
   13.8276 -135.7568   29.3986 H   0  0  0  0  0  0
   14.1815 -134.3807   28.2995 H   0  0  0  0  0  0
   15.2991 -135.7853   28.3688 H   0  0  0  0  0  0
   15.8145 -134.7452   27.0375 H   0  0  0  0  0  0
   16.7442 -134.0806   24.8214 H   0  0  0  0  0  0
   14.5431 -135.6850   20.5238 H   0  0  0  0  0  0
   15.2238 -136.8690   21.6906 H   0  0  0  0  0  0
   12.8149 -134.9970   21.9965 H   0  0  0  0  0  0
   12.5692 -137.8101   22.8929 H   0  0  0  0  0  0
   11.3497 -136.4913   22.9108 H   0  0  0  0  0  0
    7.0294 -131.3312   13.9338 H   0  0  0  0  0  0
    7.5957 -130.8623   12.2948 H   0  0  0  0  0  0
    8.6201 -130.5217   13.7306 H   0  0  0  0  0  0
    7.1706 -133.6641   14.3568 H   0  0  0  0  0  0
    8.3024 -135.8615   14.0426 H   0  0  0  0  0  0
   11.2500 -133.9702   11.5269 H   0  0  0  0  0  0
   10.1195 -131.7907   11.8515 H   0  0  0  0  0  0
    9.8444 -137.1516   12.3758 H   0  0  0  0  0  0
   11.2417 -136.2640   11.6784 H   0  0  0  0  0  0
   12.3582 -136.2019   13.8716 H   0  0  0  0  0  0
   12.5510 -136.8744   15.9696 H   0  0  0  0  0  0
   11.8652 -139.8319   15.5986 H   0  0  0  0  0  0
   13.2429 -138.9524   14.8534 H   0  0  0  0  0  0
   10.3457 -138.5445   17.3236 H   0  0  0  0  0  0
   12.8403 -139.0061   17.8797 H   0  0  0  0  0  0
   13.7052 -140.3289   17.0262 H   0  0  0  0  0  0
   10.0668 -138.1264   19.2635 H   0  0  0  0  0  0
   10.2200 -135.9095   21.1602 H   0  0  0  0  0  0
    8.8688 -135.2828   19.1414 H   0  0  0  0  0  0
    8.1840 -136.7921   21.0660 H   0  0  0  0  0  0
    8.8723 -136.2879   16.8689 H   0  0  0  0  0  0
    7.2196 -136.2464   17.5713 H   0  0  0  0  0  0
    8.1427 -137.7870   17.5377 H   0  0  0  0  0  0
   15.2985 -139.1366   15.0074 H   0  0  0  0  0  0
   14.3140 -137.5022   18.8700 H   0  0  0  0  0  0
   17.3842 -137.7778   14.9360 H   0  0  0  0  0  0
   17.9199 -136.2697   16.8432 H   0  0  0  0  0  0
   16.3948 -136.1373   18.7880 H   0  0  0  0  0  0
  1  2  2  0  0  0
  1  8  1  0  0  0
  1 12  1  0  0  0
  2  3  1  0  0  0
  2 44  1  0  0  0
  3  4  1  0  0  0
  3  6  2  0  0  0
  4  5  1  0  0  0
  5 45  1  0  0  0
  5 46  1  0  0  0
  5 47  1  0  0  0
  6  7  1  0  0  0
  6 48  1  0  0  0
  7  8  2  0  0  0
  7 49  1  0  0  0
  8  9  1  0  0  0
  9 10  2  0  0  0
  9 11  1  0  0  0
 11 12  1  0  0  0
 11 50  1  0  0  0
 11 51  1  0  0  0
 12 13  1  0  0  0
 12 52  1  0  0  0
 13 42  1  0  0  0
 13 53  1  0  0  0
 13 54  1  0  0  0
 14 15  1  0  0  0
 14 55  1  0  0  0
 14 56  1  0  0  0
 14 57  1  0  0  0
 15 16  2  0  0  0
 15 20  1  0  0  0
 16 17  1  0  0  0
 16 58  1  0  0  0
 17 18  2  0  0  0
 17 59  1  0  0  0
 18 19  1  0  0  0
 18 21  1  0  0  0
 19 20  2  0  0  0
 19 60  1  0  0  0
 20 61  1  0  0  0
 21 22  1  0  0  0
 21 62  1  0  0  0
 21 63  1  0  0  0
 22 23  1  0  0  0
 22 64  1  0  0  0
 23 24  2  0  0  0
 23 25  1  0  0  0
 25 26  1  0  0  0
 25 27  1  0  0  0
 25 65  1  0  0  0
 26 28  1  0  0  0
 26 66  1  0  0  0
 26 67  1  0  0  0
 27 29  1  0  0  0
 27 68  1  0  0  0
 28 36  1  0  0  0
 28 69  1  0  0  0
 28 70  1  0  0  0
 29 30  2  0  0  0
 29 31  1  0  0  0
 31 32  1  0  0  0
 31 33  1  0  0  0
 31 71  1  0  0  0
 32 42  1  0  0  0
 32 72  1  0  0  0
 33 34  1  0  0  0
 33 35  1  0  0  0
 33 73  1  0  0  0
 34 74  1  0  0  0
 35 75  1  0  0  0
 35 76  1  0  0  0
 35 77  1  0  0  0
 36 37  2  0  0  0
 36 38  1  0  0  0
 37 39  1  0  0  0
 37 78  1  0  0  0
 38 41  2  0  0  0
 38 79  1  0  0  0
 39 40  2  0  0  0
 39 80  1  0  0  0
 40 41  1  0  0  0
 40 81  1  0  0  0
 41 82  1  0  0  0
 42 43  2  0  0  0
M  END
> <s_m_source_file>
../3mg6_ligand.sdf

> <i_m_source_file_index>
1

> <s_epik_input>
W0NIM11PYyhbY0hdMSlbY0hdW2NIXWMoYzEyKUMoPU8pW0NIMl1bQ0BIXTJbQ0gyXUMoPU8pW05IXVtDQEBIXShbQ0BIXShbT0hdKVtDSDNdKUMoPU8pW05IXVtDQEhdKEMoPU8pW05IXVtDSDJdYyhbY0hdW2NIXTMpW2NIXVtjSF1jM1tDSDNdKVtDSDJdW0NIMl1jNFtjSF1bY0hdW2NIXVtjSF1bY0hdNA==

> <s_epik_cmdline>
J2VwaWtfYXBwJywgJy1pbWFlJywgJ2xpZ2FuZF9wcm8ubWFlJywgJy1vbWFlJywgJ2xpZ2FuZF9wcmVwLm1hZScsICctbXMnLCAnMScsICctcGgnLCAnNycsICctcGh0JywgJzAuNScsICctbnQn

> <r_lp_tautomer_probability>
1

> <r_epik_Ionization_Penalty>
  0.0000

> <r_epik_Ionization_Penalty_Charging>
  0.0000

> <r_epik_Ionization_Penalty_Neutral>
  0.0000

> <r_epik_State_Penalty>
 -0.0000

> <r_epik_Charging_Adjusted_Penalty>
0

> <i_epik_Tot_Q>
0

> <i_epik_Tot_abs_Q>
0

$$$$
