3mg7_ligand
                    3D
 Schrodinger Suite 2020-3.
 83 86  0  0  1  0            999 V2000
    9.5750 -135.0990   12.7880 C   0  0  0  0  0  0
    8.2580 -135.1770   13.2320 C   0  0  0  0  0  0
    7.5020 -134.0220   13.4290 C   0  0  0  0  0  0
    8.0540 -132.7740   13.1740 C   0  0  0  0  0  0
    9.3680 -132.6890   12.7270 C   0  0  0  0  0  0
   10.1310 -133.8420   12.5340 C   0  0  0  0  0  0
   10.3210 -136.4200   12.5850 C   0  0  0  0  0  0
   11.6710 -137.5150   22.3260 C   0  0  0  0  0  0
   10.5460 -137.7060   14.6490 C   0  0  0  0  0  0
    9.4490 -138.2430   14.5130 O   0  0  0  0  0  0
   11.4540 -137.9990   15.8600 C   0  0  2  0  0  0
   12.1740 -139.3440   15.6820 C   0  0  0  0  0  0
   10.6160 -138.0100   17.0660 N   0  0  0  0  0  0
   13.0260 -139.7240   16.8910 C   0  0  0  0  0  0
   10.6270 -137.0420   17.9720 C   0  0  0  0  0  0
   11.3400 -136.0450   17.9230 O   0  0  0  0  0  0
    9.6330 -137.2810   19.1120 C   0  0  1  0  0  0
   10.2110 -137.0880   20.4550 N   0  0  0  0  0  0
    8.3790 -136.4130   18.9510 C   0  0  2  0  0  0
    7.5300 -136.6460   20.0700 O   0  0  0  0  0  0
   14.1860 -138.7460   17.0550 C   0  0  0  0  0  0
   14.2000 -137.8670   18.1440 C   0  0  0  0  0  0
   15.2230 -138.7320   16.1200 C   0  0  0  0  0  0
   15.2600 -136.9730   18.2870 C   0  0  0  0  0  0
   16.2940 -136.9580   17.3500 C   0  0  0  0  0  0
   16.2830 -137.8370   16.2700 C   0  0  0  0  0  0
   11.2280 -137.8180   20.9040 C   0  0  0  0  0  0
   11.8000 -138.6850   20.2510 O   0  0  0  0  0  0
   11.0370 -136.8290   13.7910 N   0  0  0  0  0  0
   11.8910 -138.5690   23.2200 C   0  0  0  0  0  0
   12.2960 -138.2860   24.5270 C   0  0  0  0  0  0
   12.4740 -136.9530   24.9260 C   0  0  0  0  0  0
   12.2400 -135.9130   24.0250 C   0  0  0  0  0  0
   11.8420 -136.1920   22.7230 C   0  0  0  0  0  0
   12.8580 -136.5910   26.1830 O   0  0  0  0  0  0
   13.4900 -137.5600   27.0380 C   0  0  0  0  0  0
   14.2290 -137.0460   28.0980 C   0  0  0  0  0  0
   15.5600 -137.4260   28.2780 C   0  0  0  0  0  0
   16.2960 -136.8900   29.3330 C   0  0  0  0  0  0
   15.6990 -135.9730   30.2020 C   0  0  0  0  0  0
   14.3680 -135.5940   30.0210 C   0  0  0  0  0  0
   13.6340 -136.1230   28.9610 C   0  0  0  0  0  0
    7.6340 -136.7490   17.6640 C   0  0  0  0  0  0
   11.7820 -133.6980   11.9840 C   0  0  0  0  0  0
    7.8125 -136.1523   13.4280 H   0  0  0  0  0  0
    6.4744 -134.0993   13.7843 H   0  0  0  0  0  0
    7.4634 -131.8700   13.3227 H   0  0  0  0  0  0
    9.8068 -131.7119   12.5252 H   0  0  0  0  0  0
    9.6020 -137.2109   12.3251 H   0  0  0  0  0  0
   11.0520 -136.3070   11.7708 H   0  0  0  0  0  0
   12.2121 -137.2135   15.9952 H   0  0  0  0  0  0
   11.4306 -140.1407   15.5312 H   0  0  0  0  0  0
   12.8378 -139.2915   14.8065 H   0  0  0  0  0  0
    9.9339 -138.8522   17.2541 H   0  0  0  0  0  0
   12.4058 -139.6987   17.7991 H   0  0  0  0  0  0
   13.4299 -140.7375   16.7510 H   0  0  0  0  0  0
    9.3718 -138.3490   19.0775 H   0  0  0  0  0  0
    9.8007 -136.3180   21.1249 H   0  0  0  0  0  0
    8.6323 -135.3426   18.9562 H   0  0  0  0  0  0
    7.8989 -136.4575   21.0890 H   0  0  0  0  0  0
   13.3900 -137.8813   18.8732 H   0  0  0  0  0  0
   15.2045 -139.4192   15.2741 H   0  0  0  0  0  0
   15.2812 -136.2847   19.1319 H   0  0  0  0  0  0
   17.1170 -136.2525   17.4644 H   0  0  0  0  0  0
   17.0977 -137.8260   15.5460 H   0  0  0  0  0  0
   12.0262 -136.4030   14.0144 H   0  0  0  0  0  0
   11.7478 -139.6010   22.8997 H   0  0  0  0  0  0
   12.4728 -139.0972   25.2332 H   0  0  0  0  0  0
   12.3698 -134.8787   24.3436 H   0  0  0  0  0  0
   11.6650 -135.3802   22.0175 H   0  0  0  0  0  0
   12.7232 -138.2091   27.4860 H   0  0  0  0  0  0
   14.1877 -138.1711   26.4466 H   0  0  0  0  0  0
   16.0221 -138.1395   27.5957 H   0  0  0  0  0  0
   17.3349 -137.1854   29.4799 H   0  0  0  0  0  0
   16.2757 -135.5515   31.0254 H   0  0  0  0  0  0
   13.9036 -134.8858   30.7072 H   0  0  0  0  0  0
   12.5992 -135.8175   28.8060 H   0  0  0  0  0  0
    8.2922 -136.5681   16.8014 H   0  0  0  0  0  0
    6.7392 -136.1144   17.5820 H   0  0  0  0  0  0
    7.3331 -137.8069   17.6801 H   0  0  0  0  0  0
   12.2254 -134.7001   11.8885 H   0  0  0  0  0  0
   12.3605 -133.1088   12.7108 H   0  0  0  0  0  0
   11.8001 -133.1943   11.0063 H   0  0  0  0  0  0
  1  2  2  0  0  0
  1  6  1  0  0  0
  1  7  1  0  0  0
  2  3  1  0  0  0
  2 45  1  0  0  0
  3  4  2  0  0  0
  3 46  1  0  0  0
  4  5  1  0  0  0
  4 47  1  0  0  0
  5  6  2  0  0  0
  5 48  1  0  0  0
  6 44  1  0  0  0
  7 29  1  0  0  0
  7 49  1  0  0  0
  7 50  1  0  0  0
  8 27  1  0  0  0
  8 30  2  0  0  0
  8 34  1  0  0  0
  9 10  2  0  0  0
  9 11  1  0  0  0
  9 29  1  0  0  0
 11 12  1  0  0  0
 11 13  1  0  0  0
 11 51  1  0  0  0
 12 14  1  0  0  0
 12 52  1  0  0  0
 12 53  1  0  0  0
 13 15  1  0  0  0
 13 54  1  0  0  0
 14 21  1  0  0  0
 14 55  1  0  0  0
 14 56  1  0  0  0
 15 16  2  0  0  0
 15 17  1  0  0  0
 17 18  1  0  0  0
 17 19  1  0  0  0
 17 57  1  0  0  0
 18 27  1  0  0  0
 18 58  1  0  0  0
 19 20  1  0  0  0
 19 43  1  0  0  0
 19 59  1  0  0  0
 20 60  1  0  0  0
 21 22  2  0  0  0
 21 23  1  0  0  0
 22 24  1  0  0  0
 22 61  1  0  0  0
 23 26  2  0  0  0
 23 62  1  0  0  0
 24 25  2  0  0  0
 24 63  1  0  0  0
 25 26  1  0  0  0
 25 64  1  0  0  0
 26 65  1  0  0  0
 27 28  2  0  0  0
 29 66  1  0  0  0
 30 31  1  0  0  0
 30 67  1  0  0  0
 31 32  2  0  0  0
 31 68  1  0  0  0
 32 33  1  0  0  0
 32 35  1  0  0  0
 33 34  2  0  0  0
 33 69  1  0  0  0
 34 70  1  0  0  0
 35 36  1  0  0  0
 36 37  1  0  0  0
 36 71  1  0  0  0
 36 72  1  0  0  0
 37 38  2  0  0  0
 37 42  1  0  0  0
 38 39  1  0  0  0
 38 73  1  0  0  0
 39 40  2  0  0  0
 39 74  1  0  0  0
 40 41  1  0  0  0
 40 75  1  0  0  0
 41 42  2  0  0  0
 41 76  1  0  0  0
 42 77  1  0  0  0
 43 78  1  0  0  0
 43 79  1  0  0  0
 43 80  1  0  0  0
 44 81  1  0  0  0
 44 82  1  0  0  0
 44 83  1  0  0  0
M  END
> <s_m_source_file>
../3mg7_ligand.sdf

> <i_m_source_file_index>
1

> <s_epik_input>
W0NIM11jMVtjSF1bY0hdW2NIXVtjSF1jMVtDSDJdW05IXUMoPU8pW0NASF0oW0NIMl1bQ0gyXWMyW2NIXVtjSF1bY0hdW2NIXVtjSF0yKVtOSF1DKD1PKVtDQEhdKFtDQEhdKFtPSF0pW0NIM10pW05IXUMoPU8pYzNbY0hdW2NIXWMoW2NIXVtjSF0zKU9bQ0gyXWM0W2NIXVtjSF1bY0hdW2NIXVtjSF00

> <s_epik_cmdline>
J2VwaWtfYXBwJywgJy1pbWFlJywgJ2xpZ2FuZF9wcm8ubWFlJywgJy1vbWFlJywgJ2xpZ2FuZF9wcmVwLm1hZScsICctbXMnLCAnMScsICctcGgnLCAnNycsICctcGh0JywgJzAuNScsICctbnQn

> <r_lp_tautomer_probability>
1

> <r_epik_Ionization_Penalty>
  0.0000

> <r_epik_Ionization_Penalty_Charging>
  0.0000

> <r_epik_Ionization_Penalty_Neutral>
  0.0000

> <r_epik_State_Penalty>
 -0.0000

> <r_epik_Charging_Adjusted_Penalty>
0

> <i_epik_Tot_Q>
0

> <i_epik_Tot_abs_Q>
0

$$$$
