3mg8_ligand
                    3D
 Schrodinger Suite 2020-3.
 85 88  0  0  1  0            999 V2000
   12.6880 -137.8260   25.9020 C   0  0  0  0  0  0
   12.1280 -138.8630   25.2570 N   0  0  0  0  0  0
   11.6160 -138.4400   24.0960 C   0  0  0  0  0  0
   11.8790 -137.1330   23.9670 C   0  0  0  0  0  0
   12.5270 -136.6850   25.1090 C   0  0  0  0  0  0
   13.0180 -135.4440   25.5190 C   0  0  0  0  0  0
   13.6750 -135.3450   26.7420 C   0  0  0  0  0  0
   13.8400 -136.4790   27.5430 C   0  0  0  0  0  0
   13.3510 -137.7230   27.1290 C   0  0  0  0  0  0
   11.4030 -136.2440   22.8160 C   0  0  0  0  0  0
   10.9610 -136.8060   21.4630 C   0  0  0  0  0  0
   11.2010 -135.0550   23.0350 O   0  0  0  0  0  0
   11.1420 -137.9940   21.2190 O   0  0  0  0  0  0
   15.8420 -138.1750   18.4000 N   0  0  0  0  0  0
   11.0010 -135.9740   14.0170 N   0  0  0  0  0  0
   10.1230 -135.6670   12.9050 C   0  0  0  0  0  0
    9.4810 -134.3080   13.1300 C   0  0  0  0  0  0
   10.1440 -133.0790   13.0120 C   0  0  0  0  0  0
    9.4440 -131.8850   13.2320 C   0  0  0  0  0  0
    8.0950 -131.9100   13.5730 C   0  0  0  0  0  0
    7.4490 -133.1310   13.7040 C   0  0  0  0  0  0
    8.1380 -134.3190   13.4820 C   0  0  0  0  0  0
   11.8410 -133.0000   12.6140 C   0  0  0  0  0  0
   10.4470 -135.9670   20.5710 N   0  0  0  0  0  0
   10.6800 -136.9100   14.8890 C   0  0  0  0  0  0
   11.6920 -137.0980   16.0100 C   0  0  2  0  0  0
    9.6330 -137.5550   14.8610 O   0  0  0  0  0  0
   12.4800 -138.3820   15.8340 C   0  0  0  0  0  0
   10.9160 -137.1390   17.2350 N   0  0  0  0  0  0
   13.6820 -138.3120   16.7500 C   0  0  0  0  0  0
   13.6460 -138.9390   17.9970 C   0  0  0  0  0  0
   14.7680 -138.8450   18.8160 C   0  0  0  0  0  0
   15.9100 -137.5630   17.2180 C   0  0  0  0  0  0
   14.8190 -137.6120   16.3470 C   0  0  0  0  0  0
   10.9980 -136.2100   18.1660 C   0  0  0  0  0  0
    9.9830 -136.4250   19.2580 C   0  0  2  0  0  0
   11.7360 -135.2240   18.1290 O   0  0  0  0  0  0
    8.7350 -135.6340   18.8290 C   0  0  0  0  0  0
    7.4400 -135.8870   19.6170 C   0  0  0  0  0  0
    6.5800 -134.8690   19.5610 N   0  0  0  0  0  0
    7.2220 -136.9460   20.2100 O   0  0  0  0  0  0
    5.2670 -134.8940   20.2330 C   0  0  0  0  0  0
    4.1310 -134.4890   19.2700 C   0  0  0  0  0  0
    4.1090 -135.4060   18.0500 C   0  0  0  0  0  0
    2.7910 -134.6260   19.9830 C   0  0  0  0  0  0
    4.3010 -133.0530   18.7820 C   0  0  0  0  0  0
   11.0759 -139.0551   23.3763 H   0  0  0  0  0  0
   12.8911 -134.5513   24.8890 H   0  0  0  0  0  0
   14.0653 -134.3736   27.0796 H   0  0  0  0  0  0
   14.3605 -136.3859   28.5076 H   0  0  0  0  0  0
   13.4896 -138.6084   27.7668 H   0  0  0  0  0  0
   11.9457 -135.4241   14.1399 H   0  0  0  0  0  0
   10.7056 -135.6484   11.9721 H   0  0  0  0  0  0
    9.3399 -136.4361   12.8329 H   0  0  0  0  0  0
    9.9599 -130.9297   13.1353 H   0  0  0  0  0  0
    7.5512 -130.9795   13.7356 H   0  0  0  0  0  0
    6.3956 -133.1595   13.9825 H   0  0  0  0  0  0
    7.6168 -135.2707   13.5857 H   0  0  0  0  0  0
   12.2328 -134.0184   12.4749 H   0  0  0  0  0  0
   12.3866 -132.5056   13.4312 H   0  0  0  0  0  0
   11.9734 -132.4261   11.6849 H   0  0  0  0  0  0
   10.3742 -134.9028   20.8396 H   0  0  0  0  0  0
   12.4176 -136.2729   16.0622 H   0  0  0  0  0  0
   11.8458 -139.2407   16.0994 H   0  0  0  0  0  0
   12.8019 -138.4740   14.7862 H   0  0  0  0  0  0
   10.2213 -137.9720   17.4184 H   0  0  0  0  0  0
   12.7620 -139.4881   18.3211 H   0  0  0  0  0  0
   14.7678 -139.3194   19.7973 H   0  0  0  0  0  0
   16.8142 -137.0258   16.9318 H   0  0  0  0  0  0
   14.8554 -137.1158   15.3772 H   0  0  0  0  0  0
    9.8132 -137.5010   19.4109 H   0  0  0  0  0  0
    8.9328 -134.5563   18.9259 H   0  0  0  0  0  0
    8.4934 -135.8698   17.7821 H   0  0  0  0  0  0
    6.8853 -133.9842   18.9831 H   0  0  0  0  0  0
    5.0639 -135.9097   20.6033 H   0  0  0  0  0  0
    5.2743 -134.1902   21.0783 H   0  0  0  0  0  0
    3.9870 -136.4490   18.3775 H   0  0  0  0  0  0
    5.0544 -135.3034   17.4971 H   0  0  0  0  0  0
    3.2697 -135.1264   17.3963 H   0  0  0  0  0  0
    2.6672 -135.6607   20.3353 H   0  0  0  0  0  0
    1.9776 -134.3762   19.2859 H   0  0  0  0  0  0
    2.7611 -133.9400   20.8424 H   0  0  0  0  0  0
    5.2679 -132.9528   18.2671 H   0  0  0  0  0  0
    4.2706 -132.3676   19.6418 H   0  0  0  0  0  0
    3.4870 -132.8037   18.0854 H   0  0  0  0  0  0
  1  2  2  0  0  0
  1  5  1  0  0  0
  1  9  1  0  0  0
  2  3  1  0  0  0
  3  4  1  0  0  0
  3 47  1  0  0  0
  4  5  2  0  0  0
  4 10  1  0  0  0
  5  6  1  0  0  0
  6  7  2  0  0  0
  6 48  1  0  0  0
  7  8  1  0  0  0
  7 49  1  0  0  0
  8  9  2  0  0  0
  8 50  1  0  0  0
  9 51  1  0  0  0
 10 11  1  0  0  0
 10 12  2  0  0  0
 11 13  2  0  0  0
 11 24  1  0  0  0
 14 32  2  0  0  0
 14 33  1  0  0  0
 15 16  1  0  0  0
 15 25  1  0  0  0
 15 52  1  0  0  0
 16 17  1  0  0  0
 16 53  1  0  0  0
 16 54  1  0  0  0
 17 18  2  0  0  0
 17 22  1  0  0  0
 18 19  1  0  0  0
 18 23  1  0  0  0
 19 20  2  0  0  0
 19 55  1  0  0  0
 20 21  1  0  0  0
 20 56  1  0  0  0
 21 22  2  0  0  0
 21 57  1  0  0  0
 22 58  1  0  0  0
 23 59  1  0  0  0
 23 60  1  0  0  0
 23 61  1  0  0  0
 24 36  1  0  0  0
 24 62  1  0  0  0
 25 26  1  0  0  0
 25 27  2  0  0  0
 26 28  1  0  0  0
 26 29  1  0  0  0
 26 63  1  0  0  0
 28 30  1  0  0  0
 28 64  1  0  0  0
 28 65  1  0  0  0
 29 35  1  0  0  0
 29 66  1  0  0  0
 30 31  2  0  0  0
 30 34  1  0  0  0
 31 32  1  0  0  0
 31 67  1  0  0  0
 32 68  1  0  0  0
 33 34  2  0  0  0
 33 69  1  0  0  0
 34 70  1  0  0  0
 35 36  1  0  0  0
 35 37  2  0  0  0
 36 38  1  0  0  0
 36 71  1  0  0  0
 38 39  1  0  0  0
 38 72  1  0  0  0
 38 73  1  0  0  0
 39 40  1  0  0  0
 39 41  2  0  0  0
 40 42  1  0  0  0
 40 74  1  0  0  0
 42 43  1  0  0  0
 42 75  1  0  0  0
 42 76  1  0  0  0
 43 44  1  0  0  0
 43 45  1  0  0  0
 43 46  1  0  0  0
 44 77  1  0  0  0
 44 78  1  0  0  0
 44 79  1  0  0  0
 45 80  1  0  0  0
 45 81  1  0  0  0
 45 82  1  0  0  0
 46 83  1  0  0  0
 46 84  1  0  0  0
 46 85  1  0  0  0
M  END
> <s_m_source_file>
../3mg8_ligand.sdf

> <i_m_source_file_index>
1

> <s_epik_input>
W2NIXTFbY0hdW2NIXVtjSF1jKGMxPTIpPUMoW0NIMl1OMilDKD1PKUMoPU8pW05IXVtDQEBIXShbQ0gyXUMoPU8pW05IXVtDSDJdQyhbQ0gzXSkoW0NIM10pW0NIM10pQyg9TylbTkhdW0NAQEhdKFtDSDJdYzNbY0hdW2NIXW5bY0hdW2NIXTMpQyg9TylbTkhdW0NIMl1jNGMoW0NIM10pW2NIXVtjSF1bY0hdW2NIXTQ=

> <s_epik_cmdline>
J2VwaWtfYXBwJywgJy1pbWFlJywgJ2xpZ2FuZF9wcm8ubWFlJywgJy1vbWFlJywgJ2xpZ2FuZF9wcmVwLm1hZScsICctbXMnLCAnMScsICctcGgnLCAnNycsICctcGh0JywgJzAuNScsICctbnQn

> <r_epik_Ionization_Penalty>
  0.2826

> <r_epik_Ionization_Penalty_Charging>
  0.0000

> <r_epik_Ionization_Penalty_Neutral>
  0.2826

> <r_epik_State_Penalty>
  0.2670

> <r_epik_Charging_Adjusted_Penalty>
0.266998247880348

> <i_epik_Tot_Q>
0

> <i_epik_Tot_abs_Q>
0

> <s_epik_Chemistry_Notes>
This compound has an imine and may undergo hydrolysis.

$$$$
