3mhc_ligand
                    3D
 Schrodinger Suite 2020-3.
 40 43  0  0  1  0            999 V2000
   -5.3240   -0.3420   16.1320 N   0  0  0  0  0  0
   -6.4720    5.7780   13.4580 O   0  0  0  0  0  0
   -5.2590    1.1530   17.9920 O   0  0  0  0  0  0
   -7.1990    1.1260   16.5130 O   0  0  0  0  0  0
   -3.9290    8.1600    9.7660 C   0  0  0  0  0  0
   -6.2900    7.9740    9.2340 C   0  0  0  0  0  0
   -5.4640    9.3840   10.8290 C   0  0  0  0  0  0
   -4.8280    6.4280   10.5470 C   0  0  0  0  0  0
   -3.9970    7.6910   12.0380 C   0  0  0  0  0  0
   -6.5030    7.6170   11.7280 C   0  0  0  0  0  0
   -3.5310    3.5300   14.8100 N   0  0  0  0  0  0
   -3.7320    2.3670   15.6680 N   0  0  0  0  0  0
   -4.1090    5.2460   13.6150 N   0  0  0  0  0  0
   -5.8590    3.4430   14.9650 S   0  0  0  0  0  0
   -5.3300    5.9360   13.1980 C   0  0  0  0  0  0
   -4.6410    4.2220   14.3480 C   0  0  0  0  0  0
   -5.0800    2.2610   15.7990 C   0  0  0  0  0  0
   -4.9730    7.1910    9.3070 C   0  0  2  0  0  0
   -4.1640    8.8230   11.0960 C   0  0  1  0  0  0
   -6.6230    8.6120   10.6140 C   0  0  2  0  0  0
   -5.2200    6.8700   11.8520 C   0  0  0  0  0  0
   -5.8480    0.8850   16.6140 S   0  0  0  0  0  0
   -5.8142   -1.1790   16.6508 H   0  0  0  0  0  0
   -4.2409   -0.3775   16.3207 H   0  0  0  0  0  0
   -2.9625    7.6424    9.8558 H   0  0  0  0  0  0
   -3.8407    8.9774    9.0352 H   0  0  0  0  0  0
   -6.2003    8.7732    8.4835 H   0  0  0  0  0  0
   -7.1059    7.2935    8.9491 H   0  0  0  0  0  0
   -5.7691   10.0203   11.6729 H   0  0  0  0  0  0
   -5.4210    9.9884    9.9109 H   0  0  0  0  0  0
   -5.3949    5.4886   10.4679 H   0  0  0  0  0  0
   -3.7649    6.2016   10.7160 H   0  0  0  0  0  0
   -3.0847    7.1323   11.7818 H   0  0  0  0  0  0
   -3.9142    8.0774   13.0646 H   0  0  0  0  0  0
   -6.6341    8.1291   12.6927 H   0  0  0  0  0  0
   -7.2778    6.8445   11.6147 H   0  0  0  0  0  0
   -3.1265    5.6294   13.3024 H   0  0  0  0  0  0
   -4.8992    6.6207    8.3693 H   0  0  0  0  0  0
   -3.5692    9.6403   11.5298 H   0  0  0  0  0  0
   -7.5929    9.1300   10.6447 H   0  0  0  0  0  0
  1 22  1  0  0  0
  1 23  1  0  0  0
  1 24  1  0  0  0
  2 15  2  0  0  0
  3 22  2  0  0  0
  4 22  2  0  0  0
  5 18  1  0  0  0
  5 19  1  0  0  0
  5 25  1  0  0  0
  5 26  1  0  0  0
  6 18  1  0  0  0
  6 20  1  0  0  0
  6 27  1  0  0  0
  6 28  1  0  0  0
  7 19  1  0  0  0
  7 20  1  0  0  0
  7 29  1  0  0  0
  7 30  1  0  0  0
  8 18  1  0  0  0
  8 21  1  0  0  0
  8 31  1  0  0  0
  8 32  1  0  0  0
  9 19  1  0  0  0
  9 21  1  0  0  0
  9 33  1  0  0  0
  9 34  1  0  0  0
 10 20  1  0  0  0
 10 21  1  0  0  0
 10 35  1  0  0  0
 10 36  1  0  0  0
 11 12  1  0  0  0
 11 16  2  0  0  0
 12 17  2  0  0  0
 13 15  1  0  0  0
 13 16  1  0  0  0
 13 37  1  0  0  0
 14 16  1  0  0  0
 14 17  1  0  0  0
 15 21  1  0  0  0
 17 22  1  0  0  0
 18 38  1  0  0  0
 19 39  1  0  0  0
 20 40  1  0  0  0
M  END
> <s_m_source_file>
../3mhc_ligand.sdf

> <i_m_source_file_index>
1

> <s_epik_input>
W05IMl1TKD1PKSg9TyljKHMxKW5uYzFbTkhdQyg9TylDMjNbQ0gyXVtDQEBIXTRbQ0gyXVtDQEhdKFtDSDJdMilbQ0gyXVtDQEBIXShbQ0gyXTQpW0NIMl0z

> <s_epik_cmdline>
J2VwaWtfYXBwJywgJy1pbWFlJywgJ2xpZ2FuZF9wcm8ubWFlJywgJy1vbWFlJywgJ2xpZ2FuZF9wcmVwLm1hZScsICctbXMnLCAnMScsICctcGgnLCAnNycsICctcGh0JywgJzAuNScsICctbnQn

> <r_lp_tautomer_probability>
1

> <r_epik_Ionization_Penalty>
  0.2221

> <r_epik_Ionization_Penalty_Charging>
  0.0000

> <r_epik_Ionization_Penalty_Neutral>
  0.2221

> <r_epik_State_Penalty>
 -0.0000

> <r_epik_Charging_Adjusted_Penalty>
0

> <i_epik_Tot_Q>
0

> <i_epik_Tot_abs_Q>
0

$$$$
