3mhl_ligand
                    3D
 Schrodinger Suite 2020-3.
 36 37  0  0  1  0            999 V2000
   -3.3010    9.8570   11.0590 N   0  0  0  0  0  0
   -2.4370    9.1480   11.8180 C   0  0  0  0  0  0
   -2.7590    7.9360   12.3130 N   0  0  0  0  0  0
   -3.9750    7.3920   12.0330 C   0  0  0  0  0  0
   -4.9080    8.1060   11.2010 C   0  0  0  0  0  0
   -4.5270    9.4110   10.6980 C   0  0  0  0  0  0
   -4.2880    6.1130   12.5700 N   0  0  0  0  0  0
   -4.0820    4.3290   14.2150 C   0  0  0  0  0  0
   -5.4450    4.3270   14.5960 C   0  0  0  0  0  0
   -5.8950    3.2150   15.3960 C   0  0  0  0  0  0
   -5.0130    2.1350   15.6740 C   0  0  0  0  0  0
   -3.6740    2.1640   15.3040 C   0  0  0  0  0  0
   -3.2290    3.2510   14.5370 C   0  0  0  0  0  0
   -5.6340    0.8510   16.6480 S   0  0  0  0  0  0
   -5.1200    0.9100   17.9660 O   0  0  0  0  0  0
   -7.0900    0.8590   16.4600 O   0  0  0  0  0  0
   -4.9200   -0.4920   15.9450 N   0  0  0  0  0  0
   -6.2190    7.3910   10.9460 N   0  3  0  0  0  0
   -6.2740    6.3990   10.3250 O   0  0  0  0  0  0
   -7.3770    7.8660   11.3830 O   0  5  0  0  0  0
   -5.2760   10.3850    9.8140 O   0  0  0  0  0  0
   -5.7040   11.6980   10.1900 C   0  0  0  0  0  0
   -3.3920    5.4040   13.3930 C   0  0  0  0  0  0
   -1.4544    9.5666   12.0357 H   0  0  0  0  0  0
   -5.2682    5.6795   12.3227 H   0  0  0  0  0  0
   -6.1222    5.1278   14.2989 H   0  0  0  0  0  0
   -6.9120    3.2023   15.7879 H   0  0  0  0  0  0
   -2.9912    1.3676   15.6002 H   0  0  0  0  0  0
   -2.1989    3.2637   14.1807 H   0  0  0  0  0  0
   -5.2379   -1.3988   16.4805 H   0  0  0  0  0  0
   -3.8256   -0.3973   16.0018 H   0  0  0  0  0  0
   -6.2227   12.1711    9.3432 H   0  0  0  0  0  0
   -4.8287   12.3033   10.4683 H   0  0  0  0  0  0
   -6.3895   11.6287   11.0475 H   0  0  0  0  0  0
   -2.6293    4.9152   12.7689 H   0  0  0  0  0  0
   -2.9038    6.1014   14.0897 H   0  0  0  0  0  0
  1  2  2  0  0  0
  1  6  1  0  0  0
  2  3  1  0  0  0
  2 24  1  0  0  0
  3  4  2  0  0  0
  4  5  1  0  0  0
  4  7  1  0  0  0
  5  6  2  0  0  0
  5 18  1  0  0  0
  6 21  1  0  0  0
  7 23  1  0  0  0
  7 25  1  0  0  0
  8  9  2  0  0  0
  8 13  1  0  0  0
  8 23  1  0  0  0
  9 10  1  0  0  0
  9 26  1  0  0  0
 10 11  2  0  0  0
 10 27  1  0  0  0
 11 12  1  0  0  0
 11 14  1  0  0  0
 12 13  2  0  0  0
 12 28  1  0  0  0
 13 29  1  0  0  0
 14 15  2  0  0  0
 14 16  2  0  0  0
 14 17  1  0  0  0
 17 30  1  0  0  0
 17 31  1  0  0  0
 18 19  2  0  0  0
 18 20  1  0  0  0
 21 22  1  0  0  0
 22 32  1  0  0  0
 22 33  1  0  0  0
 22 34  1  0  0  0
 23 35  1  0  0  0
 23 36  1  0  0  0
M  CHG  2  18   1  20  -1
M  END
> <s_m_source_file>
../3mhl_ligand.sdf

> <i_m_source_file_index>
1

> <s_epik_input>
Tz1bTitdKFtPLV0pYzFjKE9bQ0gzXSluW2NIXW5jMVtOSF1bQ0gyXWMyW2NIXVtjSF1jKFtjSF1bY0hdMilTKD1PKSg9TylbTkgyXQ==

> <s_epik_cmdline>
J2VwaWtfYXBwJywgJy1pbWFlJywgJ2xpZ2FuZF9wcm8ubWFlJywgJy1vbWFlJywgJ2xpZ2FuZF9wcmVwLm1hZScsICctbXMnLCAnMScsICctcGgnLCAnNycsICctcGh0JywgJzAuNScsICctbnQn

> <r_lp_tautomer_probability>
1

> <r_epik_Ionization_Penalty>
  0.0003

> <r_epik_Ionization_Penalty_Charging>
  0.0000

> <r_epik_Ionization_Penalty_Neutral>
  0.0003

> <r_epik_State_Penalty>
 -0.0000

> <r_epik_Charging_Adjusted_Penalty>
0

> <i_epik_Tot_Q>
0

> <i_epik_Tot_abs_Q>
2

$$$$
