3mi2_ligand
                    3D
 Schrodinger Suite 2020-3.
 32 33  0  0  1  0            999 V2000
   26.4990  -13.1770   15.0510 P   0  0  0  0  0  0
   22.6910   -8.2180   15.0150 C   0  0  0  0  0  0
   21.4520   -8.8650   13.2090 N   0  0  0  0  0  0
   21.8640   -5.7940   14.9710 O   0  5  0  0  0  0
   21.8890   -7.1400   14.4910 C   0  0  0  0  0  0
   22.3810   -9.2470   14.1920 N   0  0  0  0  0  0
   19.9870   -5.5370   12.8950 O   0  0  0  0  0  0
   21.1030   -7.5590   13.3590 C   0  0  3  0  0  0
   19.8770   -7.2350   11.4180 N   0  0  0  0  0  0
   20.2500   -6.7090   12.5400 C   0  0  0  0  0  0
   23.6240   -8.1820   16.1410 C   0  0  1  0  0  0
   27.4940  -12.8010   14.0020 O   0  5  0  0  0  0
   23.3730   -9.3100   17.1370 C   0  0  2  0  0  0
   22.7150   -8.8100   18.3180 O   0  0  0  0  0  0
   25.2280  -13.7530   14.4940 O   0  5  0  0  0  0
   24.7590   -9.8200   17.4740 C   0  0  2  0  0  0
   25.3440   -9.0400   18.5260 O   0  0  0  0  0  0
   27.1290  -13.9320   16.1530 O   0  0  0  0  0  0
   25.5310   -9.5620   16.1930 C   0  0  2  0  0  0
   24.9440   -8.4020   15.5990 O   0  0  0  0  0  0
   25.4060  -10.7250   15.2110 C   0  0  0  0  0  0
   26.0860  -11.8140   15.8100 O   0  0  0  0  0  0
   19.2307   -6.6674   10.7324 H   0  0  0  0  0  0
   20.2063   -8.2497   11.1499 H   0  0  0  0  0  0
   23.5271   -7.1963   16.6196 H   0  0  0  0  0  0
   22.6893  -10.0908   16.7724 H   0  0  0  0  0  0
   21.6963   -8.4009   18.2485 H   0  0  0  0  0  0
   24.7784  -10.8529   17.8517 H   0  0  0  0  0  0
   24.9262   -9.0862   19.5425 H   0  0  0  0  0  0
   26.5942   -9.3750   16.4043 H   0  0  0  0  0  0
   24.3428  -10.9582   15.0523 H   0  0  0  0  0  0
   25.8673  -10.4464   14.2521 H   0  0  0  0  0  0
  1 12  1  0  0  0
  1 15  1  0  0  0
  1 18  2  0  0  0
  1 22  1  0  0  0
  2  5  2  0  0  0
  2  6  1  0  0  0
  2 11  1  0  0  0
  3  6  2  0  0  0
  3  8  1  0  0  0
  4  5  1  0  0  0
  5  8  1  0  0  0
  7 10  2  0  0  0
  8 10  1  0  0  0
  9 10  1  0  0  0
  9 23  1  0  0  0
  9 24  1  0  0  0
 11 13  1  0  0  0
 11 20  1  0  0  0
 11 25  1  0  0  0
 13 14  1  0  0  0
 13 16  1  0  0  0
 13 26  1  0  0  0
 14 27  1  0  0  0
 16 17  1  0  0  0
 16 19  1  0  0  0
 16 28  1  0  0  0
 17 29  1  0  0  0
 19 20  1  0  0  0
 19 21  1  0  0  0
 19 30  1  0  0  0
 21 22  1  0  0  0
 21 31  1  0  0  0
 21 32  1  0  0  0
M  CHG  3   4  -1  12  -1  15  -1
M  END
> <s_m_source_file>
../3mi2_ligand.sdf

> <i_m_source_file_index>
1

> <s_epik_input>
W09IXVAoPU8pKFtPSF0pT1tDSDJdW0NAQEhdKE8xKVtDQEBIXShbT0hdKVtDQEBIXShbT0hdKVtDQEBIXTFDMj1DKFtPSF0pW0NIXShOPU4yKUMoPU8pW05IMl0=

> <s_epik_cmdline>
J2VwaWtfYXBwJywgJy1pbWFlJywgJ2xpZ2FuZF9wcm8ubWFlJywgJy1vbWFlJywgJ2xpZ2FuZF9wcmVwLm1hZScsICctbXMnLCAnMScsICctcGgnLCAnNycsICctcGh0JywgJzAuNScsICctbnQn

> <r_epik_Ionization_Penalty>
  0.1077

> <r_epik_Ionization_Penalty_Charging>
  0.1077

> <r_epik_Ionization_Penalty_Neutral>
  0.0000

> <r_epik_State_Penalty>
  0.0976

> <r_epik_Charging_Adjusted_Penalty>
0.205289876956349

> <i_epik_Tot_Q>
-3

> <i_epik_Tot_abs_Q>
3

$$$$
