3mi3_ligand
                    3D
 Schrodinger Suite 2020-3.
 25 24  0  0  1  0            999 V2000
  -43.4470    9.7920  -15.3680 N   0  3  0  0  0  0
  -44.7910   10.0750  -15.9450 C   0  0  2  0  0  0
  -45.6660   10.4960  -14.7860 C   0  0  0  0  0  0
  -45.3200   10.1900  -13.6320 O   0  5  0  0  0  0
  -45.3570    8.8140  -16.6210 C   0  0  0  0  0  0
  -46.7800    8.9130  -17.1660 C   0  0  0  0  0  0
  -47.1510    7.6200  -17.8780 C   0  0  0  0  0  0
  -48.4960    7.7090  -18.5930 C   0  0  0  0  0  0
  -48.7780    6.4600  -19.4070 N   0  3  0  0  0  0
  -46.7060   11.1320  -14.9620 O   0  0  0  0  0  0
  -43.0550   10.7011  -14.8886 H   0  0  0  0  0  0
  -42.7630    9.4760  -16.1695 H   0  0  0  0  0  0
  -43.5307    8.9899  -14.6199 H   0  0  0  0  0  0
  -44.7220   10.8734  -16.6986 H   0  0  0  0  0  0
  -44.7248    8.5431  -17.4795 H   0  0  0  0  0  0
  -45.3692    7.9847  -15.8984 H   0  0  0  0  0  0
  -47.4799    9.0840  -16.3348 H   0  0  0  0  0  0
  -46.8431    9.7503  -17.8766 H   0  0  0  0  0  0
  -46.3840    7.3823  -18.6298 H   0  0  0  0  0  0
  -47.2117    6.8021  -17.1449 H   0  0  0  0  0  0
  -49.2987    7.8287  -17.8505 H   0  0  0  0  0  0
  -48.4934    8.5738  -19.2728 H   0  0  0  0  0  0
  -49.7529    6.5603  -19.9065 H   0  0  0  0  0  0
  -48.7955    5.5846  -18.7411 H   0  0  0  0  0  0
  -47.9901    6.3297  -20.1634 H   0  0  0  0  0  0
  1  2  1  0  0  0
  1 11  1  0  0  0
  1 12  1  0  0  0
  1 13  1  0  0  0
  2  3  1  0  0  0
  2  5  1  0  0  0
  2 14  1  0  0  0
  3  4  1  0  0  0
  3 10  2  0  0  0
  5  6  1  0  0  0
  5 15  1  0  0  0
  5 16  1  0  0  0
  6  7  1  0  0  0
  6 17  1  0  0  0
  6 18  1  0  0  0
  7  8  1  0  0  0
  7 19  1  0  0  0
  7 20  1  0  0  0
  8  9  1  0  0  0
  8 21  1  0  0  0
  8 22  1  0  0  0
  9 23  1  0  0  0
  9 24  1  0  0  0
  9 25  1  0  0  0
M  CHG  3   1   1   4  -1   9   1
M  END
> <s_m_source_file>
../3mi3_ligand.sdf

> <i_m_source_file_index>
1

> <s_epik_input>
W09IXUMoPU8pW0NAQEhdKFtOSDMrXSlbQ0gyXVtDSDJdW0NIMl1bQ0gyXVtOSDMrXQ==

> <s_epik_cmdline>
J2VwaWtfYXBwJywgJy1pbWFlJywgJ2xpZ2FuZF9wcm8ubWFlJywgJy1vbWFlJywgJ2xpZ2FuZF9wcmVwLm1hZScsICctbXMnLCAnMScsICctcGgnLCAnNycsICctcGh0JywgJzAuNScsICctbnQn

> <r_lp_tautomer_probability>
1

> <r_epik_Ionization_Penalty>
  0.0018

> <r_epik_Ionization_Penalty_Charging>
  0.0018

> <r_epik_Ionization_Penalty_Neutral>
  0.0000

> <r_epik_State_Penalty>
 -0.0000

> <r_epik_Charging_Adjusted_Penalty>
0.00179235442229703

> <i_epik_Tot_Q>
1

> <i_epik_Tot_abs_Q>
3

$$$$
