3mj1_ligand
                    3D
 Schrodinger Suite 2020-3.
 64 68  0  0  1  0            999 V2000
   15.3460    5.9070   -2.9650 N   0  0  0  0  0  0
   16.6570    6.3470   -2.7560 N   0  0  0  0  0  0
   14.3520    6.7050   -3.2340 C   0  0  0  0  0  0
   16.9760    7.6630   -2.8110 C   0  0  0  0  0  0
   15.9190    8.6410   -3.1260 C   0  0  0  0  0  0
   14.6010    8.1540   -3.3450 C   0  0  0  0  0  0
   12.6870    4.8570   -3.3740 C   0  0  0  0  0  0
   13.0590    6.2110   -3.4280 N   0  0  0  0  0  0
   11.4460    4.4500   -3.3600 N   0  0  0  0  0  0
   13.5080    3.7150   -3.3290 C   0  0  0  0  0  0
   11.4290    3.0570   -3.3020 N   0  3  0  0  0  0
   12.7040    2.6250   -3.2850 C   0  0  0  0  0  0
   15.8800   12.9570   -2.4090 N   0  3  2  0  0  0
   14.8690   15.4610   -1.4210 N   0  0  2  0  0  0
   13.5790    9.0530   -3.6640 C   0  0  0  0  0  0
   17.7070    5.3590   -2.4650 C   0  0  0  0  0  0
   16.1760   10.0180   -3.2380 C   0  0  0  0  0  0
   18.1270    8.0310   -2.6260 O   0  0  0  0  0  0
   15.1430   10.8840   -3.5470 C   0  0  0  0  0  0
   15.3860   12.3720   -3.6700 C   0  0  0  0  0  0
   18.7810    2.7280   -2.7890 O   0  0  0  0  0  0
   14.8780   12.9950   -1.3210 C   0  0  0  0  0  0
   16.6390   14.2140   -2.6000 C   0  0  0  0  0  0
   15.7160   15.4430   -2.6240 C   0  0  0  0  0  0
   14.0120   14.2640   -1.3540 C   0  0  0  0  0  0
   13.8570   10.4000   -3.7570 C   0  0  0  0  0  0
   17.1590    4.1630   -1.6660 C   0  0  0  0  0  0
   18.3070    4.8780   -3.8010 C   0  0  0  0  0  0
   14.0380   16.6750   -1.3920 C   0  0  0  0  0  0
   18.2500    3.0920   -1.5070 C   0  0  0  0  0  0
   19.3680    3.8030   -3.5340 C   0  0  0  0  0  0
   13.1250    1.1780   -3.2260 C   0  0  0  0  0  0
   14.6012    3.5926   -3.3248 H   0  0  0  0  0  0
   16.6264   12.2380   -2.0404 H   0  0  0  0  0  0
   12.5661    8.6902   -3.8385 H   0  0  0  0  0  0
   18.4546    5.8751   -1.8447 H   0  0  0  0  0  0
   17.1843   10.4015   -3.0821 H   0  0  0  0  0  0
   14.4373   12.8530   -3.9505 H   0  0  0  0  0  0
   16.1285   12.5343   -4.4652 H   0  0  0  0  0  0
   14.2072   12.1278   -1.4099 H   0  0  0  0  0  0
   15.3912   12.9634   -0.3486 H   0  0  0  0  0  0
   17.3563   14.3381   -1.7754 H   0  0  0  0  0  0
   17.1824   14.1727   -3.5555 H   0  0  0  0  0  0
   15.0794   15.3996   -3.5200 H   0  0  0  0  0  0
   16.3296   16.3554   -2.6541 H   0  0  0  0  0  0
   13.3963   14.3044   -0.4433 H   0  0  0  0  0  0
   13.3578   14.2315   -2.2377 H   0  0  0  0  0  0
   13.0549   11.0972   -3.9993 H   0  0  0  0  0  0
   16.8384    4.5032   -0.6703 H   0  0  0  0  0  0
   16.3005    3.7284   -2.1990 H   0  0  0  0  0  0
   17.5097    4.4551   -4.4299 H   0  0  0  0  0  0
   18.7722    5.7282   -4.3213 H   0  0  0  0  0  0
   14.6848   17.5633   -1.4423 H   0  0  0  0  0  0
   13.4551   16.6982   -0.4594 H   0  0  0  0  0  0
   13.3529   16.6710   -2.2526 H   0  0  0  0  0  0
   17.8142    2.2043   -1.0252 H   0  0  0  0  0  0
   19.0572    3.4926   -0.8761 H   0  0  0  0  0  0
   20.1960    4.2400   -2.9566 H   0  0  0  0  0  0
   19.7509    3.4195   -4.4913 H   0  0  0  0  0  0
   14.2232    1.1155   -3.2240 H   0  0  0  0  0  0
   12.7289    0.6449   -4.1029 H   0  0  0  0  0  0
   12.7299    0.7183   -2.3081 H   0  0  0  0  0  0
   10.4697    2.5192   -3.2789 H   0  0  0  0  0  0
   10.5002    5.0110   -3.3856 H   0  0  0  0  0  0
  1  2  1  0  0  0
  1  3  2  0  0  0
  2  4  1  0  0  0
  2 16  1  0  0  0
  3  6  1  0  0  0
  3  8  1  0  0  0
  4  5  1  0  0  0
  4 18  2  0  0  0
  5  6  2  0  0  0
  5 17  1  0  0  0
  6 15  1  0  0  0
  7  8  2  0  0  0
  7  9  1  0  0  0
  7 10  1  0  0  0
  9 11  1  0  0  0
  9 64  1  0  0  0
 10 12  2  0  0  0
 10 33  1  0  0  0
 11 12  1  0  0  0
 11 63  1  0  0  0
 12 32  1  0  0  0
 13 20  1  0  0  0
 13 22  1  0  0  0
 13 23  1  0  0  0
 13 34  1  0  0  0
 14 24  1  0  0  0
 14 25  1  0  0  0
 14 29  1  0  0  0
 15 26  2  0  0  0
 15 35  1  0  0  0
 16 27  1  0  0  0
 16 28  1  0  0  0
 16 36  1  0  0  0
 17 19  2  0  0  0
 17 37  1  0  0  0
 19 20  1  0  0  0
 19 26  1  0  0  0
 20 38  1  0  0  0
 20 39  1  0  0  0
 21 30  1  0  0  0
 21 31  1  0  0  0
 22 25  1  0  0  0
 22 40  1  0  0  0
 22 41  1  0  0  0
 23 24  1  0  0  0
 23 42  1  0  0  0
 23 43  1  0  0  0
 24 44  1  0  0  0
 24 45  1  0  0  0
 25 46  1  0  0  0
 25 47  1  0  0  0
 26 48  1  0  0  0
 27 30  1  0  0  0
 27 49  1  0  0  0
 27 50  1  0  0  0
 28 31  1  0  0  0
 28 51  1  0  0  0
 28 52  1  0  0  0
 29 53  1  0  0  0
 29 54  1  0  0  0
 29 55  1  0  0  0
 30 56  1  0  0  0
 30 57  1  0  0  0
 31 58  1  0  0  0
 31 59  1  0  0  0
 32 60  1  0  0  0
 32 61  1  0  0  0
 32 62  1  0  0  0
M  CHG  2  11   1  13   1
M  END
> <s_m_source_file>
../3mj1_ligand.sdf

> <i_m_source_file_index>
1

> <s_epik_input>
W0NIMl0xW0NIMl1PW0NIMl1bQ0gyXVtDSF0xbihjMj1PKW5jKFtOSF1jM25bbkhdYyhbY0hdMylbQ0gzXSljKGMyNClbY0hdW2NIXWMoW2NIXTQpW0NIMl1bTkBASCtdNVtDSDJdW0NIMl1bTkBIK10oW0NIM10pW0NIMl1bQ0gyXTU=

> <s_epik_cmdline>
J2VwaWtfYXBwJywgJy1pbWFlJywgJ2xpZ2FuZF9wcm8ubWFlJywgJy1vbWFlJywgJ2xpZ2FuZF9wcmVwLm1hZScsICctbXMnLCAnMScsICctcGgnLCAnNycsICctcGh0JywgJzAuNScsICctbnQn

> <r_lp_tautomer_probability>
1

> <r_epik_Ionization_Penalty>
  0.2102

> <r_epik_Ionization_Penalty_Charging>
  0.0155

> <r_epik_Ionization_Penalty_Neutral>
  0.1947

> <r_epik_State_Penalty>
 -0.0000

> <r_epik_Charging_Adjusted_Penalty>
0.0154526426278915

> <i_epik_Tot_Q>
2

> <i_epik_Tot_abs_Q>
2

> <s_epik_Chemistry_Notes>
This compound has an imine and may undergo hydrolysis.

$$$$
