3mj2_ligand
                    3D
 Schrodinger Suite 2020-3.
 85 88  0  0  1  0            999 V2000
   17.0640    1.1020   -1.2970 C   0  0  0  0  0  0
   17.2080    1.8670   -2.4670 C   0  0  0  0  0  0
   16.1130    1.9900   -3.3420 C   0  0  0  0  0  0
   14.9010    1.3740   -3.0430 C   0  0  0  0  0  0
   14.7730    0.6220   -1.8720 C   0  0  0  0  0  0
   15.8490    0.4840   -1.0160 C   0  0  0  0  0  0
   18.1130    0.9620   -0.4400 O   0  0  0  0  0  0
   17.8270    0.9430    0.9610 C   0  0  0  0  0  0
   18.5100    2.5080   -2.7770 C   0  0  0  0  0  0
   18.7650    3.8140   -2.5380 N   0  0  0  0  0  0
   19.3820    1.8210   -3.2740 O   0  0  0  0  0  0
   20.0900    4.3730   -2.8630 C   0  0  0  0  0  0
   19.9070    5.6190   -3.7370 C   0  0  0  0  0  0
   18.9850    6.5620   -3.0720 N   0  0  0  0  0  0
   17.6760    6.0660   -2.5940 C   0  0  0  0  0  0
   17.7500    4.6910   -1.9260 C   0  0  0  0  0  0
   19.3040    7.8770   -2.9280 C   0  0  0  0  0  0
   20.6220    8.4330   -3.4160 C   0  0  0  0  0  0
   18.5260    8.6390   -2.3890 O   0  0  0  0  0  0
   13.5260    1.5490   -4.1400 S   0  0  0  0  0  0
   11.8230    3.6540   -3.4980 C   0  0  0  0  0  0
   13.0470    3.2040   -3.8180 C   0  0  0  0  0  0
   14.1430    4.5720   -3.8870 S   0  0  0  0  0  0
   12.8250    5.6490   -3.4480 C   0  0  0  0  0  0
   11.7330    4.9610   -3.3180 N   0  0  0  0  0  0
   12.9280    7.0280   -3.3380 N   0  0  0  0  0  0
   14.1040    7.6860   -3.4790 C   0  0  0  0  0  0
   14.1370    9.1650   -3.4220 C   0  0  0  0  0  0
   15.3560    9.8500   -3.3230 C   0  0  0  0  0  0
   15.3720   11.2330   -3.2990 C   0  0  0  0  0  0
   14.1850   11.9460   -3.3920 C   0  0  0  0  0  0
   12.9750   11.2760   -3.5060 C   0  0  0  0  0  0
   12.9480    9.8930   -3.5310 C   0  0  0  0  0  0
   15.1400    7.0770   -3.6930 O   0  0  0  0  0  0
   14.1970   13.4560   -3.3780 C   0  0  0  0  0  0
   14.6390   14.0460   -4.6670 N   0  3  0  0  0  0
   14.1220   13.3900   -5.8930 C   0  0  2  0  0  0
   15.1790   13.3410   -7.0270 C   0  0  0  0  0  0
   16.2900   12.3700   -6.6240 C   0  0  0  0  0  0
   14.5530   12.8360   -8.3320 C   0  0  0  0  0  0
   15.8390   14.6950   -7.3090 C   0  0  0  0  0  0
   13.4780   -0.0620   -1.5280 C   0  0  0  0  0  0
   12.7880   14.0250   -6.3270 C   0  0  0  0  0  0
   16.2143    2.5707   -4.2588 H   0  0  0  0  0  0
   15.7451   -0.1151   -0.1113 H   0  0  0  0  0  0
   18.7640    0.8250    1.5249 H   0  0  0  0  0  0
   17.1548    0.1020    1.1866 H   0  0  0  0  0  0
   17.3421    1.8874    1.2491 H   0  0  0  0  0  0
   20.6109    4.6459   -1.9334 H   0  0  0  0  0  0
   20.6812    3.6221   -3.4076 H   0  0  0  0  0  0
   20.8812    6.1069   -3.8885 H   0  0  0  0  0  0
   19.4886    5.3254   -4.7110 H   0  0  0  0  0  0
   17.2653    6.7692   -1.8545 H   0  0  0  0  0  0
   16.9831    5.9817   -3.4442 H   0  0  0  0  0  0
   16.7592    4.2211   -2.0125 H   0  0  0  0  0  0
   17.9911    4.8454   -0.8639 H   0  0  0  0  0  0
   21.2117    7.6270   -3.8771 H   0  0  0  0  0  0
   21.1790    8.8550   -2.5665 H   0  0  0  0  0  0
   20.4345    9.2216   -4.1595 H   0  0  0  0  0  0
   10.9651    2.9896   -3.3941 H   0  0  0  0  0  0
   12.0325    7.6314   -3.1284 H   0  0  0  0  0  0
   16.2911    9.2930   -3.2649 H   0  0  0  0  0  0
   16.3194   11.7641   -3.2068 H   0  0  0  0  0  0
   12.0449   11.8400   -3.5759 H   0  0  0  0  0  0
   11.9977    9.3696   -3.6359 H   0  0  0  0  0  0
   13.1831   13.8288   -3.1708 H   0  0  0  0  0  0
   14.8847   13.8100   -2.5959 H   0  0  0  0  0  0
   14.3128   15.0951   -4.7210 H   0  0  0  0  0  0
   15.7359   13.9992   -4.7347 H   0  0  0  0  0  0
   13.9205   12.3474   -5.6059 H   0  0  0  0  0  0
   15.8547   11.3822   -6.4124 H   0  0  0  0  0  0
   16.7980   12.7472   -5.7242 H   0  0  0  0  0  0
   17.0162   12.2823   -7.4456 H   0  0  0  0  0  0
   14.0717   11.8628   -8.1552 H   0  0  0  0  0  0
   15.3370   12.7240   -9.0954 H   0  0  0  0  0  0
   13.8012   13.5588   -8.6817 H   0  0  0  0  0  0
   16.2966   15.0793   -6.3855 H   0  0  0  0  0  0
   15.0791   15.4062   -7.6651 H   0  0  0  0  0  0
   16.6150   14.5714   -8.0788 H   0  0  0  0  0  0
   12.7327    0.1499   -2.3088 H   0  0  0  0  0  0
   13.1117    0.3117   -0.5604 H   0  0  0  0  0  0
   13.6427   -1.1477   -1.4632 H   0  0  0  0  0  0
   12.0892   14.0267   -5.4775 H   0  0  0  0  0  0
   12.3571   13.4430   -7.1550 H   0  0  0  0  0  0
   12.9648   15.0589   -6.6585 H   0  0  0  0  0  0
  1  2  2  0  0  0
  1  6  1  0  0  0
  1  7  1  0  0  0
  2  3  1  0  0  0
  2  9  1  0  0  0
  3  4  2  0  0  0
  3 44  1  0  0  0
  4  5  1  0  0  0
  4 20  1  0  0  0
  5  6  2  0  0  0
  5 42  1  0  0  0
  6 45  1  0  0  0
  7  8  1  0  0  0
  8 46  1  0  0  0
  8 47  1  0  0  0
  8 48  1  0  0  0
  9 10  1  0  0  0
  9 11  2  0  0  0
 10 12  1  0  0  0
 10 16  1  0  0  0
 12 13  1  0  0  0
 12 49  1  0  0  0
 12 50  1  0  0  0
 13 14  1  0  0  0
 13 51  1  0  0  0
 13 52  1  0  0  0
 14 15  1  0  0  0
 14 17  1  0  0  0
 15 16  1  0  0  0
 15 53  1  0  0  0
 15 54  1  0  0  0
 16 55  1  0  0  0
 16 56  1  0  0  0
 17 18  1  0  0  0
 17 19  2  0  0  0
 18 57  1  0  0  0
 18 58  1  0  0  0
 18 59  1  0  0  0
 20 22  1  0  0  0
 21 22  2  0  0  0
 21 25  1  0  0  0
 21 60  1  0  0  0
 22 23  1  0  0  0
 23 24  1  0  0  0
 24 25  2  0  0  0
 24 26  1  0  0  0
 26 27  1  0  0  0
 26 61  1  0  0  0
 27 28  1  0  0  0
 27 34  2  0  0  0
 28 29  2  0  0  0
 28 33  1  0  0  0
 29 30  1  0  0  0
 29 62  1  0  0  0
 30 31  2  0  0  0
 30 63  1  0  0  0
 31 32  1  0  0  0
 31 35  1  0  0  0
 32 33  2  0  0  0
 32 64  1  0  0  0
 33 65  1  0  0  0
 35 36  1  0  0  0
 35 66  1  0  0  0
 35 67  1  0  0  0
 36 37  1  0  0  0
 36 68  1  0  0  0
 36 69  1  0  0  0
 37 38  1  0  0  0
 37 43  1  0  0  0
 37 70  1  0  0  0
 38 39  1  0  0  0
 38 40  1  0  0  0
 38 41  1  0  0  0
 39 71  1  0  0  0
 39 72  1  0  0  0
 39 73  1  0  0  0
 40 74  1  0  0  0
 40 75  1  0  0  0
 40 76  1  0  0  0
 41 77  1  0  0  0
 41 78  1  0  0  0
 41 79  1  0  0  0
 42 80  1  0  0  0
 42 81  1  0  0  0
 42 82  1  0  0  0
 43 83  1  0  0  0
 43 84  1  0  0  0
 43 85  1  0  0  0
M  CHG  1  36   1
M  END
> <s_m_source_file>
../3mj2_ligand.sdf

> <i_m_source_file_index>
1

> <s_epik_input>
W0NIMl0xW0NIMl1OKEMoPU8pW0NIM10pW0NIMl1bQ0gyXU4xQyg9TyljKGMyT1tDSDNdKVtjSF1jKGMoW2NIXTIpW0NIM10pU2MzW2NIXW5jKHMzKVtOSF1DKD1PKWM0W2NIXVtjSF1jKFtjSF1bY0hdNClbQ0gyXVtOSDIrXVtDQEBIXShbQ0gzXSlDKFtDSDNdKShbQ0gzXSlbQ0gzXQ==

> <s_epik_cmdline>
J2VwaWtfYXBwJywgJy1pbWFlJywgJ2xpZ2FuZF9wcm8ubWFlJywgJy1vbWFlJywgJ2xpZ2FuZF9wcmVwLm1hZScsICctbXMnLCAnMScsICctcGgnLCAnNycsICctcGh0JywgJzAuNScsICctbnQn

> <r_lp_tautomer_probability>
0.999000488399163

> <r_epik_Ionization_Penalty>
  0.0157

> <r_epik_Ionization_Penalty_Charging>
  0.0129

> <r_epik_Ionization_Penalty_Neutral>
  0.0028

> <r_epik_State_Penalty>
  0.0100

> <r_epik_Charging_Adjusted_Penalty>
0.022850296664463

> <i_epik_Tot_Q>
1

> <i_epik_Tot_abs_Q>
1

$$$$
