3mj5_ligand
                    3D
 Schrodinger Suite 2020-3.
 60 64  0  0  1  0            999 V2000
  -18.6210   46.2440  -39.0660 C   0  0  2  0  0  0
  -19.6270   46.3800  -37.8630 C   0  0  0  0  0  0
  -18.7120   44.8990  -39.9200 C   0  0  0  0  0  0
  -17.1030   46.6510  -38.7930 N   0  3  2  0  0  0
  -16.0200   45.7380  -39.3450 C   0  0  0  0  0  0
  -14.5370   46.0460  -38.9090 C   0  0  0  0  0  0
  -14.3630   47.5270  -38.5190 C   0  0  1  0  0  0
  -15.3610   47.9260  -37.3880 C   0  0  0  0  0  0
  -16.7080   47.1220  -37.3970 C   0  0  0  0  0  0
  -12.9130   47.7370  -38.0830 C   0  0  0  0  0  0
  -12.6270   47.7180  -36.8950 O   0  0  0  0  0  0
  -11.9620   47.9310  -39.0380 N   0  0  0  0  0  0
  -10.5530   48.1280  -38.6590 C   0  0  0  0  0  0
   -9.6790   48.2140  -39.9130 C   0  0  0  0  0  0
   -9.8320   47.2170  -40.9310 C   0  0  0  0  0  0
   -9.0180   47.3230  -42.0720 C   0  0  0  0  0  0
   -8.0800   48.3570  -42.2330 C   0  0  0  0  0  0
   -7.9000   49.3780  -41.2350 C   0  0  0  0  0  0
   -8.7280   49.2830  -40.0640 C   0  0  0  0  0  0
   -9.0430   46.4560  -43.1300 O   0  0  0  0  0  0
   -8.2290   47.2260  -44.0850 C   0  0  0  0  0  0
   -7.3980   48.2470  -43.4430 O   0  0  0  0  0  0
  -18.6430   44.8190  -41.3750 C   0  0  0  0  0  0
  -18.7370   43.5070  -42.0220 C   0  0  0  0  0  0
  -18.8860   42.3430  -41.2370 C   0  0  0  0  0  0
  -18.9390   42.4160  -39.8220 C   0  0  0  0  0  0
  -18.8600   43.6620  -39.1730 C   0  0  0  0  0  0
  -18.5040   45.9530  -42.2370 C   0  0  0  0  0  0
  -18.4640   45.8050  -43.6490 C   0  0  0  0  0  0
  -18.5500   44.5130  -44.2410 C   0  0  0  0  0  0
  -18.6920   43.3640  -43.4320 C   0  0  0  0  0  0
  -19.0425   47.0469  -39.6887 H   0  0  0  0  0  0
  -20.6309   46.0686  -38.1875 H   0  0  0  0  0  0
  -19.6584   47.4272  -37.5279 H   0  0  0  0  0  0
  -19.2948   45.7392  -37.0330 H   0  0  0  0  0  0
  -17.0600   47.5631  -39.4064 H   0  0  0  0  0  0
  -16.2143   44.7036  -39.0252 H   0  0  0  0  0  0
  -16.0226   45.7887  -40.4438 H   0  0  0  0  0  0
  -14.2728   45.4228  -38.0419 H   0  0  0  0  0  0
  -13.8555   45.8218  -39.7429 H   0  0  0  0  0  0
  -14.5681   48.1703  -39.3874 H   0  0  0  0  0  0
  -14.8921   47.7543  -36.4079 H   0  0  0  0  0  0
  -15.6224   48.9898  -37.4881 H   0  0  0  0  0  0
  -17.4944   47.7777  -36.9951 H   0  0  0  0  0  0
  -16.5846   46.2505  -36.7372 H   0  0  0  0  0  0
  -12.2526   47.9399  -40.0989 H   0  0  0  0  0  0
  -10.4547   49.0614  -38.0853 H   0  0  0  0  0  0
  -10.2174   47.2814  -38.0420 H   0  0  0  0  0  0
  -10.5529   46.4065  -40.8244 H   0  0  0  0  0  0
   -7.1739   50.1812  -41.3605 H   0  0  0  0  0  0
   -8.6340   50.0325  -39.2782 H   0  0  0  0  0  0
   -7.5576   46.5443  -44.6276 H   0  0  0  0  0  0
   -8.8893   47.7372  -44.8010 H   0  0  0  0  0  0
  -18.9615   41.3722  -41.7268 H   0  0  0  0  0  0
  -19.0413   41.5035  -39.2347 H   0  0  0  0  0  0
  -18.9110   43.6999  -38.0849 H   0  0  0  0  0  0
  -18.4274   46.9493  -41.8015 H   0  0  0  0  0  0
  -18.3669   46.6860  -44.2834 H   0  0  0  0  0  0
  -18.5060   44.4100  -45.3252 H   0  0  0  0  0  0
  -18.7663   42.3765  -43.8873 H   0  0  0  0  0  0
  1  2  1  0  0  0
  1  3  1  0  0  0
  1  4  1  0  0  0
  1 32  1  0  0  0
  2 33  1  0  0  0
  2 34  1  0  0  0
  2 35  1  0  0  0
  3 23  2  0  0  0
  3 27  1  0  0  0
  4  5  1  0  0  0
  4  9  1  0  0  0
  4 36  1  0  0  0
  5  6  1  0  0  0
  5 37  1  0  0  0
  5 38  1  0  0  0
  6  7  1  0  0  0
  6 39  1  0  0  0
  6 40  1  0  0  0
  7  8  1  0  0  0
  7 10  1  0  0  0
  7 41  1  0  0  0
  8  9  1  0  0  0
  8 42  1  0  0  0
  8 43  1  0  0  0
  9 44  1  0  0  0
  9 45  1  0  0  0
 10 11  2  0  0  0
 10 12  1  0  0  0
 12 13  1  0  0  0
 12 46  1  0  0  0
 13 14  1  0  0  0
 13 47  1  0  0  0
 13 48  1  0  0  0
 14 15  2  0  0  0
 14 19  1  0  0  0
 15 16  1  0  0  0
 15 49  1  0  0  0
 16 17  2  0  0  0
 16 20  1  0  0  0
 17 18  1  0  0  0
 17 22  1  0  0  0
 18 19  2  0  0  0
 18 50  1  0  0  0
 19 51  1  0  0  0
 20 21  1  0  0  0
 21 22  1  0  0  0
 21 52  1  0  0  0
 21 53  1  0  0  0
 23 24  1  0  0  0
 23 28  1  0  0  0
 24 25  2  0  0  0
 24 31  1  0  0  0
 25 26  1  0  0  0
 25 54  1  0  0  0
 26 27  2  0  0  0
 26 55  1  0  0  0
 27 56  1  0  0  0
 28 29  2  0  0  0
 28 57  1  0  0  0
 29 30  1  0  0  0
 29 58  1  0  0  0
 30 31  2  0  0  0
 30 59  1  0  0  0
 31 60  1  0  0  0
M  CHG  1   4   1
M  END
> <s_m_source_file>
../3mj5_ligand.sdf

> <i_m_source_file_index>
1

> <s_epik_input>
W2NIXTFbY0hdW2NIXVtjSF1jKGMxMilbY0hdW2NIXVtjSF1jMltDQEBIXShbQ0gzXSlbTkBASCtdM1tDSDJdW0NIMl1bQ0BASF0oW0NIMl1bQ0gyXTMpQyg9TylbTkhdW0NIMl1jKFtjSF00KVtjSF1bY0hdYyhjNDUpT1tDSDJdTzU=

> <s_epik_cmdline>
J2VwaWtfYXBwJywgJy1pbWFlJywgJ2xpZ2FuZF9wcm8ubWFlJywgJy1vbWFlJywgJ2xpZ2FuZF9wcmVwLm1hZScsICctbXMnLCAnMScsICctcGgnLCAnNycsICctcGh0JywgJzAuNScsICctbnQn

> <r_lp_tautomer_probability>
1

> <r_epik_Ionization_Penalty>
  0.0240

> <r_epik_Ionization_Penalty_Charging>
  0.0240

> <r_epik_Ionization_Penalty_Neutral>
  0.0000

> <r_epik_State_Penalty>
  0.0195

> <r_epik_Charging_Adjusted_Penalty>
0.0435412475093973

> <i_epik_Tot_Q>
1

> <i_epik_Tot_abs_Q>
1

> <s_epik_Chemistry_Notes>
This compound contains an acetal/aminal-like group ( X-CH(R)-Y where X, Y are N, S, or O) that may be acid/base labile, releasing an aldehyde.

$$$$
