3mjl_ligand
                    3D
 Schrodinger Suite 2020-3.
 11 11  0  0  1  0            999 V2000
   -3.4140  -24.2900   -4.8630 C   0  0  0  0  0  0
   -2.1770  -24.7370   -4.5510 C   0  0  0  0  0  0
   -1.3180  -24.0180   -5.3340 N   0  3  0  0  0  0
   -1.9830  -23.1690   -6.0880 C   0  0  0  0  0  0
   -3.2740  -23.3280   -5.8340 N   0  0  0  0  0  0
   -1.3620  -22.2890   -6.9900 N   0  0  0  0  0  0
   -4.2946  -24.7081   -4.3534 H   0  0  0  0  0  0
   -2.0519  -25.5272   -3.7960 H   0  0  0  0  0  0
   -0.2660  -22.2800   -7.0833 H   0  0  0  0  0  0
   -1.9718  -21.6089   -7.6029 H   0  0  0  0  0  0
   -0.2346  -24.1975   -5.2703 H   0  0  0  0  0  0
  1  2  2  0  0  0
  1  5  1  0  0  0
  1  7  1  0  0  0
  2  3  1  0  0  0
  2  8  1  0  0  0
  3  4  1  0  0  0
  3 11  1  0  0  0
  4  5  2  0  0  0
  4  6  1  0  0  0
  6  9  1  0  0  0
  6 10  1  0  0  0
M  CHG  1   3   1
M  END
> <s_m_source_file>
../3mjl_ligand.sdf

> <i_m_source_file_index>
1

> <s_epik_input>
bjFbY0hdW2NIXVtuSF1jMVtOSDJd

> <s_epik_cmdline>
J2VwaWtfYXBwJywgJy1pbWFlJywgJ2xpZ2FuZF9wcm8ubWFlJywgJy1vbWFlJywgJ2xpZ2FuZF9wcmVwLm1hZScsICctbXMnLCAnMScsICctcGgnLCAnNycsICctcGh0JywgJzAuNScsICctbnQn

> <r_lp_tautomer_probability>
1

> <r_epik_Ionization_Penalty>
  0.0005

> <r_epik_Ionization_Penalty_Charging>
  0.0005

> <r_epik_Ionization_Penalty_Neutral>
  0.0000

> <r_epik_State_Penalty>
 -0.0000

> <r_epik_Charging_Adjusted_Penalty>
0.00046107343916701

> <i_epik_Tot_Q>
1

> <i_epik_Tot_abs_Q>
1

> <s_epik_Chemistry_Notes>
This compound has an imine and may undergo hydrolysis.

$$$$
