3mke_ligand
                    3D
 Schrodinger Suite 2020-3.
 36 36  0  0  1  0            999 V2000
   32.2280   62.9740    6.1920 B   0  0  0  0  0  0
   31.2240   62.9460    7.3580 O   0  0  0  0  0  0
   33.6580   63.4660    6.4480 O   0  0  0  0  0  0
   31.5750   63.8770    5.0270 C   0  0  0  0  0  0
   32.3910   64.0220    3.8140 N   0  0  0  0  0  0
   32.0070   64.8370    2.8180 C   0  0  0  0  0  0
   30.9390   65.4520    2.8770 O   0  0  0  0  0  0
   32.8430   64.9910    1.6200 C   0  0  0  0  0  0
   33.9270   64.3010    1.3780 N   0  0  0  0  0  0
   34.4770   63.3540    2.1520 O   0  0  0  0  0  0
   35.7930   62.9460    1.7810 C   0  0  0  0  0  0
   32.5770   65.9660    0.5410 C   0  0  0  0  0  0
   31.4990   66.8540    0.5210 C   0  0  0  0  0  0
   31.5350   67.8230   -0.9230 S   0  0  0  0  0  0
   32.9680   66.9910   -1.3910 C   0  0  0  0  0  0
   33.6060   67.2880   -2.5620 N   0  0  0  0  0  0
   33.4100   66.0410   -0.5450 N   0  0  0  0  0  0
   35.7400   62.2980    0.4010 C   0  0  0  0  0  0
   36.8170   64.0930    1.7900 C   0  0  0  0  0  0
   36.1420   61.9450    2.8240 C   0  0  0  0  0  0
   37.3350   61.7830    3.1180 O   0  0  0  0  0  0
   35.1870   61.3580    3.3590 O   0  5  0  0  0  0
   31.4596   62.3832    8.2733 H   0  0  0  0  0  0
   34.2793   62.9768    7.2126 H   0  0  0  0  0  0
   30.6203   63.4321    4.7099 H   0  0  0  0  0  0
   31.3973   64.8938    5.4073 H   0  0  0  0  0  0
   33.3305   63.4589    3.7126 H   0  0  0  0  0  0
   30.7414   66.9292    1.3010 H   0  0  0  0  0  0
   33.2074   68.0728   -3.2218 H   0  0  0  0  0  0
   34.5182   66.7424   -2.8450 H   0  0  0  0  0  0
   35.4805   63.0577   -0.3510 H   0  0  0  0  0  0
   34.9788   61.5039    0.3978 H   0  0  0  0  0  0
   36.7224   61.8652    0.1612 H   0  0  0  0  0  0
   36.5511   64.8280    1.0160 H   0  0  0  0  0  0
   37.8200   63.6907    1.5845 H   0  0  0  0  0  0
   36.8125   64.5808    2.7759 H   0  0  0  0  0  0
  1  2  1  0  0  0
  1  3  1  0  0  0
  1  4  1  0  0  0
  2 23  1  0  0  0
  3 24  1  0  0  0
  4  5  1  0  0  0
  4 25  1  0  0  0
  4 26  1  0  0  0
  5  6  1  0  0  0
  5 27  1  0  0  0
  6  7  2  0  0  0
  6  8  1  0  0  0
  8  9  2  0  0  0
  8 12  1  0  0  0
  9 10  1  0  0  0
 10 11  1  0  0  0
 11 18  1  0  0  0
 11 19  1  0  0  0
 11 20  1  0  0  0
 12 13  2  0  0  0
 12 17  1  0  0  0
 13 14  1  0  0  0
 13 28  1  0  0  0
 14 15  1  0  0  0
 15 16  1  0  0  0
 15 17  2  0  0  0
 16 29  1  0  0  0
 16 30  1  0  0  0
 18 31  1  0  0  0
 18 32  1  0  0  0
 18 33  1  0  0  0
 19 34  1  0  0  0
 19 35  1  0  0  0
 19 36  1  0  0  0
 20 21  2  0  0  0
 20 22  1  0  0  0
M  CHG  1  22  -1
M  END
> <s_m_source_file>
../3mke_ligand.sdf

> <i_m_source_file_index>
1

> <s_epik_input>
W09IXUIoW09IXSlbQ0gyXVtOSF1DKD1PKS9DKD1OXE9DKFtDSDNdKShbQ0gzXSlDKD1PKVtPSF0pYzFbY0hdc2MobjEpW05IMl0=

> <s_epik_cmdline>
J2VwaWtfYXBwJywgJy1pbWFlJywgJ2xpZ2FuZF9wcm8ubWFlJywgJy1vbWFlJywgJ2xpZ2FuZF9wcmVwLm1hZScsICctbXMnLCAnMScsICctcGgnLCAnNycsICctcGh0JywgJzAuNScsICctbnQn

> <r_lp_tautomer_probability>
1

> <r_epik_Ionization_Penalty>
  0.0019

> <r_epik_Ionization_Penalty_Charging>
  0.0001

> <r_epik_Ionization_Penalty_Neutral>
  0.0018

> <r_epik_State_Penalty>
 -0.0000

> <r_epik_Charging_Adjusted_Penalty>
0.000112559665214304

> <i_epik_Tot_Q>
-1

> <i_epik_Tot_abs_Q>
1

> <s_epik_Chemistry_Notes>
This compound has an imine and may undergo hydrolysis. This compound contains a Lewis acid (boronic acid) which adds nucleophiles to form tetrahedral complexes, lowering the experimental pKa

$$$$
