3mkf_ligand
                    3D
 Schrodinger Suite 2020-3.
 47 48  0  0  1  0            999 V2000
   31.2850   65.6920    4.2740 C   0  0  0  0  0  0
   30.8820   68.0890    4.6100 N   0  0  0  0  0  0
   30.2050   65.5810    3.6980 O   0  0  0  0  0  0
   31.9030   67.0430    4.5370 C   0  0  2  0  0  0
   25.2920   72.1220    6.4980 C   0  0  0  0  0  0
   31.8780   69.1720    6.2750 O   0  0  0  0  0  0
   27.3830   71.6590    3.9700 O   0  0  0  0  0  0
   28.7650   69.3120    3.7410 O   0  0  0  0  0  0
   35.7070   68.3620    0.5700 O   0  0  0  0  0  0
   31.2190   62.7020    7.1610 O   0  0  0  0  0  0
   33.5000   62.7500    6.1820 O   0  0  0  0  0  0
   35.1480   68.0580    2.8760 C   0  0  0  0  0  0
   33.4890   67.7070    1.1620 C   0  0  0  0  0  0
   34.2210   67.7330    3.8630 C   0  0  0  0  0  0
   32.5610   67.3820    2.1480 C   0  0  0  0  0  0
   26.7170   72.5410    6.2800 C   0  0  0  0  0  0
   31.5750   63.2490    4.5680 C   0  0  0  0  0  0
   28.6220   71.4420    7.0800 C   0  0  0  0  0  0
   29.8280   70.7750    6.7390 C   0  0  0  0  0  0
   31.9740   64.6460    4.7090 N   0  0  0  0  0  0
   30.9430   69.1030    5.4870 C   0  0  0  0  0  0
   27.9020   71.0960    4.9290 C   0  0  0  0  0  0
   28.9220   70.0670    4.6850 C   0  0  0  0  0  0
   34.7890   68.0420    1.5300 C   0  0  0  0  0  0
   32.9150   67.3900    3.5000 C   0  0  0  0  0  0
   32.0260   62.4760    5.8850 B   0  0  0  0  0  0
   27.5210   71.3750    6.1850 N   0  0  0  0  0  0
   29.9720   70.0440    5.5260 N   0  0  0  0  0  0
   30.0194   68.0642    3.9278 H   0  0  0  0  0  0
   32.4033   67.0095    5.5161 H   0  0  0  0  0  0
   24.6547   73.0153    6.5739 H   0  0  0  0  0  0
   25.2193   71.5396    7.4283 H   0  0  0  0  0  0
   24.9579   71.5041    5.6515 H   0  0  0  0  0  0
   36.7349   68.6270    0.8585 H   0  0  0  0  0  0
   31.5019   62.1845    8.0896 H   0  0  0  0  0  0
   33.9784   62.2924    7.0605 H   0  0  0  0  0  0
   36.1653   68.3278    3.1596 H   0  0  0  0  0  0
   33.1999   67.6991    0.1111 H   0  0  0  0  0  0
   34.5120   67.7459    4.9133 H   0  0  0  0  0  0
   31.5433   67.1174    1.8611 H   0  0  0  0  0  0
   26.7897   73.1234    5.3497 H   0  0  0  0  0  0
   27.0511   73.1589    7.1265 H   0  0  0  0  0  0
   30.4833   63.1899    4.4468 H   0  0  0  0  0  0
   32.0660   62.8148    3.6846 H   0  0  0  0  0  0
   28.5421   71.9972    8.0146 H   0  0  0  0  0  0
   30.6709   70.8242    7.4283 H   0  0  0  0  0  0
   32.9187   64.9001    5.2119 H   0  0  0  0  0  0
  1  3  2  0  0  0
  1  4  1  0  0  0
  1 20  1  0  0  0
  2  4  1  0  0  0
  2 21  1  0  0  0
  2 29  1  0  0  0
  4 25  1  0  0  0
  4 30  1  0  0  0
  5 16  1  0  0  0
  5 31  1  0  0  0
  5 32  1  0  0  0
  5 33  1  0  0  0
  6 21  2  0  0  0
  7 22  2  0  0  0
  8 23  2  0  0  0
  9 24  1  0  0  0
  9 34  1  0  0  0
 10 26  1  0  0  0
 10 35  1  0  0  0
 11 26  1  0  0  0
 11 36  1  0  0  0
 12 14  2  0  0  0
 12 24  1  0  0  0
 12 37  1  0  0  0
 13 15  1  0  0  0
 13 24  2  0  0  0
 13 38  1  0  0  0
 14 25  1  0  0  0
 14 39  1  0  0  0
 15 25  2  0  0  0
 15 40  1  0  0  0
 16 27  1  0  0  0
 16 41  1  0  0  0
 16 42  1  0  0  0
 17 20  1  0  0  0
 17 26  1  0  0  0
 17 43  1  0  0  0
 17 44  1  0  0  0
 18 19  2  0  0  0
 18 27  1  0  0  0
 18 45  1  0  0  0
 19 28  1  0  0  0
 19 46  1  0  0  0
 20 47  1  0  0  0
 21 28  1  0  0  0
 22 23  1  0  0  0
 22 27  1  0  0  0
 23 28  1  0  0  0
M  END
> <s_m_source_file>
../3mkf_ligand.sdf

> <i_m_source_file_index>
1

> <s_epik_input>
W09IXWMxW2NIXVtjSF1jKFtjSF1bY0hdMSlbQ0BIXShDKD1PKVtOSF1bQ0gyXUIoW09IXSlbT0hdKVtOSF1DKD1PKW4oYyg9TyljMj1PKVtjSF1bY0hdbjJbQ0gyXVtDSDNd

> <s_epik_cmdline>
J2VwaWtfYXBwJywgJy1pbWFlJywgJ2xpZ2FuZF9wcm8ubWFlJywgJy1vbWFlJywgJ2xpZ2FuZF9wcmVwLm1hZScsICctbXMnLCAnMScsICctcGgnLCAnNycsICctcGh0JywgJzAuNScsICctbnQn

> <r_lp_tautomer_probability>
1

> <r_epik_Ionization_Penalty>
  0.0012

> <r_epik_Ionization_Penalty_Charging>
  0.0000

> <r_epik_Ionization_Penalty_Neutral>
  0.0012

> <r_epik_State_Penalty>
 -0.0000

> <r_epik_Charging_Adjusted_Penalty>
7.5597571340606e-08

> <i_epik_Tot_Q>
0

> <i_epik_Tot_abs_Q>
0

> <s_epik_Chemistry_Notes>
This compound contains a Lewis acid (boronic acid) which adds nucleophiles to form tetrahedral complexes, lowering the experimental pKa

$$$$
