3mkn_ligand
                    3D
 Schrodinger Suite 2020-3.
 35 36  0  0  1  0            999 V2000
   29.1690    3.7880   33.6030 O   0  0  0  0  0  0
   27.7760    3.4440   33.7790 C   0  0  2  0  0  0
   27.5870    2.2670   34.7420 C   0  0  2  0  0  0
   28.7830    1.4840   34.8640 O   0  0  0  0  0  0
   27.1530    3.0000   32.4520 C   0  0  1  0  0  0
   26.7350    1.6380   32.7260 N   0  3  0  0  0  0
   26.5480    1.3480   34.1270 C   0  0  2  0  0  0
   25.1330    1.6520   34.6620 C   0  0  0  0  0  0
   24.1120    0.9050   33.9870 O   0  0  0  0  0  0
   25.8820    3.6570   32.0970 C   0  0  0  0  0  0
   25.3120    3.3050   30.8700 C   0  0  0  0  0  0
   24.0870    3.8480   30.4770 C   0  0  0  0  0  0
   23.4300    4.7450   31.3250 C   0  0  0  0  0  0
   23.9900    5.0910   32.5630 C   0  0  0  0  0  0
   23.3510    5.9700   33.3880 N   0  0  0  0  0  0
   25.2200    4.5450   32.9560 C   0  0  0  0  0  0
   22.2390    5.2630   30.9180 N   0  0  0  0  0  0
   29.7645    4.1281   34.4631 H   0  0  0  0  0  0
   27.3509    4.3784   34.1741 H   0  0  0  0  0  0
   27.3470    2.6311   35.7519 H   0  0  0  0  0  0
   29.6930    1.9325   35.2892 H   0  0  0  0  0  0
   27.8592    3.1729   31.6265 H   0  0  0  0  0  0
   25.7760    1.4409   32.2245 H   0  0  0  0  0  0
   27.4959    0.9382   32.3501 H   0  0  0  0  0  0
   26.6825    0.2710   34.3057 H   0  0  0  0  0  0
   25.0832    1.3991   35.7314 H   0  0  0  0  0  0
   24.9119    2.7211   34.5274 H   0  0  0  0  0  0
   23.0577    1.0304   34.2746 H   0  0  0  0  0  0
   25.8273    2.6019   30.2156 H   0  0  0  0  0  0
   23.6469    3.5751   29.5179 H   0  0  0  0  0  0
   22.3855    6.4035   33.0880 H   0  0  0  0  0  0
   23.8013    6.2452   34.3531 H   0  0  0  0  0  0
   25.6569    4.8082   33.9193 H   0  0  0  0  0  0
   21.8194    4.9767   29.9423 H   0  0  0  0  0  0
   21.6961    5.9680   31.5647 H   0  0  0  0  0  0
  1  2  1  0  0  0
  1 18  1  0  0  0
  2  3  1  0  0  0
  2  5  1  0  0  0
  2 19  1  0  0  0
  3  4  1  0  0  0
  3  7  1  0  0  0
  3 20  1  0  0  0
  4 21  1  0  0  0
  5  6  1  0  0  0
  5 10  1  0  0  0
  5 22  1  0  0  0
  6  7  1  0  0  0
  6 23  1  0  0  0
  6 24  1  0  0  0
  7  8  1  0  0  0
  7 25  1  0  0  0
  8  9  1  0  0  0
  8 26  1  0  0  0
  8 27  1  0  0  0
  9 28  1  0  0  0
 10 11  2  0  0  0
 10 16  1  0  0  0
 11 12  1  0  0  0
 11 29  1  0  0  0
 12 13  2  0  0  0
 12 30  1  0  0  0
 13 14  1  0  0  0
 13 17  1  0  0  0
 14 15  1  0  0  0
 14 16  2  0  0  0
 15 31  1  0  0  0
 15 32  1  0  0  0
 16 33  1  0  0  0
 17 34  1  0  0  0
 17 35  1  0  0  0
M  CHG  1   6   1
M  END
> <s_m_source_file>
../3mkn_ligand.sdf

> <i_m_source_file_index>
1

> <s_epik_input>
W09IXVtDQEBIXTFbQ0BIXShbT0hdKVtDQEBIXShbQ0gyXVtPSF0pW05IMitdW0NASF0xYzJbY0hdW2NIXWMoW05IMl0pYyhbTkgyXSlbY0hdMg==

> <s_epik_cmdline>
J2VwaWtfYXBwJywgJy1pbWFlJywgJ2xpZ2FuZF9wcm8ubWFlJywgJy1vbWFlJywgJ2xpZ2FuZF9wcmVwLm1hZScsICctbXMnLCAnMScsICctcGgnLCAnNycsICctcGh0JywgJzAuNScsICctbnQn

> <r_lp_tautomer_probability>
1

> <r_epik_Ionization_Penalty>
  0.0107

> <r_epik_Ionization_Penalty_Charging>
  0.0095

> <r_epik_Ionization_Penalty_Neutral>
  0.0012

> <r_epik_State_Penalty>
 -0.0000

> <r_epik_Charging_Adjusted_Penalty>
0.00948044411399042

> <i_epik_Tot_Q>
1

> <i_epik_Tot_abs_Q>
1

$$$$
