3ml2_ligand
                    3D
 Schrodinger Suite 2020-3.
 43 45  0  0  1  0            999 V2000
   -5.0750    2.6800   15.6910 C   0  0  0  0  0  0
   -5.1060    0.0910   15.9930 N   0  0  0  0  0  0
   -7.2100    1.4060   16.5130 O   0  0  0  0  0  0
   -5.7980    1.3740   16.6360 S   0  0  0  0  0  0
   -3.6170    2.5500   15.4460 C   0  0  0  0  0  0
   -5.3030    1.5770   17.9740 O   0  0  0  0  0  0
   -2.9840    3.5100   14.7140 C   0  0  0  0  0  0
   -4.5980    6.9030   12.8100 O   0  0  0  0  0  0
   -3.7540    4.6400   14.1870 C   0  0  0  0  0  0
   -0.0880    9.6640   15.4990 O   0  0  0  0  0  0
   -5.1170    4.7650   14.3780 C   0  0  0  0  0  0
   -5.8110    3.7190   15.1860 C   0  0  0  0  0  0
   -3.4100    6.5970   12.6710 C   0  0  0  0  0  0
   -2.8850    5.5470   13.4810 N   0  0  0  0  0  0
   -2.3820    7.3990   11.8870 C   0  0  0  0  0  0
   -1.9770    8.6050   12.6850 C   0  0  0  0  0  0
   -1.2240    8.5340   13.8610 C   0  0  0  0  0  0
   -0.7760    9.7090   14.4830 C   0  0  0  0  0  0
   -1.0070   11.0000   14.0250 O   0  0  0  0  0  0
   -1.8970   11.0920   12.9230 C   0  0  0  0  0  0
   -2.3480   12.4460   12.5520 C   0  0  0  0  0  0
   -3.2370   12.6170   11.5220 C   0  0  0  0  0  0
   -3.8100   11.4060   10.8330 C   0  0  0  0  0  0
   -3.4090   10.1370   11.1830 C   0  0  0  0  0  0
   -2.4270    9.9600   12.2890 C   0  0  0  0  0  0
   -3.6180   13.9110   11.1190 O   0  0  0  0  0  0
   -2.7720   15.0800   11.2160 C   0  0  0  0  0  0
   -5.4728   -0.8150   16.4976 H   0  0  0  0  0  0
   -4.0152    0.1627   16.1154 H   0  0  0  0  0  0
   -3.0616    1.7011   15.8447 H   0  0  0  0  0  0
   -1.9135    3.4377   14.5221 H   0  0  0  0  0  0
   -5.6689    5.6025   13.9513 H   0  0  0  0  0  0
   -6.8835    3.7809   15.3707 H   0  0  0  0  0  0
   -1.7934    5.4371   13.5609 H   0  0  0  0  0  0
   -1.4986    6.7728   11.6933 H   0  0  0  0  0  0
   -2.8199    7.7211   10.9307 H   0  0  0  0  0  0
   -0.9845    7.5635   14.2955 H   0  0  0  0  0  0
   -1.9741   13.3125   13.0974 H   0  0  0  0  0  0
   -4.5528   11.5368   10.0461 H   0  0  0  0  0  0
   -3.8062    9.2695   10.6559 H   0  0  0  0  0  0
   -3.3137   15.9574   10.8330 H   0  0  0  0  0  0
   -1.8604   14.9233   10.6207 H   0  0  0  0  0  0
   -2.4985   15.2484   12.2681 H   0  0  0  0  0  0
  1  4  1  0  0  0
  1  5  2  0  0  0
  1 12  1  0  0  0
  2  4  1  0  0  0
  2 28  1  0  0  0
  2 29  1  0  0  0
  3  4  2  0  0  0
  4  6  2  0  0  0
  5  7  1  0  0  0
  5 30  1  0  0  0
  7  9  2  0  0  0
  7 31  1  0  0  0
  8 13  2  0  0  0
  9 11  1  0  0  0
  9 14  1  0  0  0
 10 18  2  0  0  0
 11 12  2  0  0  0
 11 32  1  0  0  0
 12 33  1  0  0  0
 13 14  1  0  0  0
 13 15  1  0  0  0
 14 34  1  0  0  0
 15 16  1  0  0  0
 15 35  1  0  0  0
 15 36  1  0  0  0
 16 17  2  0  0  0
 16 25  1  0  0  0
 17 18  1  0  0  0
 17 37  1  0  0  0
 18 19  1  0  0  0
 19 20  1  0  0  0
 20 21  2  0  0  0
 20 25  1  0  0  0
 21 22  1  0  0  0
 21 38  1  0  0  0
 22 23  2  0  0  0
 22 26  1  0  0  0
 23 24  1  0  0  0
 23 39  1  0  0  0
 24 25  2  0  0  0
 24 40  1  0  0  0
 26 27  1  0  0  0
 27 41  1  0  0  0
 27 42  1  0  0  0
 27 43  1  0  0  0
M  END
> <s_m_source_file>
../3ml2_ligand.sdf

> <i_m_source_file_index>
1

> <s_epik_input>
W05IMl1TKD1PKSg9TyljMVtjSF1bY0hdYyhbY0hdW2NIXTEpW05IXUMoPU8pW0NIMl1jKFtjSF1jKD1PKW8yKWMoYzIzKVtjSF1bY0hdYyhbY0hdMylPW0NIM10=

> <s_epik_cmdline>
J2VwaWtfYXBwJywgJy1pbWFlJywgJ2xpZ2FuZF9wcm8ubWFlJywgJy1vbWFlJywgJ2xpZ2FuZF9wcmVwLm1hZScsICctbXMnLCAnMScsICctcGgnLCAnNycsICctcGh0JywgJzAuNScsICctbnQn

> <r_lp_tautomer_probability>
1

> <r_epik_Ionization_Penalty>
  0.0005

> <r_epik_Ionization_Penalty_Charging>
  0.0000

> <r_epik_Ionization_Penalty_Neutral>
  0.0005

> <r_epik_State_Penalty>
 -0.0000

> <r_epik_Charging_Adjusted_Penalty>
0

> <i_epik_Tot_Q>
0

> <i_epik_Tot_abs_Q>
0

$$$$
