3ml4_ligand
                    3D
 Schrodinger Suite 2020-3.
157160  0  0  1  0            999 V2000
  -87.8420  -23.5100  -22.9630 N   0  3  0  0  0  0
  -86.7750  -22.6340  -23.5310 C   0  0  2  0  0  0
  -87.1150  -21.1490  -23.3970 C   0  0  0  0  0  0
  -88.2870  -20.7660  -23.3340 O   0  0  0  0  0  0
  -86.5080  -22.9780  -24.9990 C   0  0  0  0  0  0
  -85.8000  -24.2840  -25.3760 C   0  0  0  0  0  0
  -85.6520  -24.3720  -26.8920 C   0  0  0  0  0  0
  -84.4400  -24.4090  -24.7050 C   0  0  0  0  0  0
  -86.0740  -20.3220  -23.3640 N   0  0  0  0  0  0
  -86.2180  -18.8910  -23.1080 C   0  0  2  0  0  0
  -86.0800  -18.0920  -24.4060 C   0  0  0  0  0  0
  -85.0270  -18.1360  -25.0500 O   0  0  0  0  0  0
  -85.1730  -18.4280  -22.0780 C   0  0  0  0  0  0
  -85.3740  -18.9880  -20.6990 C   0  0  0  0  0  0
  -84.7840  -18.4510  -19.5740 N   0  0  0  0  0  0
  -86.1290  -20.0250  -20.2640 C   0  0  0  0  0  0
  -85.1520  -19.1410  -18.5100 C   0  0  0  0  0  0
  -85.9700  -20.1000  -18.9010 N   0  0  0  0  0  0
  -87.1520  -17.3850  -24.8150 N   0  0  0  0  0  0
  -87.0480  -16.4690  -25.9580 C   0  0  2  0  0  0
  -86.1400  -15.2770  -25.6480 C   0  0  0  0  0  0
  -85.9480  -14.9350  -24.4810 O   0  0  0  0  0  0
  -88.4940  -16.0100  -26.1860 C   0  0  0  0  0  0
  -89.2090  -16.2820  -24.9040 C   0  0  0  0  0  0
  -88.5170  -17.4310  -24.2530 C   0  0  0  0  0  0
  -85.5800  -14.6640  -26.6880 N   0  0  0  0  0  0
  -84.6370  -13.5590  -26.5220 C   0  0  2  0  0  0
  -85.2810  -12.2150  -26.8460 C   0  0  0  0  0  0
  -85.7000  -11.9900  -27.9820 O   0  0  0  0  0  0
  -83.3770  -13.7870  -27.3780 C   0  0  0  0  0  0
  -82.3190  -12.6910  -27.2010 C   0  0  0  0  0  0
  -82.3460  -11.9260  -26.2400 O   0  0  0  0  0  0
  -81.3760  -12.6250  -28.1360 N   0  0  0  0  0  0
  -85.3780  -11.3240  -25.8420 N   0  0  0  0  0  0
  -85.8960   -9.9640  -26.0480 C   0  0  2  0  0  0
  -85.0330   -9.1140  -26.9880 C   0  0  0  0  0  0
  -85.5580   -8.2200  -27.6570 O   0  0  0  0  0  0
  -85.9000   -9.3680  -24.6350 C   0  0  0  0  0  0
  -85.8730  -10.5560  -23.7150 C   0  0  0  0  0  0
  -85.0370  -11.5650  -24.4290 C   0  0  0  0  0  0
  -83.7290   -9.3960  -27.0370 N   0  0  0  0  0  0
  -82.8100   -8.6820  -27.9300 C   0  0  2  0  0  0
  -83.0090   -9.0140  -29.4110 C   0  0  0  0  0  0
  -82.6170   -8.2290  -30.2810 O   0  0  0  0  0  0
  -81.3500   -8.9390  -27.5410 C   0  0  0  0  0  0
  -80.8020   -8.0390  -26.4300 C   0  0  0  0  0  0
  -81.1520   -6.2660  -26.6400 S   0  0  0  0  0  0
  -79.5160   -5.5880  -26.3760 C   0  0  0  0  0  0
  -83.6250  -10.1670  -29.6860 N   0  0  0  0  0  0
  -83.7100  -10.7130  -31.0450 C   0  0  2  0  0  0
  -84.4110   -9.8070  -32.0600 C   0  0  0  0  0  0
  -83.8130   -9.4330  -33.0670 O   0  0  0  0  0  0
  -84.3310  -12.1130  -31.0600 C   0  0  0  0  0  0
  -84.2020  -12.8260  -32.3880 C   0  0  0  0  0  0
  -82.9510  -13.1980  -32.8900 C   0  0  0  0  0  0
  -85.3290  -13.1110  -33.1550 C   0  0  0  0  0  0
  -82.8310  -13.8470  -34.1110 C   0  0  0  0  0  0
  -85.2220  -13.7600  -34.3790 C   0  0  0  0  0  0
  -83.9680  -14.1140  -34.8620 C   0  0  0  0  0  0
  -83.8470  -14.7190  -35.9370 O   0  0  0  0  0  0
  -84.2970  -14.1930  -37.3950 P   0  0  0  0  0  0
  -83.4240  -13.0600  -37.7780 O   0  0  0  0  0  0
  -85.7710  -13.7580  -37.4040 O   0  0  0  0  0  0
  -84.1300  -15.3610  -38.3820 O   0  0  0  0  0  0
  -85.6670   -9.4560  -31.7920 N   0  0  0  0  0  0
  -86.4580   -8.6320  -32.7220 C   0  0  2  0  0  0
  -85.9920   -7.1660  -32.8380 C   0  0  0  0  0  0
  -86.6440   -6.3550  -33.4930 O   0  0  0  0  0  0
  -87.9480   -8.7010  -32.3710 C   0  0  0  0  0  0
  -84.8630   -6.8390  -32.2150 N   0  0  0  0  0  0
  -84.2800   -5.5000  -32.3190 C   0  0  2  0  0  0
  -83.0720   -5.4930  -33.2590 C   0  0  0  0  0  0
  -82.9956   -6.3020  -34.2219 O   0  0  0  0  0  0
  -83.8860   -4.9700  -30.9360 C   0  0  0  0  0  0
  -85.0690   -4.6670  -30.0270 C   0  0  0  0  0  0
  -84.6490   -4.6120  -28.5650 C   0  0  0  0  0  0
  -85.7890   -4.7730  -27.6620 N   0  0  0  0  0  0
  -85.6930   -5.0670  -26.3670 C   0  0  0  0  0  0
  -84.5040   -5.2430  -25.8000 N   0  0  0  0  0  0
  -86.7910   -5.1910  -25.6310 N   0  0  0  0  0  0
  -82.1406   -4.6664  -33.0671 O   0  0  0  0  0  0
  -88.0139  -23.2426  -21.9099 H   0  0  0  0  0  0
  -87.5259  -24.5616  -23.0274 H   0  0  0  0  0  0
  -88.7724  -23.3712  -23.5331 H   0  0  0  0  0  0
  -85.8785  -22.8424  -22.9286 H   0  0  0  0  0  0
  -87.4629  -23.0331  -25.5422 H   0  0  0  0  0  0
  -85.8747  -22.1991  -25.4488 H   0  0  0  0  0  0
  -86.4141  -25.1230  -25.0168 H   0  0  0  0  0  0
  -86.6418  -24.2802  -27.3630 H   0  0  0  0  0  0
  -85.2062  -25.3409  -27.1612 H   0  0  0  0  0  0
  -85.0012  -23.5583  -27.2447 H   0  0  0  0  0  0
  -84.5622  -24.3439  -23.6137 H   0  0  0  0  0  0
  -83.7849  -23.5954  -25.0498 H   0  0  0  0  0  0
  -83.9899  -25.3781  -24.9664 H   0  0  0  0  0  0
  -85.0766  -20.7519  -23.5385 H   0  0  0  0  0  0
  -87.2340  -18.7616  -22.7068 H   0  0  0  0  0  0
  -84.1705  -18.7379  -22.4081 H   0  0  0  0  0  0
  -85.2070  -17.3322  -21.9883 H   0  0  0  0  0  0
  -86.7826  -20.7424  -20.7818 H   0  0  0  0  0  0
  -84.8346  -18.9511  -17.4847 H   0  0  0  0  0  0
  -86.5971  -16.9852  -26.8184 H   0  0  0  0  0  0
  -88.5040  -14.9376  -26.4306 H   0  0  0  0  0  0
  -88.9328  -16.5800  -27.0182 H   0  0  0  0  0  0
  -89.1655  -15.3889  -24.2633 H   0  0  0  0  0  0
  -90.2594  -16.5306  -25.1156 H   0  0  0  0  0  0
  -88.9845  -18.3945  -24.5040 H   0  0  0  0  0  0
  -88.4673  -17.3213  -23.1596 H   0  0  0  0  0  0
  -85.8465  -15.0128  -27.6966 H   0  0  0  0  0  0
  -84.3773  -13.5677  -25.4531 H   0  0  0  0  0  0
  -82.9128  -14.7445  -27.0994 H   0  0  0  0  0  0
  -83.6557  -13.8105  -28.4418 H   0  0  0  0  0  0
  -81.3887  -13.3296  -28.9806 H   0  0  0  0  0  0
  -80.5832  -11.8658  -28.0649 H   0  0  0  0  0  0
  -86.8810  -10.0255  -26.5337 H   0  0  0  0  0  0
  -85.0130   -8.7310  -24.5033 H   0  0  0  0  0  0
  -86.8089   -8.7647  -24.4941 H   0  0  0  0  0  0
  -85.4290  -10.2639  -22.7519 H   0  0  0  0  0  0
  -86.8993  -10.9164  -23.5513 H   0  0  0  0  0  0
  -85.2964  -12.5997  -24.1606 H   0  0  0  0  0  0
  -83.9587  -11.4069  -24.2799 H   0  0  0  0  0  0
  -83.3496  -10.1922  -26.3796 H   0  0  0  0  0  0
  -83.0863   -7.6295  -27.7693 H   0  0  0  0  0  0
  -81.2419   -9.9746  -27.1863 H   0  0  0  0  0  0
  -80.7040   -8.7823  -28.4174 H   0  0  0  0  0  0
  -81.2419   -8.3365  -25.4667 H   0  0  0  0  0  0
  -79.7079   -8.1420  -26.3809 H   0  0  0  0  0  0
  -79.5533   -4.4927  -26.4709 H   0  0  0  0  0  0
  -78.8238   -5.9977  -27.1264 H   0  0  0  0  0  0
  -79.1658   -5.8570  -25.3685 H   0  0  0  0  0  0
  -84.0792  -10.7115  -28.8451 H   0  0  0  0  0  0
  -82.6478  -10.7577  -31.3275 H   0  0  0  0  0  0
  -83.8375  -12.7411  -30.3038 H   0  0  0  0  0  0
  -85.4047  -12.0403  -30.8323 H   0  0  0  0  0  0
  -82.0542  -12.9743  -32.3122 H   0  0  0  0  0  0
  -86.3132  -12.8196  -32.7883 H   0  0  0  0  0  0
  -81.8492  -14.1456  -34.4785 H   0  0  0  0  0  0
  -86.1169  -13.9902  -34.9572 H   0  0  0  0  0  0
  -86.1039  -12.9297  -36.7613 H   0  0  0  0  0  0
  -83.1419  -15.8224  -38.5260 H   0  0  0  0  0  0
  -86.1119   -9.7986  -30.8461 H   0  0  0  0  0  0
  -86.2637   -9.1099  -33.6935 H   0  0  0  0  0  0
  -88.2581   -9.7535  -32.2935 H   0  0  0  0  0  0
  -88.5335   -8.2033  -33.1580 H   0  0  0  0  0  0
  -88.1220   -8.1957  -31.4095 H   0  0  0  0  0  0
  -84.3657   -7.6097  -31.6078 H   0  0  0  0  0  0
  -85.0764   -4.8732  -32.7465 H   0  0  0  0  0  0
  -83.2644   -5.7169  -30.4205 H   0  0  0  0  0  0
  -83.3173   -4.0353  -31.0499 H   0  0  0  0  0  0
  -85.5026   -3.6941  -30.3016 H   0  0  0  0  0  0
  -85.8300   -5.4530  -30.1413 H   0  0  0  0  0  0
  -83.9306   -5.4192  -28.3593 H   0  0  0  0  0  0
  -84.1785   -3.6401  -28.3550 H   0  0  0  0  0  0
  -86.8137   -4.6503  -28.0426 H   0  0  0  0  0  0
  -83.5880   -5.1426  -26.4006 H   0  0  0  0  0  0
  -84.4359   -5.4891  -24.7300 H   0  0  0  0  0  0
  -87.7801   -5.0474  -26.0903 H   0  0  0  0  0  0
  -81.2689   -4.6546  -33.7379 H   0  0  0  0  0  0
  1  2  1  0  0  0
  1 82  1  0  0  0
  1 83  1  0  0  0
  1 84  1  0  0  0
  2  3  1  0  0  0
  2  5  1  0  0  0
  2 85  1  0  0  0
  3  4  2  0  0  0
  3  9  1  0  0  0
  5  6  1  0  0  0
  5 86  1  0  0  0
  5 87  1  0  0  0
  6  7  1  0  0  0
  6  8  1  0  0  0
  6 88  1  0  0  0
  7 89  1  0  0  0
  7 90  1  0  0  0
  7 91  1  0  0  0
  8 92  1  0  0  0
  8 93  1  0  0  0
  8 94  1  0  0  0
  9 10  1  0  0  0
  9 95  1  0  0  0
 10 11  1  0  0  0
 10 13  1  0  0  0
 10 96  1  0  0  0
 11 12  2  0  0  0
 11 19  1  0  0  0
 13 14  1  0  0  0
 13 97  1  0  0  0
 13 98  1  0  0  0
 14 15  2  0  0  0
 14 16  1  0  0  0
 15 17  1  0  0  0
 16 18  2  0  0  0
 16 99  1  0  0  0
 17 18  1  0  0  0
 17100  1  0  0  0
 19 20  1  0  0  0
 19 25  1  0  0  0
 20 21  1  0  0  0
 20 23  1  0  0  0
 20101  1  0  0  0
 21 22  2  0  0  0
 21 26  1  0  0  0
 23 24  1  0  0  0
 23102  1  0  0  0
 23103  1  0  0  0
 24 25  1  0  0  0
 24104  1  0  0  0
 24105  1  0  0  0
 25106  1  0  0  0
 25107  1  0  0  0
 26 27  1  0  0  0
 26108  1  0  0  0
 27 28  1  0  0  0
 27 30  1  0  0  0
 27109  1  0  0  0
 28 29  2  0  0  0
 28 34  1  0  0  0
 30 31  1  0  0  0
 30110  1  0  0  0
 30111  1  0  0  0
 31 32  2  0  0  0
 31 33  1  0  0  0
 33112  1  0  0  0
 33113  1  0  0  0
 34 35  1  0  0  0
 34 40  1  0  0  0
 35 36  1  0  0  0
 35 38  1  0  0  0
 35114  1  0  0  0
 36 37  2  0  0  0
 36 41  1  0  0  0
 38 39  1  0  0  0
 38115  1  0  0  0
 38116  1  0  0  0
 39 40  1  0  0  0
 39117  1  0  0  0
 39118  1  0  0  0
 40119  1  0  0  0
 40120  1  0  0  0
 41 42  1  0  0  0
 41121  1  0  0  0
 42 43  1  0  0  0
 42 45  1  0  0  0
 42122  1  0  0  0
 43 44  2  0  0  0
 43 49  1  0  0  0
 45 46  1  0  0  0
 45123  1  0  0  0
 45124  1  0  0  0
 46 47  1  0  0  0
 46125  1  0  0  0
 46126  1  0  0  0
 47 48  1  0  0  0
 48127  1  0  0  0
 48128  1  0  0  0
 48129  1  0  0  0
 49 50  1  0  0  0
 49130  1  0  0  0
 50 51  1  0  0  0
 50 53  1  0  0  0
 50131  1  0  0  0
 51 52  2  0  0  0
 51 65  1  0  0  0
 53 54  1  0  0  0
 53132  1  0  0  0
 53133  1  0  0  0
 54 55  2  0  0  0
 54 56  1  0  0  0
 55 57  1  0  0  0
 55134  1  0  0  0
 56 58  2  0  0  0
 56135  1  0  0  0
 57 59  2  0  0  0
 57136  1  0  0  0
 58 59  1  0  0  0
 58137  1  0  0  0
 59 60  1  0  0  0
 60 61  1  0  0  0
 61 62  2  0  0  0
 61 63  1  0  0  0
 61 64  1  0  0  0
 63138  1  0  0  0
 64139  1  0  0  0
 65 66  1  0  0  0
 65140  1  0  0  0
 66 67  1  0  0  0
 66 69  1  0  0  0
 66141  1  0  0  0
 67 68  2  0  0  0
 67 70  1  0  0  0
 69142  1  0  0  0
 69143  1  0  0  0
 69144  1  0  0  0
 70 71  1  0  0  0
 70145  1  0  0  0
 71 72  1  0  0  0
 71 74  1  0  0  0
 71146  1  0  0  0
 72 73  2  0  0  0
 72 81  1  0  0  0
 74 75  1  0  0  0
 74147  1  0  0  0
 74148  1  0  0  0
 75 76  1  0  0  0
 75149  1  0  0  0
 75150  1  0  0  0
 76 77  1  0  0  0
 76151  1  0  0  0
 76152  1  0  0  0
 77 78  1  0  0  0
 77153  1  0  0  0
 78 79  1  0  0  0
 78 80  2  0  0  0
 79154  1  0  0  0
 79155  1  0  0  0
 80156  1  0  0  0
 81157  1  0  0  0
M  CHG  1   1   1
M  END
> <s_m_source_file>
../3ml4_ligand.sdf

> <i_m_source_file_index>
1

> <s_epik_input>
W0NIM11bQ0hdKFtDSDNdKVtDSDJdW0NASF0oW05IMytdKUMoPU8pW05IXVtDQEBIXShbQ0gyXUMxPU5bQ0gyXU49W0NIXTEpQyg9TylOMltDQEBIXShbQ0gyXVtDSDJdW0NIMl0yKUMoPU8pW05IXVtDQEBIXShbQ0gyXUMoPU8pW05IMl0pQyg9TylOM1tDQEBIXShbQ0gyXVtDSDJdW0NIMl0zKUMoPU8pW05IXVtDQEBIXShbQ0gyXVtDSDJdU1tDSDNdKUMoPU8pW05IXVtDQEBIXShbQ0gyXWM0W2NIXVtjSF1jKFtjSF1bY0hdNClPUCg9TykoW09IXSlbT0hdKUMoPU8pW05IXVtDQEBIXShbQ0gzXSlDKD1PKVtOSF1bQ0BIXShDKD1PKVtPSF0pW0NIMl1bQ0gyXVtDSDJdW05IXS9DKFtOSDJdKT1OXFtIXQ==

> <s_epik_cmdline>
J2VwaWtfYXBwJywgJy1pbWFlJywgJ2xpZ2FuZF9wcm8ubWFlJywgJy1vbWFlJywgJ2xpZ2FuZF9wcmVwLm1hZScsICctbXMnLCAnMScsICctcGgnLCAnNycsICctcGh0JywgJzAuNScsICctbnQn

> <s_epik_pKa_notes>
Molecule size exceeds maximum supported for generating protonation states

> <s_epik_Chemistry_Notes>
This compound has an imine and may undergo hydrolysis.

$$$$
