3mle_ligand
                    3D
 Schrodinger Suite 2020-3.
 39 41  0  0  1  0            999 V2000
  -10.7210   18.9350  -39.8610 P   0  0  0  0  0  0
  -11.0550   17.7110  -38.9840 O   0  0  0  0  0  0
  -11.8550   19.9930  -39.7280 O   0  5  0  0  0  0
   -9.2580   19.4590  -39.6890 O   0  5  0  0  0  0
  -11.4400   19.4190  -42.5160 P   0  0  2  0  0  0
  -11.1200   20.8480  -42.0320 O   0  0  0  0  0  0
  -12.8930   19.0930  -42.9660 O   0  5  0  0  0  0
  -10.8480   18.4460  -41.3740 O   0  0  0  0  0  0
  -10.3150   18.9910  -43.6310 O   0  0  0  0  0  0
  -10.3090   17.7980  -44.4350 C   0  0  0  0  0  0
  -10.0420   18.1440  -45.9170 C   0  0  1  0  0  0
  -10.6150   17.1430  -46.7660 O   0  0  0  0  0  0
  -10.6330   19.4620  -46.4370 C   0  0  1  0  0  0
   -9.7530   20.0190  -47.4280 O   0  0  0  0  0  0
  -11.9820   19.1030  -47.0510 C   0  0  1  0  0  0
  -12.4070   19.9310  -48.1660 O   0  0  0  0  0  0
  -11.7790   17.6410  -47.4490 C   0  0  2  0  0  0
  -12.9540   16.8060  -47.0790 N   0  0  0  0  0  0
  -13.4860   16.6830  -45.8390 C   0  0  0  0  0  0
  -14.5510   15.8310  -45.8510 N   0  0  0  0  0  0
  -14.7090   15.3890  -47.1200 C   0  0  0  0  0  0
  -15.6360   14.4740  -47.8320 C   0  0  0  0  0  0
  -16.6220   13.8540  -47.1510 N   0  0  0  0  0  0
  -15.4590   14.2890  -49.1730 N   0  0  0  0  0  0
  -14.4620   14.8880  -49.8650 C   0  0  0  0  0  0
  -13.5850   15.7440  -49.2810 N   0  0  0  0  0  0
  -13.6510   16.0320  -47.9380 C   0  0  0  0  0  0
   -9.5194   17.1199  -44.0790 H   0  0  0  0  0  0
  -11.2853   17.2975  -44.3557 H   0  0  0  0  0  0
   -8.9456   18.1662  -46.0036 H   0  0  0  0  0  0
  -10.7188   20.2497  -45.6740 H   0  0  0  0  0  0
   -8.7364   20.3318  -47.1474 H   0  0  0  0  0  0
  -12.8267   19.3091  -46.3772 H   0  0  0  0  0  0
  -12.5890   21.0053  -48.0153 H   0  0  0  0  0  0
  -11.6191   17.5446  -48.5330 H   0  0  0  0  0  0
  -13.1134   17.1955  -44.9521 H   0  0  0  0  0  0
  -16.7363   14.0257  -46.0705 H   0  0  0  0  0  0
  -17.3116   13.1769  -47.6763 H   0  0  0  0  0  0
  -14.3595   14.6755  -50.9292 H   0  0  0  0  0  0
  1  2  2  0  0  0
  1  3  1  0  0  0
  1  4  1  0  0  0
  1  8  1  0  0  0
  5  6  2  0  0  0
  5  7  1  0  0  0
  5  8  1  0  0  0
  5  9  1  0  0  0
  9 10  1  0  0  0
 10 11  1  0  0  0
 10 28  1  0  0  0
 10 29  1  0  0  0
 11 12  1  0  0  0
 11 13  1  0  0  0
 11 30  1  0  0  0
 12 17  1  0  0  0
 13 14  1  0  0  0
 13 15  1  0  0  0
 13 31  1  0  0  0
 14 32  1  0  0  0
 15 16  1  0  0  0
 15 17  1  0  0  0
 15 33  1  0  0  0
 16 34  1  0  0  0
 17 18  1  0  0  0
 17 35  1  0  0  0
 18 19  1  0  0  0
 18 27  1  0  0  0
 19 20  2  0  0  0
 19 36  1  0  0  0
 20 21  1  0  0  0
 21 22  2  0  0  0
 21 27  1  0  0  0
 22 23  1  0  0  0
 22 24  1  0  0  0
 23 37  1  0  0  0
 23 38  1  0  0  0
 24 25  2  0  0  0
 25 26  1  0  0  0
 25 39  1  0  0  0
 26 27  2  0  0  0
M  CHG  3   3  -1   4  -1   7  -1
M  END
> <s_m_source_file>
../3mle_ligand.sdf

> <i_m_source_file_index>
1

> <s_epik_input>
Tz1QKFtPSF0pKFtPSF0pT1tQQF0oPU8pKFtPSF0pT1tDSDJdW0NASF0xT1tDQEhdKFtDQEhdKFtPSF0pW0NAQEhdMVtPSF0pbihbY0hdbjIpYyhjMjMpbltjSF1uYzNbTkgyXQ==

> <s_epik_cmdline>
J2VwaWtfYXBwJywgJy1pbWFlJywgJ2xpZ2FuZF9wcm8ubWFlJywgJy1vbWFlJywgJ2xpZ2FuZF9wcmVwLm1hZScsICctbXMnLCAnMScsICctcGgnLCAnNycsICctcGh0JywgJzAuNScsICctbnQn

> <r_lp_tautomer_probability>
0.999997216410988

> <r_epik_Ionization_Penalty>
  0.1037

> <r_epik_Ionization_Penalty_Charging>
  0.1033

> <r_epik_Ionization_Penalty_Neutral>
  0.0004

> <r_epik_State_Penalty>
  0.0922

> <r_epik_Charging_Adjusted_Penalty>
0.19546844050481

> <i_epik_Tot_Q>
-3

> <i_epik_Tot_abs_Q>
3

> <s_epik_Chemistry_Notes>
This compound contains an acetal/aminal-like group ( X-CH(R)-Y where X, Y are N, S, or O) that may be acid/base labile, releasing an aldehyde.

$$$$
