3mmf_ligand
                    3D
 Schrodinger Suite 2020-3.
 35 36  0  0  1  0            999 V2000
   -5.3320    2.0580   15.7700 C   0  0  0  0  0  0
   -5.4280   -0.5910   16.0780 N   0  0  0  0  0  0
   -7.3950    0.8770   16.6480 O   0  0  0  0  0  0
   -5.9260    0.7330   16.7560 S   0  0  0  0  0  0
   -6.1360    3.0940   15.3830 C   0  0  0  0  0  0
   -5.3620    0.9630   18.0380 O   0  0  0  0  0  0
   -5.6090    4.2180   14.5900 C   0  0  0  0  0  0
   -4.2870    4.1770   14.2510 C   0  0  0  0  0  0
   -3.4210    3.0800   14.6580 C   0  0  0  0  0  0
   -3.9240    2.0480   15.3760 C   0  0  0  0  0  0
   -3.6130    5.1780   13.5450 N   0  0  0  0  0  0
   -4.1860    6.1400   12.7300 C   0  0  0  0  0  0
   -3.3100    6.9740   12.1470 N   0  0  0  0  0  0
   -3.7650    7.9520   11.3660 C   0  0  0  0  0  0
   -2.8540    8.8520   10.7410 N   0  0  0  0  0  0
   -5.0790    8.1110   11.2030 N   0  0  0  0  0  0
   -5.9240    7.2630   11.7920 C   0  0  0  0  0  0
   -7.5810    7.5300   11.6110 Cl  0  0  0  0  0  0
   -5.4980    6.2740   12.5730 N   0  0  0  0  0  0
   -1.4510    8.5490   10.7320 C   0  0  0  0  0  0
   -1.1510    7.7510    9.5020 C   0  0  0  0  0  0
    0.1540    7.2910    9.5320 O   0  0  0  0  0  0
   -5.7766   -1.4556   16.6620 H   0  0  0  0  0  0
   -4.3286   -0.5928   16.0408 H   0  0  0  0  0  0
   -7.1883    3.0881   15.6670 H   0  0  0  0  0  0
   -6.2476    5.0476   14.2866 H   0  0  0  0  0  0
   -2.3660    3.0893   14.3843 H   0  0  0  0  0  0
   -3.2822    1.2137   15.6589 H   0  0  0  0  0  0
   -2.5174    5.2534   13.6086 H   0  0  0  0  0  0
   -3.2205    9.7746   10.2672 H   0  0  0  0  0  0
   -0.8737    9.4853   10.7245 H   0  0  0  0  0  0
   -1.1956    7.9680   11.6304 H   0  0  0  0  0  0
   -1.8333    6.8899    9.4482 H   0  0  0  0  0  0
   -1.2877    8.3833    8.6123 H   0  0  0  0  0  0
    0.5424    6.6840    8.7010 H   0  0  0  0  0  0
  1  4  1  0  0  0
  1  5  2  0  0  0
  1 10  1  0  0  0
  2  4  1  0  0  0
  2 23  1  0  0  0
  2 24  1  0  0  0
  3  4  2  0  0  0
  4  6  2  0  0  0
  5  7  1  0  0  0
  5 25  1  0  0  0
  7  8  2  0  0  0
  7 26  1  0  0  0
  8  9  1  0  0  0
  8 11  1  0  0  0
  9 10  2  0  0  0
  9 27  1  0  0  0
 10 28  1  0  0  0
 11 12  1  0  0  0
 11 29  1  0  0  0
 12 13  2  0  0  0
 12 19  1  0  0  0
 13 14  1  0  0  0
 14 15  1  0  0  0
 14 16  2  0  0  0
 15 20  1  0  0  0
 15 30  1  0  0  0
 16 17  1  0  0  0
 17 18  1  0  0  0
 17 19  2  0  0  0
 20 21  1  0  0  0
 20 31  1  0  0  0
 20 32  1  0  0  0
 21 22  1  0  0  0
 21 33  1  0  0  0
 21 34  1  0  0  0
 22 35  1  0  0  0
M  END
> <s_m_source_file>
../3mmf_ligand.sdf

> <i_m_source_file_index>
1

> <s_epik_input>
W05IMl1TKD1PKSg9TyljMVtjSF1bY0hdYyhbY0hdW2NIXTEpW05IXWMybmMobmMoQ2wpbjIpW05IXVtDSDJdW0NIMl1bT0hd

> <s_epik_cmdline>
J2VwaWtfYXBwJywgJy1pbWFlJywgJ2xpZ2FuZF9wcm8ubWFlJywgJy1vbWFlJywgJ2xpZ2FuZF9wcmVwLm1hZScsICctbXMnLCAnMScsICctcGgnLCAnNycsICctcGh0JywgJzAuNScsICctbnQn

> <r_lp_tautomer_probability>
1

> <r_epik_Ionization_Penalty>
  0.0002

> <r_epik_Ionization_Penalty_Charging>
  0.0000

> <r_epik_Ionization_Penalty_Neutral>
  0.0002

> <r_epik_State_Penalty>
 -0.0000

> <r_epik_Charging_Adjusted_Penalty>
0

> <i_epik_Tot_Q>
0

> <i_epik_Tot_abs_Q>
0

$$$$
