3mnu_ligand
                    3D
 Schrodinger Suite 2020-3.
 39 40  0  0  1  0            999 V2000
   -5.0350    6.8770   12.6790 B   0  0  0  0  0  0
   -4.7000    2.9870   14.6850 C   0  0  0  0  0  0
   -5.2300   -0.6310   16.1300 N   0  0  0  0  0  0
   -6.8580    1.2100   16.0640 O   0  0  0  0  0  0
   -5.4890    0.9080   16.3630 S   0  0  0  0  0  0
   -5.9570    3.6560   14.6490 C   0  0  0  0  0  0
   -4.5210    1.6990   15.2960 N   0  0  0  0  0  0
   -5.0090    1.2590   17.6670 O   0  0  0  0  0  0
   -6.0590    4.9150   14.0080 C   0  0  0  0  0  0
   -3.9810    7.7330   12.5110 O   0  0  0  0  0  0
   -4.9260    5.5080   13.4060 C   0  0  0  0  0  0
   -6.1850    7.3330   12.0990 O   0  0  0  0  0  0
   -3.6890    4.8460   13.4530 C   0  0  0  0  0  0
   -3.5680    3.5940   14.0860 C   0  0  0  0  0  0
   -4.2180    8.4890   11.2640 C   0  0  0  0  0  0
   -5.7900    8.2040   10.9680 C   0  0  0  0  0  0
   -3.2260    7.9560   10.2280 C   0  0  0  0  0  0
   -3.8420    9.9440   11.5550 C   0  0  0  0  0  0
   -6.7050    9.4210   11.0320 C   0  0  0  0  0  0
   -6.1040    7.4340    9.6790 C   0  0  0  0  0  0
   -5.8545   -1.2166   16.8207 H   0  0  0  0  0  0
   -4.1692   -0.8563   16.3142 H   0  0  0  0  0  0
   -6.8338    3.2025   15.1112 H   0  0  0  0  0  0
   -3.5834    1.2353   14.9556 H   0  0  0  0  0  0
   -7.0189    5.4306   13.9788 H   0  0  0  0  0  0
   -2.8133    5.3058   12.9949 H   0  0  0  0  0  0
   -2.6017    3.0906   14.1154 H   0  0  0  0  0  0
   -3.4673    6.9085    9.9943 H   0  0  0  0  0  0
   -2.2051    8.0155   10.6334 H   0  0  0  0  0  0
   -3.2925    8.5608    9.3116 H   0  0  0  0  0  0
   -4.5372   10.3606   12.2988 H   0  0  0  0  0  0
   -3.9030   10.5311   10.6268 H   0  0  0  0  0  0
   -2.8157    9.9858   11.9485 H   0  0  0  0  0  0
   -6.4962    9.9888   11.9507 H   0  0  0  0  0  0
   -7.7543    9.0910   11.0354 H   0  0  0  0  0  0
   -6.5249   10.0616   10.1561 H   0  0  0  0  0  0
   -5.4533    6.5496    9.6125 H   0  0  0  0  0  0
   -5.9272    8.0854    8.8105 H   0  0  0  0  0  0
   -7.1566    7.1149    9.6897 H   0  0  0  0  0  0
  1 10  1  0  0  0
  1 11  1  0  0  0
  1 12  1  0  0  0
  2  6  2  0  0  0
  2  7  1  0  0  0
  2 14  1  0  0  0
  3  5  1  0  0  0
  3 21  1  0  0  0
  3 22  1  0  0  0
  4  5  2  0  0  0
  5  7  1  0  0  0
  5  8  2  0  0  0
  6  9  1  0  0  0
  6 23  1  0  0  0
  7 24  1  0  0  0
  9 11  2  0  0  0
  9 25  1  0  0  0
 10 15  1  0  0  0
 11 13  1  0  0  0
 12 16  1  0  0  0
 13 14  2  0  0  0
 13 26  1  0  0  0
 14 27  1  0  0  0
 15 16  1  0  0  0
 15 17  1  0  0  0
 15 18  1  0  0  0
 16 19  1  0  0  0
 16 20  1  0  0  0
 17 28  1  0  0  0
 17 29  1  0  0  0
 17 30  1  0  0  0
 18 31  1  0  0  0
 18 32  1  0  0  0
 18 33  1  0  0  0
 19 34  1  0  0  0
 19 35  1  0  0  0
 19 36  1  0  0  0
 20 37  1  0  0  0
 20 38  1  0  0  0
 20 39  1  0  0  0
M  END
> <s_m_source_file>
../3mnu_ligand.sdf

> <i_m_source_file_index>
1

> <s_epik_input>
W0NIM11DMShbQ0gzXSlPQihPQzEoW0NIM10pW0NIM10pYyhbY0hdW2NIXTIpW2NIXVtjSF1jMltOSF1TKD1PKSg9TylbTkgyXQ==

> <s_epik_cmdline>
J2VwaWtfYXBwJywgJy1pbWFlJywgJ2xpZ2FuZF9wcm8ubWFlJywgJy1vbWFlJywgJ2xpZ2FuZF9wcmVwLm1hZScsICctbXMnLCAnMScsICctcGgnLCAnNycsICctcGh0JywgJzAuNScsICctbnQn

> <r_epik_Ionization_Penalty>
  0.0567

> <r_epik_Ionization_Penalty_Charging>
  0.0000

> <r_epik_Ionization_Penalty_Neutral>
  0.0567

> <r_epik_State_Penalty>
  0.0457

> <r_epik_Charging_Adjusted_Penalty>
0.0456970481793132

> <i_epik_Tot_Q>
0

> <i_epik_Tot_abs_Q>
0

$$$$
