3mo0_ligand
                    3D
 Schrodinger Suite 2020-3.
 76 79  0  0  1  0            999 V2000
  -20.1470   -8.2050   25.6820 N   0  0  0  0  0  0
  -19.1590   -9.0950   25.8610 C   0  0  0  0  0  0
  -18.1410   -9.1720   24.9910 N   0  3  0  0  0  0
  -18.0900   -8.3680   23.9200 C   0  0  0  0  0  0
  -19.1060   -7.4430   23.7080 C   0  0  0  0  0  0
  -20.1460   -7.3750   24.6290 C   0  0  0  0  0  0
  -17.0340   -8.4560   23.0180 C   0  0  0  0  0  0
  -17.0000   -7.6240   21.9030 C   0  0  0  0  0  0
  -18.0240   -6.7080   21.6860 C   0  0  0  0  0  0
  -19.0760   -6.6140   22.5930 C   0  0  0  0  0  0
  -18.0110   -5.9640   20.5470 O   0  0  0  0  0  0
  -15.9540   -7.6590   21.0310 O   0  0  0  0  0  0
  -21.0800   -6.4360   24.4980 N   0  0  0  0  0  0
  -19.1860   -9.9290   26.8970 N   0  0  0  0  0  0
  -20.2800   -9.8900   27.8770 C   0  0  0  0  0  0
  -21.5950  -10.2810   27.2010 C   0  0  0  0  0  0
  -22.7100  -10.4420   28.2360 C   0  0  0  0  0  0
  -22.1600  -10.8740   29.5300 N   0  3  0  0  0  0
  -22.7530  -12.1610   29.9230 C   0  0  0  0  0  0
  -20.6970  -11.0010   29.4540 C   0  0  0  0  0  0
  -22.1340   -6.2630   25.5080 C   0  0  2  0  0  0
  -23.5120   -6.5210   24.8930 C   0  0  0  0  0  0
  -24.6220   -6.1990   25.8960 C   0  0  0  0  0  0
  -24.5210   -4.7900   26.3030 N   0  3  2  0  0  0
  -23.2500   -4.5720   27.0110 C   0  0  0  0  0  0
  -22.0850   -4.8340   26.0550 C   0  0  0  0  0  0
  -25.6540   -4.4410   27.1740 C   0  0  0  0  0  0
  -25.6870   -2.9330   27.4320 C   0  0  0  0  0  0
  -25.8680   -2.4520   28.7250 C   0  0  0  0  0  0
  -25.8950   -1.0830   28.9670 C   0  0  0  0  0  0
  -25.7390   -0.1900   27.9130 C   0  0  0  0  0  0
  -25.5580   -0.6690   26.6190 C   0  0  0  0  0  0
  -25.5320   -2.0380   26.3780 C   0  0  0  0  0  0
  -15.3670   -8.9600   20.9410 C   0  0  0  0  0  0
  -18.5990   -4.6760   20.7480 C   0  0  0  0  0  0
  -16.2334   -9.1767   23.1848 H   0  0  0  0  0  0
  -19.8751   -5.8911   22.4288 H   0  0  0  0  0  0
  -21.0533   -5.7826   23.6135 H   0  0  0  0  0  0
  -18.3696  -10.6571   27.0127 H   0  0  0  0  0  0
  -20.0665  -10.5960   28.6931 H   0  0  0  0  0  0
  -20.3697   -8.8729   28.2862 H   0  0  0  0  0  0
  -21.8859   -9.4984   26.4848 H   0  0  0  0  0  0
  -21.4643  -11.2348   26.6689 H   0  0  0  0  0  0
  -23.2255   -9.4799   28.3723 H   0  0  0  0  0  0
  -23.4293  -11.1969   27.8857 H   0  0  0  0  0  0
  -22.4076  -10.1142   30.2859 H   0  0  0  0  0  0
  -23.8469  -12.0591   29.9780 H   0  0  0  0  0  0
  -22.3626  -12.4593   30.9072 H   0  0  0  0  0  0
  -22.4931  -12.9272   29.1778 H   0  0  0  0  0  0
  -20.2599  -10.0354   29.1597 H   0  0  0  0  0  0
  -20.4336  -11.7653   28.7080 H   0  0  0  0  0  0
  -20.3031  -11.2973   30.4374 H   0  0  0  0  0  0
  -21.9316   -6.9975   26.3014 H   0  0  0  0  0  0
  -23.6415   -5.8861   24.0041 H   0  0  0  0  0  0
  -23.5917   -7.5790   24.6027 H   0  0  0  0  0  0
  -25.6016   -6.3762   25.4281 H   0  0  0  0  0  0
  -24.5158   -6.8446   26.7802 H   0  0  0  0  0  0
  -24.5492   -4.1484   25.4099 H   0  0  0  0  0  0
  -23.2040   -3.5334   27.3704 H   0  0  0  0  0  0
  -23.1846   -5.2595   27.8672 H   0  0  0  0  0  0
  -21.1413   -4.6819   26.5994 H   0  0  0  0  0  0
  -22.1462   -4.1197   25.2207 H   0  0  0  0  0  0
  -26.5949   -4.7413   26.6897 H   0  0  0  0  0  0
  -25.5527   -4.9658   28.1354 H   0  0  0  0  0  0
  -25.9892   -3.1516   29.5520 H   0  0  0  0  0  0
  -26.0382   -0.7106   29.9814 H   0  0  0  0  0  0
  -25.7584    0.8837   28.0999 H   0  0  0  0  0  0
  -25.4363    0.0309   25.7923 H   0  0  0  0  0  0
  -25.3902   -2.4102   25.3634 H   0  0  0  0  0  0
  -14.5303   -8.9361   20.2273 H   0  0  0  0  0  0
  -16.1232   -9.6803   20.5956 H   0  0  0  0  0  0
  -14.9961   -9.2641   21.9309 H   0  0  0  0  0  0
  -18.5688   -4.1082   19.8064 H   0  0  0  0  0  0
  -18.0367   -4.1330   21.5219 H   0  0  0  0  0  0
  -19.6438   -4.7962   21.0703 H   0  0  0  0  0  0
  -17.3340   -9.9019   25.1520 H   0  0  0  0  0  0
  1  2  2  0  0  0
  1  6  1  0  0  0
  2  3  1  0  0  0
  2 14  1  0  0  0
  3  4  2  0  0  0
  3 76  1  0  0  0
  4  5  1  0  0  0
  4  7  1  0  0  0
  5  6  2  0  0  0
  5 10  1  0  0  0
  6 13  1  0  0  0
  7  8  2  0  0  0
  7 36  1  0  0  0
  8  9  1  0  0  0
  8 12  1  0  0  0
  9 10  2  0  0  0
  9 11  1  0  0  0
 10 37  1  0  0  0
 11 35  1  0  0  0
 12 34  1  0  0  0
 13 21  1  0  0  0
 13 38  1  0  0  0
 14 15  1  0  0  0
 14 39  1  0  0  0
 15 16  1  0  0  0
 15 40  1  0  0  0
 15 41  1  0  0  0
 16 17  1  0  0  0
 16 42  1  0  0  0
 16 43  1  0  0  0
 17 18  1  0  0  0
 17 44  1  0  0  0
 17 45  1  0  0  0
 18 19  1  0  0  0
 18 20  1  0  0  0
 18 46  1  0  0  0
 19 47  1  0  0  0
 19 48  1  0  0  0
 19 49  1  0  0  0
 20 50  1  0  0  0
 20 51  1  0  0  0
 20 52  1  0  0  0
 21 22  1  0  0  0
 21 26  1  0  0  0
 21 53  1  0  0  0
 22 23  1  0  0  0
 22 54  1  0  0  0
 22 55  1  0  0  0
 23 24  1  0  0  0
 23 56  1  0  0  0
 23 57  1  0  0  0
 24 25  1  0  0  0
 24 27  1  0  0  0
 24 58  1  0  0  0
 25 26  1  0  0  0
 25 59  1  0  0  0
 25 60  1  0  0  0
 26 61  1  0  0  0
 26 62  1  0  0  0
 27 28  1  0  0  0
 27 63  1  0  0  0
 27 64  1  0  0  0
 28 29  2  0  0  0
 28 33  1  0  0  0
 29 30  1  0  0  0
 29 65  1  0  0  0
 30 31  2  0  0  0
 30 66  1  0  0  0
 31 32  1  0  0  0
 31 67  1  0  0  0
 32 33  2  0  0  0
 32 68  1  0  0  0
 33 69  1  0  0  0
 34 70  1  0  0  0
 34 71  1  0  0  0
 34 72  1  0  0  0
 35 73  1  0  0  0
 35 74  1  0  0  0
 35 75  1  0  0  0
M  CHG  3   3   1  18   1  24   1
M  END
> <s_m_source_file>
../3mo0_ligand.sdf

> <i_m_source_file_index>
1

> <s_epik_input>
W0NIM11bTkgrXShbQ0gzXSlbQ0gyXVtDSDJdW0NIMl1bTkhdYyhuMSluYyhjKGMxMilbY0hdYyhPW0NIM10pYyhbY0hdMilPW0NIM10pW05IXVtDQEBIXTNbQ0gyXVtDSDJdW05ASCtdKFtDSDJdW0NIMl0zKVtDSDJdYzRbY0hdW2NIXVtjSF1bY0hdW2NIXTQ=

> <s_epik_cmdline>
J2VwaWtfYXBwJywgJy1pbWFlJywgJ2xpZ2FuZF9wcm8ubWFlJywgJy1vbWFlJywgJ2xpZ2FuZF9wcmVwLm1hZScsICctbXMnLCAnMScsICctcGgnLCAnNycsICctcGh0JywgJzAuNScsICctbnQn

> <r_lp_tautomer_probability>
1

> <r_epik_Ionization_Penalty>
  0.1671

> <r_epik_Ionization_Penalty_Charging>
  0.1671

> <r_epik_Ionization_Penalty_Neutral>
  0.0000

> <r_epik_State_Penalty>
 -0.0000

> <r_epik_Charging_Adjusted_Penalty>
0.167099190583447

> <i_epik_Tot_Q>
3

> <i_epik_Tot_abs_Q>
3

$$$$
