3mo2_ligand
                    3D
 Schrodinger Suite 2020-3.
 91 94  0  0  1  0            999 V2000
   15.0470   42.3080   37.1920 N   0  0  0  0  0  0
   14.2230   41.4860   37.9290 C   0  0  0  0  0  0
   12.8830   41.5070   37.7480 N   0  3  0  0  0  0
   12.3430   42.3570   36.8240 C   0  0  0  0  0  0
   13.1820   43.2220   36.0540 C   0  0  0  0  0  0
   14.5750   43.1740   36.2590 C   0  0  0  0  0  0
   10.3620   43.2720   35.6520 C   0  0  0  0  0  0
   11.1990   44.1350   34.8930 C   0  0  0  0  0  0
   12.6130   44.1010   35.1020 C   0  0  0  0  0  0
   10.9380   42.3840   36.6190 C   0  0  0  0  0  0
    9.0040   43.3390   35.3980 O   0  0  0  0  0  0
   10.5970   44.9880   33.9690 O   0  0  0  0  0  0
   11.3010   45.2120   32.7370 C   0  0  0  0  0  0
   15.4130   43.9640   35.5430 N   0  0  0  0  0  0
   16.9050   44.0310   35.6250 C   0  0  2  0  0  0
   17.3560   45.4870   35.4850 C   0  0  0  0  0  0
   18.9400   45.5900   35.5430 C   0  0  0  0  0  0
   19.5500   44.7860   34.4280 N   0  3  2  0  0  0
   19.1280   43.3390   34.6100 C   0  0  0  0  0  0
   17.5840   43.2220   34.4980 C   0  0  0  0  0  0
   14.8130   40.6820   38.8140 N   0  0  0  0  0  0
   16.2870   40.8220   38.8470 C   0  0  0  0  0  0
   16.7890   40.6000   40.2550 C   0  0  0  0  0  0
   16.7640   41.8020   41.0410 C   0  0  0  0  0  0
   17.2840   41.3920   42.3650 N   0  3  0  0  0  0
   16.2280   41.3690   43.3990 C   0  0  0  0  0  0
   18.4160   42.2920   42.7070 C   0  0  0  0  0  0
    8.1220   42.8910   36.4370 C   0  0  0  0  0  0
    6.6640   43.0270   35.9960 C   0  0  0  0  0  0
    6.1820   42.1310   34.8540 C   0  0  0  0  0  0
    6.1650   42.7430   33.4510 C   0  0  0  0  0  0
    5.6450   41.6570   32.4870 C   0  0  0  0  0  0
    5.5820   42.1280   31.1110 N   0  3  0  0  0  0
   21.0470   44.9540   34.5450 C   0  0  0  0  0  0
   21.9460   44.2540   33.4730 C   0  0  0  0  0  0
   23.2730   43.8550   33.8800 C   0  0  0  0  0  0
   24.1880   43.2190   32.9920 C   0  0  0  0  0  0
   23.7500   42.9570   31.5770 C   0  0  0  0  0  0
   22.3450   43.3900   31.1760 C   0  0  0  0  0  0
   21.4960   44.0210   32.1280 C   0  0  0  0  0  0
   13.2597   44.7592   34.5218 H   0  0  0  0  0  0
   10.2933   41.7252   37.2007 H   0  0  0  0  0  0
   10.7209   45.8986   32.1029 H   0  0  0  0  0  0
   11.4362   44.2545   32.2127 H   0  0  0  0  0  0
   12.2849   45.6544   32.9521 H   0  0  0  0  0  0
   14.8715   44.6090   34.8353 H   0  0  0  0  0  0
   17.1683   43.6091   36.6062 H   0  0  0  0  0  0
   17.0080   45.8876   34.5214 H   0  0  0  0  0  0
   16.9300   46.0833   36.3053 H   0  0  0  0  0  0
   19.2431   46.6422   35.4377 H   0  0  0  0  0  0
   19.2977   45.2002   36.5074 H   0  0  0  0  0  0
   19.2226   45.1204   33.4325 H   0  0  0  0  0  0
   19.5966   42.7197   33.8310 H   0  0  0  0  0  0
   19.4481   42.9856   35.6013 H   0  0  0  0  0  0
   17.2960   42.1637   34.5817 H   0  0  0  0  0  0
   17.2631   43.6132   33.5213 H   0  0  0  0  0  0
   14.3136   39.9647   39.4819 H   0  0  0  0  0  0
   16.7411   40.0775   38.1766 H   0  0  0  0  0  0
   16.5668   41.8328   38.5155 H   0  0  0  0  0  0
   16.1560   39.8530   40.7564 H   0  0  0  0  0  0
   17.8271   40.2377   40.2213 H   0  0  0  0  0  0
   17.4022   42.5628   40.5679 H   0  0  0  0  0  0
   15.7319   42.1772   41.1045 H   0  0  0  0  0  0
   17.6425   40.3529   42.3230 H   0  0  0  0  0  0
   15.4234   40.6872   43.0862 H   0  0  0  0  0  0
   15.8202   42.3823   43.5291 H   0  0  0  0  0  0
   16.6546   41.0204   44.3511 H   0  0  0  0  0  0
   19.1636   42.2634   41.9006 H   0  0  0  0  0  0
   18.8783   41.9584   43.6477 H   0  0  0  0  0  0
   18.0439   43.3203   42.8258 H   0  0  0  0  0  0
    8.3299   41.8350   36.6644 H   0  0  0  0  0  0
    8.2807   43.4987   37.3401 H   0  0  0  0  0  0
    6.0016   42.7971   36.8436 H   0  0  0  0  0  0
    6.4787   44.0561   35.6545 H   0  0  0  0  0  0
    6.8317   41.2462   34.7829 H   0  0  0  0  0  0
    5.1478   41.8116   35.0500 H   0  0  0  0  0  0
    5.5006   43.6197   33.4414 H   0  0  0  0  0  0
    7.1836   43.0518   33.1733 H   0  0  0  0  0  0
    6.3160   40.7860   32.5197 H   0  0  0  0  0  0
    4.6327   41.3516   32.7904 H   0  0  0  0  0  0
    5.2069   41.3213   30.4641 H   0  0  0  0  0  0
    6.5874   42.4265   30.7792 H   0  0  0  0  0  0
    4.9041   42.9922   31.0499 H   0  0  0  0  0  0
   21.3022   46.0221   34.4813 H   0  0  0  0  0  0
   21.3866   44.5530   35.5114 H   0  0  0  0  0  0
   23.5866   44.0478   34.9059 H   0  0  0  0  0  0
   25.1827   42.9289   33.3303 H   0  0  0  0  0  0
   24.4156   42.4734   30.8620 H   0  0  0  0  0  0
   21.9903   43.2164   30.1600 H   0  0  0  0  0  0
   20.4933   44.3311   31.8339 H   0  0  0  0  0  0
   12.2373   40.8435   38.3420 H   0  0  0  0  0  0
  1  2  2  0  0  0
  1  6  1  0  0  0
  2  3  1  0  0  0
  2 21  1  0  0  0
  3  4  2  0  0  0
  3 91  1  0  0  0
  4  5  1  0  0  0
  4 10  1  0  0  0
  5  6  2  0  0  0
  5  9  1  0  0  0
  6 14  1  0  0  0
  7  8  1  0  0  0
  7 10  2  0  0  0
  7 11  1  0  0  0
  8  9  2  0  0  0
  8 12  1  0  0  0
  9 41  1  0  0  0
 10 42  1  0  0  0
 11 28  1  0  0  0
 12 13  1  0  0  0
 13 43  1  0  0  0
 13 44  1  0  0  0
 13 45  1  0  0  0
 14 15  1  0  0  0
 14 46  1  0  0  0
 15 16  1  0  0  0
 15 20  1  0  0  0
 15 47  1  0  0  0
 16 17  1  0  0  0
 16 48  1  0  0  0
 16 49  1  0  0  0
 17 18  1  0  0  0
 17 50  1  0  0  0
 17 51  1  0  0  0
 18 19  1  0  0  0
 18 34  1  0  0  0
 18 52  1  0  0  0
 19 20  1  0  0  0
 19 53  1  0  0  0
 19 54  1  0  0  0
 20 55  1  0  0  0
 20 56  1  0  0  0
 21 22  1  0  0  0
 21 57  1  0  0  0
 22 23  1  0  0  0
 22 58  1  0  0  0
 22 59  1  0  0  0
 23 24  1  0  0  0
 23 60  1  0  0  0
 23 61  1  0  0  0
 24 25  1  0  0  0
 24 62  1  0  0  0
 24 63  1  0  0  0
 25 26  1  0  0  0
 25 27  1  0  0  0
 25 64  1  0  0  0
 26 65  1  0  0  0
 26 66  1  0  0  0
 26 67  1  0  0  0
 27 68  1  0  0  0
 27 69  1  0  0  0
 27 70  1  0  0  0
 28 29  1  0  0  0
 28 71  1  0  0  0
 28 72  1  0  0  0
 29 30  1  0  0  0
 29 73  1  0  0  0
 29 74  1  0  0  0
 30 31  1  0  0  0
 30 75  1  0  0  0
 30 76  1  0  0  0
 31 32  1  0  0  0
 31 77  1  0  0  0
 31 78  1  0  0  0
 32 33  1  0  0  0
 32 79  1  0  0  0
 32 80  1  0  0  0
 33 81  1  0  0  0
 33 82  1  0  0  0
 33 83  1  0  0  0
 34 35  1  0  0  0
 34 84  1  0  0  0
 34 85  1  0  0  0
 35 36  2  0  0  0
 35 40  1  0  0  0
 36 37  1  0  0  0
 36 86  1  0  0  0
 37 38  2  0  0  0
 37 87  1  0  0  0
 38 39  1  0  0  0
 38 88  1  0  0  0
 39 40  2  0  0  0
 39 89  1  0  0  0
 40 90  1  0  0  0
M  CHG  4   3   1  18   1  25   1  33   1
M  END
> <s_m_source_file>
../3mo2_ligand.sdf

> <i_m_source_file_index>
1

> <s_epik_input>
W05IMytdW0NIMl1bQ0gyXVtDSDJdW0NIMl1bQ0gyXU9jKFtjSF0xKWMoT1tDSDNdKVtjSF1jKGMxMiljKG5jKG4yKVtOSF1bQ0gyXVtDSDJdW0NIMl1bTkgrXShbQ0gzXSlbQ0gzXSlbTkhdW0NAQEhdM1tDSDJdW0NIMl1bTkBIK10oW0NIMl1bQ0gyXTMpW0NIMl1jNFtjSF1bY0hdW2NIXVtjSF1bY0hdNA==

> <s_epik_cmdline>
J2VwaWtfYXBwJywgJy1pbWFlJywgJ2xpZ2FuZF9wcm8ubWFlJywgJy1vbWFlJywgJ2xpZ2FuZF9wcmVwLm1hZScsICctbXMnLCAnMScsICctcGgnLCAnNycsICctcGh0JywgJzAuNScsICctbnQn

> <r_lp_tautomer_probability>
1

> <r_epik_Ionization_Penalty>
  0.1673

> <r_epik_Ionization_Penalty_Charging>
  0.1673

> <r_epik_Ionization_Penalty_Neutral>
  0.0000

> <r_epik_State_Penalty>
 -0.0000

> <r_epik_Charging_Adjusted_Penalty>
0.167269612051663

> <i_epik_Tot_Q>
4

> <i_epik_Tot_abs_Q>
4

$$$$
