3mof_ligand
                    3D
 Schrodinger Suite 2020-3.
  6  5  0  0  1  0            999 V2000
   10.3750    2.8750   46.4510 C   0  0  0  0  0  0
    9.5370    1.9960   45.6140 C   0  0  0  0  0  0
   10.6530    4.0480   46.0740 O   0  5  0  0  0  0
    9.3900    0.7770   45.9560 O   0  5  0  0  0  0
   10.7860    2.3980   47.5410 O   0  0  0  0  0  0
    8.9910    2.4980   44.5930 O   0  0  0  0  0  0
  1  2  1  0  0  0
  1  3  1  0  0  0
  1  5  2  0  0  0
  2  4  1  0  0  0
  2  6  2  0  0  0
M  CHG  2   3  -1   4  -1
M  END
> <s_m_source_file>
../3mof_ligand.sdf

> <i_m_source_file_index>
1

> <s_epik_input>
W09IXUMoPU8pQyg9TylbT0hd

> <s_epik_cmdline>
J2VwaWtfYXBwJywgJy1pbWFlJywgJ2xpZ2FuZF9wcm8ubWFlJywgJy1vbWFlJywgJ2xpZ2FuZF9wcmVwLm1hZScsICctbXMnLCAnMScsICctcGgnLCAnNycsICctcGh0JywgJzAuNScsICctbnQn

> <r_epik_Ionization_Penalty>
  0.0138

> <r_epik_Ionization_Penalty_Charging>
  0.0138

> <r_epik_Ionization_Penalty_Neutral>
  0.0000

> <r_epik_State_Penalty>
  0.0108

> <r_epik_Charging_Adjusted_Penalty>
0.0246500087683109

> <i_epik_Tot_Q>
-2

> <i_epik_Tot_abs_Q>
2

$$$$
