3moh_ligand
                    3D
 Schrodinger Suite 2020-3.
 11 10  0  0  1  0            999 V2000
   21.3040    3.0830    3.8540 P   0  0  0  0  0  0
   22.3850    4.1550    3.3010 O   0  0  0  0  0  0
   20.2350    3.8950    4.5700 O   0  5  0  0  0  0
   22.0490    2.1700    4.7990 O   0  0  0  0  0  0
   20.5980    2.3940    2.6940 O   0  5  0  0  0  0
   21.9540    5.2020    2.4650 C   0  0  0  0  0  0
   22.9050    5.3420    1.3030 C   0  0  0  0  0  0
   22.8420    6.3930    0.6380 O   0  0  0  0  0  0
   23.7240    4.4300    0.9790 O   0  5  0  0  0  0
   20.9451    4.9785    2.0880 H   0  0  0  0  0  0
   21.9322    6.1419    3.0360 H   0  0  0  0  0  0
  1  2  1  0  0  0
  1  3  1  0  0  0
  1  4  2  0  0  0
  1  5  1  0  0  0
  2  6  1  0  0  0
  6  7  1  0  0  0
  6 10  1  0  0  0
  6 11  1  0  0  0
  7  8  2  0  0  0
  7  9  1  0  0  0
M  CHG  3   3  -1   5  -1   9  -1
M  END
> <s_m_source_file>
../3moh_ligand.sdf

> <i_m_source_file_index>
1

> <s_epik_input>
W09IXVAoPU8pKFtPSF0pT1tDSDJdQyg9TylbT0hd

> <s_epik_cmdline>
J2VwaWtfYXBwJywgJy1pbWFlJywgJ2xpZ2FuZF9wcm8ubWFlJywgJy1vbWFlJywgJ2xpZ2FuZF9wcmVwLm1hZScsICctbXMnLCAnMScsICctcGgnLCAnNycsICctcGh0JywgJzAuNScsICctbnQn

> <r_epik_Ionization_Penalty>
  0.1459

> <r_epik_Ionization_Penalty_Charging>
  0.1459

> <r_epik_Ionization_Penalty_Neutral>
  0.0000

> <r_epik_State_Penalty>
  0.1346

> <r_epik_Charging_Adjusted_Penalty>
0.280492608850728

> <i_epik_Tot_Q>
-3

> <i_epik_Tot_abs_Q>
3

$$$$
