3mp1_ligand
                    3D
 Schrodinger Suite 2020-3.
 99 98  0  0  1  0            999 V2000
   -7.7920    7.4200   27.1630 N   0  3  0  0  0  0
   -9.1430    7.9980   26.9040 C   0  0  2  0  0  0
   -9.5450    8.8840   28.0760 C   0  0  0  0  0  0
   -9.0570    8.7060   29.1970 O   0  0  0  0  0  0
  -10.1810    6.8750   26.7120 C   0  0  0  0  0  0
  -10.4270    9.8370   27.8060 N   0  0  0  0  0  0
  -10.9280   10.7580   28.8140 C   0  0  2  0  0  0
  -12.2400   10.1870   29.3300 C   0  0  0  0  0  0
  -13.0850    9.7810   28.5340 O   0  0  0  0  0  0
  -11.1620   12.1280   28.1760 C   0  0  0  0  0  0
   -9.9010   12.9770   28.0200 C   0  0  0  0  0  0
   -9.7950   13.9560   29.1820 C   0  0  0  0  0  0
   -8.7090   14.9170   29.0240 N   0  0  0  0  0  0
   -8.4320   15.8690   29.9120 C   0  0  0  0  0  0
   -9.1650   15.9760   31.0180 N   0  0  0  0  0  0
   -7.4310   16.7170   29.6930 N   0  3  0  0  0  0
  -12.4280   10.1570   30.6500 N   0  0  0  0  0  0
  -13.6630    9.5940   31.2020 C   0  0  2  0  0  0
  -14.5880   10.5570   31.9550 C   0  0  0  0  0  0
  -14.2840   11.7400   32.1480 O   0  0  0  0  0  0
  -13.3660    8.3920   32.1430 C   0  0  2  0  0  0
  -12.7510    8.8590   33.3520 O   0  0  0  0  0  0
  -12.4400    7.3850   31.4530 C   0  0  0  0  0  0
  -15.7280   10.0160   32.3800 N   0  0  0  0  0  0
  -16.7460   10.7670   33.1000 C   0  0  1  0  0  0
  -18.0910   10.0470   32.9540 C   0  0  0  0  0  0
  -19.2730   10.7700   33.5570 C   0  0  0  0  0  0
  -20.3640    9.7910   33.9580 C   0  0  0  0  0  0
  -21.0100    9.0800   32.7590 C   0  0  0  0  0  0
  -21.9520    8.0530   33.2490 N   0  3  0  0  0  0
  -16.4030   10.9280   34.5860 C   0  0  0  0  0  0
  -15.5560   10.2070   35.1270 O   0  0  0  0  0  0
  -22.9660    8.6970   34.1470 C   0  0  0  0  0  0
  -21.1670    7.0340   33.9780 C   0  0  0  0  0  0
  -22.7190    7.2860   32.2430 C   0  0  0  0  0  0
  -17.0860   11.8740   35.2330 N   0  0  0  0  0  0
  -16.9120   12.1900   36.6570 C   0  0  2  0  0  0
  -15.5880   12.9240   36.8890 C   0  0  0  0  0  0
  -15.3320   13.8840   36.1300 O   0  0  0  0  0  0
  -16.9550   10.9140   37.5180 C   0  0  0  0  0  0
  -17.2030   11.1720   39.0070 C   0  0  0  0  0  0
  -16.3410   10.3030   39.9300 C   0  0  0  0  0  0
  -15.8030    9.2660   39.5150 O   0  0  0  0  0  0
  -16.2180   10.7190   41.1980 N   0  0  0  0  0  0
  -14.7932   12.5764   37.8028 O   0  5  0  0  0  0
   -7.0645    8.2341   27.2974 H   0  0  0  0  0  0
   -7.4903    6.7960   26.3089 H   0  0  0  0  0  0
   -7.8252    6.8039   28.0736 H   0  0  0  0  0  0
   -9.0771    8.6014   25.9866 H   0  0  0  0  0  0
   -9.8825    6.2409   25.8642 H   0  0  0  0  0  0
  -11.1672    7.3180   26.5092 H   0  0  0  0  0  0
  -10.2341    6.2646   27.6256 H   0  0  0  0  0  0
  -10.7798    9.9138   26.7669 H   0  0  0  0  0  0
  -10.1835   10.8449   29.6191 H   0  0  0  0  0  0
  -11.5858   11.9962   27.1695 H   0  0  0  0  0  0
  -11.8627   12.7064   28.7960 H   0  0  0  0  0  0
   -9.0169   12.3225   28.0125 H   0  0  0  0  0  0
   -9.9506   13.5370   27.0745 H   0  0  0  0  0  0
  -10.7326   14.5245   29.2691 H   0  0  0  0  0  0
   -9.6151   13.4005   30.1142 H   0  0  0  0  0  0
   -8.0659   14.8785   28.1324 H   0  0  0  0  0  0
   -9.9929   15.2747   31.1991 H   0  0  0  0  0  0
   -8.9429   16.7657   31.7508 H   0  0  0  0  0  0
   -6.8253   16.6286   28.7791 H   0  0  0  0  0  0
  -11.6555   10.5551   31.3244 H   0  0  0  0  0  0
  -14.1638    9.3267   30.2598 H   0  0  0  0  0  0
  -14.2962    7.8970   32.4586 H   0  0  0  0  0  0
  -13.2710    9.5923   33.9859 H   0  0  0  0  0  0
  -12.9126    7.0276   30.5262 H   0  0  0  0  0  0
  -12.2595    6.5328   32.1247 H   0  0  0  0  0  0
  -11.4832    7.8716   31.2127 H   0  0  0  0  0  0
  -15.8823    8.9487   32.1632 H   0  0  0  0  0  0
  -16.7581   11.7612   32.6295 H   0  0  0  0  0  0
  -18.3185    9.9080   31.8868 H   0  0  0  0  0  0
  -18.0372    9.0657   33.4482 H   0  0  0  0  0  0
  -18.9480   11.3215   34.4515 H   0  0  0  0  0  0
  -19.6856   11.4757   32.8210 H   0  0  0  0  0  0
  -19.9390    9.0168   34.6137 H   0  0  0  0  0  0
  -21.1602   10.3286   34.4938 H   0  0  0  0  0  0
  -21.5527    9.8146   32.1460 H   0  0  0  0  0  0
  -20.2277    8.6018   32.1512 H   0  0  0  0  0  0
  -22.4500    9.2849   34.9204 H   0  0  0  0  0  0
  -23.5786    7.9188   34.6257 H   0  0  0  0  0  0
  -23.6131    9.3596   33.5535 H   0  0  0  0  0  0
  -20.5607    7.5242   34.7539 H   0  0  0  0  0  0
  -20.5057    6.5077   33.2739 H   0  0  0  0  0  0
  -21.8506    6.3120   34.4485 H   0  0  0  0  0  0
  -23.3375    7.9755   31.6497 H   0  0  0  0  0  0
  -23.3673    6.5582   32.7530 H   0  0  0  0  0  0
  -22.0224    6.7540   31.5784 H   0  0  0  0  0  0
  -17.8174   12.4331   34.6309 H   0  0  0  0  0  0
  -17.7581   12.8458   36.9100 H   0  0  0  0  0  0
  -17.7652   10.2598   37.1637 H   0  0  0  0  0  0
  -15.9942   10.3845   37.4371 H   0  0  0  0  0  0
  -16.9777   12.2233   39.2395 H   0  0  0  0  0  0
  -18.2560   10.9614   39.2452 H   0  0  0  0  0  0
  -16.7130   11.6460   41.5232 H   0  0  0  0  0  0
  -15.6221   10.1335   41.9136 H   0  0  0  0  0  0
   -7.2089   17.5067   30.4258 H   0  0  0  0  0  0
  1  2  1  0  0  0
  1 46  1  0  0  0
  1 47  1  0  0  0
  1 48  1  0  0  0
  2  3  1  0  0  0
  2  5  1  0  0  0
  2 49  1  0  0  0
  3  4  2  0  0  0
  3  6  1  0  0  0
  5 50  1  0  0  0
  5 51  1  0  0  0
  5 52  1  0  0  0
  6  7  1  0  0  0
  6 53  1  0  0  0
  7  8  1  0  0  0
  7 10  1  0  0  0
  7 54  1  0  0  0
  8  9  2  0  0  0
  8 17  1  0  0  0
 10 11  1  0  0  0
 10 55  1  0  0  0
 10 56  1  0  0  0
 11 12  1  0  0  0
 11 57  1  0  0  0
 11 58  1  0  0  0
 12 13  1  0  0  0
 12 59  1  0  0  0
 12 60  1  0  0  0
 13 14  1  0  0  0
 13 61  1  0  0  0
 14 15  1  0  0  0
 14 16  2  0  0  0
 15 62  1  0  0  0
 15 63  1  0  0  0
 16 64  1  0  0  0
 16 99  1  0  0  0
 17 18  1  0  0  0
 17 65  1  0  0  0
 18 19  1  0  0  0
 18 21  1  0  0  0
 18 66  1  0  0  0
 19 20  2  0  0  0
 19 24  1  0  0  0
 21 22  1  0  0  0
 21 23  1  0  0  0
 21 67  1  0  0  0
 22 68  1  0  0  0
 23 69  1  0  0  0
 23 70  1  0  0  0
 23 71  1  0  0  0
 24 25  1  0  0  0
 24 72  1  0  0  0
 25 26  1  0  0  0
 25 31  1  0  0  0
 25 73  1  0  0  0
 26 27  1  0  0  0
 26 74  1  0  0  0
 26 75  1  0  0  0
 27 28  1  0  0  0
 27 76  1  0  0  0
 27 77  1  0  0  0
 28 29  1  0  0  0
 28 78  1  0  0  0
 28 79  1  0  0  0
 29 30  1  0  0  0
 29 80  1  0  0  0
 29 81  1  0  0  0
 30 33  1  0  0  0
 30 34  1  0  0  0
 30 35  1  0  0  0
 31 32  2  0  0  0
 31 36  1  0  0  0
 33 82  1  0  0  0
 33 83  1  0  0  0
 33 84  1  0  0  0
 34 85  1  0  0  0
 34 86  1  0  0  0
 34 87  1  0  0  0
 35 88  1  0  0  0
 35 89  1  0  0  0
 35 90  1  0  0  0
 36 37  1  0  0  0
 36 91  1  0  0  0
 37 38  1  0  0  0
 37 40  1  0  0  0
 37 92  1  0  0  0
 38 39  2  0  0  0
 38 45  1  0  0  0
 40 41  1  0  0  0
 40 93  1  0  0  0
 40 94  1  0  0  0
 41 42  1  0  0  0
 41 95  1  0  0  0
 41 96  1  0  0  0
 42 43  2  0  0  0
 42 44  1  0  0  0
 44 97  1  0  0  0
 44 98  1  0  0  0
M  CHG  4   1   1  16   1  30   1  45  -1
M  END
> <s_m_source_file>
../3mp1_ligand.sdf

> <i_m_source_file_index>
1

> <s_epik_input>
W0hdL049QyhbTkgyXSlcW05IXVtDSDJdW0NIMl1bQ0gyXVtDQEhdKFtOSF1DKD1PKVtDQEBIXShbTkgzK10pW0NIM10pQyg9TylbTkhdW0NAQEhdKFtDQEhdKFtPSF0pW0NIM10pQyg9TylbTkhdW0NAQEhdKFtDSDJdW0NIMl1bQ0gyXVtDSDJdW04rXShbQ0gzXSkoW0NIM10pW0NIM10pQyg9TylbTkhdW0NASF0oQyg9TylbT0hdKVtDSDJdW0NIMl1DKD1PKVtOSDJd

> <s_epik_cmdline>
J2VwaWtfYXBwJywgJy1pbWFlJywgJ2xpZ2FuZF9wcm8ubWFlJywgJy1vbWFlJywgJ2xpZ2FuZF9wcmVwLm1hZScsICctbXMnLCAnMScsICctcGgnLCAnNycsICctcGh0JywgJzAuNScsICctbnQn

> <r_epik_Ionization_Penalty>
  0.1252

> <r_epik_Ionization_Penalty_Charging>
  0.1252

> <r_epik_Ionization_Penalty_Neutral>
  0.0000

> <r_epik_State_Penalty>
  0.1145

> <r_epik_Charging_Adjusted_Penalty>
0.239713934545836

> <i_epik_Tot_Q>
2

> <i_epik_Tot_abs_Q>
4

> <s_epik_Chemistry_Notes>
This compound has an imine and may undergo hydrolysis.

$$$$
