3mp6_ligand
                    3D
 Schrodinger Suite 2020-3.
 79 78  0  0  1  0            999 V2000
  -42.3320    7.5900  -27.0590 N   0  3  0  0  0  0
  -41.2030    8.4440  -26.5890 C   0  0  2  0  0  0
  -40.8360    9.4780  -27.6450 C   0  0  0  0  0  0
  -41.2310    9.3480  -28.8040 O   0  0  0  0  0  0
  -39.9980    7.5740  -26.2380 C   0  0  0  0  0  0
  -40.1150   10.5180  -27.2400 N   0  0  0  0  0  0
  -39.5390   11.4480  -28.2090 C   0  0  2  0  0  0
  -38.2900   10.7980  -28.7910 C   0  0  0  0  0  0
  -37.4950   10.2110  -28.0520 O   0  0  0  0  0  0
  -39.1890   12.7800  -27.5510 C   0  0  0  0  0  0
  -40.3730   13.5110  -26.9390 C   0  0  0  0  0  0
  -39.9700   14.9290  -26.5730 C   0  0  0  0  0  0
  -41.0900   15.6700  -26.0000 N   0  0  0  0  0  0
  -42.0040   16.3340  -26.7060 C   0  0  0  0  0  0
  -41.9490   16.3710  -28.0350 N   0  0  0  0  0  0
  -42.9800   16.9670  -26.0760 N   0  3  0  0  0  0
  -38.1220   10.8860  -30.1120 N   0  0  0  0  0  0
  -37.0060   10.2190  -30.8080 C   0  0  2  0  0  0
  -36.1080   11.1820  -31.5970 C   0  0  0  0  0  0
  -36.4250   12.3670  -31.7250 O   0  0  0  0  0  0
  -37.5210    9.1400  -31.7760 C   0  0  2  0  0  0
  -38.3700    9.7500  -32.7580 O   0  0  0  0  0  0
  -38.2840    8.0700  -31.0330 C   0  0  0  0  0  0
  -34.8320   10.6130  -32.0340 N   0  0  0  0  0  0
  -33.9210   11.4370  -32.8410 C   0  0  1  0  0  0
  -32.4780   11.1850  -32.3990 C   0  0  0  0  0  0
  -31.7460   10.2880  -33.3990 C   0  0  0  0  0  0
  -30.5740    9.5650  -32.7320 C   0  0  0  0  0  0
  -29.4110    9.3870  -33.7100 C   0  0  0  0  0  0
  -28.6690    8.1640  -33.3730 N   0  3  0  0  0  0
  -29.5740    7.0080  -33.4340 C   0  0  0  0  0  0
  -28.1170    8.2840  -32.0160 C   0  0  0  0  0  0
  -34.0740   11.0700  -34.3190 C   0  0  0  0  0  0
  -35.1420   10.6490  -34.7600 O   0  0  0  0  0  0
  -33.0907   11.2012  -35.0958 O   0  5  0  0  0  0
  -43.1938    8.2264  -27.3088 H   0  0  0  0  0  0
  -42.6149    6.8855  -26.2630 H   0  0  0  0  0  0
  -42.0199    7.0283  -27.9518 H   0  0  0  0  0  0
  -41.5431    8.9737  -25.6869 H   0  0  0  0  0  0
  -40.2880    6.8367  -25.4749 H   0  0  0  0  0  0
  -39.1894    8.2085  -25.8462 H   0  0  0  0  0  0
  -39.6488    7.0502  -27.1400 H   0  0  0  0  0  0
  -39.9534   10.6754  -26.1634 H   0  0  0  0  0  0
  -40.2977   11.6319  -28.9840 H   0  0  0  0  0  0
  -38.4648   12.6096  -26.7408 H   0  0  0  0  0  0
  -38.7490   13.4547  -28.3002 H   0  0  0  0  0  0
  -41.1987   13.5438  -27.6650 H   0  0  0  0  0  0
  -40.7023   12.9815  -26.0328 H   0  0  0  0  0  0
  -39.1561   14.8996  -25.8336 H   0  0  0  0  0  0
  -39.6270   15.4571  -27.4749 H   0  0  0  0  0  0
  -41.2242   15.7071  -24.9088 H   0  0  0  0  0  0
  -41.1409   15.8474  -28.5668 H   0  0  0  0  0  0
  -42.7117   16.9251  -28.6018 H   0  0  0  0  0  0
  -43.0330   16.9416  -24.9776 H   0  0  0  0  0  0
  -38.8502   11.4801  -30.6836 H   0  0  0  0  0  0
  -36.4310    9.7868  -29.9758 H   0  0  0  0  0  0
  -36.6918    8.6721  -32.3270 H   0  0  0  0  0  0
  -37.9804   10.5556  -33.3978 H   0  0  0  0  0  0
  -37.6277    7.6063  -30.2818 H   0  0  0  0  0  0
  -38.6266    7.3035  -31.7437 H   0  0  0  0  0  0
  -39.1536    8.5206  -30.5321 H   0  0  0  0  0  0
  -34.5512    9.5837  -31.7664 H   0  0  0  0  0  0
  -34.1972   12.4886  -32.6741 H   0  0  0  0  0  0
  -31.9434   12.1438  -32.3286 H   0  0  0  0  0  0
  -32.4765   10.6913  -31.4160 H   0  0  0  0  0  0
  -32.4438    9.5363  -33.7964 H   0  0  0  0  0  0
  -31.3577   10.9011  -34.2256 H   0  0  0  0  0  0
  -30.2234   10.1522  -31.8704 H   0  0  0  0  0  0
  -30.9022    8.5724  -32.3901 H   0  0  0  0  0  0
  -29.8027    9.3072  -34.7348 H   0  0  0  0  0  0
  -28.7380   10.2544  -33.6412 H   0  0  0  0  0  0
  -27.8482    8.0238  -34.0918 H   0  0  0  0  0  0
  -29.9868    6.9187  -34.4497 H   0  0  0  0  0  0
  -30.3952    7.1469  -32.7154 H   0  0  0  0  0  0
  -29.0175    6.0931  -33.1826 H   0  0  0  0  0  0
  -27.4396    9.1495  -31.9709 H   0  0  0  0  0  0
  -27.5603    7.3692  -31.7644 H   0  0  0  0  0  0
  -28.9380    8.4231  -31.2972 H   0  0  0  0  0  0
  -43.7386   17.5188  -26.6506 H   0  0  0  0  0  0
  1  2  1  0  0  0
  1 36  1  0  0  0
  1 37  1  0  0  0
  1 38  1  0  0  0
  2  3  1  0  0  0
  2  5  1  0  0  0
  2 39  1  0  0  0
  3  4  2  0  0  0
  3  6  1  0  0  0
  5 40  1  0  0  0
  5 41  1  0  0  0
  5 42  1  0  0  0
  6  7  1  0  0  0
  6 43  1  0  0  0
  7  8  1  0  0  0
  7 10  1  0  0  0
  7 44  1  0  0  0
  8  9  2  0  0  0
  8 17  1  0  0  0
 10 11  1  0  0  0
 10 45  1  0  0  0
 10 46  1  0  0  0
 11 12  1  0  0  0
 11 47  1  0  0  0
 11 48  1  0  0  0
 12 13  1  0  0  0
 12 49  1  0  0  0
 12 50  1  0  0  0
 13 14  1  0  0  0
 13 51  1  0  0  0
 14 15  1  0  0  0
 14 16  2  0  0  0
 15 52  1  0  0  0
 15 53  1  0  0  0
 16 54  1  0  0  0
 16 79  1  0  0  0
 17 18  1  0  0  0
 17 55  1  0  0  0
 18 19  1  0  0  0
 18 21  1  0  0  0
 18 56  1  0  0  0
 19 20  2  0  0  0
 19 24  1  0  0  0
 21 22  1  0  0  0
 21 23  1  0  0  0
 21 57  1  0  0  0
 22 58  1  0  0  0
 23 59  1  0  0  0
 23 60  1  0  0  0
 23 61  1  0  0  0
 24 25  1  0  0  0
 24 62  1  0  0  0
 25 26  1  0  0  0
 25 33  1  0  0  0
 25 63  1  0  0  0
 26 27  1  0  0  0
 26 64  1  0  0  0
 26 65  1  0  0  0
 27 28  1  0  0  0
 27 66  1  0  0  0
 27 67  1  0  0  0
 28 29  1  0  0  0
 28 68  1  0  0  0
 28 69  1  0  0  0
 29 30  1  0  0  0
 29 70  1  0  0  0
 29 71  1  0  0  0
 30 31  1  0  0  0
 30 32  1  0  0  0
 30 72  1  0  0  0
 31 73  1  0  0  0
 31 74  1  0  0  0
 31 75  1  0  0  0
 32 76  1  0  0  0
 32 77  1  0  0  0
 32 78  1  0  0  0
 33 34  2  0  0  0
 33 35  1  0  0  0
M  CHG  4   1   1  16   1  30   1  35  -1
M  END
> <s_m_source_file>
../3mp6_ligand.sdf

> <i_m_source_file_index>
1

> <s_epik_input>
W0hdL049QyhbTkgyXSlcW05IXVtDSDJdW0NIMl1bQ0gyXVtDQEhdKFtOSF1DKD1PKVtDQEBIXShbTkgzK10pW0NIM10pQyg9TylbTkhdW0NAQEhdKFtDQEhdKFtPSF0pW0NIM10pQyg9TylbTkhdW0NASF0oQyg9TylbT0hdKVtDSDJdW0NIMl1bQ0gyXVtDSDJdW05IK10oW0NIM10pW0NIM10=

> <s_epik_cmdline>
J2VwaWtfYXBwJywgJy1pbWFlJywgJ2xpZ2FuZF9wcm8ubWFlJywgJy1vbWFlJywgJ2xpZ2FuZF9wcmVwLm1hZScsICctbXMnLCAnMScsICctcGgnLCAnNycsICctcGh0JywgJzAuNScsICctbnQn

> <r_epik_Ionization_Penalty>
  0.1267

> <r_epik_Ionization_Penalty_Charging>
  0.1267

> <r_epik_Ionization_Penalty_Neutral>
  0.0000

> <r_epik_State_Penalty>
  0.1145

> <r_epik_Charging_Adjusted_Penalty>
0.24124241020112

> <i_epik_Tot_Q>
2

> <i_epik_Tot_abs_Q>
4

> <s_epik_Chemistry_Notes>
This compound has an imine and may undergo hydrolysis.

$$$$
