3mpm_ligand
                    3D
 Schrodinger Suite 2020-3.
 55 59  0  0  1  0            999 V2000
   24.6870    9.6500   51.4490 N   0  0  0  0  0  0
   25.9150    9.3540   50.9360 N   0  0  0  0  0  0
   26.6370   10.3950   50.8150 C   0  0  0  0  0  0
   25.8180   11.5150   51.3210 C   0  0  0  0  0  0
   24.6630   10.9320   51.7140 C   0  0  0  0  0  0
   23.4910   11.5300   52.3120 N   0  0  0  0  0  0
   22.5310   10.7910   52.7290 C   0  0  0  0  0  0
   22.6640    9.3290   52.4820 C   0  0  0  0  0  0
   23.7270    8.8310   51.7920 C   0  0  0  0  0  0
   23.9550    7.5550   51.5150 N   0  0  0  0  0  0
   21.5350    8.4950   53.0140 C   0  0  0  0  0  0
   21.8240    7.8230   54.2230 C   0  0  0  0  0  0
   20.8580    7.0210   54.8150 C   0  0  0  0  0  0
   19.5960    6.9170   54.2090 C   0  0  0  0  0  0
   19.2960    7.6000   53.0050 C   0  0  0  0  0  0
   20.2790    8.3910   52.4020 C   0  0  0  0  0  0
   18.6440    6.1160   54.8220 O   0  0  0  0  0  0
   26.2360   12.9720   51.3990 C   0  0  0  0  0  0
   27.5350   13.3580   51.0020 C   0  0  0  0  0  0
   27.9680   14.6930   51.0920 C   0  0  0  0  0  0
   27.0660   15.6430   51.5830 C   0  0  0  0  0  0
   25.7780   15.2940   51.9940 C   0  0  0  0  0  0
   25.3650   13.9530   51.9010 C   0  0  0  0  0  0
   29.2810   15.1130   50.6720 N   0  0  0  0  0  0
   30.3270   14.0690   50.5900 C   0  0  0  0  0  0
   31.7380   14.6790   50.3250 C   0  0  0  0  0  0
   31.7450   15.5040   49.0860 N   0  3  0  0  0  0
   30.7210   16.5760   49.1240 C   0  0  0  0  0  0
   29.3230   15.9910   49.4720 C   0  0  0  0  0  0
   33.1210   16.0000   48.8020 C   0  0  0  0  0  0
   27.6512   10.4489   50.4193 H   0  0  0  0  0  0
   21.6630   11.2105   53.2376 H   0  0  0  0  0  0
   24.8521    7.2672   50.9473 H   0  0  0  0  0  0
   23.2471    6.7838   51.8528 H   0  0  0  0  0  0
   22.8029    7.9341   54.6895 H   0  0  0  0  0  0
   21.0759    6.4804   55.7361 H   0  0  0  0  0  0
   18.3083    7.5099   52.5528 H   0  0  0  0  0  0
   20.0714    8.9182   51.4708 H   0  0  0  0  0  0
   18.8873    5.5899   55.7569 H   0  0  0  0  0  0
   28.2192   12.6023   50.6161 H   0  0  0  0  0  0
   27.3776   16.6856   51.6465 H   0  0  0  0  0  0
   25.0996   16.0533   52.3830 H   0  0  0  0  0  0
   24.3614   13.6727   52.2209 H   0  0  0  0  0  0
   30.3648   13.5126   51.5381 H   0  0  0  0  0  0
   30.0909   13.3772   49.7680 H   0  0  0  0  0  0
   32.0265   15.3176   51.1729 H   0  0  0  0  0  0
   32.4724   13.8681   50.2102 H   0  0  0  0  0  0
   31.4502   14.8691   48.2375 H   0  0  0  0  0  0
   30.9953   17.3182   49.8882 H   0  0  0  0  0  0
   30.6660   17.0656   48.1405 H   0  0  0  0  0  0
   28.9948   15.4220   48.5897 H   0  0  0  0  0  0
   28.6541   16.8510   49.6233 H   0  0  0  0  0  0
   33.8213   15.1518   48.7899 H   0  0  0  0  0  0
   33.4223   16.7131   49.5835 H   0  0  0  0  0  0
   33.1352   16.5013   47.8230 H   0  0  0  0  0  0
  1  2  1  0  0  0
  1  5  1  0  0  0
  1  9  1  0  0  0
  2  3  2  0  0  0
  3  4  1  0  0  0
  3 31  1  0  0  0
  4  5  2  0  0  0
  4 18  1  0  0  0
  5  6  1  0  0  0
  6  7  2  0  0  0
  7  8  1  0  0  0
  7 32  1  0  0  0
  8  9  2  0  0  0
  8 11  1  0  0  0
  9 10  1  0  0  0
 10 33  1  0  0  0
 10 34  1  0  0  0
 11 12  2  0  0  0
 11 16  1  0  0  0
 12 13  1  0  0  0
 12 35  1  0  0  0
 13 14  2  0  0  0
 13 36  1  0  0  0
 14 15  1  0  0  0
 14 17  1  0  0  0
 15 16  2  0  0  0
 15 37  1  0  0  0
 16 38  1  0  0  0
 17 39  1  0  0  0
 18 19  2  0  0  0
 18 23  1  0  0  0
 19 20  1  0  0  0
 19 40  1  0  0  0
 20 21  2  0  0  0
 20 24  1  0  0  0
 21 22  1  0  0  0
 21 41  1  0  0  0
 22 23  2  0  0  0
 22 42  1  0  0  0
 23 43  1  0  0  0
 24 25  1  0  0  0
 24 29  1  0  0  0
 25 26  1  0  0  0
 25 44  1  0  0  0
 25 45  1  0  0  0
 26 27  1  0  0  0
 26 46  1  0  0  0
 26 47  1  0  0  0
 27 28  1  0  0  0
 27 30  1  0  0  0
 27 48  1  0  0  0
 28 29  1  0  0  0
 28 49  1  0  0  0
 28 50  1  0  0  0
 29 51  1  0  0  0
 29 52  1  0  0  0
 30 53  1  0  0  0
 30 54  1  0  0  0
 30 55  1  0  0  0
M  CHG  1  27   1
M  END
> <s_m_source_file>
../3mpm_ligand.sdf

> <i_m_source_file_index>
1

> <s_epik_input>
W2NIXTFbY0hdYyhbT0hdKVtjSF1bY0hdYzEtYyhjMltOSDJdKVtjSF1uYyhuMjMpYyhbY0hdbjMpLWM0W2NIXWMoW2NIXVtjSF1bY0hdNClONVtDSDJdW0NIMl1bTkgrXShbQ0gzXSlbQ0gyXVtDSDJdNQ==

> <s_epik_cmdline>
J2VwaWtfYXBwJywgJy1pbWFlJywgJ2xpZ2FuZF9wcm8ubWFlJywgJy1vbWFlJywgJ2xpZ2FuZF9wcmVwLm1hZScsICctbXMnLCAnMScsICctcGgnLCAnNycsICctcGh0JywgJzAuNScsICctbnQn

> <r_lp_tautomer_probability>
0.999999999997365

> <r_epik_Ionization_Penalty>
  0.0657

> <r_epik_Ionization_Penalty_Charging>
  0.0647

> <r_epik_Ionization_Penalty_Neutral>
  0.0010

> <r_epik_State_Penalty>
  0.0564

> <r_epik_Charging_Adjusted_Penalty>
0.12117058248246

> <i_epik_Tot_Q>
1

> <i_epik_Tot_abs_Q>
1

$$$$
