3mqf_ligand
                    3D
 Schrodinger Suite 2020-3.
 42 43  0  0  1  0            999 V2000
   33.5430   22.8620   27.9700 C   0  0  1  0  0  0
   36.9070   27.8280   37.4020 F   0  0  0  0  0  0
   34.5280   23.4260   28.8780 N   0  0  0  0  0  0
   32.7620   24.5200   30.4360 S   0  0  0  0  0  0
   33.9090   23.1250   26.5070 C   0  0  2  0  0  0
   35.3310   24.4320   30.6990 N   0  0  0  0  0  0
   34.0940   24.5290   26.2760 O   0  0  0  0  0  0
   32.8130   22.5390   25.5970 C   0  0  2  0  0  0
   35.3520   25.0540   31.8640 N   0  0  0  0  0  0
   33.3420   18.6660   27.2770 O   0  0  0  0  0  0
   32.5270   21.0700   25.9390 C   0  0  2  0  0  0
   31.3220   20.6550   25.2790 O   0  0  0  0  0  0
   32.3640   20.8670   27.4560 C   0  0  2  0  0  0
   33.4810   21.4420   28.1460 O   0  0  0  0  0  0
   32.2540   19.4010   27.8560 C   0  0  0  0  0  0
   33.1740   22.6510   24.2080 O   0  0  0  0  0  0
   34.2430   24.1110   29.9970 C   0  0  0  0  0  0
   36.4780   25.2360   32.4300 C   0  0  0  0  0  0
   36.6080   25.9220   33.7350 C   0  0  0  0  0  0
   37.8220   26.5150   34.1070 C   0  0  0  0  0  0
   37.9410   27.1600   35.3430 C   0  0  0  0  0  0
   36.8380   27.2070   36.2060 C   0  0  0  0  0  0
   35.6320   26.6120   35.8300 C   0  0  0  0  0  0
   35.5110   25.9680   34.6000 C   0  0  0  0  0  0
   32.5775   23.3062   28.2539 H   0  0  0  0  0  0
   35.6012   23.3051   28.6693 H   0  0  0  0  0  0
   34.8919   22.6978   26.2592 H   0  0  0  0  0  0
   34.8454   25.0871   26.8538 H   0  0  0  0  0  0
   31.8986   23.1410   25.7040 H   0  0  0  0  0  0
   33.4317   17.5843   27.4556 H   0  0  0  0  0  0
   33.3368   20.4331   25.5536 H   0  0  0  0  0  0
   31.2429   20.7239   24.1840 H   0  0  0  0  0  0
   31.4595   21.3989   27.7861 H   0  0  0  0  0  0
   31.3001   18.9915   27.4921 H   0  0  0  0  0  0
   32.2955   19.3151   28.9519 H   0  0  0  0  0  0
   33.4151   23.6352   23.7800 H   0  0  0  0  0  0
   36.9542   24.2629   32.6204 H   0  0  0  0  0  0
   37.1245   25.8387   31.7751 H   0  0  0  0  0  0
   38.6763   26.4737   33.4313 H   0  0  0  0  0  0
   38.8847   27.6225   35.6324 H   0  0  0  0  0  0
   34.7770   26.6516   36.5050 H   0  0  0  0  0  0
   34.5673   25.5033   34.3145 H   0  0  0  0  0  0
  1  3  1  0  0  0
  1  5  1  0  0  0
  1 14  1  0  0  0
  1 25  1  0  0  0
  2 22  1  0  0  0
  3 17  1  0  0  0
  3 26  1  0  0  0
  4 17  2  0  0  0
  5  7  1  0  0  0
  5  8  1  0  0  0
  5 27  1  0  0  0
  6  9  2  0  0  0
  6 17  1  0  0  0
  7 28  1  0  0  0
  8 11  1  0  0  0
  8 16  1  0  0  0
  8 29  1  0  0  0
  9 18  1  0  0  0
 10 15  1  0  0  0
 10 30  1  0  0  0
 11 12  1  0  0  0
 11 13  1  0  0  0
 11 31  1  0  0  0
 12 32  1  0  0  0
 13 14  1  0  0  0
 13 15  1  0  0  0
 13 33  1  0  0  0
 15 34  1  0  0  0
 15 35  1  0  0  0
 16 36  1  0  0  0
 18 19  1  0  0  0
 18 37  1  0  0  0
 18 38  1  0  0  0
 19 20  2  0  0  0
 19 24  1  0  0  0
 20 21  1  0  0  0
 20 39  1  0  0  0
 21 22  2  0  0  0
 21 40  1  0  0  0
 22 23  1  0  0  0
 23 24  2  0  0  0
 23 41  1  0  0  0
 24 42  1  0  0  0
M  END
> <s_m_source_file>
../3mqf_ligand.sdf

> <i_m_source_file_index>
1

> <s_epik_input>
W09IXVtDSDJdW0NAQEhdKE8xKVtDQEBIXShbT0hdKVtDQEhdKFtPSF0pW0NAQEhdKFtPSF0pW0NAQEhdMVtOSF1DKD1TKS9OPU4vW0NIMl1jMltjSF1bY0hdYyhGKVtjSF1bY0hdMg==

> <s_epik_cmdline>
J2VwaWtfYXBwJywgJy1pbWFlJywgJ2xpZ2FuZF9wcm8ubWFlJywgJy1vbWFlJywgJ2xpZ2FuZF9wcmVwLm1hZScsICctbXMnLCAnMScsICctcGgnLCAnNycsICctcGh0JywgJzAuNScsICctbnQn

> <r_lp_tautomer_probability>
1

> <r_epik_Ionization_Penalty>
  0.0000

> <r_epik_Ionization_Penalty_Charging>
  0.0000

> <r_epik_Ionization_Penalty_Neutral>
  0.0000

> <r_epik_State_Penalty>
 -0.0000

> <r_epik_Charging_Adjusted_Penalty>
0

> <i_epik_Tot_Q>
0

> <i_epik_Tot_abs_Q>
0

> <s_epik_Chemistry_Notes>
This compound contains an acetal/aminal-like group ( X-CH(R)-Y where X, Y are N, S, or O) that may be acid/base labile, releasing an aldehyde.

$$$$
