3mrt_ligand
                    3D
 Schrodinger Suite 2020-3.
 41 42  0  0  1  0            999 V2000
   19.2170   14.8630   55.6580 C   0  0  1  0  0  0
   18.8880   13.5550   55.1020 N   0  0  0  0  0  0
   18.1140   12.6850   57.5030 S   0  0  0  0  0  0
   20.6140   15.3230   55.1970 C   0  0  2  0  0  0
   18.0670   11.4130   55.1920 N   0  0  0  0  0  0
   21.6480   14.5200   55.7920 O   0  0  0  0  0  0
   20.8240   16.8040   55.5630 C   0  0  1  0  0  0
   18.0890   11.3500   53.9380 N   0  0  0  0  0  0
   22.0730   17.2840   55.0420 O   0  0  0  0  0  0
   19.6710   17.6650   55.0450 C   0  0  2  0  0  0
   17.8320    9.9150   49.0880 N   0  0  0  0  0  0
   19.7940   19.0140   55.4950 O   0  0  0  0  0  0
   18.3450   17.0980   55.5400 C   0  0  2  0  0  0
   18.2270   15.7400   55.1020 O   0  0  0  0  0  0
   17.1460   17.8820   55.0270 C   0  0  0  0  0  0
   15.9760   17.0970   55.2810 O   0  0  0  0  0  0
   18.3720   12.5500   55.8200 C   0  0  0  0  0  0
   17.7870   10.2760   53.3350 C   0  0  0  0  0  0
   17.8100   10.1650   51.8490 C   0  0  0  0  0  0
   18.4340   11.1300   51.0560 C   0  0  0  0  0  0
   18.4300   10.9780   49.6640 C   0  0  0  0  0  0
   17.2280    8.9620   49.8270 C   0  0  0  0  0  0
   17.1990    9.0750   51.2210 C   0  0  0  0  0  0
   19.1625   14.8427   56.7565 H   0  0  0  0  0  0
   19.0621   13.3513   54.0351 H   0  0  0  0  0  0
   20.7303   15.1572   54.1158 H   0  0  0  0  0  0
   21.6571   13.4312   55.6360 H   0  0  0  0  0  0
   20.9125   16.9127   56.6540 H   0  0  0  0  0  0
   23.0122   16.7796   55.3131 H   0  0  0  0  0  0
   19.7085   17.7243   53.9472 H   0  0  0  0  0  0
   20.6890   19.5999   55.2386 H   0  0  0  0  0  0
   18.3382   17.1033   56.6400 H   0  0  0  0  0  0
   17.0843   18.8449   55.5552 H   0  0  0  0  0  0
   17.2603   18.0625   53.9479 H   0  0  0  0  0  0
   14.9855   17.4755   54.9883 H   0  0  0  0  0  0
   18.4714    9.4742   53.6492 H   0  0  0  0  0  0
   16.7533    9.9940   53.5837 H   0  0  0  0  0  0
   18.9186   11.9916   51.5151 H   0  0  0  0  0  0
   18.9157   11.7272   49.0388 H   0  0  0  0  0  0
   16.7633    8.1053   49.3389 H   0  0  0  0  0  0
   16.6995    8.3124   51.8186 H   0  0  0  0  0  0
  1  2  1  0  0  0
  1  4  1  0  0  0
  1 14  1  0  0  0
  1 24  1  0  0  0
  2 17  1  0  0  0
  2 25  1  0  0  0
  3 17  2  0  0  0
  4  6  1  0  0  0
  4  7  1  0  0  0
  4 26  1  0  0  0
  5  8  2  0  0  0
  5 17  1  0  0  0
  6 27  1  0  0  0
  7  9  1  0  0  0
  7 10  1  0  0  0
  7 28  1  0  0  0
  8 18  1  0  0  0
  9 29  1  0  0  0
 10 12  1  0  0  0
 10 13  1  0  0  0
 10 30  1  0  0  0
 11 21  2  0  0  0
 11 22  1  0  0  0
 12 31  1  0  0  0
 13 14  1  0  0  0
 13 15  1  0  0  0
 13 32  1  0  0  0
 15 16  1  0  0  0
 15 33  1  0  0  0
 15 34  1  0  0  0
 16 35  1  0  0  0
 18 19  1  0  0  0
 18 36  1  0  0  0
 18 37  1  0  0  0
 19 20  2  0  0  0
 19 23  1  0  0  0
 20 21  1  0  0  0
 20 38  1  0  0  0
 21 39  1  0  0  0
 22 23  2  0  0  0
 22 40  1  0  0  0
 23 41  1  0  0  0
M  END
> <s_m_source_file>
../3mrt_ligand.sdf

> <i_m_source_file_index>
1

> <s_epik_input>
W09IXVtDSDJdW0NAQEhdKE8xKVtDQEBIXShbT0hdKVtDQEhdKFtPSF0pW0NAQEhdKFtPSF0pW0NAQEhdMVtOSF1DKD1TKS9OPU4vW0NIMl1jMltjSF1bY0hdbltjSF1bY0hdMg==

> <s_epik_cmdline>
J2VwaWtfYXBwJywgJy1pbWFlJywgJ2xpZ2FuZF9wcm8ubWFlJywgJy1vbWFlJywgJ2xpZ2FuZF9wcmVwLm1hZScsICctbXMnLCAnMScsICctcGgnLCAnNycsICctcGh0JywgJzAuNScsICctbnQn

> <r_lp_tautomer_probability>
1

> <r_epik_Ionization_Penalty>
  0.0089

> <r_epik_Ionization_Penalty_Charging>
  0.0000

> <r_epik_Ionization_Penalty_Neutral>
  0.0089

> <r_epik_State_Penalty>
 -0.0000

> <r_epik_Charging_Adjusted_Penalty>
0

> <i_epik_Tot_Q>
0

> <i_epik_Tot_abs_Q>
0

> <s_epik_Chemistry_Notes>
This compound contains an acetal/aminal-like group ( X-CH(R)-Y where X, Y are N, S, or O) that may be acid/base labile, releasing an aldehyde.

$$$$
