3mrv_ligand
                    3D
 Schrodinger Suite 2020-3.
 43 44  0  0  1  0            999 V2000
   19.1840   14.9040   55.8610 C   0  0  1  0  0  0
   18.7750   13.6190   55.2950 N   0  0  0  0  0  0
   18.2150   12.6870   57.7310 S   0  0  0  0  0  0
   20.5850   15.3640   55.3960 C   0  0  2  0  0  0
   17.9290   11.4760   55.3970 N   0  0  0  0  0  0
   21.6350   14.5900   56.0150 O   0  0  0  0  0  0
   20.7750   16.8640   55.7190 C   0  0  1  0  0  0
   17.9580   11.3500   54.1530 N   0  0  0  0  0  0
   22.0410   17.3970   55.2670 O   0  0  0  0  0  0
   19.6060   17.6990   55.1750 C   0  0  2  0  0  0
   19.7280   19.0430   55.6160 O   0  0  0  0  0  0
   18.2950   17.1360   55.7100 C   0  0  2  0  0  0
   18.1960   15.7690   55.3020 O   0  0  0  0  0  0
   17.0570   17.8790   55.2230 C   0  0  0  0  0  0
   15.9180   17.0130   55.3920 O   0  0  0  0  0  0
   18.3040   12.5990   56.0240 C   0  0  0  0  0  0
   18.3600   11.4260   48.8960 O   0  0  0  0  0  0
   17.5810   10.2610   53.6360 C   0  0  0  0  0  0
   17.5330   10.0030   52.1700 C   0  0  0  0  0  0
   18.0210   10.9040   51.2180 C   0  0  0  0  0  0
   17.8950   10.5850   49.8540 C   0  0  0  0  0  0
   17.2750    9.4030   49.4450 C   0  0  0  0  0  0
   16.7750    8.5160   50.3890 C   0  0  0  0  0  0
   16.8920    8.8340   51.7430 C   0  0  0  0  0  0
   19.1812   14.8763   56.9606 H   0  0  0  0  0  0
   18.8459   13.4481   54.2107 H   0  0  0  0  0  0
   20.7079   15.1609   54.3219 H   0  0  0  0  0  0
   21.6590   13.4973   55.8909 H   0  0  0  0  0  0
   20.8520   16.9733   56.8108 H   0  0  0  0  0  0
   22.9811   16.9124   55.5691 H   0  0  0  0  0  0
   19.6205   17.7381   54.0758 H   0  0  0  0  0  0
   20.6116   19.6355   55.3364 H   0  0  0  0  0  0
   18.3150   17.1829   56.8088 H   0  0  0  0  0  0
   16.9248   18.7977   55.8134 H   0  0  0  0  0  0
   17.1798   18.1399   54.1615 H   0  0  0  0  0  0
   14.9157   17.3591   55.0994 H   0  0  0  0  0  0
   18.8540   12.3663   49.1822 H   0  0  0  0  0  0
   18.2311    9.4451   53.9848 H   0  0  0  0  0  0
   16.5421   10.0544   53.9328 H   0  0  0  0  0  0
   18.4909   11.8374   51.5279 H   0  0  0  0  0  0
   17.1833    9.1760   48.3828 H   0  0  0  0  0  0
   16.2988    7.5863   50.0777 H   0  0  0  0  0  0
   16.4739    8.1553   52.4864 H   0  0  0  0  0  0
  1  2  1  0  0  0
  1  4  1  0  0  0
  1 13  1  0  0  0
  1 25  1  0  0  0
  2 16  1  0  0  0
  2 26  1  0  0  0
  3 16  2  0  0  0
  4  6  1  0  0  0
  4  7  1  0  0  0
  4 27  1  0  0  0
  5  8  2  0  0  0
  5 16  1  0  0  0
  6 28  1  0  0  0
  7  9  1  0  0  0
  7 10  1  0  0  0
  7 29  1  0  0  0
  8 18  1  0  0  0
  9 30  1  0  0  0
 10 11  1  0  0  0
 10 12  1  0  0  0
 10 31  1  0  0  0
 11 32  1  0  0  0
 12 13  1  0  0  0
 12 14  1  0  0  0
 12 33  1  0  0  0
 14 15  1  0  0  0
 14 34  1  0  0  0
 14 35  1  0  0  0
 15 36  1  0  0  0
 17 21  1  0  0  0
 17 37  1  0  0  0
 18 19  1  0  0  0
 18 38  1  0  0  0
 18 39  1  0  0  0
 19 20  2  0  0  0
 19 24  1  0  0  0
 20 21  1  0  0  0
 20 40  1  0  0  0
 21 22  2  0  0  0
 22 23  1  0  0  0
 22 41  1  0  0  0
 23 24  2  0  0  0
 23 42  1  0  0  0
 24 43  1  0  0  0
M  END
> <s_m_source_file>
../3mrv_ligand.sdf

> <i_m_source_file_index>
1

> <s_epik_input>
W09IXVtDSDJdW0NAQEhdKE8xKVtDQEBIXShbT0hdKVtDQEhdKFtPSF0pW0NAQEhdKFtPSF0pW0NAQEhdMVtOSF1DKD1TKS9OPU4vW0NIMl1jMltjSF1jKFtPSF0pW2NIXVtjSF1bY0hdMg==

> <s_epik_cmdline>
J2VwaWtfYXBwJywgJy1pbWFlJywgJ2xpZ2FuZF9wcm8ubWFlJywgJy1vbWFlJywgJ2xpZ2FuZF9wcmVwLm1hZScsICctbXMnLCAnMScsICctcGgnLCAnNycsICctcGh0JywgJzAuNScsICctbnQn

> <r_lp_tautomer_probability>
1

> <r_epik_Ionization_Penalty>
  0.0012

> <r_epik_Ionization_Penalty_Charging>
  0.0000

> <r_epik_Ionization_Penalty_Neutral>
  0.0012

> <r_epik_State_Penalty>
 -0.0000

> <r_epik_Charging_Adjusted_Penalty>
0

> <i_epik_Tot_Q>
0

> <i_epik_Tot_abs_Q>
0

> <s_epik_Chemistry_Notes>
This compound contains an acetal/aminal-like group ( X-CH(R)-Y where X, Y are N, S, or O) that may be acid/base labile, releasing an aldehyde.

$$$$
