3mrx_ligand
                    3D
 Schrodinger Suite 2020-3.
 46 47  0  0  1  0            999 V2000
   19.3590   15.2360   56.1620 C   0  0  1  0  0  0
   18.9160   13.9420   55.6700 N   0  0  0  0  0  0
   18.4350   13.1230   58.1600 S   0  0  0  0  0  0
   20.6970   15.5840   55.4940 C   0  0  2  0  0  0
   18.0590   11.8350   55.9170 N   0  0  0  0  0  0
   21.7350   14.7060   55.9440 O   0  0  0  0  0  0
   21.0550   17.0400   55.7940 C   0  0  1  0  0  0
   18.0790   11.7090   54.6820 N   0  0  0  0  0  0
   22.2580   17.4080   55.1060 O   0  0  0  0  0  0
   19.9250   17.9570   55.3320 C   0  0  2  0  0  0
   20.1820   19.3100   55.7230 O   0  0  0  0  0  0
   18.5760   17.5310   55.9030 C   0  0  2  0  0  0
   18.3350   16.1300   55.7160 O   0  0  0  0  0  0
   17.4770   18.2760   55.1650 C   0  0  0  0  0  0
   16.5110   18.6540   56.1410 O   0  0  0  0  0  0
   18.4660   12.9680   56.4690 C   0  0  0  0  0  0
   17.5630    9.6100   48.6660 O   0  0  0  0  0  0
   17.6910   10.6330   54.1800 C   0  0  0  0  0  0
   17.6890   10.4110   52.7220 C   0  0  0  0  0  0
   18.3900   11.2440   51.8430 C   0  0  0  0  0  0
   18.3540   10.9820   50.4760 C   0  0  0  0  0  0
   17.6190    9.8870   50.0030 C   0  0  0  0  0  0
   16.9210    9.0670   50.8860 C   0  0  0  0  0  0
   16.9530    9.3350   52.2470 C   0  0  0  0  0  0
   17.3370    8.2610   48.2620 C   0  0  0  0  0  0
   19.4470   15.2715   57.2579 H   0  0  0  0  0  0
   18.9412   13.7255   54.5918 H   0  0  0  0  0  0
   20.6526   15.4080   54.4091 H   0  0  0  0  0  0
   21.6353   13.6195   55.8044 H   0  0  0  0  0  0
   21.2657   17.1664   56.8662 H   0  0  0  0  0  0
   23.1926   16.8619   55.3018 H   0  0  0  0  0  0
   19.8957   17.9493   54.2324 H   0  0  0  0  0  0
   21.1122   19.8061   55.4088 H   0  0  0  0  0  0
   18.5695   17.6982   56.9902 H   0  0  0  0  0  0
   17.9023   19.1626   54.6720 H   0  0  0  0  0  0
   17.0301   17.6146   54.4082 H   0  0  0  0  0  0
   15.6125   19.2118   55.8383 H   0  0  0  0  0  0
   18.3142    9.8077   54.5549 H   0  0  0  0  0  0
   16.6417   10.4558   54.4585 H   0  0  0  0  0  0
   18.9596   12.0911   52.2253 H   0  0  0  0  0  0
   18.8934   11.6237   49.7793 H   0  0  0  0  0  0
   16.3514    8.2175   50.5092 H   0  0  0  0  0  0
   16.4011    8.7016   52.9415 H   0  0  0  0  0  0
   17.3194    8.2053   47.1636 H   0  0  0  0  0  0
   16.3725    7.9151   48.6622 H   0  0  0  0  0  0
   18.1448    7.6222   48.6487 H   0  0  0  0  0  0
  1  2  1  0  0  0
  1  4  1  0  0  0
  1 13  1  0  0  0
  1 26  1  0  0  0
  2 16  1  0  0  0
  2 27  1  0  0  0
  3 16  2  0  0  0
  4  6  1  0  0  0
  4  7  1  0  0  0
  4 28  1  0  0  0
  5  8  2  0  0  0
  5 16  1  0  0  0
  6 29  1  0  0  0
  7  9  1  0  0  0
  7 10  1  0  0  0
  7 30  1  0  0  0
  8 18  1  0  0  0
  9 31  1  0  0  0
 10 11  1  0  0  0
 10 12  1  0  0  0
 10 32  1  0  0  0
 11 33  1  0  0  0
 12 13  1  0  0  0
 12 14  1  0  0  0
 12 34  1  0  0  0
 14 15  1  0  0  0
 14 35  1  0  0  0
 14 36  1  0  0  0
 15 37  1  0  0  0
 17 22  1  0  0  0
 17 25  1  0  0  0
 18 19  1  0  0  0
 18 38  1  0  0  0
 18 39  1  0  0  0
 19 20  2  0  0  0
 19 24  1  0  0  0
 20 21  1  0  0  0
 20 40  1  0  0  0
 21 22  2  0  0  0
 21 41  1  0  0  0
 22 23  1  0  0  0
 23 24  2  0  0  0
 23 42  1  0  0  0
 24 43  1  0  0  0
 25 44  1  0  0  0
 25 45  1  0  0  0
 25 46  1  0  0  0
M  END
> <s_m_source_file>
../3mrx_ligand.sdf

> <i_m_source_file_index>
1

> <s_epik_input>
W09IXVtDSDJdW0NAQEhdKE8xKVtDQEBIXShbT0hdKVtDQEhdKFtPSF0pW0NAQEhdKFtPSF0pW0NAQEhdMVtOSF1DKD1TKS9OPU4vW0NIMl1jMltjSF1bY0hdYyhPW0NIM10pW2NIXVtjSF0y

> <s_epik_cmdline>
J2VwaWtfYXBwJywgJy1pbWFlJywgJ2xpZ2FuZF9wcm8ubWFlJywgJy1vbWFlJywgJ2xpZ2FuZF9wcmVwLm1hZScsICctbXMnLCAnMScsICctcGgnLCAnNycsICctcGh0JywgJzAuNScsICctbnQn

> <r_lp_tautomer_probability>
1

> <r_epik_Ionization_Penalty>
  0.0000

> <r_epik_Ionization_Penalty_Charging>
  0.0000

> <r_epik_Ionization_Penalty_Neutral>
  0.0000

> <r_epik_State_Penalty>
 -0.0000

> <r_epik_Charging_Adjusted_Penalty>
0

> <i_epik_Tot_Q>
0

> <i_epik_Tot_abs_Q>
0

> <s_epik_Chemistry_Notes>
This compound contains an acetal/aminal-like group ( X-CH(R)-Y where X, Y are N, S, or O) that may be acid/base labile, releasing an aldehyde.

$$$$
