3ms2_ligand
                    3D
 Schrodinger Suite 2020-3.
 45 46  0  0  1  0            999 V2000
   19.3350   14.9500   56.0300 C   0  0  1  0  0  0
   18.8510   13.6940   55.4910 N   0  0  0  0  0  0
   18.4110   12.8680   57.9660 S   0  0  0  0  0  0
   20.6050   15.3410   55.2690 C   0  0  2  0  0  0
   17.9330   11.6030   55.6760 N   0  0  0  0  0  0
   21.6850   14.4590   55.5860 O   0  0  0  0  0  0
   20.9460   16.7850   55.6180 C   0  0  1  0  0  0
   17.9240   11.5120   54.4310 N   0  0  0  0  0  0
   22.1210   17.2090   54.9230 O   0  0  0  0  0  0
   19.7860   17.6680   55.1760 C   0  0  2  0  0  0
   20.0570   19.0310   55.4920 O   0  0  0  0  0  0
   18.4500   17.2430   55.7890 C   0  0  2  0  0  0
   18.2440   15.8270   55.7350 O   0  0  0  0  0  0
   17.3240   17.8390   54.9590 C   0  0  0  0  0  0
   16.7780   18.9530   55.6660 O   0  0  0  0  0  0
   18.3920   12.7150   56.2660 C   0  0  0  0  0  0
   17.5070   10.4650   53.8810 C   0  0  0  0  0  0
   17.4810   10.2820   52.4130 C   0  0  0  0  0  0
   18.1800   11.1320   51.5460 C   0  0  0  0  0  0
   18.1250   10.9010   50.1690 C   0  0  0  0  0  0
   17.3800    9.8250   49.6590 C   0  0  0  0  0  0
   16.6870    8.9830   50.5240 C   0  0  0  0  0  0
   16.7410    9.2180   51.8980 C   0  0  0  0  0  0
   17.2990    9.5630   48.1750 C   0  0  0  0  0  0
   19.5416   14.9419   57.1104 H   0  0  0  0  0  0
   18.8548   13.5240   54.4042 H   0  0  0  0  0  0
   20.4901   15.2108   54.1828 H   0  0  0  0  0  0
   21.5898   13.3806   55.3910 H   0  0  0  0  0  0
   21.1808   16.8837   56.6881 H   0  0  0  0  0  0
   23.0789   16.6977   55.0992 H   0  0  0  0  0  0
   19.7100   17.6240   54.0795 H   0  0  0  0  0  0
   20.9809   19.5062   55.1306 H   0  0  0  0  0  0
   18.4472   17.5236   56.8526 H   0  0  0  0  0  0
   17.7200   18.1695   53.9874 H   0  0  0  0  0  0
   16.5451   17.0791   54.7982 H   0  0  0  0  0  0
   15.9459   19.5262   55.2311 H   0  0  0  0  0  0
   18.1129    9.6095   54.2142 H   0  0  0  0  0  0
   16.4553   10.2994   54.1576 H   0  0  0  0  0  0
   18.7609   11.9651   51.9416 H   0  0  0  0  0  0
   18.6631   11.5593   49.4870 H   0  0  0  0  0  0
   16.1074    8.1476   50.1313 H   0  0  0  0  0  0
   16.1978    8.5616   52.5778 H   0  0  0  0  0  0
   17.8981   10.3125   47.6371 H   0  0  0  0  0  0
   16.2508    9.6279   47.8479 H   0  0  0  0  0  0
   17.6891    8.5576   47.9584 H   0  0  0  0  0  0
  1  2  1  0  0  0
  1  4  1  0  0  0
  1 13  1  0  0  0
  1 25  1  0  0  0
  2 16  1  0  0  0
  2 26  1  0  0  0
  3 16  2  0  0  0
  4  6  1  0  0  0
  4  7  1  0  0  0
  4 27  1  0  0  0
  5  8  2  0  0  0
  5 16  1  0  0  0
  6 28  1  0  0  0
  7  9  1  0  0  0
  7 10  1  0  0  0
  7 29  1  0  0  0
  8 17  1  0  0  0
  9 30  1  0  0  0
 10 11  1  0  0  0
 10 12  1  0  0  0
 10 31  1  0  0  0
 11 32  1  0  0  0
 12 13  1  0  0  0
 12 14  1  0  0  0
 12 33  1  0  0  0
 14 15  1  0  0  0
 14 34  1  0  0  0
 14 35  1  0  0  0
 15 36  1  0  0  0
 17 18  1  0  0  0
 17 37  1  0  0  0
 17 38  1  0  0  0
 18 19  2  0  0  0
 18 23  1  0  0  0
 19 20  1  0  0  0
 19 39  1  0  0  0
 20 21  2  0  0  0
 20 40  1  0  0  0
 21 22  1  0  0  0
 21 24  1  0  0  0
 22 23  2  0  0  0
 22 41  1  0  0  0
 23 42  1  0  0  0
 24 43  1  0  0  0
 24 44  1  0  0  0
 24 45  1  0  0  0
M  END
> <s_m_source_file>
../3ms2_ligand.sdf

> <i_m_source_file_index>
1

> <s_epik_input>
W09IXVtDSDJdW0NAQEhdKE8xKVtDQEBIXShbT0hdKVtDQEhdKFtPSF0pW0NAQEhdKFtPSF0pW0NAQEhdMVtOSF1DKD1TKS9OPU4vW0NIMl1jMltjSF1bY0hdYyhbQ0gzXSlbY0hdW2NIXTI=

> <s_epik_cmdline>
J2VwaWtfYXBwJywgJy1pbWFlJywgJ2xpZ2FuZF9wcm8ubWFlJywgJy1vbWFlJywgJ2xpZ2FuZF9wcmVwLm1hZScsICctbXMnLCAnMScsICctcGgnLCAnNycsICctcGh0JywgJzAuNScsICctbnQn

> <r_lp_tautomer_probability>
1

> <r_epik_Ionization_Penalty>
  0.0000

> <r_epik_Ionization_Penalty_Charging>
  0.0000

> <r_epik_Ionization_Penalty_Neutral>
  0.0000

> <r_epik_State_Penalty>
 -0.0000

> <r_epik_Charging_Adjusted_Penalty>
0

> <i_epik_Tot_Q>
0

> <i_epik_Tot_abs_Q>
0

> <s_epik_Chemistry_Notes>
This compound contains an acetal/aminal-like group ( X-CH(R)-Y where X, Y are N, S, or O) that may be acid/base labile, releasing an aldehyde.

$$$$
