3ms4_ligand
                    3D
 Schrodinger Suite 2020-3.
 45 46  0  0  1  0            999 V2000
   19.4790   15.4430   56.7550 C   0  0  1  0  0  0
   17.1570   10.7620   48.5730 F   0  0  0  0  0  0
   18.9460   14.1430   56.3770 N   0  0  0  0  0  0
   18.7300   13.3210   58.7910 S   0  0  0  0  0  0
   20.7910   15.7260   55.9940 C   0  0  2  0  0  0
   16.8830    8.6720   49.0060 F   0  0  0  0  0  0
   17.9850   12.0840   56.7430 N   0  0  0  0  0  0
   21.8220   14.7890   56.3610 O   0  0  0  0  0  0
   21.2320   17.1830   56.2030 C   0  0  1  0  0  0
   18.8500    9.4930   48.9190 F   0  0  0  0  0  0
   18.0440   11.8660   55.4420 N   0  0  0  0  0  0
   22.3600   17.4910   55.3860 O   0  0  0  0  0  0
   20.0900   18.1280   55.8150 C   0  0  2  0  0  0
   20.4820   19.4980   55.9930 O   0  0  0  0  0  0
   18.8320   17.8040   56.6230 C   0  0  2  0  0  0
   18.4830   16.4260   56.4260 O   0  0  0  0  0  0
   17.6270   18.6860   56.2650 C   0  0  0  0  0  0
   17.5420   18.9410   54.8520 O   0  0  0  0  0  0
   18.5530   13.1870   57.2320 C   0  0  0  0  0  0
   17.4640   10.8850   54.9360 C   0  0  0  0  0  0
   17.5270   10.6260   53.4880 C   0  0  0  0  0  0
   18.4130   11.3180   52.6520 C   0  0  0  0  0  0
   18.4460   11.0380   51.2870 C   0  0  0  0  0  0
   17.5880   10.0660   50.7520 C   0  0  0  0  0  0
   16.7040    9.3840   51.5930 C   0  0  0  0  0  0
   16.6730    9.6590   52.9580 C   0  0  0  0  0  0
   17.6100    9.7460   49.2760 C   0  0  0  0  0  0
   19.6398   15.4682   57.8429 H   0  0  0  0  0  0
   18.8392   13.8803   55.3142 H   0  0  0  0  0  0
   20.6623   15.5353   54.9183 H   0  0  0  0  0  0
   21.6432   13.7081   56.2626 H   0  0  0  0  0  0
   21.5658   17.3327   57.2404 H   0  0  0  0  0  0
   23.2954   16.9242   55.5035 H   0  0  0  0  0  0
   19.8739   18.0489   54.7393 H   0  0  0  0  0  0
   21.3715   19.8872   55.4759 H   0  0  0  0  0  0
   19.0637   17.9386   57.6899 H   0  0  0  0  0  0
   16.6995   18.1844   56.5783 H   0  0  0  0  0  0
   17.7137   19.6529   56.7823 H   0  0  0  0  0  0
   16.7253   19.5605   54.4531 H   0  0  0  0  0  0
   17.8589    9.9579   55.3772 H   0  0  0  0  0  0
   16.3843   10.9547   55.1347 H   0  0  0  0  0  0
   19.0766   12.0755   53.0691 H   0  0  0  0  0  0
   19.1374   11.5735   50.6364 H   0  0  0  0  0  0
   16.0339    8.6314   51.1775 H   0  0  0  0  0  0
   15.9843    9.1208   53.6093 H   0  0  0  0  0  0
  1  3  1  0  0  0
  1  5  1  0  0  0
  1 16  1  0  0  0
  1 28  1  0  0  0
  2 27  1  0  0  0
  3 19  1  0  0  0
  3 29  1  0  0  0
  4 19  2  0  0  0
  5  8  1  0  0  0
  5  9  1  0  0  0
  5 30  1  0  0  0
  6 27  1  0  0  0
  7 11  2  0  0  0
  7 19  1  0  0  0
  8 31  1  0  0  0
  9 12  1  0  0  0
  9 13  1  0  0  0
  9 32  1  0  0  0
 10 27  1  0  0  0
 11 20  1  0  0  0
 12 33  1  0  0  0
 13 14  1  0  0  0
 13 15  1  0  0  0
 13 34  1  0  0  0
 14 35  1  0  0  0
 15 16  1  0  0  0
 15 17  1  0  0  0
 15 36  1  0  0  0
 17 18  1  0  0  0
 17 37  1  0  0  0
 17 38  1  0  0  0
 18 39  1  0  0  0
 20 21  1  0  0  0
 20 40  1  0  0  0
 20 41  1  0  0  0
 21 22  2  0  0  0
 21 26  1  0  0  0
 22 23  1  0  0  0
 22 42  1  0  0  0
 23 24  2  0  0  0
 23 43  1  0  0  0
 24 25  1  0  0  0
 24 27  1  0  0  0
 25 26  2  0  0  0
 25 44  1  0  0  0
 26 45  1  0  0  0
M  END
> <s_m_source_file>
../3ms4_ligand.sdf

> <i_m_source_file_index>
1

> <s_epik_input>
W09IXVtDSDJdW0NAQEhdKE8xKVtDQEBIXShbT0hdKVtDQEhdKFtPSF0pW0NAQEhdKFtPSF0pW0NAQEhdMVtOSF1DKD1TKS9OPU4vW0NIMl1jMltjSF1bY0hdYyhDKEYpKEYpRilbY0hdW2NIXTI=

> <s_epik_cmdline>
J2VwaWtfYXBwJywgJy1pbWFlJywgJ2xpZ2FuZF9wcm8ubWFlJywgJy1vbWFlJywgJ2xpZ2FuZF9wcmVwLm1hZScsICctbXMnLCAnMScsICctcGgnLCAnNycsICctcGh0JywgJzAuNScsICctbnQn

> <r_lp_tautomer_probability>
1

> <r_epik_Ionization_Penalty>
  0.0000

> <r_epik_Ionization_Penalty_Charging>
  0.0000

> <r_epik_Ionization_Penalty_Neutral>
  0.0000

> <r_epik_State_Penalty>
 -0.0000

> <r_epik_Charging_Adjusted_Penalty>
0

> <i_epik_Tot_Q>
0

> <i_epik_Tot_abs_Q>
0

> <s_epik_Chemistry_Notes>
This compound contains an acetal/aminal-like group ( X-CH(R)-Y where X, Y are N, S, or O) that may be acid/base labile, releasing an aldehyde.

$$$$
