3ms7_ligand
                    3D
 Schrodinger Suite 2020-3.
 42 43  0  0  1  0            999 V2000
   19.2880   15.0630   56.0290 C   0  0  1  0  0  0
   18.8250   13.7930   55.4700 N   0  0  0  0  0  0
   18.1290   12.8390   57.8680 S   0  0  0  0  0  0
   15.8410    8.4530   52.4250 Cl  0  0  0  0  0  0
   20.7150   15.4200   55.5570 C   0  0  2  0  0  0
   17.8770   11.6780   55.5420 N   0  0  0  0  0  0
   21.7140   14.5490   56.1200 O   0  0  0  0  0  0
   21.0330   16.8970   55.8930 C   0  0  2  0  0  0
   17.9680   11.5900   54.3030 N   0  0  0  0  0  0
   16.2430   17.4800   55.2520 O   0  0  0  0  0  0
   19.9380   17.8380   55.3710 C   0  0  2  0  0  0
   20.1350   19.1730   55.8480 O   0  0  0  0  0  0
   18.5630   17.3680   55.8280 C   0  0  2  0  0  0
   18.3760   16.0000   55.4540 O   0  0  0  0  0  0
   17.4710   18.2090   55.1750 C   0  0  0  0  0  0
   22.2920   17.3170   55.3480 O   0  0  0  0  0  0
   18.2840   12.7840   56.1760 C   0  0  0  0  0  0
   17.5810   10.5640   53.6870 C   0  0  0  0  0  0
   17.7050   10.4870   52.2070 C   0  0  0  0  0  0
   16.9470    9.5440   51.5130 C   0  0  0  0  0  0
   17.0420    9.4390   50.1230 C   0  0  0  0  0  0
   17.8970   10.3030   49.4330 C   0  0  0  0  0  0
   18.6600   11.2540   50.1220 C   0  0  0  0  0  0
   18.5600   11.3530   51.5130 C   0  0  0  0  0  0
   19.2524   15.0466   57.1283 H   0  0  0  0  0  0
   18.9069   13.6054   54.3892 H   0  0  0  0  0  0
   20.8016   15.2240   54.4781 H   0  0  0  0  0  0
   21.6399   13.4611   55.9752 H   0  0  0  0  0  0
   21.1526   16.9871   56.9828 H   0  0  0  0  0  0
   15.3205   17.9110   54.8358 H   0  0  0  0  0  0
   20.0005   17.8952   54.2743 H   0  0  0  0  0  0
   21.0727   19.7035   55.6262 H   0  0  0  0  0  0
   18.4920   17.4101   56.9249 H   0  0  0  0  0  0
   17.7189   18.3993   54.1203 H   0  0  0  0  0  0
   17.3626   19.1669   55.7048 H   0  0  0  0  0  0
   23.2114   16.7690   55.6017 H   0  0  0  0  0  0
   18.1428    9.6883   54.0440 H   0  0  0  0  0  0
   16.5072   10.4100   53.8694 H   0  0  0  0  0  0
   16.4573    8.6935   49.5841 H   0  0  0  0  0  0
   17.9707   10.2359   48.3476 H   0  0  0  0  0  0
   19.3309   11.9161   49.5746 H   0  0  0  0  0  0
   19.1431   12.0986   52.0536 H   0  0  0  0  0  0
  1  2  1  0  0  0
  1  5  1  0  0  0
  1 14  1  0  0  0
  1 25  1  0  0  0
  2 17  1  0  0  0
  2 26  1  0  0  0
  3 17  2  0  0  0
  4 20  1  0  0  0
  5  7  1  0  0  0
  5  8  1  0  0  0
  5 27  1  0  0  0
  6  9  2  0  0  0
  6 17  1  0  0  0
  7 28  1  0  0  0
  8 11  1  0  0  0
  8 16  1  0  0  0
  8 29  1  0  0  0
  9 18  1  0  0  0
 10 15  1  0  0  0
 10 30  1  0  0  0
 11 12  1  0  0  0
 11 13  1  0  0  0
 11 31  1  0  0  0
 12 32  1  0  0  0
 13 14  1  0  0  0
 13 15  1  0  0  0
 13 33  1  0  0  0
 15 34  1  0  0  0
 15 35  1  0  0  0
 16 36  1  0  0  0
 18 19  1  0  0  0
 18 37  1  0  0  0
 18 38  1  0  0  0
 19 20  2  0  0  0
 19 24  1  0  0  0
 20 21  1  0  0  0
 21 22  2  0  0  0
 21 39  1  0  0  0
 22 23  1  0  0  0
 22 40  1  0  0  0
 23 24  2  0  0  0
 23 41  1  0  0  0
 24 42  1  0  0  0
M  END
> <s_m_source_file>
../3ms7_ligand.sdf

> <i_m_source_file_index>
1

> <s_epik_input>
W09IXVtDSDJdW0NAQEhdKE8xKVtDQEBIXShbT0hdKVtDQEhdKFtPSF0pW0NAQEhdKFtPSF0pW0NAQEhdMVtOSF1DKD1TKS9OPU4vW0NIMl1jMmMoQ2wpW2NIXVtjSF1bY0hdW2NIXTI=

> <s_epik_cmdline>
J2VwaWtfYXBwJywgJy1pbWFlJywgJ2xpZ2FuZF9wcm8ubWFlJywgJy1vbWFlJywgJ2xpZ2FuZF9wcmVwLm1hZScsICctbXMnLCAnMScsICctcGgnLCAnNycsICctcGh0JywgJzAuNScsICctbnQn

> <r_lp_tautomer_probability>
1

> <r_epik_Ionization_Penalty>
  0.0000

> <r_epik_Ionization_Penalty_Charging>
  0.0000

> <r_epik_Ionization_Penalty_Neutral>
  0.0000

> <r_epik_State_Penalty>
 -0.0000

> <r_epik_Charging_Adjusted_Penalty>
0

> <i_epik_Tot_Q>
0

> <i_epik_Tot_abs_Q>
0

> <s_epik_Chemistry_Notes>
This compound contains an acetal/aminal-like group ( X-CH(R)-Y where X, Y are N, S, or O) that may be acid/base labile, releasing an aldehyde.

$$$$
