3ms9_ligand
                    3D
 Schrodinger Suite 2020-3.
 20 20  0  0  1  0            999 V2000
    0.7270   59.3390   30.6650 Cl  0  0  0  0  0  0
   -1.0090   59.5870   30.6490 C   0  0  0  0  0  0
   -1.5350   60.7680   31.1300 C   0  0  0  0  0  0
   -2.9460   61.0210   31.1330 C   0  0  0  0  0  0
   -3.8140   59.9850   30.6730 C   0  0  0  0  0  0
   -3.2540   58.7330   30.2470 C   0  0  0  0  0  0
   -1.8400   58.5370   30.1770 C   0  0  0  0  0  0
   -5.3180   60.1280   30.7220 C   0  0  0  0  0  0
   -5.7870   61.2060   31.1880 O   0  0  0  0  0  0
   -6.0540   59.0040   30.3850 O   0  0  0  0  0  0
   -7.4530   59.3670   30.3020 C   0  0  0  0  0  0
   -3.3820   62.2270   31.6190 N   0  0  0  0  0  0
   -0.8591   61.5298   31.5185 H   0  0  0  0  0  0
   -3.9207   57.9159   29.9715 H   0  0  0  0  0  0
   -1.4157   57.6163   29.7764 H   0  0  0  0  0  0
   -8.0466   58.4804   30.0346 H   0  0  0  0  0  0
   -7.5856   60.1425   29.5332 H   0  0  0  0  0  0
   -7.7897   59.7539   31.2751 H   0  0  0  0  0  0
   -2.6542   62.9796   31.9565 H   0  0  0  0  0  0
   -4.4596   62.4418   31.6713 H   0  0  0  0  0  0
  1  2  1  0  0  0
  2  3  2  0  0  0
  2  7  1  0  0  0
  3  4  1  0  0  0
  3 13  1  0  0  0
  4  5  2  0  0  0
  4 12  1  0  0  0
  5  6  1  0  0  0
  5  8  1  0  0  0
  6  7  2  0  0  0
  6 14  1  0  0  0
  7 15  1  0  0  0
  8  9  2  0  0  0
  8 10  1  0  0  0
 10 11  1  0  0  0
 11 16  1  0  0  0
 11 17  1  0  0  0
 11 18  1  0  0  0
 12 19  1  0  0  0
 12 20  1  0  0  0
M  END
> <s_m_source_file>
../3ms9_ligand.sdf

> <i_m_source_file_index>
1

> <s_epik_input>
Q2xjMVtjSF1jKFtOSDJdKWMoW2NIXVtjSF0xKUMoPU8pT1tDSDNd

> <s_epik_cmdline>
J2VwaWtfYXBwJywgJy1pbWFlJywgJ2xpZ2FuZF9wcm8ubWFlJywgJy1vbWFlJywgJ2xpZ2FuZF9wcmVwLm1hZScsICctbXMnLCAnMScsICctcGgnLCAnNycsICctcGh0JywgJzAuNScsICctbnQn

> <r_lp_tautomer_probability>
1

> <r_epik_Ionization_Penalty>
  0.0000

> <r_epik_Ionization_Penalty_Charging>
  0.0000

> <r_epik_Ionization_Penalty_Neutral>
  0.0000

> <r_epik_State_Penalty>
 -0.0000

> <r_epik_Charging_Adjusted_Penalty>
0

> <i_epik_Tot_Q>
0

> <i_epik_Tot_abs_Q>
0

> <s_epik_Chemistry_Notes>
This compound has an ester and may undergo hydrolysis at high or low pH.

$$$$
