3msc_ligand
                    3D
 Schrodinger Suite 2020-3.
 44 45  0  0  1  0            999 V2000
   33.7100   22.9610   27.8900 C   0  0  1  0  0  0
   34.0320   23.1690   26.4020 C   0  0  2  0  0  0
   34.2440   24.5650   26.1430 O   0  0  0  0  0  0
   32.9080   22.5740   25.5240 C   0  0  1  0  0  0
   33.2130   22.6300   24.1190 O   0  0  0  0  0  0
   32.6290   21.1200   25.9320 C   0  0  2  0  0  0
   31.4910   20.6370   25.2130 O   0  0  0  0  0  0
   32.4190   20.9830   27.4570 C   0  0  2  0  0  0
   33.5250   21.5590   28.1530 O   0  0  0  0  0  0
   32.2470   19.5420   27.9380 C   0  0  0  0  0  0
   33.2500   18.6960   27.3600 O   0  0  0  0  0  0
   34.8640   23.3790   28.6770 N   0  0  0  0  0  0
   34.7490   24.0220   29.8450 C   0  0  0  0  0  0
   35.8930   24.3300   30.4740 N   0  0  0  0  0  0
   33.2160   24.4450   30.4870 S   0  0  0  0  0  0
   35.8980   24.9380   31.5600 N   0  0  0  0  0  0
   36.9940   25.2090   32.1240 C   0  0  0  0  0  0
   37.0710   25.9160   33.4310 C   0  0  0  0  0  0
   36.0060   25.9480   34.3540 C   0  0  0  0  0  0
   36.1740   26.6110   35.5780 C   0  0  0  0  0  0
   37.3780   27.2410   35.8900 C   0  0  0  0  0  0
   38.4340   27.1970   34.9760 C   0  0  0  0  0  0
   38.2810   26.5360   33.7560 C   0  0  0  0  0  0
   34.7540   25.3350   34.1070 N   0  3  0  0  0  0
   34.6280   24.1240   34.2130 O   0  0  0  0  0  0
   33.7750   26.0010   33.7950 O   0  5  0  0  0  0
   32.8047   23.5052   28.1971 H   0  0  0  0  0  0
   34.9924   22.7075   26.1288 H   0  0  0  0  0  0
   35.0164   25.1165   26.6992 H   0  0  0  0  0  0
   32.0093   23.2015   25.6170 H   0  0  0  0  0  0
   33.4415   23.5954   23.6438 H   0  0  0  0  0  0
   33.4612   20.4708   25.6222 H   0  0  0  0  0  0
   31.4826   20.6651   24.1134 H   0  0  0  0  0  0
   31.5201   21.5550   27.7304 H   0  0  0  0  0  0
   32.3390   19.5077   29.0336 H   0  0  0  0  0  0
   31.2542   19.1726   27.6417 H   0  0  0  0  0  0
   33.2708   17.6232   27.6021 H   0  0  0  0  0  0
   35.8815   23.1681   28.3160 H   0  0  0  0  0  0
   37.5438   24.2774   32.3237 H   0  0  0  0  0  0
   37.5944   25.8555   31.4671 H   0  0  0  0  0  0
   35.3530   26.6342   36.2946 H   0  0  0  0  0  0
   37.4946   27.7637   36.8394 H   0  0  0  0  0  0
   39.3808   27.6806   35.2165 H   0  0  0  0  0  0
   39.1117   26.5031   33.0511 H   0  0  0  0  0  0
  1  2  1  0  0  0
  1  9  1  0  0  0
  1 12  1  0  0  0
  1 27  1  0  0  0
  2  3  1  0  0  0
  2  4  1  0  0  0
  2 28  1  0  0  0
  3 29  1  0  0  0
  4  5  1  0  0  0
  4  6  1  0  0  0
  4 30  1  0  0  0
  5 31  1  0  0  0
  6  7  1  0  0  0
  6  8  1  0  0  0
  6 32  1  0  0  0
  7 33  1  0  0  0
  8  9  1  0  0  0
  8 10  1  0  0  0
  8 34  1  0  0  0
 10 11  1  0  0  0
 10 35  1  0  0  0
 10 36  1  0  0  0
 11 37  1  0  0  0
 12 13  1  0  0  0
 12 38  1  0  0  0
 13 14  1  0  0  0
 13 15  2  0  0  0
 14 16  2  0  0  0
 16 17  1  0  0  0
 17 18  1  0  0  0
 17 39  1  0  0  0
 17 40  1  0  0  0
 18 19  2  0  0  0
 18 23  1  0  0  0
 19 20  1  0  0  0
 19 24  1  0  0  0
 20 21  2  0  0  0
 20 41  1  0  0  0
 21 22  1  0  0  0
 21 42  1  0  0  0
 22 23  2  0  0  0
 22 43  1  0  0  0
 23 44  1  0  0  0
 24 25  2  0  0  0
 24 26  1  0  0  0
M  CHG  2  24   1  26  -1
M  END
> <s_m_source_file>
../3msc_ligand.sdf

> <i_m_source_file_index>
1

> <s_epik_input>
W09IXVtDSDJdW0NAQEhdKE8xKVtDQEBIXShbT0hdKVtDQEhdKFtPSF0pW0NAQEhdKFtPSF0pW0NAQEhdMVtOSF1DKD1TKS9OPU4vW0NIMl1jMmMoW04rXSg9TylbTy1dKVtjSF1bY0hdW2NIXVtjSF0y

> <s_epik_cmdline>
J2VwaWtfYXBwJywgJy1pbWFlJywgJ2xpZ2FuZF9wcm8ubWFlJywgJy1vbWFlJywgJ2xpZ2FuZF9wcmVwLm1hZScsICctbXMnLCAnMScsICctcGgnLCAnNycsICctcGh0JywgJzAuNScsICctbnQn

> <r_lp_tautomer_probability>
1

> <r_epik_Ionization_Penalty>
  0.0000

> <r_epik_Ionization_Penalty_Charging>
  0.0000

> <r_epik_Ionization_Penalty_Neutral>
  0.0000

> <r_epik_State_Penalty>
 -0.0000

> <r_epik_Charging_Adjusted_Penalty>
0

> <i_epik_Tot_Q>
0

> <i_epik_Tot_abs_Q>
2

> <s_epik_Chemistry_Notes>
This compound contains an acetal/aminal-like group ( X-CH(R)-Y where X, Y are N, S, or O) that may be acid/base labile, releasing an aldehyde.

$$$$
