3msj_ligand
                    3D
 Schrodinger Suite 2020-3.
 27 28  0  0  1  0            999 V2000
  -15.6340  -89.6560   14.0260 C   0  0  0  0  0  0
  -15.8830  -90.8130   14.7710 C   0  0  0  0  0  0
  -16.2310  -89.4610   12.7880 C   0  0  0  0  0  0
  -16.7300  -91.8010   14.2700 C   0  0  0  0  0  0
  -17.0620  -90.4490   12.3160 C   0  0  0  0  0  0
  -17.3080  -91.5930   13.0300 C   0  0  0  0  0  0
  -17.7180  -90.4790   11.1580 N   0  0  0  0  0  0
  -18.3760  -91.6460   11.1740 C   0  0  0  0  0  0
  -18.1390  -92.3430   12.3060 N   0  0  0  0  0  0
  -19.2000  -92.0490   10.1220 N   0  0  0  0  0  0
  -18.6910  -93.6610   12.6910 C   0  0  0  0  0  0
  -20.1930  -93.5820   12.9780 C   0  0  0  0  0  0
  -20.9330  -94.8750   12.6780 C   0  0  0  0  0  0
  -20.4630  -95.9300   13.4960 O   0  0  0  0  0  0
  -14.5810  -88.4500   14.6420 Cl  0  0  0  0  0  0
  -15.4136  -90.9429   15.7462 H   0  0  0  0  0  0
  -16.0471  -88.5554   12.2100 H   0  0  0  0  0  0
  -16.9307  -92.7095   14.8378 H   0  0  0  0  0  0
  -19.3239  -91.4016    9.2414 H   0  0  0  0  0  0
  -19.7255  -93.0140   10.1735 H   0  0  0  0  0  0
  -18.5315  -94.3785   11.8726 H   0  0  0  0  0  0
  -18.1830  -94.0205   13.5980 H   0  0  0  0  0  0
  -20.3514  -93.3496   14.0415 H   0  0  0  0  0  0
  -20.6435  -92.7921   12.3591 H   0  0  0  0  0  0
  -22.0076  -94.7346   12.8663 H   0  0  0  0  0  0
  -20.7783  -95.1500   11.6242 H   0  0  0  0  0  0
  -20.8987  -96.9356   13.4010 H   0  0  0  0  0  0
  1  2  2  0  0  0
  1  3  1  0  0  0
  1 15  1  0  0  0
  2  4  1  0  0  0
  2 16  1  0  0  0
  3  5  2  0  0  0
  3 17  1  0  0  0
  4  6  2  0  0  0
  4 18  1  0  0  0
  5  6  1  0  0  0
  5  7  1  0  0  0
  6  9  1  0  0  0
  7  8  2  0  0  0
  8  9  1  0  0  0
  8 10  1  0  0  0
  9 11  1  0  0  0
 10 19  1  0  0  0
 10 20  1  0  0  0
 11 12  1  0  0  0
 11 21  1  0  0  0
 11 22  1  0  0  0
 12 13  1  0  0  0
 12 23  1  0  0  0
 12 24  1  0  0  0
 13 14  1  0  0  0
 13 25  1  0  0  0
 13 26  1  0  0  0
 14 27  1  0  0  0
M  END
> <s_m_source_file>
../3msj_ligand.sdf

> <i_m_source_file_index>
1

> <s_epik_input>
W2NIXTFjKENsKVtjSF1bY0hdYyhjMTIpbihjKG4yKVtOSDJdKVtDSDJdW0NIMl1bQ0gyXVtPSF0=

> <s_epik_cmdline>
J2VwaWtfYXBwJywgJy1pbWFlJywgJ2xpZ2FuZF9wcm8ubWFlJywgJy1vbWFlJywgJ2xpZ2FuZF9wcmVwLm1hZScsICctbXMnLCAnMScsICctcGgnLCAnNycsICctcGh0JywgJzAuNScsICctbnQn

> <r_epik_Ionization_Penalty>
  0.1247

> <r_epik_Ionization_Penalty_Charging>
  0.0000

> <r_epik_Ionization_Penalty_Neutral>
  0.1247

> <r_epik_State_Penalty>
  0.1141

> <r_epik_Charging_Adjusted_Penalty>
0.114129924743899

> <i_epik_Tot_Q>
0

> <i_epik_Tot_abs_Q>
0

$$$$
