3msk_ligand
                    3D
 Schrodinger Suite 2020-3.
 49 51  0  0  1  0            999 V2000
   16.4360  -40.4020   10.7990 C   0  0  0  0  0  0
   16.1270  -40.0880    9.4680 C   0  0  0  0  0  0
   16.2950  -38.6630    8.9940 C   0  0  0  0  0  0
   16.7320  -37.6900    9.8770 C   0  0  0  0  0  0
   17.0050  -38.0750   11.2060 C   0  0  0  0  0  0
   16.8850  -39.3950   11.6600 C   0  0  0  0  0  0
   17.5870  -36.8000   12.3120 Cl  0  0  0  0  0  0
   15.6600  -40.8290    8.4290 N   0  0  0  0  0  0
   15.5780  -39.9150    7.4020 C   0  0  0  0  0  0
   15.9450  -38.6290    7.6980 N   0  0  0  0  0  0
   15.1920  -40.2020    6.1240 N   0  0  0  0  0  0
   15.3910  -42.2880    8.4970 C   0  0  0  0  0  0
   16.5360  -43.0620    7.8420 C   0  0  0  0  0  0
   17.8880  -42.3610    7.8490 C   0  0  0  0  0  0
   18.5540  -42.6200    9.2120 C   0  0  0  0  0  0
   18.2180  -43.6410    9.8190 O   0  0  0  0  0  0
   19.4970  -41.7650    9.7100 N   0  0  0  0  0  0
   20.1760  -41.9210   11.0060 C   0  0  0  0  0  0
   19.8440  -40.5630    8.9470 C   0  0  0  0  0  0
   21.0020  -39.8530    9.6330 C   0  0  0  0  0  0
   21.1580  -38.5200    8.9190 C   0  0  0  0  0  0
   21.2570  -38.6860    7.4070 C   0  0  0  0  0  0
   20.2680  -39.6870    6.7830 C   0  0  0  0  0  0
   20.3040  -40.9910    7.5620 C   0  0  0  0  0  0
   16.3271  -41.4245   11.1607 H   0  0  0  0  0  0
   16.8612  -36.6569    9.5544 H   0  0  0  0  0  0
   17.1431  -39.6389   12.6905 H   0  0  0  0  0  0
   14.8919  -41.2260    5.8569 H   0  0  0  0  0  0
   15.1812  -39.4092    5.3616 H   0  0  0  0  0  0
   15.3016  -42.5957    9.5493 H   0  0  0  0  0  0
   14.4530  -42.5130    7.9682 H   0  0  0  0  0  0
   16.6792  -44.0184    8.3663 H   0  0  0  0  0  0
   16.2917  -43.2552    6.7870 H   0  0  0  0  0  0
   18.5139  -42.7635    7.0389 H   0  0  0  0  0  0
   17.7420  -41.2813    7.6977 H   0  0  0  0  0  0
   19.8402  -42.8520   11.4861 H   0  0  0  0  0  0
   19.9316  -41.0658   11.6532 H   0  0  0  0  0  0
   21.2637  -41.9618   10.8475 H   0  0  0  0  0  0
   18.9537  -39.9186    8.9022 H   0  0  0  0  0  0
   20.7647  -39.7084   10.6973 H   0  0  0  0  0  0
   21.9128  -40.4627    9.5400 H   0  0  0  0  0  0
   20.2879  -37.8833    9.1369 H   0  0  0  0  0  0
   22.0740  -38.0215    9.2691 H   0  0  0  0  0  0
   21.0680  -37.7186    6.9188 H   0  0  0  0  0  0
   22.2643  -39.0398    7.1421 H   0  0  0  0  0  0
   19.2515  -39.2681    6.8178 H   0  0  0  0  0  0
   20.5503  -39.8779    5.7371 H   0  0  0  0  0  0
   21.3147  -41.4203    7.6277 H   0  0  0  0  0  0
   19.6105  -41.7454    7.1621 H   0  0  0  0  0  0
  1  2  1  0  0  0
  1  6  2  0  0  0
  1 25  1  0  0  0
  2  3  2  0  0  0
  2  8  1  0  0  0
  3  4  1  0  0  0
  3 10  1  0  0  0
  4  5  2  0  0  0
  4 26  1  0  0  0
  5  6  1  0  0  0
  5  7  1  0  0  0
  6 27  1  0  0  0
  8  9  1  0  0  0
  8 12  1  0  0  0
  9 10  2  0  0  0
  9 11  1  0  0  0
 11 28  1  0  0  0
 11 29  1  0  0  0
 12 13  1  0  0  0
 12 30  1  0  0  0
 12 31  1  0  0  0
 13 14  1  0  0  0
 13 32  1  0  0  0
 13 33  1  0  0  0
 14 15  1  0  0  0
 14 34  1  0  0  0
 14 35  1  0  0  0
 15 16  2  0  0  0
 15 17  1  0  0  0
 17 18  1  0  0  0
 17 19  1  0  0  0
 18 36  1  0  0  0
 18 37  1  0  0  0
 18 38  1  0  0  0
 19 20  1  0  0  0
 19 24  1  0  0  0
 19 39  1  0  0  0
 20 21  1  0  0  0
 20 40  1  0  0  0
 20 41  1  0  0  0
 21 22  1  0  0  0
 21 42  1  0  0  0
 21 43  1  0  0  0
 22 23  1  0  0  0
 22 44  1  0  0  0
 22 45  1  0  0  0
 23 24  1  0  0  0
 23 46  1  0  0  0
 23 47  1  0  0  0
 24 48  1  0  0  0
 24 49  1  0  0  0
M  END
> <s_m_source_file>
../3msk_ligand.sdf

> <i_m_source_file_index>
1

> <s_epik_input>
W2NIXTFbY0hdYyhDbClbY0hdYyhjMTIpbmMoW05IMl0pbjJbQ0gyXVtDSDJdW0NIMl1DKD1PKU4oW0NIM10pW0NIXTNbQ0gyXVtDSDJdW0NIMl1bQ0gyXVtDSDJdMw==

> <s_epik_cmdline>
J2VwaWtfYXBwJywgJy1pbWFlJywgJ2xpZ2FuZF9wcm8ubWFlJywgJy1vbWFlJywgJ2xpZ2FuZF9wcmVwLm1hZScsICctbXMnLCAnMScsICctcGgnLCAnNycsICctcGh0JywgJzAuNScsICctbnQn

> <r_epik_Ionization_Penalty>
  0.1101

> <r_epik_Ionization_Penalty_Charging>
  0.0000

> <r_epik_Ionization_Penalty_Neutral>
  0.1101

> <r_epik_State_Penalty>
  0.0998

> <r_epik_Charging_Adjusted_Penalty>
0.0998092969212854

> <i_epik_Tot_Q>
0

> <i_epik_Tot_abs_Q>
0

$$$$
