3msl_ligand
                    3D
 Schrodinger Suite 2020-3.
 52 54  0  0  1  0            999 V2000
   16.1240  -39.8010    9.4860 C   0  0  0  0  0  0
   16.3290  -40.1780   10.8120 C   0  0  0  0  0  0
   16.7120  -39.2160   11.7480 C   0  0  0  0  0  0
   16.8960  -37.8790   11.3850 C   0  0  0  0  0  0
   16.7030  -37.4520   10.0710 C   0  0  0  0  0  0
   16.3210  -38.3730    9.1020 C   0  0  0  0  0  0
   16.0640  -38.2780    7.7840 N   0  0  0  0  0  0
   15.7430  -39.5300    7.4130 C   0  0  0  0  0  0
   15.7630  -40.4650    8.3790 N   0  0  0  0  0  0
   15.4230  -39.7900    6.1210 N   0  0  0  0  0  0
   17.3890  -36.6830   12.6280 Cl  0  0  0  0  0  0
   15.4640  -41.9290    8.3070 C   0  0  1  0  0  0
   14.0700  -42.1990    7.7390 C   0  0  0  0  0  0
   12.9790  -41.6580    8.6390 C   0  0  0  0  0  0
   16.5270  -42.6560    7.4810 C   0  0  0  0  0  0
   17.9150  -42.3890    8.0250 C   0  0  0  0  0  0
   18.7410  -41.7300    7.2110 N   0  0  0  0  0  0
   18.2320  -42.7680    9.1430 O   0  0  0  0  0  0
   20.1270  -41.3260    7.4290 C   0  0  0  0  0  0
   20.0900  -39.9460    8.0830 C   0  0  0  0  0  0
   19.5460  -38.9000    7.1070 C   0  0  0  0  0  0
   19.5480  -37.5000    7.7230 C   0  0  0  0  0  0
   20.9360  -37.1020    8.2270 C   0  0  0  0  0  0
   21.5370  -38.1630    9.1510 C   0  0  0  0  0  0
   21.5040  -39.5570    8.5210 C   0  0  0  0  0  0
   16.1913  -41.2158   11.1157 H   0  0  0  0  0  0
   16.8710  -39.5139   12.7844 H   0  0  0  0  0  0
   16.8505  -36.4050    9.8062 H   0  0  0  0  0  0
   15.4260  -38.9776    5.3794 H   0  0  0  0  0  0
   15.1604  -40.8133    5.8146 H   0  0  0  0  0  0
   15.4891  -42.2953    9.3439 H   0  0  0  0  0  0
   13.9753  -41.7167    6.7549 H   0  0  0  0  0  0
   13.9216  -43.2836    7.6316 H   0  0  0  0  0  0
   11.9963  -41.8733    8.1940 H   0  0  0  0  0  0
   13.1010  -40.5704    8.7500 H   0  0  0  0  0  0
   13.0472  -42.1373    9.6267 H   0  0  0  0  0  0
   16.3385  -43.7393    7.5127 H   0  0  0  0  0  0
   16.4838  -42.3067    6.4388 H   0  0  0  0  0  0
   18.2410  -41.4897    6.2611 H   0  0  0  0  0  0
   20.6224  -42.0555    8.0866 H   0  0  0  0  0  0
   20.6533  -41.2856    6.4639 H   0  0  0  0  0  0
   19.4244  -39.9864    8.9578 H   0  0  0  0  0  0
   20.1717  -38.8821    6.2025 H   0  0  0  0  0  0
   18.5122  -39.1570    6.8327 H   0  0  0  0  0  0
   19.2322  -36.7662    6.9668 H   0  0  0  0  0  0
   18.8513  -37.4727    8.5738 H   0  0  0  0  0  0
   21.6131  -36.9697    7.3703 H   0  0  0  0  0  0
   20.8658  -36.1584    8.7880 H   0  0  0  0  0  0
   22.5850  -37.9090    9.3681 H   0  0  0  0  0  0
   20.9658  -38.1971   10.0905 H   0  0  0  0  0  0
   21.8702  -40.2815    9.2633 H   0  0  0  0  0  0
   22.1719  -39.5581    7.6470 H   0  0  0  0  0  0
  1  2  1  0  0  0
  1  6  2  0  0  0
  1  9  1  0  0  0
  2  3  2  0  0  0
  2 26  1  0  0  0
  3  4  1  0  0  0
  3 27  1  0  0  0
  4  5  2  0  0  0
  4 11  1  0  0  0
  5  6  1  0  0  0
  5 28  1  0  0  0
  6  7  1  0  0  0
  7  8  2  0  0  0
  8  9  1  0  0  0
  8 10  1  0  0  0
  9 12  1  0  0  0
 10 29  1  0  0  0
 10 30  1  0  0  0
 12 13  1  0  0  0
 12 15  1  0  0  0
 12 31  1  0  0  0
 13 14  1  0  0  0
 13 32  1  0  0  0
 13 33  1  0  0  0
 14 34  1  0  0  0
 14 35  1  0  0  0
 14 36  1  0  0  0
 15 16  1  0  0  0
 15 37  1  0  0  0
 15 38  1  0  0  0
 16 17  1  0  0  0
 16 18  2  0  0  0
 17 19  1  0  0  0
 17 39  1  0  0  0
 19 20  1  0  0  0
 19 40  1  0  0  0
 19 41  1  0  0  0
 20 21  1  0  0  0
 20 25  1  0  0  0
 20 42  1  0  0  0
 21 22  1  0  0  0
 21 43  1  0  0  0
 21 44  1  0  0  0
 22 23  1  0  0  0
 22 45  1  0  0  0
 22 46  1  0  0  0
 23 24  1  0  0  0
 23 47  1  0  0  0
 23 48  1  0  0  0
 24 25  1  0  0  0
 24 49  1  0  0  0
 24 50  1  0  0  0
 25 51  1  0  0  0
 25 52  1  0  0  0
M  END
> <s_m_source_file>
../3msl_ligand.sdf

> <i_m_source_file_index>
1

> <s_epik_input>
W2NIXTFbY0hdYyhDbClbY0hdYyhjMTIpbmMoW05IMl0pbjJbQ0BASF0oW0NIMl1bQ0gzXSlbQ0gyXUMoPU8pW05IXVtDSDJdW0NIXTNbQ0gyXVtDSDJdW0NIMl1bQ0gyXVtDSDJdMw==

> <s_epik_cmdline>
J2VwaWtfYXBwJywgJy1pbWFlJywgJ2xpZ2FuZF9wcm8ubWFlJywgJy1vbWFlJywgJ2xpZ2FuZF9wcmVwLm1hZScsICctbXMnLCAnMScsICctcGgnLCAnNycsICctcGh0JywgJzAuNScsICctbnQn

> <r_epik_Ionization_Penalty>
  0.0897

> <r_epik_Ionization_Penalty_Charging>
  0.0000

> <r_epik_Ionization_Penalty_Neutral>
  0.0897

> <r_epik_State_Penalty>
  0.0801

> <r_epik_Charging_Adjusted_Penalty>
0.0801110393308704

> <i_epik_Tot_Q>
0

> <i_epik_Tot_abs_Q>
0

$$$$
