3mt7_ligand
                    3D
 Schrodinger Suite 2020-3.
 42 43  0  0  1  0            999 V2000
   19.4060   15.1210   56.1550 C   0  0  1  0  0  0
   18.9420   13.8410   55.6620 N   0  0  0  0  0  0
   18.5840   13.0230   58.1690 S   0  0  0  0  0  0
   17.2930    9.4990   48.2620 Br  0  0  0  0  0  0
   20.7350   15.4720   55.4670 C   0  0  2  0  0  0
   18.1020   11.7540   55.9480 N   0  0  0  0  0  0
   21.7650   14.5700   55.9010 O   0  0  0  0  0  0
   21.0660   16.9480   55.7510 C   0  0  1  0  0  0
   18.0700   11.6460   54.7170 N   0  0  0  0  0  0
   22.2310   17.3610   55.0310 O   0  0  0  0  0  0
   19.8820   17.8420   55.3630 C   0  0  2  0  0  0
   20.1450   19.2230   55.6380 O   0  0  0  0  0  0
   18.6490   17.3850   56.1350 C   0  0  2  0  0  0
   18.3920   16.0370   55.7370 O   0  0  0  0  0  0
   17.3940   18.2320   55.9030 C   0  0  0  0  0  0
   17.1900   18.4360   54.5000 O   0  0  0  0  0  0
   18.5370   12.8740   56.4810 C   0  0  0  0  0  0
   17.6520   10.5710   54.2470 C   0  0  0  0  0  0
   17.5800   10.3450   52.8000 C   0  0  0  0  0  0
   16.7510    9.3290   52.3420 C   0  0  0  0  0  0
   16.6760    9.0840   50.9810 C   0  0  0  0  0  0
   17.4220    9.8570   50.1050 C   0  0  0  0  0  0
   18.2520   10.8890   50.5560 C   0  0  0  0  0  0
   18.3320   11.1300   51.9180 C   0  0  0  0  0  0
   19.5081   15.1299   57.2502 H   0  0  0  0  0  0
   18.9168   13.6447   54.5800 H   0  0  0  0  0  0
   20.7103   15.2997   54.3809 H   0  0  0  0  0  0
   21.6453   13.4865   55.7533 H   0  0  0  0  0  0
   21.3324   17.0766   56.8105 H   0  0  0  0  0  0
   23.1849   16.8336   55.1792 H   0  0  0  0  0  0
   19.7198   17.8193   54.2753 H   0  0  0  0  0  0
   21.0019   19.7246   55.1645 H   0  0  0  0  0  0
   18.8636   17.4188   57.2133 H   0  0  0  0  0  0
   16.5193   17.7141   56.3233 H   0  0  0  0  0  0
   17.5141   19.2080   56.3959 H   0  0  0  0  0  0
   16.3302   19.0256   54.1492 H   0  0  0  0  0  0
   18.2879    9.7452   54.5987 H   0  0  0  0  0  0
   16.6167   10.4036   54.5790 H   0  0  0  0  0  0
   16.1677    8.7329   53.0439 H   0  0  0  0  0  0
   16.0347    8.2887   50.6012 H   0  0  0  0  0  0
   18.8241   11.4912   49.8502 H   0  0  0  0  0  0
   18.9746   11.9236   52.2993 H   0  0  0  0  0  0
  1  2  1  0  0  0
  1  5  1  0  0  0
  1 14  1  0  0  0
  1 25  1  0  0  0
  2 17  1  0  0  0
  2 26  1  0  0  0
  3 17  2  0  0  0
  4 22  1  0  0  0
  5  7  1  0  0  0
  5  8  1  0  0  0
  5 27  1  0  0  0
  6  9  2  0  0  0
  6 17  1  0  0  0
  7 28  1  0  0  0
  8 10  1  0  0  0
  8 11  1  0  0  0
  8 29  1  0  0  0
  9 18  1  0  0  0
 10 30  1  0  0  0
 11 12  1  0  0  0
 11 13  1  0  0  0
 11 31  1  0  0  0
 12 32  1  0  0  0
 13 14  1  0  0  0
 13 15  1  0  0  0
 13 33  1  0  0  0
 15 16  1  0  0  0
 15 34  1  0  0  0
 15 35  1  0  0  0
 16 36  1  0  0  0
 18 19  1  0  0  0
 18 37  1  0  0  0
 18 38  1  0  0  0
 19 20  2  0  0  0
 19 24  1  0  0  0
 20 21  1  0  0  0
 20 39  1  0  0  0
 21 22  2  0  0  0
 21 40  1  0  0  0
 22 23  1  0  0  0
 23 24  2  0  0  0
 23 41  1  0  0  0
 24 42  1  0  0  0
M  END
> <s_m_source_file>
../3mt7_ligand.sdf

> <i_m_source_file_index>
1

> <s_epik_input>
W09IXVtDSDJdW0NAQEhdKE8xKVtDQEBIXShbT0hdKVtDQEhdKFtPSF0pW0NAQEhdKFtPSF0pW0NAQEhdMVtOSF1DKD1TKS9OPU4vW0NIMl1jMltjSF1bY0hdYyhCcilbY0hdW2NIXTI=

> <s_epik_cmdline>
J2VwaWtfYXBwJywgJy1pbWFlJywgJ2xpZ2FuZF9wcm8ubWFlJywgJy1vbWFlJywgJ2xpZ2FuZF9wcmVwLm1hZScsICctbXMnLCAnMScsICctcGgnLCAnNycsICctcGh0JywgJzAuNScsICctbnQn

> <r_lp_tautomer_probability>
1

> <r_epik_Ionization_Penalty>
  0.0000

> <r_epik_Ionization_Penalty_Charging>
  0.0000

> <r_epik_Ionization_Penalty_Neutral>
  0.0000

> <r_epik_State_Penalty>
 -0.0000

> <r_epik_Charging_Adjusted_Penalty>
0

> <i_epik_Tot_Q>
0

> <i_epik_Tot_abs_Q>
0

> <s_epik_Chemistry_Notes>
This compound contains an acetal/aminal-like group ( X-CH(R)-Y where X, Y are N, S, or O) that may be acid/base labile, releasing an aldehyde.

$$$$
