3mt8_ligand
                    3D
 Schrodinger Suite 2020-3.
 42 43  0  0  1  0            999 V2000
   19.2280   15.2390   56.0780 C   0  0  1  0  0  0
   18.7520   13.9380   55.5770 N   0  0  0  0  0  0
   18.3770   13.0950   58.1280 S   0  0  0  0  0  0
   17.3450    9.7220   48.2320 Cl  0  0  0  0  0  0
   20.5900   15.5880   55.4290 C   0  0  2  0  0  0
   17.9410   11.7950   55.8330 N   0  0  0  0  0  0
   21.6030   14.6850   55.8860 O   0  0  0  0  0  0
   20.9820   17.0450   55.7320 C   0  0  1  0  0  0
   17.9190   11.6680   54.6080 N   0  0  0  0  0  0
   22.1570   17.4110   54.9960 O   0  0  0  0  0  0
   19.8270   17.9890   55.3710 C   0  0  2  0  0  0
   20.1660   19.3410   55.7000 O   0  0  0  0  0  0
   18.5500   17.5660   56.1170 C   0  0  2  0  0  0
   18.2130   16.2090   55.7120 O   0  0  0  0  0  0
   17.3400   18.4770   55.8600 C   0  0  0  0  0  0
   16.9610   18.3970   54.4830 O   0  0  0  0  0  0
   18.3570   12.9380   56.3760 C   0  0  0  0  0  0
   17.5070   10.5430   54.0620 C   0  0  0  0  0  0
   17.4810   10.3770   52.6820 C   0  0  0  0  0  0
   16.6920    9.3610   52.1450 C   0  0  0  0  0  0
   16.6600    9.1660   50.7700 C   0  0  0  0  0  0
   17.4090    9.9870   49.9350 C   0  0  0  0  0  0
   18.2000   11.0100   50.4620 C   0  0  0  0  0  0
   18.2350   11.2020   51.8410 C   0  0  0  0  0  0
   19.3213   15.2260   57.1740 H   0  0  0  0  0  0
   18.7075   13.7484   54.4944 H   0  0  0  0  0  0
   20.5568   15.4297   54.3410 H   0  0  0  0  0  0
   21.4775   13.6012   55.7459 H   0  0  0  0  0  0
   21.2630   17.1561   56.7897 H   0  0  0  0  0  0
   23.0885   16.8410   55.1280 H   0  0  0  0  0  0
   19.6626   18.0004   54.2834 H   0  0  0  0  0  0
   21.0559   19.8091   55.2538 H   0  0  0  0  0  0
   18.7571   17.5836   57.1972 H   0  0  0  0  0  0
   16.4978   18.1542   56.4896 H   0  0  0  0  0  0
   17.6045   19.5160   56.1059 H   0  0  0  0  0  0
   16.1087   18.9852   54.1121 H   0  0  0  0  0  0
   17.1745    9.7112   54.7004 H   0  0  0  0  0  0
   16.1021    8.7217   52.8018 H   0  0  0  0  0  0
   16.0480    8.3698   50.3462 H   0  0  0  0  0  0
   18.7836   11.6512   49.8014 H   0  0  0  0  0  0
   18.8503   11.9955   52.2651 H   0  0  0  0  0  0
   17.6172   10.9648   56.4779 H   0  0  0  0  0  0
  1  2  1  0  0  0
  1  5  1  0  0  0
  1 14  1  0  0  0
  1 25  1  0  0  0
  2 17  1  0  0  0
  2 26  1  0  0  0
  3 17  2  0  0  0
  4 22  1  0  0  0
  5  7  1  0  0  0
  5  8  1  0  0  0
  5 27  1  0  0  0
  6  9  1  0  0  0
  6 17  1  0  0  0
  6 42  1  0  0  0
  7 28  1  0  0  0
  8 10  1  0  0  0
  8 11  1  0  0  0
  8 29  1  0  0  0
  9 18  2  0  0  0
 10 30  1  0  0  0
 11 12  1  0  0  0
 11 13  1  0  0  0
 11 31  1  0  0  0
 12 32  1  0  0  0
 13 14  1  0  0  0
 13 15  1  0  0  0
 13 33  1  0  0  0
 15 16  1  0  0  0
 15 34  1  0  0  0
 15 35  1  0  0  0
 16 36  1  0  0  0
 18 19  1  0  0  0
 18 37  1  0  0  0
 19 20  2  0  0  0
 19 24  1  0  0  0
 20 21  1  0  0  0
 20 38  1  0  0  0
 21 22  2  0  0  0
 21 39  1  0  0  0
 22 23  1  0  0  0
 23 24  2  0  0  0
 23 40  1  0  0  0
 24 41  1  0  0  0
M  END
> <s_m_source_file>
../3mt8_ligand.sdf

> <i_m_source_file_index>
1

> <s_epik_input>
W09IXVtDSDJdW0NAQEhdKE8xKVtDQEBIXShbT0hdKVtDQEhdKFtPSF0pW0NAQEhdKFtPSF0pW0NAQEhdMVtOSF0vQyhbU0hdKT1OXE49W0NIXVxjMltjSF1bY0hdYyhDbClbY0hdW2NIXTI=

> <s_epik_cmdline>
J2VwaWtfYXBwJywgJy1pbWFlJywgJ2xpZ2FuZF9wcm8ubWFlJywgJy1vbWFlJywgJ2xpZ2FuZF9wcmVwLm1hZScsICctbXMnLCAnMScsICctcGgnLCAnNycsICctcGh0JywgJzAuNScsICctbnQn

> <r_lp_tautomer_probability>
1

> <r_epik_Ionization_Penalty>
  0.0000

> <r_epik_Ionization_Penalty_Charging>
  0.0000

> <r_epik_Ionization_Penalty_Neutral>
  0.0000

> <r_epik_State_Penalty>
 -0.0000

> <r_epik_Charging_Adjusted_Penalty>
0

> <i_epik_Tot_Q>
0

> <i_epik_Tot_abs_Q>
0

> <s_epik_Chemistry_Notes>
This compound has an imine and may undergo hydrolysis. This compound contains an acetal/aminal-like group ( X-CH(R)-Y where X, Y are N, S, or O) that may be acid/base labile, releasing an aldehyde.

$$$$
