3mt9_ligand
                    3D
 Schrodinger Suite 2020-3.
 44 45  0  0  1  0            999 V2000
   19.3190   15.2560   56.1900 C   0  0  1  0  0  0
   18.8600   13.9520   55.7230 N   0  0  0  0  0  0
   18.6050   13.0120   58.2190 S   0  0  0  0  0  0
   20.6560   15.5480   55.4780 C   0  0  2  0  0  0
   18.1110   11.7920   55.9720 N   0  0  0  0  0  0
   21.6800   14.6140   55.8580 O   0  0  0  0  0  0
   21.0790   16.9990   55.7390 C   0  0  1  0  0  0
   18.0460   11.6980   54.7370 N   0  0  0  0  0  0
   22.2580   17.3340   55.0000 O   0  0  0  0  0  0
   19.9550   17.9390   55.2980 C   0  0  2  0  0  0
   17.3780   10.2120   48.5600 N   0  3  0  0  0  0
   20.2590   19.3020   55.6000 O   0  0  0  0  0  0
   18.6350   17.5950   55.9710 C   0  0  2  0  0  0
   18.3220   16.2070   55.7830 O   0  0  0  0  0  0
   17.5510   18.4470   55.3250 C   0  0  0  0  0  0
   16.2890   18.0220   55.8330 O   0  0  0  0  0  0
   18.5230   12.9310   56.5250 C   0  0  0  0  0  0
   17.5460   11.1880   47.8500 O   0  0  0  0  0  0
   17.6660   10.6290   54.2010 C   0  0  0  0  0  0
   17.0900    9.1390   48.0510 O   0  5  0  0  0  0
   17.5960   10.5330   52.7300 C   0  0  0  0  0  0
   18.2750   11.4590   51.9300 C   0  0  0  0  0  0
   18.2120   11.3610   50.5450 C   0  0  0  0  0  0
   17.4710   10.3280   49.9610 C   0  0  0  0  0  0
   16.7950    9.4050   50.7650 C   0  0  0  0  0  0
   16.8520    9.5060   52.1530 C   0  0  0  0  0  0
   19.4012   15.2982   57.2861 H   0  0  0  0  0  0
   18.7710   13.7541   54.6446 H   0  0  0  0  0  0
   20.5681   15.3681   54.3964 H   0  0  0  0  0  0
   21.5155   13.5342   55.7273 H   0  0  0  0  0  0
   21.3493   17.1283   56.7974 H   0  0  0  0  0  0
   23.1896   16.7733   55.1669 H   0  0  0  0  0  0
   19.8715   17.8779   54.2029 H   0  0  0  0  0  0
   21.1793   19.7600   55.2085 H   0  0  0  0  0  0
   18.6907   17.7338   57.0608 H   0  0  0  0  0  0
   17.7209   19.5054   55.5717 H   0  0  0  0  0  0
   17.5830   18.3153   54.2334 H   0  0  0  0  0  0
   15.3654   18.5125   55.4919 H   0  0  0  0  0  0
   18.3431    9.8122   54.4917 H   0  0  0  0  0  0
   16.6443   10.3946   54.5345 H   0  0  0  0  0  0
   18.8538   12.2579   52.3935 H   0  0  0  0  0  0
   18.7358   12.0833   49.9188 H   0  0  0  0  0  0
   16.2204    8.6022   50.3030 H   0  0  0  0  0  0
   16.3209    8.7901   52.7803 H   0  0  0  0  0  0
  1  2  1  0  0  0
  1  4  1  0  0  0
  1 14  1  0  0  0
  1 27  1  0  0  0
  2 17  1  0  0  0
  2 28  1  0  0  0
  3 17  2  0  0  0
  4  6  1  0  0  0
  4  7  1  0  0  0
  4 29  1  0  0  0
  5  8  2  0  0  0
  5 17  1  0  0  0
  6 30  1  0  0  0
  7  9  1  0  0  0
  7 10  1  0  0  0
  7 31  1  0  0  0
  8 19  1  0  0  0
  9 32  1  0  0  0
 10 12  1  0  0  0
 10 13  1  0  0  0
 10 33  1  0  0  0
 11 18  2  0  0  0
 11 20  1  0  0  0
 11 24  1  0  0  0
 12 34  1  0  0  0
 13 14  1  0  0  0
 13 15  1  0  0  0
 13 35  1  0  0  0
 15 16  1  0  0  0
 15 36  1  0  0  0
 15 37  1  0  0  0
 16 38  1  0  0  0
 19 21  1  0  0  0
 19 39  1  0  0  0
 19 40  1  0  0  0
 21 22  2  0  0  0
 21 26  1  0  0  0
 22 23  1  0  0  0
 22 41  1  0  0  0
 23 24  2  0  0  0
 23 42  1  0  0  0
 24 25  1  0  0  0
 25 26  2  0  0  0
 25 43  1  0  0  0
 26 44  1  0  0  0
M  CHG  2  11   1  20  -1
M  END
> <s_m_source_file>
../3mt9_ligand.sdf

> <i_m_source_file_index>
1

> <s_epik_input>
W09IXVtDSDJdW0NAQEhdKE8xKVtDQEBIXShbT0hdKVtDQEhdKFtPSF0pW0NAQEhdKFtPSF0pW0NAQEhdMVtOSF1DKD1TKS9OPU4vW0NIMl1jMltjSF1bY0hdYyhbTitdKD1PKVtPLV0pW2NIXVtjSF0y

> <s_epik_cmdline>
J2VwaWtfYXBwJywgJy1pbWFlJywgJ2xpZ2FuZF9wcm8ubWFlJywgJy1vbWFlJywgJ2xpZ2FuZF9wcmVwLm1hZScsICctbXMnLCAnMScsICctcGgnLCAnNycsICctcGh0JywgJzAuNScsICctbnQn

> <r_lp_tautomer_probability>
1

> <r_epik_Ionization_Penalty>
  0.0000

> <r_epik_Ionization_Penalty_Charging>
  0.0000

> <r_epik_Ionization_Penalty_Neutral>
  0.0000

> <r_epik_State_Penalty>
 -0.0000

> <r_epik_Charging_Adjusted_Penalty>
0

> <i_epik_Tot_Q>
0

> <i_epik_Tot_abs_Q>
2

> <s_epik_Chemistry_Notes>
This compound contains an acetal/aminal-like group ( X-CH(R)-Y where X, Y are N, S, or O) that may be acid/base labile, releasing an aldehyde.

$$$$
