3mta_ligand
                    3D
 Schrodinger Suite 2020-3.
 42 43  0  0  1  0            999 V2000
   19.1760   15.2700   56.0100 C   0  0  1  0  0  0
   18.7250   13.9240   55.5660 N   0  0  0  0  0  0
   18.2710   13.2110   58.1530 S   0  0  0  0  0  0
   19.2410   11.6750   49.5480 Br  0  0  0  0  0  0
   20.6180   15.6350   55.5780 C   0  0  2  0  0  0
   17.9100   11.7850   55.9480 N   0  0  0  0  0  0
   21.5760   14.8180   56.2640 O   0  0  0  0  0  0
   20.9080   17.1290   55.8340 C   0  0  1  0  0  0
   17.9090   11.5470   54.7430 N   0  0  0  0  0  0
   22.1620   17.5200   55.2590 O   0  0  0  0  0  0
   19.7760   17.9960   55.2650 C   0  0  2  0  0  0
   20.0150   19.3700   55.5560 O   0  0  0  0  0  0
   18.4400   17.5620   55.8820 C   0  0  2  0  0  0
   18.2120   16.2000   55.4350 O   0  0  0  0  0  0
   17.2250   18.4740   55.5830 C   0  0  0  0  0  0
   17.2160   18.9050   54.2160 O   0  0  0  0  0  0
   18.3100   12.9690   56.4140 C   0  0  0  0  0  0
   17.5100   10.3680   54.3150 C   0  0  0  0  0  0
   17.5090   10.0800   52.9570 C   0  0  0  0  0  0
   16.7860    8.9910   52.4720 C   0  0  0  0  0  0
   16.7960    8.7010   51.1090 C   0  0  0  0  0  0
   17.5270    9.5000   50.2350 C   0  0  0  0  0  0
   18.2470   10.5850   50.7240 C   0  0  0  0  0  0
   18.2440   10.8760   52.0810 C   0  0  0  0  0  0
   19.1555   15.3086   57.1091 H   0  0  0  0  0  0
   18.7208   13.6708   54.4956 H   0  0  0  0  0  0
   20.7680   15.3937   54.5153 H   0  0  0  0  0  0
   21.5174   13.7220   56.1902 H   0  0  0  0  0  0
   21.0373   17.3106   56.9112 H   0  0  0  0  0  0
   23.0871   17.0028   55.5533 H   0  0  0  0  0  0
   19.7500   17.9417   54.1666 H   0  0  0  0  0  0
   20.9311   19.8580   55.1919 H   0  0  0  0  0  0
   18.5261   17.5749   56.9786 H   0  0  0  0  0  0
   16.2945   17.9214   55.7801 H   0  0  0  0  0  0
   17.2667   19.3638   56.2284 H   0  0  0  0  0  0
   16.4116   19.5607   53.8513 H   0  0  0  0  0  0
   17.1755    9.6060   55.0344 H   0  0  0  0  0  0
   16.2135    8.3670   53.1583 H   0  0  0  0  0  0
   16.2321    7.8496   50.7280 H   0  0  0  0  0  0
   17.5353    9.2758   49.1683 H   0  0  0  0  0  0
   18.8144   11.7240   52.4600 H   0  0  0  0  0  0
   17.5776   11.0159   56.6608 H   0  0  0  0  0  0
  1  2  1  0  0  0
  1  5  1  0  0  0
  1 14  1  0  0  0
  1 25  1  0  0  0
  2 17  1  0  0  0
  2 26  1  0  0  0
  3 17  2  0  0  0
  4 23  1  0  0  0
  5  7  1  0  0  0
  5  8  1  0  0  0
  5 27  1  0  0  0
  6  9  1  0  0  0
  6 17  1  0  0  0
  6 42  1  0  0  0
  7 28  1  0  0  0
  8 10  1  0  0  0
  8 11  1  0  0  0
  8 29  1  0  0  0
  9 18  2  0  0  0
 10 30  1  0  0  0
 11 12  1  0  0  0
 11 13  1  0  0  0
 11 31  1  0  0  0
 12 32  1  0  0  0
 13 14  1  0  0  0
 13 15  1  0  0  0
 13 33  1  0  0  0
 15 16  1  0  0  0
 15 34  1  0  0  0
 15 35  1  0  0  0
 16 36  1  0  0  0
 18 19  1  0  0  0
 18 37  1  0  0  0
 19 20  2  0  0  0
 19 24  1  0  0  0
 20 21  1  0  0  0
 20 38  1  0  0  0
 21 22  2  0  0  0
 21 39  1  0  0  0
 22 23  1  0  0  0
 22 40  1  0  0  0
 23 24  2  0  0  0
 24 41  1  0  0  0
M  END
> <s_m_source_file>
../3mta_ligand.sdf

> <i_m_source_file_index>
1

> <s_epik_input>
W09IXVtDSDJdW0NAQEhdKE8xKVtDQEBIXShbT0hdKVtDQEhdKFtPSF0pW0NAQEhdKFtPSF0pW0NAQEhdMVtOSF0vQyhbU0hdKT1OXE49W0NIXVxjMltjSF1bY0hdW2NIXWMoQnIpW2NIXTI=

> <s_epik_cmdline>
J2VwaWtfYXBwJywgJy1pbWFlJywgJ2xpZ2FuZF9wcm8ubWFlJywgJy1vbWFlJywgJ2xpZ2FuZF9wcmVwLm1hZScsICctbXMnLCAnMScsICctcGgnLCAnNycsICctcGh0JywgJzAuNScsICctbnQn

> <r_lp_tautomer_probability>
1

> <r_epik_Ionization_Penalty>
  0.0000

> <r_epik_Ionization_Penalty_Charging>
  0.0000

> <r_epik_Ionization_Penalty_Neutral>
  0.0000

> <r_epik_State_Penalty>
 -0.0000

> <r_epik_Charging_Adjusted_Penalty>
0

> <i_epik_Tot_Q>
0

> <i_epik_Tot_abs_Q>
0

> <s_epik_Chemistry_Notes>
This compound has an imine and may undergo hydrolysis. This compound contains an acetal/aminal-like group ( X-CH(R)-Y where X, Y are N, S, or O) that may be acid/base labile, releasing an aldehyde.

$$$$
