3mtb_ligand
                    3D
 Schrodinger Suite 2020-3.
 42 43  0  0  1  0            999 V2000
   19.2530   15.1380   56.0450 C   0  0  1  0  0  0
   18.8210   13.8340   55.5510 N   0  0  0  0  0  0
   18.2320   13.0110   58.0260 S   0  0  0  0  0  0
   19.2830   11.6320   49.3320 Cl  0  0  0  0  0  0
   20.6610   15.4900   55.5110 C   0  0  2  0  0  0
   17.9490   11.7030   55.7790 N   0  0  0  0  0  0
   21.6710   14.6010   56.0220 O   0  0  0  0  0  0
   21.0010   16.9500   55.8590 C   0  0  2  0  0  0
   18.0010   11.5210   54.5460 N   0  0  0  0  0  0
   16.2880   17.5560   55.1190 O   0  0  0  0  0  0
   19.8890   17.8900   55.3770 C   0  0  2  0  0  0
   20.1100   19.2220   55.8410 O   0  0  0  0  0  0
   18.5410   17.4320   55.9170 C   0  0  2  0  0  0
   18.3020   16.0770   55.5140 O   0  0  0  0  0  0
   17.4350   18.3490   55.4090 C   0  0  0  0  0  0
   22.2470   17.3650   55.2830 O   0  0  0  0  0  0
   18.3420   12.8520   56.3330 C   0  0  0  0  0  0
   17.6200   10.4170   54.0820 C   0  0  0  0  0  0
   17.6510   10.1090   52.6340 C   0  0  0  0  0  0
   18.3660   10.9200   51.7720 C   0  0  0  0  0  0
   18.3770   10.5820   50.4250 C   0  0  0  0  0  0
   17.7060    9.4760   49.9050 C   0  0  0  0  0  0
   16.9920    8.6650   50.7690 C   0  0  0  0  0  0
   16.9670    8.9930   52.1290 C   0  0  0  0  0  0
   19.2354   15.1472   57.1448 H   0  0  0  0  0  0
   18.8774   13.6068   54.4762 H   0  0  0  0  0  0
   20.7062   15.3193   54.4253 H   0  0  0  0  0  0
   21.5819   13.5166   55.8606 H   0  0  0  0  0  0
   21.1600   17.0311   56.9444 H   0  0  0  0  0  0
   15.3727   18.0317   54.7370 H   0  0  0  0  0  0
   19.9001   17.9388   54.2781 H   0  0  0  0  0  0
   21.0331   19.7538   55.5671 H   0  0  0  0  0  0
   18.5387   17.4168   57.0169 H   0  0  0  0  0  0
   17.7650   18.8645   54.4950 H   0  0  0  0  0  0
   17.1813   19.0931   56.1784 H   0  0  0  0  0  0
   23.1698   16.8113   55.5109 H   0  0  0  0  0  0
   18.2289    9.6085   54.5127 H   0  0  0  0  0  0
   16.5626   10.2564   54.3392 H   0  0  0  0  0  0
   18.9030   11.7953   52.1375 H   0  0  0  0  0  0
   17.7432    9.2546   48.8384 H   0  0  0  0  0  0
   16.4601    7.7889   50.3980 H   0  0  0  0  0  0
   16.4002    8.3638   52.8153 H   0  0  0  0  0  0
  1  2  1  0  0  0
  1  5  1  0  0  0
  1 14  1  0  0  0
  1 25  1  0  0  0
  2 17  1  0  0  0
  2 26  1  0  0  0
  3 17  2  0  0  0
  4 21  1  0  0  0
  5  7  1  0  0  0
  5  8  1  0  0  0
  5 27  1  0  0  0
  6  9  2  0  0  0
  6 17  1  0  0  0
  7 28  1  0  0  0
  8 11  1  0  0  0
  8 16  1  0  0  0
  8 29  1  0  0  0
  9 18  1  0  0  0
 10 15  1  0  0  0
 10 30  1  0  0  0
 11 12  1  0  0  0
 11 13  1  0  0  0
 11 31  1  0  0  0
 12 32  1  0  0  0
 13 14  1  0  0  0
 13 15  1  0  0  0
 13 33  1  0  0  0
 15 34  1  0  0  0
 15 35  1  0  0  0
 16 36  1  0  0  0
 18 19  1  0  0  0
 18 37  1  0  0  0
 18 38  1  0  0  0
 19 20  2  0  0  0
 19 24  1  0  0  0
 20 21  1  0  0  0
 20 39  1  0  0  0
 21 22  2  0  0  0
 22 23  1  0  0  0
 22 40  1  0  0  0
 23 24  2  0  0  0
 23 41  1  0  0  0
 24 42  1  0  0  0
M  END
> <s_m_source_file>
../3mtb_ligand.sdf

> <i_m_source_file_index>
1

> <s_epik_input>
W09IXVtDSDJdW0NAQEhdKE8xKVtDQEBIXShbT0hdKVtDQEhdKFtPSF0pW0NAQEhdKFtPSF0pW0NAQEhdMVtOSF1DKD1TKS9OPU4vW0NIMl1jMltjSF1jKENsKVtjSF1bY0hdW2NIXTI=

> <s_epik_cmdline>
J2VwaWtfYXBwJywgJy1pbWFlJywgJ2xpZ2FuZF9wcm8ubWFlJywgJy1vbWFlJywgJ2xpZ2FuZF9wcmVwLm1hZScsICctbXMnLCAnMScsICctcGgnLCAnNycsICctcGh0JywgJzAuNScsICctbnQn

> <r_lp_tautomer_probability>
1

> <r_epik_Ionization_Penalty>
  0.0000

> <r_epik_Ionization_Penalty_Charging>
  0.0000

> <r_epik_Ionization_Penalty_Neutral>
  0.0000

> <r_epik_State_Penalty>
 -0.0000

> <r_epik_Charging_Adjusted_Penalty>
0

> <i_epik_Tot_Q>
0

> <i_epik_Tot_abs_Q>
0

> <s_epik_Chemistry_Notes>
This compound contains an acetal/aminal-like group ( X-CH(R)-Y where X, Y are N, S, or O) that may be acid/base labile, releasing an aldehyde.

$$$$
