3mtd_ligand
                    3D
 Schrodinger Suite 2020-3.
 43 44  0  0  1  0            999 V2000
   33.5170   22.8360   27.8140 C   0  0  1  0  0  0
   33.8630   23.1060   26.3480 C   0  0  2  0  0  0
   34.0290   24.5190   26.1150 O   0  0  0  0  0  0
   32.7270   22.5220   25.4910 C   0  0  1  0  0  0
   33.0140   22.6670   24.0900 O   0  0  0  0  0  0
   32.4440   21.0480   25.8400 C   0  0  2  0  0  0
   31.2320   20.6480   25.2040 O   0  0  0  0  0  0
   32.3130   20.8190   27.3620 C   0  0  2  0  0  0
   33.4230   21.4160   28.0350 O   0  0  0  0  0  0
   32.2080   19.3500   27.7930 C   0  0  0  0  0  0
   33.2490   18.5370   27.2150 O   0  0  0  0  0  0
   34.5970   23.2930   28.6730 N   0  0  0  0  0  0
   34.3730   24.0010   29.7900 C   0  0  0  0  0  0
   35.4520   24.3210   30.5150 N   0  0  0  0  0  0
   32.7890   24.4750   30.2480 S   0  0  0  0  0  0
   36.5770   23.9310   30.1040 N   0  0  0  0  0  0
   37.6710   24.1590   30.6880 C   0  0  0  0  0  0
   37.8420   24.9290   31.9580 C   0  0  0  0  0  0
   36.7480   25.3140   32.7460 C   0  0  0  0  0  0
   36.9470   26.0330   33.9260 C   0  0  0  0  0  0
   38.2450   26.3650   34.3230 C   0  0  0  0  0  0
   39.3420   25.9860   33.5450 C   0  0  0  0  0  0
   39.1360   25.2650   32.3680 C   0  0  0  0  0  0
   38.4490   27.0620   35.4750 O   0  0  0  0  0  0
   32.5719   23.3277   28.0879 H   0  0  0  0  0  0
   34.8422   22.6901   26.0682 H   0  0  0  0  0  0
   34.8054   25.0784   26.6575 H   0  0  0  0  0  0
   31.8155   23.1177   25.6469 H   0  0  0  0  0  0
   33.2389   23.6604   23.6746 H   0  0  0  0  0  0
   33.2437   20.4105   25.4349 H   0  0  0  0  0  0
   31.1290   20.7352   24.1123 H   0  0  0  0  0  0
   31.4013   21.3350   27.6975 H   0  0  0  0  0  0
   32.2900   19.2824   28.8879 H   0  0  0  0  0  0
   31.2381   18.9421   27.4721 H   0  0  0  0  0  0
   33.2950   17.4611   27.4393 H   0  0  0  0  0  0
   35.6408   23.0603   28.4152 H   0  0  0  0  0  0
   38.1470   23.2054   30.9602 H   0  0  0  0  0  0
   38.3353   24.7216   30.0156 H   0  0  0  0  0  0
   35.7369   25.0505   32.4356 H   0  0  0  0  0  0
   36.0942   26.3339   34.5345 H   0  0  0  0  0  0
   40.3525   26.2518   33.8555 H   0  0  0  0  0  0
   39.9906   24.9613   31.7634 H   0  0  0  0  0  0
   37.5915   27.3646   36.0939 H   0  0  0  0  0  0
  1  2  1  0  0  0
  1  9  1  0  0  0
  1 12  1  0  0  0
  1 25  1  0  0  0
  2  3  1  0  0  0
  2  4  1  0  0  0
  2 26  1  0  0  0
  3 27  1  0  0  0
  4  5  1  0  0  0
  4  6  1  0  0  0
  4 28  1  0  0  0
  5 29  1  0  0  0
  6  7  1  0  0  0
  6  8  1  0  0  0
  6 30  1  0  0  0
  7 31  1  0  0  0
  8  9  1  0  0  0
  8 10  1  0  0  0
  8 32  1  0  0  0
 10 11  1  0  0  0
 10 33  1  0  0  0
 10 34  1  0  0  0
 11 35  1  0  0  0
 12 13  1  0  0  0
 12 36  1  0  0  0
 13 14  1  0  0  0
 13 15  2  0  0  0
 14 16  2  0  0  0
 16 17  1  0  0  0
 17 18  1  0  0  0
 17 37  1  0  0  0
 17 38  1  0  0  0
 18 19  2  0  0  0
 18 23  1  0  0  0
 19 20  1  0  0  0
 19 39  1  0  0  0
 20 21  2  0  0  0
 20 40  1  0  0  0
 21 22  1  0  0  0
 21 24  1  0  0  0
 22 23  2  0  0  0
 22 41  1  0  0  0
 23 42  1  0  0  0
 24 43  1  0  0  0
M  END
> <s_m_source_file>
../3mtd_ligand.sdf

> <i_m_source_file_index>
1

> <s_epik_input>
W09IXVtDSDJdW0NAQEhdKE8xKVtDQEBIXShbT0hdKVtDQEhdKFtPSF0pW0NAQEhdKFtPSF0pW0NAQEhdMVtOSF1DKD1TKS9OPU4vW0NIMl1jMltjSF1bY0hdYyhbT0hdKVtjSF1bY0hdMg==

> <s_epik_cmdline>
J2VwaWtfYXBwJywgJy1pbWFlJywgJ2xpZ2FuZF9wcm8ubWFlJywgJy1vbWFlJywgJ2xpZ2FuZF9wcmVwLm1hZScsICctbXMnLCAnMScsICctcGgnLCAnNycsICctcGh0JywgJzAuNScsICctbnQn

> <r_lp_tautomer_probability>
1

> <r_epik_Ionization_Penalty>
  0.0009

> <r_epik_Ionization_Penalty_Charging>
  0.0000

> <r_epik_Ionization_Penalty_Neutral>
  0.0009

> <r_epik_State_Penalty>
 -0.0000

> <r_epik_Charging_Adjusted_Penalty>
0

> <i_epik_Tot_Q>
0

> <i_epik_Tot_abs_Q>
0

> <s_epik_Chemistry_Notes>
This compound contains an acetal/aminal-like group ( X-CH(R)-Y where X, Y are N, S, or O) that may be acid/base labile, releasing an aldehyde.

$$$$
