3mtw_ligand
                    3D
 Schrodinger Suite 2020-3.
 32 31  0  0  1  0            999 V2000
   26.8330  115.0640    9.5040 C   0  0  0  0  0  0
   27.7320  116.5770    9.2810 P   0  0  2  0  0  0
   28.1990  117.1880   10.6490 O   0  5  0  0  0  0
   26.8770  117.6000    8.6010 O   0  0  0  0  0  0
   29.1240  116.4370    8.4560 N   0  0  1  0  0  0
   29.7760  117.6810    7.9090 C   0  0  2  0  0  0
   29.5640  117.7860    6.4100 C   0  0  0  0  0  0
   29.5870  116.7750    5.7160 O   0  5  0  0  0  0
   31.2730  117.7990    8.2400 C   0  0  0  0  0  0
   31.9310  119.1310    7.8890 C   0  0  0  0  0  0
   33.3250  118.5610    7.8140 C   0  0  0  0  0  0
   34.3380  119.6160    7.6730 N   0  0  0  0  0  0
   34.9490  120.7240    8.0870 C   0  0  0  0  0  0
   34.5240  121.2910    9.2010 N   0  3  0  0  0  0
   35.9830  121.2500    7.4280 N   0  0  0  0  0  0
   29.3340  118.8510    5.8730 O   0  0  0  0  0  0
   25.9119  115.2649   10.0708 H   0  0  0  0  0  0
   27.4554  114.3460   10.0582 H   0  0  0  0  0  0
   26.5743  114.6430    8.5212 H   0  0  0  0  0  0
   29.8901  115.9853    9.1034 H   0  0  0  0  0  0
   29.2611  118.5115    8.4141 H   0  0  0  0  0  0
   31.4216  117.6596    9.3210 H   0  0  0  0  0  0
   31.8320  117.0272    7.6905 H   0  0  0  0  0  0
   31.5086  119.5117    6.9474 H   0  0  0  0  0  0
   31.7435  119.8562    8.6946 H   0  0  0  0  0  0
   33.5400  117.9959    8.7329 H   0  0  0  0  0  0
   33.4008  117.8906    6.9452 H   0  0  0  0  0  0
   35.0241  119.6083    6.8133 H   0  0  0  0  0  0
   33.6718  120.8602    9.7470 H   0  0  0  0  0  0
   36.3399  120.7803    6.4995 H   0  0  0  0  0  0
   36.4786  122.1533    7.8132 H   0  0  0  0  0  0
   35.0221  122.1943    9.5831 H   0  0  0  0  0  0
  1  2  1  0  0  0
  1 17  1  0  0  0
  1 18  1  0  0  0
  1 19  1  0  0  0
  2  3  1  0  0  0
  2  4  2  0  0  0
  2  5  1  0  0  0
  5  6  1  0  0  0
  5 20  1  0  0  0
  6  7  1  0  0  0
  6  9  1  0  0  0
  6 21  1  0  0  0
  7  8  1  0  0  0
  7 16  2  0  0  0
  9 10  1  0  0  0
  9 22  1  0  0  0
  9 23  1  0  0  0
 10 11  1  0  0  0
 10 24  1  0  0  0
 10 25  1  0  0  0
 11 12  1  0  0  0
 11 26  1  0  0  0
 11 27  1  0  0  0
 12 13  1  0  0  0
 12 28  1  0  0  0
 13 14  2  0  0  0
 13 15  1  0  0  0
 14 29  1  0  0  0
 14 32  1  0  0  0
 15 30  1  0  0  0
 15 31  1  0  0  0
M  CHG  3   3  -1   8  -1  14   1
M  END
> <s_m_source_file>
../3mtw_ligand.sdf

> <i_m_source_file_index>
1

> <s_epik_input>
W0NIM11bUEBAXSg9TykoW09IXSlbTkhdW0NASF0oQyg9TylbT0hdKVtDSDJdW0NIMl1bQ0gyXVtOSF0vQyg9TlxbSF0pW05IMl0=

> <s_epik_cmdline>
J2VwaWtfYXBwJywgJy1pbWFlJywgJ2xpZ2FuZF9wcm8ubWFlJywgJy1vbWFlJywgJ2xpZ2FuZF9wcmVwLm1hZScsICctbXMnLCAnMScsICctcGgnLCAnNycsICctcGh0JywgJzAuNScsICctbnQn

> <r_lp_tautomer_probability>
1

> <r_epik_Ionization_Penalty>
  0.0019

> <r_epik_Ionization_Penalty_Charging>
  0.0018

> <r_epik_Ionization_Penalty_Neutral>
  0.0001

> <r_epik_State_Penalty>
 -0.0000

> <r_epik_Charging_Adjusted_Penalty>
0.00178230232367482

> <i_epik_Tot_Q>
-1

> <i_epik_Tot_abs_Q>
3

> <s_epik_Chemistry_Notes>
This compound has an imine and may undergo hydrolysis.

$$$$
