3muf_ligand
                    3D
 Schrodinger Suite 2020-3.
 24 24  0  0  1  0            999 V2000
   27.2750   33.4150    0.5400 C   0  0  0  0  0  0
   27.7070   32.4750   -0.4210 C   0  0  0  0  0  0
   26.7640   31.8290   -1.4630 C   0  0  2  0  0  0
   25.3130   32.0360   -0.9760 C   0  0  2  0  0  0
   25.0180   33.5190   -0.6880 C   0  0  1  0  0  0
   25.8350   33.9780    0.5550 C   0  0  0  0  0  0
   28.2520   33.9460    1.5980 C   0  0  0  0  0  0
   27.0040   30.3810   -1.5520 O   0  0  0  0  0  0
   25.1260   31.2940    0.2620 O   0  0  0  0  0  0
   25.2830   34.3650   -1.8620 O   0  0  0  0  0  0
   27.7890   34.7910    2.4030 O   0  0  0  0  0  0
   29.4470   33.5400    1.6020 O   0  5  0  0  0  0
   27.9840   29.5920   -2.6750 P   0  0  0  0  0  0
   27.2910   28.4700   -3.3510 O   0  0  0  0  0  0
   28.4140   30.6100   -3.9020 O   0  5  0  0  0  0
   29.2840   29.1940   -1.6880 O   0  5  0  0  0  0
   28.7627   32.1676   -0.4539 H   0  0  0  0  0  0
   26.9505   32.2430   -2.4649 H   0  0  0  0  0  0
   24.6107   31.6490   -1.7290 H   0  0  0  0  0  0
   23.9404   33.6583   -0.5166 H   0  0  0  0  0  0
   25.3136   33.6274    1.4579 H   0  0  0  0  0  0
   25.8711   35.0774    0.5561 H   0  0  0  0  0  0
   25.2867   30.2060    0.2807 H   0  0  0  0  0  0
   24.7742   34.1582   -2.8151 H   0  0  0  0  0  0
  1  2  2  0  0  0
  1  6  1  0  0  0
  1  7  1  0  0  0
  2  3  1  0  0  0
  2 17  1  0  0  0
  3  4  1  0  0  0
  3  8  1  0  0  0
  3 18  1  0  0  0
  4  5  1  0  0  0
  4  9  1  0  0  0
  4 19  1  0  0  0
  5  6  1  0  0  0
  5 10  1  0  0  0
  5 20  1  0  0  0
  6 21  1  0  0  0
  6 22  1  0  0  0
  7 11  2  0  0  0
  7 12  1  0  0  0
  8 13  1  0  0  0
  9 23  1  0  0  0
 10 24  1  0  0  0
 13 14  2  0  0  0
 13 15  1  0  0  0
 13 16  1  0  0  0
M  CHG  3  12  -1  15  -1  16  -1
M  END
> <s_m_source_file>
../3muf_ligand.sdf

> <i_m_source_file_index>
1

> <s_epik_input>
Tz1DKFtPSF0pQzE9W0NIXVtDQEhdKFtDQEBIXShbT0hdKVtDQEBIXShbQ0gyXTEpW09IXSlPUCg9TykoW09IXSlbT0hd

> <s_epik_cmdline>
J2VwaWtfYXBwJywgJy1pbWFlJywgJ2xpZ2FuZF9wcm8ubWFlJywgJy1vbWFlJywgJ2xpZ2FuZF9wcmVwLm1hZScsICctbXMnLCAnMScsICctcGgnLCAnNycsICctcGh0JywgJzAuNScsICctbnQn

> <r_epik_Ionization_Penalty>
  0.1392

> <r_epik_Ionization_Penalty_Charging>
  0.1392

> <r_epik_Ionization_Penalty_Neutral>
  0.0000

> <r_epik_State_Penalty>
  0.1275

> <r_epik_Charging_Adjusted_Penalty>
0.266672829637261

> <i_epik_Tot_Q>
-3

> <i_epik_Tot_abs_Q>
3

$$$$
