3muk_ligand
                    3D
 Schrodinger Suite 2020-3.
108107  0  0  1  0            999 V2000
    2.5900  -15.0600   -3.2660 N   0  3  0  0  0  0
    1.1340  -14.7870   -3.4420 C   0  0  2  0  0  0
    0.9060  -13.4100   -4.0020 C   0  0  0  0  0  0
    1.6780  -12.5430   -3.7750 O   0  0  0  0  0  0
    0.3900  -14.8920   -2.0940 C   0  0  0  0  0  0
   -0.2540  -13.1540   -4.6200 N   0  0  0  0  0  0
   -0.5860  -11.7890   -4.9730 C   0  0  2  0  0  0
   -2.0990  -11.6010   -4.8790 C   0  0  0  0  0  0
   -2.8560  -12.5920   -4.8580 O   0  0  0  0  0  0
   -0.1320  -11.4490   -6.4400 C   0  0  2  0  0  0
   -0.7710  -12.3530   -7.3540 O   0  0  0  0  0  0
    1.4030  -11.5190   -6.6370 C   0  0  0  0  0  0
   -4.6930  -10.1530   -5.9940 C   0  0  0  0  0  0
   -2.5230  -10.3430   -4.8630 N   0  0  0  0  0  0
   -5.9670  -10.2800   -5.9850 O   0  0  0  0  0  0
   -3.9440  -10.0260   -4.6850 C   0  0  1  0  0  0
   -4.1130   -8.5980   -4.1340 C   0  0  0  0  0  0
   -4.1390   -7.2640   -2.0160 C   0  0  0  0  0  0
   -3.6040   -7.1770   -0.5820 C   0  0  0  0  0  0
   -3.5180   -8.4410   -2.7340 C   0  0  0  0  0  0
   -4.3710   -6.0920    0.0640 N   0  0  0  0  0  0
   -5.9540   -4.2420    1.4050 C   0  0  0  0  0  0
   -2.5500   -4.8380    0.2390 O   0  0  0  0  0  0
   -4.5620   -3.8250    1.0660 C   0  0  0  0  0  0
   -3.7760   -4.9520    0.4290 C   0  0  0  0  0  0
   -3.9560  -10.0720   -7.1100 N   0  0  0  0  0  0
   -4.5680  -10.1410   -8.4490 C   0  0  2  0  0  0
   -3.5810  -10.7210   -9.4490 C   0  0  0  0  0  0
   -2.3900  -10.8390   -9.1320 O   0  0  0  0  0  0
   -5.0000   -8.7760   -8.8830 C   0  0  0  0  0  0
   -4.0630  -11.0750  -10.6540 N   0  0  0  0  0  0
   -3.1600  -11.4260  -11.7840 C   0  0  2  0  0  0
   -2.1620  -10.2780  -12.1410 C   0  0  0  0  0  0
   -2.4620   -9.0620  -12.0030 O   0  0  0  0  0  0
   -3.9670  -11.8530  -13.0280 C   0  0  0  0  0  0
   -0.9530  -10.6540  -12.5550 N   0  0  0  0  0  0
    0.0080   -9.6520  -13.0130 C   0  0  2  0  0  0
   -0.6020   -9.0030  -14.2730 C   0  0  0  0  0  0
   -0.9900   -9.7130  -15.2290 O   0  0  0  0  0  0
    1.4100  -10.2650  -13.3110 C   0  0  0  0  0  0
   -0.6950   -7.6660  -14.2430 N   0  0  0  0  0  0
   -1.1420   -6.8670  -15.3950 C   0  0  2  0  0  0
   -0.0260   -6.7560  -16.4380 C   0  0  0  0  0  0
    1.1450   -6.5080  -16.0880 O   0  0  0  0  0  0
   -1.5530   -5.4720  -14.9280 C   0  0  0  0  0  0
   -2.7740   -5.4630  -14.0290 C   0  0  0  0  0  0
   -3.1660   -4.0210  -13.7050 C   0  0  0  0  0  0
   -4.4950   -3.9330  -12.9880 C   0  0  0  0  0  0
   -4.8650   -2.4960  -12.7200 N   0  3  0  0  0  0
   -0.2930   -6.9165  -17.6589 O   0  5  0  0  0  0
    3.0983  -14.9795   -4.2382 H   0  0  0  0  0  0
    2.7268  -16.0746   -2.8636 H   0  0  0  0  0  0
    3.0185  -14.3272   -2.5665 H   0  0  0  0  0  0
    0.7719  -15.5344   -4.1633 H   0  0  0  0  0  0
    0.5445  -15.8939   -1.6670 H   0  0  0  0  0  0
   -0.6851  -14.7236   -2.2545 H   0  0  0  0  0  0
    0.7803  -14.1333   -1.3997 H   0  0  0  0  0  0
   -0.9522  -13.9695   -4.8598 H   0  0  0  0  0  0
   -0.0552  -11.1778   -4.2282 H   0  0  0  0  0  0
   -0.4717  -10.4392   -6.7136 H   0  0  0  0  0  0
   -1.8673  -12.4428   -7.3626 H   0  0  0  0  0  0
    1.8944  -10.8269   -5.9374 H   0  0  0  0  0  0
    1.6534  -11.2355   -7.6699 H   0  0  0  0  0  0
    1.7511  -12.5444   -6.4436 H   0  0  0  0  0  0
   -1.7898   -9.5322   -4.9859 H   0  0  0  0  0  0
   -4.3261  -10.7734   -3.9741 H   0  0  0  0  0  0
   -3.6061   -7.8852   -4.8011 H   0  0  0  0  0  0
   -5.1834   -8.3507   -4.0785 H   0  0  0  0  0  0
   -5.2313   -7.3918   -1.9927 H   0  0  0  0  0  0
   -3.8895   -6.3394   -2.5572 H   0  0  0  0  0  0
   -3.7634   -8.1386   -0.0722 H   0  0  0  0  0  0
   -2.5283   -6.9482   -0.6052 H   0  0  0  0  0  0
   -3.7087   -9.3535   -2.1501 H   0  0  0  0  0  0
   -2.4333   -8.2762   -2.8129 H   0  0  0  0  0  0
   -5.4479   -6.2157    0.2511 H   0  0  0  0  0  0
   -6.4884   -3.3971    1.8638 H   0  0  0  0  0  0
   -5.9226   -5.0837    2.1125 H   0  0  0  0  0  0
   -6.4771   -4.5526    0.4886 H   0  0  0  0  0  0
   -4.5934   -2.9833    0.3585 H   0  0  0  0  0  0
   -4.0388   -3.5143    1.9824 H   0  0  0  0  0  0
   -2.8674   -9.9510   -7.0084 H   0  0  0  0  0  0
   -5.4538  -10.7892   -8.3769 H   0  0  0  0  0  0
   -5.7133   -8.3675   -8.1520 H   0  0  0  0  0  0
   -5.4824   -8.8405   -9.8695 H   0  0  0  0  0  0
   -4.1219   -8.1165   -8.9466 H   0  0  0  0  0  0
   -5.1539  -11.1013  -10.7931 H   0  0  0  0  0  0
   -2.5885  -12.2865  -11.4059 H   0  0  0  0  0  0
   -4.6621  -12.6606  -12.7547 H   0  0  0  0  0  0
   -3.2778  -12.2104  -13.8072 H   0  0  0  0  0  0
   -4.5364  -10.9923  -13.4088 H   0  0  0  0  0  0
   -0.6779  -11.7190  -12.5521 H   0  0  0  0  0  0
    0.1341   -8.9309  -12.1919 H   0  0  0  0  0  0
    1.8146  -10.7179  -12.3938 H   0  0  0  0  0  0
    2.0896   -9.4735  -13.6598 H   0  0  0  0  0  0
    1.3150  -11.0361  -14.0897 H   0  0  0  0  0  0
   -0.4186   -7.1677  -13.3021 H   0  0  0  0  0  0
   -2.0045   -7.3963  -15.8262 H   0  0  0  0  0  0
   -0.7271   -5.0168  -14.3617 H   0  0  0  0  0  0
   -1.7865   -4.8466  -15.8023 H   0  0  0  0  0  0
   -3.6101   -5.9615  -14.5412 H   0  0  0  0  0  0
   -2.5455   -5.9971  -13.0949 H   0  0  0  0  0  0
   -2.3999   -3.5694  -13.0576 H   0  0  0  0  0  0
   -3.2442   -3.4438  -14.6381 H   0  0  0  0  0  0
   -5.2783   -4.3906  -13.6102 H   0  0  0  0  0  0
   -4.4301   -4.4672  -12.0286 H   0  0  0  0  0  0
   -5.8330   -2.4577  -12.1990 H   0  0  0  0  0  0
   -4.9400   -1.9528  -13.6735 H   0  0  0  0  0  0
   -4.0918   -2.0293  -12.0920 H   0  0  0  0  0  0
  1  2  1  0  0  0
  1 51  1  0  0  0
  1 52  1  0  0  0
  1 53  1  0  0  0
  2  3  1  0  0  0
  2  5  1  0  0  0
  2 54  1  0  0  0
  3  4  2  0  0  0
  3  6  1  0  0  0
  5 55  1  0  0  0
  5 56  1  0  0  0
  5 57  1  0  0  0
  6  7  1  0  0  0
  6 58  1  0  0  0
  7  8  1  0  0  0
  7 10  1  0  0  0
  7 59  1  0  0  0
  8  9  2  0  0  0
  8 14  1  0  0  0
 10 11  1  0  0  0
 10 12  1  0  0  0
 10 60  1  0  0  0
 11 61  1  0  0  0
 12 62  1  0  0  0
 12 63  1  0  0  0
 12 64  1  0  0  0
 13 15  2  0  0  0
 13 16  1  0  0  0
 13 26  1  0  0  0
 14 16  1  0  0  0
 14 65  1  0  0  0
 16 17  1  0  0  0
 16 66  1  0  0  0
 17 20  1  0  0  0
 17 67  1  0  0  0
 17 68  1  0  0  0
 18 19  1  0  0  0
 18 20  1  0  0  0
 18 69  1  0  0  0
 18 70  1  0  0  0
 19 21  1  0  0  0
 19 71  1  0  0  0
 19 72  1  0  0  0
 20 73  1  0  0  0
 20 74  1  0  0  0
 21 25  1  0  0  0
 21 75  1  0  0  0
 22 24  1  0  0  0
 22 76  1  0  0  0
 22 77  1  0  0  0
 22 78  1  0  0  0
 23 25  2  0  0  0
 24 25  1  0  0  0
 24 79  1  0  0  0
 24 80  1  0  0  0
 26 27  1  0  0  0
 26 81  1  0  0  0
 27 28  1  0  0  0
 27 30  1  0  0  0
 27 82  1  0  0  0
 28 29  2  0  0  0
 28 31  1  0  0  0
 30 83  1  0  0  0
 30 84  1  0  0  0
 30 85  1  0  0  0
 31 32  1  0  0  0
 31 86  1  0  0  0
 32 33  1  0  0  0
 32 35  1  0  0  0
 32 87  1  0  0  0
 33 34  2  0  0  0
 33 36  1  0  0  0
 35 88  1  0  0  0
 35 89  1  0  0  0
 35 90  1  0  0  0
 36 37  1  0  0  0
 36 91  1  0  0  0
 37 38  1  0  0  0
 37 40  1  0  0  0
 37 92  1  0  0  0
 38 39  2  0  0  0
 38 41  1  0  0  0
 40 93  1  0  0  0
 40 94  1  0  0  0
 40 95  1  0  0  0
 41 42  1  0  0  0
 41 96  1  0  0  0
 42 43  1  0  0  0
 42 45  1  0  0  0
 42 97  1  0  0  0
 43 44  2  0  0  0
 43 50  1  0  0  0
 45 46  1  0  0  0
 45 98  1  0  0  0
 45 99  1  0  0  0
 46 47  1  0  0  0
 46100  1  0  0  0
 46101  1  0  0  0
 47 48  1  0  0  0
 47102  1  0  0  0
 47103  1  0  0  0
 48 49  1  0  0  0
 48104  1  0  0  0
 48105  1  0  0  0
 49106  1  0  0  0
 49107  1  0  0  0
 49108  1  0  0  0
M  CHG  3   1   1  49   1  50  -1
M  END
> <s_m_source_file>
../3muk_ligand.sdf

> <i_m_source_file_index>
1

> <s_epik_input>
W0NIM11bQ0gyXUMoPU8pW05IXVtDSDJdW0NIMl1bQ0gyXVtDSDJdW0NASF0oW05IXUMoPU8pW0NASF0oW0NASF0oW09IXSlbQ0gzXSlbTkhdQyg9TylbQ0BASF0oW05IMytdKVtDSDNdKUMoPU8pW05IXVtDQEBIXShbQ0gzXSlDKD1PKVtOSF1bQ0BASF0oW0NIM10pQyg9TylbTkhdW0NAQEhdKFtDSDNdKUMoPU8pW05IXVtDQEhdKEMoPU8pW09IXSlbQ0gyXVtDSDJdW0NIMl1bQ0gyXVtOSDMrXQ==

> <s_epik_cmdline>
J2VwaWtfYXBwJywgJy1pbWFlJywgJ2xpZ2FuZF9wcm8ubWFlJywgJy1vbWFlJywgJ2xpZ2FuZF9wcmVwLm1hZScsICctbXMnLCAnMScsICctcGgnLCAnNycsICctcGh0JywgJzAuNScsICctbnQn

> <r_epik_Ionization_Penalty>
  0.1271

> <r_epik_Ionization_Penalty_Charging>
  0.1271

> <r_epik_Ionization_Penalty_Neutral>
  0.0000

> <r_epik_State_Penalty>
  0.1160

> <r_epik_Charging_Adjusted_Penalty>
0.243092118670759

> <i_epik_Tot_Q>
1

> <i_epik_Tot_abs_Q>
3

$$$$
