3mv5_ligand
                    3D
 Schrodinger Suite 2020-3.
 32 34  0  0  1  0            999 V2000
    7.7030    2.9450   19.0800 C   0  0  2  0  0  0
    8.3500    4.1420   18.4140 C   0  0  0  0  0  0
    7.1770    4.8100   17.6990 C   0  0  0  0  0  0
    6.3720    3.6650   17.2890 N   0  0  0  0  0  0
    6.6440    2.4790   18.0890 C   0  0  0  0  0  0
    5.0950    3.9220   16.7430 C   0  0  0  0  0  0
    4.8810    5.2460   16.5710 N   0  0  0  0  0  0
    3.7070    5.7080   16.0980 C   0  0  0  0  0  0
    2.6930    4.8490   15.7390 N   0  0  0  0  0  0
    4.0540    3.0000   16.3770 C   0  0  0  0  0  0
    2.8290    3.5150   15.8680 C   0  0  0  0  0  0
    1.9170    2.5540   15.5790 N   0  3  0  0  0  0
    2.4280    1.3250   15.8460 C   0  0  0  0  0  0
    3.7330    1.5320   16.3170 C   0  0  0  0  0  0
    4.5770    0.3460   16.7110 C   0  0  0  0  0  0
    7.0470    3.3570   20.3150 N   0  3  0  0  0  0
    8.4281    2.1690   19.3665 H   0  0  0  0  0  0
    8.8022    4.7882   19.1808 H   0  0  0  0  0  0
    9.1295    3.7977   17.7184 H   0  0  0  0  0  0
    6.6512    5.4752   18.3998 H   0  0  0  0  0  0
    7.5526    5.3971   16.8480 H   0  0  0  0  0  0
    7.0458    1.6523   17.4847 H   0  0  0  0  0  0
    5.7551    2.1339   18.6375 H   0  0  0  0  0  0
    3.5572    6.7830   15.9977 H   0  0  0  0  0  0
    2.0290    0.3033   15.7624 H   0  0  0  0  0  0
    5.5624    0.6948   17.0536 H   0  0  0  0  0  0
    4.7044   -0.3178   15.8432 H   0  0  0  0  0  0
    4.0798   -0.2040   17.5236 H   0  0  0  0  0  0
    7.8045    3.6954   21.0373 H   0  0  0  0  0  0
    6.4923    2.5060   20.7370 H   0  0  0  0  0  0
    6.3493    4.1804   20.1025 H   0  0  0  0  0  0
    0.9281    2.8342   15.1870 H   0  0  0  0  0  0
  1  2  1  0  0  0
  1  5  1  0  0  0
  1 16  1  0  0  0
  1 17  1  0  0  0
  2  3  1  0  0  0
  2 18  1  0  0  0
  2 19  1  0  0  0
  3  4  1  0  0  0
  3 20  1  0  0  0
  3 21  1  0  0  0
  4  5  1  0  0  0
  4  6  1  0  0  0
  5 22  1  0  0  0
  5 23  1  0  0  0
  6  7  2  0  0  0
  6 10  1  0  0  0
  7  8  1  0  0  0
  8  9  2  0  0  0
  8 24  1  0  0  0
  9 11  1  0  0  0
 10 11  2  0  0  0
 10 14  1  0  0  0
 11 12  1  0  0  0
 12 13  1  0  0  0
 12 32  1  0  0  0
 13 14  2  0  0  0
 13 25  1  0  0  0
 14 15  1  0  0  0
 15 26  1  0  0  0
 15 27  1  0  0  0
 15 28  1  0  0  0
 16 29  1  0  0  0
 16 30  1  0  0  0
 16 31  1  0  0  0
M  CHG  2  12   1  16   1
M  END
> <s_m_source_file>
../3mv5_ligand.sdf

> <i_m_source_file_index>
1

> <s_epik_input>
W05IMytdW0NAQEhdMVtDSDJdW0NIMl1OKFtDSDJdMSljMm5bY0hdbmMoYzIzKVtuSF1bY0hdYzNbQ0gzXQ==

> <s_epik_cmdline>
J2VwaWtfYXBwJywgJy1pbWFlJywgJ2xpZ2FuZF9wcm8ubWFlJywgJy1vbWFlJywgJ2xpZ2FuZF9wcmVwLm1hZScsICctbXMnLCAnMScsICctcGgnLCAnNycsICctcGh0JywgJzAuNScsICctbnQn

> <r_epik_Ionization_Penalty>
  0.0279

> <r_epik_Ionization_Penalty_Charging>
  0.0017

> <r_epik_Ionization_Penalty_Neutral>
  0.0261

> <r_epik_State_Penalty>
  0.0197

> <r_epik_Charging_Adjusted_Penalty>
0.0214385031664426

> <i_epik_Tot_Q>
2

> <i_epik_Tot_abs_Q>
2

$$$$
