3mvh_ligand
                    3D
 Schrodinger Suite 2020-3.
 52 55  0  0  1  0            999 V2000
   16.3290   -0.7580   29.3170 C   0  0  0  0  0  0
   15.3980   -1.3020   28.2480 C   0  0  0  0  0  0
   14.6320   -2.4920   28.7780 C   0  0  0  0  0  0
   13.3260   -2.4040   29.2320 C   0  0  0  0  0  0
   12.9200   -3.6380   29.5790 N   0  3  0  0  0  0
   13.9460   -4.5060   29.4260 C   0  0  0  0  0  0
   13.8940   -5.8380   29.7230 N   0  0  0  0  0  0
   14.9940   -6.5990   29.5520 C   0  0  0  0  0  0
   16.0980   -6.0270   29.0160 N   0  0  0  0  0  0
   16.1680   -4.7240   28.6610 C   0  0  0  0  0  0
   17.3910   -4.4220   28.1630 N   0  0  0  0  0  0
   18.4990   -5.4200   28.0240 C   0  0  0  0  0  0
   19.5030   -4.7300   27.0680 C   0  0  0  0  0  0
   18.6180   -3.7680   26.3580 C   0  0  2  0  0  0
   17.9770   -4.7660   25.5010 N   0  3  0  0  0  0
   19.2290   -2.7400   25.3980 C   0  0  0  0  0  0
   19.7190   -1.5480   26.0970 N   0  0  0  0  0  0
   20.9200   -1.4910   26.5970 C   0  0  0  0  0  0
   21.6830   -2.4370   26.4770 O   0  0  0  0  0  0
   21.4250   -0.2890   27.3100 C   0  0  0  0  0  0
   21.0200    1.0060   26.9730 C   0  0  0  0  0  0
   21.5380    2.0900   27.6850 C   0  0  0  0  0  0
   22.4440    1.8360   28.7080 C   0  0  0  0  0  0
   22.9750    2.8300   29.4040 F   0  0  0  0  0  0
   22.8680    0.5560   29.0210 C   0  0  0  0  0  0
   22.3600   -0.5100   28.3070 C   0  0  0  0  0  0
   22.7360   -1.7570   28.6280 F   0  0  0  0  0  0
   17.8110   -3.1990   27.5850 C   0  0  0  0  0  0
   15.0450   -3.8740   28.9040 C   0  0  0  0  0  0
   16.8796    0.1068   28.9182 H   0  0  0  0  0  0
   17.0419   -1.5408   29.6152 H   0  0  0  0  0  0
   15.7399   -0.4459   30.1920 H   0  0  0  0  0  0
   14.6851   -0.5192   27.9498 H   0  0  0  0  0  0
   15.9870   -1.6141   27.3730 H   0  0  0  0  0  0
   12.8164   -1.4294   29.2557 H   0  0  0  0  0  0
   14.9944   -7.6506   29.8387 H   0  0  0  0  0  0
   18.9377   -5.6209   29.0125 H   0  0  0  0  0  0
   18.1000   -6.3547   27.6032 H   0  0  0  0  0  0
   20.2939   -4.2423   27.6567 H   0  0  0  0  0  0
   19.9521   -5.4822   26.4028 H   0  0  0  0  0  0
   18.6688   -5.0575   24.6970 H   0  0  0  0  0  0
   17.0632   -4.3394   25.0617 H   0  0  0  0  0  0
   17.7172   -5.6512   26.1001 H   0  0  0  0  0  0
   20.0770   -3.1948   24.8650 H   0  0  0  0  0  0
   18.4682   -2.4197   24.6710 H   0  0  0  0  0  0
   19.0664   -0.6698   26.2104 H   0  0  0  0  0  0
   20.3080    1.1677   26.1637 H   0  0  0  0  0  0
   21.2391    3.1102   27.4444 H   0  0  0  0  0  0
   23.5920    0.3926   29.8192 H   0  0  0  0  0  0
   16.9293   -2.6012   27.3108 H   0  0  0  0  0  0
   18.4212   -2.6410   28.3105 H   0  0  0  0  0  0
   11.8874   -3.8013   29.9213 H   0  0  0  0  0  0
  1  2  1  0  0  0
  1 30  1  0  0  0
  1 31  1  0  0  0
  1 32  1  0  0  0
  2  3  1  0  0  0
  2 33  1  0  0  0
  2 34  1  0  0  0
  3  4  2  0  0  0
  3 29  1  0  0  0
  4  5  1  0  0  0
  4 35  1  0  0  0
  5  6  1  0  0  0
  5 52  1  0  0  0
  6  7  1  0  0  0
  6 29  2  0  0  0
  7  8  2  0  0  0
  8  9  1  0  0  0
  8 36  1  0  0  0
  9 10  2  0  0  0
 10 11  1  0  0  0
 10 29  1  0  0  0
 11 12  1  0  0  0
 11 28  1  0  0  0
 12 13  1  0  0  0
 12 37  1  0  0  0
 12 38  1  0  0  0
 13 14  1  0  0  0
 13 39  1  0  0  0
 13 40  1  0  0  0
 14 15  1  0  0  0
 14 16  1  0  0  0
 14 28  1  0  0  0
 15 41  1  0  0  0
 15 42  1  0  0  0
 15 43  1  0  0  0
 16 17  1  0  0  0
 16 44  1  0  0  0
 16 45  1  0  0  0
 17 18  1  0  0  0
 17 46  1  0  0  0
 18 19  2  0  0  0
 18 20  1  0  0  0
 20 21  2  0  0  0
 20 26  1  0  0  0
 21 22  1  0  0  0
 21 47  1  0  0  0
 22 23  2  0  0  0
 22 48  1  0  0  0
 23 24  1  0  0  0
 23 25  1  0  0  0
 25 26  2  0  0  0
 25 49  1  0  0  0
 26 27  1  0  0  0
 28 50  1  0  0  0
 28 51  1  0  0  0
M  CHG  2   5   1  15   1
M  END
> <s_m_source_file>
../3mvh_ligand.sdf

> <i_m_source_file_index>
1

> <s_epik_input>
W0NIM11bQ0gyXWMoW2NIXVtuSF0xKWMoYzEyKWMobltjSF1uMilOKFtDSDJdMylbQ0gyXVtDSDJdW0NAXTMoW05IMytdKVtDSDJdW05IXUMoPU8pYzRbY0hdW2NIXWMoRilbY0hdYzRG

> <s_epik_cmdline>
J2VwaWtfYXBwJywgJy1pbWFlJywgJ2xpZ2FuZF9wcm8ubWFlJywgJy1vbWFlJywgJ2xpZ2FuZF9wcmVwLm1hZScsICctbXMnLCAnMScsICctcGgnLCAnNycsICctcGh0JywgJzAuNScsICctbnQn

> <r_epik_Ionization_Penalty>
  0.0557

> <r_epik_Ionization_Penalty_Charging>
  0.0083

> <r_epik_Ionization_Penalty_Neutral>
  0.0474

> <r_epik_State_Penalty>
  0.0336

> <r_epik_Charging_Adjusted_Penalty>
0.0418728125958238

> <i_epik_Tot_Q>
2

> <i_epik_Tot_abs_Q>
2

$$$$
