3mvj_ligand
                    3D
 Schrodinger Suite 2020-3.
 32 34  0  0  1  0            999 V2000
   15.9820   14.2380   14.3730 C   0  0  2  0  0  0
   16.6720   13.5410   15.5420 C   0  0  0  0  0  0
   18.1660   13.8180   15.4410 C   0  0  0  0  0  0
   18.2760   14.9270   14.4630 N   0  0  0  0  0  0
   16.9630   15.3250   13.9210 C   0  0  0  0  0  0
   19.3080   15.8820   14.7100 C   0  0  0  0  0  0
   20.1990   15.5920   15.6890 N   0  0  0  0  0  0
   21.2470   16.3890   16.0300 C   0  0  0  0  0  0
   21.4860   17.5680   15.4410 N   0  0  0  0  0  0
   19.5440   17.1070   14.0420 C   0  0  0  0  0  0
   20.6430   17.9380   14.4290 C   0  0  0  0  0  0
   20.6570   19.0510   13.6620 N   0  3  0  0  0  0
   19.6320   19.0330   12.7630 C   0  0  0  0  0  0
   18.9360   17.8850   12.9640 C   0  0  0  0  0  0
   17.7390   17.5150   12.1420 C   0  0  0  0  0  0
   14.7000   14.8250   14.7820 N   0  3  0  0  0  0
   15.7043   13.5405   13.5691 H   0  0  0  0  0  0
   16.2761   13.9355   16.4895 H   0  0  0  0  0  0
   16.4821   12.4589   15.4875 H   0  0  0  0  0  0
   18.5534   14.1046   16.4298 H   0  0  0  0  0  0
   18.6841   12.9124   15.0926 H   0  0  0  0  0  0
   16.9803   15.3692   12.8220 H   0  0  0  0  0  0
   16.6426   16.2979   14.3221 H   0  0  0  0  0  0
   21.9221   16.0535   16.8173 H   0  0  0  0  0  0
   19.3166   19.7374   11.9792 H   0  0  0  0  0  0
   17.3433   16.5477   12.4852 H   0  0  0  0  0  0
   18.0304   17.4374   11.0842 H   0  0  0  0  0  0
   16.9646   18.2883   12.2532 H   0  0  0  0  0  0
   14.0157   14.0251   15.1011 H   0  0  0  0  0  0
   14.2584   15.3687   13.9338 H   0  0  0  0  0  0
   14.8654   15.5210   15.6176 H   0  0  0  0  0  0
   21.4326   19.8156   13.8163 H   0  0  0  0  0  0
  1  2  1  0  0  0
  1  5  1  0  0  0
  1 16  1  0  0  0
  1 17  1  0  0  0
  2  3  1  0  0  0
  2 18  1  0  0  0
  2 19  1  0  0  0
  3  4  1  0  0  0
  3 20  1  0  0  0
  3 21  1  0  0  0
  4  5  1  0  0  0
  4  6  1  0  0  0
  5 22  1  0  0  0
  5 23  1  0  0  0
  6  7  2  0  0  0
  6 10  1  0  0  0
  7  8  1  0  0  0
  8  9  2  0  0  0
  8 24  1  0  0  0
  9 11  1  0  0  0
 10 11  2  0  0  0
 10 14  1  0  0  0
 11 12  1  0  0  0
 12 13  1  0  0  0
 12 32  1  0  0  0
 13 14  2  0  0  0
 13 25  1  0  0  0
 14 15  1  0  0  0
 15 26  1  0  0  0
 15 27  1  0  0  0
 15 28  1  0  0  0
 16 29  1  0  0  0
 16 30  1  0  0  0
 16 31  1  0  0  0
M  CHG  2  12   1  16   1
M  END
> <s_m_source_file>
../3mvj_ligand.sdf

> <i_m_source_file_index>
1

> <s_epik_input>
W05IMytdW0NAQEhdMVtDSDJdW0NIMl1OKFtDSDJdMSljMm5bY0hdbmMoYzIzKVtuSF1bY0hdYzNbQ0gzXQ==

> <s_epik_cmdline>
J2VwaWtfYXBwJywgJy1pbWFlJywgJ2xpZ2FuZF9wcm8ubWFlJywgJy1vbWFlJywgJ2xpZ2FuZF9wcmVwLm1hZScsICctbXMnLCAnMScsICctcGgnLCAnNycsICctcGh0JywgJzAuNScsICctbnQn

> <r_epik_Ionization_Penalty>
  0.0279

> <r_epik_Ionization_Penalty_Charging>
  0.0017

> <r_epik_Ionization_Penalty_Neutral>
  0.0261

> <r_epik_State_Penalty>
  0.0197

> <r_epik_Charging_Adjusted_Penalty>
0.0214385031664428

> <i_epik_Tot_Q>
2

> <i_epik_Tot_abs_Q>
2

$$$$
