3mvl_ligand
                    3D
 Schrodinger Suite 2020-3.
 56 59  0  0  1  0            999 V2000
   -1.7750   -1.9400   37.3310 N   0  0  0  0  0  0
   -1.7500   -0.6890   37.5150 N   0  0  0  0  0  0
   -2.2500    0.1800   36.5750 C   0  0  0  0  0  0
   -2.8010   -0.2780   35.3960 N   0  0  0  0  0  0
   -2.8770   -1.6300   35.0990 C   0  0  0  0  0  0
   -2.3250   -2.5670   36.1360 C   0  0  0  0  0  0
   -2.2020   -3.9020   36.2480 C   0  0  0  0  0  0
   -1.5450   -4.1660   37.5710 C   0  0  0  0  0  0
   -1.2990   -2.9960   38.2000 C   0  0  0  0  0  0
   -1.1700   -5.4880   38.2030 C   0  0  0  0  0  0
   -0.9900   -6.4920   37.5130 O   0  0  0  0  0  0
   -1.0470   -5.4900   39.5610 N   0  0  0  0  0  0
    0.0070   -6.2580   40.2330 C   0  0  0  0  0  0
   -0.2600   -6.3140   41.7390 C   0  0  0  0  0  0
   -1.4400   -7.2210   42.0870 C   0  0  0  0  0  0
   -2.6070   -5.0050   35.3010 C   0  0  0  0  0  0
   -3.4470   -1.9540   33.8950 N   0  0  0  0  0  0
   -3.6210   -1.0130   32.9090 C   0  0  0  0  0  0
   -4.9180   -0.4780   32.5950 C   0  0  0  0  0  0
   -5.0170    0.4910   31.5610 C   0  0  0  0  0  0
   -3.8650    0.9270   30.8470 C   0  0  0  0  0  0
   -2.5750    0.4000   31.1540 C   0  0  0  0  0  0
   -2.4820   -0.5610   32.1800 C   0  0  0  0  0  0
   -1.3060    0.7900   30.4660 C   0  0  0  0  0  0
   -0.2550    0.1860   30.7050 O   0  0  0  0  0  0
   -1.3260    1.8300   29.5650 N   0  0  0  0  0  0
   -0.5850    1.6810   28.3360 C   0  0  0  0  0  0
    0.0980    3.0220   28.4990 C   0  0  0  0  0  0
   -0.7810    2.7040   27.3370 C   0  0  0  0  0  0
   -6.1570   -0.9250   33.3370 C   0  0  0  0  0  0
   -2.2104    1.2526   36.7648 H   0  0  0  0  0  0
   -0.8310   -2.8707   39.1764 H   0  0  0  0  0  0
   -1.7600   -4.8987   40.1543 H   0  0  0  0  0  0
    0.0267   -7.2821   39.8321 H   0  0  0  0  0  0
    0.9803   -5.7766   40.0571 H   0  0  0  0  0  0
    0.6307   -6.7017   42.2551 H   0  0  0  0  0  0
   -0.4873   -5.3033   42.1089 H   0  0  0  0  0  0
   -1.5893   -7.2264   43.1768 H   0  0  0  0  0  0
   -1.2309   -8.2438   41.7404 H   0  0  0  0  0  0
   -2.3489   -6.8454   41.5942 H   0  0  0  0  0  0
   -3.0662   -4.5667   34.4026 H   0  0  0  0  0  0
   -3.3318   -5.6669   35.7976 H   0  0  0  0  0  0
   -1.7182   -5.5853   35.0125 H   0  0  0  0  0  0
   -3.7761   -2.9858   33.7022 H   0  0  0  0  0  0
   -5.9922    0.9081   31.3098 H   0  0  0  0  0  0
   -3.9696    1.6712   30.0575 H   0  0  0  0  0  0
   -1.5036   -0.9741   32.4255 H   0  0  0  0  0  0
   -1.8862    2.7562   29.7606 H   0  0  0  0  0  0
   -0.4757    0.5996   28.1669 H   0  0  0  0  0  0
   -0.2348    3.4914   29.4365 H   0  0  0  0  0  0
    1.1880    2.8772   28.5283 H   0  0  0  0  0  0
   -0.4280    2.3368   26.3620 H   0  0  0  0  0  0
   -1.8508    2.9511   27.2702 H   0  0  0  0  0  0
   -5.8808   -1.6734   34.0944 H   0  0  0  0  0  0
   -6.8700   -1.3684   32.6263 H   0  0  0  0  0  0
   -6.6217   -0.0585   33.8301 H   0  0  0  0  0  0
  1  2  1  0  0  0
  1  6  1  0  0  0
  1  9  1  0  0  0
  2  3  2  0  0  0
  3  4  1  0  0  0
  3 31  1  0  0  0
  4  5  2  0  0  0
  5  6  1  0  0  0
  5 17  1  0  0  0
  6  7  2  0  0  0
  7  8  1  0  0  0
  7 16  1  0  0  0
  8  9  2  0  0  0
  8 10  1  0  0  0
  9 32  1  0  0  0
 10 11  2  0  0  0
 10 12  1  0  0  0
 12 13  1  0  0  0
 12 33  1  0  0  0
 13 14  1  0  0  0
 13 34  1  0  0  0
 13 35  1  0  0  0
 14 15  1  0  0  0
 14 36  1  0  0  0
 14 37  1  0  0  0
 15 38  1  0  0  0
 15 39  1  0  0  0
 15 40  1  0  0  0
 16 41  1  0  0  0
 16 42  1  0  0  0
 16 43  1  0  0  0
 17 18  1  0  0  0
 17 44  1  0  0  0
 18 19  2  0  0  0
 18 23  1  0  0  0
 19 20  1  0  0  0
 19 30  1  0  0  0
 20 21  2  0  0  0
 20 45  1  0  0  0
 21 22  1  0  0  0
 21 46  1  0  0  0
 22 23  2  0  0  0
 22 24  1  0  0  0
 23 47  1  0  0  0
 24 25  2  0  0  0
 24 26  1  0  0  0
 26 27  1  0  0  0
 26 48  1  0  0  0
 27 28  1  0  0  0
 27 29  1  0  0  0
 27 49  1  0  0  0
 28 29  1  0  0  0
 28 50  1  0  0  0
 28 51  1  0  0  0
 29 52  1  0  0  0
 29 53  1  0  0  0
 30 54  1  0  0  0
 30 55  1  0  0  0
 30 56  1  0  0  0
M  END
> <s_m_source_file>
../3mvl_ligand.sdf

> <i_m_source_file_index>
1

> <s_epik_input>
W0NIM11bQ0gyXVtDSDJdW05IXUMoPU8pYyhbY0hdMSljKFtDSDNdKWMobjEyKWMobltjSF1uMilbTkhdYzNjKFtDSDNdKVtjSF1bY0hdYyhbY0hdMylDKD1PKVtOSF1bQ0hdNFtDSDJdW0NIMl00

> <s_epik_cmdline>
J2VwaWtfYXBwJywgJy1pbWFlJywgJ2xpZ2FuZF9wcm8ubWFlJywgJy1vbWFlJywgJ2xpZ2FuZF9wcmVwLm1hZScsICctbXMnLCAnMScsICctcGgnLCAnNycsICctcGh0JywgJzAuNScsICctbnQn

> <r_lp_tautomer_probability>
1

> <r_epik_Ionization_Penalty>
  0.0000

> <r_epik_Ionization_Penalty_Charging>
  0.0000

> <r_epik_Ionization_Penalty_Neutral>
  0.0000

> <r_epik_State_Penalty>
 -0.0000

> <r_epik_Charging_Adjusted_Penalty>
0

> <i_epik_Tot_Q>
0

> <i_epik_Tot_abs_Q>
0

$$$$
