3mw1_ligand
                    3D
 Schrodinger Suite 2020-3.
 54 58  0  0  1  0            999 V2000
   15.9660   12.2870   30.7970 C   0  0  0  0  0  0
   16.7490   13.0010   29.8890 C   0  0  0  0  0  0
   18.1390   12.9890   29.9890 C   0  0  0  0  0  0
   18.7230   12.2390   30.9930 C   0  0  0  0  0  0
   17.9260   11.5500   31.8870 C   0  0  0  0  0  0
   16.5560   11.5610   31.7990 C   0  0  0  0  0  0
   14.6320   12.2730   30.7310 F   0  0  0  0  0  0
   18.4770   10.8320   32.8670 F   0  0  0  0  0  0
   20.1800   12.1580   31.2270 C   0  0  0  0  0  0
   20.9030   10.9760   31.0510 C   0  0  0  0  0  0
   22.2700   10.9710   31.3360 C   0  0  0  0  0  0
   22.8780   12.0950   31.7890 N   0  0  0  0  0  0
   22.1980   13.2450   31.9960 C   0  0  0  0  0  0
   20.8320   13.2940   31.7140 C   0  0  0  0  0  0
   20.3310    9.7920   30.5930 C   0  0  0  0  0  0
   21.1240    8.6580   30.4360 C   0  0  0  0  0  0
   22.4300    8.6820   30.7070 N   0  0  0  0  0  0
   23.0270    9.8120   31.1420 C   0  0  3  0  0  0
   24.4740    9.8390   31.5080 C   0  0  0  0  0  0
   25.4640   10.4260   30.7560 C   0  0  0  0  0  0
   26.7810   10.4150   31.1860 C   0  0  0  0  0  0
   27.1140    9.8230   32.3970 C   0  0  0  0  0  0
   26.1210    9.2430   33.1680 C   0  0  0  0  0  0
   24.8050    9.2590   32.7270 C   0  0  0  0  0  0
   23.5270    8.5040   33.7500 Cl  0  0  0  0  0  0
   25.0630   11.1930   29.2060 Cl  0  0  0  0  0  0
   23.1690    7.4810   30.5010 O   0  0  0  0  0  0
   22.9270   14.4410   32.4690 C   0  0  0  0  0  0
   24.2770   14.0460   33.0750 C   0  0  0  0  0  0
   25.1710   15.2600   33.3220 C   0  0  0  0  0  0
   25.2570   16.0940   32.1370 N   0  3  0  0  0  0
   24.0520   16.4890   31.4340 C   0  0  0  0  0  0
   23.1100   15.3110   31.2290 C   0  0  0  0  0  0
   16.2693   13.5730   29.0947 H   0  0  0  0  0  0
   18.7524   13.5585   29.2908 H   0  0  0  0  0  0
   15.9491   11.0032   32.5122 H   0  0  0  0  0  0
   20.2746   14.2170   31.8734 H   0  0  0  0  0  0
   19.2578    9.7498   30.3555 H   0  0  0  0  0  0
   20.6756    7.7180   30.0821 H   0  0  0  0  0  0
   27.5573   10.8720   30.5724 H   0  0  0  0  0  0
   28.1492    9.8149   32.7381 H   0  0  0  0  0  0
   26.3722    8.7746   34.1196 H   0  0  0  0  0  0
   22.6572    6.5744   30.1459 H   0  0  0  0  0  0
   22.3551   14.9538   33.2564 H   0  0  0  0  0  0
   24.1127   13.5392   34.0373 H   0  0  0  0  0  0
   24.8027   13.3666   32.3879 H   0  0  0  0  0  0
   24.7557   15.8597   34.1454 H   0  0  0  0  0  0
   26.1831   14.9218   33.5889 H   0  0  0  0  0  0
   25.7369   17.0495   32.3952 H   0  0  0  0  0  0
   25.8537   15.5797   31.3692 H   0  0  0  0  0  0
   23.5235   17.2584   32.0160 H   0  0  0  0  0  0
   24.3195   16.8949   30.4473 H   0  0  0  0  0  0
   23.5241   14.7021   30.4118 H   0  0  0  0  0  0
   22.1369   15.7225   30.9229 H   0  0  0  0  0  0
  1  2  2  0  0  0
  1  6  1  0  0  0
  1  7  1  0  0  0
  2  3  1  0  0  0
  2 34  1  0  0  0
  3  4  2  0  0  0
  3 35  1  0  0  0
  4  5  1  0  0  0
  4  9  1  0  0  0
  5  6  2  0  0  0
  5  8  1  0  0  0
  6 36  1  0  0  0
  9 10  2  0  0  0
  9 14  1  0  0  0
 10 11  1  0  0  0
 10 15  1  0  0  0
 11 12  2  0  0  0
 11 18  1  0  0  0
 12 13  1  0  0  0
 13 14  2  0  0  0
 13 28  1  0  0  0
 14 37  1  0  0  0
 15 16  2  0  0  0
 15 38  1  0  0  0
 16 17  1  0  0  0
 16 39  1  0  0  0
 17 18  1  0  0  0
 17 27  1  0  0  0
 18 19  1  0  0  0
 19 20  2  0  0  0
 19 24  1  0  0  0
 20 21  1  0  0  0
 20 26  1  0  0  0
 21 22  2  0  0  0
 21 40  1  0  0  0
 22 23  1  0  0  0
 22 41  1  0  0  0
 23 24  2  0  0  0
 23 42  1  0  0  0
 24 25  1  0  0  0
 27 43  1  0  0  0
 28 29  1  0  0  0
 28 33  1  0  0  0
 28 44  1  0  0  0
 29 30  1  0  0  0
 29 45  1  0  0  0
 29 46  1  0  0  0
 30 31  1  0  0  0
 30 47  1  0  0  0
 30 48  1  0  0  0
 31 32  1  0  0  0
 31 49  1  0  0  0
 31 50  1  0  0  0
 32 33  1  0  0  0
 32 51  1  0  0  0
 32 52  1  0  0  0
 33 53  1  0  0  0
 33 54  1  0  0  0
M  CHG  1  31   1
M  END
> <s_m_source_file>
../3mw1_ligand.sdf

> <i_m_source_file_index>
1

> <s_epik_input>
RmMxW2NIXVtjSF1jKGMoRilbY0hdMSktYzJbY0hdYyhbQ0hdM1tDSDJdW0NIMl1bTkgyK11bQ0gyXVtDSDJdMyluYyhjMjQpW0NIXShOKFtPSF0pW0NIXT1bQ0hdNCljNWMoQ2wpW2NIXVtjSF1bY0hdYzVDbA==

> <s_epik_cmdline>
J2VwaWtfYXBwJywgJy1pbWFlJywgJ2xpZ2FuZF9wcm8ubWFlJywgJy1vbWFlJywgJ2xpZ2FuZF9wcmVwLm1hZScsICctbXMnLCAnMScsICctcGgnLCAnNycsICctcGh0JywgJzAuNScsICctbnQn

> <r_lp_tautomer_probability>
1

> <r_epik_Ionization_Penalty>
  0.0023

> <r_epik_Ionization_Penalty_Charging>
  0.0006

> <r_epik_Ionization_Penalty_Neutral>
  0.0017

> <r_epik_State_Penalty>
 -0.0000

> <r_epik_Charging_Adjusted_Penalty>
0.000597526425910488

> <i_epik_Tot_Q>
1

> <i_epik_Tot_abs_Q>
1

> <s_epik_Chemistry_Notes>
This compound has a N-S or N-O group and may undergo hydrolysis at high or low pH.

$$$$
