3mwe_ligand
                    3D
 Schrodinger Suite 2020-3.
 14 13  0  0  1  0            999 V2000
   28.8650   28.4560   19.2880 O   0  5  0  0  0  0
   27.4130   30.0710   19.5900 O   0  0  0  0  0  0
   28.2830   29.2830   20.0280 C   0  0  0  0  0  0
   28.7010   29.3230   21.5100 C   0  0  2  0  0  0
   29.8430   28.5890   21.8740 O   0  0  0  0  0  0
   27.5680   29.0470   22.5190 C   0  0  1  0  0  0
   26.9250   30.0940   23.2040 O   0  0  0  0  0  0
   26.6240   28.0550   21.9710 C   0  0  0  0  0  0
   25.6600   28.4760   21.3010 O   0  0  0  0  0  0
   26.8580   26.8440   22.2180 O   0  5  0  0  0  0
   29.0984   30.3432   21.6159 H   0  0  0  0  0  0
   30.7581   28.6590   21.2677 H   0  0  0  0  0  0
   28.0494   28.6960   23.4437 H   0  0  0  0  0  0
   27.5192   30.8995   23.6602 H   0  0  0  0  0  0
  1  3  1  0  0  0
  2  3  2  0  0  0
  3  4  1  0  0  0
  4  5  1  0  0  0
  4  6  1  0  0  0
  4 11  1  0  0  0
  5 12  1  0  0  0
  6  7  1  0  0  0
  6  8  1  0  0  0
  6 13  1  0  0  0
  7 14  1  0  0  0
  8  9  2  0  0  0
  8 10  1  0  0  0
M  CHG  2   1  -1  10  -1
M  END
> <s_m_source_file>
../3mwe_ligand.sdf

> <i_m_source_file_index>
1

> <s_epik_input>
W09IXUMoPU8pW0NASF0oW09IXSlbQ0BASF0oW09IXSlDKD1PKVtPSF0=

> <s_epik_cmdline>
J2VwaWtfYXBwJywgJy1pbWFlJywgJ2xpZ2FuZF9wcm8ubWFlJywgJy1vbWFlJywgJ2xpZ2FuZF9wcmVwLm1hZScsICctbXMnLCAnMScsICctcGgnLCAnNycsICctcGh0JywgJzAuNScsICctbnQn

> <r_lp_tautomer_probability>
1

> <r_epik_Ionization_Penalty>
  0.0004

> <r_epik_Ionization_Penalty_Charging>
  0.0004

> <r_epik_Ionization_Penalty_Neutral>
  0.0000

> <r_epik_State_Penalty>
 -0.0000

> <r_epik_Charging_Adjusted_Penalty>
0.000375166810401698

> <i_epik_Tot_Q>
-2

> <i_epik_Tot_abs_Q>
2

$$$$
