3mwu_ligand
                    3D
 Schrodinger Suite 2020-3.
 53 57  0  0  1  0            999 V2000
   27.5020    6.5250    6.6360 N   0  0  0  0  0  0
   27.5800    5.9020    5.4530 C   0  0  0  0  0  0
   26.9970    6.3600    4.3700 N   0  0  0  0  0  0
   26.2910    7.5130    4.4150 C   0  0  0  0  0  0
   26.1750    8.2180    5.5980 C   0  0  0  0  0  0
   26.8030    7.6770    6.7410 C   0  0  0  0  0  0
   26.7600    8.2540    7.9370 N   0  0  0  0  0  0
   25.6070    8.1890    3.5090 N   0  0  0  0  0  0
   25.0830    9.2300    3.9670 N   0  0  0  0  0  0
   21.6760    6.2380    0.7530 N   0  3  0  0  0  0
   24.5690   15.3970    7.9190 C   0  0  0  0  0  0
   23.6320   14.4160    7.5440 C   0  0  0  0  0  0
   28.1600   12.3080    6.8320 C   0  0  0  0  0  0
   27.2250   11.3380    6.4420 C   0  0  0  0  0  0
   25.9290   15.0880    7.8290 C   0  0  0  0  0  0
   27.7150   13.5450    7.2960 C   0  0  0  0  0  0
   24.0770   13.1710    7.0960 C   0  0  0  0  0  0
   22.8730    5.6400    0.1730 C   0  0  0  0  0  0
   21.8120    6.4060    2.2220 C   0  0  0  0  0  0
   24.0360    6.6490    0.3690 C   0  0  0  0  0  0
   23.0550    7.2520    2.5730 C   0  0  0  0  0  0
   24.8570   10.4650    6.1340 C   0  0  0  0  0  0
   25.5050    7.7660    2.1160 C   0  0  0  0  0  0
   25.8520   11.5850    6.5310 C   0  0  0  0  0  0
   25.3700    9.3260    5.2670 C   0  0  0  0  0  0
   26.3660   13.8190    7.3870 C   0  0  0  0  0  0
   25.4340   12.8490    7.0020 C   0  0  0  0  0  0
   24.3350    6.7750    1.8730 C   0  0  0  0  0  0
   28.1514    4.9761    5.3869 H   0  0  0  0  0  0
   27.2689    7.7855    8.7923 H   0  0  0  0  0  0
   26.2155    9.2002    8.0719 H   0  0  0  0  0  0
   21.5053    7.2270    0.3028 H   0  0  0  0  0  0
   20.8094    5.5902    0.5544 H   0  0  0  0  0  0
   24.2415   16.3751    8.2714 H   0  0  0  0  0  0
   22.5643   14.6273    7.6031 H   0  0  0  0  0  0
   29.2275   12.0960    6.7727 H   0  0  0  0  0  0
   27.5742   10.3772    6.0639 H   0  0  0  0  0  0
   26.6673   15.8408    8.1052 H   0  0  0  0  0  0
   28.4405   14.3036    7.5899 H   0  0  0  0  0  0
   23.3389   12.4221    6.8088 H   0  0  0  0  0  0
   23.0944    4.6921    0.6853 H   0  0  0  0  0  0
   22.7053    5.4480   -0.8970 H   0  0  0  0  0  0
   20.9191    6.9125    2.6173 H   0  0  0  0  0  0
   21.9136    5.4186    2.6961 H   0  0  0  0  0  0
   24.9297    6.2856   -0.1595 H   0  0  0  0  0  0
   23.7435    7.6289   -0.0362 H   0  0  0  0  0  0
   22.8843    8.2964    2.2730 H   0  0  0  0  0  0
   23.2352    7.2067    3.6572 H   0  0  0  0  0  0
   24.4698    9.9797    7.0421 H   0  0  0  0  0  0
   24.0215   10.9009    5.5666 H   0  0  0  0  0  0
   25.3387    8.6457    1.4769 H   0  0  0  0  0  0
   26.4374    7.2656    1.8155 H   0  0  0  0  0  0
   24.6328    5.7980    2.2814 H   0  0  0  0  0  0
  1  2  1  0  0  0
  1  6  2  0  0  0
  2  3  2  0  0  0
  2 29  1  0  0  0
  3  4  1  0  0  0
  4  5  2  0  0  0
  4  8  1  0  0  0
  5  6  1  0  0  0
  5 25  1  0  0  0
  6  7  1  0  0  0
  7 30  1  0  0  0
  7 31  1  0  0  0
  8  9  1  0  0  0
  8 23  1  0  0  0
  9 25  2  0  0  0
 10 18  1  0  0  0
 10 19  1  0  0  0
 10 32  1  0  0  0
 10 33  1  0  0  0
 11 12  2  0  0  0
 11 15  1  0  0  0
 11 34  1  0  0  0
 12 17  1  0  0  0
 12 35  1  0  0  0
 13 14  1  0  0  0
 13 16  2  0  0  0
 13 36  1  0  0  0
 14 24  2  0  0  0
 14 37  1  0  0  0
 15 26  2  0  0  0
 15 38  1  0  0  0
 16 26  1  0  0  0
 16 39  1  0  0  0
 17 27  2  0  0  0
 17 40  1  0  0  0
 18 20  1  0  0  0
 18 41  1  0  0  0
 18 42  1  0  0  0
 19 21  1  0  0  0
 19 43  1  0  0  0
 19 44  1  0  0  0
 20 28  1  0  0  0
 20 45  1  0  0  0
 20 46  1  0  0  0
 21 28  1  0  0  0
 21 47  1  0  0  0
 21 48  1  0  0  0
 22 24  1  0  0  0
 22 25  1  0  0  0
 22 49  1  0  0  0
 22 50  1  0  0  0
 23 28  1  0  0  0
 23 51  1  0  0  0
 23 52  1  0  0  0
 24 27  1  0  0  0
 26 27  1  0  0  0
 28 53  1  0  0  0
M  CHG  1  10   1
M  END
> <s_m_source_file>
../3mwu_ligand.sdf

> <i_m_source_file_index>
1

> <s_epik_input>
W2NIXTFbY0hdW2NIXVtjSF1jKGMxMiljKFtjSF1bY0hdW2NIXTIpW0NIMl1jKGMoYzM0KWMoW05IMl0pbltjSF1uMylubjRbQ0gyXVtDSF01W0NIMl1bQ0gyXVtOSDIrXVtDSDJdW0NIMl01

> <s_epik_cmdline>
J2VwaWtfYXBwJywgJy1pbWFlJywgJ2xpZ2FuZF9wcm8ubWFlJywgJy1vbWFlJywgJ2xpZ2FuZF9wcmVwLm1hZScsICctbXMnLCAnMScsICctcGgnLCAnNycsICctcGh0JywgJzAuNScsICctbnQn

> <r_lp_tautomer_probability>
1

> <r_epik_Ionization_Penalty>
  0.0014

> <r_epik_Ionization_Penalty_Charging>
  0.0004

> <r_epik_Ionization_Penalty_Neutral>
  0.0010

> <r_epik_State_Penalty>
 -0.0000

> <r_epik_Charging_Adjusted_Penalty>
0.000433073767326883

> <i_epik_Tot_Q>
1

> <i_epik_Tot_abs_Q>
1

$$$$
