3mww_ligand
                    3D
 Schrodinger Suite 2020-3.
 63 67  0  0  1  0            999 V2000
  -24.1970  -17.1140  -30.7020 C   0  0  0  0  0  0
  -25.5640  -16.6820  -30.6390 C   0  0  0  0  0  0
  -25.9310  -15.5560  -29.8260 C   0  0  0  0  0  0
  -24.9300  -14.8660  -29.0860 C   0  0  0  0  0  0
  -23.5600  -15.3020  -29.1520 C   0  0  0  0  0  0
  -23.1990  -16.4180  -29.9560 C   0  0  0  0  0  0
  -27.1650  -14.9330  -29.5890 N   0  0  0  0  0  0
  -26.9680  -13.8530  -28.6980 C   0  0  0  0  0  0
  -25.5910  -13.7850  -28.3720 C   0  0  0  0  0  0
  -24.9180  -12.7520  -27.4310 C   0  0  0  0  0  0
  -24.4190  -13.3960  -26.1080 C   0  0  0  0  0  0
  -23.6980  -12.3820  -25.1970 C   0  0  0  0  0  0
  -22.5450  -11.6570  -25.9200 C   0  0  0  0  0  0
  -22.9880  -11.0190  -27.2470 C   0  0  0  0  0  0
  -23.7540  -11.9990  -28.1580 C   0  0  0  0  0  0
  -27.9990  -12.9520  -28.1970 C   0  0  0  0  0  0
  -28.8590  -12.1300  -28.9630 C   0  0  0  0  0  0
  -29.6600  -11.4590  -28.0620 C   0  0  0  0  0  0
  -29.3420  -11.8210  -26.7830 O   0  0  0  0  0  0
  -28.3300  -12.7310  -26.8730 C   0  0  0  0  0  0
  -23.8070  -18.3030  -31.5620 C   0  0  0  0  0  0
  -22.5830  -18.6480  -31.5900 O   0  0  0  0  0  0
  -24.7220  -18.9000  -32.2150 O   0  5  0  0  0  0
  -28.4550  -15.3630  -30.1920 C   0  0  0  0  0  0
  -28.7160  -14.6990  -31.5660 C   0  0  0  0  0  0
  -27.7790  -14.2250  -32.2290 O   0  0  0  0  0  0
  -30.0690  -14.6360  -32.0500 N   0  0  0  0  0  0
  -31.2100  -15.2150  -31.2750 C   0  0  0  0  0  0
  -32.4180  -14.2520  -31.1930 C   0  0  0  0  0  0
  -32.7500  -13.5820  -32.5500 C   0  0  0  0  0  0
  -31.5090  -12.9780  -33.2360 C   0  0  0  0  0  0
  -30.3530  -13.9900  -33.3570 C   0  0  0  0  0  0
  -33.8470  -12.4940  -32.3930 C   0  0  0  0  0  0
  -33.7240  -11.6300  -31.4640 O   0  5  0  0  0  0
  -34.8150  -12.5090  -33.2140 O   0  0  0  0  0  0
  -26.3271  -17.2105  -31.2104 H   0  0  0  0  0  0
  -22.7950  -14.7740  -28.5827 H   0  0  0  0  0  0
  -22.1593  -16.7421  -30.0026 H   0  0  0  0  0  0
  -25.6973  -12.0247  -27.1594 H   0  0  0  0  0  0
  -25.2765  -13.8028  -25.5520 H   0  0  0  0  0  0
  -23.7132  -14.2076  -26.3386 H   0  0  0  0  0  0
  -24.4155  -11.6216  -24.8550 H   0  0  0  0  0  0
  -23.2764  -12.9061  -24.3266 H   0  0  0  0  0  0
  -22.1531  -10.8570  -25.2747 H   0  0  0  0  0  0
  -21.7421  -12.3754  -26.1420 H   0  0  0  0  0  0
  -23.6511  -10.1660  -27.0404 H   0  0  0  0  0  0
  -22.1031  -10.6701  -27.7996 H   0  0  0  0  0  0
  -23.0259  -12.7302  -28.5390 H   0  0  0  0  0  0
  -24.1619  -11.4164  -28.9971 H   0  0  0  0  0  0
  -28.8838  -12.0439  -30.0493 H   0  0  0  0  0  0
  -30.4358  -10.7424  -28.3317 H   0  0  0  0  0  0
  -27.8505  -13.2151  -26.0222 H   0  0  0  0  0  0
  -28.4460  -16.4532  -30.3384 H   0  0  0  0  0  0
  -29.2826  -15.0901  -29.5207 H   0  0  0  0  0  0
  -31.5484  -16.1431  -31.7589 H   0  0  0  0  0  0
  -30.8817  -15.4354  -30.2485 H   0  0  0  0  0  0
  -33.3093  -14.8087  -30.8679 H   0  0  0  0  0  0
  -32.2011  -13.4524  -30.4694 H   0  0  0  0  0  0
  -33.1243  -14.3857  -33.2011 H   0  0  0  0  0  0
  -31.7761  -12.6450  -34.2498 H   0  0  0  0  0  0
  -31.1483  -12.1191  -32.6511 H   0  0  0  0  0  0
  -29.4553  -13.4587  -33.7061 H   0  0  0  0  0  0
  -30.6335  -14.7583  -34.0925 H   0  0  0  0  0  0
  1  2  2  0  0  0
  1  6  1  0  0  0
  1 21  1  0  0  0
  2  3  1  0  0  0
  2 36  1  0  0  0
  3  4  2  0  0  0
  3  7  1  0  0  0
  4  5  1  0  0  0
  4  9  1  0  0  0
  5  6  2  0  0  0
  5 37  1  0  0  0
  6 38  1  0  0  0
  7  8  1  0  0  0
  7 24  1  0  0  0
  8  9  2  0  0  0
  8 16  1  0  0  0
  9 10  1  0  0  0
 10 11  1  0  0  0
 10 15  1  0  0  0
 10 39  1  0  0  0
 11 12  1  0  0  0
 11 40  1  0  0  0
 11 41  1  0  0  0
 12 13  1  0  0  0
 12 42  1  0  0  0
 12 43  1  0  0  0
 13 14  1  0  0  0
 13 44  1  0  0  0
 13 45  1  0  0  0
 14 15  1  0  0  0
 14 46  1  0  0  0
 14 47  1  0  0  0
 15 48  1  0  0  0
 15 49  1  0  0  0
 16 17  1  0  0  0
 16 20  2  0  0  0
 17 18  2  0  0  0
 17 50  1  0  0  0
 18 19  1  0  0  0
 18 51  1  0  0  0
 19 20  1  0  0  0
 20 52  1  0  0  0
 21 22  2  0  0  0
 21 23  1  0  0  0
 24 25  1  0  0  0
 24 53  1  0  0  0
 24 54  1  0  0  0
 25 26  2  0  0  0
 25 27  1  0  0  0
 27 28  1  0  0  0
 27 32  1  0  0  0
 28 29  1  0  0  0
 28 55  1  0  0  0
 28 56  1  0  0  0
 29 30  1  0  0  0
 29 57  1  0  0  0
 29 58  1  0  0  0
 30 31  1  0  0  0
 30 33  1  0  0  0
 30 59  1  0  0  0
 31 32  1  0  0  0
 31 60  1  0  0  0
 31 61  1  0  0  0
 32 62  1  0  0  0
 32 63  1  0  0  0
 33 34  1  0  0  0
 33 35  2  0  0  0
M  CHG  2  23  -1  34  -1
M  END
> <s_m_source_file>
../3mww_ligand.sdf

> <i_m_source_file_index>
1

> <s_epik_input>
W0NIMl0xW0NIMl1bQ0gyXVtDSDJdW0NIMl1bQ0hdMWMoYyhjMjMpW2NIXVtjSF1jKFtjSF0yKUMoPU8pW09IXSljKC1jNFtjSF1bY0hdb1tjSF00KW4zW0NIMl1DKD1PKU41W0NIMl1bQ0gyXVtDSF0oW0NIMl1bQ0gyXTUpQyg9TylbT0hd

> <s_epik_cmdline>
J2VwaWtfYXBwJywgJy1pbWFlJywgJ2xpZ2FuZF9wcm8ubWFlJywgJy1vbWFlJywgJ2xpZ2FuZF9wcmVwLm1hZScsICctbXMnLCAnMScsICctcGgnLCAnNycsICctcGh0JywgJzAuNScsICctbnQn

> <r_lp_tautomer_probability>
1

> <r_epik_Ionization_Penalty>
  0.0021

> <r_epik_Ionization_Penalty_Charging>
  0.0021

> <r_epik_Ionization_Penalty_Neutral>
  0.0000

> <r_epik_State_Penalty>
 -0.0000

> <r_epik_Charging_Adjusted_Penalty>
0.00214019219343725

> <i_epik_Tot_Q>
-2

> <i_epik_Tot_abs_Q>
2

$$$$
