3mxc_ligand
                    3D
 Schrodinger Suite 2020-3.
104105  0  0  1  0            999 V2000
   11.7660   41.4570   45.8180 N   0  3  0  0  0  0
   10.5700   40.6370   45.8020 C   0  0  0  0  0  0
    9.2920   41.4510   45.7980 C   0  0  0  0  0  0
    9.3160   42.6820   45.7390 O   0  0  0  0  0  0
    8.1640   40.7610   45.8910 N   0  0  0  0  0  0
    6.8810   41.4380   45.8610 C   0  0  2  0  0  0
    6.0670   41.2680   47.1570 C   0  0  0  0  0  0
    6.2620   40.3080   47.9060 O   0  0  0  0  0  0
    6.0490   41.0120   44.7100 C   0  0  0  0  0  0
    6.7260   41.2860   43.3710 C   0  0  0  0  0  0
    7.5800   40.3510   42.8140 C   0  0  0  0  0  0
    6.4750   42.4420   42.6490 C   0  0  0  0  0  0
    8.2030   40.5860   41.5830 C   0  0  0  0  0  0
    7.1030   42.7150   41.4280 C   0  0  0  0  0  0
    7.9630   41.7590   40.8890 C   0  0  0  0  0  0
    8.4930   41.9930   39.7260 O   0  0  0  0  0  0
    9.8880   42.7790   39.5090 P   0  0  0  0  0  0
   10.9500   41.7800   39.3660 O   0  0  0  0  0  0
   10.0840   43.7030   40.6950 O   0  5  0  0  0  0
    9.6100   43.5490   38.2500 O   0  5  0  0  0  0
    5.1760   42.2200   47.4270 N   0  0  0  0  0  0
    4.3420   42.1870   48.6310 C   0  0  2  0  0  0
    3.3350   41.0460   48.6240 C   0  0  0  0  0  0
    2.9860   40.5060   49.6740 O   0  0  0  0  0  0
    3.5710   43.5000   48.7950 C   0  0  0  0  0  0
    4.4260   44.7280   49.0070 C   0  0  0  0  0  0
    5.2610   44.6450   50.2650 C   0  0  0  0  0  0
    4.6920   44.4090   51.3510 O   0  5  0  0  0  0
    6.4910   44.8220   50.1730 O   0  0  0  0  0  0
    2.8480   40.6930   47.4420 N   0  0  0  0  0  0
    1.8710   39.6230   47.3330 C   0  0  2  0  0  0
    2.5380   38.3210   46.9190 C   0  0  0  0  0  0
    3.3180   38.2850   45.9670 O   0  0  0  0  0  0
    0.7770   40.0070   46.3250 C   0  0  0  0  0  0
    1.3330   40.3220   44.9510 C   0  0  0  0  0  0
    2.3960   40.9280   44.8280 O   0  0  0  0  0  0
    0.6070   39.9260   43.9090 N   0  0  0  0  0  0
    2.2450   37.1680   47.8100 N   0  0  0  0  0  0
    2.8460   35.8600   47.5290 C   0  0  2  0  0  0
    2.6190   35.5960   46.0260 C   0  0  0  0  0  0
    1.5280   35.8480   45.5200 O   0  0  0  0  0  0
    2.0800   34.9230   48.4730 C   0  0  0  0  0  0
    0.7600   35.6300   48.6780 C   0  0  0  0  0  0
    1.1720   37.0630   48.8110 C   0  0  0  0  0  0
    3.6080   35.1780   45.1010 N   0  0  0  0  0  0
    3.4690   35.0130   43.6200 C   0  0  2  0  0  0
    3.2050   33.5920   43.0030 C   0  0  0  0  0  0
    3.1290   33.4310   41.7730 O   0  0  0  0  0  0
    4.7060   35.6540   42.9680 C   0  0  2  0  0  0
    5.8650   34.9210   43.3910 O   0  0  0  0  0  0
    4.8360   37.1200   43.3620 C   0  0  0  0  0  0
    3.0830   32.6460   43.9050 N   0  0  0  0  0  0
    2.7920   31.2680   43.6390 C   0  0  2  0  0  0
    1.5310   30.9260   44.3810 C   0  0  0  0  0  0
    1.2900   31.4290   45.4780 O   0  0  0  0  0  0
    3.9210   30.3680   44.1290 C   0  0  0  0  0  0
    4.0690   30.4590   45.5320 C   0  0  0  0  0  0
    0.6100   30.4090   43.7490 O   0  5  0  0  0  0
   12.6548   40.8090   45.8201 H   0  0  0  0  0  0
   11.7679   42.0850   46.7211 H   0  0  0  0  0  0
   11.7824   42.0989   44.9249 H   0  0  0  0  0  0
   10.5681   40.0090   44.8989 H   0  0  0  0  0  0
   10.5536   39.9950   46.6951 H   0  0  0  0  0  0
    8.2061   39.6664   45.9916 H   0  0  0  0  0  0
    7.1800   42.4867   45.7168 H   0  0  0  0  0  0
    5.8550   39.9314   44.7779 H   0  0  0  0  0  0
    5.0940   41.5577   44.7260 H   0  0  0  0  0  0
    7.7706   39.4167   43.3421 H   0  0  0  0  0  0
    5.7626   43.1650   43.0463 H   0  0  0  0  0  0
    8.8815   39.8405   41.1683 H   0  0  0  0  0  0
    6.9232   43.6564   40.9089 H   0  0  0  0  0  0
    5.0768   43.0499   46.7118 H   0  0  0  0  0  0
    5.0709   42.0287   49.4395 H   0  0  0  0  0  0
    2.9718   43.6886   47.8920 H   0  0  0  0  0  0
    2.9057   43.4280   49.6680 H   0  0  0  0  0  0
    5.1106   44.8497   48.1547 H   0  0  0  0  0  0
    3.7803   45.6148   49.0882 H   0  0  0  0  0  0
    3.1907   41.2190   46.5387 H   0  0  0  0  0  0
    1.4484   39.5062   48.3418 H   0  0  0  0  0  0
    0.0676   39.1731   46.2185 H   0  0  0  0  0  0
    0.2432   40.8988   46.6852 H   0  0  0  0  0  0
   -0.3379   39.3865   44.0703 H   0  0  0  0  0  0
    0.9516   40.1381   42.8861 H   0  0  0  0  0  0
    3.9273   35.7874   47.7176 H   0  0  0  0  0  0
    1.9584   33.9399   47.9947 H   0  0  0  0  0  0
    2.6428   34.8072   49.4110 H   0  0  0  0  0  0
    0.1103   35.4531   47.8081 H   0  0  0  0  0  0
    0.2728   35.2415   49.5845 H   0  0  0  0  0  0
    1.5738   37.3050   49.8060 H   0  0  0  0  0  0
    0.3659   37.7680   48.5597 H   0  0  0  0  0  0
    4.5697   34.9644   45.5903 H   0  0  0  0  0  0
    2.5195   35.5381   43.4390 H   0  0  0  0  0  0
    4.6672   35.5853   41.8708 H   0  0  0  0  0  0
    5.9385   33.8426   43.1868 H   0  0  0  0  0  0
    3.9418   37.6690   43.0319 H   0  0  0  0  0  0
    5.7280   37.5505   42.8835 H   0  0  0  0  0  0
    4.9320   37.1988   44.4550 H   0  0  0  0  0  0
    3.2248   32.9882   44.9408 H   0  0  0  0  0  0
    2.6764   31.1691   42.5496 H   0  0  0  0  0  0
    3.6983   29.3237   43.8649 H   0  0  0  0  0  0
    4.8653   30.6729   43.6543 H   0  0  0  0  0  0
    4.8883   29.8012   45.8577 H   0  0  0  0  0  0
    3.1334   30.1487   46.0203 H   0  0  0  0  0  0
    4.3004   31.4979   45.8096 H   0  0  0  0  0  0
  1  2  1  0  0  0
  1 59  1  0  0  0
  1 60  1  0  0  0
  1 61  1  0  0  0
  2  3  1  0  0  0
  2 62  1  0  0  0
  2 63  1  0  0  0
  3  4  2  0  0  0
  3  5  1  0  0  0
  5  6  1  0  0  0
  5 64  1  0  0  0
  6  7  1  0  0  0
  6  9  1  0  0  0
  6 65  1  0  0  0
  7  8  2  0  0  0
  7 21  1  0  0  0
  9 10  1  0  0  0
  9 66  1  0  0  0
  9 67  1  0  0  0
 10 11  2  0  0  0
 10 12  1  0  0  0
 11 13  1  0  0  0
 11 68  1  0  0  0
 12 14  2  0  0  0
 12 69  1  0  0  0
 13 15  2  0  0  0
 13 70  1  0  0  0
 14 15  1  0  0  0
 14 71  1  0  0  0
 15 16  1  0  0  0
 16 17  1  0  0  0
 17 18  2  0  0  0
 17 19  1  0  0  0
 17 20  1  0  0  0
 21 22  1  0  0  0
 21 72  1  0  0  0
 22 23  1  0  0  0
 22 25  1  0  0  0
 22 73  1  0  0  0
 23 24  2  0  0  0
 23 30  1  0  0  0
 25 26  1  0  0  0
 25 74  1  0  0  0
 25 75  1  0  0  0
 26 27  1  0  0  0
 26 76  1  0  0  0
 26 77  1  0  0  0
 27 28  1  0  0  0
 27 29  2  0  0  0
 30 31  1  0  0  0
 30 78  1  0  0  0
 31 32  1  0  0  0
 31 34  1  0  0  0
 31 79  1  0  0  0
 32 33  2  0  0  0
 32 38  1  0  0  0
 34 35  1  0  0  0
 34 80  1  0  0  0
 34 81  1  0  0  0
 35 36  2  0  0  0
 35 37  1  0  0  0
 37 82  1  0  0  0
 37 83  1  0  0  0
 38 39  1  0  0  0
 38 44  1  0  0  0
 39 40  1  0  0  0
 39 42  1  0  0  0
 39 84  1  0  0  0
 40 41  2  0  0  0
 40 45  1  0  0  0
 42 43  1  0  0  0
 42 85  1  0  0  0
 42 86  1  0  0  0
 43 44  1  0  0  0
 43 87  1  0  0  0
 43 88  1  0  0  0
 44 89  1  0  0  0
 44 90  1  0  0  0
 45 46  1  0  0  0
 45 91  1  0  0  0
 46 47  1  0  0  0
 46 49  1  0  0  0
 46 92  1  0  0  0
 47 48  2  0  0  0
 47 52  1  0  0  0
 49 50  1  0  0  0
 49 51  1  0  0  0
 49 93  1  0  0  0
 50 94  1  0  0  0
 51 95  1  0  0  0
 51 96  1  0  0  0
 51 97  1  0  0  0
 52 53  1  0  0  0
 52 98  1  0  0  0
 53 54  1  0  0  0
 53 56  1  0  0  0
 53 99  1  0  0  0
 54 55  2  0  0  0
 54 58  1  0  0  0
 56 57  1  0  0  0
 56100  1  0  0  0
 56101  1  0  0  0
 57102  1  0  0  0
 57103  1  0  0  0
 57104  1  0  0  0
M  CHG  5   1   1  19  -1  20  -1  28  -1  58  -1
M  END
> <s_m_source_file>
../3mxc_ligand.sdf

> <i_m_source_file_index>
1

> <s_epik_input>
Tz1QKFtPSF0pKFtPSF0pT2MoW2NIXVtjSF0xKVtjSF1bY0hdYzFbQ0gyXVtDQEhdKFtOSF1DKD1PKVtDSDJdW05IMytdKUMoPU8pW05IXVtDQEBIXShbQ0gyXVtDSDJdQyg9TylbT0hdKUMoPU8pW05IXVtDQEBIXShbQ0gyXUMoPU8pW05IMl0pQyg9TylOMltDQEBIXShbQ0gyXVtDSDJdW0NIMl0yKUMoPU8pW05IXVtDQEBIXShbQ0BIXShbT0hdKVtDSDNdKUMoPU8pW05IXVtDQEhdKEMoPU8pW09IXSlbQ0gyXVtDSDNd

> <s_epik_cmdline>
J2VwaWtfYXBwJywgJy1pbWFlJywgJ2xpZ2FuZF9wcm8ubWFlJywgJy1vbWFlJywgJ2xpZ2FuZF9wcmVwLm1hZScsICctbXMnLCAnMScsICctcGgnLCAnNycsICctcGh0JywgJzAuNScsICctbnQn

> <r_epik_Ionization_Penalty>
  0.2159

> <r_epik_Ionization_Penalty_Charging>
  0.2159

> <r_epik_Ionization_Penalty_Neutral>
  0.0000

> <r_epik_State_Penalty>
  0.1812

> <r_epik_Charging_Adjusted_Penalty>
0.397099014724711

> <i_epik_Tot_Q>
-3

> <i_epik_Tot_abs_Q>
5

$$$$
