3mxd_ligand
                    3D
 Schrodinger Suite 2020-3.
 79 83  0  0  1  0            999 V2000
   15.5940   34.6280   17.5780 C   0  0  0  0  0  0
   16.5830   35.2700   16.8930 C   0  0  0  0  0  0
   17.3850   34.5920   15.9820 C   0  0  0  0  0  0
   17.1880   33.2200   15.7690 C   0  0  0  0  0  0
   16.1670   32.5700   16.4850 C   0  0  0  0  0  0
   15.3590   33.2750   17.4000 C   0  0  0  0  0  0
   18.1320   32.3950   14.7330 S   0  0  0  0  0  0
   17.4070   31.3060   14.1440 O   0  0  0  0  0  0
   18.6610   33.2660   13.7250 O   0  0  0  0  0  0
   19.4170   31.7280   15.4680 N   0  0  1  0  0  0
   20.1590   32.6990   16.3170 C   0  0  0  0  0  0
   21.6660   32.4110   16.2990 C   0  0  0  0  0  0
   22.2490   32.3900   14.8830 C   0  0  0  0  0  0
   22.4090   33.4180   17.1830 C   0  0  0  0  0  0
   19.1040   30.4620   16.1770 C   0  0  0  0  0  0
   20.0240   29.3670   15.6180 C   0  0  1  0  0  0
   15.6290   36.8020   18.2740 C   0  0  0  0  0  0
   19.9740   28.2150   16.4760 O   0  0  0  0  0  0
   19.6900   28.9930   14.1710 C   0  0  1  0  0  0
   14.9790   35.5160   18.4070 O   0  0  0  0  0  0
   20.7970   28.2280   13.6030 N   0  0  0  0  0  0
   21.5540   28.6340   12.5730 C   0  0  0  0  0  0
   21.4530   29.7310   12.0450 O   0  0  0  0  0  0
   22.5400   26.1590   10.2400 N   0  0  0  0  0  0
   22.6210   27.5950   10.5190 C   0  0  0  0  0  0
   22.3000   25.4650   11.3380 C   0  0  0  0  0  0
   22.2060   24.2530   11.4270 O   0  0  0  0  0  0
   22.2200   26.3240   12.4740 O   0  0  0  0  0  0
   22.5720   27.6530   12.0490 C   0  0  2  0  0  0
   16.6050   36.5940   17.2460 O   0  0  0  0  0  0
   18.3640   28.2290   14.0370 C   0  0  0  0  0  0
   18.5270   26.6040   12.1230 C   0  0  0  0  0  0
   18.3850   26.2740   10.7870 C   0  0  0  0  0  0
   17.8680   27.2090    9.9000 C   0  0  0  0  0  0
   17.5120   28.4750   10.3520 C   0  0  0  0  0  0
   17.6540   28.8020   11.6920 C   0  0  0  0  0  0
   18.1630   27.8690   12.5830 C   0  0  0  0  0  0
   23.2920   24.4370    6.5160 C   0  0  0  0  0  0
   24.2980   24.5140    7.4800 C   0  0  0  0  0  0
   24.0320   25.1000    8.7180 C   0  0  0  0  0  0
   22.7680   25.5820    8.9870 C   0  0  0  0  0  0
   21.7590   25.5100    8.0270 C   0  0  0  0  0  0
   22.0150   24.9310    6.7950 C   0  0  0  0  0  0
   25.0070   25.1830    9.6750 O   0  0  0  0  0  0
   18.1635   35.1245   15.4357 H   0  0  0  0  0  0
   15.9978   31.5044   16.3300 H   0  0  0  0  0  0
   14.5689   32.7677   17.9536 H   0  0  0  0  0  0
   19.9915   33.7186   15.9398 H   0  0  0  0  0  0
   19.8000   32.6282   17.3544 H   0  0  0  0  0  0
   21.8097   31.3996   16.7070 H   0  0  0  0  0  0
   21.6987   31.6605   14.2707 H   0  0  0  0  0  0
   23.3104   32.1047   14.9277 H   0  0  0  0  0  0
   22.1566   33.3898   14.4336 H   0  0  0  0  0  0
   21.9712   33.4130   18.1921 H   0  0  0  0  0  0
   22.3177   34.4245   16.7487 H   0  0  0  0  0  0
   23.4715   33.1394   17.2428 H   0  0  0  0  0  0
   19.2794   30.5925   17.2551 H   0  0  0  0  0  0
   18.0501   30.1971   16.0064 H   0  0  0  0  0  0
   21.0682   29.7121   15.6420 H   0  0  0  0  0  0
   14.8851   37.5613   17.9910 H   0  0  0  0  0  0
   16.0906   37.0805   19.2328 H   0  0  0  0  0  0
   20.1904   28.3189   17.5495 H   0  0  0  0  0  0
   19.5983   29.9142   13.5768 H   0  0  0  0  0  0
   21.0588   27.2453   14.0223 H   0  0  0  0  0  0
   23.5608   27.9954   10.1109 H   0  0  0  0  0  0
   21.7691   28.1084   10.0492 H   0  0  0  0  0  0
   23.5413   27.9509   12.4753 H   0  0  0  0  0  0
   18.4040   27.3152   14.6480 H   0  0  0  0  0  0
   17.5371   28.8661   14.3839 H   0  0  0  0  0  0
   18.9267   25.8691   12.8218 H   0  0  0  0  0  0
   18.6773   25.2855   10.4326 H   0  0  0  0  0  0
   17.7411   26.9504    8.8487 H   0  0  0  0  0  0
   17.1203   29.2122    9.6511 H   0  0  0  0  0  0
   17.3656   29.7921   12.0450 H   0  0  0  0  0  0
   23.5026   23.9909    5.5440 H   0  0  0  0  0  0
   25.2903   24.1169    7.2661 H   0  0  0  0  0  0
   20.7688   25.9094    8.2462 H   0  0  0  0  0  0
   21.2249   24.8611    6.0474 H   0  0  0  0  0  0
   26.0168   24.8002    9.4660 H   0  0  0  0  0  0
  1  2  2  0  0  0
  1  6  1  0  0  0
  1 20  1  0  0  0
  2  3  1  0  0  0
  2 30  1  0  0  0
  3  4  2  0  0  0
  3 45  1  0  0  0
  4  5  1  0  0  0
  4  7  1  0  0  0
  5  6  2  0  0  0
  5 46  1  0  0  0
  6 47  1  0  0  0
  7  8  2  0  0  0
  7  9  2  0  0  0
  7 10  1  0  0  0
 10 11  1  0  0  0
 10 15  1  0  0  0
 11 12  1  0  0  0
 11 48  1  0  0  0
 11 49  1  0  0  0
 12 13  1  0  0  0
 12 14  1  0  0  0
 12 50  1  0  0  0
 13 51  1  0  0  0
 13 52  1  0  0  0
 13 53  1  0  0  0
 14 54  1  0  0  0
 14 55  1  0  0  0
 14 56  1  0  0  0
 15 16  1  0  0  0
 15 57  1  0  0  0
 15 58  1  0  0  0
 16 18  1  0  0  0
 16 19  1  0  0  0
 16 59  1  0  0  0
 17 20  1  0  0  0
 17 30  1  0  0  0
 17 60  1  0  0  0
 17 61  1  0  0  0
 18 62  1  0  0  0
 19 21  1  0  0  0
 19 31  1  0  0  0
 19 63  1  0  0  0
 21 22  1  0  0  0
 21 64  1  0  0  0
 22 23  2  0  0  0
 22 29  1  0  0  0
 24 25  1  0  0  0
 24 26  1  0  0  0
 24 41  1  0  0  0
 25 29  1  0  0  0
 25 65  1  0  0  0
 25 66  1  0  0  0
 26 27  2  0  0  0
 26 28  1  0  0  0
 28 29  1  0  0  0
 29 67  1  0  0  0
 31 37  1  0  0  0
 31 68  1  0  0  0
 31 69  1  0  0  0
 32 33  2  0  0  0
 32 37  1  0  0  0
 32 70  1  0  0  0
 33 34  1  0  0  0
 33 71  1  0  0  0
 34 35  2  0  0  0
 34 72  1  0  0  0
 35 36  1  0  0  0
 35 73  1  0  0  0
 36 37  2  0  0  0
 36 74  1  0  0  0
 38 39  2  0  0  0
 38 43  1  0  0  0
 38 75  1  0  0  0
 39 40  1  0  0  0
 39 76  1  0  0  0
 40 41  2  0  0  0
 40 44  1  0  0  0
 41 42  1  0  0  0
 42 43  2  0  0  0
 42 77  1  0  0  0
 43 78  1  0  0  0
 44 79  1  0  0  0
M  END
> <s_m_source_file>
../3mxd_ligand.sdf

> <i_m_source_file_index>
1

> <s_epik_input>
TzFbQ0gyXU9jKGMxMilbY0hdYyhbY0hdW2NIXTIpUyg9TykoPU8pTihbQ0gyXVtDSF0oW0NIM10pW0NIM10pW0NIMl1bQ0BASF0oW09IXSlbQ0BIXShbQ0gyXWMzW2NIXVtjSF1bY0hdW2NIXVtjSF0zKVtOSF1DKD1PKVtDQEBIXShPQzQ9TylbQ0gyXU40YzVbY0hdW2NIXVtjSF1bY0hdYzVbT0hd

> <s_epik_cmdline>
J2VwaWtfYXBwJywgJy1pbWFlJywgJ2xpZ2FuZF9wcm8ubWFlJywgJy1vbWFlJywgJ2xpZ2FuZF9wcmVwLm1hZScsICctbXMnLCAnMScsICctcGgnLCAnNycsICctcGh0JywgJzAuNScsICctbnQn

> <r_lp_tautomer_probability>
1

> <r_epik_Ionization_Penalty>
  0.0023

> <r_epik_Ionization_Penalty_Charging>
  0.0000

> <r_epik_Ionization_Penalty_Neutral>
  0.0023

> <r_epik_State_Penalty>
 -0.0000

> <r_epik_Charging_Adjusted_Penalty>
0

> <i_epik_Tot_Q>
0

> <i_epik_Tot_abs_Q>
0

> <s_epik_Chemistry_Notes>
This compound has an ester and may undergo hydrolysis at high or low pH. This compound contains an acetal/aminal-like group ( X-CH(R)-Y where X, Y are N, S, or O) that may be acid/base labile, releasing an aldehyde.

$$$$
