3mxe_ligand
                    3D
 Schrodinger Suite 2020-3.
 80 84  0  0  1  0            999 V2000
   15.4900   36.7590   18.3470 C   0  0  0  0  0  0
   24.5430   26.4890    8.9970 F   0  0  0  0  0  0
   15.0300   35.4960   18.4290 N   0  0  0  0  0  0
   16.7830   37.0200   17.2270 S   0  0  0  0  0  0
   15.6650   34.6520   17.5710 C   0  0  0  0  0  0
   24.7220   24.6580   10.1020 F   0  0  0  0  0  0
   16.6410   35.3450   16.8590 C   0  0  0  0  0  0
   25.4930   24.8100    8.0680 F   0  0  0  0  0  0
   17.4290   34.6350   15.9200 C   0  0  0  0  0  0
   17.2520   33.2410   15.6790 C   0  0  0  0  0  0
   16.2550   32.5910   16.3990 C   0  0  0  0  0  0
   15.4800   33.2920   17.3330 C   0  0  0  0  0  0
   18.1460   32.3670   14.6230 S   0  0  0  0  0  0
   17.3900   31.2780   14.0620 O   0  0  0  0  0  0
   18.6560   33.2300   13.6080 O   0  0  0  0  0  0
   19.4470   31.7200   15.3430 N   0  0  1  0  0  0
   20.2360   32.7120   16.1070 C   0  0  0  0  0  0
   21.7200   32.3390   16.1580 C   0  0  0  0  0  0
   22.3410   32.3060   14.7600 C   0  0  0  0  0  0
   22.4860   33.3390   17.0230 C   0  0  0  0  0  0
   19.1710   30.4610   16.0820 C   0  0  0  0  0  0
   20.0280   29.3320   15.4910 C   0  0  1  0  0  0
   19.9190   28.1470   16.2920 O   0  0  0  0  0  0
   19.6380   29.0260   14.0520 C   0  0  1  0  0  0
   20.6420   28.1690   13.4270 N   0  0  0  0  0  0
   21.3630   28.5920   12.3780 C   0  0  0  0  0  0
   21.3250   29.7190   11.9120 O   0  0  0  0  0  0
   22.2050   26.0160   10.0570 N   0  0  0  0  0  0
   21.8990   27.4400   10.2560 C   0  0  0  0  0  0
   22.1730   25.3430   11.2870 C   0  0  0  0  0  0
   22.1900   24.1320   11.4400 O   0  0  0  0  0  0
   22.1560   26.3150   12.3560 O   0  0  0  0  0  0
   22.2830   27.6100   11.7430 C   0  0  2  0  0  0
   18.3250   28.2290   13.9150 C   0  0  0  0  0  0
   18.2740   26.5180   12.0560 C   0  0  0  0  0  0
   18.0720   26.1710   10.7220 C   0  0  0  0  0  0
   17.6910   27.1260    9.7910 C   0  0  0  0  0  0
   17.5070   28.4410   10.2000 C   0  0  0  0  0  0
   17.7050   28.7940   11.5380 C   0  0  0  0  0  0
   18.0880   27.8380   12.4660 C   0  0  0  0  0  0
   21.8720   23.6040    6.6570 C   0  0  0  0  0  0
   23.1140   23.9600    7.1760 C   0  0  0  0  0  0
   23.2020   24.7720    8.3130 C   0  0  0  0  0  0
   22.0380   25.2160    8.9140 C   0  0  0  0  0  0
   20.7920   24.8620    8.4020 C   0  0  0  0  0  0
   20.7020   24.0540    7.2620 C   0  0  0  0  0  0
   24.5260   25.1750    8.8910 C   0  0  0  0  0  0
   15.0737   37.5668   18.9488 H   0  0  0  0  0  0
   18.1964   35.1725   15.3630 H   0  0  0  0  0  0
   16.0751   31.5284   16.2356 H   0  0  0  0  0  0
   14.7101   32.7574   17.8894 H   0  0  0  0  0  0
   20.1438   33.6992   15.6306 H   0  0  0  0  0  0
   19.8574   32.7658   17.1384 H   0  0  0  0  0  0
   21.7928   31.3328   16.5965 H   0  0  0  0  0  0
   21.7934   31.5874   14.1324 H   0  0  0  0  0  0
   23.3949   31.9996   14.8341 H   0  0  0  0  0  0
   22.2811   33.3073   14.3085 H   0  0  0  0  0  0
   22.0438   33.3671   18.0298 H   0  0  0  0  0  0
   22.4259   34.3387   16.5681 H   0  0  0  0  0  0
   23.5396   33.0310   17.0937 H   0  0  0  0  0  0
   19.4208   30.5972   17.1446 H   0  0  0  0  0  0
   18.1055   30.2054   15.9858 H   0  0  0  0  0  0
   21.0902   29.6156   15.5278 H   0  0  0  0  0  0
   20.1634   28.1833   17.3639 H   0  0  0  0  0  0
   19.5790   30.0076   13.5590 H   0  0  0  0  0  0
   20.8187   27.1553   13.8157 H   0  0  0  0  0  0
   22.5096   28.0456    9.5701 H   0  0  0  0  0  0
   20.8328   27.6179   10.0520 H   0  0  0  0  0  0
   23.3124   27.9575   11.9149 H   0  0  0  0  0  0
   18.3847   27.3163   14.5260 H   0  0  0  0  0  0
   17.4831   28.8470   14.2604 H   0  0  0  0  0  0
   18.5768   25.7594   12.7778 H   0  0  0  0  0  0
   18.2149   25.1375   10.4064 H   0  0  0  0  0  0
   17.5374   26.8475    8.7484 H   0  0  0  0  0  0
   17.2077   29.1989    9.4761 H   0  0  0  0  0  0
   17.5574   29.8269   11.8535 H   0  0  0  0  0  0
   21.8156   22.9697    5.7724 H   0  0  0  0  0  0
   24.0243   23.6039    6.6936 H   0  0  0  0  0  0
   19.8838   25.2152    8.8905 H   0  0  0  0  0  0
   19.7289   23.7811    6.8538 H   0  0  0  0  0  0
  1  3  2  0  0  0
  1  4  1  0  0  0
  1 48  1  0  0  0
  2 47  1  0  0  0
  3  5  1  0  0  0
  4  7  1  0  0  0
  5  7  2  0  0  0
  5 12  1  0  0  0
  6 47  1  0  0  0
  7  9  1  0  0  0
  8 47  1  0  0  0
  9 10  2  0  0  0
  9 49  1  0  0  0
 10 11  1  0  0  0
 10 13  1  0  0  0
 11 12  2  0  0  0
 11 50  1  0  0  0
 12 51  1  0  0  0
 13 14  2  0  0  0
 13 15  2  0  0  0
 13 16  1  0  0  0
 16 17  1  0  0  0
 16 21  1  0  0  0
 17 18  1  0  0  0
 17 52  1  0  0  0
 17 53  1  0  0  0
 18 19  1  0  0  0
 18 20  1  0  0  0
 18 54  1  0  0  0
 19 55  1  0  0  0
 19 56  1  0  0  0
 19 57  1  0  0  0
 20 58  1  0  0  0
 20 59  1  0  0  0
 20 60  1  0  0  0
 21 22  1  0  0  0
 21 61  1  0  0  0
 21 62  1  0  0  0
 22 23  1  0  0  0
 22 24  1  0  0  0
 22 63  1  0  0  0
 23 64  1  0  0  0
 24 25  1  0  0  0
 24 34  1  0  0  0
 24 65  1  0  0  0
 25 26  1  0  0  0
 25 66  1  0  0  0
 26 27  2  0  0  0
 26 33  1  0  0  0
 28 29  1  0  0  0
 28 30  1  0  0  0
 28 44  1  0  0  0
 29 33  1  0  0  0
 29 67  1  0  0  0
 29 68  1  0  0  0
 30 31  2  0  0  0
 30 32  1  0  0  0
 32 33  1  0  0  0
 33 69  1  0  0  0
 34 40  1  0  0  0
 34 70  1  0  0  0
 34 71  1  0  0  0
 35 36  2  0  0  0
 35 40  1  0  0  0
 35 72  1  0  0  0
 36 37  1  0  0  0
 36 73  1  0  0  0
 37 38  2  0  0  0
 37 74  1  0  0  0
 38 39  1  0  0  0
 38 75  1  0  0  0
 39 40  2  0  0  0
 39 76  1  0  0  0
 41 42  2  0  0  0
 41 46  1  0  0  0
 41 77  1  0  0  0
 42 43  1  0  0  0
 42 78  1  0  0  0
 43 44  2  0  0  0
 43 47  1  0  0  0
 44 45  1  0  0  0
 45 46  2  0  0  0
 45 79  1  0  0  0
 46 80  1  0  0  0
M  END
> <s_m_source_file>
../3mxe_ligand.sdf

> <i_m_source_file_index>
1

> <s_epik_input>
bjFbY0hdc2MoYzEyKVtjSF1jKFtjSF1bY0hdMilTKD1PKSg9TylOKFtDSDJdW0NIXShbQ0gzXSlbQ0gzXSlbQ0gyXVtDQEBIXShbT0hdKVtDQEhdKFtDSDJdYzNbY0hdW2NIXVtjSF1bY0hdW2NIXTMpW05IXUMoPU8pW0NAQEhdKE9DND1PKVtDSDJdTjRjNVtjSF1bY0hdW2NIXVtjSF1jNUMoRikoRilG

> <s_epik_cmdline>
J2VwaWtfYXBwJywgJy1pbWFlJywgJ2xpZ2FuZF9wcm8ubWFlJywgJy1vbWFlJywgJ2xpZ2FuZF9wcmVwLm1hZScsICctbXMnLCAnMScsICctcGgnLCAnNycsICctcGh0JywgJzAuNScsICctbnQn

> <r_lp_tautomer_probability>
1

> <r_epik_Ionization_Penalty>
  0.0000

> <r_epik_Ionization_Penalty_Charging>
  0.0000

> <r_epik_Ionization_Penalty_Neutral>
  0.0000

> <r_epik_State_Penalty>
 -0.0000

> <r_epik_Charging_Adjusted_Penalty>
0

> <i_epik_Tot_Q>
0

> <i_epik_Tot_abs_Q>
0

> <s_epik_Chemistry_Notes>
This compound has an ester and may undergo hydrolysis at high or low pH.

$$$$
