3mxf_ligand
                    3D
 Schrodinger Suite 2020-3.
 56 59  0  0  1  0            999 V2000
   29.8990   18.9620    1.7240 C   0  0  0  0  0  0
   25.2040   15.1160    1.3930 C   0  0  0  0  0  0
   25.6820   14.9300   -1.6940 C   0  0  0  0  0  0
   29.2330   13.1180   -5.4650 C   0  0  0  0  0  0
   30.6490   11.1240   -4.6870 C   0  0  0  0  0  0
   28.5430   11.7420   -3.5100 C   0  0  0  0  0  0
   32.1090   13.8640   -4.7140 O   0  0  0  0  0  0
   24.8240   18.4760   -6.7700 Cl  0  0  0  0  0  0
   25.5320   17.9640   -4.2190 C   0  0  0  0  0  0
   27.0320   17.1100   -5.8680 C   0  0  0  0  0  0
   26.3510   17.4470   -3.2100 C   0  0  0  0  0  0
   27.8570   16.6090   -4.8670 C   0  0  0  0  0  0
   31.8980   14.9640   -2.5760 C   0  0  0  0  0  0
   29.6620   16.0420   -2.8280 N   0  0  0  0  0  0
   31.8170   18.1280    0.2830 N   0  0  0  0  0  0
   32.0440   17.2500   -0.6250 N   0  0  0  0  0  0
   30.4000   13.2470   -3.3840 O   0  0  0  0  0  0
   27.8100   16.3310    1.4560 S   0  0  0  0  0  0
   31.4750   13.9720   -3.6650 C   0  0  0  0  0  0
   28.3750   16.2200   -2.4890 C   0  0  0  0  0  0
   25.8800   17.8220   -5.5420 C   0  0  0  0  0  0
   30.5340   18.0500    0.6710 C   0  0  0  0  0  0
   27.5220   16.7650   -3.5120 C   0  0  0  0  0  0
   26.4600   15.6250    0.6460 C   0  0  0  0  0  0
   26.6960   15.5570   -0.7220 C   0  0  0  0  0  0
   30.8940   16.5810   -0.8330 C   0  0  0  0  0  0
   27.9310   16.1250   -1.1370 C   0  0  0  0  0  0
   28.6600   16.6020   -0.0300 C   0  0  0  0  0  0
   30.6460   15.4630   -1.8660 C   0  0  2  0  0  0
   29.9320   17.0880   -0.0610 N   0  0  0  0  0  0
   29.7310   12.3020   -4.2990 C   0  0  0  0  0  0
   30.6648   19.6364    2.1348 H   0  0  0  0  0  0
   29.4778   18.3487    2.5342 H   0  0  0  0  0  0
   29.0982   19.5561    1.2596 H   0  0  0  0  0  0
   25.3131   15.3124    2.4698 H   0  0  0  0  0  0
   25.0919   14.0344    1.2271 H   0  0  0  0  0  0
   24.3142   15.6394    1.0131 H   0  0  0  0  0  0
   24.8119   14.5631   -1.1298 H   0  0  0  0  0  0
   26.1545   14.0910   -2.2259 H   0  0  0  0  0  0
   25.3546   15.6875   -2.4213 H   0  0  0  0  0  0
   28.7227   12.4587   -6.1826 H   0  0  0  0  0  0
   30.0844   13.6088   -5.9593 H   0  0  0  0  0  0
   28.5286   13.8818   -5.1038 H   0  0  0  0  0  0
   30.1103   10.4480   -5.3673 H   0  0  0  0  0  0
   30.9429   10.5743   -3.7807 H   0  0  0  0  0  0
   31.5482   11.5100   -5.1896 H   0  0  0  0  0  0
   27.9931   11.0237   -4.1358 H   0  0  0  0  0  0
   27.8731   12.5656   -3.2221 H   0  0  0  0  0  0
   28.9100   11.2346   -2.6056 H   0  0  0  0  0  0
   24.6109   18.4834   -3.9548 H   0  0  0  0  0  0
   27.2884   16.9445   -6.9144 H   0  0  0  0  0  0
   26.0646   17.5820   -2.1670 H   0  0  0  0  0  0
   28.7757   16.0884   -5.1375 H   0  0  0  0  0  0
   32.5614   14.4595   -1.8581 H   0  0  0  0  0  0
   32.4310   15.8089   -3.0366 H   0  0  0  0  0  0
   30.2552   14.5557   -1.3821 H   0  0  0  0  0  0
  1 22  1  0  0  0
  1 32  1  0  0  0
  1 33  1  0  0  0
  1 34  1  0  0  0
  2 24  1  0  0  0
  2 35  1  0  0  0
  2 36  1  0  0  0
  2 37  1  0  0  0
  3 25  1  0  0  0
  3 38  1  0  0  0
  3 39  1  0  0  0
  3 40  1  0  0  0
  4 31  1  0  0  0
  4 41  1  0  0  0
  4 42  1  0  0  0
  4 43  1  0  0  0
  5 31  1  0  0  0
  5 44  1  0  0  0
  5 45  1  0  0  0
  5 46  1  0  0  0
  6 31  1  0  0  0
  6 47  1  0  0  0
  6 48  1  0  0  0
  6 49  1  0  0  0
  7 19  2  0  0  0
  8 21  1  0  0  0
  9 11  2  0  0  0
  9 21  1  0  0  0
  9 50  1  0  0  0
 10 12  1  0  0  0
 10 21  2  0  0  0
 10 51  1  0  0  0
 11 23  1  0  0  0
 11 52  1  0  0  0
 12 23  2  0  0  0
 12 53  1  0  0  0
 13 19  1  0  0  0
 13 29  1  0  0  0
 13 54  1  0  0  0
 13 55  1  0  0  0
 14 20  2  0  0  0
 14 29  1  0  0  0
 15 16  1  0  0  0
 15 22  2  0  0  0
 16 26  2  0  0  0
 17 19  1  0  0  0
 17 31  1  0  0  0
 18 24  1  0  0  0
 18 28  1  0  0  0
 20 23  1  0  0  0
 20 27  1  0  0  0
 22 30  1  0  0  0
 24 25  2  0  0  0
 25 27  1  0  0  0
 26 29  1  0  0  0
 26 30  1  0  0  0
 27 28  2  0  0  0
 28 30  1  0  0  0
 29 56  1  0  0  0
M  END
> <s_m_source_file>
../3mxf_ligand.sdf

> <i_m_source_file_index>
1

> <s_epik_input>
bjFuYyhbQ0gzXSluKGMxMiljM2MoYyhbQ0gzXSljKHMzKVtDSDNdKUMoYyhbY0hdW2NIXTQpW2NIXVtjSF1jNENsKT1OW0NASF0yW0NIMl1DKD1PKU9DKFtDSDNdKShbQ0gzXSlbQ0gzXQ==

> <s_epik_cmdline>
J2VwaWtfYXBwJywgJy1pbWFlJywgJ2xpZ2FuZF9wcm8ubWFlJywgJy1vbWFlJywgJ2xpZ2FuZF9wcmVwLm1hZScsICctbXMnLCAnMScsICctcGgnLCAnNycsICctcGh0JywgJzAuNScsICctbnQn

> <r_lp_tautomer_probability>
1

> <r_epik_Ionization_Penalty>
  0.0015

> <r_epik_Ionization_Penalty_Charging>
  0.0000

> <r_epik_Ionization_Penalty_Neutral>
  0.0015

> <r_epik_State_Penalty>
 -0.0000

> <r_epik_Charging_Adjusted_Penalty>
0

> <i_epik_Tot_Q>
0

> <i_epik_Tot_abs_Q>
0

> <s_epik_Chemistry_Notes>
This compound has an ester and may undergo hydrolysis at high or low pH. This compound has an imine and may undergo hydrolysis.

$$$$
