3mxr_ligand
                    3D
 Schrodinger Suite 2020-3.
 55 56  0  0  1  0            999 V2000
   31.3490   65.1880    4.2150 C   0  0  0  0  0  0
   30.8650   67.4840    4.6650 N   0  0  0  0  0  0
   30.2930   65.0440    3.5910 O   0  0  0  0  0  0
   31.9610   66.5550    4.4240 C   0  0  2  0  0  0
   32.6990   66.9890    3.1650 C   0  0  0  0  0  0
   25.3360   71.7750    6.7960 C   0  0  0  0  0  0
   32.1170   68.6760    6.1150 O   0  0  0  0  0  0
   27.3220   71.0590    4.0870 O   0  0  0  0  0  0
   28.8740   68.9130    3.7460 O   0  0  0  0  0  0
   36.8960   68.2960   -1.4000 O   0  0  0  0  0  0
   33.5680   62.3080    6.2290 O   0  0  0  0  0  0
   31.2640   62.2360    7.1530 O   0  0  0  0  0  0
   35.0500   67.0650   -0.5300 C   0  0  0  0  0  0
   36.6580   68.0770    0.9640 C   0  0  0  0  0  0
   34.3470   66.5680    0.5640 C   0  0  0  0  0  0
   35.9530   67.5820    2.0610 C   0  0  0  0  0  0
   26.2720   70.5900    6.6750 C   0  0  0  0  0  0
   34.0480   66.2930    3.0550 C   0  0  0  0  0  0
   31.5540   62.7460    4.6330 C   0  0  0  0  0  0
   28.5460   70.6520    7.3530 C   0  0  0  0  0  0
   29.8960   70.0270    7.0240 C   0  0  0  0  0  0
   31.9790   64.1370    4.7210 N   0  0  0  0  0  0
   31.0490   68.5030    5.5240 C   0  0  0  0  0  0
   27.9200   70.5830    5.0470 C   0  0  0  0  0  0
   28.9430   69.5600    4.7820 C   0  0  0  0  0  0
   32.1160   61.9530    5.9080 B   0  0  0  0  0  0
   36.2050   67.8160   -0.3280 C   0  0  0  0  0  0
   34.8000   66.8300    1.8580 C   0  0  0  0  0  0
   27.6130   71.0190    6.2860 N   0  0  0  0  0  0
   30.0110   69.3330    5.7520 N   0  0  0  0  0  0
   29.9039   67.3469    4.1477 H   0  0  0  0  0  0
   32.6432   66.5578    5.2869 H   0  0  0  0  0  0
   32.0972   66.7328    2.2806 H   0  0  0  0  0  0
   32.8647   68.0761    3.1934 H   0  0  0  0  0  0
   24.3357   71.4237    7.0893 H   0  0  0  0  0  0
   25.2733   72.2931    5.8277 H   0  0  0  0  0  0
   25.7193   72.4686    7.5588 H   0  0  0  0  0  0
   36.5400   68.0910   -2.4204 H   0  0  0  0  0  0
   34.0747   61.8329    7.0819 H   0  0  0  0  0  0
   31.5201   61.7649    8.1134 H   0  0  0  0  0  0
   34.6972   66.8668   -1.5421 H   0  0  0  0  0  0
   37.5617   68.6670    1.1169 H   0  0  0  0  0  0
   33.4450   65.9757    0.4104 H   0  0  0  0  0  0
   36.3038   67.7834    3.0731 H   0  0  0  0  0  0
   26.3347   70.0719    7.6433 H   0  0  0  0  0  0
   25.8887   69.8963    5.9122 H   0  0  0  0  0  0
   34.6326   66.4801    3.9678 H   0  0  0  0  0  0
   33.8934   65.2107    2.9340 H   0  0  0  0  0  0
   30.4551   62.6986    4.6189 H   0  0  0  0  0  0
   31.9521   62.2986    3.7103 H   0  0  0  0  0  0
   27.9641   69.9595    7.9790 H   0  0  0  0  0  0
   28.7015   71.5954    7.8969 H   0  0  0  0  0  0
   30.6676   70.8107    7.0033 H   0  0  0  0  0  0
   30.1515   69.2812    7.7911 H   0  0  0  0  0  0
   32.9085   64.3957    5.2493 H   0  0  0  0  0  0
  1  3  2  0  0  0
  1  4  1  0  0  0
  1 22  1  0  0  0
  2  4  1  0  0  0
  2 23  1  0  0  0
  2 31  1  0  0  0
  4  5  1  0  0  0
  4 32  1  0  0  0
  5 18  1  0  0  0
  5 33  1  0  0  0
  5 34  1  0  0  0
  6 17  1  0  0  0
  6 35  1  0  0  0
  6 36  1  0  0  0
  6 37  1  0  0  0
  7 23  2  0  0  0
  8 24  2  0  0  0
  9 25  2  0  0  0
 10 27  1  0  0  0
 10 38  1  0  0  0
 11 26  1  0  0  0
 11 39  1  0  0  0
 12 26  1  0  0  0
 12 40  1  0  0  0
 13 15  2  0  0  0
 13 27  1  0  0  0
 13 41  1  0  0  0
 14 16  1  0  0  0
 14 27  2  0  0  0
 14 42  1  0  0  0
 15 28  1  0  0  0
 15 43  1  0  0  0
 16 28  2  0  0  0
 16 44  1  0  0  0
 17 29  1  0  0  0
 17 45  1  0  0  0
 17 46  1  0  0  0
 18 28  1  0  0  0
 18 47  1  0  0  0
 18 48  1  0  0  0
 19 22  1  0  0  0
 19 26  1  0  0  0
 19 49  1  0  0  0
 19 50  1  0  0  0
 20 21  1  0  0  0
 20 29  1  0  0  0
 20 51  1  0  0  0
 20 52  1  0  0  0
 21 30  1  0  0  0
 21 53  1  0  0  0
 21 54  1  0  0  0
 22 55  1  0  0  0
 23 30  1  0  0  0
 24 25  1  0  0  0
 24 29  1  0  0  0
 25 30  1  0  0  0
M  END
> <s_m_source_file>
../3mxr_ligand.sdf

> <i_m_source_file_index>
1

> <s_epik_input>
W09IXWMxW2NIXVtjSF1jKFtjSF1bY0hdMSlbQ0gyXVtDSDJdW0NASF0oQyg9TylbTkhdW0NIMl1CKFtPSF0pW09IXSlbTkhdQyg9TylOKEMoPU8pQzI9TylbQ0gyXVtDSDJdTjJbQ0gyXVtDSDNd

> <s_epik_cmdline>
J2VwaWtfYXBwJywgJy1pbWFlJywgJ2xpZ2FuZF9wcm8ubWFlJywgJy1vbWFlJywgJ2xpZ2FuZF9wcmVwLm1hZScsICctbXMnLCAnMScsICctcGgnLCAnNycsICctcGh0JywgJzAuNScsICctbnQn

> <r_lp_tautomer_probability>
1

> <r_epik_Ionization_Penalty>
  0.0013

> <r_epik_Ionization_Penalty_Charging>
  0.0000

> <r_epik_Ionization_Penalty_Neutral>
  0.0013

> <r_epik_State_Penalty>
 -0.0000

> <r_epik_Charging_Adjusted_Penalty>
0

> <i_epik_Tot_Q>
0

> <i_epik_Tot_abs_Q>
0

> <s_epik_Chemistry_Notes>
This compound contains a Lewis acid (boronic acid) which adds nucleophiles to form tetrahedral complexes, lowering the experimental pKa

$$$$
