3mxs_ligand
                    3D
 Schrodinger Suite 2020-3.
 52 53  0  0  1  0            999 V2000
   31.5280   65.0120    4.1970 C   0  0  0  0  0  0
   30.8850   67.3070    4.4090 N   0  0  0  0  0  0
   30.5260   64.8240    3.5160 O   0  0  0  0  0  0
   32.0540   66.4090    4.3980 C   0  0  2  0  0  0
   33.0400   66.7370    3.2790 C   0  0  0  0  0  0
   33.4740   68.1760    3.4500 C   0  0  0  0  0  0
   34.5980   72.1340    3.9600 O   0  0  0  0  0  0
   34.2320   70.8320    3.8020 C   0  0  0  0  0  0
   26.4550   73.3100    4.7440 C   0  0  0  0  0  0
   31.7970   68.4670    6.0990 O   0  0  0  0  0  0
   27.1370   70.4750    3.0160 O   0  0  0  0  0  0
   28.9900   68.5160    3.1430 O   0  0  0  0  0  0
   31.3520   62.0290    7.1900 O   0  0  0  0  0  0
   33.7490   62.2190    6.2180 O   0  0  0  0  0  0
   26.4250   71.8730    5.2240 C   0  0  0  0  0  0
   31.6930   62.6570    4.6640 C   0  0  0  0  0  0
   28.0160   70.5060    6.3510 C   0  0  0  0  0  0
   29.4190   69.8820    6.3920 C   0  0  0  0  0  0
   32.1840   64.0260    4.8170 N   0  0  0  0  0  0
   30.9340   68.3720    5.2320 C   0  0  0  0  0  0
   27.8810   70.3990    3.9830 C   0  0  0  0  0  0
   28.9720   69.3730    4.0140 C   0  0  0  0  0  0
   32.2700   61.8750    5.9640 B   0  0  0  0  0  0
   27.7600   71.2830    5.1390 N   0  0  0  0  0  0
   29.9690   69.4730    5.0910 N   0  0  0  0  0  0
   34.5490   68.4900    4.2950 C   0  0  0  0  0  0
   32.7740   69.1910    2.7830 C   0  0  0  0  0  0
   34.9370   69.8240    4.4640 C   0  0  0  0  0  0
   33.1560   70.5210    2.9650 C   0  0  0  0  0  0
   30.0213   67.0934    3.7622 H   0  0  0  0  0  0
   32.5745   66.5345    5.3589 H   0  0  0  0  0  0
   33.9090   66.0661    3.3477 H   0  0  0  0  0  0
   32.5477   66.6006    2.3048 H   0  0  0  0  0  0
   35.4427   72.3922    4.6156 H   0  0  0  0  0  0
   25.4453   73.7409    4.8134 H   0  0  0  0  0  0
   26.7956   73.3403    3.6985 H   0  0  0  0  0  0
   27.1459   73.8919    5.3717 H   0  0  0  0  0  0
   31.6215   61.5495    8.1426 H   0  0  0  0  0  0
   34.2814   61.7650    7.0668 H   0  0  0  0  0  0
   26.0844   71.8427    6.2695 H   0  0  0  0  0  0
   25.7341   71.2911    4.5963 H   0  0  0  0  0  0
   30.5932   62.6623    4.6415 H   0  0  0  0  0  0
   32.0769   62.2326    3.7246 H   0  0  0  0  0  0
   27.2589   69.7094    6.3982 H   0  0  0  0  0  0
   27.8903   71.1825    7.2092 H   0  0  0  0  0  0
   30.1303   70.6065    6.8152 H   0  0  0  0  0  0
   29.4001   68.9780    7.0185 H   0  0  0  0  0  0
   33.0743   64.2255    5.4314 H   0  0  0  0  0  0
   35.0812   67.6962    4.8191 H   0  0  0  0  0  0
   31.9386   68.9437    2.1279 H   0  0  0  0  0  0
   35.7815   70.0741    5.1062 H   0  0  0  0  0  0
   32.6152   71.3178    2.4543 H   0  0  0  0  0  0
  1  3  2  0  0  0
  1  4  1  0  0  0
  1 19  1  0  0  0
  2  4  1  0  0  0
  2 20  1  0  0  0
  2 30  1  0  0  0
  4  5  1  0  0  0
  4 31  1  0  0  0
  5  6  1  0  0  0
  5 32  1  0  0  0
  5 33  1  0  0  0
  6 26  2  0  0  0
  6 27  1  0  0  0
  7  8  1  0  0  0
  7 34  1  0  0  0
  8 28  2  0  0  0
  8 29  1  0  0  0
  9 15  1  0  0  0
  9 35  1  0  0  0
  9 36  1  0  0  0
  9 37  1  0  0  0
 10 20  2  0  0  0
 11 21  2  0  0  0
 12 22  2  0  0  0
 13 23  1  0  0  0
 13 38  1  0  0  0
 14 23  1  0  0  0
 14 39  1  0  0  0
 15 24  1  0  0  0
 15 40  1  0  0  0
 15 41  1  0  0  0
 16 19  1  0  0  0
 16 23  1  0  0  0
 16 42  1  0  0  0
 16 43  1  0  0  0
 17 18  1  0  0  0
 17 24  1  0  0  0
 17 44  1  0  0  0
 17 45  1  0  0  0
 18 25  1  0  0  0
 18 46  1  0  0  0
 18 47  1  0  0  0
 19 48  1  0  0  0
 20 25  1  0  0  0
 21 22  1  0  0  0
 21 24  1  0  0  0
 22 25  1  0  0  0
 26 28  1  0  0  0
 26 49  1  0  0  0
 27 29  2  0  0  0
 27 50  1  0  0  0
 28 51  1  0  0  0
 29 52  1  0  0  0
M  END
> <s_m_source_file>
../3mxs_ligand.sdf

> <i_m_source_file_index>
1

> <s_epik_input>
W2NIXTFbY0hdYyhbT0hdKVtjSF1bY0hdYzFbQ0gyXVtDQEhdKEMoPU8pW05IXVtDSDJdQihbT0hdKVtPSF0pW05IXUMoPU8pTihDKD1PKUMyPU8pW0NIMl1bQ0gyXU4yW0NIMl1bQ0gzXQ==

> <s_epik_cmdline>
J2VwaWtfYXBwJywgJy1pbWFlJywgJ2xpZ2FuZF9wcm8ubWFlJywgJy1vbWFlJywgJ2xpZ2FuZF9wcmVwLm1hZScsICctbXMnLCAnMScsICctcGgnLCAnNycsICctcGh0JywgJzAuNScsICctbnQn

> <r_lp_tautomer_probability>
1

> <r_epik_Ionization_Penalty>
  0.0016

> <r_epik_Ionization_Penalty_Charging>
  0.0000

> <r_epik_Ionization_Penalty_Neutral>
  0.0016

> <r_epik_State_Penalty>
 -0.0000

> <r_epik_Charging_Adjusted_Penalty>
0

> <i_epik_Tot_Q>
0

> <i_epik_Tot_abs_Q>
0

> <s_epik_Chemistry_Notes>
This compound contains a Lewis acid (boronic acid) which adds nucleophiles to form tetrahedral complexes, lowering the experimental pKa

$$$$
