3mxy_ligand
                    3D
 Schrodinger Suite 2020-3.
113115  0  0  1  0            999 V2000
   41.9100   10.3920   13.5870 N   0  3  0  0  0  0
   40.7540   11.0680   13.0180 C   0  0  0  0  0  0
   39.5020   10.2270   13.1520 C   0  0  0  0  0  0
   39.5730    9.0540   13.5170 O   0  0  0  0  0  0
   38.3490   10.8170   12.8580 N   0  0  0  0  0  0
   37.0840   10.0990   12.9580 C   0  0  2  0  0  0
   36.2850   10.2460   11.6560 C   0  0  0  0  0  0
   36.4100   11.2510   10.9580 O   0  0  0  0  0  0
   36.2890   10.6180   14.1740 C   0  0  0  0  0  0
   36.9480   10.3250   15.5210 C   0  0  0  0  0  0
   37.8650   11.2160   16.0990 C   0  0  0  0  0  0
   36.6990    9.1220   16.1890 C   0  0  0  0  0  0
   38.5260   10.9030   17.3120 C   0  0  0  0  0  0
   37.3490    8.8000   17.3900 C   0  0  0  0  0  0
   38.2710    9.6840   17.9510 C   0  0  0  0  0  0
   38.9920    9.2880   19.0870 O   0  0  0  0  0  0
   40.2810    8.4220   19.3400 P   0  0  0  0  0  0
   41.4990    9.2390   19.3230 O   0  0  0  0  0  0
   40.2320    7.3890   18.2330 O   0  5  0  0  0  0
   39.9850    7.8120   20.6780 O   0  5  0  0  0  0
   35.4760    9.2440   11.3220 N   0  0  0  0  0  0
   34.6910    9.2810   10.0880 C   0  0  2  0  0  0
   33.7140   10.4460   10.0140 C   0  0  0  0  0  0
   33.5550   11.0600    8.9630 O   0  0  0  0  0  0
   33.9090    7.9660    9.8750 C   0  0  0  0  0  0
   32.9250    8.1170    8.7160 C   0  0  0  0  0  0
   34.8830    6.8320    9.5740 C   0  0  0  0  0  0
   33.0650   10.7510   11.1300 N   0  0  0  0  0  0
   32.1030   11.8380   11.1800 C   0  0  2  0  0  0
   32.7390   13.1590   11.6230 C   0  0  0  0  0  0
   33.6400   13.1760   12.4600 O   0  0  0  0  0  0
   30.9510   11.4570   12.1170 C   0  0  0  0  0  0
   31.4140   11.1560   13.5380 C   0  0  0  0  0  0
   32.4460   10.5250   13.7540 O   0  0  0  0  0  0
   30.6320   11.5910   14.5140 N   0  0  0  0  0  0
   32.2970   14.2850   11.0350 N   0  0  0  0  0  0
   32.8500   15.5880   11.4120 C   0  0  2  0  0  0
   32.5700   15.8560   12.8950 C   0  0  0  0  0  0
   31.4590   15.6270   13.3700 O   0  0  0  0  0  0
   32.1300   16.5580   10.4710 C   0  0  0  0  0  0
   30.8540   15.8450   10.1330 C   0  0  0  0  0  0
   31.3000   14.4260    9.9590 C   0  0  0  0  0  0
   33.5820   16.3370   13.6150 N   0  0  0  0  0  0
   33.4610   16.5830   15.0490 C   0  0  2  0  0  0
   33.0100   17.9850   15.4650 C   0  0  0  0  0  0
   32.8360   18.2530   16.6570 O   0  0  0  0  0  0
   34.7830   16.2270   15.7690 C   0  0  2  0  0  0
   35.8100   17.1480   15.3800 O   0  0  0  0  0  0
   35.2230   14.8080   15.3930 C   0  0  0  0  0  0
   32.8480   18.8770   14.4900 N   0  0  0  0  0  0
   32.3530   20.2370   14.7300 C   0  0  2  0  0  0
   31.8400   20.8090   13.4170 C   0  0  0  0  0  0
   32.5780   21.4810   12.6970 O   0  0  0  0  0  0
   33.4210   21.1920   15.2900 C   0  0  0  0  0  0
   32.8150   22.5150   15.7610 C   0  0  0  0  0  0
   31.9660   22.5530   16.8710 C   0  0  0  0  0  0
   33.0360   23.7110   15.0660 C   0  0  0  0  0  0
   31.3470   23.7410   17.2760 C   0  0  0  0  0  0
   32.4180   24.9090   15.4670 C   0  0  0  0  0  0
   31.5730   24.9110   16.5710 C   0  0  0  0  0  0
   30.9400   26.0730   16.9670 O   0  0  0  0  0  0
   30.6630   20.5320   13.1040 O   0  5  0  0  0  0
   42.7998   11.0286   13.4732 H   0  0  0  0  0  0
   42.0719    9.4385   13.0629 H   0  0  0  0  0  0
   41.7322   10.1978   14.6550 H   0  0  0  0  0  0
   40.5921   12.0215   13.5421 H   0  0  0  0  0  0
   40.9317   11.2622   11.9500 H   0  0  0  0  0  0
   38.3607   11.8681   12.5338 H   0  0  0  0  0  0
   37.3363    9.0379   13.1006 H   0  0  0  0  0  0
   36.1761   11.7096   14.0994 H   0  0  0  0  0  0
   35.2951   10.1469   14.1905 H   0  0  0  0  0  0
   38.0723   12.1657   15.6059 H   0  0  0  0  0  0
   35.9827    8.4174   15.7665 H   0  0  0  0  0  0
   39.2321   11.6102   17.7472 H   0  0  0  0  0  0
   37.1325    7.8545   17.8872 H   0  0  0  0  0  0
   35.4038    8.3761   11.9940 H   0  0  0  0  0  0
   35.4723    9.4310    9.3284 H   0  0  0  0  0  0
   33.3443    7.7231   10.7872 H   0  0  0  0  0  0
   32.2234    8.9354    8.9350 H   0  0  0  0  0  0
   32.3652    7.1791    8.5857 H   0  0  0  0  0  0
   33.4780    8.3453    7.7929 H   0  0  0  0  0  0
   35.5905    6.7249   10.4095 H   0  0  0  0  0  0
   35.4369    7.0597    8.6513 H   0  0  0  0  0  0
   34.3242    5.8935    9.4441 H   0  0  0  0  0  0
   33.2709   10.1569   12.0325 H   0  0  0  0  0  0
   31.7552   11.9526   10.1428 H   0  0  0  0  0  0
   30.2308   12.2869   12.1689 H   0  0  0  0  0  0
   30.4473   10.5580   11.7322 H   0  0  0  0  0  0
   29.7165   12.1525   14.2764 H   0  0  0  0  0  0
   30.8979   11.3908   15.5624 H   0  0  0  0  0  0
   33.9429   15.6337   11.2959 H   0  0  0  0  0  0
   31.9501   17.5095   10.9928 H   0  0  0  0  0  0
   32.7540   16.7389    9.5834 H   0  0  0  0  0  0
   30.1369   15.9655   10.9584 H   0  0  0  0  0  0
   30.4285   16.2712    9.2125 H   0  0  0  0  0  0
   31.7808   14.2412    8.9871 H   0  0  0  0  0  0
   30.4901   13.6975   10.1118 H   0  0  0  0  0  0
   34.5296   16.5497   13.0985 H   0  0  0  0  0  0
   32.6272   15.9106   15.2995 H   0  0  0  0  0  0
   34.6766   16.3312   16.8589 H   0  0  0  0  0  0
   35.6824   18.2247   15.5658 H   0  0  0  0  0  0
   34.4416   14.0918   15.6872 H   0  0  0  0  0  0
   36.1597   14.5640   15.9156 H   0  0  0  0  0  0
   35.3835   14.7497   14.3063 H   0  0  0  0  0  0
   33.1031   18.5567   13.4690 H   0  0  0  0  0  0
   31.5591   20.1107   15.4808 H   0  0  0  0  0  0
   33.9225   20.7191   16.1472 H   0  0  0  0  0  0
   34.1621   21.4126   14.5077 H   0  0  0  0  0  0
   31.7822   21.6375   17.4332 H   0  0  0  0  0  0
   33.6979   23.7132   14.2000 H   0  0  0  0  0  0
   30.6884   23.7452   18.1445 H   0  0  0  0  0  0
   32.6006   25.8311   14.9151 H   0  0  0  0  0  0
   30.2731   26.0654   17.8417 H   0  0  0  0  0  0
  1  2  1  0  0  0
  1 63  1  0  0  0
  1 64  1  0  0  0
  1 65  1  0  0  0
  2  3  1  0  0  0
  2 66  1  0  0  0
  2 67  1  0  0  0
  3  4  2  0  0  0
  3  5  1  0  0  0
  5  6  1  0  0  0
  5 68  1  0  0  0
  6  7  1  0  0  0
  6  9  1  0  0  0
  6 69  1  0  0  0
  7  8  2  0  0  0
  7 21  1  0  0  0
  9 10  1  0  0  0
  9 70  1  0  0  0
  9 71  1  0  0  0
 10 11  2  0  0  0
 10 12  1  0  0  0
 11 13  1  0  0  0
 11 72  1  0  0  0
 12 14  2  0  0  0
 12 73  1  0  0  0
 13 15  2  0  0  0
 13 74  1  0  0  0
 14 15  1  0  0  0
 14 75  1  0  0  0
 15 16  1  0  0  0
 16 17  1  0  0  0
 17 18  2  0  0  0
 17 19  1  0  0  0
 17 20  1  0  0  0
 21 22  1  0  0  0
 21 76  1  0  0  0
 22 23  1  0  0  0
 22 25  1  0  0  0
 22 77  1  0  0  0
 23 24  2  0  0  0
 23 28  1  0  0  0
 25 26  1  0  0  0
 25 27  1  0  0  0
 25 78  1  0  0  0
 26 79  1  0  0  0
 26 80  1  0  0  0
 26 81  1  0  0  0
 27 82  1  0  0  0
 27 83  1  0  0  0
 27 84  1  0  0  0
 28 29  1  0  0  0
 28 85  1  0  0  0
 29 30  1  0  0  0
 29 32  1  0  0  0
 29 86  1  0  0  0
 30 31  2  0  0  0
 30 36  1  0  0  0
 32 33  1  0  0  0
 32 87  1  0  0  0
 32 88  1  0  0  0
 33 34  2  0  0  0
 33 35  1  0  0  0
 35 89  1  0  0  0
 35 90  1  0  0  0
 36 37  1  0  0  0
 36 42  1  0  0  0
 37 38  1  0  0  0
 37 40  1  0  0  0
 37 91  1  0  0  0
 38 39  2  0  0  0
 38 43  1  0  0  0
 40 41  1  0  0  0
 40 92  1  0  0  0
 40 93  1  0  0  0
 41 42  1  0  0  0
 41 94  1  0  0  0
 41 95  1  0  0  0
 42 96  1  0  0  0
 42 97  1  0  0  0
 43 44  1  0  0  0
 43 98  1  0  0  0
 44 45  1  0  0  0
 44 47  1  0  0  0
 44 99  1  0  0  0
 45 46  2  0  0  0
 45 50  1  0  0  0
 47 48  1  0  0  0
 47 49  1  0  0  0
 47100  1  0  0  0
 48101  1  0  0  0
 49102  1  0  0  0
 49103  1  0  0  0
 49104  1  0  0  0
 50 51  1  0  0  0
 50105  1  0  0  0
 51 52  1  0  0  0
 51 54  1  0  0  0
 51106  1  0  0  0
 52 53  2  0  0  0
 52 62  1  0  0  0
 54 55  1  0  0  0
 54107  1  0  0  0
 54108  1  0  0  0
 55 56  2  0  0  0
 55 57  1  0  0  0
 56 58  1  0  0  0
 56109  1  0  0  0
 57 59  2  0  0  0
 57110  1  0  0  0
 58 60  2  0  0  0
 58111  1  0  0  0
 59 60  1  0  0  0
 59112  1  0  0  0
 60 61  1  0  0  0
 61113  1  0  0  0
M  CHG  4   1   1  19  -1  20  -1  62  -1
M  END
> <s_m_source_file>
../3mxy_ligand.sdf

> <i_m_source_file_index>
1

> <s_epik_input>
Tz1QKFtPSF0pKFtPSF0pT2MoW2NIXVtjSF0xKVtjSF1bY0hdYzFbQ0gyXVtDQEhdKFtOSF1DKD1PKVtDSDJdW05IMytdKUMoPU8pW05IXVtDQEBIXShbQ0hdKFtDSDNdKVtDSDNdKUMoPU8pW05IXVtDQEBIXShbQ0gyXUMoPU8pW05IMl0pQyg9TylOMltDQEBIXShbQ0gyXVtDSDJdW0NIMl0yKUMoPU8pW05IXVtDQEBIXShbQ0BIXShbT0hdKVtDSDNdKUMoPU8pW05IXVtDQEhdKEMoPU8pW09IXSlbQ0gyXWMzW2NIXVtjSF1jKFtPSF0pW2NIXVtjSF0z

> <s_epik_cmdline>
J2VwaWtfYXBwJywgJy1pbWFlJywgJ2xpZ2FuZF9wcm8ubWFlJywgJy1vbWFlJywgJ2xpZ2FuZF9wcmVwLm1hZScsICctbXMnLCAnMScsICctcGgnLCAnNycsICctcGh0JywgJzAuNScsICctbnQn

> <r_lp_tautomer_probability>
1

> <r_epik_Ionization_Penalty>
  0.2150

> <r_epik_Ionization_Penalty_Charging>
  0.2143

> <r_epik_Ionization_Penalty_Neutral>
  0.0007

> <r_epik_State_Penalty>
 -0.0000

> <r_epik_Charging_Adjusted_Penalty>
0.214337247870746

> <i_epik_Tot_Q>
-2

> <i_epik_Tot_abs_Q>
4

$$$$
