3my1_ligand
                    3D
 Schrodinger Suite 2020-3.
 32 34  0  0  1  0            999 V2000
   53.1390  -15.9500  -13.3010 C   0  0  0  0  0  0
   54.5040  -15.6950  -13.3430 C   0  0  0  0  0  0
   54.9450  -14.3820  -13.4510 C   0  0  0  0  0  0
   56.7040  -14.0230  -13.5060 Cl  0  0  0  0  0  0
   54.0240  -13.3480  -13.5140 C   0  0  0  0  0  0
   54.6140  -11.6690  -13.6530 Cl  0  0  0  0  0  0
   52.6630  -13.5950  -13.4720 C   0  0  0  0  0  0
   52.2270  -14.9030  -13.3670 C   0  0  0  0  0  0
   50.9970  -15.4390  -13.3040 N   0  0  0  0  0  0
   51.1420  -16.7780  -13.2010 C   0  0  0  0  0  0
   52.4450  -17.0840  -13.2010 N   0  0  0  0  0  0
   52.9990  -18.4530  -13.1050 C   0  0  2  0  0  0
   52.0200  -19.3610  -13.6150 O   0  0  0  0  0  0
   51.4640  -20.1770  -12.5790 C   0  0  2  0  0  0
   49.9600  -19.9480  -12.5130 C   0  0  0  0  0  0
   49.4070  -19.9950  -13.8360 O   0  0  0  0  0  0
   52.1580  -19.7990  -11.2750 C   0  0  1  0  0  0
   52.6910  -20.9650  -10.6390 O   0  0  0  0  0  0
   53.2380  -18.7860  -11.6430 C   0  0  1  0  0  0
   54.5720  -19.2980  -11.4800 O   0  0  0  0  0  0
   55.2202  -16.5151  -13.2918 H   0  0  0  0  0  0
   51.9480  -12.7737  -13.5208 H   0  0  0  0  0  0
   50.3257  -17.4968  -13.1291 H   0  0  0  0  0  0
   53.9133  -18.5434  -13.7098 H   0  0  0  0  0  0
   51.6523  -21.2321  -12.8266 H   0  0  0  0  0  0
   49.4966  -20.7314  -11.8953 H   0  0  0  0  0  0
   49.7583  -18.9627  -12.0675 H   0  0  0  0  0  0
   48.3270  -19.8498  -13.9862 H   0  0  0  0  0  0
   51.4764  -19.4052  -10.5067 H   0  0  0  0  0  0
   52.0176  -21.7750  -10.3220 H   0  0  0  0  0  0
   53.2271  -17.9191  -10.9659 H   0  0  0  0  0  0
   55.4379  -18.6611  -11.7136 H   0  0  0  0  0  0
  1  2  1  0  0  0
  1  8  2  0  0  0
  1 11  1  0  0  0
  2  3  2  0  0  0
  2 21  1  0  0  0
  3  4  1  0  0  0
  3  5  1  0  0  0
  5  6  1  0  0  0
  5  7  2  0  0  0
  7  8  1  0  0  0
  7 22  1  0  0  0
  8  9  1  0  0  0
  9 10  2  0  0  0
 10 11  1  0  0  0
 10 23  1  0  0  0
 11 12  1  0  0  0
 12 13  1  0  0  0
 12 19  1  0  0  0
 12 24  1  0  0  0
 13 14  1  0  0  0
 14 15  1  0  0  0
 14 17  1  0  0  0
 14 25  1  0  0  0
 15 16  1  0  0  0
 15 26  1  0  0  0
 15 27  1  0  0  0
 16 28  1  0  0  0
 17 18  1  0  0  0
 17 19  1  0  0  0
 17 29  1  0  0  0
 18 30  1  0  0  0
 19 20  1  0  0  0
 19 31  1  0  0  0
 20 32  1  0  0  0
M  END
> <s_m_source_file>
../3my1_ligand.sdf

> <i_m_source_file_index>
1

> <s_epik_input>
W2NIXTFjKENsKWMoQ2wpW2NIXWMoYzEyKW5bY0hdbjJbQ0BASF0zT1tDQEhdKFtDSDJdW09IXSlbQ0BASF0oW09IXSlbQ0BIXTNbT0hd

> <s_epik_cmdline>
J2VwaWtfYXBwJywgJy1pbWFlJywgJ2xpZ2FuZF9wcm8ubWFlJywgJy1vbWFlJywgJ2xpZ2FuZF9wcmVwLm1hZScsICctbXMnLCAnMScsICctcGgnLCAnNycsICctcGh0JywgJzAuNScsICctbnQn

> <r_lp_tautomer_probability>
1

> <r_epik_Ionization_Penalty>
  0.0034

> <r_epik_Ionization_Penalty_Charging>
  0.0000

> <r_epik_Ionization_Penalty_Neutral>
  0.0034

> <r_epik_State_Penalty>
 -0.0000

> <r_epik_Charging_Adjusted_Penalty>
0

> <i_epik_Tot_Q>
0

> <i_epik_Tot_abs_Q>
0

> <s_epik_Chemistry_Notes>
This compound contains an acetal/aminal-like group ( X-CH(R)-Y where X, Y are N, S, or O) that may be acid/base labile, releasing an aldehyde.

$$$$
