3my5_ligand
                    3D
 Schrodinger Suite 2020-3.
 32 34  0  0  1  0            999 V2000
   -6.3290   21.9070  -23.0760 C   0  0  0  0  0  0
   -7.1230   21.0490  -22.3340 C   0  0  0  0  0  0
   -8.4890   21.0500  -22.5670 C   0  0  0  0  0  0
   -9.5410   19.9530  -21.6270 Cl  0  0  0  0  0  0
   -9.0580   21.8860  -23.5180 C   0  0  0  0  0  0
  -10.8360   21.8400  -23.7460 Cl  0  0  0  0  0  0
   -8.2750   22.7500  -24.2710 C   0  0  0  0  0  0
   -6.9030   22.7500  -24.0350 C   0  0  0  0  0  0
   -5.9000   23.4620  -24.5890 N   0  0  0  0  0  0
   -4.7520   23.0730  -23.9970 C   0  0  0  0  0  0
   -5.0050   22.1210  -23.0820 N   0  0  0  0  0  0
   -3.9470   21.5110  -22.2160 C   0  0  2  0  0  0
   -3.8930   20.1210  -22.4400 O   0  0  0  0  0  0
   -3.3590   19.4780  -21.2400 C   0  0  2  0  0  0
   -4.2280   18.3030  -20.8660 C   0  0  0  0  0  0
   -3.5250   17.3680  -20.0510 O   0  0  0  0  0  0
   -3.2610   20.5780  -20.1760 C   0  0  1  0  0  0
   -1.9300   21.0890  -20.1440 O   0  0  0  0  0  0
   -4.2030   21.6470  -20.7210 C   0  0  1  0  0  0
   -3.9500   22.9540  -20.2530 O   0  0  0  0  0  0
   -6.6845   20.3892  -21.5853 H   0  0  0  0  0  0
   -8.7186   23.4053  -25.0206 H   0  0  0  0  0  0
   -3.7640   23.4720  -24.2268 H   0  0  0  0  0  0
   -3.0053   21.9923  -22.5187 H   0  0  0  0  0  0
   -2.3642   19.0450  -21.4214 H   0  0  0  0  0  0
   -5.1058   18.6594  -20.3069 H   0  0  0  0  0  0
   -4.5596   17.7869  -21.7790 H   0  0  0  0  0  0
   -4.0303   16.4568  -19.6984 H   0  0  0  0  0  0
   -3.4522   20.2626  -19.1397 H   0  0  0  0  0  0
   -1.1070   20.4574  -19.7782 H   0  0  0  0  0  0
   -5.2446   21.5738  -20.3750 H   0  0  0  0  0  0
   -4.5785   23.7908  -20.5917 H   0  0  0  0  0  0
  1  2  1  0  0  0
  1  8  2  0  0  0
  1 11  1  0  0  0
  2  3  2  0  0  0
  2 21  1  0  0  0
  3  4  1  0  0  0
  3  5  1  0  0  0
  5  6  1  0  0  0
  5  7  2  0  0  0
  7  8  1  0  0  0
  7 22  1  0  0  0
  8  9  1  0  0  0
  9 10  2  0  0  0
 10 11  1  0  0  0
 10 23  1  0  0  0
 11 12  1  0  0  0
 12 13  1  0  0  0
 12 19  1  0  0  0
 12 24  1  0  0  0
 13 14  1  0  0  0
 14 15  1  0  0  0
 14 17  1  0  0  0
 14 25  1  0  0  0
 15 16  1  0  0  0
 15 26  1  0  0  0
 15 27  1  0  0  0
 16 28  1  0  0  0
 17 18  1  0  0  0
 17 19  1  0  0  0
 17 29  1  0  0  0
 18 30  1  0  0  0
 19 20  1  0  0  0
 19 31  1  0  0  0
 20 32  1  0  0  0
M  END
> <s_m_source_file>
../3my5_ligand.sdf

> <i_m_source_file_index>
1

> <s_epik_input>
W2NIXTFjKENsKWMoQ2wpW2NIXWMoYzEyKW5bY0hdbjJbQ0BASF0zT1tDQEhdKFtDSDJdW09IXSlbQ0BASF0oW09IXSlbQ0BIXTNbT0hd

> <s_epik_cmdline>
J2VwaWtfYXBwJywgJy1pbWFlJywgJ2xpZ2FuZF9wcm8ubWFlJywgJy1vbWFlJywgJ2xpZ2FuZF9wcmVwLm1hZScsICctbXMnLCAnMScsICctcGgnLCAnNycsICctcGh0JywgJzAuNScsICctbnQn

> <r_lp_tautomer_probability>
1

> <r_epik_Ionization_Penalty>
  0.0034

> <r_epik_Ionization_Penalty_Charging>
  0.0000

> <r_epik_Ionization_Penalty_Neutral>
  0.0034

> <r_epik_State_Penalty>
 -0.0000

> <r_epik_Charging_Adjusted_Penalty>
0

> <i_epik_Tot_Q>
0

> <i_epik_Tot_abs_Q>
0

> <s_epik_Chemistry_Notes>
This compound contains an acetal/aminal-like group ( X-CH(R)-Y where X, Y are N, S, or O) that may be acid/base labile, releasing an aldehyde.

$$$$
