3mz3_ligand
                    3D
 Schrodinger Suite 2020-3.
 45 45  0  0  1  0            999 V2000
   19.7590   32.5870   18.9310 O   0  0  0  0  0  0
   20.8380   33.2660   18.9560 C   0  0  0  0  0  0
   21.3220   33.7800   20.2970 C   0  0  0  0  0  0
   22.6610   34.3240   20.4760 C   0  0  0  0  0  0
   23.0510   34.7970   21.7900 C   0  0  0  0  0  0
   22.1090   34.7360   22.9450 C   0  0  0  0  0  0
   22.4520   35.1960   24.2670 N   0  0  0  0  0  0
   23.7470   35.7640   24.6050 C   0  0  0  0  0  0
   21.4870   35.1180   25.3780 C   0  0  0  0  0  0
   20.7790   34.1850   22.7230 C   0  0  0  0  0  0
   20.3940   33.7180   21.4350 C   0  0  0  0  0  0
   21.5720   33.5420   17.8270 N   0  0  0  0  0  0
   21.2460   33.1170   16.4530 C   0  0  0  0  0  0
   21.8220   31.7640   16.0580 C   0  0  0  0  0  0
   21.1670   30.6350   16.8560 C   0  0  0  0  0  0
   21.7580   29.3030   16.4850 C   0  0  0  0  0  0
   21.1920   28.1410   17.2280 C   0  0  0  0  0  0
   21.9060   26.8950   16.7510 C   0  0  0  0  0  0
   21.0460   25.6800   16.9740 C   0  0  0  0  0  0
   20.5570   25.4050   18.0640 O   0  0  0  0  0  0
   20.8320   24.9080   15.9340 N   0  0  0  0  0  0
   20.1270   23.8880   16.0460 O   0  0  0  0  0  0
   23.3566   34.3746   19.6383 H   0  0  0  0  0  0
   24.0512   35.2048   21.9365 H   0  0  0  0  0  0
   24.3870   35.7758   23.7104 H   0  0  0  0  0  0
   24.2219   35.1541   25.3876 H   0  0  0  0  0  0
   23.6118   36.7919   24.9727 H   0  0  0  0  0  0
   20.5467   34.6762   25.0166 H   0  0  0  0  0  0
   21.2920   36.1287   25.7659 H   0  0  0  0  0  0
   21.9020   34.4909   26.1808 H   0  0  0  0  0  0
   20.0722   34.1299   23.5509 H   0  0  0  0  0  0
   19.3946   33.3077   21.2901 H   0  0  0  0  0  0
   22.4768   34.1375   18.0184 H   0  0  0  0  0  0
   20.1541   33.0452   16.3408 H   0  0  0  0  0  0
   21.6404   33.8539   15.7379 H   0  0  0  0  0  0
   21.6437   31.5882   14.9869 H   0  0  0  0  0  0
   22.9040   31.7541   16.2561 H   0  0  0  0  0  0
   21.3264   30.8055   17.9310 H   0  0  0  0  0  0
   20.0878   30.6144   16.6441 H   0  0  0  0  0  0
   21.5860   29.1106   15.4157 H   0  0  0  0  0  0
   22.8393   29.3127   16.6865 H   0  0  0  0  0  0
   21.3515   28.2829   18.3071 H   0  0  0  0  0  0
   20.1138   28.0650   17.0236 H   0  0  0  0  0  0
   22.1253   26.9866   15.6770 H   0  0  0  0  0  0
   22.8467   26.7754   17.3084 H   0  0  0  0  0  0
  1  2  2  0  0  0
  2  3  1  0  0  0
  2 12  1  0  0  0
  3  4  2  0  0  0
  3 11  1  0  0  0
  4  5  1  0  0  0
  4 23  1  0  0  0
  5  6  2  0  0  0
  5 24  1  0  0  0
  6  7  1  0  0  0
  6 10  1  0  0  0
  7  8  1  0  0  0
  7  9  1  0  0  0
  8 25  1  0  0  0
  8 26  1  0  0  0
  8 27  1  0  0  0
  9 28  1  0  0  0
  9 29  1  0  0  0
  9 30  1  0  0  0
 10 11  2  0  0  0
 10 31  1  0  0  0
 11 32  1  0  0  0
 12 13  1  0  0  0
 12 33  1  0  0  0
 13 14  1  0  0  0
 13 34  1  0  0  0
 13 35  1  0  0  0
 14 15  1  0  0  0
 14 36  1  0  0  0
 14 37  1  0  0  0
 15 16  1  0  0  0
 15 38  1  0  0  0
 15 39  1  0  0  0
 16 17  1  0  0  0
 16 40  1  0  0  0
 16 41  1  0  0  0
 17 18  1  0  0  0
 17 42  1  0  0  0
 17 43  1  0  0  0
 18 19  1  0  0  0
 18 44  1  0  0  0
 18 45  1  0  0  0
 19 20  2  0  0  0
 19 21  1  0  0  0
 21 22  2  0  0  0
M  END
> <s_m_source_file>
../3mz3_ligand.sdf

> <i_m_source_file_index>
1

> <s_epik_input>
W0NIM11OKFtDSDNdKWMoW2NIXVtjSF0xKVtjSF1bY0hdYzFDKD1PKVtOSF1bQ0gyXVtDSDJdW0NIMl1bQ0gyXVtDSDJdW0NIMl1DKD1PKU49Tw==

> <s_epik_cmdline>
J2VwaWtfYXBwJywgJy1pbWFlJywgJ2xpZ2FuZF9wcm8ubWFlJywgJy1vbWFlJywgJ2xpZ2FuZF9wcmVwLm1hZScsICctbXMnLCAnMScsICctcGgnLCAnNycsICctcGh0JywgJzAuNScsICctbnQn

> <r_lp_tautomer_probability>
1

> <r_epik_Ionization_Penalty>
  0.0007

> <r_epik_Ionization_Penalty_Charging>
  0.0000

> <r_epik_Ionization_Penalty_Neutral>
  0.0007

> <r_epik_State_Penalty>
 -0.0000

> <r_epik_Charging_Adjusted_Penalty>
0

> <i_epik_Tot_Q>
0

> <i_epik_Tot_abs_Q>
0

$$$$
