3mz6_ligand
                    3D
 Schrodinger Suite 2020-3.
 45 45  0  0  1  0            999 V2000
   -0.5420   43.6100    0.5860 O   0  0  0  0  0  0
   -0.4810   43.9260    1.5310 C   0  0  0  0  0  0
   -0.7100   45.4250    1.8120 C   0  0  0  0  0  0
    0.0780   46.1530    2.7940 C   0  0  0  0  0  0
   -0.1540   47.5620    3.0500 C   0  0  0  0  0  0
   -1.1880   48.2950    2.3290 C   0  0  0  0  0  0
   -1.4580   49.7090    2.5660 N   0  0  0  0  0  0
   -2.5690   50.4010    1.9000 C   0  0  0  0  0  0
   -0.6960   50.5200    3.5160 C   0  0  0  0  0  0
   -1.9930   47.5300    1.3460 C   0  0  0  0  0  0
   -1.7370   46.1510    1.0900 C   0  0  0  0  0  0
   -0.2160   43.0860    2.5730 N   0  0  0  0  0  0
    0.0460   41.6230    2.5860 C   0  0  0  0  0  0
    0.6310   41.0090    1.2980 C   0  0  0  0  0  0
    1.7240   39.9730    1.6230 C   0  0  0  0  0  0
    1.2010   38.6710    2.1950 C   0  0  0  0  0  0
    1.7440   37.4680    1.4290 C   0  0  0  0  0  0
    2.3970   36.5090    2.4160 C   0  0  0  0  0  0
    1.8740   35.0690    2.3380 C   0  0  0  0  0  0
    0.7680   34.7760    2.7960 O   0  0  0  0  0  0
    2.6060   34.1270    1.7680 N   0  0  0  0  0  0
    2.1540   32.9790    1.7120 O   0  0  0  0  0  0
    0.8576   45.6301    3.3481 H   0  0  0  0  0  0
    0.4534   48.0802    3.7920 H   0  0  0  0  0  0
   -3.0730   49.7070    1.2112 H   0  0  0  0  0  0
   -2.1794   51.2604    1.3347 H   0  0  0  0  0  0
   -3.2867   50.7538    2.6553 H   0  0  0  0  0  0
    0.1075   49.9111    3.9560 H   0  0  0  0  0  0
   -1.3649   50.8760    4.3134 H   0  0  0  0  0  0
   -0.2577   51.3826    2.9927 H   0  0  0  0  0  0
   -2.7970   48.0324    0.8081 H   0  0  0  0  0  0
   -2.3263   45.6308    0.3348 H   0  0  0  0  0  0
   -0.2128   43.6537    3.5152 H   0  0  0  0  0  0
    0.7674   41.3868    3.3821 H   0  0  0  0  0  0
   -0.8946   41.0837    2.7717 H   0  0  0  0  0  0
   -0.1700   40.5094    0.7334 H   0  0  0  0  0  0
    1.0734   41.8047    0.6806 H   0  0  0  0  0  0
    2.2757   39.7218    0.7051 H   0  0  0  0  0  0
    2.4188   40.3935    2.3649 H   0  0  0  0  0  0
    1.5093   38.5827    3.2472 H   0  0  0  0  0  0
    0.1029   38.6578    2.1323 H   0  0  0  0  0  0
    0.9178   36.9611    0.9090 H   0  0  0  0  0  0
    2.4874   37.8073    0.6927 H   0  0  0  0  0  0
    3.4797   36.4685    2.2262 H   0  0  0  0  0  0
    2.2176   36.8610    3.4426 H   0  0  0  0  0  0
  1  2  2  0  0  0
  2  3  1  0  0  0
  2 12  1  0  0  0
  3  4  2  0  0  0
  3 11  1  0  0  0
  4  5  1  0  0  0
  4 23  1  0  0  0
  5  6  2  0  0  0
  5 24  1  0  0  0
  6  7  1  0  0  0
  6 10  1  0  0  0
  7  8  1  0  0  0
  7  9  1  0  0  0
  8 25  1  0  0  0
  8 26  1  0  0  0
  8 27  1  0  0  0
  9 28  1  0  0  0
  9 29  1  0  0  0
  9 30  1  0  0  0
 10 11  2  0  0  0
 10 31  1  0  0  0
 11 32  1  0  0  0
 12 13  1  0  0  0
 12 33  1  0  0  0
 13 14  1  0  0  0
 13 34  1  0  0  0
 13 35  1  0  0  0
 14 15  1  0  0  0
 14 36  1  0  0  0
 14 37  1  0  0  0
 15 16  1  0  0  0
 15 38  1  0  0  0
 15 39  1  0  0  0
 16 17  1  0  0  0
 16 40  1  0  0  0
 16 41  1  0  0  0
 17 18  1  0  0  0
 17 42  1  0  0  0
 17 43  1  0  0  0
 18 19  1  0  0  0
 18 44  1  0  0  0
 18 45  1  0  0  0
 19 20  2  0  0  0
 19 21  1  0  0  0
 21 22  2  0  0  0
M  END
> <s_m_source_file>
../3mz6_ligand.sdf

> <i_m_source_file_index>
1

> <s_epik_input>
W0NIM11OKFtDSDNdKWMoW2NIXVtjSF0xKVtjSF1bY0hdYzFDKD1PKVtOSF1bQ0gyXVtDSDJdW0NIMl1bQ0gyXVtDSDJdW0NIMl1DKD1PKU49Tw==

> <s_epik_cmdline>
J2VwaWtfYXBwJywgJy1pbWFlJywgJ2xpZ2FuZF9wcm8ubWFlJywgJy1vbWFlJywgJ2xpZ2FuZF9wcmVwLm1hZScsICctbXMnLCAnMScsICctcGgnLCAnNycsICctcGh0JywgJzAuNScsICctbnQn

> <r_lp_tautomer_probability>
1

> <r_epik_Ionization_Penalty>
  0.0007

> <r_epik_Ionization_Penalty_Charging>
  0.0000

> <r_epik_Ionization_Penalty_Neutral>
  0.0007

> <r_epik_State_Penalty>
 -0.0000

> <r_epik_Charging_Adjusted_Penalty>
0

> <i_epik_Tot_Q>
0

> <i_epik_Tot_abs_Q>
0

$$$$
