3mzc_ligand
                    3D
 Schrodinger Suite 2020-3.
 36 37  0  0  1  0            999 V2000
   -5.0690    2.2280   15.7970 C   0  0  0  0  0  0
   -5.3850   -0.4900   16.1470 N   0  0  0  0  0  0
   -7.3100    1.1610   16.6550 O   0  0  0  0  0  0
   -5.8620    0.9760   16.7700 S   0  0  0  0  0  0
   -5.7650    3.3080   15.3320 C   0  0  0  0  0  0
   -5.3530    1.1050   18.1370 O   0  0  0  0  0  0
   -5.1270    4.2980   14.6120 C   0  0  0  0  0  0
   -3.7750    4.1690   14.3490 C   0  0  0  0  0  0
   -3.0900    3.1030   14.8080 C   0  0  0  0  0  0
   -3.7020    2.1450   15.5090 C   0  0  0  0  0  0
   -2.9260    5.1230   13.6770 N   0  0  0  0  0  0
   -3.2450    6.4550   13.3690 C   0  0  0  0  0  0
   -4.3040    6.9340   13.6480 O   0  0  0  0  0  0
   -2.0960    7.2070   12.9610 N   0  0  0  0  0  0
   -2.1060    8.5580   12.8950 C   0  0  0  0  0  0
   -2.1230    9.0870   14.2700 C   0  0  0  0  0  0
   -0.7180    9.1120   14.7700 C   0  0  0  0  0  0
    0.1500    9.0570   13.5390 C   0  0  0  0  0  0
   -0.7970    9.0040   12.3390 C   0  0  0  0  0  0
   -5.8540   -1.3025   16.7213 H   0  0  0  0  0  0
   -4.2906   -0.5781   16.2138 H   0  0  0  0  0  0
   -6.8336    3.3885   15.5314 H   0  0  0  0  0  0
   -5.6797    5.1675   14.2564 H   0  0  0  0  0  0
   -2.0223    3.0216   14.6044 H   0  0  0  0  0  0
   -3.1292    1.2872   15.8614 H   0  0  0  0  0  0
   -1.9172    4.8284   13.3521 H   0  0  0  0  0  0
   -1.1850    6.6502   12.6966 H   0  0  0  0  0  0
   -2.9908    8.8135   12.2935 H   0  0  0  0  0  0
   -2.5437   10.1034   14.2666 H   0  0  0  0  0  0
   -2.7415    8.4363   14.9056 H   0  0  0  0  0  0
   -0.5480   10.0374   15.3398 H   0  0  0  0  0  0
   -0.5453    8.2430   15.4220 H   0  0  0  0  0  0
    0.7854    9.9540   13.4980 H   0  0  0  0  0  0
    0.7848    8.1595   13.5777 H   0  0  0  0  0  0
   -0.4538    8.2811   11.5843 H   0  0  0  0  0  0
   -0.9147    9.9932   11.8724 H   0  0  0  0  0  0
  1  4  1  0  0  0
  1  5  2  0  0  0
  1 10  1  0  0  0
  2  4  1  0  0  0
  2 20  1  0  0  0
  2 21  1  0  0  0
  3  4  2  0  0  0
  4  6  2  0  0  0
  5  7  1  0  0  0
  5 22  1  0  0  0
  7  8  2  0  0  0
  7 23  1  0  0  0
  8  9  1  0  0  0
  8 11  1  0  0  0
  9 10  2  0  0  0
  9 24  1  0  0  0
 10 25  1  0  0  0
 11 12  1  0  0  0
 11 26  1  0  0  0
 12 13  2  0  0  0
 12 14  1  0  0  0
 14 15  1  0  0  0
 14 27  1  0  0  0
 15 16  1  0  0  0
 15 19  1  0  0  0
 15 28  1  0  0  0
 16 17  1  0  0  0
 16 29  1  0  0  0
 16 30  1  0  0  0
 17 18  1  0  0  0
 17 31  1  0  0  0
 17 32  1  0  0  0
 18 19  1  0  0  0
 18 33  1  0  0  0
 18 34  1  0  0  0
 19 35  1  0  0  0
 19 36  1  0  0  0
M  END
> <s_m_source_file>
../3mzc_ligand.sdf

> <i_m_source_file_index>
1

> <s_epik_input>
W05IMl1TKD1PKSg9TyljMVtjSF1bY0hdYyhbY0hdW2NIXTEpW05IXUMoPU8pW05IXVtDSF0yW0NIMl1bQ0gyXVtDSDJdW0NIMl0y

> <s_epik_cmdline>
J2VwaWtfYXBwJywgJy1pbWFlJywgJ2xpZ2FuZF9wcm8ubWFlJywgJy1vbWFlJywgJ2xpZ2FuZF9wcmVwLm1hZScsICctbXMnLCAnMScsICctcGgnLCAnNycsICctcGh0JywgJzAuNScsICctbnQn

> <r_lp_tautomer_probability>
1

> <r_epik_Ionization_Penalty>
  0.0004

> <r_epik_Ionization_Penalty_Charging>
  0.0000

> <r_epik_Ionization_Penalty_Neutral>
  0.0004

> <r_epik_State_Penalty>
 -0.0000

> <r_epik_Charging_Adjusted_Penalty>
0

> <i_epik_Tot_Q>
0

> <i_epik_Tot_abs_Q>
0

$$$$
