3n0h_ligand
                    3D
 Schrodinger Suite 2020-3.
 40 41  0  0  1  0            999 V2000
   -3.4720  -16.8490    2.7540 C   0  0  0  0  0  0
   -3.2870  -17.4760    3.9080 N   0  3  0  0  0  0
   -2.8880  -18.7560    3.9570 C   0  0  0  0  0  0
   -2.6720  -19.3000    5.1860 N   0  0  0  0  0  0
   -2.7070  -19.4680    2.8340 N   0  0  0  0  0  0
   -2.8840  -18.9080    1.6270 C   0  0  0  0  0  0
   -2.6670  -19.6170    0.5020 N   0  0  0  0  0  0
   -3.2870  -17.4930    1.5600 C   0  0  0  0  0  0
   -3.5320  -16.7250    0.2650 C   0  0  0  0  0  0
   -2.2390  -16.0280   -0.2150 C   0  0  0  0  0  0
   -1.7110  -16.4250   -1.4560 C   0  0  0  0  0  0
   -0.5550  -15.8560   -1.9990 C   0  0  0  0  0  0
    0.0140  -16.2370   -3.1930 O   0  0  0  0  0  0
   -0.5820  -17.3170   -3.9080 C   0  0  0  0  0  0
    0.1650  -14.8360   -1.2380 C   0  0  0  0  0  0
    1.2660  -14.2520   -1.7630 O   0  0  0  0  0  0
    1.0440  -13.1810   -2.6950 C   0  0  0  0  0  0
   -0.3760  -14.4190    0.0620 C   0  0  0  0  0  0
    0.2950  -13.4150    0.7240 O   0  0  0  0  0  0
   -0.3350  -13.0380    1.9590 C   0  0  0  0  0  0
   -1.5600  -15.0430    0.5560 C   0  0  0  0  0  0
   -3.7767  -15.8025    2.7562 H   0  0  0  0  0  0
   -2.8279  -18.6941    6.0908 H   0  0  0  0  0  0
   -2.3415  -20.3455    5.2744 H   0  0  0  0  0  0
   -2.3664  -20.6731    0.5669 H   0  0  0  0  0  0
   -2.7904  -19.1397   -0.4813 H   0  0  0  0  0  0
   -3.8693  -17.4219   -0.5164 H   0  0  0  0  0  0
   -4.3048  -15.9604    0.4327 H   0  0  0  0  0  0
   -2.2229  -17.2070   -2.0168 H   0  0  0  0  0  0
   -0.0170  -17.4999   -4.8339 H   0  0  0  0  0  0
   -1.6224  -17.0616   -4.1577 H   0  0  0  0  0  0
   -0.5664  -18.2227   -3.2840 H   0  0  0  0  0  0
    2.0119  -12.7940   -3.0462 H   0  0  0  0  0  0
    0.4844  -12.3739   -2.1996 H   0  0  0  0  0  0
    0.4658  -13.5553   -3.5527 H   0  0  0  0  0  0
    0.2463  -12.2359    2.4372 H   0  0  0  0  0  0
   -0.3784  -13.9091    2.6293 H   0  0  0  0  0  0
   -1.3552  -12.6804    1.7559 H   0  0  0  0  0  0
   -1.9489  -14.7623    1.5348 H   0  0  0  0  0  0
   -3.4612  -16.9460    4.8560 H   0  0  0  0  0  0
  1  2  2  0  0  0
  1  8  1  0  0  0
  1 22  1  0  0  0
  2  3  1  0  0  0
  2 40  1  0  0  0
  3  4  1  0  0  0
  3  5  2  0  0  0
  4 23  1  0  0  0
  4 24  1  0  0  0
  5  6  1  0  0  0
  6  7  1  0  0  0
  6  8  2  0  0  0
  7 25  1  0  0  0
  7 26  1  0  0  0
  8  9  1  0  0  0
  9 10  1  0  0  0
  9 27  1  0  0  0
  9 28  1  0  0  0
 10 11  2  0  0  0
 10 21  1  0  0  0
 11 12  1  0  0  0
 11 29  1  0  0  0
 12 13  1  0  0  0
 12 15  2  0  0  0
 13 14  1  0  0  0
 14 30  1  0  0  0
 14 31  1  0  0  0
 14 32  1  0  0  0
 15 16  1  0  0  0
 15 18  1  0  0  0
 16 17  1  0  0  0
 17 33  1  0  0  0
 17 34  1  0  0  0
 17 35  1  0  0  0
 18 19  1  0  0  0
 18 21  2  0  0  0
 19 20  1  0  0  0
 20 36  1  0  0  0
 20 37  1  0  0  0
 20 38  1  0  0  0
 21 39  1  0  0  0
M  CHG  1   2   1
M  END
> <s_m_source_file>
../3n0h_ligand.sdf

> <i_m_source_file_index>
1

> <s_epik_input>
W05IMl1jMW5bY0hdYyhjKG4xKVtOSDJdKVtDSDJdYzJbY0hdYyhPW0NIM10pYyhPW0NIM10pYyhbY0hdMilPW0NIM10=

> <s_epik_cmdline>
J2VwaWtfYXBwJywgJy1pbWFlJywgJ2xpZ2FuZF9wcm8ubWFlJywgJy1vbWFlJywgJ2xpZ2FuZF9wcmVwLm1hZScsICctbXMnLCAnMScsICctcGgnLCAnNycsICctcGh0JywgJzAuNScsICctbnQn

> <r_lp_tautomer_probability>
0.575010577011949

> <r_epik_Ionization_Penalty>
  0.2380

> <r_epik_Ionization_Penalty_Charging>
  0.2380

> <r_epik_Ionization_Penalty_Neutral>
  0.0000

> <r_epik_State_Penalty>
  0.4697

> <r_epik_Charging_Adjusted_Penalty>
0.707697881122565

> <i_epik_Tot_Q>
1

> <i_epik_Tot_abs_Q>
1

$$$$
