3n0n_ligand
                    3D
 Schrodinger Suite 2020-3.
 33 34  0  0  1  0            999 V2000
   -5.1560    2.2640   15.7830 C   0  0  0  0  0  0
   -5.3990   -0.3890   16.0460 N   0  0  0  0  0  0
   -5.3500    1.0290   18.0300 O   0  0  0  0  0  0
   -5.8790    0.9470   16.6980 S   0  0  0  0  0  0
   -3.7120    2.2500   15.4550 C   0  0  0  0  0  0
   -7.2950    1.0720   16.6250 O   0  0  0  0  0  0
   -3.1370    3.2740   14.7980 C   0  0  0  0  0  0
   -3.9760    4.3770   14.3520 C   0  0  0  0  0  0
   -5.3110    4.4310   14.6390 C   0  0  0  0  0  0
   -5.9350    3.3190   15.3850 C   0  0  0  0  0  0
   -3.3560    5.4560   13.6950 N   0  0  0  0  0  0
   -4.0350    6.2540   12.7490 C   0  0  0  0  0  0
   -5.1520    5.9930   12.3080 O   0  0  0  0  0  0
   -3.2990    7.3430   12.2220 N   0  0  0  0  0  0
   -2.0410    7.7650   12.7340 C   0  0  0  0  0  0
   -1.9380    8.0970   14.0730 C   0  0  0  0  0  0
   -2.9420    7.9460   14.9360 F   0  0  0  0  0  0
   -0.7460    8.5890   14.5700 C   0  0  0  0  0  0
   -0.7340    8.8410   15.8680 F   0  0  0  0  0  0
    0.3580    8.7780   13.7280 C   0  0  0  0  0  0
    1.5250    9.2580   14.1640 F   0  0  0  0  0  0
    0.2080    8.4570   12.3750 C   0  0  0  0  0  0
    1.2260    8.6330   11.5510 F   0  0  0  0  0  0
   -1.0020    7.9830   11.8820 C   0  0  0  0  0  0
   -1.1810    7.6720   10.6030 F   0  0  0  0  0  0
   -5.8318   -1.2399   16.5925 H   0  0  0  0  0  0
   -4.3013   -0.4449   16.0902 H   0  0  0  0  0  0
   -3.1041    1.3951   15.7510 H   0  0  0  0  0  0
   -2.0645    3.2775   14.6036 H   0  0  0  0  0  0
   -5.9088    5.2851   14.3210 H   0  0  0  0  0  0
   -7.0002    3.3374   15.6157 H   0  0  0  0  0  0
   -2.3062    5.7024   13.9123 H   0  0  0  0  0  0
   -3.6958    7.9139   11.3695 H   0  0  0  0  0  0
  1  4  1  0  0  0
  1  5  2  0  0  0
  1 10  1  0  0  0
  2  4  1  0  0  0
  2 26  1  0  0  0
  2 27  1  0  0  0
  3  4  2  0  0  0
  4  6  2  0  0  0
  5  7  1  0  0  0
  5 28  1  0  0  0
  7  8  2  0  0  0
  7 29  1  0  0  0
  8  9  1  0  0  0
  8 11  1  0  0  0
  9 10  2  0  0  0
  9 30  1  0  0  0
 10 31  1  0  0  0
 11 12  1  0  0  0
 11 32  1  0  0  0
 12 13  2  0  0  0
 12 14  1  0  0  0
 14 15  1  0  0  0
 14 33  1  0  0  0
 15 16  2  0  0  0
 15 24  1  0  0  0
 16 17  1  0  0  0
 16 18  1  0  0  0
 18 19  1  0  0  0
 18 20  2  0  0  0
 20 21  1  0  0  0
 20 22  1  0  0  0
 22 23  1  0  0  0
 22 24  2  0  0  0
 24 25  1  0  0  0
M  END
> <s_m_source_file>
../3n0n_ligand.sdf

> <i_m_source_file_index>
1

> <s_epik_input>
W05IMl1TKD1PKSg9TyljMVtjSF1bY0hdYyhbY0hdW2NIXTEpW05IXUMoPU8pW05IXWMyYyhGKWMoRiljKEYpYyhGKWMyRg==

> <s_epik_cmdline>
J2VwaWtfYXBwJywgJy1pbWFlJywgJ2xpZ2FuZF9wcm8ubWFlJywgJy1vbWFlJywgJ2xpZ2FuZF9wcmVwLm1hZScsICctbXMnLCAnMScsICctcGgnLCAnNycsICctcGh0JywgJzAuNScsICctbnQn

> <r_lp_tautomer_probability>
1

> <r_epik_Ionization_Penalty>
  0.0004

> <r_epik_Ionization_Penalty_Charging>
  0.0000

> <r_epik_Ionization_Penalty_Neutral>
  0.0004

> <r_epik_State_Penalty>
 -0.0000

> <r_epik_Charging_Adjusted_Penalty>
0

> <i_epik_Tot_Q>
0

> <i_epik_Tot_abs_Q>
0

$$$$
