3n1v_ligand
                    3D
 Schrodinger Suite 2020-3.
 23 24  0  0  1  0            999 V2000
   -0.1650   77.9230   28.9120 Cl  0  0  0  0  0  0
    1.5040   78.0890   28.5960 C   0  0  0  0  0  0
    2.3460   76.9620   28.6930 C   0  0  0  0  0  0
    3.6950   77.1810   28.4450 C   0  0  0  0  0  0
    4.1810   78.4370   28.1120 C   0  0  0  0  0  0
    5.9200   78.5420   27.8050 S   0  0  0  0  0  0
    5.9750   76.7620   28.1520 C   0  0  0  0  0  0
    4.8010   76.1820   28.4740 C   0  0  0  0  0  0
    4.5890   74.7150   28.8210 C   0  0  0  0  0  0
    7.2460   75.9870   28.0770 C   0  0  0  0  0  0
    7.5280   75.6680   26.6240 C   0  0  0  0  0  0
    8.6580   75.7440   26.1730 O   0  0  0  0  0  0
    6.4840   75.3040   25.8640 O   0  5  0  0  0  0
    3.3370   79.5540   28.0130 C   0  0  0  0  0  0
    1.9810   79.3660   28.2630 C   0  0  0  0  0  0
    1.9601   75.9750   28.9481 H   0  0  0  0  0  0
    3.5251   74.5397   29.0385 H   0  0  0  0  0  0
    5.1913   74.4564   29.7044 H   0  0  0  0  0  0
    4.8974   74.0889   27.9708 H   0  0  0  0  0  0
    8.0669   76.5875   28.4960 H   0  0  0  0  0  0
    7.1421   75.0556   28.6529 H   0  0  0  0  0  0
    3.7304   80.5357   27.7492 H   0  0  0  0  0  0
    1.2916   80.2080   28.2004 H   0  0  0  0  0  0
  1  2  1  0  0  0
  2  3  1  0  0  0
  2 15  2  0  0  0
  3  4  2  0  0  0
  3 16  1  0  0  0
  4  5  1  0  0  0
  4  8  1  0  0  0
  5  6  1  0  0  0
  5 14  2  0  0  0
  6  7  1  0  0  0
  7  8  2  0  0  0
  7 10  1  0  0  0
  8  9  1  0  0  0
  9 17  1  0  0  0
  9 18  1  0  0  0
  9 19  1  0  0  0
 10 11  1  0  0  0
 10 20  1  0  0  0
 10 21  1  0  0  0
 11 12  2  0  0  0
 11 13  1  0  0  0
 14 15  1  0  0  0
 14 22  1  0  0  0
 15 23  1  0  0  0
M  CHG  1  13  -1
M  END
> <s_m_source_file>
../3n1v_ligand.sdf

> <i_m_source_file_index>
1

> <s_epik_input>
Q2xjKFtjSF0xKVtjSF1bY0hdYyhjMTIpc2MoYzJbQ0gzXSlbQ0gyXUMoPU8pW09IXQ==

> <s_epik_cmdline>
J2VwaWtfYXBwJywgJy1pbWFlJywgJ2xpZ2FuZF9wcm8ubWFlJywgJy1vbWFlJywgJ2xpZ2FuZF9wcmVwLm1hZScsICctbXMnLCAnMScsICctcGgnLCAnNycsICctcGh0JywgJzAuNScsICctbnQn

> <r_lp_tautomer_probability>
1

> <r_epik_Ionization_Penalty>
  0.0005

> <r_epik_Ionization_Penalty_Charging>
  0.0005

> <r_epik_Ionization_Penalty_Neutral>
  0.0000

> <r_epik_State_Penalty>
 -0.0000

> <r_epik_Charging_Adjusted_Penalty>
0.000530619778825601

> <i_epik_Tot_Q>
-1

> <i_epik_Tot_abs_Q>
1

$$$$
