3n1w_ligand
                    3D
 Schrodinger Suite 2020-3.
 20 21  0  0  1  0            999 V2000
    1.8190   73.6730   28.3820 Cl  0  0  0  0  0  0
    2.1990   75.3580   28.2910 C   0  0  0  0  0  0
    3.5410   75.7690   28.4230 C   0  0  0  0  0  0
    3.7950   77.1350   28.3030 C   0  0  0  0  0  0
    2.7840   78.0600   28.0790 C   0  0  0  0  0  0
    3.2650   79.6710   27.9700 S   0  0  0  0  0  0
    4.9790   79.1280   28.1970 C   0  0  0  0  0  0
    5.1240   77.8050   28.3500 C   0  0  0  0  0  0
    6.4400   77.0470   28.4890 C   0  0  0  0  0  0
    6.7500   76.1200   27.2700 C   0  0  0  0  0  0
    5.9150   75.7910   26.4370 O   0  0  0  0  0  0
    8.0070   75.6450   27.1610 O   0  5  0  0  0  0
    1.4440   77.6780   27.9430 C   0  0  0  0  0  0
    1.1610   76.3010   28.0500 C   0  0  0  0  0  0
    4.3417   75.0534   28.6099 H   0  0  0  0  0  0
    5.8213   79.8198   28.2081 H   0  0  0  0  0  0
    7.2688   77.7647   28.5790 H   0  0  0  0  0  0
    6.4049   76.4130   29.3872 H   0  0  0  0  0  0
    0.6570   78.4103   27.7630 H   0  0  0  0  0  0
    0.1329   75.9540   27.9467 H   0  0  0  0  0  0
  1  2  1  0  0  0
  2  3  1  0  0  0
  2 14  2  0  0  0
  3  4  2  0  0  0
  3 15  1  0  0  0
  4  5  1  0  0  0
  4  8  1  0  0  0
  5  6  1  0  0  0
  5 13  2  0  0  0
  6  7  1  0  0  0
  7  8  2  0  0  0
  7 16  1  0  0  0
  8  9  1  0  0  0
  9 10  1  0  0  0
  9 17  1  0  0  0
  9 18  1  0  0  0
 10 11  2  0  0  0
 10 12  1  0  0  0
 13 14  1  0  0  0
 13 19  1  0  0  0
 14 20  1  0  0  0
M  CHG  1  12  -1
M  END
> <s_m_source_file>
../3n1w_ligand.sdf

> <i_m_source_file_index>
1

> <s_epik_input>
Q2xjKFtjSF0xKVtjSF1bY0hdYyhjMTIpc1tjSF1jMltDSDJdQyg9TylbT0hd

> <s_epik_cmdline>
J2VwaWtfYXBwJywgJy1pbWFlJywgJ2xpZ2FuZF9wcm8ubWFlJywgJy1vbWFlJywgJ2xpZ2FuZF9wcmVwLm1hZScsICctbXMnLCAnMScsICctcGgnLCAnNycsICctcGh0JywgJzAuNScsICctbnQn

> <r_lp_tautomer_probability>
1

> <r_epik_Ionization_Penalty>
  0.0015

> <r_epik_Ionization_Penalty_Charging>
  0.0015

> <r_epik_Ionization_Penalty_Neutral>
  0.0000

> <r_epik_State_Penalty>
 -0.0000

> <r_epik_Charging_Adjusted_Penalty>
0.0015371435743287

> <i_epik_Tot_Q>
-1

> <i_epik_Tot_abs_Q>
1

$$$$
