3n23_ligand
                    3D
 Schrodinger Suite 2020-3.
 85 90  0  0  1  0            999 V2000
  -26.3960  -19.0990   74.6690 C   0  0  2  0  0  0
  -27.9050  -19.3420   74.7150 C   0  0  0  0  0  0
  -28.2100  -20.3120   75.8420 C   0  0  1  0  0  0
  -27.4620  -21.6100   75.5740 C   0  0  0  0  0  0
  -25.9510  -21.4110   75.4250 C   0  0  1  0  0  0
  -25.2690  -22.7470   75.1730 C   0  0  0  0  0  0
  -25.6680  -23.2930   73.8150 C   0  0  0  0  0  0
  -25.3310  -22.2780   72.7220 C   0  0  2  0  0  0
  -25.9980  -20.9160   72.9380 C   0  0  1  0  0  0
  -25.6290  -20.3770   74.3270 C   0  0  1  0  0  0
  -25.5570  -20.0460   71.7540 C   0  0  1  0  0  0
  -26.2620  -20.5630   70.5080 C   0  0  0  0  0  0
  -25.8260  -21.9770   70.1400 C   0  0  1  0  0  0
  -25.5500  -22.9070   71.3430 C   0  0  2  0  0  0
  -26.6650  -23.9430   71.4350 C   0  0  0  0  0  0
  -27.4940  -23.8500   70.1760 C   0  0  0  0  0  0
  -27.0150  -22.6260   69.4230 C   0  0  2  0  0  0
  -24.5910  -21.8050   69.2530 C   0  0  0  0  0  0
  -24.1160  -20.1600   74.2110 C   0  0  0  0  0  0
  -26.7240  -23.1300   68.0570 C   0  0  0  0  0  0
  -25.7380  -24.2390   67.7120 C   0  0  0  0  0  0
  -27.4020  -22.6550   67.0260 C   0  0  0  0  0  0
  -26.9570  -23.4640   65.9010 C   0  0  0  0  0  0
  -28.2980  -20.0190   78.2670 C   0  0  2  0  0  0
  -27.5660  -19.1450   79.2690 C   0  0  1  0  0  0
  -27.7650  -17.6720   78.9010 C   0  0  1  0  0  0
  -29.2460  -17.3190   78.7390 C   0  0  2  0  0  0
  -29.9450  -18.3320   77.8330 C   0  0  2  0  0  0
  -31.4490  -18.1250   77.8010 C   0  0  0  0  0  0
  -25.9480  -18.6020   75.9400 O   0  0  0  0  0  0
  -27.6830  -19.7160   77.0210 O   0  0  0  0  0  0
  -25.4270  -20.9290   76.6630 O   0  0  0  0  0  0
  -25.8020  -18.6360   71.8960 O   0  0  0  0  0  0
  -24.3510  -23.6210   71.0630 O   0  0  0  0  0  0
  -23.7360  -18.8000   73.9650 O   0  0  0  0  0  0
  -26.0670  -24.5070   66.3520 O   0  0  0  0  0  0
  -27.2790  -23.3000   64.7480 O   0  0  0  0  0  0
  -28.0640  -19.4390   80.5760 O   0  0  0  0  0  0
  -27.1660  -16.8330   79.8910 O   0  0  0  0  0  0
  -29.3650  -16.0060   78.1770 O   0  0  0  0  0  0
  -29.6880  -19.6740   78.2670 O   0  0  0  0  0  0
  -26.1721  -18.3190   73.9264 H   0  0  0  0  0  0
  -28.4246  -18.3889   74.8927 H   0  0  0  0  0  0
  -28.2373  -19.7676   73.7567 H   0  0  0  0  0  0
  -29.2848  -20.4943   75.9889 H   0  0  0  0  0  0
  -27.6261  -22.3069   76.4091 H   0  0  0  0  0  0
  -27.8327  -22.0611   74.6418 H   0  0  0  0  0  0
  -24.1776  -22.6123   75.1997 H   0  0  0  0  0  0
  -25.5690  -23.4644   75.9511 H   0  0  0  0  0  0
  -25.1218  -24.2279   73.6208 H   0  0  0  0  0  0
  -26.7499  -23.4912   73.8029 H   0  0  0  0  0  0
  -24.2608  -22.0312   72.7833 H   0  0  0  0  0  0
  -27.0974  -20.9510   72.9462 H   0  0  0  0  0  0
  -24.4590  -20.0642   71.6908 H   0  0  0  0  0  0
  -27.3484  -20.5759   70.6801 H   0  0  0  0  0  0
  -26.0333  -19.9042   69.6573 H   0  0  0  0  0  0
  -26.2257  -24.9473   71.5271 H   0  0  0  0  0  0
  -27.2885  -23.7333   72.3166 H   0  0  0  0  0  0
  -27.3495  -24.7592   69.5739 H   0  0  0  0  0  0
  -28.5566  -23.7521   70.4430 H   0  0  0  0  0  0
  -27.7613  -21.8216   69.3455 H   0  0  0  0  0  0
  -23.7842  -21.3353   69.8348 H   0  0  0  0  0  0
  -24.8429  -21.1664   68.3935 H   0  0  0  0  0  0
  -24.2581  -22.7897   68.8931 H   0  0  0  0  0  0
  -23.6286  -20.4674   75.1480 H   0  0  0  0  0  0
  -23.7221  -20.7613   73.3784 H   0  0  0  0  0  0
  -24.7102  -23.8700   67.8443 H   0  0  0  0  0  0
  -25.9069  -25.0995   68.3761 H   0  0  0  0  0  0
  -28.1087  -21.8241   67.1682 H   0  0  0  0  0  0
  -28.2673  -21.1047   78.4411 H   0  0  0  0  0  0
  -26.4912  -19.3744   79.3164 H   0  0  0  0  0  0
  -27.2305  -17.4521   77.9651 H   0  0  0  0  0  0
  -29.7436  -17.2792   79.7192 H   0  0  0  0  0  0
  -29.5215  -18.2377   76.8222 H   0  0  0  0  0  0
  -31.6710  -17.0997   77.4700 H   0  0  0  0  0  0
  -31.8623  -18.2828   78.8081 H   0  0  0  0  0  0
  -31.9031  -18.8425   77.1017 H   0  0  0  0  0  0
  -26.3868  -17.6836   76.3571 H   0  0  0  0  0  0
  -25.5504  -21.5226   77.5808 H   0  0  0  0  0  0
  -25.3697  -18.0854   72.7445 H   0  0  0  0  0  0
  -23.4009  -23.0780   70.9510 H   0  0  0  0  0  0
  -22.6730  -18.5355   73.8649 H   0  0  0  0  0  0
  -27.9891  -20.4609   80.9761 H   0  0  0  0  0  0
  -26.1003  -16.9484   80.1381 H   0  0  0  0  0  0
  -28.9196  -15.1437   78.6947 H   0  0  0  0  0  0
  1  2  1  0  0  0
  1 10  1  0  0  0
  1 30  1  0  0  0
  1 42  1  0  0  0
  2  3  1  0  0  0
  2 43  1  0  0  0
  2 44  1  0  0  0
  3  4  1  0  0  0
  3 31  1  0  0  0
  3 45  1  0  0  0
  4  5  1  0  0  0
  4 46  1  0  0  0
  4 47  1  0  0  0
  5  6  1  0  0  0
  5 10  1  0  0  0
  5 32  1  0  0  0
  6  7  1  0  0  0
  6 48  1  0  0  0
  6 49  1  0  0  0
  7  8  1  0  0  0
  7 50  1  0  0  0
  7 51  1  0  0  0
  8  9  1  0  0  0
  8 14  1  0  0  0
  8 52  1  0  0  0
  9 10  1  0  0  0
  9 11  1  0  0  0
  9 53  1  0  0  0
 10 19  1  0  0  0
 11 12  1  0  0  0
 11 33  1  0  0  0
 11 54  1  0  0  0
 12 13  1  0  0  0
 12 55  1  0  0  0
 12 56  1  0  0  0
 13 14  1  0  0  0
 13 17  1  0  0  0
 13 18  1  0  0  0
 14 15  1  0  0  0
 14 34  1  0  0  0
 15 16  1  0  0  0
 15 57  1  0  0  0
 15 58  1  0  0  0
 16 17  1  0  0  0
 16 59  1  0  0  0
 16 60  1  0  0  0
 17 20  1  0  0  0
 17 61  1  0  0  0
 18 62  1  0  0  0
 18 63  1  0  0  0
 18 64  1  0  0  0
 19 35  1  0  0  0
 19 65  1  0  0  0
 19 66  1  0  0  0
 20 21  1  0  0  0
 20 22  2  0  0  0
 21 36  1  0  0  0
 21 67  1  0  0  0
 21 68  1  0  0  0
 22 23  1  0  0  0
 22 69  1  0  0  0
 23 36  1  0  0  0
 23 37  2  0  0  0
 24 25  1  0  0  0
 24 31  1  0  0  0
 24 41  1  0  0  0
 24 70  1  0  0  0
 25 26  1  0  0  0
 25 38  1  0  0  0
 25 71  1  0  0  0
 26 27  1  0  0  0
 26 39  1  0  0  0
 26 72  1  0  0  0
 27 28  1  0  0  0
 27 40  1  0  0  0
 27 73  1  0  0  0
 28 29  1  0  0  0
 28 41  1  0  0  0
 28 74  1  0  0  0
 29 75  1  0  0  0
 29 76  1  0  0  0
 29 77  1  0  0  0
 30 78  1  0  0  0
 32 79  1  0  0  0
 33 80  1  0  0  0
 34 81  1  0  0  0
 35 82  1  0  0  0
 38 83  1  0  0  0
 39 84  1  0  0  0
 40 85  1  0  0  0
M  END
> <s_m_source_file>
../3n23_ligand.sdf

> <i_m_source_file_index>
1

> <s_epik_input>
W0NIM11bQ0BIXShPMSlbQ0BIXShbT0hdKVtDQEBIXShbT0hdKVtDQEBIXShbT0hdKVtDQEBIXTFPW0NASF0oW0NIMl0yKVtDSDJdW0NAQEhdKFtPSF0pW0NAXShbQ0BAXTIzW09IXSkoW0NIMl1bT0hdKVtDQEBIXTRbQ0BASF0oW0NIMl1bQ0gyXTMpW0NAXTUoW09IXSlbQ0BdKFtDSDNdKShbQ0gyXVtDQEhdNFtPSF0pW0NASF0oW0NIMl1bQ0gyXTUpQzY9W0NIXUMoPU8pT1tDSDJdNg==

> <s_epik_cmdline>
J2VwaWtfYXBwJywgJy1pbWFlJywgJ2xpZ2FuZF9wcm8ubWFlJywgJy1vbWFlJywgJ2xpZ2FuZF9wcmVwLm1hZScsICctbXMnLCAnMScsICctcGgnLCAnNycsICctcGh0JywgJzAuNScsICctbnQn

> <r_lp_tautomer_probability>
1

> <r_epik_Ionization_Penalty>
  0.0000

> <r_epik_Ionization_Penalty_Charging>
  0.0000

> <r_epik_Ionization_Penalty_Neutral>
  0.0000

> <r_epik_State_Penalty>
 -0.0000

> <r_epik_Charging_Adjusted_Penalty>
0

> <i_epik_Tot_Q>
0

> <i_epik_Tot_abs_Q>
0

> <s_epik_Chemistry_Notes>
This compound has an ester and may undergo hydrolysis at high or low pH. This compound contains an acetal/aminal-like group ( X-CH(R)-Y where X, Y are N, S, or O) that may be acid/base labile, releasing an aldehyde.

$$$$
