3n2e_ligand
                    3D
 Schrodinger Suite 2020-3.
 46 49  0  0  1  0            999 V2000
   42.3670   15.9390    8.3510 C   0  0  0  0  0  0
   41.1260   16.0670    8.9910 C   0  0  0  0  0  0
   41.0720   16.4610   10.3450 C   0  0  0  0  0  0
   42.2610   16.6980   11.0500 C   0  0  0  0  0  0
   43.5170   16.5810   10.4210 C   0  0  0  0  0  0
   43.5550   16.2010    9.0690 C   0  0  0  0  0  0
   44.7440   16.0810    8.4830 N   0  0  0  0  0  0
   42.2050   17.0530   12.3930 C   0  0  0  0  0  0
   40.9970   17.1730   13.0390 C   0  0  0  0  0  0
   39.7980   16.9740   12.3530 C   0  0  0  0  0  0
   39.8510   16.5980   11.0020 C   0  0  0  0  0  0
   38.7240   16.3610   10.2920 O   0  0  0  0  0  0
   38.6320   17.0950   13.0210 N   0  0  0  0  0  0
   37.6060   16.5870   12.5580 N   0  0  0  0  0  0
   36.4180   16.5580   13.1630 C   0  0  0  0  0  0
   35.3740   15.8750   12.5510 C   0  0  0  0  0  0
   34.1230   15.7940   13.1610 C   0  0  0  0  0  0
   33.8890   16.3970   14.3990 C   0  0  0  0  0  0
   34.9470   17.0860   14.9980 C   0  0  0  0  0  0
   36.2040   17.1640   14.3980 C   0  0  0  0  0  0
   34.7560   17.6930   16.2160 C   0  0  0  0  0  0
   33.5210   17.6290   16.8600 C   0  0  0  0  0  0
   32.4420   16.9580   16.2810 C   0  0  0  0  0  0
   32.6270   16.3290   15.0380 C   0  0  0  0  0  0
   31.5650   15.6770   14.4500 O   0  0  0  0  0  0
   33.4180   18.4530   18.4150 S   0  0  0  0  0  0
   32.1130   18.0890   19.1100 O   0  5  0  0  0  0
   34.6070   18.1470   19.3070 O   0  0  0  0  0  0
   33.4860   19.9480   18.1630 O   0  0  0  0  0  0
   41.0880   17.6510   14.6940 S   0  0  0  0  0  0
   42.5320   17.9350   14.9630 O   0  0  0  0  0  0
   40.1350   18.8120   14.8640 O   0  5  0  0  0  0
   40.7200   16.6120   15.7180 O   0  0  0  0  0  0
   42.4148   15.6387    7.3043 H   0  0  0  0  0  0
   40.2055   15.8627    8.4442 H   0  0  0  0  0  0
   44.4369   16.7806   10.9705 H   0  0  0  0  0  0
   44.8086   15.7851    7.4255 H   0  0  0  0  0  0
   45.6620   16.2777    9.0562 H   0  0  0  0  0  0
   43.1293   17.2384   12.9402 H   0  0  0  0  0  0
   38.7920   16.0675    9.2341 H   0  0  0  0  0  0
   35.5348   15.3978   11.5843 H   0  0  0  0  0  0
   33.3169   15.2530   12.6653 H   0  0  0  0  0  0
   37.0151   17.6971   14.8940 H   0  0  0  0  0  0
   35.5801   18.2311   16.6844 H   0  0  0  0  0  0
   31.4752   16.9228   16.7832 H   0  0  0  0  0  0
   31.6950   15.1802   13.4772 H   0  0  0  0  0  0
  1  2  2  0  0  0
  1  6  1  0  0  0
  1 34  1  0  0  0
  2  3  1  0  0  0
  2 35  1  0  0  0
  3  4  2  0  0  0
  3 11  1  0  0  0
  4  5  1  0  0  0
  4  8  1  0  0  0
  5  6  2  0  0  0
  5 36  1  0  0  0
  6  7  1  0  0  0
  7 37  1  0  0  0
  7 38  1  0  0  0
  8  9  2  0  0  0
  8 39  1  0  0  0
  9 10  1  0  0  0
  9 30  1  0  0  0
 10 11  2  0  0  0
 10 13  1  0  0  0
 11 12  1  0  0  0
 12 40  1  0  0  0
 13 14  2  0  0  0
 14 15  1  0  0  0
 15 16  2  0  0  0
 15 20  1  0  0  0
 16 17  1  0  0  0
 16 41  1  0  0  0
 17 18  2  0  0  0
 17 42  1  0  0  0
 18 19  1  0  0  0
 18 24  1  0  0  0
 19 20  2  0  0  0
 19 21  1  0  0  0
 20 43  1  0  0  0
 21 22  2  0  0  0
 21 44  1  0  0  0
 22 23  1  0  0  0
 22 26  1  0  0  0
 23 24  2  0  0  0
 23 45  1  0  0  0
 24 25  1  0  0  0
 25 46  1  0  0  0
 26 27  1  0  0  0
 26 28  2  0  0  0
 26 29  2  0  0  0
 30 31  2  0  0  0
 30 32  1  0  0  0
 30 33  2  0  0  0
M  CHG  2  27  -1  32  -1
M  END
> <s_m_source_file>
../3n2e_ligand.sdf

> <i_m_source_file_index>
1

> <s_epik_input>
W2NIXTFbY0hdYyhbTkgyXSlbY0hdYyhjMTIpW2NIXWMoUyg9TykoPU8pW09IXSljKGMyW09IXSkvTj1OL2MoW2NIXVtjSF0zKVtjSF1jKGMzNClbY0hdYyhTKD1PKSg9TylbT0hdKVtjSF1jNFtPSF0=

> <s_epik_cmdline>
J2VwaWtfYXBwJywgJy1pbWFlJywgJ2xpZ2FuZF9wcm8ubWFlJywgJy1vbWFlJywgJ2xpZ2FuZF9wcmVwLm1hZScsICctbXMnLCAnMScsICctcGgnLCAnNycsICctcGh0JywgJzAuNScsICctbnQn

> <r_epik_Ionization_Penalty>
  0.0334

> <r_epik_Ionization_Penalty_Charging>
  0.0000

> <r_epik_Ionization_Penalty_Neutral>
  0.0334

> <r_epik_State_Penalty>
  0.0201

> <r_epik_Charging_Adjusted_Penalty>
0.0200754443284769

> <i_epik_Tot_Q>
-2

> <i_epik_Tot_abs_Q>
2

$$$$
