3n2u_ligand
                    3D
 Schrodinger Suite 2020-3.
 57 58  0  0  1  0            999 V2000
    2.5610   -2.6240    0.1610 C   0  0  1  0  0  0
    1.5680   -2.0230    5.5050 N   0  0  0  0  0  0
    3.2150   -2.6630    4.1170 O   0  0  0  0  0  0
    1.4800   -5.9750    4.8860 S   0  0  0  0  0  0
    2.1250   -1.1970    0.4310 C   0  0  2  0  0  0
    1.7050   -4.9750    3.7320 N   0  0  3  0  0  0
    0.2280   -5.6700    5.5190 O   0  0  0  0  0  0
    2.0390   -2.7320    4.4790 C   0  0  0  0  0  0
    1.4350   -7.3320    4.4160 O   0  0  0  0  0  0
    5.3840   -2.1200   -2.2030 C   0  0  0  0  0  0
    0.8080   -1.2680    0.9560 O   0  0  0  0  0  0
    3.9620   -1.9360   -1.6630 C   0  0  2  0  0  0
    1.8520    1.0020   -0.4860 O   0  0  0  0  0  0
    3.5150   -0.4750   -1.5560 C   0  0  1  0  0  0
    3.3970    0.0100   -2.8780 O   0  0  0  0  0  0
    2.1610   -0.3530   -0.8360 C   0  0  1  0  0  0
    5.4190   -5.6800    9.1320 O   0  0  0  0  0  0
    2.1350   -4.6670    1.3530 C   0  0  0  0  0  0
    3.8780   -2.6070   -0.3950 O   0  0  0  0  0  0
    2.5920   -5.3590    2.6350 C   0  0  0  0  0  0
    6.3250   -1.2940   -1.5030 O   0  0  0  0  0  0
    1.0680   -3.6540    3.7830 C   0  0  0  0  0  0
    2.5930   -3.3190    1.4060 O   0  0  0  0  0  0
    3.3640   -5.0060    8.1510 C   0  0  0  0  0  0
    2.4990   -1.2500    6.1770 O   0  0  0  0  0  0
    2.6220   -5.8950    6.0180 C   0  0  0  0  0  0
    3.7940   -6.6820    5.9530 C   0  0  0  0  0  0
    2.4190   -5.0590    7.1260 C   0  0  0  0  0  0
    4.7530   -6.6100    6.9770 C   0  0  0  0  0  0
    4.5320   -5.7710    8.0820 C   0  0  0  0  0  0
    6.4510   -6.6470    9.3830 C   0  0  0  0  0  0
    1.9008   -3.1656   -0.5324 H   0  0  0  0  0  0
    0.5169   -2.0237    5.8292 H   0  0  0  0  0  0
    2.7566   -0.7082    1.1874 H   0  0  0  0  0  0
    5.6882   -3.1704   -2.0844 H   0  0  0  0  0  0
    5.4094   -1.8491   -3.2688 H   0  0  0  0  0  0
    0.6118   -1.8426    1.8732 H   0  0  0  0  0  0
    3.2430   -2.4250   -2.3368 H   0  0  0  0  0  0
    0.9115    1.2347    0.0348 H   0  0  0  0  0  0
    4.2613    0.1468   -1.0398 H   0  0  0  0  0  0
    4.2702    0.0014   -3.5470 H   0  0  0  0  0  0
    1.3710   -0.6576   -1.5383 H   0  0  0  0  0  0
    2.5656   -5.1849    0.4833 H   0  0  0  0  0  0
    1.0372   -4.6973    1.2913 H   0  0  0  0  0  0
    3.6218   -5.0535    2.8721 H   0  0  0  0  0  0
    2.5554   -6.4499    2.4985 H   0  0  0  0  0  0
    7.3894   -1.3172   -1.7794 H   0  0  0  0  0  0
    0.8625   -3.3063    2.7598 H   0  0  0  0  0  0
    0.1239   -3.7236    4.3431 H   0  0  0  0  0  0
    3.1900   -4.3624    9.0133 H   0  0  0  0  0  0
    2.1877   -0.6363    7.0352 H   0  0  0  0  0  0
    3.9545   -7.3476    5.1049 H   0  0  0  0  0  0
    1.5185   -4.4478    7.1864 H   0  0  0  0  0  0
    5.6654   -7.2030    6.9144 H   0  0  0  0  0  0
    7.0224   -6.3503   10.2749 H   0  0  0  0  0  0
    7.1253   -6.6972    8.5154 H   0  0  0  0  0  0
    5.9955   -7.6341    9.5510 H   0  0  0  0  0  0
  1  5  1  0  0  0
  1 19  1  0  0  0
  1 23  1  0  0  0
  1 32  1  0  0  0
  2  8  1  0  0  0
  2 25  1  0  0  0
  2 33  1  0  0  0
  3  8  2  0  0  0
  4  6  1  0  0  0
  4  7  2  0  0  0
  4  9  2  0  0  0
  4 26  1  0  0  0
  5 11  1  0  0  0
  5 16  1  0  0  0
  5 34  1  0  0  0
  6 20  1  0  0  0
  6 22  1  0  0  0
  8 22  1  0  0  0
 10 12  1  0  0  0
 10 21  1  0  0  0
 10 35  1  0  0  0
 10 36  1  0  0  0
 11 37  1  0  0  0
 12 14  1  0  0  0
 12 19  1  0  0  0
 12 38  1  0  0  0
 13 16  1  0  0  0
 13 39  1  0  0  0
 14 15  1  0  0  0
 14 16  1  0  0  0
 14 40  1  0  0  0
 15 41  1  0  0  0
 16 42  1  0  0  0
 17 30  1  0  0  0
 17 31  1  0  0  0
 18 20  1  0  0  0
 18 23  1  0  0  0
 18 43  1  0  0  0
 18 44  1  0  0  0
 20 45  1  0  0  0
 20 46  1  0  0  0
 21 47  1  0  0  0
 22 48  1  0  0  0
 22 49  1  0  0  0
 24 28  2  0  0  0
 24 30  1  0  0  0
 24 50  1  0  0  0
 25 51  1  0  0  0
 26 27  2  0  0  0
 26 28  1  0  0  0
 27 29  1  0  0  0
 27 52  1  0  0  0
 28 53  1  0  0  0
 29 30  2  0  0  0
 29 54  1  0  0  0
 31 55  1  0  0  0
 31 56  1  0  0  0
 31 57  1  0  0  0
M  END
> <s_m_source_file>
../3n2u_ligand.sdf

> <i_m_source_file_index>
1

> <s_epik_input>
W09IXVtDSDJdW0NAQEhdKE8xKVtDQEBIXShbT0hdKVtDQEhdKFtPSF0pW0NAQEhdKFtPSF0pW0NAQEhdMU9bQ0gyXVtDSDJdTihbQ0gyXUMoPU8pW05IXVtPSF0pUyg9TykoPU8pYzJbY0hdW2NIXWMoT1tDSDNdKVtjSF1bY0hdMg==

> <s_epik_cmdline>
J2VwaWtfYXBwJywgJy1pbWFlJywgJ2xpZ2FuZF9wcm8ubWFlJywgJy1vbWFlJywgJ2xpZ2FuZF9wcmVwLm1hZScsICctbXMnLCAnMScsICctcGgnLCAnNycsICctcGh0JywgJzAuNScsICctbnQn

> <r_lp_tautomer_probability>
1

> <r_epik_Ionization_Penalty>
  0.0160

> <r_epik_Ionization_Penalty_Charging>
  0.0000

> <r_epik_Ionization_Penalty_Neutral>
  0.0160

> <r_epik_State_Penalty>
  0.0126

> <r_epik_Charging_Adjusted_Penalty>
0.0126151653546156

> <i_epik_Tot_Q>
0

> <i_epik_Tot_abs_Q>
0

> <s_epik_Chemistry_Notes>
This compound contains an acetal/aminal-like group ( X-CH(R)-Y where X, Y are N, S, or O) that may be acid/base labile, releasing an aldehyde. This compound has a N-S or N-O group and may undergo hydrolysis at high or low pH.

$$$$
