3n3g_ligand
                    3D
 Schrodinger Suite 2020-3.
 53 55  0  0  1  0            999 V2000
   13.8640   -7.1990   19.2400 N   0  0  0  0  0  0
   12.5930   -7.2640   18.7550 C   0  0  0  0  0  0
   11.6090   -6.3900   19.2190 C   0  0  0  0  0  0
   11.9430   -5.4270   20.1680 C   0  0  0  0  0  0
   13.2450   -5.3480   20.6530 C   0  0  0  0  0  0
   14.1710   -6.2530   20.1620 C   0  0  0  0  0  0
   12.3700   -8.3430   17.7690 C   0  0  0  0  0  0
   11.0940   -8.8740   17.5040 C   0  0  0  0  0  0
   10.8970   -9.9270   16.5680 C   0  0  0  0  0  0
   12.0200  -10.4760   15.9010 C   0  0  0  0  0  0
   13.2860   -9.9520   16.1630 C   0  0  0  0  0  0
   13.4550   -8.9170   17.0830 C   0  0  0  0  0  0
   11.8140  -11.4920   14.9990 O   0  0  0  0  0  0
   12.5470  -12.7070   15.1630 C   0  0  0  0  0  0
   12.6280  -13.5050   13.8570 C   0  0  0  0  0  0
   11.3880  -14.3550   13.6390 C   0  0  0  0  0  0
   10.1150  -13.5530   13.5180 N   0  0  1  0  0  0
   15.5390   -6.2530   20.5720 C   0  0  0  0  0  0
   16.6710   -6.3080   20.8050 N   0  0  0  0  0  0
    9.4860  -10.4410   16.3460 C   0  0  0  0  0  0
    9.0570  -10.5110   15.0610 F   0  0  0  0  0  0
    8.5270   -9.7050   16.9540 F   0  0  0  0  0  0
    9.2970  -11.6840   16.8350 F   0  0  0  0  0  0
    7.6240  -13.5260   13.3980 C   0  0  0  0  0  0
    7.7210  -12.6770   12.1360 N   0  3  2  0  0  0
    8.8790  -11.7250   12.3510 C   0  0  0  0  0  0
   10.1760  -12.5410   12.3890 C   0  0  0  0  0  0
    8.8730  -14.4160   13.4870 C   0  0  0  0  0  0
    6.4260  -11.9730   11.7730 C   0  0  0  0  0  0
   10.5886   -6.4604   18.8422 H   0  0  0  0  0  0
   11.1838   -4.7344   20.5313 H   0  0  0  0  0  0
   13.5262   -4.5995   21.3938 H   0  0  0  0  0  0
   10.2314   -8.4666   18.0313 H   0  0  0  0  0  0
   14.1541  -10.3563   15.6424 H   0  0  0  0  0  0
   14.4598   -8.5414   17.2762 H   0  0  0  0  0  0
   13.5715  -12.4758   15.4900 H   0  0  0  0  0  0
   12.0532  -13.3338   15.9201 H   0  0  0  0  0  0
   12.7252  -12.8113   13.0089 H   0  0  0  0  0  0
   13.5028  -14.1711   13.8880 H   0  0  0  0  0  0
   11.4991  -14.9342   12.7105 H   0  0  0  0  0  0
   11.2614  -15.0434   14.4876 H   0  0  0  0  0  0
    7.5687  -12.8690   14.2785 H   0  0  0  0  0  0
    6.7207  -14.1519   13.3503 H   0  0  0  0  0  0
    7.9055  -13.3132   11.2578 H   0  0  0  0  0  0
    8.9152  -10.9993   11.5252 H   0  0  0  0  0  0
    8.7426  -11.1908   13.3028 H   0  0  0  0  0  0
   11.0272  -11.8630   12.5499 H   0  0  0  0  0  0
   10.3023  -13.0672   11.4313 H   0  0  0  0  0  0
    8.9098  -15.0802   12.6109 H   0  0  0  0  0  0
    8.8241  -15.0213   14.4042 H   0  0  0  0  0  0
    5.6302  -12.7191   11.6316 H   0  0  0  0  0  0
    6.5660  -11.4052   10.8413 H   0  0  0  0  0  0
    6.1434  -11.2845   12.5830 H   0  0  0  0  0  0
  1  2  2  0  0  0
  1  6  1  0  0  0
  2  3  1  0  0  0
  2  7  1  0  0  0
  3  4  2  0  0  0
  3 30  1  0  0  0
  4  5  1  0  0  0
  4 31  1  0  0  0
  5  6  2  0  0  0
  5 32  1  0  0  0
  6 18  1  0  0  0
  7  8  2  0  0  0
  7 12  1  0  0  0
  8  9  1  0  0  0
  8 33  1  0  0  0
  9 10  2  0  0  0
  9 20  1  0  0  0
 10 11  1  0  0  0
 10 13  1  0  0  0
 11 12  2  0  0  0
 11 34  1  0  0  0
 12 35  1  0  0  0
 13 14  1  0  0  0
 14 15  1  0  0  0
 14 36  1  0  0  0
 14 37  1  0  0  0
 15 16  1  0  0  0
 15 38  1  0  0  0
 15 39  1  0  0  0
 16 17  1  0  0  0
 16 40  1  0  0  0
 16 41  1  0  0  0
 17 27  1  0  0  0
 17 28  1  0  0  0
 18 19  3  0  0  0
 20 21  1  0  0  0
 20 22  1  0  0  0
 20 23  1  0  0  0
 24 25  1  0  0  0
 24 28  1  0  0  0
 24 42  1  0  0  0
 24 43  1  0  0  0
 25 26  1  0  0  0
 25 29  1  0  0  0
 25 44  1  0  0  0
 26 27  1  0  0  0
 26 45  1  0  0  0
 26 46  1  0  0  0
 27 47  1  0  0  0
 27 48  1  0  0  0
 28 49  1  0  0  0
 28 50  1  0  0  0
 29 51  1  0  0  0
 29 52  1  0  0  0
 29 53  1  0  0  0
M  CHG  1  25   1
M  END
> <s_m_source_file>
../3n3g_ligand.sdf

> <i_m_source_file_index>
1

> <s_epik_input>
W2NIXTFbY0hdW2NIXWMoQyNOKW5jMS1jMltjSF1jKEMoRikoRilGKWMoW2NIXVtjSF0yKU9bQ0gyXVtDSDJdW0NIMl1bTkBIK10zW0NIMl1bQ0gyXVtOQEgrXShbQ0gzXSlbQ0gyXVtDSDJdMw==

> <s_epik_cmdline>
J2VwaWtfYXBwJywgJy1pbWFlJywgJ2xpZ2FuZF9wcm8ubWFlJywgJy1vbWFlJywgJ2xpZ2FuZF9wcmVwLm1hZScsICctbXMnLCAnMScsICctcGgnLCAnNycsICctcGh0JywgJzAuNScsICctbnQn

> <r_lp_tautomer_probability>
1

> <r_epik_Ionization_Penalty>
  0.0277

> <r_epik_Ionization_Penalty_Charging>
  0.0271

> <r_epik_Ionization_Penalty_Neutral>
  0.0006

> <r_epik_State_Penalty>
  0.1132

> <r_epik_Charging_Adjusted_Penalty>
0.140367416854695

> <i_epik_Tot_Q>
1

> <i_epik_Tot_abs_Q>
1

$$$$
