3n46_ligand
                    3D
 Schrodinger Suite 2020-3.
 36 38  0  0  1  0            999 V2000
    3.0830   75.7430   25.5720 N   0  0  0  0  0  0
    4.5170   75.9630   25.5700 C   0  0  2  0  0  0
    4.6720   77.5460   25.6140 C   0  0  0  0  0  0
    3.2440   78.0220   25.4930 C   0  0  0  0  0  0
    2.4090   76.9370   25.4880 C   0  0  0  0  0  0
    1.0110   77.0570   25.4080 C   0  0  0  0  0  0
    0.4830   78.3590   25.3060 C   0  0  0  0  0  0
    1.3450   79.4820   25.2840 C   0  0  0  0  0  0
    2.7500   79.3250   25.3970 C   0  0  0  0  0  0
    5.0590   75.3700   24.2600 C   0  0  0  0  0  0
    4.3560   75.2270   23.2640 O   0  0  0  0  0  0
    6.3390   74.9980   24.2680 O   0  5  0  0  0  0
    2.5110   74.4910   25.6330 C   0  0  0  0  0  0
    1.3040   74.2760   25.5610 O   0  0  0  0  0  0
    3.4470   73.4980   25.7870 O   0  0  0  0  0  0
    2.8880   72.1790   25.9820 C   0  0  0  0  0  0
    4.0200   71.1640   25.8580 C   0  0  0  0  0  0
    5.1750   71.2790   26.6530 C   0  0  0  0  0  0
    6.2260   70.3560   26.5160 C   0  0  0  0  0  0
    6.1120   69.2980   25.5850 C   0  0  0  0  0  0
    4.9430   69.1650   24.7940 C   0  0  0  0  0  0
    3.9000   70.1090   24.9310 C   0  0  0  0  0  0
    5.0073   75.4507   26.4109 H   0  0  0  0  0  0
    5.1402   77.8423   26.5642 H   0  0  0  0  0  0
    5.3031   77.8761   24.7757 H   0  0  0  0  0  0
    0.3633   76.1805   25.4242 H   0  0  0  0  0  0
   -0.5957   78.5028   25.2436 H   0  0  0  0  0  0
    0.9228   80.4814   25.1787 H   0  0  0  0  0  0
    3.4176   80.1866   25.4085 H   0  0  0  0  0  0
    2.4312   72.1184   26.9808 H   0  0  0  0  0  0
    2.1216   71.9886   25.2162 H   0  0  0  0  0  0
    5.2552   72.0881   27.3789 H   0  0  0  0  0  0
    7.1248   70.4553   27.1246 H   0  0  0  0  0  0
    6.9262   68.5817   25.4750 H   0  0  0  0  0  0
    4.8493   68.3415   24.0860 H   0  0  0  0  0  0
    3.0021   70.0211   24.3193 H   0  0  0  0  0  0
  1  2  1  0  0  0
  1  5  1  0  0  0
  1 13  1  0  0  0
  2  3  1  0  0  0
  2 10  1  0  0  0
  2 23  1  0  0  0
  3  4  1  0  0  0
  3 24  1  0  0  0
  3 25  1  0  0  0
  4  5  2  0  0  0
  4  9  1  0  0  0
  5  6  1  0  0  0
  6  7  2  0  0  0
  6 26  1  0  0  0
  7  8  1  0  0  0
  7 27  1  0  0  0
  8  9  2  0  0  0
  8 28  1  0  0  0
  9 29  1  0  0  0
 10 11  2  0  0  0
 10 12  1  0  0  0
 13 14  2  0  0  0
 13 15  1  0  0  0
 15 16  1  0  0  0
 16 17  1  0  0  0
 16 30  1  0  0  0
 16 31  1  0  0  0
 17 18  2  0  0  0
 17 22  1  0  0  0
 18 19  1  0  0  0
 18 32  1  0  0  0
 19 20  2  0  0  0
 19 33  1  0  0  0
 20 21  1  0  0  0
 20 34  1  0  0  0
 21 22  2  0  0  0
 21 35  1  0  0  0
 22 36  1  0  0  0
M  CHG  1  12  -1
M  END
> <s_m_source_file>
../3n46_ligand.sdf

> <i_m_source_file_index>
1

> <s_epik_input>
W2NIXTFbY0hdW2NIXVtjSF1jKGMxMilOKFtDQEhdKFtDSDJdMilDKD1PKVtPSF0pQyg9TylPW0NIMl1jM1tjSF1bY0hdW2NIXVtjSF1bY0hdMw==

> <s_epik_cmdline>
J2VwaWtfYXBwJywgJy1pbWFlJywgJ2xpZ2FuZF9wcm8ubWFlJywgJy1vbWFlJywgJ2xpZ2FuZF9wcmVwLm1hZScsICctbXMnLCAnMScsICctcGgnLCAnNycsICctcGh0JywgJzAuNScsICctbnQn

> <r_lp_tautomer_probability>
1

> <r_epik_Ionization_Penalty>
  0.0021

> <r_epik_Ionization_Penalty_Charging>
  0.0021

> <r_epik_Ionization_Penalty_Neutral>
  0.0000

> <r_epik_State_Penalty>
 -0.0000

> <r_epik_Charging_Adjusted_Penalty>
0.00209313586232098

> <i_epik_Tot_Q>
-1

> <i_epik_Tot_abs_Q>
1

> <s_epik_Chemistry_Notes>
This compound has an ester and may undergo hydrolysis at high or low pH.

$$$$
