3n49_ligand
                    3D
 Schrodinger Suite 2020-3.
 26 28  0  0  1  0            999 V2000
    1.1280   73.4230   27.9610 S   0  0  0  0  0  0
    1.6060   75.1050   28.1870 C   0  0  0  0  0  0
    2.9480   75.3290   28.5010 C   0  0  0  0  0  0
    3.4580   76.6330   28.6340 C   0  0  0  0  0  0
    2.5740   77.7330   28.4760 C   0  0  0  0  0  0
    1.2030   77.4970   28.1860 C   0  0  0  0  0  0
    0.7090   76.1710   28.0490 C   0  0  0  0  0  0
    3.0270   79.0540   28.5890 C   0  0  0  0  0  0
    4.3980   79.2850   28.8130 C   0  0  0  0  0  0
    5.2940   78.1970   28.9660 C   0  0  0  0  0  0
    4.8280   76.8850   28.9170 C   0  0  0  0  0  0
    3.6330   73.9920   28.6390 C   0  0  0  0  0  0
    2.8020   72.9540   28.4520 C   0  0  0  0  0  0
    5.1240   73.8530   28.9360 C   0  0  0  0  0  0
    5.8750   73.7820   27.5080 C   0  0  0  0  0  0
    6.3300   72.7430   27.0830 O   0  0  0  0  0  0
    6.0310   74.8590   26.7330 O   0  5  0  0  0  0
    0.5235   78.3410   28.0674 H   0  0  0  0  0  0
   -0.3453   75.9883   27.8410 H   0  0  0  0  0  0
    2.3305   79.8882   28.5050 H   0  0  0  0  0  0
    4.7728   80.3070   28.8691 H   0  0  0  0  0  0
    6.3555   78.3885   29.1232 H   0  0  0  0  0  0
    5.5115   76.0548   29.0950 H   0  0  0  0  0  0
    3.1110   71.9172   28.5851 H   0  0  0  0  0  0
    5.4652   74.7236   29.5154 H   0  0  0  0  0  0
    5.2982   72.9351   29.5166 H   0  0  0  0  0  0
  1  2  1  0  0  0
  1 13  1  0  0  0
  2  3  2  0  0  0
  2  7  1  0  0  0
  3  4  1  0  0  0
  3 12  1  0  0  0
  4  5  2  0  0  0
  4 11  1  0  0  0
  5  6  1  0  0  0
  5  8  1  0  0  0
  6  7  2  0  0  0
  6 18  1  0  0  0
  7 19  1  0  0  0
  8  9  2  0  0  0
  8 20  1  0  0  0
  9 10  1  0  0  0
  9 21  1  0  0  0
 10 11  2  0  0  0
 10 22  1  0  0  0
 11 23  1  0  0  0
 12 13  2  0  0  0
 12 14  1  0  0  0
 13 24  1  0  0  0
 14 15  1  0  0  0
 14 25  1  0  0  0
 14 26  1  0  0  0
 15 16  2  0  0  0
 15 17  1  0  0  0
M  CHG  1  17  -1
M  END
> <s_m_source_file>
../3n49_ligand.sdf

> <i_m_source_file_index>
1

> <s_epik_input>
Tz1DKFtPSF0pW0NIMl1jKFtjSF1zMSljKGMxMiljM2MoW2NIXVtjSF0yKVtjSF1bY0hdW2NIXVtjSF0z

> <s_epik_cmdline>
J2VwaWtfYXBwJywgJy1pbWFlJywgJ2xpZ2FuZF9wcm8ubWFlJywgJy1vbWFlJywgJ2xpZ2FuZF9wcmVwLm1hZScsICctbXMnLCAnMScsICctcGgnLCAnNycsICctcGh0JywgJzAuNScsICctbnQn

> <r_lp_tautomer_probability>
1

> <r_epik_Ionization_Penalty>
  0.0015

> <r_epik_Ionization_Penalty_Charging>
  0.0015

> <r_epik_Ionization_Penalty_Neutral>
  0.0000

> <r_epik_State_Penalty>
 -0.0000

> <r_epik_Charging_Adjusted_Penalty>
0.0015371435743287

> <i_epik_Tot_Q>
-1

> <i_epik_Tot_abs_Q>
1

$$$$
