3n4b_ligand
                    3D
 Schrodinger Suite 2020-3.
 33 34  0  0  1  0            999 V2000
   -5.1510    2.2500   15.8270 C   0  0  0  0  0  0
   -5.3600   -0.4230   16.1920 N   0  0  0  0  0  0
   -7.2610    1.0780   16.6840 O   0  0  0  0  0  0
   -5.8180    0.9350   16.7960 S   0  0  0  0  0  0
   -3.7920    2.1880   15.5790 C   0  0  0  0  0  0
   -5.3910    1.0360   18.1800 O   0  0  0  0  0  0
   -3.1870    3.2030   14.8810 C   0  0  0  0  0  0
   -3.9280    4.2770   14.4250 C   0  0  0  0  0  0
   -5.3000    4.3410   14.6820 C   0  0  0  0  0  0
   -5.9110    3.3260   15.3990 C   0  0  0  0  0  0
   -3.2110    5.2940   13.7500 N   0  0  0  0  0  0
   -3.8310    6.1170   12.7710 C   0  0  0  0  0  0
   -4.9110    5.8450   12.2720 O   0  0  0  0  0  0
   -3.1430    7.2740   12.3470 N   0  0  0  0  0  0
   -2.1080    7.8560   13.1250 C   0  0  0  0  0  0
   -1.0160    8.5130   12.3770 C   0  0  0  0  0  0
   -0.0410    9.1710   13.0610 C   0  0  0  0  0  0
   -0.0940    9.2330   14.5470 C   0  0  0  0  0  0
    0.8400    9.9120   15.2030 F   0  0  0  0  0  0
   -1.1080    8.6380   15.2340 C   0  0  0  0  0  0
   -2.1760    7.9140   14.4870 C   0  0  0  0  0  0
   -5.7721   -1.2484   16.7911 H   0  0  0  0  0  0
   -4.2613   -0.4764   16.2010 H   0  0  0  0  0  0
   -3.2064    1.3403   15.9348 H   0  0  0  0  0  0
   -2.1155    3.1619   14.6850 H   0  0  0  0  0  0
   -5.8863    5.1855   14.3200 H   0  0  0  0  0  0
   -6.9765    3.3732   15.6237 H   0  0  0  0  0  0
   -2.1483    5.4622   13.9788 H   0  0  0  0  0  0
   -3.4042    7.7495   11.3901 H   0  0  0  0  0  0
   -0.9918    8.4709   11.2881 H   0  0  0  0  0  0
    0.7761    9.6510   12.5224 H   0  0  0  0  0  0
   -1.1387    8.6907   16.3223 H   0  0  0  0  0  0
   -2.9988    7.4381   15.0205 H   0  0  0  0  0  0
  1  4  1  0  0  0
  1  5  2  0  0  0
  1 10  1  0  0  0
  2  4  1  0  0  0
  2 22  1  0  0  0
  2 23  1  0  0  0
  3  4  2  0  0  0
  4  6  2  0  0  0
  5  7  1  0  0  0
  5 24  1  0  0  0
  7  8  2  0  0  0
  7 25  1  0  0  0
  8  9  1  0  0  0
  8 11  1  0  0  0
  9 10  2  0  0  0
  9 26  1  0  0  0
 10 27  1  0  0  0
 11 12  1  0  0  0
 11 28  1  0  0  0
 12 13  2  0  0  0
 12 14  1  0  0  0
 14 15  1  0  0  0
 14 29  1  0  0  0
 15 16  2  0  0  0
 15 21  1  0  0  0
 16 17  1  0  0  0
 16 30  1  0  0  0
 17 18  2  0  0  0
 17 31  1  0  0  0
 18 19  1  0  0  0
 18 20  1  0  0  0
 20 21  2  0  0  0
 20 32  1  0  0  0
 21 33  1  0  0  0
M  END
> <s_m_source_file>
../3n4b_ligand.sdf

> <i_m_source_file_index>
1

> <s_epik_input>
W05IMl1TKD1PKSg9TyljMVtjSF1bY0hdYyhbY0hdW2NIXTEpW05IXUMoPU8pW05IXWMyW2NIXVtjSF1jKEYpW2NIXVtjSF0y

> <s_epik_cmdline>
J2VwaWtfYXBwJywgJy1pbWFlJywgJ2xpZ2FuZF9wcm8ubWFlJywgJy1vbWFlJywgJ2xpZ2FuZF9wcmVwLm1hZScsICctbXMnLCAnMScsICctcGgnLCAnNycsICctcGh0JywgJzAuNScsICctbnQn

> <r_lp_tautomer_probability>
1

> <r_epik_Ionization_Penalty>
  0.0004

> <r_epik_Ionization_Penalty_Charging>
  0.0000

> <r_epik_Ionization_Penalty_Neutral>
  0.0004

> <r_epik_State_Penalty>
 -0.0000

> <r_epik_Charging_Adjusted_Penalty>
0

> <i_epik_Tot_Q>
0

> <i_epik_Tot_abs_Q>
0

$$$$
