3n4c_ligand
                    3D
 Schrodinger Suite 2020-3.
 61 64  0  0  1  0            999 V2000
   13.6730    3.4240   24.0180 C   0  0  0  0  0  0
   12.8210    4.3700   24.5960 C   0  0  0  0  0  0
   12.2610    3.7230   25.6710 N   0  0  0  0  0  0
   12.7650    2.4590   25.7160 C   0  0  0  0  0  0
   13.6140    2.2470   24.7390 N   0  0  0  0  0  0
   14.1510    8.8270   20.5330 C   0  0  0  0  0  0
   13.2910    9.8250   21.0080 C   0  0  0  0  0  0
   12.4790    9.5590   22.1130 C   0  0  0  0  0  0
   12.5200    8.3090   22.7440 C   0  0  0  0  0  0
   13.3690    7.2870   22.2930 C   0  0  0  0  0  0
   14.1790    7.5730   21.1800 C   0  0  0  0  0  0
   13.4240    5.9620   22.9480 C   0  0  0  0  0  0
   12.6710    5.6600   24.0830 C   0  0  0  0  0  0
   14.3940    3.8080   22.8810 C   0  0  0  0  0  0
   14.2600    5.0670   22.3630 N   0  0  0  0  0  0
   11.3060    4.2760   26.5980 C   0  0  0  0  0  0
   13.3180   11.0120   20.3310 O   0  0  0  0  0  0
   12.7680   12.1630   20.9720 C   0  0  0  0  0  0
   12.3560   13.1570   19.8880 C   0  0  0  0  0  0
   13.5840   13.7180   19.1660 C   0  0  0  0  0  0
   14.3620   14.6580   19.9870 N   0  0  2  0  0  0
   15.0400    9.0830   19.3410 C   0  0  0  0  0  0
   15.9630   10.0620   19.5580 F   0  0  0  0  0  0
   14.3500    9.4480   18.2240 F   0  0  0  0  0  0
   15.7650    7.9870   18.9690 F   0  0  0  0  0  0
   15.3300    2.9480   22.1480 C   0  0  0  0  0  0
   15.4680    1.6710   22.3090 N   0  0  0  0  0  0
   16.5060   15.9570   20.2430 C   0  0  0  0  0  0
   15.7870   17.2420   20.3250 N   0  3  1  0  0  0
   14.4460   17.0070   20.8910 C   0  0  0  0  0  0
   13.6550   15.9540   20.0830 C   0  0  0  0  0  0
   15.7180   14.8940   19.4420 C   0  0  0  0  0  0
   16.5310   18.2000   21.1380 C   0  0  0  0  0  0
   12.4969    1.7174   26.4685 H   0  0  0  0  0  0
   11.8072   10.3312   22.4878 H   0  0  0  0  0  0
   11.8775    8.1261   23.6053 H   0  0  0  0  0  0
   14.8506    6.8010   20.8045 H   0  0  0  0  0  0
   12.0039    6.3891   24.5429 H   0  0  0  0  0  0
   11.0813    5.3154   26.3165 H   0  0  0  0  0  0
   11.7264    4.2541   27.6142 H   0  0  0  0  0  0
   10.3815    3.6806   26.5707 H   0  0  0  0  0  0
   11.8922   11.8672   21.5682 H   0  0  0  0  0  0
   13.5253   12.6127   21.6310 H   0  0  0  0  0  0
   11.7134   12.6515   19.1521 H   0  0  0  0  0  0
   11.8035   13.9907   20.3458 H   0  0  0  0  0  0
   14.2531   12.8916   18.8845 H   0  0  0  0  0  0
   13.2637   14.2550   18.2610 H   0  0  0  0  0  0
   15.9469    3.4789   21.4081 H   0  0  0  0  0  0
   14.8511    1.1401   23.0489 H   0  0  0  0  0  0
   17.4748   16.1100   19.7449 H   0  0  0  0  0  0
   16.6730   15.5649   21.2571 H   0  0  0  0  0  0
   15.6924   17.6777   19.3194 H   0  0  0  0  0  0
   14.5428   16.6455   21.9254 H   0  0  0  0  0  0
   13.8748   17.9470   20.8831 H   0  0  0  0  0  0
   13.4912   16.3580   19.0731 H   0  0  0  0  0  0
   12.6852   15.8066   20.5807 H   0  0  0  0  0  0
   16.2927   13.9565   19.4699 H   0  0  0  0  0  0
   15.6394   15.2451   18.4025 H   0  0  0  0  0  0
   17.5263   18.3596   20.6977 H   0  0  0  0  0  0
   16.6407   17.8068   22.1595 H   0  0  0  0  0  0
   15.9864   19.1552   21.1693 H   0  0  0  0  0  0
  1  2  2  0  0  0
  1  5  1  0  0  0
  1 14  1  0  0  0
  2  3  1  0  0  0
  2 13  1  0  0  0
  3  4  1  0  0  0
  3 16  1  0  0  0
  4  5  2  0  0  0
  4 34  1  0  0  0
  6  7  2  0  0  0
  6 11  1  0  0  0
  6 22  1  0  0  0
  7  8  1  0  0  0
  7 17  1  0  0  0
  8  9  2  0  0  0
  8 35  1  0  0  0
  9 10  1  0  0  0
  9 36  1  0  0  0
 10 11  2  0  0  0
 10 12  1  0  0  0
 11 37  1  0  0  0
 12 13  2  0  0  0
 12 15  1  0  0  0
 13 38  1  0  0  0
 14 15  2  0  0  0
 14 26  1  0  0  0
 16 39  1  0  0  0
 16 40  1  0  0  0
 16 41  1  0  0  0
 17 18  1  0  0  0
 18 19  1  0  0  0
 18 42  1  0  0  0
 18 43  1  0  0  0
 19 20  1  0  0  0
 19 44  1  0  0  0
 19 45  1  0  0  0
 20 21  1  0  0  0
 20 46  1  0  0  0
 20 47  1  0  0  0
 21 31  1  0  0  0
 21 32  1  0  0  0
 22 23  1  0  0  0
 22 24  1  0  0  0
 22 25  1  0  0  0
 26 27  2  0  0  0
 26 48  1  0  0  0
 27 49  1  0  0  0
 28 29  1  0  0  0
 28 32  1  0  0  0
 28 50  1  0  0  0
 28 51  1  0  0  0
 29 30  1  0  0  0
 29 33  1  0  0  0
 29 52  1  0  0  0
 30 31  1  0  0  0
 30 53  1  0  0  0
 30 54  1  0  0  0
 31 55  1  0  0  0
 31 56  1  0  0  0
 32 57  1  0  0  0
 32 58  1  0  0  0
 33 59  1  0  0  0
 33 60  1  0  0  0
 33 61  1  0  0  0
M  CHG  1  29   1
M  END
> <s_m_source_file>
../3n4c_ligand.sdf

> <i_m_source_file_index>
1

> <s_epik_input>
bjFbY0hdbihbQ0gzXSljKGMxMilbY0hdYyhuYzIvW0NIXT1OXFtIXSktYyhbY0hdMylbY0hdW2NIXWMoYzNDKEYpKEYpRilPW0NIMl1bQ0gyXVtDSDJdW05AQEgrXTRbQ0gyXVtDSDJdW05AQEgrXShbQ0gzXSlbQ0gyXVtDSDJdNA==

> <s_epik_cmdline>
J2VwaWtfYXBwJywgJy1pbWFlJywgJ2xpZ2FuZF9wcm8ubWFlJywgJy1vbWFlJywgJ2xpZ2FuZF9wcmVwLm1hZScsICctbXMnLCAnMScsICctcGgnLCAnNycsICctcGh0JywgJzAuNScsICctbnQn

> <r_lp_tautomer_probability>
1

> <r_epik_Ionization_Penalty>
  0.0278

> <r_epik_Ionization_Penalty_Charging>
  0.0272

> <r_epik_Ionization_Penalty_Neutral>
  0.0006

> <r_epik_State_Penalty>
  0.1132

> <r_epik_Charging_Adjusted_Penalty>
0.140442417200366

> <i_epik_Tot_Q>
1

> <i_epik_Tot_abs_Q>
1

> <s_epik_Chemistry_Notes>
This compound has an imine and may undergo hydrolysis.

$$$$
