3n4l_ligand
                    3D
 Schrodinger Suite 2020-3.
 68 71  0  0  1  0            999 V2000
   28.2980    6.8020   16.3230 C   0  0  0  0  0  0
   29.2890    6.7570   15.1970 C   0  0  0  0  0  0
   30.5420    6.3800   15.5190 N   0  0  0  0  0  0
   31.6670    6.3250   14.5860 C   0  0  2  0  0  0
   32.1000    4.8810   14.2560 C   0  0  1  0  0  0
   30.9870    4.1100   13.5630 C   0  0  0  0  0  0
   31.3770    2.7450   13.1820 N   0  3  0  0  0  0
   30.5730    1.9570   12.2010 C   0  0  0  0  0  0
   31.2820    0.6480   11.9230 C   0  0  0  0  0  0
   30.4490   -0.2380   11.0160 C   0  0  0  0  0  0
   29.1320   -0.5700   11.7060 C   0  0  0  0  0  0
   28.3510    0.6850   11.9900 C   0  0  0  0  0  0
   29.1800    1.6570   12.8070 C   0  0  0  0  0  0
   30.5810    2.8200   10.9300 C   0  0  0  0  0  0
   31.7800    2.9850   10.1960 C   0  0  0  0  0  0
   31.9210    3.7930    9.0490 C   0  0  0  0  0  0
   30.7870    4.5120    8.6790 C   0  0  0  0  0  0
   29.5870    4.4010    9.3970 C   0  0  0  0  0  0
   29.4660    3.5650   10.5180 C   0  0  0  0  0  0
   33.0950    3.8990    8.4390 N   0  0  0  0  0  0
   33.8650    2.8100    8.0370 N   0  0  0  0  0  0
   34.9950    3.3720    7.5570 C   0  0  0  0  0  0
   34.9150    4.7520    7.7070 C   0  0  0  0  0  0
   33.7030    5.0770    8.2820 C   0  0  0  0  0  0
   28.9320    7.0360   14.0540 O   0  0  0  0  0  0
   32.7710    7.2230   15.1610 C   0  0  0  0  0  0
   32.1160    8.5440   15.5500 C   0  0  0  0  0  0
   31.9620    8.8920   16.8940 C   0  0  0  0  0  0
   31.3380   10.0960   17.2270 C   0  0  0  0  0  0
   30.8410   10.9630   16.2600 C   0  0  0  0  0  0
   30.9930   10.6040   14.9450 C   0  0  0  0  0  0
   31.6130    9.4170   14.5690 C   0  0  0  0  0  0
   31.1880   10.4500   18.4980 F   0  0  0  0  0  0
   30.5180   11.4300   14.0530 F   0  0  0  0  0  0
   33.2340    4.8280   13.3820 O   0  0  0  0  0  0
   28.7977    6.5235   17.2626 H   0  0  0  0  0  0
   27.4796    6.0957   16.1196 H   0  0  0  0  0  0
   27.8903    7.8198   16.4122 H   0  0  0  0  0  0
   30.6873    6.1005   16.5729 H   0  0  0  0  0  0
   31.3291    6.7277   13.6198 H   0  0  0  0  0  0
   32.4139    4.4086   15.1985 H   0  0  0  0  0  0
   30.1208    4.0318   14.2365 H   0  0  0  0  0  0
   30.6911    4.6389   12.6450 H   0  0  0  0  0  0
   32.3806    2.7625   12.7320 H   0  0  0  0  0  0
   31.3870    2.1036   14.0756 H   0  0  0  0  0  0
   32.2453    0.8499   11.4318 H   0  0  0  0  0  0
   31.4576    0.1177   12.8706 H   0  0  0  0  0  0
   30.2470    0.2900   10.0724 H   0  0  0  0  0  0
   30.9986   -1.1673   10.8057 H   0  0  0  0  0  0
   28.5319   -1.2234   11.0557 H   0  0  0  0  0  0
   29.3356   -1.0854   12.6562 H   0  0  0  0  0  0
   28.0716    1.1656   11.0408 H   0  0  0  0  0  0
   27.4414    0.4311   12.5541 H   0  0  0  0  0  0
   29.3025    1.2187   13.8084 H   0  0  0  0  0  0
   28.6045    2.5913   12.8836 H   0  0  0  0  0  0
   32.6615    2.4464   10.5439 H   0  0  0  0  0  0
   30.8329    5.1741    7.8144 H   0  0  0  0  0  0
   28.7225    4.9814    9.0747 H   0  0  0  0  0  0
   28.5222    3.4959   11.0589 H   0  0  0  0  0  0
   35.8351    2.8307    7.1218 H   0  0  0  0  0  0
   35.6871    5.4644    7.4165 H   0  0  0  0  0  0
   33.3291    6.0661    8.5465 H   0  0  0  0  0  0
   33.2175    6.7372   16.0411 H   0  0  0  0  0  0
   33.5469    7.3843   14.3981 H   0  0  0  0  0  0
   32.3266    8.2280   17.6778 H   0  0  0  0  0  0
   30.3481   11.8948   16.5372 H   0  0  0  0  0  0
   31.7090    9.1633   13.5133 H   0  0  0  0  0  0
   34.1740    5.3214   13.6701 H   0  0  0  0  0  0
  1  2  1  0  0  0
  1 36  1  0  0  0
  1 37  1  0  0  0
  1 38  1  0  0  0
  2  3  1  0  0  0
  2 25  2  0  0  0
  3  4  1  0  0  0
  3 39  1  0  0  0
  4  5  1  0  0  0
  4 26  1  0  0  0
  4 40  1  0  0  0
  5  6  1  0  0  0
  5 35  1  0  0  0
  5 41  1  0  0  0
  6  7  1  0  0  0
  6 42  1  0  0  0
  6 43  1  0  0  0
  7  8  1  0  0  0
  7 44  1  0  0  0
  7 45  1  0  0  0
  8  9  1  0  0  0
  8 13  1  0  0  0
  8 14  1  0  0  0
  9 10  1  0  0  0
  9 46  1  0  0  0
  9 47  1  0  0  0
 10 11  1  0  0  0
 10 48  1  0  0  0
 10 49  1  0  0  0
 11 12  1  0  0  0
 11 50  1  0  0  0
 11 51  1  0  0  0
 12 13  1  0  0  0
 12 52  1  0  0  0
 12 53  1  0  0  0
 13 54  1  0  0  0
 13 55  1  0  0  0
 14 15  2  0  0  0
 14 19  1  0  0  0
 15 16  1  0  0  0
 15 56  1  0  0  0
 16 17  2  0  0  0
 16 20  1  0  0  0
 17 18  1  0  0  0
 17 57  1  0  0  0
 18 19  2  0  0  0
 18 58  1  0  0  0
 19 59  1  0  0  0
 20 21  1  0  0  0
 20 24  1  0  0  0
 21 22  2  0  0  0
 22 23  1  0  0  0
 22 60  1  0  0  0
 23 24  2  0  0  0
 23 61  1  0  0  0
 24 62  1  0  0  0
 26 27  1  0  0  0
 26 63  1  0  0  0
 26 64  1  0  0  0
 27 28  2  0  0  0
 27 32  1  0  0  0
 28 29  1  0  0  0
 28 65  1  0  0  0
 29 30  2  0  0  0
 29 33  1  0  0  0
 30 31  1  0  0  0
 30 66  1  0  0  0
 31 32  2  0  0  0
 31 34  1  0  0  0
 32 67  1  0  0  0
 35 68  1  0  0  0
M  CHG  1   7   1
M  END
> <s_m_source_file>
../3n4l_ligand.sdf

> <i_m_source_file_index>
1

> <s_epik_input>
W2NIXTFjKEYpW2NIXWMoRilbY0hdYzFbQ0gyXVtDQEhdKFtOSF1DKD1PKVtDSDNdKVtDQEhdKFtPSF0pW0NIMl1bTkgyK11DMihbQ0gyXVtDSDJdW0NIMl1bQ0gyXVtDSDJdMiljM1tjSF1jKFtjSF1bY0hdW2NIXTMpLW40bltjSF1bY0hdW2NIXTQ=

> <s_epik_cmdline>
J2VwaWtfYXBwJywgJy1pbWFlJywgJ2xpZ2FuZF9wcm8ubWFlJywgJy1vbWFlJywgJ2xpZ2FuZF9wcmVwLm1hZScsICctbXMnLCAnMScsICctcGgnLCAnNycsICctcGh0JywgJzAuNScsICctbnQn

> <r_lp_tautomer_probability>
1

> <r_epik_Ionization_Penalty>
  0.0146

> <r_epik_Ionization_Penalty_Charging>
  0.0146

> <r_epik_Ionization_Penalty_Neutral>
  0.0000

> <r_epik_State_Penalty>
  0.0114

> <r_epik_Charging_Adjusted_Penalty>
0.0260283319494171

> <i_epik_Tot_Q>
1

> <i_epik_Tot_abs_Q>
1

$$$$
