3n51_ligand
                    3D
 Schrodinger Suite 2020-3.
 53 57  0  0  1  0            999 V2000
   21.6940   12.4400   63.6670 N   0  0  0  0  0  0
   22.8590   13.1000   63.6330 C   0  0  0  0  0  0
   22.9250   14.4290   63.6390 N   0  0  0  0  0  0
   21.8030   15.1680   63.6190 C   0  0  0  0  0  0
   20.5760   14.5300   63.6460 C   0  0  0  0  0  0
   20.5400   13.1220   63.6920 C   0  0  0  0  0  0
   19.4100   12.4350   63.7320 N   0  0  0  0  0  0
   21.5430   16.4880   63.5890 N   0  0  0  0  0  0
   20.3360   16.7300   63.6230 N   0  0  0  0  0  0
   23.4930   19.7110   59.9360 N   0  3  0  0  0  0
   13.2990   15.4720   65.4770 C   0  0  0  0  0  0
   13.8890   15.8410   64.2660 C   0  0  0  0  0  0
   17.6420   14.3820   67.2670 C   0  0  0  0  0  0
   18.2490   14.7370   66.0560 C   0  0  0  0  0  0
   14.1000   15.0150   66.5180 C   0  0  0  0  0  0
   16.2740   14.4720   67.4060 C   0  0  0  0  0  0
   15.2740   15.7450   64.1230 C   0  0  0  0  0  0
   24.6500   19.1850   60.6900 C   0  0  0  0  0  0
   22.4720   18.6460   59.7760 C   0  0  0  0  0  0
   24.1710   18.8860   62.1320 C   0  0  0  0  0  0
   21.9290   18.2680   61.1660 C   0  0  0  0  0  0
   18.1380   15.5610   63.6770 C   0  0  0  0  0  0
   22.5290   17.5570   63.5520 C   0  0  0  0  0  0
   17.4690   15.1840   64.9950 C   0  0  0  0  0  0
   19.6510   15.5890   63.6570 C   0  0  0  0  0  0
   15.4880   14.9280   66.3600 C   0  0  0  0  0  0
   16.0820   15.2840   65.1650 C   0  0  0  0  0  0
   23.0650   17.8080   62.1160 C   0  0  0  0  0  0
   23.7862   12.5280   63.5992 H   0  0  0  0  0  0
   19.4355   11.3359   63.7671 H   0  0  0  0  0  0
   18.4450   12.9630   63.7302 H   0  0  0  0  0  0
   23.0530   20.5577   60.4832 H   0  0  0  0  0  0
   23.8252   20.0489   58.9433 H   0  0  0  0  0  0
   12.2188   15.5417   65.6052 H   0  0  0  0  0  0
   13.2740   16.2003   63.4409 H   0  0  0  0  0  0
   18.2522   14.0341   68.1005 H   0  0  0  0  0  0
   19.3308   14.6631   65.9452 H   0  0  0  0  0  0
   13.6436   14.7225   67.4637 H   0  0  0  0  0  0
   15.8062   14.1820   68.3468 H   0  0  0  0  0  0
   15.7346   16.0357   63.1788 H   0  0  0  0  0  0
   25.0143   18.2657   60.2082 H   0  0  0  0  0  0
   25.4532   19.9365   60.7005 H   0  0  0  0  0  0
   21.6520   19.0163   59.1431 H   0  0  0  0  0  0
   22.9315   17.7656   59.3029 H   0  0  0  0  0  0
   25.0184   18.5225   62.7319 H   0  0  0  0  0  0
   23.7700   19.8055   62.5833 H   0  0  0  0  0  0
   21.4323   19.1406   61.6153 H   0  0  0  0  0  0
   21.2055   17.4455   61.0658 H   0  0  0  0  0  0
   17.8457   14.8411   62.8984 H   0  0  0  0  0  0
   17.8200   16.5713   63.3802 H   0  0  0  0  0  0
   22.0725   18.4896   63.9151 H   0  0  0  0  0  0
   23.3816   17.2918   64.1944 H   0  0  0  0  0  0
   23.4820   16.8597   61.7461 H   0  0  0  0  0  0
  1  2  1  0  0  0
  1  6  2  0  0  0
  2  3  2  0  0  0
  2 29  1  0  0  0
  3  4  1  0  0  0
  4  5  2  0  0  0
  4  8  1  0  0  0
  5  6  1  0  0  0
  5 25  1  0  0  0
  6  7  1  0  0  0
  7 30  1  0  0  0
  7 31  1  0  0  0
  8  9  1  0  0  0
  8 23  1  0  0  0
  9 25  2  0  0  0
 10 18  1  0  0  0
 10 19  1  0  0  0
 10 32  1  0  0  0
 10 33  1  0  0  0
 11 12  2  0  0  0
 11 15  1  0  0  0
 11 34  1  0  0  0
 12 17  1  0  0  0
 12 35  1  0  0  0
 13 14  1  0  0  0
 13 16  2  0  0  0
 13 36  1  0  0  0
 14 24  2  0  0  0
 14 37  1  0  0  0
 15 26  2  0  0  0
 15 38  1  0  0  0
 16 26  1  0  0  0
 16 39  1  0  0  0
 17 27  2  0  0  0
 17 40  1  0  0  0
 18 20  1  0  0  0
 18 41  1  0  0  0
 18 42  1  0  0  0
 19 21  1  0  0  0
 19 43  1  0  0  0
 19 44  1  0  0  0
 20 28  1  0  0  0
 20 45  1  0  0  0
 20 46  1  0  0  0
 21 28  1  0  0  0
 21 47  1  0  0  0
 21 48  1  0  0  0
 22 24  1  0  0  0
 22 25  1  0  0  0
 22 49  1  0  0  0
 22 50  1  0  0  0
 23 28  1  0  0  0
 23 51  1  0  0  0
 23 52  1  0  0  0
 24 27  1  0  0  0
 26 27  1  0  0  0
 28 53  1  0  0  0
M  CHG  1  10   1
M  END
> <s_m_source_file>
../3n51_ligand.sdf

> <i_m_source_file_index>
1

> <s_epik_input>
W2NIXTFbY0hdW2NIXVtjSF1jKGMxMiljKFtjSF1bY0hdW2NIXTIpW0NIMl1jKGMoYzM0KWMoW05IMl0pbltjSF1uMylubjRbQ0gyXVtDSF01W0NIMl1bQ0gyXVtOSDIrXVtDSDJdW0NIMl01

> <s_epik_cmdline>
J2VwaWtfYXBwJywgJy1pbWFlJywgJ2xpZ2FuZF9wcm8ubWFlJywgJy1vbWFlJywgJ2xpZ2FuZF9wcmVwLm1hZScsICctbXMnLCAnMScsICctcGgnLCAnNycsICctcGh0JywgJzAuNScsICctbnQn

> <r_lp_tautomer_probability>
1

> <r_epik_Ionization_Penalty>
  0.0014

> <r_epik_Ionization_Penalty_Charging>
  0.0004

> <r_epik_Ionization_Penalty_Neutral>
  0.0010

> <r_epik_State_Penalty>
 -0.0000

> <r_epik_Charging_Adjusted_Penalty>
0.000433073767326883

> <i_epik_Tot_Q>
1

> <i_epik_Tot_abs_Q>
1

$$$$
