3n5e_ligand
                    3D
 Schrodinger Suite 2020-3.
142142  0  0  1  0            999 V2000
  -39.2260    5.1120   21.7250 N   0  3  0  0  0  0
  -39.3890    6.2540   20.7790 C   0  0  2  0  0  0
  -38.4500    5.9840   19.5980 C   0  0  0  0  0  0
  -37.5220    6.7470   19.3520 O   0  0  0  0  0  0
  -39.0820    7.5830   21.5100 C   0  0  0  0  0  0
  -38.6170    8.9000   20.8690 C   0  0  0  0  0  0
  -39.7370    9.9080   20.7440 C   0  0  0  0  0  0
  -37.4980    9.5200   21.7000 C   0  0  0  0  0  0
  -38.7220    4.9010   18.8590 N   0  0  0  0  0  0
  -37.6820    4.1830   18.0890 C   0  0  2  0  0  0
  -38.1010    3.5430   16.7640 C   0  0  0  0  0  0
  -39.2850    3.5510   16.4280 O   0  0  0  0  0  0
  -37.1220    3.0590   18.9760 C   0  0  0  0  0  0
  -38.1520    2.2740   19.5320 O   0  0  0  0  0  0
  -37.1060    2.9910   16.0420 N   0  0  0  0  0  0
  -37.2830    1.8380   15.1190 C   0  0  2  0  0  0
  -36.4160    1.6150   13.8550 C   0  0  0  0  0  0
  -35.9400    2.5530   13.1970 O   0  0  0  0  0  0
  -38.7440    1.4950   14.8380 C   0  0  0  0  0  0
  -39.5470    0.8500   16.2890 S   0  0  0  0  0  0
  -36.2170    0.3210   13.5900 N   0  0  0  0  0  0
  -35.5340   -0.2650   12.4190 C   0  0  2  0  0  0
  -34.0020   -0.3730   12.3430 C   0  0  0  0  0  0
  -33.3010    0.6330   12.2580 O   0  0  0  0  0  0
  -36.0890    0.2420   11.0910 C   0  0  0  0  0  0
  -35.9460   -0.7900    9.9940 C   0  0  0  0  0  0
  -36.0890   -2.2320   10.4870 C   0  0  0  0  0  0
  -35.0930   -2.9380   10.6950 O   0  0  0  0  0  0
  -37.3290   -2.6690   10.6770 N   0  0  0  0  0  0
  -33.5370   -1.6240   12.3040 N   0  0  0  0  0  0
  -32.1480   -2.0620   12.5680 C   0  0  2  0  0  0
  -30.9520   -1.1000   12.6810 C   0  0  0  0  0  0
  -30.9180   -0.0260   12.0740 O   0  0  0  0  0  0
  -31.7880   -3.2840   11.7080 C   0  0  0  0  0  0
  -31.8580   -4.6910   12.3360 C   0  0  0  0  0  0
  -30.6310   -5.0200   13.1970 C   0  0  0  0  0  0
  -33.1540   -4.9650   13.1050 C   0  0  0  0  0  0
  -29.9560   -1.5760   13.4350 N   0  0  0  0  0  0
  -28.8500   -0.7960   14.0250 C   0  0  2  0  0  0
  -28.2520    0.3630   13.2220 C   0  0  0  0  0  0
  -28.0000    1.4310   13.7860 O   0  0  0  0  0  0
  -27.7500   -1.7370   14.5600 C   0  0  0  0  0  0
  -26.9470   -2.4800   13.5090 C   0  0  0  0  0  0
  -25.5920   -2.1930   13.3130 C   0  0  0  0  0  0
  -27.5280   -3.4800   12.7240 C   0  0  0  0  0  0
  -24.8390   -2.8730   12.3560 C   0  0  0  0  0  0
  -26.7840   -4.1650   11.7610 C   0  0  0  0  0  0
  -25.4430   -3.8540   11.5850 C   0  0  0  0  0  0
  -24.7020   -4.5220   10.6410 O   0  0  0  0  0  0
  -28.0150    0.1680   11.9280 N   0  0  0  0  0  0
  -27.6470    1.3010   11.0840 C   0  0  2  0  0  0
  -28.9170    2.0940   10.7750 C   0  0  0  0  0  0
  -29.6210    1.8100    9.8000 O   0  0  0  0  0  0
  -26.9090    0.8550    9.8090 C   0  0  0  0  0  0
  -26.4900    2.0040    8.8610 C   0  0  0  0  0  0
  -26.0180    3.2630    9.5900 C   0  0  0  0  0  0
  -26.7520    4.2490    9.6840 O   0  0  0  0  0  0
  -24.7970    3.2270   10.1160 N   0  0  0  0  0  0
  -29.2070    3.0710   11.6410 N   0  0  0  0  0  0
  -30.4330    3.8850   11.5720 C   0  0  2  0  0  0
  -31.6970    3.0160   11.6120 C   0  0  0  0  0  0
  -32.7954    3.4705   12.0298 O   0  0  0  0  0  0
  -30.4210    4.7710   10.3220 C   0  0  0  0  0  0
  -31.5490    5.7950   10.2480 C   0  0  0  0  0  0
  -31.8880    6.1400    8.8090 C   0  0  0  0  0  0
  -30.7000    6.3700    7.9910 N   0  0  0  0  0  0
  -30.7260    6.6950    6.7000 C   0  0  0  0  0  0
  -31.8830    6.8340    6.0590 N   0  0  0  0  0  0
  -29.5880    6.8860    6.0460 N   0  3  0  0  0  0
  -31.6352    1.8207   11.2182 O   0  5  0  0  0  0
  -39.4448    4.1690   21.2026 H   0  0  0  0  0  0
  -39.9207    5.2332   22.5693 H   0  0  0  0  0  0
  -38.1923    5.0917   22.1006 H   0  0  0  0  0  0
  -40.4250    6.3150   20.4143 H   0  0  0  0  0  0
  -39.9841    7.9291   22.0358 H   0  0  0  0  0  0
  -38.2724    7.4229   22.2373 H   0  0  0  0  0  0
  -38.2656    8.6655   19.8533 H   0  0  0  0  0  0
  -40.5537    9.4765   20.1466 H   0  0  0  0  0  0
  -39.3603   10.8152   20.2489 H   0  0  0  0  0  0
  -40.1119   10.1657   21.7455 H   0  0  0  0  0  0
  -36.6736    8.7988   21.8010 H   0  0  0  0  0  0
  -37.8826    9.7794   22.6974 H   0  0  0  0  0  0
  -37.1310   10.4289   21.2008 H   0  0  0  0  0  0
  -39.7638    4.5487   18.8374 H   0  0  0  0  0  0
  -36.9849    4.9941   17.8316 H   0  0  0  0  0  0
  -36.4741    2.4051   18.3738 H   0  0  0  0  0  0
  -36.5377    3.4975   19.7983 H   0  0  0  0  0  0
  -37.9046    1.4289   20.1912 H   0  0  0  0  0  0
  -36.1131    3.4474   16.1679 H   0  0  0  0  0  0
  -36.8009    1.1594   15.8381 H   0  0  0  0  0  0
  -39.2780    2.4012   14.5161 H   0  0  0  0  0  0
  -38.7962    0.7367   14.0428 H   0  0  0  0  0  0
  -40.6060    0.5555   16.2465 H   0  0  0  0  0  0
  -36.6318   -0.3346   14.3698 H   0  0  0  0  0  0
  -35.8408   -1.2930   12.6622 H   0  0  0  0  0  0
  -37.1570    0.4787   11.2064 H   0  0  0  0  0  0
  -35.5435    1.1477   10.7874 H   0  0  0  0  0  0
  -36.7219   -0.6250    9.2319 H   0  0  0  0  0  0
  -34.9523   -0.6981    9.5314 H   0  0  0  0  0  0
  -38.1828   -2.0045   10.4785 H   0  0  0  0  0  0
  -37.5020   -3.6954   11.0329 H   0  0  0  0  0  0
  -34.3073   -2.3650   12.0441 H   0  0  0  0  0  0
  -32.3246   -2.2503   13.6373 H   0  0  0  0  0  0
  -32.4651   -3.3357   10.8427 H   0  0  0  0  0  0
  -30.7499   -3.1918   11.3562 H   0  0  0  0  0  0
  -31.8589   -5.3794   11.4780 H   0  0  0  0  0  0
  -29.7150   -4.8152   12.6234 H   0  0  0  0  0  0
  -30.6563   -6.0825   13.4805 H   0  0  0  0  0  0
  -30.6423   -4.3981   14.1042 H   0  0  0  0  0  0
  -34.0169   -4.7218   12.4676 H   0  0  0  0  0  0
  -33.1809   -4.3427   14.0117 H   0  0  0  0  0  0
  -33.1949   -6.0272   13.3879 H   0  0  0  0  0  0
  -30.0135   -2.6618   13.6018 H   0  0  0  0  0  0
  -29.3999   -0.2740   14.8220 H   0  0  0  0  0  0
  -27.0237   -1.1556   15.1470 H   0  0  0  0  0  0
  -28.2056   -2.5073   15.1996 H   0  0  0  0  0  0
  -25.1155   -1.4231   13.9199 H   0  0  0  0  0  0
  -28.5796   -3.7294   12.8659 H   0  0  0  0  0  0
  -23.7846   -2.6351   12.2155 H   0  0  0  0  0  0
  -27.2529   -4.9380   11.1522 H   0  0  0  0  0  0
  -23.6390   -4.2759   10.5010 H   0  0  0  0  0  0
  -28.0947   -0.8391   11.4927 H   0  0  0  0  0  0
  -26.9426    1.9162   11.6632 H   0  0  0  0  0  0
  -25.9870    0.3229   10.0862 H   0  0  0  0  0  0
  -27.5575    0.1852    9.2252 H   0  0  0  0  0  0
  -25.6616    1.6672    8.2204 H   0  0  0  0  0  0
  -27.3459    2.2915    8.2327 H   0  0  0  0  0  0
  -24.1775    2.3246   10.0068 H   0  0  0  0  0  0
  -24.4066    4.0996   10.6602 H   0  0  0  0  0  0
  -28.4702    3.2528   12.4372 H   0  0  0  0  0  0
  -30.4125    4.5148   12.4736 H   0  0  0  0  0  0
  -29.4784    5.3367   10.2826 H   0  0  0  0  0  0
  -30.5080    4.1405    9.4248 H   0  0  0  0  0  0
  -32.4485    5.3851   10.7306 H   0  0  0  0  0  0
  -31.2427    6.7160   10.7656 H   0  0  0  0  0  0
  -32.4538    5.3120    8.3570 H   0  0  0  0  0  0
  -32.4966    7.0560    8.7851 H   0  0  0  0  0  0
  -29.6988    6.2775    8.4371 H   0  0  0  0  0  0
  -32.8309    6.6772    6.5947 H   0  0  0  0  0  0
  -31.8921    7.1057    4.9931 H   0  0  0  0  0  0
  -28.6272    6.7728    6.5694 H   0  0  0  0  0  0
  -29.6051    7.1576    4.9802 H   0  0  0  0  0  0
  1  2  1  0  0  0
  1 71  1  0  0  0
  1 72  1  0  0  0
  1 73  1  0  0  0
  2  3  1  0  0  0
  2  5  1  0  0  0
  2 74  1  0  0  0
  3  4  2  0  0  0
  3  9  1  0  0  0
  5  6  1  0  0  0
  5 75  1  0  0  0
  5 76  1  0  0  0
  6  7  1  0  0  0
  6  8  1  0  0  0
  6 77  1  0  0  0
  7 78  1  0  0  0
  7 79  1  0  0  0
  7 80  1  0  0  0
  8 81  1  0  0  0
  8 82  1  0  0  0
  8 83  1  0  0  0
  9 10  1  0  0  0
  9 84  1  0  0  0
 10 11  1  0  0  0
 10 13  1  0  0  0
 10 85  1  0  0  0
 11 12  2  0  0  0
 11 15  1  0  0  0
 13 14  1  0  0  0
 13 86  1  0  0  0
 13 87  1  0  0  0
 14 88  1  0  0  0
 15 16  1  0  0  0
 15 89  1  0  0  0
 16 17  1  0  0  0
 16 19  1  0  0  0
 16 90  1  0  0  0
 17 18  2  0  0  0
 17 21  1  0  0  0
 19 20  1  0  0  0
 19 91  1  0  0  0
 19 92  1  0  0  0
 20 93  1  0  0  0
 21 22  1  0  0  0
 21 94  1  0  0  0
 22 23  1  0  0  0
 22 25  1  0  0  0
 22 95  1  0  0  0
 23 24  2  0  0  0
 23 30  1  0  0  0
 25 26  1  0  0  0
 25 96  1  0  0  0
 25 97  1  0  0  0
 26 27  1  0  0  0
 26 98  1  0  0  0
 26 99  1  0  0  0
 27 28  2  0  0  0
 27 29  1  0  0  0
 29100  1  0  0  0
 29101  1  0  0  0
 30 31  1  0  0  0
 30102  1  0  0  0
 31 32  1  0  0  0
 31 34  1  0  0  0
 31103  1  0  0  0
 32 33  2  0  0  0
 32 38  1  0  0  0
 34 35  1  0  0  0
 34104  1  0  0  0
 34105  1  0  0  0
 35 36  1  0  0  0
 35 37  1  0  0  0
 35106  1  0  0  0
 36107  1  0  0  0
 36108  1  0  0  0
 36109  1  0  0  0
 37110  1  0  0  0
 37111  1  0  0  0
 37112  1  0  0  0
 38 39  1  0  0  0
 38113  1  0  0  0
 39 40  1  0  0  0
 39 42  1  0  0  0
 39114  1  0  0  0
 40 41  2  0  0  0
 40 50  1  0  0  0
 42 43  1  0  0  0
 42115  1  0  0  0
 42116  1  0  0  0
 43 44  2  0  0  0
 43 45  1  0  0  0
 44 46  1  0  0  0
 44117  1  0  0  0
 45 47  2  0  0  0
 45118  1  0  0  0
 46 48  2  0  0  0
 46119  1  0  0  0
 47 48  1  0  0  0
 47120  1  0  0  0
 48 49  1  0  0  0
 49121  1  0  0  0
 50 51  1  0  0  0
 50122  1  0  0  0
 51 52  1  0  0  0
 51 54  1  0  0  0
 51123  1  0  0  0
 52 53  2  0  0  0
 52 59  1  0  0  0
 54 55  1  0  0  0
 54124  1  0  0  0
 54125  1  0  0  0
 55 56  1  0  0  0
 55126  1  0  0  0
 55127  1  0  0  0
 56 57  2  0  0  0
 56 58  1  0  0  0
 58128  1  0  0  0
 58129  1  0  0  0
 59 60  1  0  0  0
 59130  1  0  0  0
 60 61  1  0  0  0
 60 63  1  0  0  0
 60131  1  0  0  0
 61 62  2  0  0  0
 61 70  1  0  0  0
 63 64  1  0  0  0
 63132  1  0  0  0
 63133  1  0  0  0
 64 65  1  0  0  0
 64134  1  0  0  0
 64135  1  0  0  0
 65 66  1  0  0  0
 65136  1  0  0  0
 65137  1  0  0  0
 66 67  1  0  0  0
 66138  1  0  0  0
 67 68  1  0  0  0
 67 69  2  0  0  0
 68139  1  0  0  0
 68140  1  0  0  0
 69141  1  0  0  0
 69142  1  0  0  0
M  CHG  3   1   1  69   1  70  -1
M  END
> <s_m_source_file>
../3n5e_ligand.sdf

> <i_m_source_file_index>
1

> <s_epik_input>
W0NIM11bQ0hdKFtDSDNdKVtDSDJdW0NASF0oW05IMytdKUMoPU8pW05IXVtDQEBIXShbQ0gyXVtPSF0pQyg9TylbTkhdW0NAQEhdKFtDSDJdW1NIXSlDKD1PKVtOSF1bQ0BASF0oW0NIMl1bQ0gyXUMoPU8pW05IMl0pQyg9TylbTkhdW0NAQEhdKFtDSDJdW0NIXShbQ0gzXSlbQ0gzXSlDKD1PKVtOSF1bQ0BASF0oW0NIMl1jMVtjSF1bY0hdYyhbT0hdKVtjSF1bY0hdMSlDKD1PKVtOSF1bQ0BASF0oW0NIMl1bQ0gyXUMoPU8pW05IMl0pQyg9TylbTkhdW0NASF0oQyg9TylbT0hdKVtDSDJdW0NIMl1bQ0gyXVtOSF0vQyhbTkgyXSk9TlxbSF0=

> <s_epik_cmdline>
J2VwaWtfYXBwJywgJy1pbWFlJywgJ2xpZ2FuZF9wcm8ubWFlJywgJy1vbWFlJywgJ2xpZ2FuZF9wcmVwLm1hZScsICctbXMnLCAnMScsICctcGgnLCAnNycsICctcGh0JywgJzAuNScsICctbnQn

> <r_lp_tautomer_probability>
1

> <r_epik_Ionization_Penalty>
  0.1089

> <r_epik_Ionization_Penalty_Charging>
  0.0973

> <r_epik_Ionization_Penalty_Neutral>
  0.0116

> <r_epik_State_Penalty>
 -0.0000

> <r_epik_Charging_Adjusted_Penalty>
0.0973197141877121

> <i_epik_Tot_Q>
1

> <i_epik_Tot_abs_Q>
3

> <s_epik_Chemistry_Notes>
This compound has an imine and may undergo hydrolysis.

$$$$
