3n5h_ligand
                    3D
 Schrodinger Suite 2020-3.
 22 23  0  0  1  0            999 V2000
    0.6950   77.2340   29.2470 Cl  0  0  0  0  0  0
    2.4080   77.4900   29.1490 C   0  0  0  0  0  0
    3.2510   76.3740   29.1460 C   0  0  0  0  0  0
    2.8880   75.0780   29.2560 N   0  0  0  0  0  0
    3.9500   74.2950   29.2080 C   0  0  0  0  0  0
    5.0620   75.0790   29.0360 C   0  0  0  0  0  0
    4.5940   76.5070   29.0260 C   0  0  0  0  0  0
    5.1860   77.7680   28.9250 C   0  0  3  0  0  0
    4.3700   78.9290   28.9580 C   0  0  0  0  0  0
    2.9710   78.7910   29.0710 C   0  0  0  0  0  0
    6.8750   77.9220   28.7440 Cl  0  0  0  0  0  0
    6.5040   74.6500   28.8830 C   0  0  0  0  0  0
    6.8980   74.6690   27.4030 C   0  0  0  0  0  0
    6.1170   74.9080   26.4870 O   0  0  0  0  0  0
    8.1770   74.4010   27.1450 O   0  5  0  0  0  0
    3.8110   72.9550   29.3200 C   0  0  0  0  0  0
    4.7780   72.2020   29.2930 O   0  0  0  0  0  0
    2.5820   72.4290   29.4500 O   0  5  0  0  0  0
    4.8207   79.9305   28.8962 H   0  0  0  0  0  0
    2.3305   79.6849   29.0977 H   0  0  0  0  0  0
    7.1532   75.3410   29.4406 H   0  0  0  0  0  0
    6.6274   73.6311   29.2787 H   0  0  0  0  0  0
  1  2  1  0  0  0
  2  3  2  0  0  0
  2 10  1  0  0  0
  3  4  1  0  0  0
  3  7  1  0  0  0
  4  5  2  0  0  0
  5  6  1  0  0  0
  5 16  1  0  0  0
  6  7  2  0  0  0
  6 12  1  0  0  0
  7  8  1  0  0  0
  8  9  1  0  0  0
  8 11  1  0  0  0
  9 10  2  0  0  0
  9 19  1  0  0  0
 10 20  1  0  0  0
 12 13  1  0  0  0
 12 21  1  0  0  0
 12 22  1  0  0  0
 13 14  2  0  0  0
 13 15  1  0  0  0
 16 17  2  0  0  0
 16 18  1  0  0  0
M  CHG  2  15  -1  18  -1
M  END
> <s_m_source_file>
../3n5h_ligand.sdf

> <i_m_source_file_index>
1

> <s_epik_input>
Q2xDPTFbQ0hdPVtDSF1bQ0hdKENsKUMoQzEyKT1DKEMoPU4yKUMoPU8pW09IXSlbQ0gyXUMoPU8pW09IXQ==

> <s_epik_cmdline>
J2VwaWtfYXBwJywgJy1pbWFlJywgJ2xpZ2FuZF9wcm8ubWFlJywgJy1vbWFlJywgJ2xpZ2FuZF9wcmVwLm1hZScsICctbXMnLCAnMScsICctcGgnLCAnNycsICctcGh0JywgJzAuNScsICctbnQn

> <r_lp_tautomer_probability>
1

> <r_epik_Ionization_Penalty>
  0.0000

> <r_epik_Ionization_Penalty_Charging>
  0.0000

> <r_epik_Ionization_Penalty_Neutral>
  0.0000

> <r_epik_State_Penalty>
 -0.0000

> <r_epik_Charging_Adjusted_Penalty>
2.31249067940479e-06

> <i_epik_Tot_Q>
-2

> <i_epik_Tot_abs_Q>
2

> <s_epik_Chemistry_Notes>
This compound has an imine and may undergo hydrolysis.

$$$$
