3n5k_ligand
                    3D
 Schrodinger Suite 2020-3.
102104  0  0  1  0            999 V2000
   35.2150   73.7130   18.2370 C   0  0  0  0  0  0
   35.0330   72.9740   16.9110 C   0  0  2  0  0  0
   35.3170   73.7880   15.5840 C   0  0  1  0  0  0
   36.7550   74.2740   15.3610 C   0  0  2  0  0  0
   36.8900   75.2320   14.1590 C   0  0  0  0  0  0
   36.4340   74.8190   12.7340 C   0  0  2  0  0  0
   34.9320   74.5750   12.5420 C   0  0  1  0  0  0
   34.5160   74.4740   11.0410 C   0  0  2  0  0  0
   33.4910   75.4190   10.7600 O   0  0  0  0  0  0
   33.6910   76.2270    9.6670 C   0  0  0  0  0  0
   34.5600   77.0730    9.7060 O   0  0  0  0  0  0
   32.7720   75.9540    8.5020 C   0  0  0  0  0  0
   33.5310   75.9820    7.1620 C   0  0  0  0  0  0
   32.9280   75.1720    6.0030 C   0  0  0  0  0  0
   31.4060   75.3480    5.8600 C   0  0  0  0  0  0
   30.9120   75.6330    4.4390 C   0  0  0  0  0  0
   32.0280   76.0010    3.4570 C   0  0  0  0  0  0
   31.7150   75.5510    2.0420 C   0  0  0  0  0  0
   33.8250   73.0920   10.7960 C   0  0  1  0  0  0
   34.7060   72.3110   10.0180 O   0  0  0  0  0  0
   34.2330   71.9640    8.7620 C   0  0  0  0  0  0
   33.2590   71.2440    8.7410 O   0  0  0  0  0  0
   35.1180   72.3230    7.5900 C   0  0  2  0  0  0
   34.2640   72.2770    6.3150 C   0  0  0  0  0  0
   36.3360   71.4260    7.3420 C   0  0  0  0  0  0
   37.1730   71.0580    8.5450 C   0  0  0  0  0  0
   33.4900   72.5440   12.2060 C   0  0  1  0  0  0
   33.3080   71.0410   12.3300 C   0  0  0  0  0  0
   34.2330   73.4030   13.2530 C   0  0  1  0  0  0
   34.7370   72.7730   14.5580 C   0  0  2  0  0  0
   33.5460   72.3310   15.2150 O   0  0  0  0  0  0
   33.5330   72.7310   16.5640 C   0  0  1  0  0  0
   33.0390   71.6590   17.2700 O   0  0  0  0  0  0
   37.3070   73.6860   12.1750 C   0  0  0  0  0  0
   36.8330   75.8730   11.8610 O   0  0  0  0  0  0
   37.6480   76.9430   11.9570 C   0  0  0  0  0  0
   37.3320   77.9940   11.4270 O   0  0  0  0  0  0
   39.0510   76.4120   12.0840 C   0  0  0  0  0  0
   37.6010   73.1590   15.2150 O   0  0  0  0  0  0
   38.4500   72.8740   16.2570 C   0  0  0  0  0  0
   38.5020   73.6110   17.2310 O   0  0  0  0  0  0
   39.1920   71.5790   16.0690 C   0  0  0  0  0  0
   38.8430   70.5960   17.1910 C   0  0  0  0  0  0
   39.7780   69.3980   17.1560 C   0  0  0  0  0  0
   34.4510   74.8880   15.5760 O   0  0  0  0  0  0
   35.7930   71.8070   16.8410 O   0  0  0  0  0  0
   34.5955   74.6219   18.2382 H   0  0  0  0  0  0
   36.2724   73.9898   18.3603 H   0  0  0  0  0  0
   34.9080   73.0589   19.0664 H   0  0  0  0  0  0
   37.1209   74.7888   16.2616 H   0  0  0  0  0  0
   36.3091   76.1460   14.3516 H   0  0  0  0  0  0
   37.9488   75.4938   14.0159 H   0  0  0  0  0  0
   34.5918   75.4794   13.0676 H   0  0  0  0  0  0
   35.3778   74.6967   10.3947 H   0  0  0  0  0  0
   32.3143   74.9608    8.6209 H   0  0  0  0  0  0
   31.9830   76.7198    8.4700 H   0  0  0  0  0  0
   33.5940   77.0181    6.7979 H   0  0  0  0  0  0
   34.5454   75.5819    7.3067 H   0  0  0  0  0  0
   33.3874   75.4900    5.0555 H   0  0  0  0  0  0
   33.1226   74.1013    6.1636 H   0  0  0  0  0  0
   30.8982   74.4294    6.1891 H   0  0  0  0  0  0
   31.0746   76.1929    6.4815 H   0  0  0  0  0  0
   30.4082   74.7402    4.0400 H   0  0  0  0  0  0
   30.2046   76.4751    4.4587 H   0  0  0  0  0  0
   32.1626   77.0927    3.4473 H   0  0  0  0  0  0
   32.9658   75.5188    3.7702 H   0  0  0  0  0  0
   32.5420   75.8362    1.3752 H   0  0  0  0  0  0
   30.7865   76.0323    1.7011 H   0  0  0  0  0  0
   31.5896   74.4583    2.0240 H   0  0  0  0  0  0
   32.9282   73.0536   10.1602 H   0  0  0  0  0  0
   35.5144   73.3137    7.8571 H   0  0  0  0  0  0
   33.3738   72.9096    6.4469 H   0  0  0  0  0  0
   33.9516   71.2404    6.1201 H   0  0  0  0  0  0
   34.8547   72.6480    5.4645 H   0  0  0  0  0  0
   36.0055   70.4706    6.9083 H   0  0  0  0  0  0
   37.0242   71.9265    6.6450 H   0  0  0  0  0  0
   38.0083   70.4163    8.2280 H   0  0  0  0  0  0
   36.5507   70.5169    9.2730 H   0  0  0  0  0  0
   37.5693   71.9729    9.0097 H   0  0  0  0  0  0
   32.4328   72.6573   12.4880 H   0  0  0  0  0  0
   32.7480   70.6665   11.4605 H   0  0  0  0  0  0
   32.7506   70.8139   13.2507 H   0  0  0  0  0  0
   34.2937   70.5543   12.3686 H   0  0  0  0  0  0
   33.5295   73.8878   13.9458 H   0  0  0  0  0  0
   35.4657   71.9868   14.3110 H   0  0  0  0  0  0
   32.8427   73.5636   16.7645 H   0  0  0  0  0  0
   32.9297   71.7233   18.3627 H   0  0  0  0  0  0
   37.1235   72.7650   12.7479 H   0  0  0  0  0  0
   38.3677   73.9649   12.2590 H   0  0  0  0  0  0
   37.0550   73.5165   11.1177 H   0  0  0  0  0  0
   39.0309   75.4445   12.6071 H   0  0  0  0  0  0
   39.6627   77.1254   12.6558 H   0  0  0  0  0  0
   39.4845   76.2781   11.0819 H   0  0  0  0  0  0
   38.9130   71.1335   15.1027 H   0  0  0  0  0  0
   40.2750   71.7712   16.0851 H   0  0  0  0  0  0
   38.9425   71.0997   18.1638 H   0  0  0  0  0  0
   37.8079   70.2463   17.0633 H   0  0  0  0  0  0
   39.5141   68.7031   17.9669 H   0  0  0  0  0  0
   40.8155   69.7387   17.2882 H   0  0  0  0  0  0
   39.6809   68.8853   16.1876 H   0  0  0  0  0  0
   34.6514   75.7505   16.2287 H   0  0  0  0  0  0
   36.8700   71.8379   17.0628 H   0  0  0  0  0  0
  1  2  1  0  0  0
  1 47  1  0  0  0
  1 48  1  0  0  0
  1 49  1  0  0  0
  2  3  1  0  0  0
  2 32  1  0  0  0
  2 46  1  0  0  0
  3  4  1  0  0  0
  3 30  1  0  0  0
  3 45  1  0  0  0
  4  5  1  0  0  0
  4 39  1  0  0  0
  4 50  1  0  0  0
  5  6  1  0  0  0
  5 51  1  0  0  0
  5 52  1  0  0  0
  6  7  1  0  0  0
  6 34  1  0  0  0
  6 35  1  0  0  0
  7  8  1  0  0  0
  7 29  1  0  0  0
  7 53  1  0  0  0
  8  9  1  0  0  0
  8 19  1  0  0  0
  8 54  1  0  0  0
  9 10  1  0  0  0
 10 11  2  0  0  0
 10 12  1  0  0  0
 12 13  1  0  0  0
 12 55  1  0  0  0
 12 56  1  0  0  0
 13 14  1  0  0  0
 13 57  1  0  0  0
 13 58  1  0  0  0
 14 15  1  0  0  0
 14 59  1  0  0  0
 14 60  1  0  0  0
 15 16  1  0  0  0
 15 61  1  0  0  0
 15 62  1  0  0  0
 16 17  1  0  0  0
 16 63  1  0  0  0
 16 64  1  0  0  0
 17 18  1  0  0  0
 17 65  1  0  0  0
 17 66  1  0  0  0
 18 67  1  0  0  0
 18 68  1  0  0  0
 18 69  1  0  0  0
 19 20  1  0  0  0
 19 27  1  0  0  0
 19 70  1  0  0  0
 20 21  1  0  0  0
 21 22  2  0  0  0
 21 23  1  0  0  0
 23 24  1  0  0  0
 23 25  1  0  0  0
 23 71  1  0  0  0
 24 72  1  0  0  0
 24 73  1  0  0  0
 24 74  1  0  0  0
 25 26  1  0  0  0
 25 75  1  0  0  0
 25 76  1  0  0  0
 26 77  1  0  0  0
 26 78  1  0  0  0
 26 79  1  0  0  0
 27 28  1  0  0  0
 27 29  1  0  0  0
 27 80  1  0  0  0
 28 81  1  0  0  0
 28 82  1  0  0  0
 28 83  1  0  0  0
 29 30  1  0  0  0
 29 84  1  0  0  0
 30 31  1  0  0  0
 30 85  1  0  0  0
 31 32  1  0  0  0
 32 33  1  0  0  0
 32 86  1  0  0  0
 33 87  1  0  0  0
 34 88  1  0  0  0
 34 89  1  0  0  0
 34 90  1  0  0  0
 35 36  1  0  0  0
 36 37  2  0  0  0
 36 38  1  0  0  0
 38 91  1  0  0  0
 38 92  1  0  0  0
 38 93  1  0  0  0
 39 40  1  0  0  0
 40 41  2  0  0  0
 40 42  1  0  0  0
 42 43  1  0  0  0
 42 94  1  0  0  0
 42 95  1  0  0  0
 43 44  1  0  0  0
 43 96  1  0  0  0
 43 97  1  0  0  0
 44 98  1  0  0  0
 44 99  1  0  0  0
 44100  1  0  0  0
 45101  1  0  0  0
 46102  1  0  0  0
M  END
> <s_m_source_file>
../3n5k_ligand.sdf

> <i_m_source_file_index>
1

> <s_epik_input>
W0NIM11bQ0gyXVtDSDJdQyg9TylPW0NASF0xW0NIMl1bQ0BdKFtDSDNdKShPQyg9TylbQ0gzXSlbQ0BIXShbQ0BASF0yW0NAQEhdKFtDQF0xM1tPSF0pT1tDQEBIXShbT0hdKVtDQEBdMyhbQ0gzXSlbT0hdKVtDQEBIXShbQ0BIXShbQ0BIXTJbQ0gzXSlPQyg9TylbQ0BIXShbQ0gzXSlbQ0gyXVtDSDNdKU9DKD1PKVtDSDJdW0NIMl1bQ0gyXVtDSDJdW0NIMl1bQ0gyXVtDSDNd

> <s_epik_cmdline>
J2VwaWtfYXBwJywgJy1pbWFlJywgJ2xpZ2FuZF9wcm8ubWFlJywgJy1vbWFlJywgJ2xpZ2FuZF9wcmVwLm1hZScsICctbXMnLCAnMScsICctcGgnLCAnNycsICctcGh0JywgJzAuNScsICctbnQn

> <r_lp_tautomer_probability>
1

> <r_epik_Ionization_Penalty>
  0.0000

> <r_epik_Ionization_Penalty_Charging>
  0.0000

> <r_epik_Ionization_Penalty_Neutral>
  0.0000

> <r_epik_State_Penalty>
 -0.0000

> <r_epik_Charging_Adjusted_Penalty>
0

> <i_epik_Tot_Q>
0

> <i_epik_Tot_abs_Q>
0

> <s_epik_Chemistry_Notes>
This compound has an ester and may undergo hydrolysis at high or low pH. This compound contains an acetal/aminal-like group ( X-CH(R)-Y where X, Y are N, S, or O) that may be acid/base labile, releasing an aldehyde.

$$$$
