3n5u_ligand
                    3D
 Schrodinger Suite 2020-3.
141141  0  0  1  0            999 V2000
   10.7310   23.3040    7.9400 N   0  3  0  0  0  0
   10.8360   22.2450    8.9270 C   0  0  2  0  0  0
   11.7360   21.0630    8.5220 C   0  0  0  0  0  0
   11.5330   19.9420    8.9720 O   0  0  0  0  0  0
    9.4430   21.7570    9.2800 C   0  0  0  0  0  0
    8.3910   22.8620    9.3620 C   0  0  0  0  0  0
    7.0610   22.3100    9.8900 C   0  0  0  0  0  0
    5.9900   23.3670    9.9660 C   0  0  0  0  0  0
    5.1140   23.1910   11.1540 N   0  3  0  0  0  0
   12.7240   21.3260    7.6760 N   0  0  0  0  0  0
   13.6880   20.3220    7.2740 C   0  0  2  0  0  0
   15.0290   20.9130    6.9580 C   0  0  0  0  0  0
   15.2500   22.0970    7.0790 O   0  0  0  0  0  0
   13.2590   19.5140    6.0650 C   0  0  0  0  0  0
   14.4170   18.6520    5.5360 C   0  0  0  0  0  0
   14.1450   18.0730    4.1560 C   0  0  0  0  0  0
   13.0420   16.9960    4.1800 C   0  0  0  0  0  0
   12.9770   16.1350    2.9540 N   0  3  0  0  0  0
   15.9270   20.0510    6.5220 N   0  0  0  0  0  0
   17.3570   20.3520    6.6130 C   0  0  2  0  0  0
   17.8960   21.3710    5.6120 C   0  0  0  0  0  0
   17.7870   21.1810    4.4010 O   0  0  0  0  0  0
   18.1800   19.0600    6.5290 C   0  0  0  0  0  0
   19.4360   19.0310    7.4100 C   0  0  0  0  0  0
   19.9690   17.6120    7.5550 C   0  0  0  0  0  0
   20.5220   19.9710    6.8950 C   0  0  0  0  0  0
   18.4970   22.4380    6.1390 N   0  0  0  0  0  0
   19.2120   23.4330    5.3310 C   0  0  2  0  0  0
   20.2070   24.2270    6.1740 C   0  0  0  0  0  0
   20.1860   24.1380    7.3980 O   0  0  0  0  0  0
   18.2450   24.3710    4.5980 C   0  0  0  0  0  0
   16.8090   24.3410    5.1060 C   0  0  0  0  0  0
   16.5420   25.3780    6.1750 C   0  0  0  0  0  0
   15.1810   25.2480    6.6800 N   0  0  0  0  0  0
   14.6140   26.0930    7.5310 C   0  0  0  0  0  0
   15.2910   27.1440    7.9770 N   0  0  0  0  0  0
   13.3660   25.8850    7.9320 N   0  3  0  0  0  0
   21.0670   25.0070    5.5200 N   0  0  0  0  0  0
   22.1900   25.6550    6.2070 C   0  0  2  0  0  0
   22.4980   27.1380    5.9930 C   0  0  0  0  0  0
   22.3210   27.6630    4.8990 O   0  0  0  0  0  0
   23.5210   25.2250    5.5790 C   0  0  0  0  0  0
   23.9190   23.8170    5.9220 C   0  0  0  0  0  0
   24.4060   23.5080    7.1870 C   0  0  0  0  0  0
   23.7960   22.7990    4.9910 C   0  0  0  0  0  0
   24.7680   22.2160    7.5120 C   0  0  0  0  0  0
   24.1570   21.5020    5.3120 C   0  0  0  0  0  0
   24.6420   21.2120    6.5750 C   0  0  0  0  0  0
   22.9630   27.8000    7.0530 N   0  0  0  0  0  0
   23.2120   29.2430    7.0400 C   0  0  2  0  0  0
   24.5560   29.8380    6.6020 C   0  0  0  0  0  0
   25.4840   29.1090    6.2460 O   0  0  0  0  0  0
   22.9480   29.5350    8.5210 C   0  0  0  0  0  0
   22.5970   30.9910    8.7860 C   0  0  0  0  0  0
   23.4820   31.8550    8.6170 O   0  0  0  0  0  0
   21.4470   31.2730    9.1940 O   0  5  0  0  0  0
   24.6440   31.1640    6.6160 N   0  0  0  0  0  0
   25.8600   31.8820    6.2290 C   0  0  2  0  0  0
   25.9260   33.2530    6.9070 C   0  0  0  0  0  0
   27.0010   33.7350    7.2690 O   0  5  0  0  0  0
   25.9510   32.0740    4.6920 C   0  0  2  0  0  0
   26.4270   30.7850    4.0100 C   0  0  0  0  0  0
   26.8820   33.2410    4.3460 C   0  0  0  0  0  0
   26.5790   30.9020    2.4860 C   0  0  0  0  0  0
   24.9060   33.9140    7.1100 O   0  0  0  0  0  0
   11.7375   23.6630    7.6790 H   0  0  0  0  0  0
   10.1415   24.1348    8.3550 H   0  0  0  0  0  0
   10.2345   22.9167    7.0381 H   0  0  0  0  0  0
   11.3249   22.7445    9.7764 H   0  0  0  0  0  0
    9.1003   21.0429    8.5167 H   0  0  0  0  0  0
    9.4659   21.2614   10.2618 H   0  0  0  0  0  0
    8.7417   23.6524   10.0420 H   0  0  0  0  0  0
    8.2261   23.2864    8.3606 H   0  0  0  0  0  0
    6.7041   21.5123    9.2220 H   0  0  0  0  0  0
    7.2086   21.9028   10.9011 H   0  0  0  0  0  0
    6.4588   24.3600   10.0302 H   0  0  0  0  0  0
    5.3603   23.3164    9.0655 H   0  0  0  0  0  0
    4.3504   23.9827   11.1670 H   0  0  0  0  0  0
    5.7210   23.2519   12.0694 H   0  0  0  0  0  0
    4.6224   22.2082   11.1047 H   0  0  0  0  0  0
   12.7961   22.3486    7.2772 H   0  0  0  0  0  0
   13.7297   19.6912    8.1742 H   0  0  0  0  0  0
   12.4261   18.8516    6.3434 H   0  0  0  0  0  0
   12.9338   20.1955    5.2651 H   0  0  0  0  0  0
   15.3283   19.2642    5.4676 H   0  0  0  0  0  0
   14.5913   17.8106    6.2228 H   0  0  0  0  0  0
   13.8213   18.8768    3.4784 H   0  0  0  0  0  0
   15.0634   17.6111    3.7646 H   0  0  0  0  0  0
   13.2070   16.3212    5.0329 H   0  0  0  0  0  0
   12.0592   17.4798    4.2800 H   0  0  0  0  0  0
   12.1646   15.4015    3.0637 H   0  0  0  0  0  0
   13.9332   15.6066    2.8259 H   0  0  0  0  0  0
   12.7855   16.7653    2.0731 H   0  0  0  0  0  0
   15.5922   19.0980    6.0866 H   0  0  0  0  0  0
   17.4141   20.8338    7.6002 H   0  0  0  0  0  0
   17.5578   18.2080    6.8404 H   0  0  0  0  0  0
   18.5186   18.9076    5.4936 H   0  0  0  0  0  0
   19.1463   19.3902    8.4085 H   0  0  0  0  0  0
   19.1683   16.9558    7.9269 H   0  0  0  0  0  0
   20.8079   17.6064    8.2665 H   0  0  0  0  0  0
   20.3158   17.2488    6.5763 H   0  0  0  0  0  0
   20.1121   20.9873    6.7993 H   0  0  0  0  0  0
   20.8723   19.6229    5.9121 H   0  0  0  0  0  0
   21.3644   19.9804    7.6023 H   0  0  0  0  0  0
   18.4398   22.5548    7.2313 H   0  0  0  0  0  0
   19.7664   22.8382    4.5902 H   0  0  0  0  0  0
   18.5934   25.4094    4.7000 H   0  0  0  0  0  0
   18.2078   24.0997    3.5326 H   0  0  0  0  0  0
   16.1204   24.5355    4.2705 H   0  0  0  0  0  0
   16.5929   23.3521    5.5366 H   0  0  0  0  0  0
   17.2478   25.2372    7.0069 H   0  0  0  0  0  0
   16.6720   26.3843    5.7503 H   0  0  0  0  0  0
   14.5522   24.4056    6.3559 H   0  0  0  0  0  0
   16.3252   27.3141    7.6431 H   0  0  0  0  0  0
   14.8178   27.8449    8.6805 H   0  0  0  0  0  0
   12.8071   25.0133    7.5609 H   0  0  0  0  0  0
   20.9202   25.1603    4.4407 H   0  0  0  0  0  0
   21.8488   25.3872    7.2179 H   0  0  0  0  0  0
   23.4469   25.2884    4.4833 H   0  0  0  0  0  0
   24.3241   25.8891    5.9312 H   0  0  0  0  0  0
   24.5034   24.2970    7.9327 H   0  0  0  0  0  0
   23.4111   23.0215    3.9958 H   0  0  0  0  0  0
   25.1524   21.9900    8.5066 H   0  0  0  0  0  0
   24.0593   20.7094    4.5702 H   0  0  0  0  0  0
   24.9244   20.1904    6.8293 H   0  0  0  0  0  0
   23.1603   27.2160    7.9641 H   0  0  0  0  0  0
   22.5834   29.6636    6.2412 H   0  0  0  0  0  0
   22.1067   28.9193    8.8718 H   0  0  0  0  0  0
   23.8471   29.2959    9.1078 H   0  0  0  0  0  0
   23.7527   31.7240    6.9355 H   0  0  0  0  0  0
   26.6720   31.2341    6.5909 H   0  0  0  0  0  0
   24.9496   32.3129    4.3047 H   0  0  0  0  0  0
   27.4098   30.4986    4.4125 H   0  0  0  0  0  0
   25.7031   29.9795    4.2025 H   0  0  0  0  0  0
   26.5249   34.1548    4.8434 H   0  0  0  0  0  0
   26.8880   33.3948    3.2568 H   0  0  0  0  0  0
   27.9014   33.0110    4.6894 H   0  0  0  0  0  0
   26.9219   29.9402    2.0768 H   0  0  0  0  0  0
   27.3154   31.6843    2.2500 H   0  0  0  0  0  0
   25.6086   31.1652    2.0399 H   0  0  0  0  0  0
   12.8905   26.5844    8.6354 H   0  0  0  0  0  0
  1  2  1  0  0  0
  1 66  1  0  0  0
  1 67  1  0  0  0
  1 68  1  0  0  0
  2  3  1  0  0  0
  2  5  1  0  0  0
  2 69  1  0  0  0
  3  4  2  0  0  0
  3 10  1  0  0  0
  5  6  1  0  0  0
  5 70  1  0  0  0
  5 71  1  0  0  0
  6  7  1  0  0  0
  6 72  1  0  0  0
  6 73  1  0  0  0
  7  8  1  0  0  0
  7 74  1  0  0  0
  7 75  1  0  0  0
  8  9  1  0  0  0
  8 76  1  0  0  0
  8 77  1  0  0  0
  9 78  1  0  0  0
  9 79  1  0  0  0
  9 80  1  0  0  0
 10 11  1  0  0  0
 10 81  1  0  0  0
 11 12  1  0  0  0
 11 14  1  0  0  0
 11 82  1  0  0  0
 12 13  2  0  0  0
 12 19  1  0  0  0
 14 15  1  0  0  0
 14 83  1  0  0  0
 14 84  1  0  0  0
 15 16  1  0  0  0
 15 85  1  0  0  0
 15 86  1  0  0  0
 16 17  1  0  0  0
 16 87  1  0  0  0
 16 88  1  0  0  0
 17 18  1  0  0  0
 17 89  1  0  0  0
 17 90  1  0  0  0
 18 91  1  0  0  0
 18 92  1  0  0  0
 18 93  1  0  0  0
 19 20  1  0  0  0
 19 94  1  0  0  0
 20 21  1  0  0  0
 20 23  1  0  0  0
 20 95  1  0  0  0
 21 22  2  0  0  0
 21 27  1  0  0  0
 23 24  1  0  0  0
 23 96  1  0  0  0
 23 97  1  0  0  0
 24 25  1  0  0  0
 24 26  1  0  0  0
 24 98  1  0  0  0
 25 99  1  0  0  0
 25100  1  0  0  0
 25101  1  0  0  0
 26102  1  0  0  0
 26103  1  0  0  0
 26104  1  0  0  0
 27 28  1  0  0  0
 27105  1  0  0  0
 28 29  1  0  0  0
 28 31  1  0  0  0
 28106  1  0  0  0
 29 30  2  0  0  0
 29 38  1  0  0  0
 31 32  1  0  0  0
 31107  1  0  0  0
 31108  1  0  0  0
 32 33  1  0  0  0
 32109  1  0  0  0
 32110  1  0  0  0
 33 34  1  0  0  0
 33111  1  0  0  0
 33112  1  0  0  0
 34 35  1  0  0  0
 34113  1  0  0  0
 35 36  1  0  0  0
 35 37  2  0  0  0
 36114  1  0  0  0
 36115  1  0  0  0
 37116  1  0  0  0
 37141  1  0  0  0
 38 39  1  0  0  0
 38117  1  0  0  0
 39 40  1  0  0  0
 39 42  1  0  0  0
 39118  1  0  0  0
 40 41  2  0  0  0
 40 49  1  0  0  0
 42 43  1  0  0  0
 42119  1  0  0  0
 42120  1  0  0  0
 43 44  2  0  0  0
 43 45  1  0  0  0
 44 46  1  0  0  0
 44121  1  0  0  0
 45 47  2  0  0  0
 45122  1  0  0  0
 46 48  2  0  0  0
 46123  1  0  0  0
 47 48  1  0  0  0
 47124  1  0  0  0
 48125  1  0  0  0
 49 50  1  0  0  0
 49126  1  0  0  0
 50 51  1  0  0  0
 50 53  1  0  0  0
 50127  1  0  0  0
 51 52  2  0  0  0
 51 57  1  0  0  0
 53 54  1  0  0  0
 53128  1  0  0  0
 53129  1  0  0  0
 54 55  2  0  0  0
 54 56  1  0  0  0
 57 58  1  0  0  0
 57130  1  0  0  0
 58 59  1  0  0  0
 58 61  1  0  0  0
 58131  1  0  0  0
 59 60  1  0  0  0
 59 65  2  0  0  0
 61 62  1  0  0  0
 61 63  1  0  0  0
 61132  1  0  0  0
 62 64  1  0  0  0
 62133  1  0  0  0
 62134  1  0  0  0
 63135  1  0  0  0
 63136  1  0  0  0
 63137  1  0  0  0
 64138  1  0  0  0
 64139  1  0  0  0
 64140  1  0  0  0
M  CHG  6   1   1   9   1  18   1  37   1  56  -1  60  -1
M  END
> <s_m_source_file>
../3n5u_ligand.sdf

> <i_m_source_file_index>
1

> <s_epik_input>
W05IMytdW0NIMl1bQ0gyXVtDSDJdW0NIMl1bQ0BIXShbTkgzK10pQyg9TylbTkhdW0NAQEhdKFtDSDJdW0NIMl1bQ0gyXVtDSDJdW05IMytdKUMoPU8pW05IXVtDQEBIXShbQ0gyXVtDSF0oW0NIM10pW0NIM10pQyg9TylbTkhdW0NAQEhdKFtDSDJdW0NIMl1bQ0gyXVtOSF0vQyhbTkgyXSk9TlxbSF0pQyg9TylbTkhdW0NAQEhdKFtDSDJdYzFbY0hdW2NIXVtjSF1bY0hdW2NIXTEpQyg9TylbTkhdW0NAQEhdKFtDSDJdQyg9TylbT0hdKUMoPU8pW05IXVtDQEhdKEMoPU8pW09IXSlbQ0BASF0oW0NIM10pW0NIMl1bQ0gzXQ==

> <s_epik_cmdline>
J2VwaWtfYXBwJywgJy1pbWFlJywgJ2xpZ2FuZF9wcm8ubWFlJywgJy1vbWFlJywgJ2xpZ2FuZF9wcmVwLm1hZScsICctbXMnLCAnMScsICctcGgnLCAnNycsICctcGh0JywgJzAuNScsICctbnQn

> <r_epik_Ionization_Penalty>
  0.1263

> <r_epik_Ionization_Penalty_Charging>
  0.1263

> <r_epik_Ionization_Penalty_Neutral>
  0.0000

> <r_epik_State_Penalty>
  0.1100

> <r_epik_Charging_Adjusted_Penalty>
0.236252411718639

> <i_epik_Tot_Q>
2

> <i_epik_Tot_abs_Q>
6

> <s_epik_Chemistry_Notes>
This compound has an imine and may undergo hydrolysis.

$$$$
