3n6k_ligand
                    3D
 Schrodinger Suite 2020-3.
 29 31  0  0  1  0            999 V2000
    7.4620   74.2460   26.9990 O   0  5  0  0  0  0
    6.1290   74.0720   26.9450 C   0  0  0  0  0  0
    5.5450   74.1650   25.8800 O   0  0  0  0  0  0
    5.3830   73.7670   28.2290 C   0  0  0  0  0  0
    3.9150   73.9320   28.0460 N   0  0  0  0  0  0
    3.0470   72.8560   27.8750 C   0  0  0  0  0  0
    1.7740   73.3090   27.7790 C   0  0  0  0  0  0
    1.8080   74.7090   27.8550 C   0  0  0  0  0  0
    0.7320   75.6480   27.7860 C   0  0  0  0  0  0
    0.9780   76.9870   27.8670 C   0  0  0  0  0  0
    2.3140   77.4810   28.0130 C   0  0  0  0  0  0
    2.5360   78.8790   28.0950 C   0  0  0  0  0  0
    3.8210   79.3670   28.2330 C   0  0  0  0  0  0
    4.9410   78.5080   28.3010 C   0  0  0  0  0  0
    4.7570   77.1310   28.2270 C   0  0  0  0  0  0
    3.4480   76.5530   28.0880 C   0  0  0  0  0  0
    3.1720   75.1190   28.0090 C   0  0  0  0  0  0
    3.3540   71.4200   27.7880 C   0  0  0  0  0  0
    3.0110   70.7650   26.6520 O   0  5  0  0  0  0
    3.9000   70.8370   28.7110 O   0  0  0  0  0  0
    5.5858   72.7296   28.5333 H   0  0  0  0  0  0
    5.7189   74.4535   29.0202 H   0  0  0  0  0  0
    0.8813   72.6943   27.6632 H   0  0  0  0  0  0
   -0.2913   75.2915   27.6679 H   0  0  0  0  0  0
    0.1466   77.6904   27.8200 H   0  0  0  0  0  0
    1.6930   79.5685   28.0492 H   0  0  0  0  0  0
    3.9753   80.4445   28.2910 H   0  0  0  0  0  0
    5.9434   78.9219   28.4108 H   0  0  0  0  0  0
    5.6260   76.4747   28.2756 H   0  0  0  0  0  0
  1  2  1  0  0  0
  2  3  2  0  0  0
  2  4  1  0  0  0
  4  5  1  0  0  0
  4 21  1  0  0  0
  4 22  1  0  0  0
  5  6  1  0  0  0
  5 17  1  0  0  0
  6  7  2  0  0  0
  6 18  1  0  0  0
  7  8  1  0  0  0
  7 23  1  0  0  0
  8  9  2  0  0  0
  8 17  1  0  0  0
  9 10  1  0  0  0
  9 24  1  0  0  0
 10 11  2  0  0  0
 10 25  1  0  0  0
 11 12  1  0  0  0
 11 16  1  0  0  0
 12 13  2  0  0  0
 12 26  1  0  0  0
 13 14  1  0  0  0
 13 27  1  0  0  0
 14 15  2  0  0  0
 14 28  1  0  0  0
 15 16  1  0  0  0
 15 29  1  0  0  0
 16 17  2  0  0  0
 18 19  1  0  0  0
 18 20  2  0  0  0
M  CHG  2   1  -1  19  -1
M  END
> <s_m_source_file>
../3n6k_ligand.sdf

> <i_m_source_file_index>
1

> <s_epik_input>
W09IXUMoPU8pW0NIMl1uKGMoW2NIXTEpQyg9TylbT0hdKWMoYzEyKWMzYyhbY0hdW2NIXTIpW2NIXVtjSF1bY0hdW2NIXTM=

> <s_epik_cmdline>
J2VwaWtfYXBwJywgJy1pbWFlJywgJ2xpZ2FuZF9wcm8ubWFlJywgJy1vbWFlJywgJ2xpZ2FuZF9wcmVwLm1hZScsICctbXMnLCAnMScsICctcGgnLCAnNycsICctcGh0JywgJzAuNScsICctbnQn

> <r_epik_Ionization_Penalty>
  0.0103

> <r_epik_Ionization_Penalty_Charging>
  0.0103

> <r_epik_Ionization_Penalty_Neutral>
  0.0000

> <r_epik_State_Penalty>
  0.0078

> <r_epik_Charging_Adjusted_Penalty>
0.0180375628396094

> <i_epik_Tot_Q>
-2

> <i_epik_Tot_abs_Q>
2

$$$$
