3n75_ligand
                    3D
 Schrodinger Suite 2020-3.
 48 50  0  0  1  0            999 V2000
   54.0650   18.9350  112.8620 P   0  0  0  0  0  0
   53.1350   18.7240  111.7040 O   0  0  0  0  0  0
   53.4300   18.7050  114.2030 O   0  5  0  0  0  0
   55.4570   18.3350  112.7450 O   0  0  0  0  0  0
   54.3750   20.5170  112.7530 O   0  0  0  0  0  0
   53.2950   21.7130  112.5700 P   0  0  1  0  0  0
   51.9700   21.3780  113.2060 O   0  5  0  0  0  0
   54.0110   22.9860  112.9280 O   0  0  0  0  0  0
   53.0550   21.7660  110.9980 O   0  0  0  0  0  0
   54.0920   22.1840  110.1080 C   0  0  0  0  0  0
   53.4810   22.0570  108.7270 C   0  0  1  0  0  0
   52.5150   23.0930  108.5400 O   0  0  0  0  0  0
   54.4850   22.1710  107.6020 C   0  0  1  0  0  0
   54.8260   20.8520  107.1650 O   0  0  0  0  0  0
   53.7100   22.8700  106.5100 C   0  0  1  0  0  0
   53.0230   21.8550  105.7470 O   0  0  0  0  0  0
   52.6010   23.6310  107.2240 C   0  0  2  0  0  0
   52.7070   25.1070  107.3510 N   0  0  0  0  0  0
   51.7040   25.9320  107.0070 C   0  0  0  0  0  0
   52.0590   27.2040  107.2570 N   0  0  0  0  0  0
   53.2920   27.1740  107.7770 C   0  0  0  0  0  0
   54.1410   28.1670  108.2230 C   0  0  0  0  0  0
   53.7890   29.3610  108.1810 O   0  0  0  0  0  0
   55.3490   27.8400  108.7160 N   0  0  0  0  0  0
   55.7320   26.5460  108.7790 C   0  0  0  0  0  0
   56.9560   26.2410  109.2780 N   0  0  0  0  0  0
   54.9210   25.5530  108.3560 N   0  0  0  0  0  0
   53.6990   25.8470  107.8480 C   0  0  0  0  0  0
   56.3290   20.5250  106.6680 P   0  0  1  0  0  0
   57.0000   21.8200  106.2610 O   0  0  0  0  0  0
   56.9920   19.7010  107.7540 O   0  5  0  0  0  0
   56.1670   19.5570  105.3750 O   0  0  0  0  0  0
   54.8080   19.0770  104.6380 P   0  0  0  0  0  0
   54.2020   20.3430  104.0900 O   0  0  0  0  0  0
   53.9770   18.3480  105.6720 O   0  5  0  0  0  0
   55.3530   18.1450  103.5810 O   0  0  0  0  0  0
   55.5906   17.2438  112.7837 H   0  0  0  0  0  0
   54.3757   23.2218  110.3372 H   0  0  0  0  0  0
   54.9671   21.5290  110.2312 H   0  0  0  0  0  0
   52.9832   21.0775  108.6741 H   0  0  0  0  0  0
   55.4354   22.6561  107.8690 H   0  0  0  0  0  0
   54.3543   23.4714  105.8518 H   0  0  0  0  0  0
   53.5967   21.1511  105.1261 H   0  0  0  0  0  0
   51.6848   23.4874  106.6324 H   0  0  0  0  0  0
   50.7478   25.6176  106.5888 H   0  0  0  0  0  0
   57.6239   27.0431  109.6252 H   0  0  0  0  0  0
   55.9758   18.5420  102.7659 H   0  0  0  0  0  0
   57.2806   25.1916  109.3355 H   0  0  0  0  0  0
  1  2  2  0  0  0
  1  3  1  0  0  0
  1  4  1  0  0  0
  1  5  1  0  0  0
  4 37  1  0  0  0
  5  6  1  0  0  0
  6  7  1  0  0  0
  6  8  2  0  0  0
  6  9  1  0  0  0
  9 10  1  0  0  0
 10 11  1  0  0  0
 10 38  1  0  0  0
 10 39  1  0  0  0
 11 12  1  0  0  0
 11 13  1  0  0  0
 11 40  1  0  0  0
 12 17  1  0  0  0
 13 14  1  0  0  0
 13 15  1  0  0  0
 13 41  1  0  0  0
 14 29  1  0  0  0
 15 16  1  0  0  0
 15 17  1  0  0  0
 15 42  1  0  0  0
 16 43  1  0  0  0
 17 18  1  0  0  0
 17 44  1  0  0  0
 18 19  1  0  0  0
 18 28  1  0  0  0
 19 20  2  0  0  0
 19 45  1  0  0  0
 20 21  1  0  0  0
 21 22  1  0  0  0
 21 28  2  0  0  0
 22 23  2  0  0  0
 22 24  1  0  0  0
 24 25  1  0  0  0
 25 26  1  0  0  0
 25 27  2  0  0  0
 26 46  1  0  0  0
 26 48  1  0  0  0
 27 28  1  0  0  0
 29 30  2  0  0  0
 29 31  1  0  0  0
 29 32  1  0  0  0
 32 33  1  0  0  0
 33 34  2  0  0  0
 33 35  1  0  0  0
 33 36  1  0  0  0
 36 47  1  0  0  0
M  CHG  4   3  -1   7  -1  31  -1  35  -1
M  END
> <s_m_source_file>
../3n75_ligand.sdf

> <i_m_source_file_index>
1

> <s_epik_input>
Tz1QKFtPSF0pKFtPSF0pT1tQQF0oPU8pKFtPSF0pT1tDSDJdW0NASF0xT1tDQEBIXShuKFtjSF1uMiljKGMyMylbbkhdYyg9TlxbSF0pXFtuSF1jMz1PKVtDQEhdKFtPSF0pW0NAQEhdMU9bUEBAXSg9TykoW09IXSlPUCg9TykoW09IXSlbT0hd

> <s_epik_cmdline>
J2VwaWtfYXBwJywgJy1pbWFlJywgJ2xpZ2FuZF9wcm8ubWFlJywgJy1vbWFlJywgJ2xpZ2FuZF9wcmVwLm1hZScsICctbXMnLCAnMScsICctcGgnLCAnNycsICctcGh0JywgJzAuNScsICctbnQn

> <r_lp_tautomer_probability>
1

> <r_epik_Ionization_Penalty>
  5.5739

> <r_epik_Ionization_Penalty_Charging>
  0.0005

> <r_epik_Ionization_Penalty_Neutral>
  5.5734

> <r_epik_State_Penalty>
 -0.0000

> <r_epik_Charging_Adjusted_Penalty>
0.00045210955331688

> <i_epik_Tot_Q>
-4

> <i_epik_Tot_abs_Q>
4

> <s_epik_Chemistry_Notes>
This compound has an imine and may undergo hydrolysis. This compound contains an acetal/aminal-like group ( X-CH(R)-Y where X, Y are N, S, or O) that may be acid/base labile, releasing an aldehyde.

$$$$
