3n7o_ligand
                    3D
 Schrodinger Suite 2020-3.
 42 44  0  0  1  0            999 V2000
   -9.1710  -45.2550  -55.3240 C   0  0  0  0  0  0
   -5.4160  -45.1750  -54.7110 C   0  0  0  0  0  0
  -14.9290  -46.8920  -57.3610 C   0  0  0  0  0  0
  -16.3170  -47.6280  -55.4240 C   0  0  0  0  0  0
  -17.3220  -47.6490  -53.2360 C   0  0  0  0  0  0
  -15.6110  -46.4310  -55.1790 C   0  0  0  0  0  0
  -15.3660  -43.4430  -58.5240 C   0  0  0  0  0  0
  -14.6630  -43.2090  -56.9060 P   0  0  2  0  0  0
  -15.6900  -42.7460  -55.9340 O   0  0  0  0  0  0
  -13.5540  -42.1140  -57.1180 O   0  5  0  0  0  0
  -13.9020  -44.7680  -56.3070 C   0  0  2  0  0  0
  -12.4850  -44.9430  -56.9670 C   0  0  0  0  0  0
  -12.3190  -45.2640  -58.1180 O   0  0  0  0  0  0
  -11.4550  -45.0920  -55.9930 N   0  0  0  0  0  0
  -10.0790  -45.2930  -56.3110 C   0  0  0  0  0  0
   -7.7090  -45.2020  -55.5410 C   0  0  0  0  0  0
   -6.7840  -45.2150  -54.4840 C   0  0  0  0  0  0
   -4.9690  -45.1470  -56.0280 C   0  0  0  0  0  0
   -3.6660  -45.1120  -56.2790 F   0  0  0  0  0  0
   -5.8670  -45.1290  -57.0910 C   0  0  0  0  0  0
   -5.3870  -45.0840  -58.3430 F   0  0  0  0  0  0
   -7.2370  -45.1660  -56.8600 C   0  0  0  0  0  0
  -14.7910  -46.0040  -56.3470 C   0  0  0  0  0  0
  -15.9770  -48.2050  -57.0100 S   0  0  0  0  0  0
  -17.1500  -48.2370  -54.4800 C   0  0  0  0  0  0
  -16.6180  -46.4620  -53.0080 C   0  0  0  0  0  0
  -16.7660  -45.7410  -51.4420 Cl  0  0  0  0  0  0
  -15.7980  -45.8520  -53.9260 C   0  0  0  0  0  0
   -9.4992  -45.2624  -54.2741 H   0  0  0  0  0  0
   -4.7106  -45.1658  -53.8801 H   0  0  0  0  0  0
  -14.4182  -46.7819  -58.3176 H   0  0  0  0  0  0
  -17.9702  -48.0877  -52.4774 H   0  0  0  0  0  0
  -15.8172  -42.5004  -58.8675 H   0  0  0  0  0  0
  -16.1389  -44.2243  -58.4784 H   0  0  0  0  0  0
  -14.5764  -43.7489  -59.2261 H   0  0  0  0  0  0
  -13.7090  -44.8906  -55.2310 H   0  0  0  0  0  0
  -11.7016  -45.0548  -54.9216 H   0  0  0  0  0  0
   -9.7580  -45.4770  -57.3469 H   0  0  0  0  0  0
   -7.1507  -45.2576  -53.4584 H   0  0  0  0  0  0
   -7.9368  -45.1670  -57.6957 H   0  0  0  0  0  0
  -17.6614  -49.1690  -54.7209 H   0  0  0  0  0  0
  -15.2954  -44.9180  -53.6747 H   0  0  0  0  0  0
  1 15  2  0  0  0
  1 16  1  0  0  0
  1 29  1  0  0  0
  2 17  2  0  0  0
  2 18  1  0  0  0
  2 30  1  0  0  0
  3 23  2  0  0  0
  3 24  1  0  0  0
  3 31  1  0  0  0
  4  6  2  0  0  0
  4 24  1  0  0  0
  4 25  1  0  0  0
  5 25  2  0  0  0
  5 26  1  0  0  0
  5 32  1  0  0  0
  6 23  1  0  0  0
  6 28  1  0  0  0
  7  8  1  0  0  0
  7 33  1  0  0  0
  7 34  1  0  0  0
  7 35  1  0  0  0
  8  9  2  0  0  0
  8 10  1  0  0  0
  8 11  1  0  0  0
 11 12  1  0  0  0
 11 23  1  0  0  0
 11 36  1  0  0  0
 12 13  2  0  0  0
 12 14  1  0  0  0
 14 15  1  0  0  0
 14 37  1  0  0  0
 15 38  1  0  0  0
 16 17  1  0  0  0
 16 22  2  0  0  0
 17 39  1  0  0  0
 18 19  1  0  0  0
 18 20  2  0  0  0
 20 21  1  0  0  0
 20 22  1  0  0  0
 22 40  1  0  0  0
 25 41  1  0  0  0
 26 27  1  0  0  0
 26 28  2  0  0  0
 28 42  1  0  0  0
M  CHG  1  10  -1
M  END
> <s_m_source_file>
../3n7o_ligand.sdf

> <i_m_source_file_index>
1

> <s_epik_input>
RmMoW2NIXTEpYyhGKVtjSF1bY0hdYzEvW0NIXT1bQ0hdL1tOSF1DKD1PKVtDQEBIXShbUEBdKD1PKShbQ0gzXSlbT0hdKWMoW2NIXXMyKWMoYzIzKVtjSF1jKENsKVtjSF1bY0hdMw==

> <s_epik_cmdline>
J2VwaWtfYXBwJywgJy1pbWFlJywgJ2xpZ2FuZF9wcm8ubWFlJywgJy1vbWFlJywgJ2xpZ2FuZF9wcmVwLm1hZScsICctbXMnLCAnMScsICctcGgnLCAnNycsICctcGh0JywgJzAuNScsICctbnQn

> <r_lp_tautomer_probability>
1

> <r_epik_Ionization_Penalty>
  0.0000

> <r_epik_Ionization_Penalty_Charging>
  0.0000

> <r_epik_Ionization_Penalty_Neutral>
  0.0000

> <r_epik_State_Penalty>
 -0.0000

> <r_epik_Charging_Adjusted_Penalty>
2.96757870324306e-05

> <i_epik_Tot_Q>
-1

> <i_epik_Tot_abs_Q>
1

$$$$
