3n8n_ligand
                    3D
 Schrodinger Suite 2020-3.
 39 39  0  0  1  0            999 V2000
   -1.4720   33.7410   81.5030 C   0  0  0  0  0  0
   -1.3220   34.8570   80.4840 C   0  0  1  0  0  0
   -1.3670   34.0210   82.7230 O   0  0  0  0  0  0
   -0.9230   34.2300   79.1320 C   0  0  0  0  0  0
   -1.6910   32.5740   81.0880 O   0  5  0  0  0  0
   -1.2010   35.1400   77.9280 C   0  0  1  0  0  0
   -0.9830   34.4380   76.6930 O   0  0  0  0  0  0
   -2.6170   35.7420   77.9260 C   0  0  2  0  0  0
   -2.5530   37.1230   77.5500 O   0  0  0  0  0  0
   -3.3400   35.6550   79.2560 C   0  0  3  0  0  0
   -2.6140   35.6520   80.3940 C   0  0  0  0  0  0
   -4.6920   35.5800   79.2850 C   0  0  0  0  0  0
   -5.3310   35.5000   80.4710 N   0  0  0  0  0  0
   -6.6520   36.0300   80.8270 C   0  0  0  0  0  0
   -7.6630   34.8770   80.8210 C   0  0  0  0  0  0
   -7.1360   37.1330   79.8850 C   0  0  0  0  0  0
   -6.5480   36.6070   82.2350 C   0  0  0  0  0  0
   -5.3170   35.5580   78.2230 O   0  0  0  0  0  0
   -0.3080   35.7780   80.9040 O   0  0  0  0  0  0
    0.1544   34.0080   79.1345 H   0  0  0  0  0  0
   -1.4888   33.2993   78.9782 H   0  0  0  0  0  0
   -0.4605   35.9530   77.9546 H   0  0  0  0  0  0
   -0.0214   33.9370   76.5075 H   0  0  0  0  0  0
   -3.2109   35.1991   77.1760 H   0  0  0  0  0  0
   -2.0649   37.4146   76.6083 H   0  0  0  0  0  0
   -3.2817   34.5573   79.2159 H   0  0  0  0  0  0
   -3.3219   35.2883   81.1533 H   0  0  0  0  0  0
   -2.4023   36.7169   80.5703 H   0  0  0  0  0  0
   -4.7352   34.9589   81.2208 H   0  0  0  0  0  0
   -7.7382   34.4606   79.8056 H   0  0  0  0  0  0
   -8.6477   35.2512   81.1378 H   0  0  0  0  0  0
   -7.3282   34.0922   81.5153 H   0  0  0  0  0  0
   -7.2168   36.7333   78.8634 H   0  0  0  0  0  0
   -6.4183   37.9665   79.8970 H   0  0  0  0  0  0
   -8.1211   37.4926   80.2170 H   0  0  0  0  0  0
   -6.2005   35.8255   82.9268 H   0  0  0  0  0  0
   -7.5357   36.9688   82.5568 H   0  0  0  0  0  0
   -5.8328   37.4428   82.2368 H   0  0  0  0  0  0
    0.7269   35.4315   81.0417 H   0  0  0  0  0  0
  1  2  1  0  0  0
  1  3  2  0  0  0
  1  5  1  0  0  0
  2  4  1  0  0  0
  2 11  1  0  0  0
  2 19  1  0  0  0
  4  6  1  0  0  0
  4 20  1  0  0  0
  4 21  1  0  0  0
  6  7  1  0  0  0
  6  8  1  0  0  0
  6 22  1  0  0  0
  7 23  1  0  0  0
  8  9  1  0  0  0
  8 10  1  0  0  0
  8 24  1  0  0  0
  9 25  1  0  0  0
 10 11  1  0  0  0
 10 12  1  0  0  0
 10 26  1  0  0  0
 11 27  1  0  0  0
 11 28  1  0  0  0
 12 13  1  0  0  0
 12 18  2  0  0  0
 13 14  1  0  0  0
 13 29  1  0  0  0
 14 15  1  0  0  0
 14 16  1  0  0  0
 14 17  1  0  0  0
 15 30  1  0  0  0
 15 31  1  0  0  0
 15 32  1  0  0  0
 16 33  1  0  0  0
 16 34  1  0  0  0
 16 35  1  0  0  0
 17 36  1  0  0  0
 17 37  1  0  0  0
 17 38  1  0  0  0
 19 39  1  0  0  0
M  CHG  1   5  -1
M  END
> <s_m_source_file>
../3n8n_ligand.sdf

> <i_m_source_file_index>
1

> <s_epik_input>
Tz1DKFtPSF0pW0NAQF0xKFtPSF0pW0NIMl1bQ0BASF0oW09IXSlbQ0BIXShbT0hdKVtDSF0oW0NIMl0xKUMoPU8pW05IXUMoW0NIM10pKFtDSDNdKVtDSDNd

> <s_epik_cmdline>
J2VwaWtfYXBwJywgJy1pbWFlJywgJ2xpZ2FuZF9wcm8ubWFlJywgJy1vbWFlJywgJ2xpZ2FuZF9wcmVwLm1hZScsICctbXMnLCAnMScsICctcGgnLCAnNycsICctcGh0JywgJzAuNScsICctbnQn

> <r_lp_tautomer_probability>
1

> <r_epik_Ionization_Penalty>
  0.0003

> <r_epik_Ionization_Penalty_Charging>
  0.0003

> <r_epik_Ionization_Penalty_Neutral>
  0.0000

> <r_epik_State_Penalty>
 -0.0000

> <r_epik_Charging_Adjusted_Penalty>
0.000284204670522848

> <i_epik_Tot_Q>
-1

> <i_epik_Tot_abs_Q>
1

$$$$
