3n9s_ligand
                    3D
 Schrodinger Suite 2020-3.
 30 29  0  0  1  0            999 V2000
   -7.6710   24.0270  -22.0060 O   0  0  0  0  0  0
   -7.1370   24.6770  -23.1250 N   0  0  0  0  0  0
   -7.9720   24.7640  -24.2950 C   0  0  0  0  0  0
   -9.0510   25.8260  -24.1720 C   0  0  0  0  0  0
  -10.4790   25.3260  -24.1790 C   0  0  0  0  0  0
  -11.5430   26.3810  -24.4240 C   0  0  0  0  0  0
  -12.3390   26.1670  -25.5430 O   0  0  0  0  0  0
  -13.9470   26.4420  -25.4200 P   0  0  0  0  0  0
  -14.7120   25.4520  -26.4710 O   0  5  0  0  0  0
  -14.4280   26.1190  -23.8890 O   0  5  0  0  0  0
  -14.2180   27.8400  -25.7220 O   0  0  0  0  0  0
   -6.0840   25.6510  -22.9610 C   0  0  0  0  0  0
   -5.4490   25.6780  -21.9480 O   0  0  0  0  0  0
   -5.6390   26.4360  -24.1980 C   0  0  0  0  0  0
   -4.7740   27.5020  -23.9520 O   0  0  0  0  0  0
   -4.5660   28.7170  -25.0510 P   0  0  0  0  0  0
   -3.1920   29.4910  -24.6150 O   0  5  0  0  0  0
   -5.8480   29.7340  -25.0370 O   0  5  0  0  0  0
   -4.3660   28.1500  -26.3760 O   0  0  0  0  0  0
   -8.4733   23.2850  -22.1318 H   0  0  0  0  0  0
   -7.3532   25.0142  -25.1693 H   0  0  0  0  0  0
   -8.4700   23.7976  -24.4628 H   0  0  0  0  0  0
   -8.9232   26.3705  -23.2248 H   0  0  0  0  0  0
   -8.9703   26.5299  -25.0134 H   0  0  0  0  0  0
  -10.6005   24.5745  -24.9730 H   0  0  0  0  0  0
  -10.7131   24.8714  -23.2051 H   0  0  0  0  0  0
  -12.2218   26.4248  -23.5595 H   0  0  0  0  0  0
  -11.0627   27.3608  -24.5631 H   0  0  0  0  0  0
   -5.1128   25.7622  -24.8901 H   0  0  0  0  0  0
   -6.5210   26.8609  -24.6995 H   0  0  0  0  0  0
  1  2  1  0  0  0
  1 20  1  0  0  0
  2  3  1  0  0  0
  2 12  1  0  0  0
  3  4  1  0  0  0
  3 21  1  0  0  0
  3 22  1  0  0  0
  4  5  1  0  0  0
  4 23  1  0  0  0
  4 24  1  0  0  0
  5  6  1  0  0  0
  5 25  1  0  0  0
  5 26  1  0  0  0
  6  7  1  0  0  0
  6 27  1  0  0  0
  6 28  1  0  0  0
  7  8  1  0  0  0
  8  9  1  0  0  0
  8 10  1  0  0  0
  8 11  2  0  0  0
 12 13  2  0  0  0
 12 14  1  0  0  0
 14 15  1  0  0  0
 14 29  1  0  0  0
 14 30  1  0  0  0
 15 16  1  0  0  0
 16 17  1  0  0  0
 16 18  1  0  0  0
 16 19  2  0  0  0
M  CHG  4   9  -1  10  -1  17  -1  18  -1
M  END
> <s_m_source_file>
../3n9s_ligand.sdf

> <i_m_source_file_index>
1

> <s_epik_input>
W09IXVAoPU8pKFtPSF0pT1tDSDJdQyg9TylOKFtPSF0pW0NIMl1bQ0gyXVtDSDJdW0NIMl1PUCg9TykoW09IXSlbT0hd

> <s_epik_cmdline>
J2VwaWtfYXBwJywgJy1pbWFlJywgJ2xpZ2FuZF9wcm8ubWFlJywgJy1vbWFlJywgJ2xpZ2FuZF9wcmVwLm1hZScsICctbXMnLCAnMScsICctcGgnLCAnNycsICctcGh0JywgJzAuNScsICctbnQn

> <r_lp_tautomer_probability>
1

> <r_epik_Ionization_Penalty>
  0.2525

> <r_epik_Ionization_Penalty_Charging>
  0.2439

> <r_epik_Ionization_Penalty_Neutral>
  0.0085

> <r_epik_State_Penalty>
 -0.0000

> <r_epik_Charging_Adjusted_Penalty>
0.24394117524324

> <i_epik_Tot_Q>
-4

> <i_epik_Tot_abs_Q>
4

> <s_epik_Chemistry_Notes>
This compound has a N-S or N-O group and may undergo hydrolysis at high or low pH.

$$$$
