3nal_ligand
                    3D
 Schrodinger Suite 2020-3.
 96 98  0  0  1  0            999 V2000
   -4.2690    9.1920   84.8900 C   0  0  1  0  0  0
   -4.0240    8.9180   83.4040 C   0  0  0  0  0  0
   -2.5670    9.2780   83.0960 C   0  0  1  0  0  0
   -2.4670   10.4410   82.2580 O   0  0  0  0  0  0
   -1.9510    9.6050   84.4540 C   0  0  0  0  0  0
   -2.0830    8.8640   80.7240 O   0  0  0  0  0  0
   -2.9180    9.6230   85.4480 C   0  0  0  0  0  0
   -1.5650    9.1120   87.4160 O   0  0  0  0  0  0
   -2.5700    9.9890   86.8870 C   0  0  2  0  0  0
   -4.1640    8.3670   87.7400 O   0  0  0  0  0  0
   -3.7420    9.7290   87.8250 C   0  0  2  0  0  0
   -4.5210   12.0540   87.5350 O   0  0  0  0  0  0
   -4.9230   10.6800   87.6300 C   0  0  1  0  0  0
   -5.4160   11.9770   89.5700 O   0  0  0  0  0  0
   -5.8950   10.2770   86.5170 C   0  0  0  0  0  0
   -6.3700    9.8700   84.2030 O   0  0  0  0  0  0
   -5.3310   10.2750   85.0930 C   0  0  2  0  0  0
   -7.4070   11.7730   84.7990 O   0  0  0  0  0  0
   -2.9910    9.9320   89.1370 C   0  0  2  0  0  0
   -2.8010   11.3300   89.3670 O   0  0  0  0  0  0
   -1.6580    9.2850   88.7630 C   0  0  0  0  0  0
   -0.8010    8.9140   89.5650 O   0  0  0  0  0  0
   -2.2410   10.0580   80.9720 C   0  0  0  0  0  0
   -2.1060   11.0880   79.8460 C   0  0  0  0  0  0
   -2.1730   10.6140   78.3930 C   0  0  0  0  0  0
   -1.8560   12.4270   80.1110 C   0  0  0  0  0  0
   -1.6940   12.9230   81.5500 C   0  0  0  0  0  0
   -0.4680    9.8930   84.6990 C   0  0  0  0  0  0
   -4.8570   12.6570   88.7030 C   0  0  0  0  0  0
   -4.5560   14.1360   88.9510 C   0  0  0  0  0  0
   -4.8080   11.6580   84.7020 C   0  0  0  0  0  0
   -7.4270   10.7330   84.1550 C   0  0  0  0  0  0
   -8.6490   10.3320   83.3330 C   0  0  0  0  0  0
   -3.6600    9.2270   90.3190 C   0  0  0  0  0  0
   -3.0490   14.3980   88.9970 C   0  0  0  0  0  0
   -2.7090   15.8610   89.2960 C   0  0  0  0  0  0
   -1.1910   16.0530   89.2330 C   0  0  0  0  0  0
   -0.7750   17.5010   89.4970 C   0  0  0  0  0  0
   -1.2270   17.9350   90.8930 C   0  0  0  0  0  0
   -0.8880   19.3960   91.1970 C   0  0  0  0  0  0
    0.6170   19.6750   91.2450 C   0  0  0  0  0  0
    0.8710   21.0370   91.8970 C   0  0  0  0  0  0
    2.3600   21.3120   92.1150 C   0  0  0  0  0  0
    2.5710   22.6210   92.8810 C   0  0  0  0  0  0
   -4.6523    8.3019   85.4104 H   0  0  0  0  0  0
   -4.2075    7.8543   83.1922 H   0  0  0  0  0  0
   -4.7056    9.5350   82.8001 H   0  0  0  0  0  0
   -2.0527    8.4937   82.5213 H   0  0  0  0  0  0
   -2.2135   11.0294   86.8676 H   0  0  0  0  0  0
   -4.7260    8.0192   86.8607 H   0  0  0  0  0  0
   -5.4911   10.6614   88.5718 H   0  0  0  0  0  0
   -6.2588    9.2552   86.7002 H   0  0  0  0  0  0
   -6.7469   10.9728   86.5044 H   0  0  0  0  0  0
   -2.3295   11.9554   88.5946 H   0  0  0  0  0  0
   -2.3777    9.5335   78.3689 H   0  0  0  0  0  0
   -1.2124   10.8164   77.8967 H   0  0  0  0  0  0
   -2.9770   11.1513   77.8687 H   0  0  0  0  0  0
   -1.7721   13.1454   79.2822 H   0  0  0  0  0  0
   -1.5031   14.0063   81.5451 H   0  0  0  0  0  0
   -0.8479   12.4037   82.0238 H   0  0  0  0  0  0
   -2.6146   12.7154   82.1152 H   0  0  0  0  0  0
    0.0824    9.8144   83.7499 H   0  0  0  0  0  0
   -0.0665    9.1630   85.4173 H   0  0  0  0  0  0
   -0.3541   10.9086   85.1059 H   0  0  0  0  0  0
   -4.9910   14.7396   88.1408 H   0  0  0  0  0  0
   -4.9935   14.4431   89.9124 H   0  0  0  0  0  0
   -4.0085   11.9572   85.3957 H   0  0  0  0  0  0
   -5.6292   12.3882   84.7521 H   0  0  0  0  0  0
   -4.4102   11.6232   83.6770 H   0  0  0  0  0  0
   -8.4570    9.3694   82.8364 H   0  0  0  0  0  0
   -8.8493   11.1026   82.5741 H   0  0  0  0  0  0
   -9.5212   10.2349   83.9962 H   0  0  0  0  0  0
   -4.6127    9.7253   90.5517 H   0  0  0  0  0  0
   -2.9980    9.2737   91.1962 H   0  0  0  0  0  0
   -3.8502    8.1753   90.0587 H   0  0  0  0  0  0
   -2.5932   13.7798   89.7845 H   0  0  0  0  0  0
   -2.6024   14.1415   88.0250 H   0  0  0  0  0  0
   -3.1927   16.5095   88.5507 H   0  0  0  0  0  0
   -3.0713   16.1237   90.3009 H   0  0  0  0  0  0
   -0.7093   15.4177   89.9909 H   0  0  0  0  0  0
   -0.8270   15.7718   88.2338 H   0  0  0  0  0  0
    0.3197   17.5859   89.4306 H   0  0  0  0  0  0
   -1.2399   18.1585   88.7476 H   0  0  0  0  0  0
   -2.3174   17.8178   90.9783 H   0  0  0  0  0  0
   -0.7308   17.3099   91.6500 H   0  0  0  0  0  0
   -1.3186   20.0421   90.4178 H   0  0  0  0  0  0
   -1.3063   19.6735   92.1758 H   0  0  0  0  0  0
    1.1166   18.8912   91.8332 H   0  0  0  0  0  0
    1.0218   19.6800   90.2222 H   0  0  0  0  0  0
    0.4700   21.8327   91.2520 H   0  0  0  0  0  0
    0.3724   21.0732   92.8769 H   0  0  0  0  0  0
    2.8038   20.4891   92.6946 H   0  0  0  0  0  0
    2.8652   21.3885   91.1409 H   0  0  0  0  0  0
    3.6481   22.7931   93.0232 H   0  0  0  0  0  0
    2.0775   22.5554   93.8619 H   0  0  0  0  0  0
    2.1389   23.4548   92.3082 H   0  0  0  0  0  0
  1  2  1  0  0  0
  1  7  1  0  0  0
  1 17  1  0  0  0
  1 45  1  0  0  0
  2  3  1  0  0  0
  2 46  1  0  0  0
  2 47  1  0  0  0
  3  4  1  0  0  0
  3  5  1  0  0  0
  3 48  1  0  0  0
  4 23  1  0  0  0
  5  7  2  0  0  0
  5 28  1  0  0  0
  6 23  2  0  0  0
  7  9  1  0  0  0
  8  9  1  0  0  0
  8 21  1  0  0  0
  9 11  1  0  0  0
  9 49  1  0  0  0
 10 11  1  0  0  0
 10 50  1  0  0  0
 11 13  1  0  0  0
 11 19  1  0  0  0
 12 13  1  0  0  0
 12 29  1  0  0  0
 13 15  1  0  0  0
 13 51  1  0  0  0
 14 29  2  0  0  0
 15 17  1  0  0  0
 15 52  1  0  0  0
 15 53  1  0  0  0
 16 17  1  0  0  0
 16 32  1  0  0  0
 17 31  1  0  0  0
 18 32  2  0  0  0
 19 20  1  0  0  0
 19 21  1  0  0  0
 19 34  1  0  0  0
 20 54  1  0  0  0
 21 22  2  0  0  0
 23 24  1  0  0  0
 24 25  1  0  0  0
 24 26  2  0  0  0
 25 55  1  0  0  0
 25 56  1  0  0  0
 25 57  1  0  0  0
 26 27  1  0  0  0
 26 58  1  0  0  0
 27 59  1  0  0  0
 27 60  1  0  0  0
 27 61  1  0  0  0
 28 62  1  0  0  0
 28 63  1  0  0  0
 28 64  1  0  0  0
 29 30  1  0  0  0
 30 35  1  0  0  0
 30 65  1  0  0  0
 30 66  1  0  0  0
 31 67  1  0  0  0
 31 68  1  0  0  0
 31 69  1  0  0  0
 32 33  1  0  0  0
 33 70  1  0  0  0
 33 71  1  0  0  0
 33 72  1  0  0  0
 34 73  1  0  0  0
 34 74  1  0  0  0
 34 75  1  0  0  0
 35 36  1  0  0  0
 35 76  1  0  0  0
 35 77  1  0  0  0
 36 37  1  0  0  0
 36 78  1  0  0  0
 36 79  1  0  0  0
 37 38  1  0  0  0
 37 80  1  0  0  0
 37 81  1  0  0  0
 38 39  1  0  0  0
 38 82  1  0  0  0
 38 83  1  0  0  0
 39 40  1  0  0  0
 39 84  1  0  0  0
 39 85  1  0  0  0
 40 41  1  0  0  0
 40 86  1  0  0  0
 40 87  1  0  0  0
 41 42  1  0  0  0
 41 88  1  0  0  0
 41 89  1  0  0  0
 42 43  1  0  0  0
 42 90  1  0  0  0
 42 91  1  0  0  0
 43 44  1  0  0  0
 43 92  1  0  0  0
 43 93  1  0  0  0
 44 94  1  0  0  0
 44 95  1  0  0  0
 44 96  1  0  0  0
M  END
> <s_m_source_file>
../3nal_ligand.sdf

> <i_m_source_file_index>
1

> <s_epik_input>
W0NIM10vW0NIXT1DKFtDSDNdKVxDKD1PKU9bQ0BASF0oQz0xW0NIM10pW0NIMl1bQ0BASF0oQzFbQ0BASF0oW0NAXTIzW09IXSlPQyg9TylbQ0BdMyhbT0hdKVtDSDNdKVtDQEBdKFtDSDNdKShPQyg9TylbQ0gzXSlbQ0gyXVtDQEBIXTJPQyg9TylbQ0gyXVtDSDJdW0NIMl1bQ0gyXVtDSDJdW0NIMl1bQ0gyXVtDSDJdW0NIMl1bQ0gyXVtDSDNd

> <s_epik_cmdline>
J2VwaWtfYXBwJywgJy1pbWFlJywgJ2xpZ2FuZF9wcm8ubWFlJywgJy1vbWFlJywgJ2xpZ2FuZF9wcmVwLm1hZScsICctbXMnLCAnMScsICctcGgnLCAnNycsICctcGh0JywgJzAuNScsICctbnQn

> <r_lp_tautomer_probability>
1

> <r_epik_Ionization_Penalty>
  0.0002

> <r_epik_Ionization_Penalty_Charging>
  0.0000

> <r_epik_Ionization_Penalty_Neutral>
  0.0002

> <r_epik_State_Penalty>
 -0.0000

> <r_epik_Charging_Adjusted_Penalty>
0

> <i_epik_Tot_Q>
0

> <i_epik_Tot_abs_Q>
0

> <s_epik_Chemistry_Notes>
This compound has an ester and may undergo hydrolysis at high or low pH.

$$$$
