3nam_ligand
                    3D
 Schrodinger Suite 2020-3.
 74 76  0  0  1  0            999 V2000
   -4.5780    9.4530   84.8220 C   0  0  1  0  0  0
   -4.1430    9.0760   83.4020 C   0  0  0  0  0  0
   -2.8500    9.8570   83.1430 C   0  0  1  0  0  0
   -3.0390   10.9830   82.2760 O   0  0  0  0  0  0
   -2.3950   10.3950   84.5020 C   0  0  1  0  0  0
   -2.0190    9.6670   80.7820 O   0  0  0  0  0  0
   -3.2040    9.5670   85.5000 C   0  0  1  0  0  0
   -2.0730    9.5990   87.6930 O   0  0  0  0  0  0
   -3.1580   10.1380   86.9180 C   0  0  2  0  0  0
   -5.0250    8.6430   87.3520 O   0  0  0  0  0  0
   -4.4210    9.8790   87.7440 C   0  0  2  0  0  0
   -4.6710   12.2830   87.2490 O   0  0  0  0  0  0
   -5.3770   11.0460   87.4570 C   0  0  1  0  0  0
   -5.0230   12.7220   89.4300 O   0  0  0  0  0  0
   -6.2700   10.7460   86.2460 C   0  0  0  0  0  0
   -6.5840   10.2470   83.9340 O   0  0  0  0  0  0
   -5.5740   10.6160   84.8820 C   0  0  2  0  0  0
   -7.6710   12.1800   84.3300 O   0  0  0  0  0  0
   -3.9200    9.7520   89.1910 C   0  0  2  0  0  0
   -4.4230   10.8050   90.0150 O   0  0  0  0  0  0
   -2.4040    9.8720   88.9870 C   0  0  0  0  0  0
   -1.6060   10.2410   89.8430 O   0  0  0  0  0  0
   -2.5220   10.7540   81.0280 C   0  0  0  0  0  0
   -2.5750   11.8260   79.9540 C   0  0  0  0  0  0
   -2.5580   11.4050   78.4970 C   0  0  0  0  0  0
   -2.6400   13.2090   80.2620 C   0  0  0  0  0  0
   -2.6640   13.7310   81.6840 C   0  0  0  0  0  0
   -0.8910   10.1780   84.6920 C   0  0  0  0  0  0
   -4.5000   13.0460   88.3650 C   0  0  0  0  0  0
   -3.6860   14.3380   88.2540 C   0  0  0  0  0  0
   -3.6740   15.1330   89.5630 C   0  0  0  0  0  0
   -2.8360   16.4080   89.4350 C   0  0  0  0  0  0
   -4.9440   11.9460   84.4530 C   0  0  0  0  0  0
   -7.6210   11.1070   83.7310 C   0  0  0  0  0  0
   -8.7370   10.7080   82.7660 C   0  0  0  0  0  0
   -4.2760    8.3980   89.8100 C   0  0  0  0  0  0
   -5.2207    8.7415   85.3612 H   0  0  0  0  0  0
   -3.9725    7.9907   83.3467 H   0  0  0  0  0  0
   -4.9314    9.3601   82.6894 H   0  0  0  0  0  0
   -2.1205    9.2298   82.6096 H   0  0  0  0  0  0
   -2.5590   11.4764   84.6188 H   0  0  0  0  0  0
   -2.7990    8.5643   85.7013 H   0  0  0  0  0  0
   -2.9819   11.2142   86.7741 H   0  0  0  0  0  0
   -5.4477    8.5332   86.3424 H   0  0  0  0  0  0
   -5.9866   11.2283   88.3543 H   0  0  0  0  0  0
   -6.7929    9.7911   86.4036 H   0  0  0  0  0  0
   -7.0081   11.5527   86.1259 H   0  0  0  0  0  0
   -4.2614   11.8541   89.7265 H   0  0  0  0  0  0
   -2.5061   10.3081   78.4329 H   0  0  0  0  0  0
   -1.6807   11.8434   77.9989 H   0  0  0  0  0  0
   -3.4749   11.7582   78.0026 H   0  0  0  0  0  0
   -2.6753   13.9519   79.4515 H   0  0  0  0  0  0
   -2.7157   14.8297   81.6704 H   0  0  0  0  0  0
   -1.7497   13.4134   82.2066 H   0  0  0  0  0  0
   -3.5440   13.3289   82.2074 H   0  0  0  0  0  0
   -0.3376   10.7858   83.9610 H   0  0  0  0  0  0
   -0.6519    9.1150   84.5408 H   0  0  0  0  0  0
   -0.6032   10.4773   85.7106 H   0  0  0  0  0  0
   -2.6452   14.0944   87.9943 H   0  0  0  0  0  0
   -4.1190   14.9781   87.4712 H   0  0  0  0  0  0
   -4.7029   15.4170   89.8289 H   0  0  0  0  0  0
   -3.2459   14.5131   90.3646 H   0  0  0  0  0  0
   -2.8492   16.9529   90.3905 H   0  0  0  0  0  0
   -3.2569   17.0455   88.6435 H   0  0  0  0  0  0
   -1.7999   16.1416   89.1791 H   0  0  0  0  0  0
   -4.1678   12.2345   85.1771 H   0  0  0  0  0  0
   -5.7200   12.7248   84.4176 H   0  0  0  0  0  0
   -4.4921   11.8331   83.4565 H   0  0  0  0  0  0
   -8.5121    9.7222   82.3328 H   0  0  0  0  0  0
   -8.8100   11.4542   81.9611 H   0  0  0  0  0  0
   -9.6921   10.6604   83.3096 H   0  0  0  0  0  0
   -5.3654    8.3328   89.9475 H   0  0  0  0  0  0
   -3.7767    8.2979   90.7850 H   0  0  0  0  0  0
   -3.9417    7.5903   89.1422 H   0  0  0  0  0  0
  1  2  1  0  0  0
  1  7  1  0  0  0
  1 17  1  0  0  0
  1 37  1  0  0  0
  2  3  1  0  0  0
  2 38  1  0  0  0
  2 39  1  0  0  0
  3  4  1  0  0  0
  3  5  1  0  0  0
  3 40  1  0  0  0
  4 23  1  0  0  0
  5  7  1  0  0  0
  5 28  1  0  0  0
  5 41  1  0  0  0
  6 23  2  0  0  0
  7  9  1  0  0  0
  7 42  1  0  0  0
  8  9  1  0  0  0
  8 21  1  0  0  0
  9 11  1  0  0  0
  9 43  1  0  0  0
 10 11  1  0  0  0
 10 44  1  0  0  0
 11 13  1  0  0  0
 11 19  1  0  0  0
 12 13  1  0  0  0
 12 29  1  0  0  0
 13 15  1  0  0  0
 13 45  1  0  0  0
 14 29  2  0  0  0
 15 17  1  0  0  0
 15 46  1  0  0  0
 15 47  1  0  0  0
 16 17  1  0  0  0
 16 34  1  0  0  0
 17 33  1  0  0  0
 18 34  2  0  0  0
 19 20  1  0  0  0
 19 21  1  0  0  0
 19 36  1  0  0  0
 20 48  1  0  0  0
 21 22  2  0  0  0
 23 24  1  0  0  0
 24 25  1  0  0  0
 24 26  2  0  0  0
 25 49  1  0  0  0
 25 50  1  0  0  0
 25 51  1  0  0  0
 26 27  1  0  0  0
 26 52  1  0  0  0
 27 53  1  0  0  0
 27 54  1  0  0  0
 27 55  1  0  0  0
 28 56  1  0  0  0
 28 57  1  0  0  0
 28 58  1  0  0  0
 29 30  1  0  0  0
 30 31  1  0  0  0
 30 59  1  0  0  0
 30 60  1  0  0  0
 31 32  1  0  0  0
 31 61  1  0  0  0
 31 62  1  0  0  0
 32 63  1  0  0  0
 32 64  1  0  0  0
 32 65  1  0  0  0
 33 66  1  0  0  0
 33 67  1  0  0  0
 33 68  1  0  0  0
 34 35  1  0  0  0
 35 69  1  0  0  0
 35 70  1  0  0  0
 35 71  1  0  0  0
 36 72  1  0  0  0
 36 73  1  0  0  0
 36 74  1  0  0  0
M  END
> <s_m_source_file>
../3nam_ligand.sdf

> <i_m_source_file_index>
1

> <s_epik_input>
W0NIM10vW0NIXT1DKFtDSDNdKVxDKD1PKU9bQ0BASF0oW0NAQEhdMVtDSDNdKVtDSDJdW0NAQEhdKFtDQEBIXTFbQ0BASF0oW0NAXTIzW09IXSlPQyg9TylbQ0BdMyhbT0hdKVtDSDNdKVtDQEBdKFtDSDNdKShPQyg9TylbQ0gzXSlbQ0gyXVtDQEBIXTJPQyg9TylbQ0gyXVtDSDJdW0NIM10=

> <s_epik_cmdline>
J2VwaWtfYXBwJywgJy1pbWFlJywgJ2xpZ2FuZF9wcm8ubWFlJywgJy1vbWFlJywgJ2xpZ2FuZF9wcmVwLm1hZScsICctbXMnLCAnMScsICctcGgnLCAnNycsICctcGh0JywgJzAuNScsICctbnQn

> <r_lp_tautomer_probability>
1

> <r_epik_Ionization_Penalty>
  0.0000

> <r_epik_Ionization_Penalty_Charging>
  0.0000

> <r_epik_Ionization_Penalty_Neutral>
  0.0000

> <r_epik_State_Penalty>
 -0.0000

> <r_epik_Charging_Adjusted_Penalty>
0

> <i_epik_Tot_Q>
0

> <i_epik_Tot_abs_Q>
0

> <s_epik_Chemistry_Notes>
This compound has an ester and may undergo hydrolysis at high or low pH.

$$$$
