3nan_ligand
                    3D
 Schrodinger Suite 2020-3.
142145  0  0  1  0            999 V2000
   -4.5470    9.2310   84.7280 C   0  0  1  0  0  0
   -4.6190    7.6780   82.7720 O   0  0  0  0  0  0
   -4.2820    8.9990   83.2360 C   0  0  2  0  0  0
   -5.4240    8.8310   81.0350 O   0  0  0  0  0  0
   -2.8120    9.3030   82.9770 C   0  0  1  0  0  0
   -2.6910   10.3970   82.0520 O   0  0  0  0  0  0
   -2.2460    9.7380   84.3310 C   0  0  0  0  0  0
   -2.4800    8.7140   80.5890 O   0  0  0  0  0  0
   -3.2270    9.7380   85.3150 C   0  0  0  0  0  0
   -1.8940    9.4030   87.3630 O   0  0  0  0  0  0
   -2.9230   10.1900   86.7440 C   0  0  2  0  0  0
   -4.5740    8.6650   87.6610 O   0  0  0  0  0  0
   -4.1000   10.0110   87.6970 C   0  0  2  0  0  0
   -4.8450   12.3050   87.1040 O   0  0  0  0  0  0
   -5.2550   10.9590   87.3910 C   0  0  1  0  0  0
   -5.4030   12.6980   89.2410 O   0  0  0  0  0  0
   -6.1870   10.3550   86.3350 C   0  0  0  0  0  0
   -6.6890    9.8290   84.0350 O   0  0  0  0  0  0
   -5.6460   10.2800   84.9030 C   0  0  2  0  0  0
   -7.7780   11.7450   84.5050 O   0  0  0  0  0  0
   -3.3930   10.2280   89.0320 C   0  0  2  0  0  0
   -3.3100   11.6180   89.3470 O   0  0  0  0  0  0
   -2.0040    9.6820   88.6930 C   0  0  0  0  0  0
   -1.1150    9.4850   89.5130 O   0  0  0  0  0  0
   -5.1540    7.7300   81.5230 C   0  0  0  0  0  0
   -5.5040    6.4370   80.7810 C   0  0  0  0  0  0
   -5.9520    6.6510   79.3310 C   0  0  0  0  0  0
   -4.8090    6.4920   78.3220 C   0  0  0  0  0  0
   -5.3210    6.5610   76.8810 C   0  0  0  0  0  0
   -4.2270    6.1950   75.8740 C   0  0  0  0  0  0
   -4.7820    6.1770   74.4490 C   0  0  0  0  0  0
   -5.2860    7.5670   74.0560 C   0  0  0  0  0  0
   -2.5600    9.9260   80.7810 C   0  0  0  0  0  0
   -2.4650   10.9100   79.6120 C   0  0  0  0  0  0
   -2.4580   10.3800   78.1770 C   0  0  0  0  0  0
   -2.3880   12.2790   79.8410 C   0  0  0  0  0  0
   -2.3940   12.8340   81.2660 C   0  0  0  0  0  0
   -0.7770   10.0910   84.5790 C   0  0  0  0  0  0
   -4.9370   13.1280   88.1840 C   0  0  0  0  0  0
   -4.5200   14.5970   88.0640 C   0  0  0  0  0  0
   -4.6100   15.3390   89.4010 C   0  0  0  0  0  0
   -3.3150   15.2640   90.2130 C   0  0  0  0  0  0
   -5.1300   11.6480   84.4570 C   0  0  0  0  0  0
   -7.7610   10.6590   83.9280 C   0  0  0  0  0  0
   -8.9860   10.1860   83.1450 C   0  0  0  0  0  0
   -4.0310    9.4300   90.1690 C   0  0  0  0  0  0
    7.7210   23.2630   82.8810 C   0  0  0  0  0  0
    6.3460   22.6570   83.1720 C   0  0  0  0  0  0
    5.6660   22.3010   81.8480 C   0  0  0  0  0  0
    5.5070   23.6660   83.9590 C   0  0  0  0  0  0
    6.5410   21.4730   83.9550 O   0  0  0  0  0  0
    5.3930   20.8330   84.3160 C   0  0  0  0  0  0
    5.4990   19.7840   84.9400 O   0  0  0  0  0  0
    4.2100   21.3440   83.9720 N   0  0  0  0  0  0
    2.9070   20.7430   84.2930 C   0  0  0  0  0  0
    2.9950   19.2720   84.7090 C   0  0  0  0  0  0
    3.0980   19.1220   86.2290 C   0  0  0  0  0  0
    2.1080   18.0710   86.7400 C   0  0  0  0  0  0
    0.6710   18.5120   86.4490 C   0  0  0  0  0  0
   -0.3710   17.4520   86.8180 C   0  0  0  0  0  0
   -0.9270   17.5210   88.2480 C   0  0  0  0  0  0
   -1.7350   16.4500   88.6240 C   0  0  0  0  0  0
   -2.3900   16.4270   89.8500 C   0  0  0  0  0  0
   -2.2330   17.4900   90.7350 C   0  0  0  0  0  0
   -1.4250   18.5580   90.3780 C   0  0  0  0  0  0
   -0.7790   18.5720   89.1390 C   0  0  0  0  0  0
   -0.0090   19.6470   88.8180 O   0  0  0  0  0  0
   -4.8836    8.3139   85.2336 H   0  0  0  0  0  0
   -4.9638    9.6156   82.6319 H   0  0  0  0  0  0
   -2.2765    8.4652   82.5065 H   0  0  0  0  0  0
   -2.5905   11.2332   86.6388 H   0  0  0  0  0  0
   -5.1177    8.2968   86.7785 H   0  0  0  0  0  0
   -5.8201   11.1429   88.3167 H   0  0  0  0  0  0
   -6.4368    9.3209   86.6149 H   0  0  0  0  0  0
   -7.1092   10.9517   86.2754 H   0  0  0  0  0  0
   -2.8723   12.3209   88.6229 H   0  0  0  0  0  0
   -4.6225    5.7795   80.7543 H   0  0  0  0  0  0
   -6.3268    5.9262   81.3025 H   0  0  0  0  0  0
   -6.7288    5.9154   79.0749 H   0  0  0  0  0  0
   -6.3580    7.6671   79.2188 H   0  0  0  0  0  0
   -4.0746    7.2974   78.4700 H   0  0  0  0  0  0
   -4.3202    5.5180   78.4721 H   0  0  0  0  0  0
   -6.1573    5.8576   76.7550 H   0  0  0  0  0  0
   -5.6651    7.5827   76.6627 H   0  0  0  0  0  0
   -3.4158    6.9359   75.9285 H   0  0  0  0  0  0
   -3.8290    5.1974   76.1114 H   0  0  0  0  0  0
   -3.9887    5.8726   73.7504 H   0  0  0  0  0  0
   -5.6167    5.4630   74.3896 H   0  0  0  0  0  0
   -5.6814    7.5371   73.0299 H   0  0  0  0  0  0
   -4.4555    8.2864   74.1081 H   0  0  0  0  0  0
   -6.0835    7.8769   74.7474 H   0  0  0  0  0  0
   -2.5252    9.2821   78.1913 H   0  0  0  0  0  0
   -1.5257   10.6839   77.6785 H   0  0  0  0  0  0
   -3.3181   10.7929   77.6295 H   0  0  0  0  0  0
   -2.3218   12.9757   78.9924 H   0  0  0  0  0  0
   -2.3262   13.9314   81.2324 H   0  0  0  0  0  0
   -1.5339   12.4303   81.8203 H   0  0  0  0  0  0
   -3.3262   12.5395   81.7703 H   0  0  0  0  0  0
   -0.2168   10.0128   83.6356 H   0  0  0  0  0  0
   -0.3520    9.3944   85.3167 H   0  0  0  0  0  0
   -0.7068   11.1194   84.9629 H   0  0  0  0  0  0
   -3.4795   14.6552   87.7120 H   0  0  0  0  0  0
   -5.1789   15.1078   87.3464 H   0  0  0  0  0  0
   -4.8285   16.4012   89.2168 H   0  0  0  0  0  0
   -5.4133   14.8998   90.0108 H   0  0  0  0  0  0
   -3.5515   15.3158   91.2860 H   0  0  0  0  0  0
   -2.8007   14.3161   89.9963 H   0  0  0  0  0  0
   -4.3296   11.9772   85.1360 H   0  0  0  0  0  0
   -5.9540   12.3763   84.4811 H   0  0  0  0  0  0
   -4.7351   11.5749   83.4329 H   0  0  0  0  0  0
   -8.7804    9.1999   82.7031 H   0  0  0  0  0  0
   -9.2105   10.9067   82.3449 H   0  0  0  0  0  0
   -9.8485   10.1111   83.8237 H   0  0  0  0  0  0
   -5.0262    9.8419   90.3926 H   0  0  0  0  0  0
   -3.3966    9.4972   91.0651 H   0  0  0  0  0  0
   -4.1293    8.3767   89.8675 H   0  0  0  0  0  0
    7.5995   24.1759   82.2794 H   0  0  0  0  0  0
    8.3318   22.5363   82.3253 H   0  0  0  0  0  0
    8.2199   23.5123   83.8291 H   0  0  0  0  0  0
    5.5201   23.2149   81.2534 H   0  0  0  0  0  0
    4.6901   21.8356   82.0506 H   0  0  0  0  0  0
    6.2991   21.5966   81.2885 H   0  0  0  0  0  0
    5.3605   24.5725   83.3534 H   0  0  0  0  0  0
    6.0283   23.9282   84.8915 H   0  0  0  0  0  0
    4.5291   23.2226   84.1978 H   0  0  0  0  0  0
    4.2567   22.2865   83.4067 H   0  0  0  0  0  0
    2.4451   21.2925   85.1265 H   0  0  0  0  0  0
    2.2516   20.7958   83.4112 H   0  0  0  0  0  0
    2.0948   18.7400   84.3676 H   0  0  0  0  0  0
    3.8859   18.8148   84.2537 H   0  0  0  0  0  0
    4.1176   18.8092   86.4983 H   0  0  0  0  0  0
    2.8713   20.0856   86.7088 H   0  0  0  0  0  0
    2.2991   17.1119   86.2364 H   0  0  0  0  0  0
    2.2333   17.9464   87.8257 H   0  0  0  0  0  0
    0.4416   19.4192   87.0273 H   0  0  0  0  0  0
    0.5630   18.7247   85.3752 H   0  0  0  0  0  0
   -1.2393   17.5429   86.1488 H   0  0  0  0  0  0
    0.0711   16.4504   86.7111 H   0  0  0  0  0  0
   -1.8565   15.6098   87.9403 H   0  0  0  0  0  0
   -2.7407   17.4825   91.6995 H   0  0  0  0  0  0
   -1.2927   19.3917   91.0676 H   0  0  0  0  0  0
    0.5099   19.6821   87.8487 H   0  0  0  0  0  0
  1  3  1  0  0  0
  1  9  1  0  0  0
  1 19  1  0  0  0
  1 68  1  0  0  0
  2  3  1  0  0  0
  2 25  1  0  0  0
  3  5  1  0  0  0
  3 69  1  0  0  0
  4 25  2  0  0  0
  5  6  1  0  0  0
  5  7  1  0  0  0
  5 70  1  0  0  0
  6 33  1  0  0  0
  7  9  2  0  0  0
  7 38  1  0  0  0
  8 33  2  0  0  0
  9 11  1  0  0  0
 10 11  1  0  0  0
 10 23  1  0  0  0
 11 13  1  0  0  0
 11 71  1  0  0  0
 12 13  1  0  0  0
 12 72  1  0  0  0
 13 15  1  0  0  0
 13 21  1  0  0  0
 14 15  1  0  0  0
 14 39  1  0  0  0
 15 17  1  0  0  0
 15 73  1  0  0  0
 16 39  2  0  0  0
 17 19  1  0  0  0
 17 74  1  0  0  0
 17 75  1  0  0  0
 18 19  1  0  0  0
 18 44  1  0  0  0
 19 43  1  0  0  0
 20 44  2  0  0  0
 21 22  1  0  0  0
 21 23  1  0  0  0
 21 46  1  0  0  0
 22 76  1  0  0  0
 23 24  2  0  0  0
 25 26  1  0  0  0
 26 27  1  0  0  0
 26 77  1  0  0  0
 26 78  1  0  0  0
 27 28  1  0  0  0
 27 79  1  0  0  0
 27 80  1  0  0  0
 28 29  1  0  0  0
 28 81  1  0  0  0
 28 82  1  0  0  0
 29 30  1  0  0  0
 29 83  1  0  0  0
 29 84  1  0  0  0
 30 31  1  0  0  0
 30 85  1  0  0  0
 30 86  1  0  0  0
 31 32  1  0  0  0
 31 87  1  0  0  0
 31 88  1  0  0  0
 32 89  1  0  0  0
 32 90  1  0  0  0
 32 91  1  0  0  0
 33 34  1  0  0  0
 34 35  1  0  0  0
 34 36  2  0  0  0
 35 92  1  0  0  0
 35 93  1  0  0  0
 35 94  1  0  0  0
 36 37  1  0  0  0
 36 95  1  0  0  0
 37 96  1  0  0  0
 37 97  1  0  0  0
 37 98  1  0  0  0
 38 99  1  0  0  0
 38100  1  0  0  0
 38101  1  0  0  0
 39 40  1  0  0  0
 40 41  1  0  0  0
 40102  1  0  0  0
 40103  1  0  0  0
 41 42  1  0  0  0
 41104  1  0  0  0
 41105  1  0  0  0
 42 63  1  0  0  0
 42106  1  0  0  0
 42107  1  0  0  0
 43108  1  0  0  0
 43109  1  0  0  0
 43110  1  0  0  0
 44 45  1  0  0  0
 45111  1  0  0  0
 45112  1  0  0  0
 45113  1  0  0  0
 46114  1  0  0  0
 46115  1  0  0  0
 46116  1  0  0  0
 47 48  1  0  0  0
 47117  1  0  0  0
 47118  1  0  0  0
 47119  1  0  0  0
 48 49  1  0  0  0
 48 50  1  0  0  0
 48 51  1  0  0  0
 49120  1  0  0  0
 49121  1  0  0  0
 49122  1  0  0  0
 50123  1  0  0  0
 50124  1  0  0  0
 50125  1  0  0  0
 51 52  1  0  0  0
 52 53  2  0  0  0
 52 54  1  0  0  0
 54 55  1  0  0  0
 54126  1  0  0  0
 55 56  1  0  0  0
 55127  1  0  0  0
 55128  1  0  0  0
 56 57  1  0  0  0
 56129  1  0  0  0
 56130  1  0  0  0
 57 58  1  0  0  0
 57131  1  0  0  0
 57132  1  0  0  0
 58 59  1  0  0  0
 58133  1  0  0  0
 58134  1  0  0  0
 59 60  1  0  0  0
 59135  1  0  0  0
 59136  1  0  0  0
 60 61  1  0  0  0
 60137  1  0  0  0
 60138  1  0  0  0
 61 62  2  0  0  0
 61 66  1  0  0  0
 62 63  1  0  0  0
 62139  1  0  0  0
 63 64  2  0  0  0
 64 65  1  0  0  0
 64140  1  0  0  0
 65 66  2  0  0  0
 65141  1  0  0  0
 66 67  1  0  0  0
 67142  1  0  0  0
M  END
> <s_m_source_file>
../3nan_ligand.sdf

> <i_m_source_file_index>
1

> <s_epik_input>
W0NIM11bQ0gyXVtDSDJdW0NIMl1bQ0gyXVtDSDJdW0NIMl1DKD1PKU9bQ0BIXShbQ0BIXShDPTFbQ0gzXSlPQyg9TykvQyhbQ0gzXSk9W0NIXVxbQ0gzXSlbQ0BASF0oQzFbQ0BASF0oW0NAXTIzW09IXSlPQyg9TylbQ0BdMyhbT0hdKVtDSDNdKVtDQEBdKFtDSDNdKShPQyg9TylbQ0gzXSlbQ0gyXVtDQEBIXTJPQyg9TylbQ0gyXVtDSDJdW0NIMl1jKFtjSF1bY0hdYzRbT0hdKVtjSF1jNFtDSDJdW0NIMl1bQ0gyXVtDSDJdW0NIMl1bQ0gyXVtOSF1DKD1PKU9DKFtDSDNdKShbQ0gzXSlbQ0gzXQ==

> <s_epik_cmdline>
J2VwaWtfYXBwJywgJy1pbWFlJywgJ2xpZ2FuZF9wcm8ubWFlJywgJy1vbWFlJywgJ2xpZ2FuZF9wcmVwLm1hZScsICctbXMnLCAnMScsICctcGgnLCAnNycsICctcGh0JywgJzAuNScsICctbnQn

> <r_lp_tautomer_probability>
1

> <r_epik_Ionization_Penalty>
  0.0004

> <r_epik_Ionization_Penalty_Charging>
  0.0000

> <r_epik_Ionization_Penalty_Neutral>
  0.0004

> <r_epik_State_Penalty>
 -0.0000

> <r_epik_Charging_Adjusted_Penalty>
0

> <i_epik_Tot_Q>
0

> <i_epik_Tot_abs_Q>
0

> <s_epik_Chemistry_Notes>
This compound has an ester and may undergo hydrolysis at high or low pH.

$$$$
