3nb5_ligand
                    3D
 Schrodinger Suite 2020-3.
 41 42  0  0  1  0            999 V2000
   16.0750   14.0200   10.5570 Cl  0  0  0  0  0  0
   13.9200    2.7940   16.7340 O   0  0  0  0  0  0
   17.6320   16.2050   11.7850 O   0  0  0  0  0  0
   18.2210   14.9840   11.8950 C   0  0  0  0  0  0
   19.4460   14.8610   12.5400 C   0  0  0  0  0  0
   20.0590   13.6170   12.6370 C   0  0  0  0  0  0
   19.9430   10.6690   14.4990 O   0  0  0  0  0  0
   15.6480    6.2280   14.7040 C   0  0  0  0  0  0
   15.1720    5.1820   15.4860 C   0  0  0  0  0  0
   16.0280    4.1560   15.8710 C   0  0  0  0  0  0
   15.4180    2.8090   16.8070 S   0  0  0  0  0  0
   16.0170    1.4180   16.2050 N   0  0  0  0  0  0
   17.6050   13.8620   11.3500 C   0  0  0  0  0  0
   18.2190   12.6180   11.4470 C   0  0  0  0  0  0
   19.4470   12.4960   12.0880 C   0  0  0  0  0  0
   20.1550   11.1400   12.1450 C   0  0  0  0  0  0
   19.6700   10.3290   13.3480 C   0  0  0  0  0  0
   18.9540    9.2520   13.0370 N   0  0  0  0  0  0
   18.4060    8.3380   14.0510 C   0  0  0  0  0  0
   17.4780    7.3400   13.3550 C   0  0  0  0  0  0
   16.9790    6.2480   14.3040 C   0  0  0  0  0  0
   17.8380    5.2280   14.6980 C   0  0  0  0  0  0
   17.3620    4.1830   15.4810 C   0  0  0  0  0  0
   15.8550    2.9550   18.2350 O   0  0  0  0  0  0
   18.1196   17.0917   12.2162 H   0  0  0  0  0  0
   19.9262   15.7401   12.9699 H   0  0  0  0  0  0
   21.0194   13.5206   13.1435 H   0  0  0  0  0  0
   14.9771    7.0330   14.4043 H   0  0  0  0  0  0
   14.1276    5.1660   15.7975 H   0  0  0  0  0  0
   15.6348    0.5698   16.7919 H   0  0  0  0  0  0
   17.1154    1.4373   16.2609 H   0  0  0  0  0  0
   17.7374   11.7381   11.0204 H   0  0  0  0  0  0
   19.9409   10.5757   11.2254 H   0  0  0  0  0  0
   21.2401   11.2964   12.2350 H   0  0  0  0  0  0
   18.7776    9.0578   11.9687 H   0  0  0  0  0  0
   19.2299    7.8025   14.5454 H   0  0  0  0  0  0
   17.8428    8.9153   14.7990 H   0  0  0  0  0  0
   16.6008    7.8711   12.9570 H   0  0  0  0  0  0
   18.0170    6.8523   12.5294 H   0  0  0  0  0  0
   18.8842    5.2480   14.3929 H   0  0  0  0  0  0
   18.0356    3.3836   15.7897 H   0  0  0  0  0  0
  1 13  1  0  0  0
  2 11  2  0  0  0
  3  4  1  0  0  0
  3 25  1  0  0  0
  4  5  2  0  0  0
  4 13  1  0  0  0
  5  6  1  0  0  0
  5 26  1  0  0  0
  6 15  2  0  0  0
  6 27  1  0  0  0
  7 17  2  0  0  0
  8  9  2  0  0  0
  8 21  1  0  0  0
  8 28  1  0  0  0
  9 10  1  0  0  0
  9 29  1  0  0  0
 10 11  1  0  0  0
 10 23  2  0  0  0
 11 12  1  0  0  0
 11 24  2  0  0  0
 12 30  1  0  0  0
 12 31  1  0  0  0
 13 14  2  0  0  0
 14 15  1  0  0  0
 14 32  1  0  0  0
 15 16  1  0  0  0
 16 17  1  0  0  0
 16 33  1  0  0  0
 16 34  1  0  0  0
 17 18  1  0  0  0
 18 19  1  0  0  0
 18 35  1  0  0  0
 19 20  1  0  0  0
 19 36  1  0  0  0
 19 37  1  0  0  0
 20 21  1  0  0  0
 20 38  1  0  0  0
 20 39  1  0  0  0
 21 22  2  0  0  0
 22 23  1  0  0  0
 22 40  1  0  0  0
 23 41  1  0  0  0
M  END
> <s_m_source_file>
../3nb5_ligand.sdf

> <i_m_source_file_index>
1

> <s_epik_input>
W09IXWMxW2NIXVtjSF1jKFtjSF1jMUNsKVtDSDJdQyg9TylbTkhdW0NIMl1bQ0gyXWMoW2NIXVtjSF0yKVtjSF1bY0hdYzJTKD1PKSg9TylbTkgyXQ==

> <s_epik_cmdline>
J2VwaWtfYXBwJywgJy1pbWFlJywgJ2xpZ2FuZF9wcm8ubWFlJywgJy1vbWFlJywgJ2xpZ2FuZF9wcmVwLm1hZScsICctbXMnLCAnMScsICctcGgnLCAnNycsICctcGh0JywgJzAuNScsICctbnQn

> <r_lp_tautomer_probability>
0.999999999997365

> <r_epik_Ionization_Penalty>
  0.0302

> <r_epik_Ionization_Penalty_Charging>
  0.0000

> <r_epik_Ionization_Penalty_Neutral>
  0.0302

> <r_epik_State_Penalty>
  0.0244

> <r_epik_Charging_Adjusted_Penalty>
0.0244292648513206

> <i_epik_Tot_Q>
0

> <i_epik_Tot_abs_Q>
0

$$$$
