3nba_ligand
                    3D
 Schrodinger Suite 2020-3.
 45 47  0  0  1  0            999 V2000
   45.7530  -32.9600   -2.2630 P   0  0  0  0  0  0
   46.3160  -34.3680   -2.1490 O   0  5  0  0  0  0
   46.7880  -31.9650   -2.7510 O   0  0  0  0  0  0
   44.9450  -32.4860   -1.0660 O   0  5  0  0  0  0
   43.3500  -33.9390   -3.6140 P   0  0  1  0  0  0
   42.1700  -33.0200   -3.8430 O   0  5  0  0  0  0
   43.7330  -34.9060   -4.7030 O   0  0  0  0  0  0
   44.6750  -33.0040   -3.4870 O   0  0  0  0  0  0
   42.4360  -36.5620   -2.2650 P   0  0  2  0  0  0
   41.3150  -36.7100   -1.2800 O   0  0  0  0  0  0
   43.6350  -37.4740   -2.0980 O   0  5  0  0  0  0
   43.0210  -34.8510   -2.0770 C   0  0  0  0  0  0
   41.8040  -36.8140   -3.7370 O   0  0  0  0  0  0
   41.5190  -38.1040   -4.2900 C   0  0  0  0  0  0
   42.0740  -38.2620   -5.7210 C   0  0  1  0  0  0
   41.1650  -37.7430   -6.7000 O   0  0  0  0  0  0
   43.4230  -37.5740   -5.9920 C   0  0  1  0  0  0
   44.5520  -38.4420   -5.8040 O   0  0  0  0  0  0
   43.3740  -37.2110   -7.4440 C   0  0  1  0  0  0
   43.8670  -38.3510   -8.1590 O   0  0  0  0  0  0
   41.8900  -37.0380   -7.7170 C   0  0  2  0  0  0
   41.5940  -35.5660   -7.7720 N   0  0  0  0  0  0
   41.6890  -34.6700   -6.7710 C   0  0  0  0  0  0
   41.3540  -33.4340   -7.1990 N   0  0  0  0  0  0
   41.0350  -33.5570   -8.4840 C   0  0  0  0  0  0
   40.6320  -32.6390   -9.4340 C   0  0  0  0  0  0
   40.5040  -31.3460   -9.0770 N   0  0  0  0  0  0
   40.3900  -33.0580  -10.7090 N   0  0  0  0  0  0
   40.5370  -34.3590  -11.0550 C   0  0  0  0  0  0
   40.9330  -35.2760  -10.1420 N   0  0  0  0  0  0
   41.1960  -34.8920   -8.8550 C   0  0  0  0  0  0
   43.9439  -34.9107   -1.4814 H   0  0  0  0  0  0
   42.2449  -34.3278   -1.4992 H   0  0  0  0  0  0
   41.9746  -38.8819   -3.6597 H   0  0  0  0  0  0
   40.4300  -38.2542   -4.3281 H   0  0  0  0  0  0
   42.1656  -39.3487   -5.8651 H   0  0  0  0  0  0
   43.6108  -36.7410   -5.2986 H   0  0  0  0  0  0
   44.7823  -38.8359   -4.8031 H   0  0  0  0  0  0
   43.9855  -36.3477   -7.7452 H   0  0  0  0  0  0
   44.9275  -38.6325   -8.0814 H   0  0  0  0  0  0
   41.5379  -37.4897   -8.6561 H   0  0  0  0  0  0
   41.9950  -34.9102   -5.7528 H   0  0  0  0  0  0
   40.7064  -31.0390   -8.0403 H   0  0  0  0  0  0
   40.1971  -30.5974   -9.8223 H   0  0  0  0  0  0
   40.3342  -34.6708  -12.0796 H   0  0  0  0  0  0
  1  2  1  0  0  0
  1  3  2  0  0  0
  1  4  1  0  0  0
  1  8  1  0  0  0
  5  6  1  0  0  0
  5  7  2  0  0  0
  5  8  1  0  0  0
  5 12  1  0  0  0
  9 10  2  0  0  0
  9 11  1  0  0  0
  9 12  1  0  0  0
  9 13  1  0  0  0
 12 32  1  0  0  0
 12 33  1  0  0  0
 13 14  1  0  0  0
 14 15  1  0  0  0
 14 34  1  0  0  0
 14 35  1  0  0  0
 15 16  1  0  0  0
 15 17  1  0  0  0
 15 36  1  0  0  0
 16 21  1  0  0  0
 17 18  1  0  0  0
 17 19  1  0  0  0
 17 37  1  0  0  0
 18 38  1  0  0  0
 19 20  1  0  0  0
 19 21  1  0  0  0
 19 39  1  0  0  0
 20 40  1  0  0  0
 21 22  1  0  0  0
 21 41  1  0  0  0
 22 23  1  0  0  0
 22 31  1  0  0  0
 23 24  2  0  0  0
 23 42  1  0  0  0
 24 25  1  0  0  0
 25 26  2  0  0  0
 25 31  1  0  0  0
 26 27  1  0  0  0
 26 28  1  0  0  0
 27 43  1  0  0  0
 27 44  1  0  0  0
 28 29  2  0  0  0
 29 30  1  0  0  0
 29 45  1  0  0  0
 30 31  2  0  0  0
M  CHG  4   2  -1   4  -1   6  -1  11  -1
M  END
> <s_m_source_file>
../3nba_ligand.sdf

> <i_m_source_file_index>
1

> <s_epik_input>
W09IXVAoPU8pKFtPSF0pT1tQQF0oPU8pKFtPSF0pW0NIMl1bUEBdKD1PKShbT0hdKU9bQ0gyXVtDQEhdMU9bQ0BIXShbQ0BIXShbT0hdKVtDQEBIXTFbT0hdKW4oW2NIXW4yKWMoYzIzKW5bY0hdbmMzW05IMl0=

> <s_epik_cmdline>
J2VwaWtfYXBwJywgJy1pbWFlJywgJ2xpZ2FuZF9wcm8ubWFlJywgJy1vbWFlJywgJ2xpZ2FuZF9wcmVwLm1hZScsICctbXMnLCAnMScsICctcGgnLCAnNycsICctcGh0JywgJzAuNScsICctbnQn

> <r_lp_tautomer_probability>
0.999997216410988

> <r_epik_Ionization_Penalty>
  0.1361

> <r_epik_Ionization_Penalty_Charging>
  0.1357

> <r_epik_Ionization_Penalty_Neutral>
  0.0004

> <r_epik_State_Penalty>
  0.1250

> <r_epik_Charging_Adjusted_Penalty>
0.260643809970156

> <i_epik_Tot_Q>
-4

> <i_epik_Tot_abs_Q>
4

> <s_epik_Chemistry_Notes>
This compound contains an acetal/aminal-like group ( X-CH(R)-Y where X, Y are N, S, or O) that may be acid/base labile, releasing an aldehyde.

$$$$
