3nc4_ligand
                    3D
 Schrodinger Suite 2020-3.
 43 44  0  0  1  0            999 V2000
   33.4640   22.8070   27.8490 C   0  0  1  0  0  0
   33.8170   23.0800   26.3820 C   0  0  2  0  0  0
   34.0110   24.4760   26.1600 O   0  0  0  0  0  0
   32.6990   22.5210   25.4850 C   0  0  1  0  0  0
   33.0320   22.6650   24.1010 O   0  0  0  0  0  0
   32.4340   21.0410   25.7940 C   0  0  2  0  0  0
   31.2660   20.6220   25.0870 O   0  0  0  0  0  0
   32.2410   20.8310   27.3040 C   0  0  2  0  0  0
   33.3590   21.3850   28.0090 O   0  0  0  0  0  0
   32.0780   19.3720   27.7270 C   0  0  0  0  0  0
   33.1730   18.5820   27.2390 O   0  0  0  0  0  0
   34.5500   23.2690   28.7160 N   0  0  0  0  0  0
   34.3470   23.9480   29.8570 C   0  0  0  0  0  0
   35.4190   24.2960   30.5710 N   0  0  0  0  0  0
   32.7870   24.3730   30.3890 S   0  0  0  0  0  0
   35.3300   24.9270   31.6370 N   0  0  0  0  0  0
   36.3820   25.2240   32.2800 C   0  0  0  0  0  0
   36.3840   25.9870   33.5590 C   0  0  0  0  0  0
   35.2130   26.4440   34.1880 C   0  0  0  0  0  0
   35.3210   27.1730   35.3740 C   0  0  0  0  0  0
   36.5660   27.4330   35.9450 C   0  0  0  0  0  0
   37.7280   26.9880   35.3150 C   0  0  0  0  0  0
   37.6330   26.2690   34.1280 C   0  0  0  0  0  0
   33.9530   26.2090   33.6810 O   0  0  0  0  0  0
   32.5256   23.2903   28.1585 H   0  0  0  0  0  0
   34.7934   22.6488   26.1159 H   0  0  0  0  0  0
   34.7783   25.0219   26.7285 H   0  0  0  0  0  0
   31.7860   23.1191   25.6220 H   0  0  0  0  0  0
   33.2563   23.6603   23.6900 H   0  0  0  0  0  0
   33.2525   20.4055   25.4251 H   0  0  0  0  0  0
   31.2287   20.7015   23.9905 H   0  0  0  0  0  0
   31.3360   21.3789   27.6052 H   0  0  0  0  0  0
   32.0533   19.3091   28.8249 H   0  0  0  0  0  0
   31.1387   18.9737   27.3157 H   0  0  0  0  0  0
   33.2125   17.5041   27.4546 H   0  0  0  0  0  0
   35.5960   23.0638   28.4442 H   0  0  0  0  0  0
   36.9100   24.3021   32.5651 H   0  0  0  0  0  0
   37.0368   25.8408   31.6470 H   0  0  0  0  0  0
   34.4189   27.5441   35.8604 H   0  0  0  0  0  0
   36.6312   27.9838   36.8833 H   0  0  0  0  0  0
   38.7042   27.2022   35.7499 H   0  0  0  0  0  0
   38.5406   25.9210   33.6348 H   0  0  0  0  0  0
   33.8331   25.6380   32.7485 H   0  0  0  0  0  0
  1  2  1  0  0  0
  1  9  1  0  0  0
  1 12  1  0  0  0
  1 25  1  0  0  0
  2  3  1  0  0  0
  2  4  1  0  0  0
  2 26  1  0  0  0
  3 27  1  0  0  0
  4  5  1  0  0  0
  4  6  1  0  0  0
  4 28  1  0  0  0
  5 29  1  0  0  0
  6  7  1  0  0  0
  6  8  1  0  0  0
  6 30  1  0  0  0
  7 31  1  0  0  0
  8  9  1  0  0  0
  8 10  1  0  0  0
  8 32  1  0  0  0
 10 11  1  0  0  0
 10 33  1  0  0  0
 10 34  1  0  0  0
 11 35  1  0  0  0
 12 13  1  0  0  0
 12 36  1  0  0  0
 13 14  1  0  0  0
 13 15  2  0  0  0
 14 16  2  0  0  0
 16 17  1  0  0  0
 17 18  1  0  0  0
 17 37  1  0  0  0
 17 38  1  0  0  0
 18 19  2  0  0  0
 18 23  1  0  0  0
 19 20  1  0  0  0
 19 24  1  0  0  0
 20 21  2  0  0  0
 20 39  1  0  0  0
 21 22  1  0  0  0
 21 40  1  0  0  0
 22 23  2  0  0  0
 22 41  1  0  0  0
 23 42  1  0  0  0
 24 43  1  0  0  0
M  END
> <s_m_source_file>
../3nc4_ligand.sdf

> <i_m_source_file_index>
1

> <s_epik_input>
W09IXVtDSDJdW0NAQEhdKE8xKVtDQEBIXShbT0hdKVtDQEhdKFtPSF0pW0NAQEhdKFtPSF0pW0NAQEhdMVtOSF1DKD1TKS9OPU4vW0NIMl1jMmMoW09IXSlbY0hdW2NIXVtjSF1bY0hdMg==

> <s_epik_cmdline>
J2VwaWtfYXBwJywgJy1pbWFlJywgJ2xpZ2FuZF9wcm8ubWFlJywgJy1vbWFlJywgJ2xpZ2FuZF9wcmVwLm1hZScsICctbXMnLCAnMScsICctcGgnLCAnNycsICctcGh0JywgJzAuNScsICctbnQn

> <r_lp_tautomer_probability>
1

> <r_epik_Ionization_Penalty>
  0.0011

> <r_epik_Ionization_Penalty_Charging>
  0.0000

> <r_epik_Ionization_Penalty_Neutral>
  0.0011

> <r_epik_State_Penalty>
 -0.0000

> <r_epik_Charging_Adjusted_Penalty>
0

> <i_epik_Tot_Q>
0

> <i_epik_Tot_abs_Q>
0

> <s_epik_Chemistry_Notes>
This compound contains an acetal/aminal-like group ( X-CH(R)-Y where X, Y are N, S, or O) that may be acid/base labile, releasing an aldehyde.

$$$$
