3nc9_ligand
                    3D
 Schrodinger Suite 2020-3.
 49 52  0  0  1  0            999 V2000
   -5.2210    2.6290   17.3980 C   0  0  0  0  0  0
   -4.2420    1.9840   16.6360 C   0  0  0  0  0  0
   -3.8100    0.6940   16.9960 C   0  0  0  0  0  0
   -4.3880    0.0570   18.1230 C   0  0  0  0  0  0
   -5.3730    0.6870   18.8890 C   0  0  0  0  0  0
   -5.7770    1.9850   18.5210 C   0  0  0  0  0  0
   -2.8510   -1.3500   17.1980 N   0  0  0  0  0  0
   -3.7550   -1.1810   18.1900 N   0  0  0  0  0  0
   -2.8800   -0.2490   16.5010 C   0  0  0  0  0  0
   -4.6750   -4.2750   20.9380 C   0  0  0  0  0  0
   -4.4320   -4.5670   19.5860 C   0  0  0  0  0  0
   -4.1200   -3.5440   18.6730 C   0  0  0  0  0  0
   -4.0050   -2.2160   19.1130 C   0  0  0  0  0  0
   -4.3070   -1.9140   20.4560 C   0  0  0  0  0  0
   -4.6040   -2.9410   21.3750 C   0  0  0  0  0  0
   -1.9360   -0.0290   15.0420 S   0  0  0  0  0  0
   -3.1690   -0.2120   13.7290 C   0  0  0  0  0  0
   -7.6100    2.1360   20.1250 C   0  0  0  0  0  0
   -6.8200    2.6540   19.1810 N   0  0  0  0  0  0
   -7.5590    0.9770   20.5700 O   0  0  0  0  0  0
  -10.4130    3.5850   22.3130 C   0  0  0  0  0  0
   -9.1560    2.7730   21.9850 C   0  0  0  0  0  0
   -8.7680    3.0430   20.5160 C   0  0  0  0  0  0
   -9.9600    2.8380   19.5490 C   0  0  0  0  0  0
  -11.1700    3.6640   20.0110 C   0  0  0  0  0  0
  -11.4990    3.2530   21.3790 N   0  3  0  0  0  0
   -5.5540    3.6299   17.1232 H   0  0  0  0  0  0
   -3.8141    2.4796   15.7646 H   0  0  0  0  0  0
   -5.8172    0.1864   19.7493 H   0  0  0  0  0  0
   -4.9158   -5.0733   21.6400 H   0  0  0  0  0  0
   -4.4859   -5.5993   19.2401 H   0  0  0  0  0  0
   -3.9670   -3.7829   17.6206 H   0  0  0  0  0  0
   -4.3110   -0.8757   20.7876 H   0  0  0  0  0  0
   -4.7785   -2.7007   22.4238 H   0  0  0  0  0  0
   -2.6826   -0.0913   12.7498 H   0  0  0  0  0  0
   -3.9483    0.5551   13.8484 H   0  0  0  0  0  0
   -3.6252   -1.2110   13.7911 H   0  0  0  0  0  0
   -7.0456    3.7015   18.9325 H   0  0  0  0  0  0
  -10.7406    3.3557   23.3378 H   0  0  0  0  0  0
  -10.1876    4.6586   22.2317 H   0  0  0  0  0  0
   -8.3369    3.0798   22.6521 H   0  0  0  0  0  0
   -9.3636    1.7022   22.1277 H   0  0  0  0  0  0
   -8.4477    4.0920   20.4318 H   0  0  0  0  0  0
   -9.6710    3.1595   18.5375 H   0  0  0  0  0  0
  -10.2380    1.7739   19.5300 H   0  0  0  0  0  0
  -10.9150    4.7337   19.9854 H   0  0  0  0  0  0
  -12.0213    3.4738   19.3408 H   0  0  0  0  0  0
  -11.6694    2.1663   21.3862 H   0  0  0  0  0  0
  -12.4193    3.7705   21.6878 H   0  0  0  0  0  0
  1  2  1  0  0  0
  1  6  2  0  0  0
  1 27  1  0  0  0
  2  3  2  0  0  0
  2 28  1  0  0  0
  3  4  1  0  0  0
  3  9  1  0  0  0
  4  5  2  0  0  0
  4  8  1  0  0  0
  5  6  1  0  0  0
  5 29  1  0  0  0
  6 19  1  0  0  0
  7  8  1  0  0  0
  7  9  2  0  0  0
  8 13  1  0  0  0
  9 16  1  0  0  0
 10 11  2  0  0  0
 10 15  1  0  0  0
 10 30  1  0  0  0
 11 12  1  0  0  0
 11 31  1  0  0  0
 12 13  2  0  0  0
 12 32  1  0  0  0
 13 14  1  0  0  0
 14 15  2  0  0  0
 14 33  1  0  0  0
 15 34  1  0  0  0
 16 17  1  0  0  0
 17 35  1  0  0  0
 17 36  1  0  0  0
 17 37  1  0  0  0
 18 19  1  0  0  0
 18 20  2  0  0  0
 18 23  1  0  0  0
 19 38  1  0  0  0
 21 22  1  0  0  0
 21 26  1  0  0  0
 21 39  1  0  0  0
 21 40  1  0  0  0
 22 23  1  0  0  0
 22 41  1  0  0  0
 22 42  1  0  0  0
 23 24  1  0  0  0
 23 43  1  0  0  0
 24 25  1  0  0  0
 24 44  1  0  0  0
 24 45  1  0  0  0
 25 26  1  0  0  0
 25 46  1  0  0  0
 25 47  1  0  0  0
 26 48  1  0  0  0
 26 49  1  0  0  0
M  CHG  1  26   1
M  END
> <s_m_source_file>
../3nc9_ligand.sdf

> <i_m_source_file_index>
1

> <s_epik_input>
W0NIMl0xW0NIMl1bTkgyK11bQ0gyXVtDSDJdW0NIXTFDKD1PKVtOSF1jKFtjSF1bY0hdMilbY0hdYyhjMjMpbihuYzNTW0NIM10pLWM0W2NIXVtjSF1bY0hdW2NIXVtjSF00

> <s_epik_cmdline>
J2VwaWtfYXBwJywgJy1pbWFlJywgJ2xpZ2FuZF9wcm8ubWFlJywgJy1vbWFlJywgJ2xpZ2FuZF9wcmVwLm1hZScsICctbXMnLCAnMScsICctcGgnLCAnNycsICctcGh0JywgJzAuNScsICctbnQn

> <r_lp_tautomer_probability>
1

> <r_epik_Ionization_Penalty>
  0.0011

> <r_epik_Ionization_Penalty_Charging>
  0.0011

> <r_epik_Ionization_Penalty_Neutral>
  0.0000

> <r_epik_State_Penalty>
 -0.0000

> <r_epik_Charging_Adjusted_Penalty>
0.00109871187799263

> <i_epik_Tot_Q>
1

> <i_epik_Tot_abs_Q>
1

$$$$
