3ncg_ligand
                    3D
 Schrodinger Suite 2020-3.
 43 46  0  0  1  0            999 V2000
   27.4900    6.2330    6.7040 N   0  0  0  0  0  0
   27.5290    5.5080    5.6050 C   0  0  0  0  0  0
   26.8960    5.8890    4.5020 N   0  0  0  0  0  0
   26.2050    7.0290    4.4620 C   0  0  0  0  0  0
   26.1310    7.8350    5.5930 C   0  0  0  0  0  0
   26.8110    7.3920    6.7410 C   0  0  0  0  0  0
   25.3780    8.2410    1.1400 C   0  0  0  0  0  0
   23.8240    6.5960    2.1180 C   0  0  0  0  0  0
   26.8150    8.0450    7.8830 N   0  0  0  0  0  0
   24.6340   15.0870    7.3330 C   0  0  0  0  0  0
   23.7120   14.1010    7.0390 C   0  0  0  0  0  0
   28.1960   11.9340    6.4940 C   0  0  0  0  0  0
   27.2540   10.9530    6.2000 C   0  0  0  0  0  0
   25.9840   14.7720    7.2730 C   0  0  0  0  0  0
   27.7850   13.2100    6.8610 C   0  0  0  0  0  0
   24.1390   12.8280    6.6720 C   0  0  0  0  0  0
   24.8320   10.1590    5.9370 C   0  0  0  0  0  0
   25.0050    8.6770    3.9250 N   0  0  0  0  0  0
   25.8900   11.2400    6.2590 C   0  0  0  0  0  0
   25.3360    8.9140    5.1910 C   0  0  0  0  0  0
   26.4250   13.4970    6.9170 C   0  0  0  0  0  0
   25.4960   12.5230    6.6090 C   0  0  0  0  0  0
   25.2760    7.1110    2.1540 C   0  0  0  0  0  0
   25.5120    7.6260    3.5130 N   0  0  0  0  0  0
   28.0930    4.5753    5.6011 H   0  0  0  0  0  0
   25.2000    7.8442    0.1296 H   0  0  0  0  0  0
   26.3827    8.6864    1.1872 H   0  0  0  0  0  0
   24.6251    9.0092    1.3701 H   0  0  0  0  0  0
   23.6004    6.1993    1.1167 H   0  0  0  0  0  0
   23.1358    7.4231    2.3468 H   0  0  0  0  0  0
   23.6994    5.7980    2.8648 H   0  0  0  0  0  0
   27.3682    7.6429    8.7446 H   0  0  0  0  0  0
   26.2652    8.9931    7.9763 H   0  0  0  0  0  0
   24.3080   16.0906    7.6062 H   0  0  0  0  0  0
   22.6458   14.3208    7.0947 H   0  0  0  0  0  0
   29.2593   11.7011    6.4363 H   0  0  0  0  0  0
   27.5844    9.9523    5.9214 H   0  0  0  0  0  0
   26.7193   15.5408    7.5102 H   0  0  0  0  0  0
   28.5204   13.9775    7.1023 H   0  0  0  0  0  0
   23.4027   12.0612    6.4312 H   0  0  0  0  0  0
   24.3871    9.7910    6.8733 H   0  0  0  0  0  0
   24.0450   10.5935    5.3030 H   0  0  0  0  0  0
   26.0340    6.3421    1.9437 H   0  0  0  0  0  0
  1  2  1  0  0  0
  1  6  2  0  0  0
  2  3  2  0  0  0
  2 25  1  0  0  0
  3  4  1  0  0  0
  4  5  2  0  0  0
  4 24  1  0  0  0
  5  6  1  0  0  0
  5 20  1  0  0  0
  6  9  1  0  0  0
  7 23  1  0  0  0
  7 26  1  0  0  0
  7 27  1  0  0  0
  7 28  1  0  0  0
  8 23  1  0  0  0
  8 29  1  0  0  0
  8 30  1  0  0  0
  8 31  1  0  0  0
  9 32  1  0  0  0
  9 33  1  0  0  0
 10 11  2  0  0  0
 10 14  1  0  0  0
 10 34  1  0  0  0
 11 16  1  0  0  0
 11 35  1  0  0  0
 12 13  1  0  0  0
 12 15  2  0  0  0
 12 36  1  0  0  0
 13 19  2  0  0  0
 13 37  1  0  0  0
 14 21  2  0  0  0
 14 38  1  0  0  0
 15 21  1  0  0  0
 15 39  1  0  0  0
 16 22  2  0  0  0
 16 40  1  0  0  0
 17 19  1  0  0  0
 17 20  1  0  0  0
 17 41  1  0  0  0
 17 42  1  0  0  0
 18 20  2  0  0  0
 18 24  1  0  0  0
 19 22  1  0  0  0
 21 22  1  0  0  0
 23 24  1  0  0  0
 23 43  1  0  0  0
M  END
> <s_m_source_file>
../3ncg_ligand.sdf

> <i_m_source_file_index>
1

> <s_epik_input>
bjFbY0hdbmMoW05IMl0pYyhjMTIpYyhubjJbQ0hdKFtDSDNdKVtDSDNdKVtDSDJdYyhbY0hdW2NIXVtjSF0zKWMoYzM0KVtjSF1bY0hdW2NIXVtjSF00

> <s_epik_cmdline>
J2VwaWtfYXBwJywgJy1pbWFlJywgJ2xpZ2FuZF9wcm8ubWFlJywgJy1vbWFlJywgJ2xpZ2FuZF9wcmVwLm1hZScsICctbXMnLCAnMScsICctcGgnLCAnNycsICctcGh0JywgJzAuNScsICctbnQn

> <r_lp_tautomer_probability>
1

> <r_epik_Ionization_Penalty>
  0.0013

> <r_epik_Ionization_Penalty_Charging>
  0.0000

> <r_epik_Ionization_Penalty_Neutral>
  0.0013

> <r_epik_State_Penalty>
 -0.0000

> <r_epik_Charging_Adjusted_Penalty>
0

> <i_epik_Tot_Q>
0

> <i_epik_Tot_abs_Q>
0

$$$$
