3ncq_ligand
                    3D
 Schrodinger Suite 2020-3.
 43 45  0  0  1  0            999 V2000
   12.6330   14.5100   24.8590 P   0  0  0  0  0  0
   12.1840   13.4010   24.0560 O   0  0  0  0  0  0
   12.9100   14.0210   26.3130 O   0  5  0  0  0  0
   11.6790   15.5860   24.6960 O   0  5  0  0  0  0
   15.4690   14.3050   24.2170 P   0  0  1  0  0  0
   15.5600   13.0380   24.9960 O   0  5  0  0  0  0
   16.1000   14.3040   22.8730 O   0  0  0  0  0  0
   13.9890   14.8730   24.1030 O   0  0  0  0  0  0
   15.8770   16.0320   26.5240 P   0  0  2  0  0  0
   15.4080   14.8820   27.3350 O   0  5  0  0  0  0
   15.0780   17.2520   26.3910 O   0  0  0  0  0  0
   16.1710   15.5020   25.0970 O   0  0  0  0  0  0
   17.3180   16.4420   27.0180 O   0  0  0  0  0  0
   17.8670   17.7510   27.0560 C   0  0  0  0  0  0
   19.0610   17.7230   27.9770 C   0  0  1  0  0  0
   18.6980   17.2260   29.2830 O   0  0  0  0  0  0
   20.1530   16.7720   27.5140 C   0  0  1  0  0  0
   20.9530   17.3210   26.4040 O   0  0  0  0  0  0
   20.9520   16.5000   28.7510 C   0  0  1  0  0  0
   21.7360   17.6270   29.0740 O   0  0  0  0  0  0
   19.8470   16.4940   29.7890 C   0  0  2  0  0  0
   19.3640   15.1000   30.0350 N   0  0  0  0  0  0
   18.3240   14.4670   29.3650 C   0  0  0  0  0  0
   18.1250   13.2440   29.9370 N   0  0  0  0  0  0
   19.0750   13.0820   30.9300 C   0  0  0  0  0  0
   19.4020   12.0500   31.9180 C   0  0  0  0  0  0
   18.6860   10.8870   31.9240 N   0  0  0  0  0  0
   20.4060   12.3240   32.7810 N   0  0  0  0  0  0
   21.1060   13.4830   32.7780 C   0  0  0  0  0  0
   20.8320   14.4770   31.8900 N   0  0  0  0  0  0
   19.8450   14.2870   30.9760 C   0  0  0  0  0  0
   18.1734   18.0497   26.0426 H   0  0  0  0  0  0
   17.1105   18.4551   27.4328 H   0  0  0  0  0  0
   19.4029   18.7670   28.0343 H   0  0  0  0  0  0
   19.7693   15.8428   27.0675 H   0  0  0  0  0  0
   20.4712   17.5598   25.4444 H   0  0  0  0  0  0
   21.6396   15.6448   28.6749 H   0  0  0  0  0  0
   22.6215   17.8726   28.4694 H   0  0  0  0  0  0
   20.2218   16.9605   30.7120 H   0  0  0  0  0  0
   17.7628   14.8774   28.5256 H   0  0  0  0  0  0
   17.8812   10.7328   31.1902 H   0  0  0  0  0  0
   18.9141   10.1045   32.6627 H   0  0  0  0  0  0
   21.9073   13.6230   33.5035 H   0  0  0  0  0  0
  1  2  2  0  0  0
  1  3  1  0  0  0
  1  4  1  0  0  0
  1  8  1  0  0  0
  5  6  1  0  0  0
  5  7  2  0  0  0
  5  8  1  0  0  0
  5 12  1  0  0  0
  9 10  1  0  0  0
  9 11  2  0  0  0
  9 12  1  0  0  0
  9 13  1  0  0  0
 13 14  1  0  0  0
 14 15  1  0  0  0
 14 32  1  0  0  0
 14 33  1  0  0  0
 15 16  1  0  0  0
 15 17  1  0  0  0
 15 34  1  0  0  0
 16 21  1  0  0  0
 17 18  1  0  0  0
 17 19  1  0  0  0
 17 35  1  0  0  0
 18 36  1  0  0  0
 19 20  1  0  0  0
 19 21  1  0  0  0
 19 37  1  0  0  0
 20 38  1  0  0  0
 21 22  1  0  0  0
 21 39  1  0  0  0
 22 23  1  0  0  0
 22 31  1  0  0  0
 23 24  2  0  0  0
 23 40  1  0  0  0
 24 25  1  0  0  0
 25 26  2  0  0  0
 25 31  1  0  0  0
 26 27  1  0  0  0
 26 28  1  0  0  0
 27 41  1  0  0  0
 27 42  1  0  0  0
 28 29  2  0  0  0
 29 30  1  0  0  0
 29 43  1  0  0  0
 30 31  2  0  0  0
M  CHG  4   3  -1   4  -1   6  -1  10  -1
M  END
> <s_m_source_file>
../3ncq_ligand.sdf

> <i_m_source_file_index>
1

> <s_epik_input>
Tz1QKFtPSF0pKFtPSF0pT1tQQF0oPU8pKFtPSF0pT1tQQEBdKD1PKShbT0hdKU9bQ0gyXVtDQEhdMU9bQ0BIXShbQ0BIXShbT0hdKVtDQEBIXTFbT0hdKW4oW2NIXW4yKWMoYzIzKW5bY0hdbmMzW05IMl0=

> <s_epik_cmdline>
J2VwaWtfYXBwJywgJy1pbWFlJywgJ2xpZ2FuZF9wcm8ubWFlJywgJy1vbWFlJywgJ2xpZ2FuZF9wcmVwLm1hZScsICctbXMnLCAnMScsICctcGgnLCAnNycsICctcGh0JywgJzAuNScsICctbnQn

> <r_lp_tautomer_probability>
0.999997216410988

> <r_epik_Ionization_Penalty>
  0.0818

> <r_epik_Ionization_Penalty_Charging>
  0.0813

> <r_epik_Ionization_Penalty_Neutral>
  0.0004

> <r_epik_State_Penalty>
  0.0708

> <r_epik_Charging_Adjusted_Penalty>
0.152157994418768

> <i_epik_Tot_Q>
-4

> <i_epik_Tot_abs_Q>
4

> <s_epik_Chemistry_Notes>
This compound contains an acetal/aminal-like group ( X-CH(R)-Y where X, Y are N, S, or O) that may be acid/base labile, releasing an aldehyde.

$$$$
