3ncr_ligand
                    3D
 Schrodinger Suite 2020-3.
 39 41  0  0  1  0            999 V2000
   15.8530   14.6000   24.2590 P   0  0  0  0  0  0
   15.8170   13.3490   24.9740 O   0  0  0  0  0  0
   16.6310   14.5550   23.0280 O   0  5  0  0  0  0
   14.5210   15.1260   24.0790 O   0  5  0  0  0  0
   16.1880   16.2930   26.6120 P   0  0  2  0  0  0
   15.7380   15.1140   27.3440 O   0  5  0  0  0  0
   15.3530   17.4610   26.5900 O   0  0  0  0  0  0
   16.5540   15.7750   25.1720 O   0  0  0  0  0  0
   17.6030   16.6710   27.2060 O   0  0  0  0  0  0
   18.0460   17.9730   27.4090 C   0  0  0  0  0  0
   19.3010   18.0220   28.2650 C   0  0  1  0  0  0
   19.0260   17.5170   29.5560 O   0  0  0  0  0  0
   20.4440   17.1630   27.7550 C   0  0  1  0  0  0
   21.2000   17.7200   26.6830 O   0  0  0  0  0  0
   21.2320   16.8730   29.0000 C   0  0  1  0  0  0
   22.0410   17.9660   29.3990 O   0  0  0  0  0  0
   20.1340   16.7740   30.0380 C   0  0  2  0  0  0
   19.6950   15.3990   30.3300 N   0  0  0  0  0  0
   18.7140   14.7840   29.7140 C   0  0  0  0  0  0
   18.5050   13.5590   30.2010 N   0  0  0  0  0  0
   19.4000   13.3540   31.1680 C   0  0  0  0  0  0
   19.7540   12.2760   32.0930 C   0  0  0  0  0  0
   19.1090   11.1150   32.1260 N   0  0  0  0  0  0
   20.7260   12.5200   32.9340 N   0  0  0  0  0  0
   21.4030   13.6530   32.9570 C   0  0  0  0  0  0
   21.1510   14.6560   32.1690 N   0  0  0  0  0  0
   20.1830   14.5750   31.2490 C   0  0  0  0  0  0
   18.2744   18.4381   26.4387 H   0  0  0  0  0  0
   17.2612   18.5523   27.9175 H   0  0  0  0  0  0
   19.5912   19.0815   28.3212 H   0  0  0  0  0  0
   20.1236   16.2633   27.2093 H   0  0  0  0  0  0
   20.7063   17.9651   25.7310 H   0  0  0  0  0  0
   21.9343   16.0357   28.8748 H   0  0  0  0  0  0
   22.9194   18.2477   28.7997 H   0  0  0  0  0  0
   20.4838   17.1892   30.9947 H   0  0  0  0  0  0
   18.1369   15.2220   28.8996 H   0  0  0  0  0  0
   18.2930   10.9187   31.4149 H   0  0  0  0  0  0
   19.3909   10.3500   32.8644 H   0  0  0  0  0  0
   22.2169   13.7530   33.6751 H   0  0  0  0  0  0
  1  2  2  0  0  0
  1  3  1  0  0  0
  1  4  1  0  0  0
  1  8  1  0  0  0
  5  6  1  0  0  0
  5  7  2  0  0  0
  5  8  1  0  0  0
  5  9  1  0  0  0
  9 10  1  0  0  0
 10 11  1  0  0  0
 10 28  1  0  0  0
 10 29  1  0  0  0
 11 12  1  0  0  0
 11 13  1  0  0  0
 11 30  1  0  0  0
 12 17  1  0  0  0
 13 14  1  0  0  0
 13 15  1  0  0  0
 13 31  1  0  0  0
 14 32  1  0  0  0
 15 16  1  0  0  0
 15 17  1  0  0  0
 15 33  1  0  0  0
 16 34  1  0  0  0
 17 18  1  0  0  0
 17 35  1  0  0  0
 18 19  1  0  0  0
 18 27  1  0  0  0
 19 20  2  0  0  0
 19 36  1  0  0  0
 20 21  1  0  0  0
 21 22  2  0  0  0
 21 27  1  0  0  0
 22 23  1  0  0  0
 22 24  1  0  0  0
 23 37  1  0  0  0
 23 38  1  0  0  0
 24 25  2  0  0  0
 25 26  1  0  0  0
 25 39  1  0  0  0
 26 27  2  0  0  0
M  CHG  3   3  -1   4  -1   6  -1
M  END
> <s_m_source_file>
../3ncr_ligand.sdf

> <i_m_source_file_index>
1

> <s_epik_input>
Tz1QKFtPSF0pKFtPSF0pT1tQQEBdKD1PKShbT0hdKU9bQ0gyXVtDQEhdMU9bQ0BIXShbQ0BIXShbT0hdKVtDQEBIXTFbT0hdKW4oW2NIXW4yKWMoYzIzKW5bY0hdbmMzW05IMl0=

> <s_epik_cmdline>
J2VwaWtfYXBwJywgJy1pbWFlJywgJ2xpZ2FuZF9wcm8ubWFlJywgJy1vbWFlJywgJ2xpZ2FuZF9wcmVwLm1hZScsICctbXMnLCAnMScsICctcGgnLCAnNycsICctcGh0JywgJzAuNScsICctbnQn

> <r_lp_tautomer_probability>
0.999997216410988

> <r_epik_Ionization_Penalty>
  0.1037

> <r_epik_Ionization_Penalty_Charging>
  0.1033

> <r_epik_Ionization_Penalty_Neutral>
  0.0004

> <r_epik_State_Penalty>
  0.0922

> <r_epik_Charging_Adjusted_Penalty>
0.19546844050481

> <i_epik_Tot_Q>
-3

> <i_epik_Tot_abs_Q>
3

> <s_epik_Chemistry_Notes>
This compound contains an acetal/aminal-like group ( X-CH(R)-Y where X, Y are N, S, or O) that may be acid/base labile, releasing an aldehyde.

$$$$
