3ncz_ligand
                    3D
 Schrodinger Suite 2020-3.
 41 43  0  0  1  0            999 V2000
  -14.7170   -4.0320   42.3610 C   0  0  2  0  0  0
  -15.3240   -5.2590   41.7080 C   0  0  0  0  0  0
  -15.7550   -6.2170   42.8110 C   0  0  0  0  0  0
  -16.8890   -5.5840   43.6070 C   0  0  1  0  0  0
  -16.3180   -4.3670   44.3020 C   0  0  0  0  0  0
  -15.7740   -3.3940   43.2620 C   0  0  0  0  0  0
  -12.6520    1.2200   39.0810 C   0  0  0  0  0  0
  -13.9360    0.6330   39.0580 C   0  0  0  0  0  0
  -14.9430    1.1750   38.1390 C   0  0  0  0  0  0
  -14.6330    2.2090   37.3450 C   0  0  0  0  0  0
  -13.4050    2.7990   37.3610 N   0  0  0  0  0  0
  -12.4230    2.3570   38.1740 C   0  0  0  0  0  0
  -11.6760    0.7210   39.9480 C   0  0  0  0  0  0
  -11.9720   -0.3330   40.7730 C   0  0  0  0  0  0
  -13.2350   -0.9410   40.7430 C   0  0  0  0  0  0
  -14.2140   -0.4390   39.9030 C   0  0  0  0  0  0
  -11.3410    2.9090   38.1430 O   0  0  0  0  0  0
  -10.7740   -0.9750   41.8670 Cl  0  0  0  0  0  0
  -13.5670   -1.9960   41.6150 N   0  0  0  0  0  0
  -14.3840   -3.0150   41.3060 C   0  0  0  0  0  0
  -14.8400   -3.1230   40.1950 O   0  0  0  0  0  0
  -17.9400   -5.1610   42.6850 N   0  3  0  0  0  0
  -13.8100   -4.3236   42.9109 H   0  0  0  0  0  0
  -16.1934   -4.9606   41.1038 H   0  0  0  0  0  0
  -14.5749   -5.7384   41.0607 H   0  0  0  0  0  0
  -16.0995   -7.1607   42.3630 H   0  0  0  0  0  0
  -14.9025   -6.4169   43.4768 H   0  0  0  0  0  0
  -17.3451   -6.2862   44.3204 H   0  0  0  0  0  0
  -17.1087   -3.8738   44.8863 H   0  0  0  0  0  0
  -15.5043   -4.6767   44.9743 H   0  0  0  0  0  0
  -15.3332   -2.5391   43.7957 H   0  0  0  0  0  0
  -16.6183   -3.0472   42.6480 H   0  0  0  0  0  0
  -15.9408    0.7377   38.1022 H   0  0  0  0  0  0
  -15.3908    2.5920   36.6615 H   0  0  0  0  0  0
  -13.1973    3.6547   36.7017 H   0  0  0  0  0  0
  -10.6823    1.1686   39.9681 H   0  0  0  0  0  0
  -15.2085   -0.8852   39.9027 H   0  0  0  0  0  0
  -13.1467   -2.0226   42.6312 H   0  0  0  0  0  0
  -18.3586   -6.0423   42.1770 H   0  0  0  0  0  0
  -17.5173   -4.4733   41.9377 H   0  0  0  0  0  0
  -18.7356   -4.6488   43.2460 H   0  0  0  0  0  0
  1  2  1  0  0  0
  1  6  1  0  0  0
  1 20  1  0  0  0
  1 23  1  0  0  0
  2  3  1  0  0  0
  2 24  1  0  0  0
  2 25  1  0  0  0
  3  4  1  0  0  0
  3 26  1  0  0  0
  3 27  1  0  0  0
  4  5  1  0  0  0
  4 22  1  0  0  0
  4 28  1  0  0  0
  5  6  1  0  0  0
  5 29  1  0  0  0
  5 30  1  0  0  0
  6 31  1  0  0  0
  6 32  1  0  0  0
  7  8  2  0  0  0
  7 12  1  0  0  0
  7 13  1  0  0  0
  8  9  1  0  0  0
  8 16  1  0  0  0
  9 10  2  0  0  0
  9 33  1  0  0  0
 10 11  1  0  0  0
 10 34  1  0  0  0
 11 12  1  0  0  0
 11 35  1  0  0  0
 12 17  2  0  0  0
 13 14  2  0  0  0
 13 36  1  0  0  0
 14 15  1  0  0  0
 14 18  1  0  0  0
 15 16  2  0  0  0
 15 19  1  0  0  0
 16 37  1  0  0  0
 19 20  1  0  0  0
 19 38  1  0  0  0
 20 21  2  0  0  0
 22 39  1  0  0  0
 22 40  1  0  0  0
 22 41  1  0  0  0
M  CHG  1  22   1
M  END
> <s_m_source_file>
../3ncz_ligand.sdf

> <i_m_source_file_index>
1

> <s_epik_input>
W0NIMl0xW0NIMl1bQ0BASF0oW05IMytdKVtDSDJdW0NIMl1bQ0BIXTFDKD1PKVtOSF1jKGMoQ2wpW2NIXTIpW2NIXWMoYzIzKVtjSF1bY0hdW25IXWMzPU8=

> <s_epik_cmdline>
J2VwaWtfYXBwJywgJy1pbWFlJywgJ2xpZ2FuZF9wcm8ubWFlJywgJy1vbWFlJywgJ2xpZ2FuZF9wcmVwLm1hZScsICctbXMnLCAnMScsICctcGgnLCAnNycsICctcGh0JywgJzAuNScsICctbnQn

> <r_lp_tautomer_probability>
1

> <r_epik_Ionization_Penalty>
  0.0007

> <r_epik_Ionization_Penalty_Charging>
  0.0007

> <r_epik_Ionization_Penalty_Neutral>
  0.0000

> <r_epik_State_Penalty>
 -0.0000

> <r_epik_Charging_Adjusted_Penalty>
0.000674635493730566

> <i_epik_Tot_Q>
1

> <i_epik_Tot_abs_Q>
1

$$$$
