3nee_ligand
                    3D
 Schrodinger Suite 2020-3.
 47 48  0  0  1  0            999 V2000
  -19.5200   -2.2660    2.3740 O   0  5  0  0  0  0
  -20.7120   -1.9000    2.5000 C   0  0  0  0  0  0
  -21.6530   -2.6440    2.8460 O   0  0  0  0  0  0
  -21.0670   -0.4490    2.1990 C   0  0  0  0  0  0
  -22.3370   -0.4600    1.4950 O   0  0  0  0  0  0
  -22.0600   -0.2040    0.1910 C   0  0  0  0  0  0
  -21.0090   -0.8810   -0.4040 C   0  0  0  0  0  0
  -20.6870   -0.6420   -1.7310 C   0  0  0  0  0  0
  -19.5180   -1.4060   -2.3690 C   0  0  0  0  0  0
  -21.4130    0.2700   -2.4940 C   0  0  0  0  0  0
  -22.4630    0.9580   -1.8760 C   0  0  0  0  0  0
  -22.7920    0.7230   -0.5420 C   0  0  0  0  0  0
  -23.2740    1.9780   -2.6880 C   0  0  0  0  0  0
  -21.0040    0.5230   -3.9540 C   0  0  0  0  0  0
  -21.7990   -0.2540   -5.0080 C   0  0  0  0  0  0
  -21.6730    0.1520   -6.3340 C   0  0  0  0  0  0
  -22.3560   -0.5080   -7.3490 C   0  0  0  0  0  0
  -22.2150   -0.0510   -8.8110 C   0  0  0  0  0  0
  -22.0950    1.4690   -8.8360 C   0  0  0  0  0  0
  -20.9600   -0.6650   -9.4240 C   0  0  0  0  0  0
  -23.1700   -1.5840   -7.0200 C   0  0  0  0  0  0
  -23.8520   -2.2220   -8.0000 O   0  0  0  0  0  0
  -23.2990   -1.9930   -5.6960 C   0  0  0  0  0  0
  -22.6130   -1.3360   -4.6800 C   0  0  0  0  0  0
  -21.1501    0.1113    3.1419 H   0  0  0  0  0  0
  -20.2802   -0.0010    1.5744 H   0  0  0  0  0  0
  -20.4328   -1.6044    0.1729 H   0  0  0  0  0  0
  -19.0666   -2.0758   -1.6222 H   0  0  0  0  0  0
  -18.7621   -0.6899   -2.7238 H   0  0  0  0  0  0
  -19.8878   -1.9996   -3.2181 H   0  0  0  0  0  0
  -23.6173    1.2622   -0.0770 H   0  0  0  0  0  0
  -22.8755    2.0317   -3.7119 H   0  0  0  0  0  0
  -23.1993    2.9674   -2.2131 H   0  0  0  0  0  0
  -24.3282    1.6656   -2.7208 H   0  0  0  0  0  0
  -21.1345    1.5890   -4.1919 H   0  0  0  0  0  0
  -19.9495    0.2427   -4.0932 H   0  0  0  0  0  0
  -21.0308    0.9979   -6.5791 H   0  0  0  0  0  0
  -23.0906   -0.3696   -9.3957 H   0  0  0  0  0  0
  -22.9983    1.9154   -8.3947 H   0  0  0  0  0  0
  -21.9874    1.8112   -9.8758 H   0  0  0  0  0  0
  -21.2128    1.7767   -8.2555 H   0  0  0  0  0  0
  -21.0429   -1.7618   -9.4077 H   0  0  0  0  0  0
  -20.0789   -0.3552   -8.8429 H   0  0  0  0  0  0
  -20.8535   -0.3207  -10.4633 H   0  0  0  0  0  0
  -23.7472   -1.8955   -9.0452 H   0  0  0  0  0  0
  -23.9444   -2.8370   -5.4527 H   0  0  0  0  0  0
  -22.7106   -1.6622   -3.6445 H   0  0  0  0  0  0
  1  2  1  0  0  0
  2  3  2  0  0  0
  2  4  1  0  0  0
  4  5  1  0  0  0
  4 25  1  0  0  0
  4 26  1  0  0  0
  5  6  1  0  0  0
  6  7  2  0  0  0
  6 12  1  0  0  0
  7  8  1  0  0  0
  7 27  1  0  0  0
  8  9  1  0  0  0
  8 10  2  0  0  0
  9 28  1  0  0  0
  9 29  1  0  0  0
  9 30  1  0  0  0
 10 11  1  0  0  0
 10 14  1  0  0  0
 11 12  2  0  0  0
 11 13  1  0  0  0
 12 31  1  0  0  0
 13 32  1  0  0  0
 13 33  1  0  0  0
 13 34  1  0  0  0
 14 15  1  0  0  0
 14 35  1  0  0  0
 14 36  1  0  0  0
 15 16  2  0  0  0
 15 24  1  0  0  0
 16 17  1  0  0  0
 16 37  1  0  0  0
 17 18  1  0  0  0
 17 21  2  0  0  0
 18 19  1  0  0  0
 18 20  1  0  0  0
 18 38  1  0  0  0
 19 39  1  0  0  0
 19 40  1  0  0  0
 19 41  1  0  0  0
 20 42  1  0  0  0
 20 43  1  0  0  0
 20 44  1  0  0  0
 21 22  1  0  0  0
 21 23  1  0  0  0
 22 45  1  0  0  0
 23 24  2  0  0  0
 23 46  1  0  0  0
 24 47  1  0  0  0
M  CHG  1   1  -1
M  END
> <s_m_source_file>
../3nee_ligand.sdf

> <i_m_source_file_index>
1

> <s_epik_input>
W09IXUMoPU8pW0NIMl1PYzFbY0hdYyhbQ0gzXSljKGMoW2NIXTEpW0NIM10pW0NIMl1jMltjSF1jKFtDSF0oW0NIM10pW0NIM10pYyhbT0hdKVtjSF1bY0hdMg==

> <s_epik_cmdline>
J2VwaWtfYXBwJywgJy1pbWFlJywgJ2xpZ2FuZF9wcm8ubWFlJywgJy1vbWFlJywgJ2xpZ2FuZF9wcmVwLm1hZScsICctbXMnLCAnMScsICctcGgnLCAnNycsICctcGh0JywgJzAuNScsICctbnQn

> <r_lp_tautomer_probability>
1

> <r_epik_Ionization_Penalty>
  0.0002

> <r_epik_Ionization_Penalty_Charging>
  0.0001

> <r_epik_Ionization_Penalty_Neutral>
  0.0001

> <r_epik_State_Penalty>
 -0.0000

> <r_epik_Charging_Adjusted_Penalty>
5.44951621730664e-05

> <i_epik_Tot_Q>
-1

> <i_epik_Tot_abs_Q>
1

$$$$
