3nef_ligand
                    3D
 Schrodinger Suite 2020-3.
 35 37  0  0  1  0            999 V2000
  -54.9610   40.2900  -22.2550 S   0  0  0  0  0  0
  -60.9540   39.8970  -24.3040 Br  0  0  0  0  0  0
  -59.1820   40.1190  -23.6700 C   0  0  0  0  0  0
  -54.9590   40.8390  -20.7420 N   0  0  3  0  0  0
  -54.1590   41.1450  -23.0720 O   0  0  0  0  0  0
  -58.6460   41.4640  -23.3350 C   0  0  0  0  0  0
  -57.3020   39.7430  -18.0860 N   0  0  0  0  0  0
  -54.4580   38.9460  -22.2920 O   0  0  0  0  0  0
  -57.2490   41.5630  -22.8760 C   0  0  0  0  0  0
  -56.4650   40.3140  -22.7660 C   0  0  0  0  0  0
  -57.0540   39.1090  -23.1020 C   0  0  0  0  0  0
  -58.3670   39.0070  -23.5340 C   0  0  0  0  0  0
  -56.7330   42.8100  -22.5750 C   0  0  0  0  0  0
  -57.5360   43.9480  -22.7050 C   0  0  0  0  0  0
  -58.8540   43.8530  -23.1300 C   0  0  0  0  0  0
  -59.4090   42.6160  -23.4570 C   0  0  0  0  0  0
  -55.3270   40.0160  -19.6050 C   0  0  0  0  0  0
  -56.7260   40.3910  -19.1230 C   0  0  0  0  0  0
  -58.5280   40.0500  -17.6340 C   0  0  0  0  0  0
  -59.2690   41.0630  -18.2240 C   0  0  0  0  0  0
  -58.7010   41.7430  -19.2800 C   0  0  0  0  0  0
  -57.4290   41.4150  -19.7280 C   0  0  0  0  0  0
  -54.8220   41.9230  -20.6149 H   0  0  0  0  0  0
  -56.4593   38.1989  -23.0237 H   0  0  0  0  0  0
  -58.7702   38.0231  -23.7738 H   0  0  0  0  0  0
  -55.7013   42.9062  -22.2367 H   0  0  0  0  0  0
  -57.1192   44.9270  -22.4683 H   0  0  0  0  0  0
  -59.4615   44.7545  -23.2090 H   0  0  0  0  0  0
  -60.4393   42.5546  -23.8074 H   0  0  0  0  0  0
  -55.3171   38.9566  -19.9008 H   0  0  0  0  0  0
  -54.6072   40.1755  -18.7886 H   0  0  0  0  0  0
  -58.9462   39.4965  -16.7932 H   0  0  0  0  0  0
  -60.2672   41.3131  -17.8647 H   0  0  0  0  0  0
  -59.2555   42.5450  -19.7673 H   0  0  0  0  0  0
  -56.9846   41.9654  -20.5573 H   0  0  0  0  0  0
  1  4  1  0  0  0
  1  5  2  0  0  0
  1  8  2  0  0  0
  1 10  1  0  0  0
  2  3  1  0  0  0
  3  6  2  0  0  0
  3 12  1  0  0  0
  4 17  1  0  0  0
  4 23  1  0  0  0
  6  9  1  0  0  0
  6 16  1  0  0  0
  7 18  2  0  0  0
  7 19  1  0  0  0
  9 10  2  0  0  0
  9 13  1  0  0  0
 10 11  1  0  0  0
 11 12  2  0  0  0
 11 24  1  0  0  0
 12 25  1  0  0  0
 13 14  2  0  0  0
 13 26  1  0  0  0
 14 15  1  0  0  0
 14 27  1  0  0  0
 15 16  2  0  0  0
 15 28  1  0  0  0
 16 29  1  0  0  0
 17 18  1  0  0  0
 17 30  1  0  0  0
 17 31  1  0  0  0
 18 22  1  0  0  0
 19 20  2  0  0  0
 19 32  1  0  0  0
 20 21  1  0  0  0
 20 33  1  0  0  0
 21 22  2  0  0  0
 21 34  1  0  0  0
 22 35  1  0  0  0
M  END
> <s_m_source_file>
../3nef_ligand.sdf

> <i_m_source_file_index>
1

> <s_epik_input>
W2NIXTFbY0hdW2NIXVtjSF1jKGMxMiljKFtjSF1bY0hdYzJCcilTKD1PKSg9TylbTkhdW0NIMl1jM25bY0hdW2NIXVtjSF1bY0hdMw==

> <s_epik_cmdline>
J2VwaWtfYXBwJywgJy1pbWFlJywgJ2xpZ2FuZF9wcm8ubWFlJywgJy1vbWFlJywgJ2xpZ2FuZF9wcmVwLm1hZScsICctbXMnLCAnMScsICctcGgnLCAnNycsICctcGh0JywgJzAuNScsICctbnQn

> <r_lp_tautomer_probability>
1

> <r_epik_Ionization_Penalty>
  0.0292

> <r_epik_Ionization_Penalty_Charging>
  0.0000

> <r_epik_Ionization_Penalty_Neutral>
  0.0292

> <r_epik_State_Penalty>
 -0.0000

> <r_epik_Charging_Adjusted_Penalty>
0

> <i_epik_Tot_Q>
0

> <i_epik_Tot_abs_Q>
0

$$$$
