3neo_ligand
                    3D
 Schrodinger Suite 2020-3.
 51 53  0  0  1  0            999 V2000
   21.3500   -2.4670  -22.5690 C   0  0  0  0  0  0
   20.6680   -2.6870  -21.3710 C   0  0  0  0  0  0
   20.4240   -1.6400  -20.4850 C   0  0  0  0  0  0
   20.8730   -0.3600  -20.8100 C   0  0  0  0  0  0
   21.5670   -0.1750  -22.0530 C   0  0  0  0  0  0
   21.7640   -1.1830  -22.8770 C   0  0  0  0  0  0
   22.5350   -0.8100  -24.1200 C   0  0  0  0  0  0
   21.7450   -0.0210  -25.1610 C   0  0  0  0  0  0
   21.9360   -0.5680  -26.3940 C   0  0  0  0  0  0
   20.9350    1.1210  -25.0520 C   0  0  0  0  0  0
   20.7120    1.7630  -23.8580 O   0  0  0  0  0  0
   20.3360    1.6520  -26.2000 C   0  0  0  0  0  0
   20.5420    1.0660  -27.4490 C   0  0  0  0  0  0
   21.3550   -0.0520  -27.5080 C   0  0  0  0  0  0
   21.7090   -0.8420  -28.7160 C   0  0  0  0  0  0
   21.4020   -0.1750  -29.9980 C   0  0  0  0  0  0
   20.3040   -0.6220  -30.7090 C   0  0  0  0  0  0
   19.4500   -1.7390  -30.1050 C   0  0  0  0  0  0
   19.9840   -0.0550  -31.9310 C   0  0  0  0  0  0
   22.2120    0.8300  -30.5030 C   0  0  0  0  0  0
   23.4320    1.2980  -29.6990 C   0  0  0  0  0  0
   21.9020    1.4030  -31.7240 C   0  0  0  0  0  0
   20.7910    0.9600  -32.4300 C   0  0  0  0  0  0
   20.5130    1.5380  -33.6230 O   0  0  0  0  0  0
   21.4190    2.6210  -33.8100 C   0  0  0  0  0  0
   22.5760    2.2620  -34.7420 C   0  0  0  0  0  0
   22.5230    2.6760  -35.9200 O   0  5  0  0  0  0
   23.5180    1.5870  -34.2770 O   0  0  0  0  0  0
   21.5531   -3.2930  -23.2506 H   0  0  0  0  0  0
   20.3219   -3.6910  -21.1256 H   0  0  0  0  0  0
   19.8901   -1.8184  -19.5516 H   0  0  0  0  0  0
   20.7011    0.4795  -20.1364 H   0  0  0  0  0  0
   21.9366    0.8154  -22.3188 H   0  0  0  0  0  0
   23.3981   -0.1869  -23.8429 H   0  0  0  0  0  0
   22.8880   -1.7237  -24.6205 H   0  0  0  0  0  0
   22.5744   -1.4463  -26.4894 H   0  0  0  0  0  0
   21.1650    1.3769  -22.9330 H   0  0  0  0  0  0
   19.7009    2.5340  -26.1171 H   0  0  0  0  0  0
   20.0787    1.4746  -28.3471 H   0  0  0  0  0  0
   22.7893   -1.0494  -28.7149 H   0  0  0  0  0  0
   21.1534   -1.7913  -28.7091 H   0  0  0  0  0  0
   19.8764   -2.0445  -29.1381 H   0  0  0  0  0  0
   19.4367   -2.6007  -30.7885 H   0  0  0  0  0  0
   18.4231   -1.3747  -29.9542 H   0  0  0  0  0  0
   19.1146   -0.3987  -32.4914 H   0  0  0  0  0  0
   23.5000    0.7195  -28.7659 H   0  0  0  0  0  0
   23.3263    2.3667  -29.4610 H   0  0  0  0  0  0
   24.3444    1.1432  -30.2937 H   0  0  0  0  0  0
   22.5270    2.1985  -32.1298 H   0  0  0  0  0  0
   20.8833    3.4756  -34.2490 H   0  0  0  0  0  0
   21.8448    2.9147  -32.8392 H   0  0  0  0  0  0
  1  2  2  0  0  0
  1  6  1  0  0  0
  1 29  1  0  0  0
  2  3  1  0  0  0
  2 30  1  0  0  0
  3  4  2  0  0  0
  3 31  1  0  0  0
  4  5  1  0  0  0
  4 32  1  0  0  0
  5  6  2  0  0  0
  5 33  1  0  0  0
  6  7  1  0  0  0
  7  8  1  0  0  0
  7 34  1  0  0  0
  7 35  1  0  0  0
  8  9  2  0  0  0
  8 10  1  0  0  0
  9 14  1  0  0  0
  9 36  1  0  0  0
 10 11  1  0  0  0
 10 12  2  0  0  0
 11 37  1  0  0  0
 12 13  1  0  0  0
 12 38  1  0  0  0
 13 14  2  0  0  0
 13 39  1  0  0  0
 14 15  1  0  0  0
 15 16  1  0  0  0
 15 40  1  0  0  0
 15 41  1  0  0  0
 16 17  2  0  0  0
 16 20  1  0  0  0
 17 18  1  0  0  0
 17 19  1  0  0  0
 18 42  1  0  0  0
 18 43  1  0  0  0
 18 44  1  0  0  0
 19 23  2  0  0  0
 19 45  1  0  0  0
 20 21  1  0  0  0
 20 22  2  0  0  0
 21 46  1  0  0  0
 21 47  1  0  0  0
 21 48  1  0  0  0
 22 23  1  0  0  0
 22 49  1  0  0  0
 23 24  1  0  0  0
 24 25  1  0  0  0
 25 26  1  0  0  0
 25 50  1  0  0  0
 25 51  1  0  0  0
 26 27  1  0  0  0
 26 28  2  0  0  0
M  CHG  1  27  -1
M  END
> <s_m_source_file>
../3neo_ligand.sdf

> <i_m_source_file_index>
1

> <s_epik_input>
W2NIXTFbY0hdW2NIXVtjSF1bY0hdYzFbQ0gyXWMyW2NIXWMoW2NIXVtjSF1jMltPSF0pW0NIMl1jM2MoW0NIM10pW2NIXWMoW2NIXWMzW0NIM10pT1tDSDJdQyg9TylbT0hd

> <s_epik_cmdline>
J2VwaWtfYXBwJywgJy1pbWFlJywgJ2xpZ2FuZF9wcm8ubWFlJywgJy1vbWFlJywgJ2xpZ2FuZF9wcmVwLm1hZScsICctbXMnLCAnMScsICctcGgnLCAnNycsICctcGh0JywgJzAuNScsICctbnQn

> <r_lp_tautomer_probability>
1

> <r_epik_Ionization_Penalty>
  0.0002

> <r_epik_Ionization_Penalty_Charging>
  0.0001

> <r_epik_Ionization_Penalty_Neutral>
  0.0002

> <r_epik_State_Penalty>
 -0.0000

> <r_epik_Charging_Adjusted_Penalty>
5.44951621730664e-05

> <i_epik_Tot_Q>
-1

> <i_epik_Tot_abs_Q>
1

$$$$
