3nes_ligand
                    3D
 Schrodinger Suite 2020-3.
 47 48  0  0  1  0            999 V2000
    3.4620   -1.5490    2.4280 O   0  5  0  0  0  0
    2.2880   -1.1400    2.2930 C   0  0  0  0  0  0
    1.2850   -1.8710    2.4360 O   0  0  0  0  0  0
    2.0650    0.3420    1.9420 C   0  0  0  0  0  0
    0.8060    0.8410    1.3820 O   0  0  0  0  0  0
    0.4620    0.4830    0.0960 C   0  0  0  0  0  0
    1.2160   -0.4380   -0.6190 C   0  0  0  0  0  0
    0.8480   -0.7650   -1.9180 C   0  0  0  0  0  0
    1.6990   -1.7870   -2.6900 C   0  0  0  0  0  0
   -0.2810   -0.1830   -2.5130 C   0  0  0  0  0  0
   -1.0450    0.7160   -1.7840 C   0  0  0  0  0  0
   -0.6670    1.0520   -0.4900 C   0  0  0  0  0  0
   -2.3000    1.3570   -2.4030 C   0  0  0  0  0  0
   -0.7220   -0.5950   -3.9120 C   0  0  0  0  0  0
    0.0290    0.0960   -5.0030 C   0  0  0  0  0  0
   -0.1750   -0.3030   -6.3290 C   0  0  0  0  0  0
    0.5050    0.3500   -7.3270 C   0  0  0  0  0  0
    0.3770   -0.0220   -8.8150 C   0  0  0  0  0  0
   -0.7460   -1.0360   -9.0110 C   0  0  0  0  0  0
    0.0970    1.2460   -9.6070 C   0  0  0  0  0  0
    1.3420    1.3840   -6.9630 C   0  0  0  0  0  0
    2.0020    2.0110   -7.9540 O   0  0  0  0  0  0
    1.5230    1.7870   -5.6400 C   0  0  0  0  0  0
    0.8480    1.1360   -4.6350 C   0  0  0  0  0  0
    2.1832    0.9551    2.8476 H   0  0  0  0  0  0
    2.8024    0.6553    1.1883 H   0  0  0  0  0  0
    2.0912   -0.9015   -0.1638 H   0  0  0  0  0  0
    2.5325   -2.1236   -2.0560 H   0  0  0  0  0  0
    2.0979   -1.3180   -3.6015 H   0  0  0  0  0  0
    1.0753   -2.6505   -2.9647 H   0  0  0  0  0  0
   -1.2616    1.7704    0.0744 H   0  0  0  0  0  0
   -2.4412    0.9744   -3.4246 H   0  0  0  0  0  0
   -2.1761    2.4495   -2.4345 H   0  0  0  0  0  0
   -3.1795    1.1051   -1.7923 H   0  0  0  0  0  0
   -0.5683   -1.6765   -4.0412 H   0  0  0  0  0  0
   -1.7878   -0.3576   -4.0453 H   0  0  0  0  0  0
   -0.8608   -1.1168   -6.5648 H   0  0  0  0  0  0
    1.3084   -0.4793   -9.1802 H   0  0  0  0  0  0
   -0.5252   -1.9443   -8.4312 H   0  0  0  0  0  0
   -0.8264   -1.2924  -10.0777 H   0  0  0  0  0  0
   -1.6960   -0.6023   -8.6654 H   0  0  0  0  0  0
    0.9167    1.9632   -9.4527 H   0  0  0  0  0  0
   -0.8489    1.6909   -9.2644 H   0  0  0  0  0  0
    0.0207    1.0009  -10.6766 H   0  0  0  0  0  0
    1.8590    1.6930   -8.9973 H   0  0  0  0  0  0
    2.1950    2.6123   -5.4047 H   0  0  0  0  0  0
    0.9577    1.4319   -3.5917 H   0  0  0  0  0  0
  1  2  1  0  0  0
  2  3  2  0  0  0
  2  4  1  0  0  0
  4  5  1  0  0  0
  4 25  1  0  0  0
  4 26  1  0  0  0
  5  6  1  0  0  0
  6  7  2  0  0  0
  6 12  1  0  0  0
  7  8  1  0  0  0
  7 27  1  0  0  0
  8  9  1  0  0  0
  8 10  2  0  0  0
  9 28  1  0  0  0
  9 29  1  0  0  0
  9 30  1  0  0  0
 10 11  1  0  0  0
 10 14  1  0  0  0
 11 12  2  0  0  0
 11 13  1  0  0  0
 12 31  1  0  0  0
 13 32  1  0  0  0
 13 33  1  0  0  0
 13 34  1  0  0  0
 14 15  1  0  0  0
 14 35  1  0  0  0
 14 36  1  0  0  0
 15 16  2  0  0  0
 15 24  1  0  0  0
 16 17  1  0  0  0
 16 37  1  0  0  0
 17 18  1  0  0  0
 17 21  2  0  0  0
 18 19  1  0  0  0
 18 20  1  0  0  0
 18 38  1  0  0  0
 19 39  1  0  0  0
 19 40  1  0  0  0
 19 41  1  0  0  0
 20 42  1  0  0  0
 20 43  1  0  0  0
 20 44  1  0  0  0
 21 22  1  0  0  0
 21 23  1  0  0  0
 22 45  1  0  0  0
 23 24  2  0  0  0
 23 46  1  0  0  0
 24 47  1  0  0  0
M  CHG  1   1  -1
M  END
> <s_m_source_file>
../3nes_ligand.sdf

> <i_m_source_file_index>
1

> <s_epik_input>
W09IXUMoPU8pW0NIMl1PYzFbY0hdYyhbQ0gzXSljKGMoW2NIXTEpW0NIM10pW0NIMl1jMltjSF1jKFtDSF0oW0NIM10pW0NIM10pYyhbT0hdKVtjSF1bY0hdMg==

> <s_epik_cmdline>
J2VwaWtfYXBwJywgJy1pbWFlJywgJ2xpZ2FuZF9wcm8ubWFlJywgJy1vbWFlJywgJ2xpZ2FuZF9wcmVwLm1hZScsICctbXMnLCAnMScsICctcGgnLCAnNycsICctcGh0JywgJzAuNScsICctbnQn

> <r_lp_tautomer_probability>
1

> <r_epik_Ionization_Penalty>
  0.0002

> <r_epik_Ionization_Penalty_Charging>
  0.0001

> <r_epik_Ionization_Penalty_Neutral>
  0.0001

> <r_epik_State_Penalty>
 -0.0000

> <r_epik_Charging_Adjusted_Penalty>
5.44951621730664e-05

> <i_epik_Tot_Q>
-1

> <i_epik_Tot_abs_Q>
1

$$$$
