3nex_ligand
                    3D
 Schrodinger Suite 2020-3.
 51 53  0  0  1  0            999 V2000
    0.0120    0.0710   10.9670 C   0  0  0  0  0  0
    0.7200    0.9110   11.8010 C   0  0  0  0  0  0
    0.9490    2.2340   11.4420 C   0  0  0  0  0  0
    0.4500    2.7640   10.2670 C   0  0  0  0  0  0
   -0.2740    1.9280    9.4300 C   0  0  0  0  0  0
   -0.4910    0.5960    9.7830 C   0  0  0  0  0  0
   -1.2860   -0.3190    8.8450 C   0  0  0  0  0  0
   -0.4130   -0.6430    7.6340 C   0  0  0  0  0  0
   -0.6710    0.0230    6.4590 C   0  0  0  0  0  0
    0.6280   -1.5570    7.6830 C   0  0  0  0  0  0
    0.8380   -2.1820    8.8660 O   0  0  0  0  0  0
    1.4030   -1.8000    6.5430 C   0  0  0  0  0  0
    1.1170   -1.1240    5.3450 C   0  0  0  0  0  0
    0.0720   -0.1970    5.3250 C   0  0  0  0  0  0
   -0.3690    0.6270    4.1260 C   0  0  0  0  0  0
   -0.0130    0.0930    2.7330 C   0  0  0  0  0  0
   -0.7840   -0.8530    2.0640 C   0  0  0  0  0  0
   -2.0230   -1.4490    2.7310 C   0  0  0  0  0  0
   -0.4410   -1.2920    0.7890 C   0  0  0  0  0  0
    1.0890    0.6100    2.0630 C   0  0  0  0  0  0
    1.9510    1.6620    2.7530 C   0  0  0  0  0  0
    1.4470    0.1900    0.7870 C   0  0  0  0  0  0
    0.6780   -0.7710    0.1470 C   0  0  0  0  0  0
    1.0310   -1.2010   -1.1010 O   0  0  0  0  0  0
    0.0850   -2.1740   -1.6200 C   0  0  0  0  0  0
   -1.2790   -1.6070   -2.0590 C   0  0  0  0  0  0
   -1.3580   -0.4010   -2.3860 O   0  5  0  0  0  0
   -2.2690   -2.3710   -2.0330 O   0  0  0  0  0  0
   -0.1483   -0.9748   11.2293 H   0  0  0  0  0  0
    1.1030    0.5342   12.7494 H   0  0  0  0  0  0
    1.5371    2.8698   12.1039 H   0  0  0  0  0  0
    0.6205    3.8084   10.0058 H   0  0  0  0  0  0
   -0.6751    2.3134    8.4926 H   0  0  0  0  0  0
   -1.5528   -1.2450    9.3753 H   0  0  0  0  0  0
   -2.2029    0.1953    8.5213 H   0  0  0  0  0  0
   -1.4870    0.7449    6.4267 H   0  0  0  0  0  0
    0.1979   -1.9524    9.7306 H   0  0  0  0  0  0
    2.2269   -2.5124    6.5846 H   0  0  0  0  0  0
    1.7010   -1.3197    4.4457 H   0  0  0  0  0  0
   -1.4648    0.7231    4.1302 H   0  0  0  0  0  0
    0.0869    1.6266    4.1804 H   0  0  0  0  0  0
   -2.1550   -1.0004    3.7266 H   0  0  0  0  0  0
   -1.8970   -2.5370    2.8328 H   0  0  0  0  0  0
   -2.9088   -1.2386    2.1136 H   0  0  0  0  0  0
   -1.0508   -2.0463    0.2917 H   0  0  0  0  0  0
    1.5351    1.8822    3.7472 H   0  0  0  0  0  0
    1.9622    2.5809    2.1484 H   0  0  0  0  0  0
    2.9775    1.2816    2.8610 H   0  0  0  0  0  0
    2.3232    0.6116    0.2943 H   0  0  0  0  0  0
    0.5144   -2.6671   -2.5046 H   0  0  0  0  0  0
   -0.1273   -2.9274   -0.8471 H   0  0  0  0  0  0
  1  2  2  0  0  0
  1  6  1  0  0  0
  1 29  1  0  0  0
  2  3  1  0  0  0
  2 30  1  0  0  0
  3  4  2  0  0  0
  3 31  1  0  0  0
  4  5  1  0  0  0
  4 32  1  0  0  0
  5  6  2  0  0  0
  5 33  1  0  0  0
  6  7  1  0  0  0
  7  8  1  0  0  0
  7 34  1  0  0  0
  7 35  1  0  0  0
  8  9  2  0  0  0
  8 10  1  0  0  0
  9 14  1  0  0  0
  9 36  1  0  0  0
 10 11  1  0  0  0
 10 12  2  0  0  0
 11 37  1  0  0  0
 12 13  1  0  0  0
 12 38  1  0  0  0
 13 14  2  0  0  0
 13 39  1  0  0  0
 14 15  1  0  0  0
 15 16  1  0  0  0
 15 40  1  0  0  0
 15 41  1  0  0  0
 16 17  2  0  0  0
 16 20  1  0  0  0
 17 18  1  0  0  0
 17 19  1  0  0  0
 18 42  1  0  0  0
 18 43  1  0  0  0
 18 44  1  0  0  0
 19 23  2  0  0  0
 19 45  1  0  0  0
 20 21  1  0  0  0
 20 22  2  0  0  0
 21 46  1  0  0  0
 21 47  1  0  0  0
 21 48  1  0  0  0
 22 23  1  0  0  0
 22 49  1  0  0  0
 23 24  1  0  0  0
 24 25  1  0  0  0
 25 26  1  0  0  0
 25 50  1  0  0  0
 25 51  1  0  0  0
 26 27  1  0  0  0
 26 28  2  0  0  0
M  CHG  1  27  -1
M  END
> <s_m_source_file>
../3nex_ligand.sdf

> <i_m_source_file_index>
1

> <s_epik_input>
W2NIXTFbY0hdW2NIXVtjSF1bY0hdYzFbQ0gyXWMyW2NIXWMoW2NIXVtjSF1jMltPSF0pW0NIMl1jM2MoW0NIM10pW2NIXWMoW2NIXWMzW0NIM10pT1tDSDJdQyg9TylbT0hd

> <s_epik_cmdline>
J2VwaWtfYXBwJywgJy1pbWFlJywgJ2xpZ2FuZF9wcm8ubWFlJywgJy1vbWFlJywgJ2xpZ2FuZF9wcmVwLm1hZScsICctbXMnLCAnMScsICctcGgnLCAnNycsICctcGh0JywgJzAuNScsICctbnQn

> <r_lp_tautomer_probability>
1

> <r_epik_Ionization_Penalty>
  0.0002

> <r_epik_Ionization_Penalty_Charging>
  0.0001

> <r_epik_Ionization_Penalty_Neutral>
  0.0002

> <r_epik_State_Penalty>
 -0.0000

> <r_epik_Charging_Adjusted_Penalty>
5.44951621730664e-05

> <i_epik_Tot_Q>
-1

> <i_epik_Tot_abs_Q>
1

$$$$
