3nf3_ligand
                    3D
 Schrodinger Suite 2020-3.
132132  0  0  1  0            999 V2000
   16.7050   33.5580    6.0930 N   0  3  0  0  0  0
   17.7540   34.3590    5.4740 C   0  0  2  0  0  0
   17.9120   35.7260    6.1170 C   0  0  0  0  0  0
   16.9380   36.3610    6.5120 O   0  0  0  0  0  0
   17.5000   34.5240    3.9790 C   0  0  0  0  0  0
   17.7260   33.2490    3.1830 C   0  0  0  0  0  0
   17.6760   33.5040    1.6840 C   0  0  0  0  0  0
   16.3790   33.1580    1.1160 N   0  0  0  0  0  0
   16.0510   31.9370    0.7030 C   0  0  0  0  0  0
   14.8480   31.7060    0.1970 N   0  3  0  0  0  0
   16.9280   30.9450    0.7980 N   0  0  0  0  0  0
   19.1580   36.1710    6.2130 N   0  0  0  0  0  0
   19.4660   37.4940    6.7280 C   0  0  2  0  0  0
   19.1240   38.5480    5.6840 C   0  0  0  0  0  0
   19.0860   38.2630    4.4840 O   0  0  0  0  0  0
   20.9480   37.5820    7.0890 C   0  0  0  0  0  0
   21.3930   36.5200    8.0810 C   0  0  0  0  0  0
   22.9010   36.3800    8.1010 C   0  0  0  0  0  0
   23.5590   37.6780    8.2090 N   0  0  0  0  0  0
   24.4680   38.1210    7.3480 C   0  0  0  0  0  0
   24.8330   37.3610    6.3210 N   0  0  0  0  0  0
   25.0150   39.3170    7.5140 N   0  3  0  0  0  0
   18.8850   39.7670    6.1520 N   0  0  0  0  0  0
   18.5380   40.8860    5.2850 C   0  0  2  0  0  0
   19.5310   41.0630    4.1360 C   0  0  0  0  0  0
   19.1590   41.5130    3.0530 O   0  0  0  0  0  0
   18.4380   42.1680    6.1160 C   0  0  0  0  0  0
   18.1790   43.3990    5.3070 C   0  0  0  0  0  0
   16.9730   43.5670    4.6430 C   0  0  0  0  0  0
   19.1310   44.4010    5.2280 C   0  0  0  0  0  0
   16.7250   44.7060    3.8990 C   0  0  0  0  0  0
   18.8880   45.5460    4.4890 C   0  0  0  0  0  0
   17.6820   45.6970    3.8230 C   0  0  0  0  0  0
   20.7880   40.7020    4.3740 N   0  0  0  0  0  0
   21.8330   40.8150    3.3620 C   0  0  0  0  0  0
   21.4200   40.1240    2.0580 C   0  0  0  0  0  0
   21.9110   40.6100    0.8410 O   0  0  0  0  0  0
   22.1310   42.2880    3.0850 C   0  0  0  0  0  0
   23.1100   40.1540    3.8790 C   0  0  0  0  0  0
   20.6000   39.0800    2.1520 N   0  0  0  0  0  0
   20.2230   38.2860    0.9820 C   0  0  2  0  0  0
   19.1360   38.9400    0.1250 C   0  0  0  0  0  0
   18.7760   38.4180   -0.9300 O   0  0  0  0  0  0
   19.7970   36.8800    1.4020 C   0  0  0  0  0  0
   18.6080   40.0730    0.5800 N   0  0  0  0  0  0
   17.6460   40.8250   -0.2160 C   0  0  2  0  0  0
   18.3840   41.7920   -1.1340 C   0  0  0  0  0  0
   17.7720   42.4830   -1.9510 O   0  0  0  0  0  0
   16.6750   41.5900    0.6860 C   0  0  0  0  0  0
   15.8830   40.7160    1.6560 C   0  0  0  0  0  0
   14.6110   39.6980    0.8750 S   0  0  0  0  0  0
   15.5130   38.1940    0.4920 C   0  0  0  0  0  0
   19.7070   41.8290   -0.9930 N   0  0  0  0  0  0
   20.5540   42.7400   -1.7600 C   0  0  2  0  0  0
   21.5900   42.0070   -2.6050 C   0  0  0  0  0  0
   21.3610   40.8850   -3.0540 O   0  0  0  0  0  0
   21.2670   43.7180   -0.8260 C   0  0  0  0  0  0
   20.5360   45.0240   -0.5160 C   0  0  0  0  0  0
   19.2240   44.7740    0.2210 C   0  0  0  0  0  0
   21.4470   45.9390    0.2770 C   0  0  0  0  0  0
   22.7320   42.6540   -2.8160 N   0  0  0  0  0  0
   16.9100   33.4534    7.1687 H   0  0  0  0  0  0
   16.6801   32.5624    5.6260 H   0  0  0  0  0  0
   15.7333   34.0538    5.9514 H   0  0  0  0  0  0
   18.6678   33.7756    5.6600 H   0  0  0  0  0  0
   16.4572   34.8341    3.8163 H   0  0  0  0  0  0
   18.1777   35.2901    3.5743 H   0  0  0  0  0  0
   18.7137   32.8327    3.4302 H   0  0  0  0  0  0
   16.9456   32.5160    3.4353 H   0  0  0  0  0  0
   17.8648   34.5696    1.4869 H   0  0  0  0  0  0
   18.4442   32.8967    1.1829 H   0  0  0  0  0  0
   15.6022   33.9294    1.0084 H   0  0  0  0  0  0
   14.1185   32.5254    0.1166 H   0  0  0  0  0  0
   17.9274   31.1327    1.2174 H   0  0  0  0  0  0
   16.6553   29.9353    0.4573 H   0  0  0  0  0  0
   19.9705   35.5044    5.8881 H   0  0  0  0  0  0
   18.8433   37.6295    7.6246 H   0  0  0  0  0  0
   21.5548   37.4589    6.1798 H   0  0  0  0  0  0
   21.1579   38.5631    7.5399 H   0  0  0  0  0  0
   21.0546   36.7965    9.0905 H   0  0  0  0  0  0
   20.9560   35.5502    7.8006 H   0  0  0  0  0  0
   23.2008   35.7657    8.9629 H   0  0  0  0  0  0
   23.2367   35.8966    7.1717 H   0  0  0  0  0  0
   23.3101   38.3533    9.0409 H   0  0  0  0  0  0
   24.3794   36.3684    6.1827 H   0  0  0  0  0  0
   25.5887   37.7244    5.6091 H   0  0  0  0  0  0
   24.7132   39.9466    8.3640 H   0  0  0  0  0  0
   18.9573   39.9156    7.2395 H   0  0  0  0  0  0
   17.5624   40.6185    4.8530 H   0  0  0  0  0  0
   17.6127   42.0740    6.8371 H   0  0  0  0  0  0
   19.3818   42.3284    6.6578 H   0  0  0  0  0  0
   16.2105   42.7909    4.7085 H   0  0  0  0  0  0
   20.0799   44.2874    5.7521 H   0  0  0  0  0  0
   15.7765   44.8205    3.3743 H   0  0  0  0  0  0
   19.6447   46.3284    4.4309 H   0  0  0  0  0  0
   17.4898   46.5976    3.2398 H   0  0  0  0  0  0
   21.0293   40.3075    5.3721 H   0  0  0  0  0  0
   21.2220   42.7820    2.7113 H   0  0  0  0  0  0
   22.9272   42.3653    2.3300 H   0  0  0  0  0  0
   22.4583   42.7769    4.0144 H   0  0  0  0  0  0
   22.9153   39.0911    4.0846 H   0  0  0  0  0  0
   23.4325   40.6534    4.8045 H   0  0  0  0  0  0
   23.9014   40.2418    3.1201 H   0  0  0  0  0  0
   20.2031   38.8198    3.1444 H   0  0  0  0  0  0
   21.1468   38.2518    0.3859 H   0  0  0  0  0  0
   20.5882   36.4253    2.0161 H   0  0  0  0  0  0
   19.6292   36.2647    0.5058 H   0  0  0  0  0  0
   18.8669   36.9379    1.9864 H   0  0  0  0  0  0
   18.9073   40.4406    1.5726 H   0  0  0  0  0  0
   17.0927   40.0812   -0.8080 H   0  0  0  0  0  0
   17.2344   42.3152    1.2952 H   0  0  0  0  0  0
   15.9399   42.1228    0.0649 H   0  0  0  0  0  0
   16.5687   40.0303    2.1752 H   0  0  0  0  0  0
   15.3748   41.3545    2.3936 H   0  0  0  0  0  0
   14.8381   37.4762    0.0028 H   0  0  0  0  0  0
   15.9045   37.7545    1.4213 H   0  0  0  0  0  0
   16.3491   38.4297   -0.1828 H   0  0  0  0  0  0
   20.1592   41.1387   -0.2657 H   0  0  0  0  0  0
   19.8506   43.2593   -2.4275 H   0  0  0  0  0  0
   21.4424   43.2346    0.1464 H   0  0  0  0  0  0
   22.2303   44.0115   -1.2685 H   0  0  0  0  0  0
   20.2798   45.5216   -1.4630 H   0  0  0  0  0  0
   18.5872   44.1080   -0.3797 H   0  0  0  0  0  0
   18.7055   45.7308    0.3814 H   0  0  0  0  0  0
   19.4333   44.3030    1.1927 H   0  0  0  0  0  0
   22.3817   46.0987   -0.2805 H   0  0  0  0  0  0
   21.6742   45.4773    1.2492 H   0  0  0  0  0  0
   20.9464   46.9052    0.4379 H   0  0  0  0  0  0
   22.8829   43.6567   -2.3897 H   0  0  0  0  0  0
   23.5260   42.1866   -3.4169 H   0  0  0  0  0  0
   25.7707   39.6798    6.8017 H   0  0  0  0  0  0
   14.5790   30.6949   -0.1426 H   0  0  0  0  0  0
  1  2  1  0  0  0
  1 62  1  0  0  0
  1 63  1  0  0  0
  1 64  1  0  0  0
  2  3  1  0  0  0
  2  5  1  0  0  0
  2 65  1  0  0  0
  3  4  2  0  0  0
  3 12  1  0  0  0
  5  6  1  0  0  0
  5 66  1  0  0  0
  5 67  1  0  0  0
  6  7  1  0  0  0
  6 68  1  0  0  0
  6 69  1  0  0  0
  7  8  1  0  0  0
  7 70  1  0  0  0
  7 71  1  0  0  0
  8  9  1  0  0  0
  8 72  1  0  0  0
  9 10  2  0  0  0
  9 11  1  0  0  0
 10 73  1  0  0  0
 10132  1  0  0  0
 11 74  1  0  0  0
 11 75  1  0  0  0
 12 13  1  0  0  0
 12 76  1  0  0  0
 13 14  1  0  0  0
 13 16  1  0  0  0
 13 77  1  0  0  0
 14 15  2  0  0  0
 14 23  1  0  0  0
 16 17  1  0  0  0
 16 78  1  0  0  0
 16 79  1  0  0  0
 17 18  1  0  0  0
 17 80  1  0  0  0
 17 81  1  0  0  0
 18 19  1  0  0  0
 18 82  1  0  0  0
 18 83  1  0  0  0
 19 20  1  0  0  0
 19 84  1  0  0  0
 20 21  1  0  0  0
 20 22  2  0  0  0
 21 85  1  0  0  0
 21 86  1  0  0  0
 22 87  1  0  0  0
 22131  1  0  0  0
 23 24  1  0  0  0
 23 88  1  0  0  0
 24 25  1  0  0  0
 24 27  1  0  0  0
 24 89  1  0  0  0
 25 26  2  0  0  0
 25 34  1  0  0  0
 27 28  1  0  0  0
 27 90  1  0  0  0
 27 91  1  0  0  0
 28 29  2  0  0  0
 28 30  1  0  0  0
 29 31  1  0  0  0
 29 92  1  0  0  0
 30 32  2  0  0  0
 30 93  1  0  0  0
 31 33  2  0  0  0
 31 94  1  0  0  0
 32 33  1  0  0  0
 32 95  1  0  0  0
 33 96  1  0  0  0
 34 35  1  0  0  0
 34 97  1  0  0  0
 35 36  1  0  0  0
 35 38  1  0  0  0
 35 39  1  0  0  0
 36 37  2  0  0  0
 36 40  1  0  0  0
 38 98  1  0  0  0
 38 99  1  0  0  0
 38100  1  0  0  0
 39101  1  0  0  0
 39102  1  0  0  0
 39103  1  0  0  0
 40 41  1  0  0  0
 40104  1  0  0  0
 41 42  1  0  0  0
 41 44  1  0  0  0
 41105  1  0  0  0
 42 43  2  0  0  0
 42 45  1  0  0  0
 44106  1  0  0  0
 44107  1  0  0  0
 44108  1  0  0  0
 45 46  1  0  0  0
 45109  1  0  0  0
 46 47  1  0  0  0
 46 49  1  0  0  0
 46110  1  0  0  0
 47 48  2  0  0  0
 47 53  1  0  0  0
 49 50  1  0  0  0
 49111  1  0  0  0
 49112  1  0  0  0
 50 51  1  0  0  0
 50113  1  0  0  0
 50114  1  0  0  0
 51 52  1  0  0  0
 52115  1  0  0  0
 52116  1  0  0  0
 52117  1  0  0  0
 53 54  1  0  0  0
 53118  1  0  0  0
 54 55  1  0  0  0
 54 57  1  0  0  0
 54119  1  0  0  0
 55 56  2  0  0  0
 55 61  1  0  0  0
 57 58  1  0  0  0
 57120  1  0  0  0
 57121  1  0  0  0
 58 59  1  0  0  0
 58 60  1  0  0  0
 58122  1  0  0  0
 59123  1  0  0  0
 59124  1  0  0  0
 59125  1  0  0  0
 60126  1  0  0  0
 60127  1  0  0  0
 60128  1  0  0  0
 61129  1  0  0  0
 61130  1  0  0  0
M  CHG  3   1   1  10   1  22   1
M  END
> <s_m_source_file>
../3nf3_ligand.sdf

> <i_m_source_file_index>
1

> <s_epik_input>
W0hdL049QyhbTkgyXSlcW05IXVtDSDJdW0NIMl1bQ0gyXVtDQEhdKFtOSDMrXSlDKD1PKVtOSF1bQ0BASF0oW0NIMl1bQ0gyXVtDSDJdW05IXS9DKFtOSDJdKT1OXFtIXSlDKD1PKVtOSF1bQ0BASF0oW0NIMl1jMVtjSF1bY0hdW2NIXVtjSF1bY0hdMSlDKD1PKVtOSF1DKFtDSDNdKShbQ0gzXSlDKD1PKVtOSF1bQ0BASF0oW0NIM10pQyg9TylbTkhdW0NAQEhdKFtDSDJdW0NIMl1TW0NIM10pQyg9TylbTkhdW0NASF0oQyg9TylbTkgyXSlbQ0gyXVtDSF0oW0NIM10pW0NIM10=

> <s_epik_cmdline>
J2VwaWtfYXBwJywgJy1pbWFlJywgJ2xpZ2FuZF9wcm8ubWFlJywgJy1vbWFlJywgJ2xpZ2FuZF9wcmVwLm1hZScsICctbXMnLCAnMScsICctcGgnLCAnNycsICctcGh0JywgJzAuNScsICctbnQn

> <r_epik_Ionization_Penalty>
  0.1367

> <r_epik_Ionization_Penalty_Charging>
  0.1367

> <r_epik_Ionization_Penalty_Neutral>
  0.0000

> <r_epik_State_Penalty>
  0.1260

> <r_epik_Charging_Adjusted_Penalty>
0.262669480934957

> <i_epik_Tot_Q>
3

> <i_epik_Tot_abs_Q>
3

> <s_epik_Chemistry_Notes>
This compound has an imine and may undergo hydrolysis.

$$$$
