3nf6_ligand
                    3D
 Schrodinger Suite 2020-3.
 35 38  0  0  1  0            999 V2000
   13.1170  -46.8860    1.7890 O   0  5  0  0  0  0
   13.7520  -46.0050    1.1450 C   0  0  0  0  0  0
   14.8230  -45.5000    1.5690 O   0  0  0  0  0  0
   13.1980  -45.4790   -0.1630 C   0  0  0  0  0  0
   11.8310  -45.3030   -0.3960 C   0  0  0  0  0  0
   10.8130  -45.6550    0.6650 C   0  0  0  0  0  0
    9.4450  -45.2520    0.4100 N   0  0  0  0  0  0
    8.4900  -46.0140   -0.2420 C   0  0  0  0  0  0
    8.5980  -47.1390   -0.7170 O   0  0  0  0  0  0
    7.2390  -45.1990   -0.3390 C   0  0  0  0  0  0
    7.6620  -43.9170    0.3200 C   0  0  0  0  0  0
    6.9070  -42.7860    0.5100 C   0  0  0  0  0  0
    7.5220  -41.7140    1.1470 C   0  0  0  0  0  0
    8.8400  -41.7980    1.5750 C   0  0  0  0  0  0
    9.6000  -42.9390    1.3750 C   0  0  0  0  0  0
    8.9670  -43.9840    0.7390 C   0  0  0  0  0  0
   11.3700  -44.8010   -1.6100 C   0  0  0  0  0  0
   12.2630  -44.4750   -2.6150 C   0  0  0  0  0  0
   13.6050  -44.6640   -2.3730 C   0  0  0  0  0  0
   14.6200  -44.4010   -3.2580 O   0  0  0  0  0  0
   15.7670  -44.6070   -2.4450 C   0  0  0  0  0  0
   15.4510  -45.2410   -1.1920 O   0  0  0  0  0  0
   14.0620  -45.1480   -1.1940 C   0  0  0  0  0  0
   10.7841  -46.7466    0.7976 H   0  0  0  0  0  0
   11.0938  -45.1776    1.6154 H   0  0  0  0  0  0
    6.9642  -45.0735   -1.3967 H   0  0  0  0  0  0
    6.4246  -45.7126    0.1929 H   0  0  0  0  0  0
    5.8709  -42.7310    0.1761 H   0  0  0  0  0  0
    6.9611  -40.7942    1.3128 H   0  0  0  0  0  0
    9.2888  -40.9437    2.0818 H   0  0  0  0  0  0
   10.6377  -43.0058    1.7017 H   0  0  0  0  0  0
   10.3004  -44.6642   -1.7693 H   0  0  0  0  0  0
   11.9146  -44.0805   -3.5695 H   0  0  0  0  0  0
   16.4832  -45.2500   -2.9775 H   0  0  0  0  0  0
   16.2384  -43.6381   -2.2237 H   0  0  0  0  0  0
  1  2  1  0  0  0
  2  3  2  0  0  0
  2  4  1  0  0  0
  4  5  2  0  0  0
  4 23  1  0  0  0
  5  6  1  0  0  0
  5 17  1  0  0  0
  6  7  1  0  0  0
  6 24  1  0  0  0
  6 25  1  0  0  0
  7  8  1  0  0  0
  7 16  1  0  0  0
  8  9  2  0  0  0
  8 10  1  0  0  0
 10 11  1  0  0  0
 10 26  1  0  0  0
 10 27  1  0  0  0
 11 12  2  0  0  0
 11 16  1  0  0  0
 12 13  1  0  0  0
 12 28  1  0  0  0
 13 14  2  0  0  0
 13 29  1  0  0  0
 14 15  1  0  0  0
 14 30  1  0  0  0
 15 16  2  0  0  0
 15 31  1  0  0  0
 17 18  2  0  0  0
 17 32  1  0  0  0
 18 19  1  0  0  0
 18 33  1  0  0  0
 19 20  1  0  0  0
 19 23  2  0  0  0
 20 21  1  0  0  0
 21 22  1  0  0  0
 21 34  1  0  0  0
 21 35  1  0  0  0
 22 23  1  0  0  0
M  CHG  1   1  -1
M  END
> <s_m_source_file>
../3nf6_ligand.sdf

> <i_m_source_file_index>
1

> <s_epik_input>
TzFbQ0gyXU9jKGMxMiljKEMoPU8pW09IXSljKFtjSF1bY0hdMilbQ0gyXU4oQyg9TylbQ0gyXTMpYyhjMzQpW2NIXVtjSF1bY0hdW2NIXTQ=

> <s_epik_cmdline>
J2VwaWtfYXBwJywgJy1pbWFlJywgJ2xpZ2FuZF9wcm8ubWFlJywgJy1vbWFlJywgJ2xpZ2FuZF9wcmVwLm1hZScsICctbXMnLCAnMScsICctcGgnLCAnNycsICctcGh0JywgJzAuNScsICctbnQn

> <r_lp_tautomer_probability>
1

> <r_epik_Ionization_Penalty>
  0.0002

> <r_epik_Ionization_Penalty_Charging>
  0.0002

> <r_epik_Ionization_Penalty_Neutral>
  0.0000

> <r_epik_State_Penalty>
 -0.0000

> <r_epik_Charging_Adjusted_Penalty>
0.000193541697398199

> <i_epik_Tot_Q>
-1

> <i_epik_Tot_abs_Q>
1

> <s_epik_Chemistry_Notes>
This compound contains an acetal/aminal-like group ( X-CH(R)-Y where X, Y are N, S, or O) that may be acid/base labile, releasing an aldehyde.

$$$$
