3nfk_ligand
                    3D
 Schrodinger Suite 2020-3.
200202  0  0  1  0            999 V2000
   24.9470   -6.0770   16.5970 N   0  3  0  0  0  0
   25.2780   -5.2050   15.4600 C   0  0  2  0  0  0
   25.2540   -6.0460   14.2070 C   0  0  0  0  0  0
   25.0830   -7.2730   14.2990 O   0  0  0  0  0  0
   26.6430   -4.5460   15.6470 C   0  0  0  0  0  0
   26.6590   -3.9140   16.9210 O   0  0  0  0  0  0
   25.3400   -5.3760   13.0250 N   0  0  0  0  0  0
   25.3420   -6.0980   11.7570 C   0  0  2  0  0  0
   24.1180   -7.0070   11.6390 C   0  0  0  0  0  0
   24.2200   -8.1390   11.1840 O   0  0  0  0  0  0
   26.6710   -6.8840   11.5800 C   0  0  0  0  0  0
   27.8890   -5.9970   11.5820 C   0  0  0  0  0  0
   28.9000   -5.9860   12.5000 C   0  0  0  0  0  0
   28.1850   -4.9580   10.6420 C   0  0  0  0  0  0
   29.8050   -4.9960   12.1920 N   0  0  0  0  0  0
   29.4090   -4.3700   11.0320 C   0  0  0  0  0  0
   27.5690   -4.5110    9.4660 C   0  0  0  0  0  0
   29.9890   -3.3100   10.3330 C   0  0  0  0  0  0
   28.1620   -3.4870    8.7450 C   0  0  0  0  0  0
   29.3600   -2.8930    9.1770 C   0  0  0  0  0  0
   22.9500   -6.5000   12.0580 N   0  0  0  0  0  0
   21.6740   -7.2260   11.9900 C   0  0  2  0  0  0
   21.6010   -8.4850   12.8440 C   0  0  0  0  0  0
   20.7850   -9.3690   12.6000 O   0  0  0  0  0  0
   21.1810   -7.4560   10.5450 C   0  0  0  0  0  0
   21.0280   -6.1710    9.7380 C   0  0  0  0  0  0
   19.7910   -5.3440   10.0190 C   0  0  0  0  0  0
   18.8320   -5.4350    9.2190 O   0  0  0  0  0  0
   19.8000   -4.5610   10.9960 O   0  0  0  0  0  0
   22.4460   -8.5430   13.8770 N   0  0  0  0  0  0
   22.4330   -9.6310   14.8430 C   0  0  2  0  0  0
   22.2430   -9.0050   16.2200 C   0  0  0  0  0  0
   22.7210   -7.8910   16.4880 O   0  0  0  0  0  0
   23.6990  -10.4730   14.7620 C   0  0  0  0  0  0
   23.5470  -11.5200   13.8080 O   0  0  0  0  0  0
   21.5070   -9.6840   17.0830 N   0  0  0  0  0  0
   21.2040   -9.1940   18.4210 C   0  0  2  0  0  0
   22.4270   -9.2090   19.2940 C   0  0  0  0  0  0
   23.0920  -10.2460   19.4110 O   0  0  0  0  0  0
   20.1080  -10.0600   19.0720 C   0  0  0  0  0  0
   19.5120   -9.4210   20.2870 C   0  0  0  0  0  0
   19.8680   -9.8220   21.5630 N   0  0  0  0  0  0
   18.6330   -8.3910   20.3780 C   0  0  0  0  0  0
   19.1350   -9.0780   22.3880 C   0  0  0  0  0  0
   18.4060   -8.1790   21.7240 N   0  0  0  0  0  0
   22.7170   -8.0760   19.9310 N   0  0  0  0  0  0
   23.8400   -7.9240   20.8430 C   0  0  2  0  0  0
   23.2860   -7.4520   22.1880 C   0  0  0  0  0  0
   22.5020   -6.4880   22.2440 O   0  0  0  0  0  0
   24.8690   -6.9450   20.2850 C   0  0  0  0  0  0
   26.1260   -6.8280   21.1460 C   0  0  0  0  0  0
   27.2250   -6.0020   20.4540 C   0  0  0  0  0  0
   28.4890   -5.9010   21.2570 C   0  0  0  0  0  0
   29.5050   -5.1050   20.4640 N   0  3  0  0  0  0
   23.6990   -8.1230   23.2630 N   0  0  0  0  0  0
   23.2130   -7.7800   24.5900 C   0  0  2  0  0  0
   24.2960   -8.2420   25.5740 C   0  0  0  0  0  0
   24.7980   -9.3810   25.4230 O   0  0  0  0  0  0
   21.9000   -8.5010   24.8530 C   0  0  0  0  0  0
   21.4000   -8.1850   26.1440 O   0  0  0  0  0  0
   24.6750   -7.3990   26.5330 N   0  0  0  0  0  0
   25.7140   -7.7830   27.4860 C   0  0  0  0  0  0
   27.0410   -8.0850   26.8070 C   0  0  0  0  0  0
   27.8430   -8.8620   27.3310 O   0  0  0  0  0  0
   27.2800   -7.4790   25.6450 N   0  0  0  0  0  0
   28.5200   -7.7070   24.9110 C   0  0  0  0  0  0
   28.5800   -9.0570   24.2290 C   0  0  0  0  0  0
   29.6500   -9.5000   23.8260 O   0  0  0  0  0  0
   27.4210   -9.7200   24.0680 N   0  0  0  0  0  0
   27.3250  -11.0490   23.4450 C   0  0  2  0  0  0
   26.4420  -10.9380   22.2150 C   0  0  0  0  0  0
   25.3500  -10.3550   22.3240 O   0  0  0  0  0  0
   26.6370  -11.9760   24.4820 C   0  0  0  0  0  0
   26.3460  -13.3770   23.9690 C   0  0  0  0  0  0
   25.6540  -14.2860   24.9710 C   0  0  0  0  0  0
   24.9010  -13.7830   25.8380 O   0  0  0  0  0  0
   25.8490  -15.5130   24.8840 O   0  0  0  0  0  0
   26.8690  -11.5090   21.0840 N   0  0  0  0  0  0
   26.0910  -11.4460   19.8580 C   0  0  2  0  0  0
   25.6550  -12.8310   19.4730 C   0  0  0  0  0  0
   26.4420  -13.7700   19.6010 O   0  0  0  0  0  0
   26.9100  -10.8000   18.7330 C   0  0  2  0  0  0
   27.2570   -9.4690   19.1540 O   0  0  0  0  0  0
   26.1190  -10.6830   17.4300 C   0  0  0  0  0  0
   24.4040  -12.9650   18.9850 N   0  0  0  0  0  0
   23.8500  -14.2040   18.4790 C   0  0  2  0  0  0
   24.0910  -14.2850   16.9760 C   0  0  0  0  0  0
   23.6510  -13.3940   16.2310 O   0  0  0  0  0  0
   22.3370  -14.2460   18.7270 C   0  0  0  0  0  0
   21.8960  -14.2190   20.1590 C   0  0  0  0  0  0
   20.3820  -14.3400   20.1720 C   0  0  0  0  0  0
   19.7900  -13.9070   21.4350 N   0  0  0  0  0  0
   18.6540  -13.2210   21.5260 C   0  0  0  0  0  0
   18.0020  -12.8520   20.4290 N   0  0  0  0  0  0
   18.1740  -12.8780   22.7130 N   0  0  0  0  0  0
   24.7220  -15.3660   16.5260 N   0  0  0  0  0  0
   25.0820  -15.6060   15.1150 C   0  0  2  0  0  0
   24.3690  -16.7850   14.5320 C   0  0  0  0  0  0
   23.7420  -17.5770   15.2940 O   0  0  0  0  0  0
   26.6190  -15.8830   14.9430 C   0  0  0  0  0  0
   27.5920  -14.7140   15.0720 C   0  0  0  0  0  0
   27.2460  -13.5480   14.1380 C   0  0  0  0  0  0
   27.9330  -14.3980   16.5110 C   0  0  0  0  0  0
   24.4970  -16.9880   13.3130 O   0  0  0  0  0  0
   23.9607   -6.5355   16.4325 H   0  0  0  0  0  0
   24.9249   -5.4814   17.5216 H   0  0  0  0  0  0
   25.7078   -6.8663   16.6874 H   0  0  0  0  0  0
   24.5178   -4.4117   15.4066 H   0  0  0  0  0  0
   27.4304   -5.3124   15.5947 H   0  0  0  0  0  0
   26.8026   -3.8015   14.8531 H   0  0  0  0  0  0
   27.5577   -3.3758   17.2567 H   0  0  0  0  0  0
   25.4085   -4.2782   13.0329 H   0  0  0  0  0  0
   25.2599   -5.3224   10.9814 H   0  0  0  0  0  0
   26.7832   -7.6047   12.4034 H   0  0  0  0  0  0
   26.6535   -7.4227   10.6211 H   0  0  0  0  0  0
   28.9786   -6.6619   13.3515 H   0  0  0  0  0  0
   26.6376   -4.9617    9.1234 H   0  0  0  0  0  0
   30.9021   -2.8306   10.6859 H   0  0  0  0  0  0
   27.6910   -3.1361    7.8268 H   0  0  0  0  0  0
   29.8007   -2.0882    8.5886 H   0  0  0  0  0  0
   22.9816   -5.4809   12.4709 H   0  0  0  0  0  0
   21.0042   -6.5063   12.4834 H   0  0  0  0  0  0
   21.8988   -8.0952   10.0101 H   0  0  0  0  0  0
   20.1974   -7.9480   10.5671 H   0  0  0  0  0  0
   21.8845   -5.5097    9.9356 H   0  0  0  0  0  0
   20.9918   -6.4135    8.6657 H   0  0  0  0  0  0
   17.9162   -4.8499    9.3893 H   0  0  0  0  0  0
   23.1724   -7.7236   13.9812 H   0  0  0  0  0  0
   21.5974  -10.3001   14.5898 H   0  0  0  0  0  0
   24.5439   -9.8366   14.4599 H   0  0  0  0  0  0
   23.9079  -10.9167   15.7466 H   0  0  0  0  0  0
   24.3734  -12.2229   13.6265 H   0  0  0  0  0  0
   21.1180  -10.6585   16.7530 H   0  0  0  0  0  0
   20.8775   -8.1531   18.2798 H   0  0  0  0  0  0
   19.2969  -10.2297   18.3486 H   0  0  0  0  0  0
   20.5365  -11.0265   19.3758 H   0  0  0  0  0  0
   18.1262   -7.7644   19.6294 H   0  0  0  0  0  0
   19.1307   -9.1893   23.4723 H   0  0  0  0  0  0
   22.0490   -7.2244   19.7343 H   0  0  0  0  0  0
   24.3292   -8.9047   20.9374 H   0  0  0  0  0  0
   25.1842   -7.2752   19.2842 H   0  0  0  0  0  0
   24.4217   -5.9424   20.2163 H   0  0  0  0  0  0
   25.8745   -6.3359   22.0971 H   0  0  0  0  0  0
   26.5271   -7.8322   21.3476 H   0  0  0  0  0  0
   27.4817   -6.4672   19.4908 H   0  0  0  0  0  0
   26.8606   -4.9786   20.2813 H   0  0  0  0  0  0
   28.2783   -5.3940   22.2102 H   0  0  0  0  0  0
   28.8782   -6.9103   21.4567 H   0  0  0  0  0  0
   30.4378   -5.0228   21.0412 H   0  0  0  0  0  0
   29.1075   -4.0990   20.2642 H   0  0  0  0  0  0
   29.7074   -5.6152   19.5107 H   0  0  0  0  0  0
   24.4175   -8.9462   23.1362 H   0  0  0  0  0  0
   23.0313   -6.6966   24.6468 H   0  0  0  0  0  0
   21.1573   -8.1961   24.1011 H   0  0  0  0  0  0
   22.0596   -9.5876   24.7911 H   0  0  0  0  0  0
   20.4540   -8.6265   26.4907 H   0  0  0  0  0  0
   24.2012   -6.4089   26.6052 H   0  0  0  0  0  0
   25.8772   -6.9629   28.2007 H   0  0  0  0  0  0
   25.3976   -8.6855   28.0295 H   0  0  0  0  0  0
   26.5194   -6.7949   25.2407 H   0  0  0  0  0  0
   28.6307   -6.9394   24.1309 H   0  0  0  0  0  0
   29.3721   -7.6508   25.6043 H   0  0  0  0  0  0
   26.5133   -9.2161   24.4315 H   0  0  0  0  0  0
   28.3267  -11.3974   23.1530 H   0  0  0  0  0  0
   27.2850  -12.0836   25.3644 H   0  0  0  0  0  0
   25.6750  -11.5370   24.7849 H   0  0  0  0  0  0
   25.6905  -13.3160   23.0878 H   0  0  0  0  0  0
   27.2897  -13.8689   23.6906 H   0  0  0  0  0  0
   24.3944  -14.4304   26.5689 H   0  0  0  0  0  0
   27.8345  -12.0360   21.0963 H   0  0  0  0  0  0
   25.2037  -10.8331   20.0750 H   0  0  0  0  0  0
   27.8266  -11.3820   18.5566 H   0  0  0  0  0  0
   27.8338   -9.3173   20.0783 H   0  0  0  0  0  0
   25.8376  -11.6873   17.0805 H   0  0  0  0  0  0
   26.7396  -10.1898   16.6674 H   0  0  0  0  0  0
   25.2107  -10.0877   17.6047 H   0  0  0  0  0  0
   23.7933  -12.0501   18.9877 H   0  0  0  0  0  0
   24.3683  -15.0096   19.0197 H   0  0  0  0  0  0
   21.8628  -13.3762   18.2489 H   0  0  0  0  0  0
   21.9211  -15.1708   18.3007 H   0  0  0  0  0  0
   22.3538  -15.0606   20.6995 H   0  0  0  0  0  0
   22.2101  -13.2717   20.6216 H   0  0  0  0  0  0
   19.9575  -13.7168   19.3711 H   0  0  0  0  0  0
   20.0966  -15.3899   20.0099 H   0  0  0  0  0  0
   20.2878  -14.1461   22.3863 H   0  0  0  0  0  0
   18.3905  -13.1307   19.4383 H   0  0  0  0  0  0
   17.0736  -12.2678   20.5113 H   0  0  0  0  0  0
   18.7050  -13.1777   23.6285 H   0  0  0  0  0  0
   24.9767  -16.1120   17.2932 H   0  0  0  0  0  0
   24.7318  -14.6883   14.6199 H   0  0  0  0  0  0
   23.2158  -18.4457   14.8715 H   0  0  0  0  0  0
   26.9486  -16.6061   15.7036 H   0  0  0  0  0  0
   26.8076  -16.2941   13.9403 H   0  0  0  0  0  0
   28.5758  -15.0288   14.6938 H   0  0  0  0  0  0
   27.0232  -13.9367   13.1334 H   0  0  0  0  0  0
   28.0999  -12.8567   14.0827 H   0  0  0  0  0  0
   26.3668  -13.0143   14.5280 H   0  0  0  0  0  0
   28.1560  -15.3315   17.0485 H   0  0  0  0  0  0
   27.0790  -13.8951   16.9883 H   0  0  0  0  0  0
   28.8121  -13.7375   16.5430 H   0  0  0  0  0  0
  1  2  1  0  0  0
  1105  1  0  0  0
  1106  1  0  0  0
  1107  1  0  0  0
  2  3  1  0  0  0
  2  5  1  0  0  0
  2108  1  0  0  0
  3  4  2  0  0  0
  3  7  1  0  0  0
  5  6  1  0  0  0
  5109  1  0  0  0
  5110  1  0  0  0
  6111  1  0  0  0
  7  8  1  0  0  0
  7112  1  0  0  0
  8  9  1  0  0  0
  8 11  1  0  0  0
  8113  1  0  0  0
  9 10  2  0  0  0
  9 21  1  0  0  0
 11 12  1  0  0  0
 11114  1  0  0  0
 11115  1  0  0  0
 12 13  2  0  0  0
 12 14  1  0  0  0
 13 15  1  0  0  0
 13116  1  0  0  0
 14 16  2  0  0  0
 14 17  1  0  0  0
 15 16  1  0  0  0
 16 18  1  0  0  0
 17 19  2  0  0  0
 17117  1  0  0  0
 18 20  2  0  0  0
 18118  1  0  0  0
 19 20  1  0  0  0
 19119  1  0  0  0
 20120  1  0  0  0
 21 22  1  0  0  0
 21121  1  0  0  0
 22 23  1  0  0  0
 22 25  1  0  0  0
 22122  1  0  0  0
 23 24  2  0  0  0
 23 30  1  0  0  0
 25 26  1  0  0  0
 25123  1  0  0  0
 25124  1  0  0  0
 26 27  1  0  0  0
 26125  1  0  0  0
 26126  1  0  0  0
 27 28  1  0  0  0
 27 29  2  0  0  0
 28127  1  0  0  0
 30 31  1  0  0  0
 30128  1  0  0  0
 31 32  1  0  0  0
 31 34  1  0  0  0
 31129  1  0  0  0
 32 33  2  0  0  0
 32 36  1  0  0  0
 34 35  1  0  0  0
 34130  1  0  0  0
 34131  1  0  0  0
 35132  1  0  0  0
 36 37  1  0  0  0
 36133  1  0  0  0
 37 38  1  0  0  0
 37 40  1  0  0  0
 37134  1  0  0  0
 38 39  2  0  0  0
 38 46  1  0  0  0
 40 41  1  0  0  0
 40135  1  0  0  0
 40136  1  0  0  0
 41 42  2  0  0  0
 41 43  1  0  0  0
 42 44  1  0  0  0
 43 45  2  0  0  0
 43137  1  0  0  0
 44 45  1  0  0  0
 44138  1  0  0  0
 46 47  1  0  0  0
 46139  1  0  0  0
 47 48  1  0  0  0
 47 50  1  0  0  0
 47140  1  0  0  0
 48 49  2  0  0  0
 48 55  1  0  0  0
 50 51  1  0  0  0
 50141  1  0  0  0
 50142  1  0  0  0
 51 52  1  0  0  0
 51143  1  0  0  0
 51144  1  0  0  0
 52 53  1  0  0  0
 52145  1  0  0  0
 52146  1  0  0  0
 53 54  1  0  0  0
 53147  1  0  0  0
 53148  1  0  0  0
 54149  1  0  0  0
 54150  1  0  0  0
 54151  1  0  0  0
 55 56  1  0  0  0
 55152  1  0  0  0
 56 57  1  0  0  0
 56 59  1  0  0  0
 56153  1  0  0  0
 57 58  2  0  0  0
 57 61  1  0  0  0
 59 60  1  0  0  0
 59154  1  0  0  0
 59155  1  0  0  0
 60156  1  0  0  0
 61 62  1  0  0  0
 61157  1  0  0  0
 62 63  1  0  0  0
 62158  1  0  0  0
 62159  1  0  0  0
 63 64  2  0  0  0
 63 65  1  0  0  0
 65 66  1  0  0  0
 65160  1  0  0  0
 66 67  1  0  0  0
 66161  1  0  0  0
 66162  1  0  0  0
 67 68  2  0  0  0
 67 69  1  0  0  0
 69 70  1  0  0  0
 69163  1  0  0  0
 70 71  1  0  0  0
 70 73  1  0  0  0
 70164  1  0  0  0
 71 72  2  0  0  0
 71 78  1  0  0  0
 73 74  1  0  0  0
 73165  1  0  0  0
 73166  1  0  0  0
 74 75  1  0  0  0
 74167  1  0  0  0
 74168  1  0  0  0
 75 76  1  0  0  0
 75 77  2  0  0  0
 76169  1  0  0  0
 78 79  1  0  0  0
 78170  1  0  0  0
 79 80  1  0  0  0
 79 82  1  0  0  0
 79171  1  0  0  0
 80 81  2  0  0  0
 80 85  1  0  0  0
 82 83  1  0  0  0
 82 84  1  0  0  0
 82172  1  0  0  0
 83173  1  0  0  0
 84174  1  0  0  0
 84175  1  0  0  0
 84176  1  0  0  0
 85 86  1  0  0  0
 85177  1  0  0  0
 86 87  1  0  0  0
 86 89  1  0  0  0
 86178  1  0  0  0
 87 88  2  0  0  0
 87 96  1  0  0  0
 89 90  1  0  0  0
 89179  1  0  0  0
 89180  1  0  0  0
 90 91  1  0  0  0
 90181  1  0  0  0
 90182  1  0  0  0
 91 92  1  0  0  0
 91183  1  0  0  0
 91184  1  0  0  0
 92 93  1  0  0  0
 92185  1  0  0  0
 93 94  1  0  0  0
 93 95  2  0  0  0
 94186  1  0  0  0
 94187  1  0  0  0
 95188  1  0  0  0
 96 97  1  0  0  0
 96189  1  0  0  0
 97 98  1  0  0  0
 97100  1  0  0  0
 97190  1  0  0  0
 98 99  1  0  0  0
 98104  2  0  0  0
 99191  1  0  0  0
100101  1  0  0  0
100192  1  0  0  0
100193  1  0  0  0
101102  1  0  0  0
101103  1  0  0  0
101194  1  0  0  0
102195  1  0  0  0
102196  1  0  0  0
102197  1  0  0  0
103198  1  0  0  0
103199  1  0  0  0
103200  1  0  0  0
M  CHG  2   1   1  54   1
M  END
> <s_m_source_file>
../3nfk_ligand.sdf

> <i_m_source_file_index>
1

> <s_epik_input>
W2NIXTFbY0hdW2NIXVtjSF1jKGMxMilbbkhdW2NIXWMyW0NIMl1bQ0BIXShbTkhdQyg9TylbQ0BASF0oW05IMytdKVtDSDJdW09IXSlDKD1PKVtOSF1bQ0BASF0oW0NIMl1bQ0gyXUMoPU8pW09IXSlDKD1PKVtOSF1bQ0BASF0oW0NIMl1bT0hdKUMoPU8pW05IXVtDQEBIXShbQ0gyXUMzPU5bQ0gyXU49W0NIXTMpQyg9TylbTkhdW0NAQEhdKFtDSDJdW0NIMl1bQ0gyXVtDSDJdW05IMytdKUMoPU8pW05IXVtDQEBIXShbQ0gyXVtPSF0pQyg9TylbTkhdW0NIMl1DKD1PKVtOSF1bQ0gyXUMoPU8pW05IXVtDQEBIXShbQ0gyXVtDSDJdQyg9TylbT0hdKUMoPU8pW05IXVtDQEBIXShbQ0BIXShbT0hdKVtDSDNdKUMoPU8pW05IXVtDQEhdKEMoPU8pW05IXVtDQEhdKEMoPU8pW09IXSlbQ0gyXVtDSF0oW0NIM10pW0NIM10pW0NIMl1bQ0gyXVtDSDJdW05IXS9DKFtOSDJdKT1OXFtIXQ==

> <s_epik_cmdline>
J2VwaWtfYXBwJywgJy1pbWFlJywgJ2xpZ2FuZF9wcm8ubWFlJywgJy1vbWFlJywgJ2xpZ2FuZF9wcmVwLm1hZScsICctbXMnLCAnMScsICctcGgnLCAnNycsICctcGh0JywgJzAuNScsICctbnQn

> <s_epik_pKa_notes>
Molecule size exceeds maximum supported for generating protonation states

> <s_epik_Chemistry_Notes>
This compound has an imine and may undergo hydrolysis.

$$$$
