3nfl_ligand
                    3D
 Schrodinger Suite 2020-3.
 76 75  0  0  1  0            999 V2000
  -13.6860   31.0230   31.9030 N   0  3  0  0  0  0
  -12.6190   31.7810   32.5590 C   0  0  2  0  0  0
  -11.2350   31.0980   32.4620 C   0  0  0  0  0  0
  -11.1210   29.8760   32.6280 O   0  0  0  0  0  0
  -12.9690   32.3020   33.9930 C   0  0  2  0  0  0
  -13.0330   31.1800   35.0550 C   0  0  0  0  0  0
  -14.2380   33.1580   33.9750 C   0  0  0  0  0  0
  -12.5480   31.5860   36.4850 C   0  0  0  0  0  0
  -10.2090   31.8980   32.1110 N   0  0  0  0  0  0
   -8.8340   31.4350   31.9800 C   0  0  2  0  0  0
   -7.9350   32.1030   32.9650 C   0  0  0  0  0  0
   -8.0660   33.3010   33.2150 O   0  0  0  0  0  0
   -8.2510   31.4740   30.5570 C   0  0  0  0  0  0
   -8.7770   32.5280   29.6080 C   0  0  0  0  0  0
   -7.9730   32.6540   28.3270 C   0  0  0  0  0  0
   -8.6050   32.8590   27.2660 O   0  0  0  0  0  0
   -6.7250   32.5180   28.3730 O   0  5  0  0  0  0
   -7.0460   31.3060   33.5560 N   0  0  0  0  0  0
   -6.1130   31.7660   34.5790 C   0  0  2  0  0  0
   -4.6710   31.6420   34.0930 C   0  0  0  0  0  0
   -4.3240   30.6890   33.3860 O   0  0  0  0  0  0
   -6.2890   30.9450   35.8510 C   0  0  0  0  0  0
   -7.5980   31.0420   36.3860 O   0  0  0  0  0  0
   -3.8580   32.6240   34.4590 N   0  0  0  0  0  0
   -2.4160   32.7440   34.2090 C   0  0  2  0  0  0
   -1.6700   31.9630   35.2730 C   0  0  0  0  0  0
   -1.9520   32.1790   36.4360 O   0  0  0  0  0  0
   -1.9890   34.2310   34.3330 C   0  0  0  0  0  0
   -2.0710   35.0540   33.0600 C   0  0  0  0  0  0
   -2.7260   34.6080   32.1050 O   0  5  0  0  0  0
   -1.5300   36.1700   33.0460 O   0  0  0  0  0  0
   -0.7500   31.0340   34.8960 N   0  0  0  0  0  0
    0.0810   30.3010   35.8560 C   0  0  2  0  0  0
    1.5710   30.4280   35.5300 C   0  0  0  0  0  0
    1.9270   30.8450   34.3920 O   0  5  0  0  0  0
   -0.3450   28.8420   36.1860 C   0  0  0  0  0  0
   -1.6670   28.7880   36.9560 C   0  0  0  0  0  0
   -0.3750   27.9630   34.9400 C   0  0  0  0  0  0
    2.3870   30.0630   36.3950 O   0  0  0  0  0  0
  -13.3481   30.7012   30.9069 H   0  0  0  0  0  0
  -14.5776   31.6590   31.8000 H   0  0  0  0  0  0
  -13.9340   30.1393   32.5092 H   0  0  0  0  0  0
  -12.5873   32.6648   31.9048 H   0  0  0  0  0  0
  -12.1487   32.9587   34.3184 H   0  0  0  0  0  0
  -14.0724   30.8366   35.1634 H   0  0  0  0  0  0
  -12.4000   30.3382   34.7377 H   0  0  0  0  0  0
  -14.1429   33.9385   33.2058 H   0  0  0  0  0  0
  -14.3769   33.6285   34.9596 H   0  0  0  0  0  0
  -15.1060   32.5221   33.7467 H   0  0  0  0  0  0
  -12.6336   30.7219   37.1603 H   0  0  0  0  0  0
  -13.1708   32.4100   36.8632 H   0  0  0  0  0  0
  -11.4984   31.9117   36.4375 H   0  0  0  0  0  0
  -10.4547   32.9530   31.9195 H   0  0  0  0  0  0
   -8.9309   30.3752   32.2581 H   0  0  0  0  0  0
   -7.1664   31.6498   30.6098 H   0  0  0  0  0  0
   -8.4428   30.5139   30.0557 H   0  0  0  0  0  0
   -9.8102   32.2814   29.3223 H   0  0  0  0  0  0
   -8.7581   33.5099   30.1035 H   0  0  0  0  0  0
   -7.0374   30.2533   33.2371 H   0  0  0  0  0  0
   -6.3633   32.8222   34.7572 H   0  0  0  0  0  0
   -6.0909   29.8851   35.6336 H   0  0  0  0  0  0
   -5.5841   31.3001   36.6171 H   0  0  0  0  0  0
   -7.8584   30.4965   37.3051 H   0  0  0  0  0  0
   -4.3877   33.4131   35.0128 H   0  0  0  0  0  0
   -2.2282   32.3350   33.2053 H   0  0  0  0  0  0
   -2.6333   34.7375   35.0667 H   0  0  0  0  0  0
   -0.9418   34.2853   34.6654 H   0  0  0  0  0  0
   -0.6439   30.8425   33.8180 H   0  0  0  0  0  0
   -0.1415   30.8730   36.7689 H   0  0  0  0  0  0
    0.4177   28.4088   36.8498 H   0  0  0  0  0  0
   -1.6009   29.4342   37.8437 H   0  0  0  0  0  0
   -1.8664   27.7528   37.2700 H   0  0  0  0  0  0
   -2.4836   29.1382   36.3075 H   0  0  0  0  0  0
    0.5915   28.0319   34.4194 H   0  0  0  0  0  0
   -1.1777   28.3043   34.2698 H   0  0  0  0  0  0
   -0.5605   26.9189   35.2323 H   0  0  0  0  0  0
  1  2  1  0  0  0
  1 40  1  0  0  0
  1 41  1  0  0  0
  1 42  1  0  0  0
  2  3  1  0  0  0
  2  5  1  0  0  0
  2 43  1  0  0  0
  3  4  2  0  0  0
  3  9  1  0  0  0
  5  6  1  0  0  0
  5  7  1  0  0  0
  5 44  1  0  0  0
  6  8  1  0  0  0
  6 45  1  0  0  0
  6 46  1  0  0  0
  7 47  1  0  0  0
  7 48  1  0  0  0
  7 49  1  0  0  0
  8 50  1  0  0  0
  8 51  1  0  0  0
  8 52  1  0  0  0
  9 10  1  0  0  0
  9 53  1  0  0  0
 10 11  1  0  0  0
 10 13  1  0  0  0
 10 54  1  0  0  0
 11 12  2  0  0  0
 11 18  1  0  0  0
 13 14  1  0  0  0
 13 55  1  0  0  0
 13 56  1  0  0  0
 14 15  1  0  0  0
 14 57  1  0  0  0
 14 58  1  0  0  0
 15 16  2  0  0  0
 15 17  1  0  0  0
 18 19  1  0  0  0
 18 59  1  0  0  0
 19 20  1  0  0  0
 19 22  1  0  0  0
 19 60  1  0  0  0
 20 21  2  0  0  0
 20 24  1  0  0  0
 22 23  1  0  0  0
 22 61  1  0  0  0
 22 62  1  0  0  0
 23 63  1  0  0  0
 24 25  1  0  0  0
 24 64  1  0  0  0
 25 26  1  0  0  0
 25 28  1  0  0  0
 25 65  1  0  0  0
 26 27  2  0  0  0
 26 32  1  0  0  0
 28 29  1  0  0  0
 28 66  1  0  0  0
 28 67  1  0  0  0
 29 30  1  0  0  0
 29 31  2  0  0  0
 32 33  1  0  0  0
 32 68  1  0  0  0
 33 34  1  0  0  0
 33 36  1  0  0  0
 33 69  1  0  0  0
 34 35  1  0  0  0
 34 39  2  0  0  0
 36 37  1  0  0  0
 36 38  1  0  0  0
 36 70  1  0  0  0
 37 71  1  0  0  0
 37 72  1  0  0  0
 37 73  1  0  0  0
 38 74  1  0  0  0
 38 75  1  0  0  0
 38 76  1  0  0  0
M  CHG  4   1   1  17  -1  30  -1  35  -1
M  END
> <s_m_source_file>
../3nfl_ligand.sdf

> <i_m_source_file_index>
1

> <s_epik_input>
W0NIM11bQ0gyXVtDQEhdKFtDSDNdKVtDQEhdKFtOSDMrXSlDKD1PKVtOSF1bQ0BASF0oW0NIMl1bQ0gyXUMoPU8pW09IXSlDKD1PKVtOSF1bQ0BASF0oW0NIMl1bT0hdKUMoPU8pW05IXVtDQEBIXShbQ0gyXUMoPU8pW09IXSlDKD1PKVtOSF1bQ0BIXShDKD1PKVtPSF0pW0NIXShbQ0gzXSlbQ0gzXQ==

> <s_epik_cmdline>
J2VwaWtfYXBwJywgJy1pbWFlJywgJ2xpZ2FuZF9wcm8ubWFlJywgJy1vbWFlJywgJ2xpZ2FuZF9wcmVwLm1hZScsICctbXMnLCAnMScsICctcGgnLCAnNycsICctcGh0JywgJzAuNScsICctbnQn

> <r_epik_Ionization_Penalty>
  0.0884

> <r_epik_Ionization_Penalty_Charging>
  0.0884

> <r_epik_Ionization_Penalty_Neutral>
  0.0000

> <r_epik_State_Penalty>
  0.0755

> <r_epik_Charging_Adjusted_Penalty>
0.163911092195883

> <i_epik_Tot_Q>
-2

> <i_epik_Tot_abs_Q>
4

$$$$
