3ng4_ligand
                    3D
 Schrodinger Suite 2020-3.
 45 46  0  0  1  0            999 V2000
  -19.9920  -20.5030  -17.7940 C   0  0  1  0  0  0
  -18.9850  -19.7820  -16.9110 C   0  0  1  0  0  0
  -18.4450  -18.5110  -17.5010 C   0  0  2  0  0  0
  -17.9410  -18.7780  -18.9230 C   0  0  1  0  0  0
  -19.0480  -19.4240  -19.7420 C   0  0  1  0  0  0
  -18.6060  -19.9370  -21.0950 C   0  0  0  0  0  0
  -21.3290  -20.0190  -17.7000 O   0  0  0  0  0  0
  -19.5940  -19.5290  -15.6790 O   0  0  0  0  0  0
  -17.4570  -18.0970  -16.5620 O   0  0  0  0  0  0
  -17.5480  -17.5810  -19.5930 O   0  0  0  0  0  0
  -19.4700  -20.6110  -19.1050 O   0  0  0  0  0  0
  -18.5040  -21.3720  -21.0430 O   0  0  0  0  0  0
  -24.1380  -23.1970  -17.8410 C   0  0  1  0  0  0
  -23.3450  -22.9220  -16.5470 C   0  0  1  0  0  0
  -22.4230  -21.7470  -16.4500 C   0  0  2  0  0  0
  -22.0620  -21.2430  -17.8230 C   0  0  1  0  0  0
  -23.2880  -21.0850  -18.6940 C   0  0  1  0  0  0
  -22.8950  -20.4820  -20.0490 C   0  0  0  0  0  0
  -25.5030  -23.4610  -17.4890 O   0  0  0  0  0  0
  -24.1600  -22.9090  -15.4040 O   0  0  0  0  0  0
  -21.2780  -22.1800  -15.7080 O   0  0  0  0  0  0
  -23.9380  -22.3330  -18.9570 O   0  0  0  0  0  0
  -23.3010  -21.3600  -21.1180 O   0  0  0  0  0  0
  -20.1736  -21.5409  -17.4780 H   0  0  0  0  0  0
  -18.1173  -20.4296  -16.7167 H   0  0  0  0  0  0
  -19.1541  -17.6738  -17.5807 H   0  0  0  0  0  0
  -17.0288  -19.3906  -18.8728 H   0  0  0  0  0  0
  -19.8496  -18.6743  -19.8153 H   0  0  0  0  0  0
  -19.3441  -19.6454  -21.8567 H   0  0  0  0  0  0
  -17.6268  -19.5049  -21.3490 H   0  0  0  0  0  0
  -20.0443  -20.3545  -15.1082 H   0  0  0  0  0  0
  -17.7420  -17.8863  -15.5206 H   0  0  0  0  0  0
  -16.7525  -16.9499  -19.1702 H   0  0  0  0  0  0
  -18.1939  -21.9341  -21.9363 H   0  0  0  0  0  0
  -23.7621  -24.0812  -18.3766 H   0  0  0  0  0  0
  -22.6850  -23.8004  -16.4950 H   0  0  0  0  0  0
  -22.8674  -20.9070  -15.8961 H   0  0  0  0  0  0
  -21.3788  -21.9454  -18.3230 H   0  0  0  0  0  0
  -24.0163  -20.4814  -18.1325 H   0  0  0  0  0  0
  -23.3901  -19.5077  -20.1742 H   0  0  0  0  0  0
  -21.8040  -20.3466  -20.0875 H   0  0  0  0  0  0
  -25.7343  -24.1190  -16.6384 H   0  0  0  0  0  0
  -24.9216  -23.6900  -15.2626 H   0  0  0  0  0  0
  -21.4000  -22.5721  -14.6875 H   0  0  0  0  0  0
  -23.0980  -21.0842  -22.1633 H   0  0  0  0  0  0
  1  2  1  0  0  0
  1  7  1  0  0  0
  1 11  1  0  0  0
  1 24  1  0  0  0
  2  3  1  0  0  0
  2  8  1  0  0  0
  2 25  1  0  0  0
  3  4  1  0  0  0
  3  9  1  0  0  0
  3 26  1  0  0  0
  4  5  1  0  0  0
  4 10  1  0  0  0
  4 27  1  0  0  0
  5  6  1  0  0  0
  5 11  1  0  0  0
  5 28  1  0  0  0
  6 12  1  0  0  0
  6 29  1  0  0  0
  6 30  1  0  0  0
  7 16  1  0  0  0
  8 31  1  0  0  0
  9 32  1  0  0  0
 10 33  1  0  0  0
 12 34  1  0  0  0
 13 14  1  0  0  0
 13 19  1  0  0  0
 13 22  1  0  0  0
 13 35  1  0  0  0
 14 15  1  0  0  0
 14 20  1  0  0  0
 14 36  1  0  0  0
 15 16  1  0  0  0
 15 21  1  0  0  0
 15 37  1  0  0  0
 16 17  1  0  0  0
 16 38  1  0  0  0
 17 18  1  0  0  0
 17 22  1  0  0  0
 17 39  1  0  0  0
 18 23  1  0  0  0
 18 40  1  0  0  0
 18 41  1  0  0  0
 19 42  1  0  0  0
 20 43  1  0  0  0
 21 44  1  0  0  0
 23 45  1  0  0  0
M  END
> <s_m_source_file>
../3ng4_ligand.sdf

> <i_m_source_file_index>
1

> <s_epik_input>
W09IXVtDQEBIXTFbQ0BIXShbT0hdKVtDQEBIXShbT0hdKVtDQEBIXShbQ0BIXShPMSlbQ0gyXVtPSF0pT1tDQEBIXTJbQ0BIXShbT0hdKVtDQEBIXShbT0hdKVtDQEhdKFtPSF0pW0NASF0oTzIpW0NIMl1bT0hd

> <s_epik_cmdline>
J2VwaWtfYXBwJywgJy1pbWFlJywgJ2xpZ2FuZF9wcm8ubWFlJywgJy1vbWFlJywgJ2xpZ2FuZF9wcmVwLm1hZScsICctbXMnLCAnMScsICctcGgnLCAnNycsICctcGh0JywgJzAuNScsICctbnQn

> <r_lp_tautomer_probability>
1

> <r_epik_Ionization_Penalty>
  0.0000

> <r_epik_Ionization_Penalty_Charging>
  0.0000

> <r_epik_Ionization_Penalty_Neutral>
  0.0000

> <r_epik_State_Penalty>
 -0.0000

> <r_epik_Charging_Adjusted_Penalty>
0

> <i_epik_Tot_Q>
0

> <i_epik_Tot_abs_Q>
0

> <s_epik_Chemistry_Notes>
This compound contains an acetal/aminal-like group ( X-CH(R)-Y where X, Y are N, S, or O) that may be acid/base labile, releasing an aldehyde.

$$$$
