3nga_ligand
                    3D
 Schrodinger Suite 2020-3.
 36 39  0  0  1  0            999 V2000
   46.1870   -4.7190   37.6310 C   0  0  0  0  0  0
   45.1510   -5.5530   38.1220 C   0  0  0  0  0  0
   44.8110   -5.5150   39.4980 C   0  0  0  0  0  0
   45.4650   -4.6550   40.3640 C   0  0  0  0  0  0
   46.4950   -3.8370   39.8860 C   0  0  0  0  0  0
   46.8650   -3.8890   38.5440 C   0  0  0  0  0  0
   44.9200   -6.3450   35.8230 C   0  0  0  0  0  0
   44.5090   -6.3910   37.1880 C   0  0  0  0  0  0
   46.5700   -4.6750   36.3350 N   0  0  0  0  0  0
   45.9740   -5.4540   35.4490 C   0  0  0  0  0  0
   43.2420   -8.0080   35.3480 C   0  0  0  0  0  0
   42.8430   -8.0850   36.6370 N   0  0  0  0  0  0
   43.4650   -7.2710   37.5140 C   0  0  0  0  0  0
   44.2670   -7.1940   34.8990 C   0  0  0  0  0  0
   46.3750   -5.3960   34.1650 N   0  0  0  0  0  0
   47.3540   -4.6250   33.5300 C   0  0  0  0  0  0
   48.5820   -4.2830   34.0910 C   0  0  0  0  0  0
   49.4850   -3.5240   33.3330 C   0  0  0  0  0  0
   49.2020   -3.1360   32.0280 C   0  0  0  0  0  0
   47.9790   -3.4730   31.4750 C   0  0  0  0  0  0
   47.0670   -4.2180   32.2160 C   0  0  0  0  0  0
   50.9880   -3.0520   34.0070 Cl  0  0  0  0  0  0
   47.1780   -2.8820   40.7760 C   0  0  0  0  0  0
   48.3020   -2.4380   40.3510 O   0  0  0  0  0  0
   46.5560   -2.5460   41.8450 O   0  5  0  0  0  0
   44.0266   -6.1696   39.8780 H   0  0  0  0  0  0
   45.1784   -4.6152   41.4149 H   0  0  0  0  0  0
   47.6952   -3.2754   38.1941 H   0  0  0  0  0  0
   42.7234   -8.6265   34.6155 H   0  0  0  0  0  0
   43.1328   -7.2984   38.5518 H   0  0  0  0  0  0
   44.5662   -7.2068   33.8509 H   0  0  0  0  0  0
   45.8985   -6.0391   33.4104 H   0  0  0  0  0  0
   48.8368   -4.6000   35.1023 H   0  0  0  0  0  0
   49.9339   -2.5737   31.4482 H   0  0  0  0  0  0
   47.7310   -3.1558   30.4621 H   0  0  0  0  0  0
   46.1114   -4.4912   31.7686 H   0  0  0  0  0  0
  1  2  1  0  0  0
  1  6  2  0  0  0
  1  9  1  0  0  0
  2  3  2  0  0  0
  2  8  1  0  0  0
  3  4  1  0  0  0
  3 26  1  0  0  0
  4  5  2  0  0  0
  4 27  1  0  0  0
  5  6  1  0  0  0
  5 23  1  0  0  0
  6 28  1  0  0  0
  7  8  2  0  0  0
  7 10  1  0  0  0
  7 14  1  0  0  0
  8 13  1  0  0  0
  9 10  2  0  0  0
 10 15  1  0  0  0
 11 12  1  0  0  0
 11 14  2  0  0  0
 11 29  1  0  0  0
 12 13  2  0  0  0
 13 30  1  0  0  0
 14 31  1  0  0  0
 15 16  1  0  0  0
 15 32  1  0  0  0
 16 17  2  0  0  0
 16 21  1  0  0  0
 17 18  1  0  0  0
 17 33  1  0  0  0
 18 19  2  0  0  0
 18 22  1  0  0  0
 19 20  1  0  0  0
 19 34  1  0  0  0
 20 21  2  0  0  0
 20 35  1  0  0  0
 21 36  1  0  0  0
 23 24  2  0  0  0
 23 25  1  0  0  0
M  CHG  1  25  -1
M  END
> <s_m_source_file>
../3nga_ligand.sdf

> <i_m_source_file_index>
1

> <s_epik_input>
Tz1DKFtPSF0pYyhbY0hdMSlbY0hdW2NIXWMoYzEyKWMzYyhbY0hdW2NIXW5bY0hdMyljKG4yKVtOSF1jNFtjSF1jKENsKVtjSF1bY0hdW2NIXTQ=

> <s_epik_cmdline>
J2VwaWtfYXBwJywgJy1pbWFlJywgJ2xpZ2FuZF9wcm8ubWFlJywgJy1vbWFlJywgJ2xpZ2FuZF9wcmVwLm1hZScsICctbXMnLCAnMScsICctcGgnLCAnNycsICctcGh0JywgJzAuNScsICctbnQn

> <r_lp_tautomer_probability>
1

> <r_epik_Ionization_Penalty>
  0.0004

> <r_epik_Ionization_Penalty_Charging>
  0.0002

> <r_epik_Ionization_Penalty_Neutral>
  0.0002

> <r_epik_State_Penalty>
 -0.0000

> <r_epik_Charging_Adjusted_Penalty>
0.000173691132245086

> <i_epik_Tot_Q>
-1

> <i_epik_Tot_abs_Q>
1

$$$$
