3nhi_ligand
                    3D
 Schrodinger Suite 2020-3.
 58 57  0  0  1  0            999 V2000
   -0.6050   -5.8570   22.7740 O   0  5  0  0  0  0
   -1.4870   -4.9750   22.6150 C   0  0  0  0  0  0
   -1.5320   -3.9300   23.3090 O   0  0  0  0  0  0
   -2.5300   -5.1860   21.5350 C   0  0  0  0  0  0
   -3.7070   -4.2230   21.7060 C   0  0  0  0  0  0
   -3.5220   -2.9580   20.8710 C   0  0  0  0  0  0
   -4.6810   -2.0080   21.0890 C   0  0  2  0  0  0
   -5.7670   -2.5060   20.4960 O   0  0  0  0  0  0
   -4.3550   -0.6360   20.5050 C   0  0  0  0  0  0
   -5.5560    0.2940   20.5670 C   0  0  0  0  0  0
   -6.1240    0.5090   19.1800 C   0  0  0  0  0  0
   -7.3970    1.2140   19.2750 C   0  0  0  0  0  0
   -8.0020    1.2610   18.0890 C   0  0  0  0  0  0
   -9.2700    1.9700   18.2410 C   0  0  0  0  0  0
  -10.1590    2.1170   17.2550 C   0  0  0  0  0  0
   -9.9510    1.5850   15.8560 C   0  0  0  0  0  0
   -9.3680    2.6990   15.0140 C   0  0  0  0  0  0
   -9.7440    2.9740   13.7630 C   0  0  0  0  0  0
  -10.7970    2.1920   13.0160 C   0  0  0  0  0  0
  -10.1080    1.2150   12.0760 C   0  0  0  0  0  0
   -9.9750   -0.1550   12.7260 C   0  0  0  0  0  0
   -9.7060   -1.2180   11.6740 C   0  0  0  0  0  0
   -9.4770   -2.5650   12.3200 C   0  0  0  0  0  0
   -2.0760   -5.0132   20.5481 H   0  0  0  0  0  0
   -2.9098   -6.2170   21.5884 H   0  0  0  0  0  0
   -4.6355   -4.7184   21.3859 H   0  0  0  0  0  0
   -3.7923   -3.9323   22.7635 H   0  0  0  0  0  0
   -2.5879   -2.4574   21.1658 H   0  0  0  0  0  0
   -3.4738   -3.2259   19.8052 H   0  0  0  0  0  0
   -4.9831   -1.9505   22.1451 H   0  0  0  0  0  0
   -6.1513   -3.4934   20.7918 H   0  0  0  0  0  0
   -3.5319   -0.1809   21.0754 H   0  0  0  0  0  0
   -4.0543   -0.7474   19.4528 H   0  0  0  0  0  0
   -6.3313   -0.1506   21.2083 H   0  0  0  0  0  0
   -5.2474    1.2641   20.9837 H   0  0  0  0  0  0
   -5.4192    1.1071   18.5838 H   0  0  0  0  0  0
   -6.2815   -0.4648   18.6933 H   0  0  0  0  0  0
   -8.0531    0.6918   19.9870 H   0  0  0  0  0  0
   -7.2216    2.2422   19.6243 H   0  0  0  0  0  0
   -7.7029    0.8740   17.1037 H   0  0  0  0  0  0
   -9.5365    2.4190   19.2092 H   0  0  0  0  0  0
  -11.1078    1.6406   17.5427 H   0  0  0  0  0  0
  -10.3278    3.1881   17.0702 H   0  0  0  0  0  0
   -9.2588    0.7307   15.8878 H   0  0  0  0  0  0
  -10.9160    1.2597   15.4402 H   0  0  0  0  0  0
   -8.5849    3.3011   15.4979 H   0  0  0  0  0  0
   -9.2793    3.8104   13.2203 H   0  0  0  0  0  0
  -11.4221    1.6405   13.7337 H   0  0  0  0  0  0
  -11.4265    2.8843   12.4377 H   0  0  0  0  0  0
  -10.6991    1.1148   11.1537 H   0  0  0  0  0  0
   -9.1038    1.5900   11.8290 H   0  0  0  0  0  0
   -9.1404   -0.1414   13.4424 H   0  0  0  0  0  0
  -10.9076   -0.4024   13.2542 H   0  0  0  0  0  0
  -10.5702   -1.2912   10.9974 H   0  0  0  0  0  0
   -8.8105   -0.9443   11.0968 H   0  0  0  0  0  0
   -9.2847   -3.3173   11.5409 H   0  0  0  0  0  0
  -10.3697   -2.8524   12.8949 H   0  0  0  0  0  0
   -8.6100   -2.5056   12.9944 H   0  0  0  0  0  0
  1  2  1  0  0  0
  2  3  2  0  0  0
  2  4  1  0  0  0
  4  5  1  0  0  0
  4 24  1  0  0  0
  4 25  1  0  0  0
  5  6  1  0  0  0
  5 26  1  0  0  0
  5 27  1  0  0  0
  6  7  1  0  0  0
  6 28  1  0  0  0
  6 29  1  0  0  0
  7  8  1  0  0  0
  7  9  1  0  0  0
  7 30  1  0  0  0
  8 31  1  0  0  0
  9 10  1  0  0  0
  9 32  1  0  0  0
  9 33  1  0  0  0
 10 11  1  0  0  0
 10 34  1  0  0  0
 10 35  1  0  0  0
 11 12  1  0  0  0
 11 36  1  0  0  0
 11 37  1  0  0  0
 12 13  1  0  0  0
 12 38  1  0  0  0
 12 39  1  0  0  0
 13 14  2  0  0  0
 13 40  1  0  0  0
 14 15  1  0  0  0
 14 41  1  0  0  0
 15 16  1  0  0  0
 15 42  1  0  0  0
 15 43  1  0  0  0
 16 17  1  0  0  0
 16 44  1  0  0  0
 16 45  1  0  0  0
 17 18  2  0  0  0
 17 46  1  0  0  0
 18 19  1  0  0  0
 18 47  1  0  0  0
 19 20  1  0  0  0
 19 48  1  0  0  0
 19 49  1  0  0  0
 20 21  1  0  0  0
 20 50  1  0  0  0
 20 51  1  0  0  0
 21 22  1  0  0  0
 21 52  1  0  0  0
 21 53  1  0  0  0
 22 23  1  0  0  0
 22 54  1  0  0  0
 22 55  1  0  0  0
 23 56  1  0  0  0
 23 57  1  0  0  0
 23 58  1  0  0  0
M  CHG  1   1  -1
M  END
> <s_m_source_file>
../3nhi_ligand.sdf

> <i_m_source_file_index>
1

> <s_epik_input>
W09IXUMoPU8pW0NIMl1bQ0gyXVtDSDJdW0NASF0oW09IXSlbQ0gyXVtDSDJdW0NIMl1bQ0gyXS9bQ0hdPVtDSF0vW0NIMl1bQ0gyXS9bQ0hdPVtDSF1cW0NIMl1bQ0gyXVtDSDJdW0NIMl1bQ0gzXQ==

> <s_epik_cmdline>
J2VwaWtfYXBwJywgJy1pbWFlJywgJ2xpZ2FuZF9wcm8ubWFlJywgJy1vbWFlJywgJ2xpZ2FuZF9wcmVwLm1hZScsICctbXMnLCAnMScsICctcGgnLCAnNycsICctcGh0JywgJzAuNScsICctbnQn

> <r_lp_tautomer_probability>
1

> <r_epik_Ionization_Penalty>
  0.0042

> <r_epik_Ionization_Penalty_Charging>
  0.0042

> <r_epik_Ionization_Penalty_Neutral>
  0.0000

> <r_epik_State_Penalty>
 -0.0000

> <r_epik_Charging_Adjusted_Penalty>
0.0042173165109617

> <i_epik_Tot_Q>
-1

> <i_epik_Tot_abs_Q>
1

$$$$
