3ni5_ligand
                    3D
 Schrodinger Suite 2020-3.
 44 45  0  0  1  0            999 V2000
    4.0640    9.9060   11.7140 O   0  5  0  0  0  0
    3.0920    9.3570   12.5580 N   0  3  0  0  0  0
   -2.9470    9.1130    8.2640 O   0  0  0  0  0  0
   -6.5740    5.2820   12.7820 O   0  0  0  0  0  0
    2.0860    8.6000   12.0180 O   0  0  0  0  0  0
    1.0010    8.0460   12.7800 C   0  0  0  0  0  0
   -0.0090    9.1060   13.2270 C   0  0  0  0  0  0
   -1.2860    9.0800   12.3900 C   0  0  0  0  0  0
   -1.0090    9.2470   10.8910 C   0  0  0  0  0  0
   -2.0820    9.9450   10.2570 O   0  0  0  0  0  0
   -3.0980    9.2360    9.4760 C   0  0  0  0  0  0
   -4.3300    8.6600   10.1360 C   0  0  0  0  0  0
   -4.2130    7.6810   11.1460 C   0  0  0  0  0  0
   -5.3540    7.1230   11.7410 C   0  0  0  0  0  0
   -5.3510    6.0170   12.9260 S   0  0  0  0  0  0
   -4.1910    5.0330   13.1930 N   0  5  0  0  0  0
   -4.3150    3.9260   14.0450 C   0  0  0  0  0  0
   -3.3090    3.0360   14.3480 N   0  0  0  0  0  0
   -3.7040    1.9880   15.2520 N   0  0  0  0  0  0
   -5.3160    1.0230   18.1240 O   0  0  0  0  0  0
   -5.5950    9.0980    9.7130 C   0  0  0  0  0  0
   -6.7400    8.5660   10.2950 C   0  0  0  0  0  0
   -6.6040    7.6050   11.3040 C   0  0  0  0  0  0
   -5.4790    6.7900   14.1280 O   0  0  0  0  0  0
   -5.7530    3.4660   14.8880 S   0  0  0  0  0  0
   -5.0120    2.1020   15.6590 C   0  0  0  0  0  0
   -5.8430    1.0660   16.7120 S   0  0  0  0  0  0
   -5.7120   -0.3010   16.1660 N   0  0  0  0  0  0
   -7.2570    1.5060   16.7620 O   0  0  0  0  0  0
    3.1630    9.5750   13.7630 O   0  0  0  0  0  0
    0.4640    7.3058   12.1687 H   0  0  0  0  0  0
    1.3982    7.5577   13.6821 H   0  0  0  0  0  0
   -0.2863    8.9287   14.2766 H   0  0  0  0  0  0
    0.4410   10.1051   13.1304 H   0  0  0  0  0  0
   -1.7995    8.1180   12.5344 H   0  0  0  0  0  0
   -1.9480    9.8999   12.7055 H   0  0  0  0  0  0
   -0.0797    9.8188   10.7513 H   0  0  0  0  0  0
   -0.9034    8.2562   10.4250 H   0  0  0  0  0  0
   -3.2239    7.3546   11.4675 H   0  0  0  0  0  0
   -5.6791    9.8526    8.9309 H   0  0  0  0  0  0
   -7.7283    8.8920    9.9708 H   0  0  0  0  0  0
   -7.5060    7.2118   11.7729 H   0  0  0  0  0  0
   -6.2393   -1.0097   16.8215 H   0  0  0  0  0  0
   -4.6477   -0.5738   16.1119 H   0  0  0  0  0  0
  1  2  1  0  0  0
  2  5  1  0  0  0
  2 30  2  0  0  0
  3 11  2  0  0  0
  4 15  2  0  0  0
  5  6  1  0  0  0
  6  7  1  0  0  0
  6 31  1  0  0  0
  6 32  1  0  0  0
  7  8  1  0  0  0
  7 33  1  0  0  0
  7 34  1  0  0  0
  8  9  1  0  0  0
  8 35  1  0  0  0
  8 36  1  0  0  0
  9 10  1  0  0  0
  9 37  1  0  0  0
  9 38  1  0  0  0
 10 11  1  0  0  0
 11 12  1  0  0  0
 12 13  2  0  0  0
 12 21  1  0  0  0
 13 14  1  0  0  0
 13 39  1  0  0  0
 14 15  1  0  0  0
 14 23  2  0  0  0
 15 16  1  0  0  0
 15 24  2  0  0  0
 16 17  1  0  0  0
 17 18  2  0  0  0
 17 25  1  0  0  0
 18 19  1  0  0  0
 19 26  2  0  0  0
 20 27  2  0  0  0
 21 22  2  0  0  0
 21 40  1  0  0  0
 22 23  1  0  0  0
 22 41  1  0  0  0
 23 42  1  0  0  0
 25 26  1  0  0  0
 26 27  1  0  0  0
 27 28  1  0  0  0
 27 29  2  0  0  0
 28 43  1  0  0  0
 28 44  1  0  0  0
M  CHG  3   1  -1   2   1  16  -1
M  END
> <s_m_source_file>
../3ni5_ligand.sdf

> <i_m_source_file_index>
1

> <s_epik_input>
W08tXVtOK10oPU8pT1tDSDJdW0NIMl1bQ0gyXVtDSDJdT0MoPU8pYzFbY0hdYyhbY0hdW2NIXVtjSF0xKVMoPU8pKD1PKVtOSF1jMm5uYyhzMilTKD1PKSg9TylbTkgyXQ==

> <s_epik_cmdline>
J2VwaWtfYXBwJywgJy1pbWFlJywgJ2xpZ2FuZF9wcm8ubWFlJywgJy1vbWFlJywgJ2xpZ2FuZF9wcmVwLm1hZScsICctbXMnLCAnMScsICctcGgnLCAnNycsICctcGh0JywgJzAuNScsICctbnQn

> <r_epik_Ionization_Penalty>
  0.0732

> <r_epik_Ionization_Penalty_Charging>
  0.0019

> <r_epik_Ionization_Penalty_Neutral>
  0.0713

> <r_epik_State_Penalty>
  0.0626

> <r_epik_Charging_Adjusted_Penalty>
0.0644940896080761

> <i_epik_Tot_Q>
-1

> <i_epik_Tot_abs_Q>
3

> <s_epik_Chemistry_Notes>
This compound has an ester and may undergo hydrolysis at high or low pH.

$$$$
