3nif_ligand
                    3D
 Schrodinger Suite 2020-3.
 35 37  0  0  1  0            999 V2000
   51.4400  108.9700   73.5070 C   0  0  0  0  0  0
   52.4310  108.1930   73.0590 N   0  0  0  0  0  0
   54.0850  106.1150   72.4120 O   0  0  0  0  0  0
   50.1430  107.9760   74.3730 S   0  0  0  0  0  0
   51.0660  106.5650   74.0400 C   0  0  0  0  0  0
   52.2190  106.8240   73.3650 N   0  0  0  0  0  0
   51.6520  104.1980   74.0130 C   0  0  0  0  0  0
   50.7460  105.3490   74.3780 N   0  3  0  0  0  0
   52.7910  104.4540   73.3620 C   0  0  0  0  0  0
   50.0420  100.5010   75.3810 N   0  3  0  0  0  0
   53.1030  105.8350   73.0090 C   0  0  0  0  0  0
   51.1650  102.9160   74.4850 N   0  0  0  0  0  0
   51.3350  110.4810   73.3740 C   0  0  0  0  0  0
   49.8680  110.9000   73.5130 C   0  0  0  0  0  0
   49.9770  102.9380   75.2910 C   0  0  0  0  0  0
   49.1590  101.6750   75.0930 C   0  0  0  0  0  0
   51.0100  100.4530   74.2730 C   0  0  0  0  0  0
   51.8730  101.7200   74.2440 C   0  0  0  0  0  0
   53.4741  103.6461   73.0997 H   0  0  0  0  0  0
   50.5458  100.6495   76.3475 H   0  0  0  0  0  0
   49.4334   99.5856   75.4217 H   0  0  0  0  0  0
   51.9317  110.9609   74.1637 H   0  0  0  0  0  0
   51.7146  110.7897   72.3888 H   0  0  0  0  0  0
   49.7882  111.9929   73.4173 H   0  0  0  0  0  0
   49.4898  110.5896   74.4982 H   0  0  0  0  0  0
   49.2727  110.4183   72.7233 H   0  0  0  0  0  0
   50.2554  103.0140   76.3525 H   0  0  0  0  0  0
   49.3598  103.8044   75.0109 H   0  0  0  0  0  0
   48.7971  101.6159   74.0559 H   0  0  0  0  0  0
   48.3013  101.6664   75.7817 H   0  0  0  0  0  0
   51.6678   99.5803   74.3984 H   0  0  0  0  0  0
   50.4704  100.3712   73.3179 H   0  0  0  0  0  0
   52.3413  101.7651   73.2497 H   0  0  0  0  0  0
   52.6517  101.5940   75.0106 H   0  0  0  0  0  0
   49.8140  105.1589   74.9305 H   0  0  0  0  0  0
  1  2  2  0  0  0
  1  4  1  0  0  0
  1 13  1  0  0  0
  2  6  1  0  0  0
  3 11  2  0  0  0
  4  5  1  0  0  0
  5  6  1  0  0  0
  5  8  2  0  0  0
  6 11  1  0  0  0
  7  8  1  0  0  0
  7  9  2  0  0  0
  7 12  1  0  0  0
  8 35  1  0  0  0
  9 11  1  0  0  0
  9 19  1  0  0  0
 10 16  1  0  0  0
 10 17  1  0  0  0
 10 20  1  0  0  0
 10 21  1  0  0  0
 12 15  1  0  0  0
 12 18  1  0  0  0
 13 14  1  0  0  0
 13 22  1  0  0  0
 13 23  1  0  0  0
 14 24  1  0  0  0
 14 25  1  0  0  0
 14 26  1  0  0  0
 15 16  1  0  0  0
 15 27  1  0  0  0
 15 28  1  0  0  0
 16 29  1  0  0  0
 16 30  1  0  0  0
 17 18  1  0  0  0
 17 31  1  0  0  0
 17 32  1  0  0  0
 18 33  1  0  0  0
 18 34  1  0  0  0
M  CHG  2   8   1  10   1
M  END
> <s_m_source_file>
../3nif_ligand.sdf

> <i_m_source_file_index>
1

> <s_epik_input>
W0NIM11bQ0gyXWMoczEpbm4oYzEyKWMoPU8pW2NIXWMobjIpTjNbQ0gyXVtDSDJdW05IMitdW0NIMl1bQ0gyXTM=

> <s_epik_cmdline>
J2VwaWtfYXBwJywgJy1pbWFlJywgJ2xpZ2FuZF9wcm8ubWFlJywgJy1vbWFlJywgJ2xpZ2FuZF9wcmVwLm1hZScsICctbXMnLCAnMScsICctcGgnLCAnNycsICctcGh0JywgJzAuNScsICctbnQn

> <r_epik_Ionization_Penalty>
  0.1261

> <r_epik_Ionization_Penalty_Charging>
  0.1261

> <r_epik_Ionization_Penalty_Neutral>
  0.0000

> <r_epik_State_Penalty>
  0.1072

> <r_epik_Charging_Adjusted_Penalty>
0.233289142864565

> <i_epik_Tot_Q>
2

> <i_epik_Tot_abs_Q>
2

> <s_epik_Chemistry_Notes>
This compound has an imine and may undergo hydrolysis.

$$$$
