3nii_ligand
                    3D
 Schrodinger Suite 2020-3.
 54 53  0  0  1  0            999 V2000
   26.2120   12.5890   -9.1830 N   0  3  0  0  0  0
   26.8690   11.3030   -8.8120 C   0  0  2  0  0  0
   27.4260   11.3720   -7.3980 C   0  0  0  0  0  0
   27.5140   12.4510   -6.8160 O   0  0  0  0  0  0
   27.9890   10.9600   -9.8020 C   0  0  0  0  0  0
   27.5730   10.9590  -11.2700 C   0  0  0  0  0  0
   26.7090    9.7570  -11.6270 C   0  0  0  0  0  0
   26.3760    9.7440  -13.1100 C   0  0  0  0  0  0
   27.5670    9.4470  -13.9540 N   0  3  0  0  0  0
   27.7910   10.2140   -6.8520 N   0  0  0  0  0  0
   28.4030   10.1360   -5.5280 C   0  0  2  0  0  0
   29.9110    9.9260   -5.6410 C   0  0  0  0  0  0
   30.3730    9.0360   -6.3610 O   0  0  0  0  0  0
   27.7360    9.0330   -4.6470 C   0  0  2  0  0  0
   26.4370    9.5560   -4.0110 C   0  0  0  0  0  0
   28.6950    8.4920   -3.5740 C   0  0  0  0  0  0
   26.5810   10.7880   -3.1160 C   0  0  0  0  0  0
   30.6660   10.7660   -4.9350 N   0  0  0  0  0  0
   32.1230   10.6680   -4.8930 C   0  0  2  0  0  0
   32.6000   10.1640   -3.5320 C   0  0  0  0  0  0
   31.9870    9.2415   -2.9313 O   0  0  0  0  0  0
   32.7570   12.0140   -5.2180 C   0  0  0  0  0  0
   33.6212   10.6783   -3.0026 O   0  5  0  0  0  0
   25.4136   12.8146   -8.4607 H   0  0  0  0  0  0
   25.7807   12.5029  -10.1913 H   0  0  0  0  0  0
   26.9570   13.3982   -9.1707 H   0  0  0  0  0  0
   26.0887   10.5288   -8.8525 H   0  0  0  0  0  0
   28.8018   11.6948   -9.7051 H   0  0  0  0  0  0
   28.3763    9.9539   -9.5833 H   0  0  0  0  0  0
   26.9955   11.8695  -11.4880 H   0  0  0  0  0  0
   28.4705   10.9332  -11.9054 H   0  0  0  0  0  0
   27.2487    8.8310  -11.3794 H   0  0  0  0  0  0
   25.7698    9.7979  -11.0558 H   0  0  0  0  0  0
   25.6169    8.9731  -13.3086 H   0  0  0  0  0  0
   25.9851   10.7285  -13.4067 H   0  0  0  0  0  0
   27.2746    9.4491  -15.0144 H   0  0  0  0  0  0
   27.9688    8.4586  -13.6863 H   0  0  0  0  0  0
   28.3370   10.2140  -13.7844 H   0  0  0  0  0  0
   27.6178    9.2960   -7.4328 H   0  0  0  0  0  0
   28.2196   11.1250   -5.0827 H   0  0  0  0  0  0
   27.4797    8.1826   -5.2960 H   0  0  0  0  0  0
   25.7268    9.8342   -4.8036 H   0  0  0  0  0  0
   25.9945    8.7698   -3.3816 H   0  0  0  0  0  0
   29.6138    8.1252   -4.0548 H   0  0  0  0  0  0
   28.2104    7.6668   -3.0316 H   0  0  0  0  0  0
   28.9469    9.2970   -2.8679 H   0  0  0  0  0  0
   25.5947   11.0702   -2.7191 H   0  0  0  0  0  0
   26.9921   11.6221   -3.7037 H   0  0  0  0  0  0
   27.2598   10.5577   -2.2816 H   0  0  0  0  0  0
   30.1514   11.5566   -4.3692 H   0  0  0  0  0  0
   32.3927    9.9353   -5.6678 H   0  0  0  0  0  0
   32.4015   12.3592   -6.2001 H   0  0  0  0  0  0
   33.8516   11.9077   -5.2409 H   0  0  0  0  0  0
   32.4758   12.7473   -4.4478 H   0  0  0  0  0  0
  1  2  1  0  0  0
  1 24  1  0  0  0
  1 25  1  0  0  0
  1 26  1  0  0  0
  2  3  1  0  0  0
  2  5  1  0  0  0
  2 27  1  0  0  0
  3  4  2  0  0  0
  3 10  1  0  0  0
  5  6  1  0  0  0
  5 28  1  0  0  0
  5 29  1  0  0  0
  6  7  1  0  0  0
  6 30  1  0  0  0
  6 31  1  0  0  0
  7  8  1  0  0  0
  7 32  1  0  0  0
  7 33  1  0  0  0
  8  9  1  0  0  0
  8 34  1  0  0  0
  8 35  1  0  0  0
  9 36  1  0  0  0
  9 37  1  0  0  0
  9 38  1  0  0  0
 10 11  1  0  0  0
 10 39  1  0  0  0
 11 12  1  0  0  0
 11 14  1  0  0  0
 11 40  1  0  0  0
 12 13  2  0  0  0
 12 18  1  0  0  0
 14 15  1  0  0  0
 14 16  1  0  0  0
 14 41  1  0  0  0
 15 17  1  0  0  0
 15 42  1  0  0  0
 15 43  1  0  0  0
 16 44  1  0  0  0
 16 45  1  0  0  0
 16 46  1  0  0  0
 17 47  1  0  0  0
 17 48  1  0  0  0
 17 49  1  0  0  0
 18 19  1  0  0  0
 18 50  1  0  0  0
 19 20  1  0  0  0
 19 22  1  0  0  0
 19 51  1  0  0  0
 20 21  2  0  0  0
 20 23  1  0  0  0
 22 52  1  0  0  0
 22 53  1  0  0  0
 22 54  1  0  0  0
M  CHG  3   1   1   9   1  23  -1
M  END
> <s_m_source_file>
../3nii_ligand.sdf

> <i_m_source_file_index>
1

> <s_epik_input>
W05IMytdW0NIMl1bQ0gyXVtDSDJdW0NIMl1bQ0BIXShbTkgzK10pQyg9TylbTkhdW0NAQEhdKFtDQEBIXShbQ0gzXSlbQ0gyXVtDSDNdKUMoPU8pW05IXVtDQEBIXShbQ0gzXSlDKD1PKVtPSF0=

> <s_epik_cmdline>
J2VwaWtfYXBwJywgJy1pbWFlJywgJ2xpZ2FuZF9wcm8ubWFlJywgJy1vbWFlJywgJ2xpZ2FuZF9wcmVwLm1hZScsICctbXMnLCAnMScsICctcGgnLCAnNycsICctcGh0JywgJzAuNScsICctbnQn

> <r_epik_Ionization_Penalty>
  0.1156

> <r_epik_Ionization_Penalty_Charging>
  0.1156

> <r_epik_Ionization_Penalty_Neutral>
  0.0000

> <r_epik_State_Penalty>
  0.1046

> <r_epik_Charging_Adjusted_Penalty>
0.22023858013514

> <i_epik_Tot_Q>
1

> <i_epik_Tot_abs_Q>
3

$$$$
