3nij_ligand
                    3D
 Schrodinger Suite 2020-3.
 47 47  0  0  1  0            999 V2000
   26.3640   12.4030   -9.0050 N   0  0  0  0  0  0
   26.9970   11.1070   -8.6310 C   0  0  2  0  0  0
   27.5570   11.1580   -7.2200 C   0  0  0  0  0  0
   27.7730   12.2360   -6.6730 O   0  0  0  0  0  0
   28.0940   10.7320   -9.6300 C   0  0  0  0  0  0
   27.5820   10.4640  -11.0100 C   0  0  0  0  0  0
   27.3800    9.1900  -11.4940 N   0  0  0  0  0  0
   27.2140   11.3070  -12.0030 C   0  0  0  0  0  0
   26.9160    9.2590  -12.7290 C   0  0  0  0  0  0
   26.8060   10.5330  -13.0620 N   0  0  0  0  0  0
   27.7870    9.9860   -6.6380 N   0  0  0  0  0  0
   28.3130    9.8910   -5.2810 C   0  0  2  0  0  0
   29.7520    9.3590   -5.2880 C   0  0  0  0  0  0
   30.2220    8.8480   -6.3090 O   0  0  0  0  0  0
   27.3710    9.0470   -4.3690 C   0  0  2  0  0  0
   27.3150    9.6280   -2.9520 C   0  0  0  0  0  0
   27.7380    7.5550   -4.3900 C   0  0  0  0  0  0
   26.3960   10.8390   -2.8190 C   0  0  0  0  0  0
   30.4420    9.4970   -4.1550 N   0  0  0  0  0  0
   31.8510    9.1080   -4.0240 C   0  0  2  0  0  0
   32.1050    7.6380   -4.3700 C   0  0  0  0  0  0
   32.8981    7.3250   -5.2977 O   0  0  0  0  0  0
   32.3540    9.4170   -2.6200 C   0  0  0  0  0  0
   31.5154    6.7331   -3.7210 O   0  5  0  0  0  0
   27.1228   13.1992   -8.9909 H   0  0  0  0  0  0
   25.9347   12.3235  -10.0146 H   0  0  0  0  0  0
   26.1995   10.3500   -8.6606 H   0  0  0  0  0  0
   29.1701   10.6504   -9.4171 H   0  0  0  0  0  0
   27.1937   12.4039  -12.0834 H   0  0  0  0  0  0
   26.6664    8.4097  -13.3650 H   0  0  0  0  0  0
   27.5694    9.0712   -7.2088 H   0  0  0  0  0  0
   28.3365   10.9281   -4.9151 H   0  0  0  0  0  0
   26.3462    9.1018   -4.7649 H   0  0  0  0  0  0
   26.9467    8.8605   -2.2553 H   0  0  0  0  0  0
   28.3223    9.9474   -2.6466 H   0  0  0  0  0  0
   27.7620    7.1979   -5.4302 H   0  0  0  0  0  0
   26.9869    6.9847   -3.8237 H   0  0  0  0  0  0
   28.7278    7.4144   -3.9311 H   0  0  0  0  0  0
   26.4092   11.1968   -1.7789 H   0  0  0  0  0  0
   25.3704   10.5531   -3.0955 H   0  0  0  0  0  0
   26.7460   11.6400   -3.4868 H   0  0  0  0  0  0
   29.9071    9.9245   -3.2941 H   0  0  0  0  0  0
   32.3740    9.7273   -4.7676 H   0  0  0  0  0  0
   32.1643   10.4752   -2.3872 H   0  0  0  0  0  0
   33.4344    9.2175   -2.5654 H   0  0  0  0  0  0
   31.8266    8.7815   -1.8934 H   0  0  0  0  0  0
   27.6049    8.3190  -10.8609 H   0  0  0  0  0  0
  1  2  1  0  0  0
  1 25  1  0  0  0
  1 26  1  0  0  0
  2  3  1  0  0  0
  2  5  1  0  0  0
  2 27  1  0  0  0
  3  4  2  0  0  0
  3 11  1  0  0  0
  5  6  2  0  0  0
  5 28  1  0  0  0
  6  7  1  0  0  0
  6  8  1  0  0  0
  7  9  1  0  0  0
  7 47  1  0  0  0
  8 10  2  0  0  0
  8 29  1  0  0  0
  9 10  1  0  0  0
  9 30  1  0  0  0
 11 12  1  0  0  0
 11 31  1  0  0  0
 12 13  1  0  0  0
 12 15  1  0  0  0
 12 32  1  0  0  0
 13 14  2  0  0  0
 13 19  1  0  0  0
 15 16  1  0  0  0
 15 17  1  0  0  0
 15 33  1  0  0  0
 16 18  1  0  0  0
 16 34  1  0  0  0
 16 35  1  0  0  0
 17 36  1  0  0  0
 17 37  1  0  0  0
 17 38  1  0  0  0
 18 39  1  0  0  0
 18 40  1  0  0  0
 18 41  1  0  0  0
 19 20  1  0  0  0
 19 42  1  0  0  0
 20 21  1  0  0  0
 20 23  1  0  0  0
 20 43  1  0  0  0
 21 22  2  0  0  0
 21 24  1  0  0  0
 23 44  1  0  0  0
 23 45  1  0  0  0
 23 46  1  0  0  0
M  CHG  1  24  -1
M  END
> <s_m_source_file>
../3nij_ligand.sdf

> <i_m_source_file_index>
1

> <s_epik_input>
W0NIXTE9TltDSDJdTj1DMVtDSDJdW0NASF0oW05IMytdKUMoPU8pW05IXVtDQEBIXShbQ0BASF0oW0NIM10pW0NIMl1bQ0gzXSlDKD1PKVtOSF1bQ0BASF0oW0NIM10pQyg9TylbT0hd

> <s_epik_cmdline>
J2VwaWtfYXBwJywgJy1pbWFlJywgJ2xpZ2FuZF9wcm8ubWFlJywgJy1vbWFlJywgJ2xpZ2FuZF9wcmVwLm1hZScsICctbXMnLCAnMScsICctcGgnLCAnNycsICctcGh0JywgJzAuNScsICctbnQn

> <r_epik_Ionization_Penalty>
  0.1072

> <r_epik_Ionization_Penalty_Charging>
  0.0002

> <r_epik_Ionization_Penalty_Neutral>
  0.1071

> <r_epik_State_Penalty>
  0.0969

> <r_epik_Charging_Adjusted_Penalty>
0.0970540796570865

> <i_epik_Tot_Q>
-1

> <i_epik_Tot_abs_Q>
1

> <s_epik_Chemistry_Notes>
This compound has an imine and may undergo hydrolysis.

$$$$
