3nik_ligand
                    3D
 Schrodinger Suite 2020-3.
 62 61  0  0  1  0            999 V2000
  -39.8440   12.8100   -4.7970 N   0  3  0  0  0  0
  -40.7610   13.0040   -5.9630 C   0  0  2  0  0  0
  -41.1250   11.6810   -6.6190 C   0  0  0  0  0  0
  -40.4720   10.6650   -6.4060 O   0  0  0  0  0  0
  -40.1210   13.9130   -7.0200 C   0  0  0  0  0  0
  -39.6460   15.2520   -6.5200 C   0  0  0  0  0  0
  -40.7960   16.1910   -6.1360 C   0  0  0  0  0  0
  -40.3220   17.5750   -6.0820 N   0  0  0  0  0  0
  -39.5240   18.0620   -5.1350 C   0  0  0  0  0  0
  -39.1440   19.3330   -5.1800 N   0  3  0  0  0  0
  -39.1090   17.2890   -4.1340 N   0  0  0  0  0  0
  -42.1840   11.7010   -7.4190 N   0  0  0  0  0  0
  -42.5140   10.5730   -8.2690 C   0  0  2  0  0  0
  -43.1450   11.1080   -9.5360 C   0  0  0  0  0  0
  -44.1390   11.8430   -9.4930 O   0  0  0  0  0  0
  -43.4690    9.5950   -7.5780 C   0  0  0  0  0  0
  -43.4940    8.1960   -8.2220 C   0  0  0  0  0  0
  -44.3970    8.0940   -9.4530 C   0  0  0  0  0  0
  -45.4740    8.7210   -9.4620 O   0  0  0  0  0  0
  -44.0380    7.3680  -10.4080 O   0  5  0  0  0  0
  -42.5590   10.7340  -10.6620 N   0  0  0  0  0  0
  -43.1050   11.1090  -11.9550 C   0  0  2  0  0  0
  -43.0680    9.8990  -12.8640 C   0  0  0  0  0  0
  -42.0270    9.5950  -13.4480 O   0  0  0  0  0  0
  -42.3070   12.2730  -12.5520 C   0  0  0  0  0  0
  -44.1990    9.1990  -12.9520 N   0  0  0  0  0  0
  -44.3430    8.0190  -13.8100 C   0  0  2  0  0  0
  -44.0730    8.3400  -15.2780 C   0  0  0  0  0  0
  -44.4680    9.3860  -15.7960 O   0  5  0  0  0  0
  -45.7350    7.4100  -13.6530 C   0  0  0  0  0  0
  -43.4460    7.5530  -15.9840 O   0  0  0  0  0  0
  -40.3266   12.1558   -4.0559 H   0  0  0  0  0  0
  -39.6239   13.7849   -4.3374 H   0  0  0  0  0  0
  -38.9073   12.3467   -5.1403 H   0  0  0  0  0  0
  -41.6683   13.4664   -5.5470 H   0  0  0  0  0  0
  -39.2413   13.4121   -7.4502 H   0  0  0  0  0  0
  -40.8511   14.1198   -7.8163 H   0  0  0  0  0  0
  -39.0195   15.1088   -5.6272 H   0  0  0  0  0  0
  -39.0573   15.7488   -7.3052 H   0  0  0  0  0  0
  -41.5979   16.1140   -6.8850 H   0  0  0  0  0  0
  -41.1880   15.9059   -5.1486 H   0  0  0  0  0  0
  -40.6251   18.2909   -6.8602 H   0  0  0  0  0  0
  -39.4820   19.9793   -6.0034 H   0  0  0  0  0  0
  -39.4188   16.2345   -4.0885 H   0  0  0  0  0  0
  -38.4562   17.7047   -3.3523 H   0  0  0  0  0  0
  -42.8176   12.6002   -7.4277 H   0  0  0  0  0  0
  -41.5655   10.0557   -8.4759 H   0  0  0  0  0  0
  -43.1665    9.4672   -6.5282 H   0  0  0  0  0  0
  -44.4938    9.9928   -7.6185 H   0  0  0  0  0  0
  -42.4778    7.9210   -8.5410 H   0  0  0  0  0  0
  -43.8596    7.4615   -7.4893 H   0  0  0  0  0  0
  -41.6424   10.1284  -10.6067 H   0  0  0  0  0  0
  -44.1459   11.4263  -11.7945 H   0  0  0  0  0  0
  -42.3520   13.1357  -11.8711 H   0  0  0  0  0  0
  -42.7371   12.5513  -13.5254 H   0  0  0  0  0  0
  -41.2591   11.9675  -12.6881 H   0  0  0  0  0  0
  -45.0480    9.5431  -12.3430 H   0  0  0  0  0  0
  -43.5741    7.3177  -13.4538 H   0  0  0  0  0  0
  -45.9184    7.1830  -12.5924 H   0  0  0  0  0  0
  -45.7985    6.4835  -14.2426 H   0  0  0  0  0  0
  -46.4905    8.1249  -14.0109 H   0  0  0  0  0  0
  -38.4911   19.7400   -4.3939 H   0  0  0  0  0  0
  1  2  1  0  0  0
  1 32  1  0  0  0
  1 33  1  0  0  0
  1 34  1  0  0  0
  2  3  1  0  0  0
  2  5  1  0  0  0
  2 35  1  0  0  0
  3  4  2  0  0  0
  3 12  1  0  0  0
  5  6  1  0  0  0
  5 36  1  0  0  0
  5 37  1  0  0  0
  6  7  1  0  0  0
  6 38  1  0  0  0
  6 39  1  0  0  0
  7  8  1  0  0  0
  7 40  1  0  0  0
  7 41  1  0  0  0
  8  9  1  0  0  0
  8 42  1  0  0  0
  9 10  2  0  0  0
  9 11  1  0  0  0
 10 43  1  0  0  0
 10 62  1  0  0  0
 11 44  1  0  0  0
 11 45  1  0  0  0
 12 13  1  0  0  0
 12 46  1  0  0  0
 13 14  1  0  0  0
 13 16  1  0  0  0
 13 47  1  0  0  0
 14 15  2  0  0  0
 14 21  1  0  0  0
 16 17  1  0  0  0
 16 48  1  0  0  0
 16 49  1  0  0  0
 17 18  1  0  0  0
 17 50  1  0  0  0
 17 51  1  0  0  0
 18 19  2  0  0  0
 18 20  1  0  0  0
 21 22  1  0  0  0
 21 52  1  0  0  0
 22 23  1  0  0  0
 22 25  1  0  0  0
 22 53  1  0  0  0
 23 24  2  0  0  0
 23 26  1  0  0  0
 25 54  1  0  0  0
 25 55  1  0  0  0
 25 56  1  0  0  0
 26 27  1  0  0  0
 26 57  1  0  0  0
 27 28  1  0  0  0
 27 30  1  0  0  0
 27 58  1  0  0  0
 28 29  1  0  0  0
 28 31  2  0  0  0
 30 59  1  0  0  0
 30 60  1  0  0  0
 30 61  1  0  0  0
M  CHG  4   1   1  10   1  20  -1  29  -1
M  END
> <s_m_source_file>
../3nik_ligand.sdf

> <i_m_source_file_index>
1

> <s_epik_input>
W0hdL049QyhbTkgyXSlcW05IXVtDSDJdW0NIMl1bQ0gyXVtDQEhdKFtOSDMrXSlDKD1PKVtOSF1bQ0BASF0oW0NIMl1bQ0gyXUMoPU8pW09IXSlDKD1PKVtOSF1bQ0BASF0oW0NIM10pQyg9TylbTkhdW0NAQEhdKFtDSDNdKUMoPU8pW09IXQ==

> <s_epik_cmdline>
J2VwaWtfYXBwJywgJy1pbWFlJywgJ2xpZ2FuZF9wcm8ubWFlJywgJy1vbWFlJywgJ2xpZ2FuZF9wcmVwLm1hZScsICctbXMnLCAnMScsICctcGgnLCAnNycsICctcGh0JywgJzAuNScsICctbnQn

> <r_epik_Ionization_Penalty>
  0.1309

> <r_epik_Ionization_Penalty_Charging>
  0.1309

> <r_epik_Ionization_Penalty_Neutral>
  0.0000

> <r_epik_State_Penalty>
  0.1185

> <r_epik_Charging_Adjusted_Penalty>
0.249422650492866

> <i_epik_Tot_Q>
0

> <i_epik_Tot_abs_Q>
4

> <s_epik_Chemistry_Notes>
This compound has an imine and may undergo hydrolysis.

$$$$
