3nil_ligand
                    3D
 Schrodinger Suite 2020-3.
 49 48  0  0  1  0            999 V2000
  -39.3400   13.1910   -5.4950 N   0  3  0  0  0  0
  -40.2600   13.2810   -6.6670 C   0  0  2  0  0  0
  -40.5660   11.8930   -7.2280 C   0  0  0  0  0  0
  -39.8790   10.9220   -6.9030 O   0  0  0  0  0  0
  -39.6590   14.1760   -7.7680 C   0  0  0  0  0  0
  -39.0440   15.5010   -7.3000 C   0  0  0  0  0  0
  -40.0760   16.4260   -6.6710 C   0  0  0  0  0  0
  -39.6500   17.8270   -6.6870 N   0  0  0  0  0  0
  -38.9100   18.4170   -5.7510 C   0  0  0  0  0  0
  -38.4840   17.7410   -4.6820 N   0  0  0  0  0  0
  -38.5930   19.6970   -5.8840 N   0  3  0  0  0  0
  -41.6010   11.8020   -8.0630 N   0  0  0  0  0  0
  -41.9140   10.5600   -8.7710 C   0  0  2  0  0  0
  -41.4030   10.5990  -10.2170 C   0  0  0  0  0  0
  -41.6270   11.5730  -10.9420 O   0  0  0  0  0  0
  -43.4220   10.2790   -8.7270 C   0  0  0  0  0  0
  -43.8220    9.0170   -9.4950 C   0  0  0  0  0  0
  -42.9690    8.3810  -10.1500 O   0  5  0  0  0  0
  -45.0100    8.6550   -9.4490 O   0  0  0  0  0  0
  -40.7230    9.5240  -10.6190 N   0  0  0  0  0  0
  -40.1560    9.3960  -11.9610 C   0  0  2  0  0  0
  -40.7710    8.2290  -12.7410 C   0  0  0  0  0  0
  -41.4437    7.3379  -12.1571 O   0  5  0  0  0  0
  -38.6420    9.2540  -11.8840 C   0  0  0  0  0  0
  -40.6011    8.1594  -13.9875 O   0  0  0  0  0  0
  -39.7900   12.5482   -4.7241 H   0  0  0  0  0  0
  -39.1729   14.1967   -5.0820 H   0  0  0  0  0  0
  -38.3792   12.7618   -5.8152 H   0  0  0  0  0  0
  -41.1920   13.7282   -6.2911 H   0  0  0  0  0  0
  -38.8538   13.6322   -8.2837 H   0  0  0  0  0  0
  -40.4430   14.4433   -8.4918 H   0  0  0  0  0  0
  -38.2653   15.2990   -6.5498 H   0  0  0  0  0  0
  -38.5983   16.0224   -8.1600 H   0  0  0  0  0  0
  -41.0223   16.3515   -7.2268 H   0  0  0  0  0  0
  -40.2417   16.1324   -5.6239 H   0  0  0  0  0  0
  -39.9427   18.4814   -7.5213 H   0  0  0  0  0  0
  -38.7428   16.6784   -4.5642 H   0  0  0  0  0  0
  -37.8741   18.2465   -3.9187 H   0  0  0  0  0  0
  -38.9402   20.2612   -6.7621 H   0  0  0  0  0  0
  -42.2274   12.6936   -8.2133 H   0  0  0  0  0  0
  -41.3751    9.7722   -8.2242 H   0  0  0  0  0  0
  -43.7401   10.1473   -7.6823 H   0  0  0  0  0  0
  -43.9658   11.1253   -9.1719 H   0  0  0  0  0  0
  -40.5971    8.7109   -9.8889 H   0  0  0  0  0  0
  -40.4200   10.3352  -12.4692 H   0  0  0  0  0  0
  -38.2225   10.1007  -11.3209 H   0  0  0  0  0  0
  -38.2223    9.2458  -12.9008 H   0  0  0  0  0  0
  -38.3875    8.3128  -11.3747 H   0  0  0  0  0  0
  -37.9827   20.1951   -5.1163 H   0  0  0  0  0  0
  1  2  1  0  0  0
  1 26  1  0  0  0
  1 27  1  0  0  0
  1 28  1  0  0  0
  2  3  1  0  0  0
  2  5  1  0  0  0
  2 29  1  0  0  0
  3  4  2  0  0  0
  3 12  1  0  0  0
  5  6  1  0  0  0
  5 30  1  0  0  0
  5 31  1  0  0  0
  6  7  1  0  0  0
  6 32  1  0  0  0
  6 33  1  0  0  0
  7  8  1  0  0  0
  7 34  1  0  0  0
  7 35  1  0  0  0
  8  9  1  0  0  0
  8 36  1  0  0  0
  9 10  1  0  0  0
  9 11  2  0  0  0
 10 37  1  0  0  0
 10 38  1  0  0  0
 11 39  1  0  0  0
 11 49  1  0  0  0
 12 13  1  0  0  0
 12 40  1  0  0  0
 13 14  1  0  0  0
 13 16  1  0  0  0
 13 41  1  0  0  0
 14 15  2  0  0  0
 14 20  1  0  0  0
 16 17  1  0  0  0
 16 42  1  0  0  0
 16 43  1  0  0  0
 17 18  1  0  0  0
 17 19  2  0  0  0
 20 21  1  0  0  0
 20 44  1  0  0  0
 21 22  1  0  0  0
 21 24  1  0  0  0
 21 45  1  0  0  0
 22 23  1  0  0  0
 22 25  2  0  0  0
 24 46  1  0  0  0
 24 47  1  0  0  0
 24 48  1  0  0  0
M  CHG  4   1   1  11   1  18  -1  23  -1
M  END
> <s_m_source_file>
../3nil_ligand.sdf

> <i_m_source_file_index>
1

> <s_epik_input>
W0hdL049QyhbTkgyXSlcW05IXVtDSDJdW0NIMl1bQ0gyXVtDQEhdKFtOSDMrXSlDKD1PKVtOSF1bQ0BASF0oW0NIMl1DKD1PKVtPSF0pQyg9TylbTkhdW0NAQEhdKFtDSDNdKUMoPU8pW09IXQ==

> <s_epik_cmdline>
J2VwaWtfYXBwJywgJy1pbWFlJywgJ2xpZ2FuZF9wcm8ubWFlJywgJy1vbWFlJywgJ2xpZ2FuZF9wcmVwLm1hZScsICctbXMnLCAnMScsICctcGgnLCAnNycsICctcGh0JywgJzAuNScsICctbnQn

> <r_epik_Ionization_Penalty>
  0.1336

> <r_epik_Ionization_Penalty_Charging>
  0.1336

> <r_epik_Ionization_Penalty_Neutral>
  0.0000

> <r_epik_State_Penalty>
  0.1213

> <r_epik_Charging_Adjusted_Penalty>
0.254872913337825

> <i_epik_Tot_Q>
0

> <i_epik_Tot_abs_Q>
4

> <s_epik_Chemistry_Notes>
This compound has an imine and may undergo hydrolysis.

$$$$
