3nim_ligand
                    3D
 Schrodinger Suite 2020-3.
 71 70  0  0  1  0            999 V2000
  -30.4490   -2.7610   -4.9540 N   0  3  0  0  0  0
  -30.9280   -3.6120   -6.0840 C   0  0  2  0  0  0
  -29.8220   -4.5240   -6.6050 C   0  0  0  0  0  0
  -28.6550   -4.3700   -6.2400 O   0  0  0  0  0  0
  -31.4510   -2.7430   -7.2330 C   0  0  0  0  0  0
  -32.2670   -1.5280   -6.8240 C   0  0  0  0  0  0
  -33.6390   -1.9180   -6.3260 C   0  0  0  0  0  0
  -34.6040   -0.8280   -6.4530 N   0  0  0  0  0  0
  -34.6530    0.2490   -5.6660 C   0  0  0  0  0  0
  -33.7820    0.4120   -4.6730 N   0  0  0  0  0  0
  -35.5890    1.1700   -5.8720 N   0  3  0  0  0  0
  -30.1940   -5.4660   -7.4710 N   0  0  0  0  0  0
  -29.2300   -6.3540   -8.1100 C   0  0  2  0  0  0
  -29.0200   -5.8980   -9.5450 C   0  0  0  0  0  0
  -29.9480   -5.3650  -10.1600 O   0  0  0  0  0  0
  -29.7270   -7.8020   -8.0760 C   0  0  0  0  0  0
  -30.8860   -8.0870   -9.0190 C   0  0  0  0  0  0
  -31.7710   -9.2010   -8.5160 C   0  0  0  0  0  0
  -31.2890  -10.5320   -8.8820 N   0  0  0  0  0  0
  -31.7080  -11.6720   -8.3270 C   0  0  0  0  0  0
  -32.6190  -11.6730   -7.3570 N   0  0  0  0  0  0
  -31.2030  -12.8250   -8.7460 N   0  3  0  0  0  0
  -27.8100   -6.1050  -10.0680 N   0  0  0  0  0  0
  -27.4900   -5.7660  -11.4610 C   0  0  2  0  0  0
  -28.2620   -6.6610  -12.4310 C   0  0  0  0  0  0
  -28.0160   -7.8710  -12.5080 O   0  0  0  0  0  0
  -25.9770   -5.8480  -11.7190 C   0  0  0  0  0  0
  -29.2070   -6.0420  -13.1450 N   0  0  0  0  0  0
  -30.1180   -6.7070  -14.0990 C   0  0  2  0  0  0
  -31.0690   -7.7250  -13.4540 C   0  0  0  0  0  0
  -30.9050   -8.1230  -12.2970 O   0  0  0  0  0  0
  -29.3440   -7.3260  -15.2790 C   0  0  0  0  0  0
  -32.0420   -8.1740  -14.0680 O   0  5  0  0  0  0
  -30.0788   -3.4041   -4.1420 H   0  0  0  0  0  0
  -31.2798   -2.1431   -4.5826 H   0  0  0  0  0  0
  -29.6356   -2.1090   -5.3052 H   0  0  0  0  0  0
  -31.7395   -4.2294   -5.6714 H   0  0  0  0  0  0
  -30.6023   -2.3604   -7.8190 H   0  0  0  0  0  0
  -32.1024   -3.3466   -7.8821 H   0  0  0  0  0  0
  -31.7459   -0.9909   -6.0178 H   0  0  0  0  0  0
  -32.3898   -0.8605   -7.6896 H   0  0  0  0  0  0
  -34.0114   -2.7731   -6.9093 H   0  0  0  0  0  0
  -33.5778   -2.1975   -5.2639 H   0  0  0  0  0  0
  -35.3664   -0.8579   -7.2454 H   0  0  0  0  0  0
  -33.0037   -0.3445   -4.4944 H   0  0  0  0  0  0
  -33.8404    1.3032   -4.0309 H   0  0  0  0  0  0
  -36.3135    1.0445   -6.6901 H   0  0  0  0  0  0
  -31.2658   -5.5623   -7.6990 H   0  0  0  0  0  0
  -28.2929   -6.2761   -7.5392 H   0  0  0  0  0  0
  -28.9069   -8.4779   -8.3599 H   0  0  0  0  0  0
  -30.0700   -8.0482   -7.0603 H   0  0  0  0  0  0
  -31.5031   -7.1826   -9.1253 H   0  0  0  0  0  0
  -30.4937   -8.3811  -10.0037 H   0  0  0  0  0  0
  -31.8256   -9.1586   -7.4182 H   0  0  0  0  0  0
  -32.7803   -9.0864   -8.9380 H   0  0  0  0  0  0
  -30.5263  -10.6442   -9.6667 H   0  0  0  0  0  0
  -33.0448  -10.7231   -7.0014 H   0  0  0  0  0  0
  -32.9462  -12.6237   -6.9108 H   0  0  0  0  0  0
  -30.4494  -12.8366   -9.5472 H   0  0  0  0  0  0
  -27.0394   -6.5453   -9.4181 H   0  0  0  0  0  0
  -27.8228   -4.7257  -11.5914 H   0  0  0  0  0  0
  -25.4480   -5.1958  -11.0085 H   0  0  0  0  0  0
  -25.7621   -5.5209  -12.7470 H   0  0  0  0  0  0
  -25.6381   -6.8860  -11.5861 H   0  0  0  0  0  0
  -29.2792   -4.9567  -12.9809 H   0  0  0  0  0  0
  -30.7448   -5.8769  -14.4568 H   0  0  0  0  0  0
  -28.6745   -6.5700  -15.7153 H   0  0  0  0  0  0
  -30.0556   -7.6707  -16.0437 H   0  0  0  0  0  0
  -28.7494   -8.1791  -14.9203 H   0  0  0  0  0  0
  -31.5379  -13.7694   -8.2922 H   0  0  0  0  0  0
  -35.6391    2.0577   -5.2244 H   0  0  0  0  0  0
  1  2  1  0  0  0
  1 34  1  0  0  0
  1 35  1  0  0  0
  1 36  1  0  0  0
  2  3  1  0  0  0
  2  5  1  0  0  0
  2 37  1  0  0  0
  3  4  2  0  0  0
  3 12  1  0  0  0
  5  6  1  0  0  0
  5 38  1  0  0  0
  5 39  1  0  0  0
  6  7  1  0  0  0
  6 40  1  0  0  0
  6 41  1  0  0  0
  7  8  1  0  0  0
  7 42  1  0  0  0
  7 43  1  0  0  0
  8  9  1  0  0  0
  8 44  1  0  0  0
  9 10  1  0  0  0
  9 11  2  0  0  0
 10 45  1  0  0  0
 10 46  1  0  0  0
 11 47  1  0  0  0
 11 71  1  0  0  0
 12 13  1  0  0  0
 12 48  1  0  0  0
 13 14  1  0  0  0
 13 16  1  0  0  0
 13 49  1  0  0  0
 14 15  2  0  0  0
 14 23  1  0  0  0
 16 17  1  0  0  0
 16 50  1  0  0  0
 16 51  1  0  0  0
 17 18  1  0  0  0
 17 52  1  0  0  0
 17 53  1  0  0  0
 18 19  1  0  0  0
 18 54  1  0  0  0
 18 55  1  0  0  0
 19 20  1  0  0  0
 19 56  1  0  0  0
 20 21  1  0  0  0
 20 22  2  0  0  0
 21 57  1  0  0  0
 21 58  1  0  0  0
 22 59  1  0  0  0
 22 70  1  0  0  0
 23 24  1  0  0  0
 23 60  1  0  0  0
 24 25  1  0  0  0
 24 27  1  0  0  0
 24 61  1  0  0  0
 25 26  2  0  0  0
 25 28  1  0  0  0
 27 62  1  0  0  0
 27 63  1  0  0  0
 27 64  1  0  0  0
 28 29  1  0  0  0
 28 65  1  0  0  0
 29 30  1  0  0  0
 29 32  1  0  0  0
 29 66  1  0  0  0
 30 31  2  0  0  0
 30 33  1  0  0  0
 32 67  1  0  0  0
 32 68  1  0  0  0
 32 69  1  0  0  0
M  CHG  4   1   1  11   1  22   1  33  -1
M  END
> <s_m_source_file>
../3nim_ligand.sdf

> <i_m_source_file_index>
1

> <s_epik_input>
W0hdL049QyhbTkgyXSlcW05IXVtDSDJdW0NIMl1bQ0gyXVtDQEhdKFtOSDMrXSlDKD1PKVtOSF1bQ0BASF0oW0NIMl1bQ0gyXVtDSDJdW05IXS9DKFtOSDJdKT1OXFtIXSlDKD1PKVtOSF1bQ0BASF0oW0NIM10pQyg9TylbTkhdW0NAQEhdKFtDSDNdKUMoPU8pW09IXQ==

> <s_epik_cmdline>
J2VwaWtfYXBwJywgJy1pbWFlJywgJ2xpZ2FuZF9wcm8ubWFlJywgJy1vbWFlJywgJ2xpZ2FuZF9wcmVwLm1hZScsICctbXMnLCAnMScsICctcGgnLCAnNycsICctcGh0JywgJzAuNScsICctbnQn

> <r_epik_Ionization_Penalty>
  0.1368

> <r_epik_Ionization_Penalty_Charging>
  0.1368

> <r_epik_Ionization_Penalty_Neutral>
  0.0000

> <r_epik_State_Penalty>
  0.1260

> <r_epik_Charging_Adjusted_Penalty>
0.262803073012829

> <i_epik_Tot_Q>
2

> <i_epik_Tot_abs_Q>
4

> <s_epik_Chemistry_Notes>
This compound has an imine and may undergo hydrolysis.

$$$$
