3nin_ligand
                    3D
 Schrodinger Suite 2020-3.
 68 67  0  0  1  0            999 V2000
    8.1240  -14.6900    4.2010 N   0  3  0  0  0  0
    9.0540  -14.3080    5.2980 C   0  0  2  0  0  0
    9.3350  -15.4900    6.2100 C   0  0  0  0  0  0
    8.5820  -16.4660    6.2220 O   0  0  0  0  0  0
    8.4940  -13.1540    6.1410 C   0  0  0  0  0  0
    8.0290  -11.9360    5.3680 C   0  0  0  0  0  0
    9.1230  -11.3310    4.4960 C   0  0  0  0  0  0
    8.7930   -9.9580    4.1170 N   0  0  0  0  0  0
    7.9520   -9.6140    3.1430 C   0  0  0  0  0  0
    7.3310  -10.5410    2.4190 N   0  0  0  0  0  0
    7.7290   -8.3280    2.8980 N   0  3  0  0  0  0
   10.4280  -15.3910    6.9650 N   0  0  0  0  0  0
   10.7520  -16.3710    7.9950 C   0  0  2  0  0  0
   10.7630  -15.7050    9.3680 C   0  0  0  0  0  0
   11.3150  -14.6140    9.5300 O   0  0  0  0  0  0
   12.1030  -17.0310    7.7120 C   0  0  0  0  0  0
   12.3810  -18.3530    8.4260 C   0  0  0  0  0  0
   11.7050  -19.5230    7.7150 C   0  0  0  0  0  0
   13.8820  -18.5790    8.5290 C   0  0  0  0  0  0
   10.1470  -16.3640   10.3480 N   0  0  0  0  0  0
   10.0930  -15.8430   11.7180 C   0  0  0  0  0  0
    9.8210  -16.9000   12.7720 C   0  0  0  0  0  0
   10.1570  -18.0760   12.5830 O   0  0  0  0  0  0
    9.2200  -16.4590   13.8830 N   0  0  0  0  0  0
    8.7420  -17.3230   14.9810 C   0  0  2  0  0  0
    9.9010  -17.9230   15.7790 C   0  0  0  0  0  0
   11.0448  -18.0454   15.2648 O   0  5  0  0  0  0
    7.7650  -18.4070   14.4660 C   0  0  0  0  0  0
    7.0300  -19.2350   15.5410 C   0  0  0  0  0  0
    7.5810  -20.6500   15.6960 C   0  0  0  0  0  0
    7.8370  -21.3140   14.6660 O   0  0  0  0  0  0
    7.7430  -21.1080   16.8520 O   0  5  0  0  0  0
    9.7094  -18.2997   16.9660 O   0  0  0  0  0  0
    8.5602  -15.5174    3.6220 H   0  0  0  0  0  0
    7.9617  -13.8257    3.5403 H   0  0  0  0  0  0
    7.1627  -15.0093    4.6298 H   0  0  0  0  0  0
    9.9800  -13.9940    4.7940 H   0  0  0  0  0  0
    7.6222  -13.5064    6.7118 H   0  0  0  0  0  0
    9.2685  -12.7986    6.8366 H   0  0  0  0  0  0
    7.1937  -12.2165    4.7095 H   0  0  0  0  0  0
    7.6957  -11.1598    6.0726 H   0  0  0  0  0  0
   10.0727  -11.3247    5.0510 H   0  0  0  0  0  0
    9.2368  -11.9313    3.5813 H   0  0  0  0  0  0
    9.2528   -9.1141    4.6522 H   0  0  0  0  0  0
    7.5126  -11.6074    2.6183 H   0  0  0  0  0  0
    6.6359  -10.2412    1.6209 H   0  0  0  0  0  0
    8.2403   -7.5578    3.4941 H   0  0  0  0  0  0
   11.0962  -14.5347    6.7909 H   0  0  0  0  0  0
    9.9552  -17.1279    7.9489 H   0  0  0  0  0  0
   12.1872  -17.2476    6.6368 H   0  0  0  0  0  0
   12.9135  -16.3513    8.0136 H   0  0  0  0  0  0
   11.9610  -18.2962    9.4411 H   0  0  0  0  0  0
   10.6225  -19.3379    7.6523 H   0  0  0  0  0  0
   11.8865  -20.4494    8.2796 H   0  0  0  0  0  0
   12.1190  -19.6245    6.7010 H   0  0  0  0  0  0
   14.3469  -17.7252    9.0437 H   0  0  0  0  0  0
   14.3084  -18.6751    7.5196 H   0  0  0  0  0  0
   14.0759  -19.5001    9.0982 H   0  0  0  0  0  0
    9.6701  -17.3252   10.1059 H   0  0  0  0  0  0
   11.0557  -15.3743   11.9702 H   0  0  0  0  0  0
    9.2899  -15.0952   11.7945 H   0  0  0  0  0  0
    9.0911  -15.3684   13.9454 H   0  0  0  0  0  0
    8.1966  -16.6454   15.6544 H   0  0  0  0  0  0
    6.9784  -17.9336   13.8601 H   0  0  0  0  0  0
    8.3150  -19.1335   13.8498 H   0  0  0  0  0  0
    7.1233  -18.7349   16.5163 H   0  0  0  0  0  0
    5.9665  -19.3215   15.2736 H   0  0  0  0  0  0
    7.0330   -8.0330    2.0989 H   0  0  0  0  0  0
  1  2  1  0  0  0
  1 34  1  0  0  0
  1 35  1  0  0  0
  1 36  1  0  0  0
  2  3  1  0  0  0
  2  5  1  0  0  0
  2 37  1  0  0  0
  3  4  2  0  0  0
  3 12  1  0  0  0
  5  6  1  0  0  0
  5 38  1  0  0  0
  5 39  1  0  0  0
  6  7  1  0  0  0
  6 40  1  0  0  0
  6 41  1  0  0  0
  7  8  1  0  0  0
  7 42  1  0  0  0
  7 43  1  0  0  0
  8  9  1  0  0  0
  8 44  1  0  0  0
  9 10  1  0  0  0
  9 11  2  0  0  0
 10 45  1  0  0  0
 10 46  1  0  0  0
 11 47  1  0  0  0
 11 68  1  0  0  0
 12 13  1  0  0  0
 12 48  1  0  0  0
 13 14  1  0  0  0
 13 16  1  0  0  0
 13 49  1  0  0  0
 14 15  2  0  0  0
 14 20  1  0  0  0
 16 17  1  0  0  0
 16 50  1  0  0  0
 16 51  1  0  0  0
 17 18  1  0  0  0
 17 19  1  0  0  0
 17 52  1  0  0  0
 18 53  1  0  0  0
 18 54  1  0  0  0
 18 55  1  0  0  0
 19 56  1  0  0  0
 19 57  1  0  0  0
 19 58  1  0  0  0
 20 21  1  0  0  0
 20 59  1  0  0  0
 21 22  1  0  0  0
 21 60  1  0  0  0
 21 61  1  0  0  0
 22 23  2  0  0  0
 22 24  1  0  0  0
 24 25  1  0  0  0
 24 62  1  0  0  0
 25 26  1  0  0  0
 25 28  1  0  0  0
 25 63  1  0  0  0
 26 27  1  0  0  0
 26 33  2  0  0  0
 28 29  1  0  0  0
 28 64  1  0  0  0
 28 65  1  0  0  0
 29 30  1  0  0  0
 29 66  1  0  0  0
 29 67  1  0  0  0
 30 31  2  0  0  0
 30 32  1  0  0  0
M  CHG  4   1   1  11   1  27  -1  32  -1
M  END
> <s_m_source_file>
../3nin_ligand.sdf

> <i_m_source_file_index>
1

> <s_epik_input>
W0hdL049QyhbTkgyXSlcW05IXVtDSDJdW0NIMl1bQ0gyXVtDQEhdKFtOSDMrXSlDKD1PKVtOSF1bQ0BASF0oW0NIMl1bQ0hdKFtDSDNdKVtDSDNdKUMoPU8pW05IXVtDSDJdQyg9TylbTkhdW0NASF0oQyg9TylbT0hdKVtDSDJdW0NIMl1DKD1PKVtPSF0=

> <s_epik_cmdline>
J2VwaWtfYXBwJywgJy1pbWFlJywgJ2xpZ2FuZF9wcm8ubWFlJywgJy1vbWFlJywgJ2xpZ2FuZF9wcmVwLm1hZScsICctbXMnLCAnMScsICctcGgnLCAnNycsICctcGh0JywgJzAuNScsICctbnQn

> <r_epik_Ionization_Penalty>
  0.1348

> <r_epik_Ionization_Penalty_Charging>
  0.1348

> <r_epik_Ionization_Penalty_Neutral>
  0.0000

> <r_epik_State_Penalty>
  0.1205

> <r_epik_Charging_Adjusted_Penalty>
0.255267326717422

> <i_epik_Tot_Q>
0

> <i_epik_Tot_abs_Q>
4

> <s_epik_Chemistry_Notes>
This compound has an imine and may undergo hydrolysis.

$$$$
