3njq_ligand
                    3D
 Schrodinger Suite 2020-3.
 59 62  0  0  1  0            999 V2000
    1.1620  -31.1060  -18.0700 C   0  0  0  0  0  0
    1.3920  -32.2610  -19.0350 C   0  0  0  0  0  0
    1.3980  -31.9550  -20.3860 C   0  0  0  0  0  0
    1.6360  -32.9330  -21.3300 C   0  0  0  0  0  0
    1.8670  -34.2630  -20.9340 C   0  0  0  0  0  0
    1.8720  -34.5550  -19.5730 C   0  0  0  0  0  0
    1.6580  -33.5800  -18.6140 C   0  0  0  0  0  0
    1.5610  -33.9090  -17.3190 N   0  0  0  0  0  0
    1.6070  -32.5870  -22.7920 C   0  0  0  0  0  0
    1.7180  -33.5350  -23.5840 O   0  0  0  0  0  0
    1.4260  -31.4030  -23.1320 O   0  5  0  0  0  0
   -0.2510  -31.0110  -17.5890 C   0  0  0  0  0  0
   -2.8420  -30.7820  -16.6410 C   0  0  0  0  0  0
   -2.5700  -31.4650  -17.8000 C   0  0  0  0  0  0
   -1.2770  -31.6090  -18.2780 C   0  0  0  0  0  0
   -0.5110  -30.3060  -16.4260 C   0  0  0  0  0  0
   -1.8080  -30.1970  -15.9500 C   0  0  0  0  0  0
    2.1870  -34.8150  -16.5700 C   0  0  0  0  0  0
    3.1390  -35.5280  -16.8950 O   0  0  0  0  0  0
    1.6240  -34.9190  -15.1950 C   0  0  0  0  0  0
    2.0910  -35.9140  -14.3550 C   0  0  0  0  0  0
    1.5610  -35.9840  -13.0990 C   0  0  0  0  0  0
    0.5660  -35.1040  -12.6980 C   0  0  0  0  0  0
    0.1190  -34.1330  -13.5920 C   0  0  0  0  0  0
    0.6550  -34.0760  -14.7930 N   0  0  0  0  0  0
   -0.9990  -33.1280  -13.2380 C   0  0  0  0  0  0
   -2.4990  -33.5880  -13.2580 C   0  0  0  0  0  0
   -2.7870  -35.0130  -13.7910 C   0  0  0  0  0  0
   -3.4450  -32.4370  -13.7790 C   0  0  0  0  0  0
   -5.2370  -34.2820  -13.9530 C   0  0  0  0  0  0
   -4.9100  -32.7850  -14.1920 C   0  0  0  0  0  0
   -4.1030  -35.1500  -14.5520 C   0  0  0  0  0  0
    1.8053  -31.2326  -17.1867 H   0  0  0  0  0  0
    1.4070  -30.1569  -18.5691 H   0  0  0  0  0  0
    1.2126  -30.9300  -20.7071 H   0  0  0  0  0  0
    2.0377  -35.0449  -21.6740 H   0  0  0  0  0  0
    2.0497  -35.5817  -19.2530 H   0  0  0  0  0  0
    0.8496  -33.3789  -16.6686 H   0  0  0  0  0  0
   -3.8652  -30.7045  -16.2732 H   0  0  0  0  0  0
   -3.3941  -31.9066  -18.3603 H   0  0  0  0  0  0
   -1.0789  -32.1849  -19.1820 H   0  0  0  0  0  0
    0.3079  -29.8347  -15.8825 H   0  0  0  0  0  0
   -2.0076  -29.6484  -15.0295 H   0  0  0  0  0  0
    2.8555  -36.6176  -14.6846 H   0  0  0  0  0  0
    1.9237  -36.7402  -12.4028 H   0  0  0  0  0  0
    0.1397  -35.1713  -11.6971 H   0  0  0  0  0  0
   -0.8474  -32.7567  -12.2137 H   0  0  0  0  0  0
   -0.9694  -32.2835  -13.9423 H   0  0  0  0  0  0
   -2.7690  -33.7768  -12.2085 H   0  0  0  0  0  0
   -1.9855  -35.3153  -14.4811 H   0  0  0  0  0  0
   -2.8302  -35.7181  -12.9478 H   0  0  0  0  0  0
   -3.5550  -31.6709  -12.9974 H   0  0  0  0  0  0
   -3.0070  -31.9818  -14.6795 H   0  0  0  0  0  0
   -5.3170  -34.4718  -12.8725 H   0  0  0  0  0  0
   -6.1909  -34.5314  -14.4407 H   0  0  0  0  0  0
   -5.6116  -32.1799  -13.5991 H   0  0  0  0  0  0
   -5.0511  -32.5677  -15.2610 H   0  0  0  0  0  0
   -3.9569  -34.8371  -15.5964 H   0  0  0  0  0  0
   -4.4340  -36.1987  -14.5264 H   0  0  0  0  0  0
  1  2  1  0  0  0
  1 12  1  0  0  0
  1 33  1  0  0  0
  1 34  1  0  0  0
  2  3  2  0  0  0
  2  7  1  0  0  0
  3  4  1  0  0  0
  3 35  1  0  0  0
  4  5  2  0  0  0
  4  9  1  0  0  0
  5  6  1  0  0  0
  5 36  1  0  0  0
  6  7  2  0  0  0
  6 37  1  0  0  0
  7  8  1  0  0  0
  8 18  1  0  0  0
  8 38  1  0  0  0
  9 10  2  0  0  0
  9 11  1  0  0  0
 12 15  2  0  0  0
 12 16  1  0  0  0
 13 14  2  0  0  0
 13 17  1  0  0  0
 13 39  1  0  0  0
 14 15  1  0  0  0
 14 40  1  0  0  0
 15 41  1  0  0  0
 16 17  2  0  0  0
 16 42  1  0  0  0
 17 43  1  0  0  0
 18 19  2  0  0  0
 18 20  1  0  0  0
 20 21  2  0  0  0
 20 25  1  0  0  0
 21 22  1  0  0  0
 21 44  1  0  0  0
 22 23  2  0  0  0
 22 45  1  0  0  0
 23 24  1  0  0  0
 23 46  1  0  0  0
 24 25  2  0  0  0
 24 26  1  0  0  0
 26 27  1  0  0  0
 26 47  1  0  0  0
 26 48  1  0  0  0
 27 28  1  0  0  0
 27 29  1  0  0  0
 27 49  1  0  0  0
 28 32  1  0  0  0
 28 50  1  0  0  0
 28 51  1  0  0  0
 29 31  1  0  0  0
 29 52  1  0  0  0
 29 53  1  0  0  0
 30 31  1  0  0  0
 30 32  1  0  0  0
 30 54  1  0  0  0
 30 55  1  0  0  0
 31 56  1  0  0  0
 31 57  1  0  0  0
 32 58  1  0  0  0
 32 59  1  0  0  0
M  CHG  1  11  -1
M  END
> <s_m_source_file>
../3njq_ligand.sdf

> <i_m_source_file_index>
1

> <s_epik_input>
W2NIXTFbY0hdW2NIXVtjSF1bY0hdYzFbQ0gyXWMyW2NIXWMoQyg9TylbT0hdKVtjSF1bY0hdYzJbTkhdQyg9TyljM1tjSF1bY0hdW2NIXWMobjMpW0NIMl1bQ0hdNFtDSDJdW0NIMl1bQ0gyXVtDSDJdW0NIMl00

> <s_epik_cmdline>
J2VwaWtfYXBwJywgJy1pbWFlJywgJ2xpZ2FuZF9wcm8ubWFlJywgJy1vbWFlJywgJ2xpZ2FuZF9wcmVwLm1hZScsICctbXMnLCAnMScsICctcGgnLCAnNycsICctcGh0JywgJzAuNScsICctbnQn

> <r_lp_tautomer_probability>
1

> <r_epik_Ionization_Penalty>
  0.0010

> <r_epik_Ionization_Penalty_Charging>
  0.0010

> <r_epik_Ionization_Penalty_Neutral>
  0.0000

> <r_epik_State_Penalty>
 -0.0000

> <r_epik_Charging_Adjusted_Penalty>
0.000982602232292193

> <i_epik_Tot_Q>
-1

> <i_epik_Tot_abs_Q>
1

$$$$
