3njy_ligand
                    3D
 Schrodinger Suite 2020-3.
 20 21  0  0  1  0            999 V2000
   24.1250  -22.9420   -3.2330 O   0  5  0  0  0  0
   23.3040  -21.3210   -4.4660 O   0  0  0  0  0  0
   29.1620  -21.7440   -6.8710 O   0  0  0  0  0  0
   24.8510  -19.2560   -7.2630 C   0  0  0  0  0  0
   26.0690  -19.1980   -7.9050 C   0  0  0  0  0  0
   27.8230  -22.7330   -5.2340 C   0  0  0  0  0  0
   26.6040  -22.8130   -4.5570 C   0  0  0  0  0  0
   24.6630  -20.1800   -6.2560 C   0  0  0  0  0  0
   27.0460  -20.0150   -7.5690 N   0  0  0  0  0  0
   24.2310  -22.0830   -4.1370 C   0  0  0  0  0  0
   27.9750  -21.7940   -6.2460 C   0  0  0  0  0  0
   25.5500  -21.9630   -4.8870 C   0  0  0  0  0  0
   25.7090  -21.0280   -5.9040 C   0  0  0  0  0  0
   26.9210  -20.9330   -6.5880 C   0  0  0  0  0  0
   29.9673  -22.4337   -6.5781 H   0  0  0  0  0  0
   24.0452  -18.5794   -7.5476 H   0  0  0  0  0  0
   26.2256  -18.4682   -8.6994 H   0  0  0  0  0  0
   28.6448  -23.3992   -4.9714 H   0  0  0  0  0  0
   26.4757  -23.5479   -3.7623 H   0  0  0  0  0  0
   23.7046  -20.2453   -5.7410 H   0  0  0  0  0  0
  1 10  1  0  0  0
  2 10  2  0  0  0
  3 11  1  0  0  0
  3 15  1  0  0  0
  4  5  2  0  0  0
  4  8  1  0  0  0
  4 16  1  0  0  0
  5  9  1  0  0  0
  5 17  1  0  0  0
  6  7  1  0  0  0
  6 11  2  0  0  0
  6 18  1  0  0  0
  7 12  2  0  0  0
  7 19  1  0  0  0
  8 13  2  0  0  0
  8 20  1  0  0  0
  9 14  2  0  0  0
 10 12  1  0  0  0
 11 14  1  0  0  0
 12 13  1  0  0  0
 13 14  1  0  0  0
M  CHG  1   1  -1
M  END
> <s_m_source_file>
../3njy_ligand.sdf

> <i_m_source_file_index>
1

> <s_epik_input>
W09IXUMoPU8pYzFbY0hdW2NIXWMoW09IXSljKGMxMiluW2NIXVtjSF1bY0hdMg==

> <s_epik_cmdline>
J2VwaWtfYXBwJywgJy1pbWFlJywgJ2xpZ2FuZF9wcm8ubWFlJywgJy1vbWFlJywgJ2xpZ2FuZF9wcmVwLm1hZScsICctbXMnLCAnMScsICctcGgnLCAnNycsICctcGh0JywgJzAuNScsICctbnQn

> <r_epik_Ionization_Penalty>
  0.0271

> <r_epik_Ionization_Penalty_Charging>
  0.0003

> <r_epik_Ionization_Penalty_Neutral>
  0.0268

> <r_epik_State_Penalty>
  0.0166

> <r_epik_Charging_Adjusted_Penalty>
0.0168330803425217

> <i_epik_Tot_Q>
-1

> <i_epik_Tot_abs_Q>
1

$$$$
