3nk8_ligand
                    3D
 Schrodinger Suite 2020-3.
 22 23  0  0  1  0            999 V2000
   26.8650   14.2780   19.2640 F   0  0  0  0  0  0
   28.1090   13.8570   19.5390 C   0  0  0  0  0  0
   28.6880   14.9300   20.0840 F   0  0  0  0  0  0
   28.0730   12.8570   20.4570 F   0  0  0  0  0  0
   28.8590   13.4460   18.2800 C   0  0  0  0  0  0
   29.0950   14.3270   17.2140 C   0  0  0  0  0  0
   29.7900   13.8700   16.1040 C   0  0  0  0  0  0
   30.2460   12.6080   16.0190 N   0  0  0  0  0  0
   30.0390   11.7380   17.0380 C   0  0  0  0  0  0
   29.3460   12.1360   18.1840 C   0  0  0  0  0  0
   30.5220   10.4400   16.9560 O   0  0  0  0  0  0
   29.9670   14.9500   15.0510 C   0  0  0  0  0  0
   28.9050   15.9810   15.4770 C   0  0  0  0  0  0
   28.7090   15.7900   17.0090 C   0  0  0  0  0  0
   30.7889   12.2787   15.1207 H   0  0  0  0  0  0
   29.1851   11.4307   18.9993 H   0  0  0  0  0  0
   30.9938   15.3420   15.0968 H   0  0  0  0  0  0
   29.7813   14.5240   14.0540 H   0  0  0  0  0  0
   29.2648   16.9946   15.2464 H   0  0  0  0  0  0
   27.9694   15.7909   14.9306 H   0  0  0  0  0  0
   27.6673   15.9425   17.3277 H   0  0  0  0  0  0
   29.3729   16.4317   17.6069 H   0  0  0  0  0  0
  1  2  1  0  0  0
  2  3  1  0  0  0
  2  4  1  0  0  0
  2  5  1  0  0  0
  5  6  1  0  0  0
  5 10  2  0  0  0
  6  7  2  0  0  0
  6 14  1  0  0  0
  7  8  1  0  0  0
  7 12  1  0  0  0
  8  9  1  0  0  0
  8 15  1  0  0  0
  9 10  1  0  0  0
  9 11  2  0  0  0
 10 16  1  0  0  0
 12 13  1  0  0  0
 12 17  1  0  0  0
 12 18  1  0  0  0
 13 14  1  0  0  0
 13 19  1  0  0  0
 13 20  1  0  0  0
 14 21  1  0  0  0
 14 22  1  0  0  0
M  END
> <s_m_source_file>
../3nk8_ligand.sdf

> <i_m_source_file_index>
1

> <s_epik_input>
RkMoRikoRiljMVtjSF1jKD1PKVtuSF1jKGMxMilbQ0gyXVtDSDJdW0NIMl0y

> <s_epik_cmdline>
J2VwaWtfYXBwJywgJy1pbWFlJywgJ2xpZ2FuZF9wcm8ubWFlJywgJy1vbWFlJywgJ2xpZ2FuZF9wcmVwLm1hZScsICctbXMnLCAnMScsICctcGgnLCAnNycsICctcGh0JywgJzAuNScsICctbnQn

> <r_lp_tautomer_probability>
1

> <r_epik_Ionization_Penalty>
  0.0006

> <r_epik_Ionization_Penalty_Charging>
  0.0006

> <r_epik_Ionization_Penalty_Neutral>
  0.0000

> <r_epik_State_Penalty>
 -0.0000

> <r_epik_Charging_Adjusted_Penalty>
0.000642914301171541

> <i_epik_Tot_Q>
0

> <i_epik_Tot_abs_Q>
0

$$$$
