3nkk_ligand
                    3D
 Schrodinger Suite 2020-3.
 21 21  0  0  1  0            999 V2000
   26.9000   14.8450   19.1010 F   0  0  0  0  0  0
   27.8350   14.4520   18.2380 C   0  0  0  0  0  0
   28.5800   13.3020   18.5000 C   0  0  0  0  0  0
   29.5550   12.9020   17.5860 C   0  0  0  0  0  0
   29.7920   13.6370   16.4250 C   0  0  0  0  0  0
   29.0490   14.7880   16.1600 C   0  0  0  0  0  0
   28.0690   15.1900   17.0770 C   0  0  0  0  0  0
   29.3350   15.5590   14.8890 C   0  0  0  0  0  0
   28.9450   16.7720   14.8650 N   0  3  0  0  0  0
   29.9550   14.9930   13.8850 N   0  0  0  0  0  0
   28.3140   12.5010   19.7780 C   0  0  0  0  0  0
   30.1393   12.0030   17.7820 H   0  0  0  0  0  0
   30.5595   13.3117   15.7227 H   0  0  0  0  0  0
   27.4834   16.0883   16.8816 H   0  0  0  0  0  0
   28.4277   17.2007   15.7360 H   0  0  0  0  0  0
   30.2713   13.9419   13.9560 H   0  0  0  0  0  0
   30.1598   15.5684   12.9702 H   0  0  0  0  0  0
   27.5119   12.9855   20.3541 H   0  0  0  0  0  0
   29.2306   12.4640   20.3850 H   0  0  0  0  0  0
   28.0084   11.4781   19.5127 H   0  0  0  0  0  0
   29.1257   17.3903   13.9733 H   0  0  0  0  0  0
  1  2  1  0  0  0
  2  3  2  0  0  0
  2  7  1  0  0  0
  3  4  1  0  0  0
  3 11  1  0  0  0
  4  5  2  0  0  0
  4 12  1  0  0  0
  5  6  1  0  0  0
  5 13  1  0  0  0
  6  7  2  0  0  0
  6  8  1  0  0  0
  7 14  1  0  0  0
  8  9  2  0  0  0
  8 10  1  0  0  0
  9 15  1  0  0  0
  9 21  1  0  0  0
 10 16  1  0  0  0
 10 17  1  0  0  0
 11 18  1  0  0  0
 11 19  1  0  0  0
 11 20  1  0  0  0
M  CHG  1   9   1
M  END
> <s_m_source_file>
../3nkk_ligand.sdf

> <i_m_source_file_index>
1

> <s_epik_input>
RmMxYyhbQ0gzXSlbY0hdW2NIXWMoW2NIXTEpL0MoPU4vW0hdKVtOSDJd

> <s_epik_cmdline>
J2VwaWtfYXBwJywgJy1pbWFlJywgJ2xpZ2FuZF9wcm8ubWFlJywgJy1vbWFlJywgJ2xpZ2FuZF9wcmVwLm1hZScsICctbXMnLCAnMScsICctcGgnLCAnNycsICctcGh0JywgJzAuNScsICctbnQn

> <r_lp_tautomer_probability>
1

> <r_epik_Ionization_Penalty>
  0.0007

> <r_epik_Ionization_Penalty_Charging>
  0.0007

> <r_epik_Ionization_Penalty_Neutral>
  0.0000

> <r_epik_State_Penalty>
 -0.0000

> <r_epik_Charging_Adjusted_Penalty>
0.000700569348886754

> <i_epik_Tot_Q>
1

> <i_epik_Tot_abs_Q>
1

> <s_epik_Chemistry_Notes>
This compound has an imine and may undergo hydrolysis.

$$$$
