3nkx_ligand
                    3D
 Schrodinger Suite 2020-3.
140141  0  0  1  0            999 V2000
   53.2330  -10.4480   -5.0500 N   0  3  0  0  0  0
   53.0400   -9.4210   -3.9720 C   0  0  2  0  0  0
   53.1090   -9.9890   -2.5270 C   0  0  0  0  0  0
   52.3460  -10.8960   -2.1320 O   0  0  0  0  0  0
   51.7660   -8.6020   -4.2070 C   0  0  0  0  0  0
   52.0360   -7.2100   -4.8670 C   0  0  0  0  0  0
   51.9540   -6.0430   -3.8340 C   0  0  0  0  0  0
   50.5840   -5.8130   -3.3370 N   0  0  0  0  0  0
   50.2640   -5.4950   -2.0710 C   0  0  0  0  0  0
   51.2060   -5.3550   -1.1360 N   0  0  0  0  0  0
   48.9940   -5.3230   -1.7240 N   0  3  0  0  0  0
   54.0690   -9.4440   -1.7690 N   0  0  0  0  0  0
   54.3290   -9.8760   -0.4090 C   0  0  2  0  0  0
   53.2900   -9.2370    0.4630 C   0  0  0  0  0  0
   52.7280   -8.1950    0.1120 O   0  0  0  0  0  0
   55.6980   -9.3850    0.0300 C   0  0  0  0  0  0
   56.6260   -9.5980   -1.0130 O   0  0  0  0  0  0
   53.0600   -9.8480    1.6130 N   0  0  0  0  0  0
   52.0580   -9.3570    2.5050 C   0  0  2  0  0  0
   52.7080   -8.5330    3.5990 C   0  0  0  0  0  0
   53.6400   -8.9960    4.2770 O   0  0  0  0  0  0
   51.2710  -10.5200    3.0920 C   0  0  2  0  0  0
   50.8080  -11.3310    2.0130 O   0  0  0  0  0  0
   50.0420  -10.0380    3.8820 C   0  0  0  0  0  0
   52.1890   -7.3290    3.8110 N   0  0  0  0  0  0
   52.6290   -6.5460    4.9530 C   0  0  1  0  0  0
   52.8530   -5.1080    4.5140 C   0  0  0  0  0  0
   51.6660   -4.5880    3.9580 O   0  0  0  0  0  0
   51.6220   -6.6040    6.1050 C   0  0  0  0  0  0
   50.6200   -7.3020    6.0530 O   0  0  0  0  0  0
   51.7770   -3.1490    3.3560 P   0  0  0  0  0  0
   52.6050   -3.0720    2.0010 O   0  5  0  0  0  0
   52.3540   -2.0340    4.3080 O   0  0  0  0  0  0
   50.2760   -2.7570    2.9890 O   0  5  0  0  0  0
   51.9210   -5.8870    7.1650 N   0  0  0  0  0  0
   51.1320   -5.9040    8.3870 C   0  0  2  0  0  0
   49.7510   -5.3710    8.1380 C   0  0  0  0  0  0
   49.6300   -4.1630    7.8000 O   0  0  0  0  0  0
   51.8360   -5.0310    9.4470 C   0  0  2  0  0  0
   53.0530   -5.6900    9.7900 O   0  0  0  0  0  0
   51.1350   -5.0280   10.6660 C   0  0  0  0  0  0
   48.7050   -6.2140    8.3610 N   0  0  0  0  0  0
   47.3060   -5.7590    8.2000 C   0  0  2  0  0  0
   46.8460   -4.9180    9.3720 C   0  0  0  0  0  0
   47.4740   -4.9370   10.4110 O   0  0  0  0  0  0
   46.4940   -7.0520    8.2490 C   0  0  0  0  0  0
   47.3420   -7.9840    9.1680 C   0  0  0  0  0  0
   48.7930   -7.5660    8.9510 C   0  0  0  0  0  0
   45.7390   -4.2100    9.2240 N   0  0  0  0  0  0
   45.0490   -3.6620   10.3960 C   0  0  2  0  0  0
   44.7040   -4.7210   11.4500 C   0  0  0  0  0  0
   44.3470   -5.8420   11.0940 O   0  0  0  0  0  0
   43.7680   -3.0010    9.9470 C   0  0  0  0  0  0
   44.0250   -1.6870    9.2250 C   0  0  0  0  0  0
   44.8920   -0.9230    9.6170 O   0  0  0  0  0  0
   43.3180   -1.4500    8.1560 N   0  0  0  0  0  0
   44.7760   -4.3580   12.7370 N   0  0  0  0  0  0
   44.3370   -5.2810   13.8380 C   0  0  2  0  0  0
   42.8300   -5.7810   13.7530 C   0  0  0  0  0  0
   42.5910   -7.0060   13.9430 O   0  0  0  0  0  0
   44.8290   -4.8130   15.2890 C   0  0  0  0  0  0
   44.5750   -5.8760   16.3580 C   0  0  0  0  0  0
   46.3260   -4.4700   15.2820 C   0  0  0  0  0  0
   41.7950   -4.9370   13.5110 N   0  0  0  0  0  0
   41.6600   -3.4380   13.6710 C   0  0  2  0  0  0
   41.2940   -2.7150   12.3420 C   0  0  0  0  0  0
   40.1284   -2.7100   11.8636 O   0  0  0  0  0  0
   42.8770   -2.7920   14.3680 C   0  0  0  0  0  0
   42.6440   -1.3960   14.8760 C   0  0  0  0  0  0
   41.3800   -0.8680   15.0940 N   0  0  0  0  0  0
   43.5180   -0.4240   15.2350 C   0  0  0  0  0  0
   41.4870    0.3800   15.5340 C   0  0  0  0  0  0
   42.7740    0.6720   15.6290 N   0  0  0  0  0  0
   42.2039   -2.1076   11.7168 O   0  5  0  0  0  0
   54.1532  -11.0176   -4.8532 H   0  0  0  0  0  0
   53.3144   -9.9453   -6.0250 H   0  0  0  0  0  0
   52.3728  -11.1335   -5.0616 H   0  0  0  0  0  0
   53.9083   -8.7552   -4.0853 H   0  0  0  0  0  0
   51.0903   -9.1582   -4.8733 H   0  0  0  0  0  0
   51.2644   -8.4200   -3.2451 H   0  0  0  0  0  0
   53.0424   -7.2037   -5.3109 H   0  0  0  0  0  0
   51.2879   -7.0251   -5.6520 H   0  0  0  0  0  0
   52.5907   -6.2749   -2.9675 H   0  0  0  0  0  0
   52.3008   -5.1114   -4.3049 H   0  0  0  0  0  0
   49.7285   -5.8984   -4.0231 H   0  0  0  0  0  0
   52.2655   -5.4923   -1.3978 H   0  0  0  0  0  0
   50.9229   -5.1023   -0.1035 H   0  0  0  0  0  0
   48.1987   -5.4328   -2.4759 H   0  0  0  0  0  0
   54.6716   -8.6391   -2.2151 H   0  0  0  0  0  0
   54.2798  -10.9744   -0.3745 H   0  0  0  0  0  0
   55.6451   -8.3112    0.2626 H   0  0  0  0  0  0
   56.0164   -9.9389    0.9254 H   0  0  0  0  0  0
   57.6780   -9.3046   -0.8816 H   0  0  0  0  0  0
   53.6458  -10.7396    1.8810 H   0  0  0  0  0  0
   51.3950   -8.7208    1.9003 H   0  0  0  0  0  0
   51.9300  -11.1273    3.7299 H   0  0  0  0  0  0
   51.5290  -11.7825    1.3156 H   0  0  0  0  0  0
   50.3701   -9.4086    4.7224 H   0  0  0  0  0  0
   49.4905  -10.9077    4.2686 H   0  0  0  0  0  0
   49.3868   -9.4531    3.2198 H   0  0  0  0  0  0
   51.4291   -6.9241    3.1264 H   0  0  0  0  0  0
   53.5718   -7.0062    5.2837 H   0  0  0  0  0  0
   53.1441   -4.5003    5.3835 H   0  0  0  0  0  0
   53.6528   -5.0753    3.7596 H   0  0  0  0  0  0
   52.8167   -5.2520    7.0974 H   0  0  0  0  0  0
   51.0491   -6.9578    8.6914 H   0  0  0  0  0  0
   51.9636   -3.9929    9.1062 H   0  0  0  0  0  0
   53.8275   -5.8480    9.0250 H   0  0  0  0  0  0
   50.1607   -4.5366   10.5274 H   0  0  0  0  0  0
   51.7172   -4.4813   11.4224 H   0  0  0  0  0  0
   50.9788   -6.0638   11.0017 H   0  0  0  0  0  0
   47.2217   -5.1572    7.2831 H   0  0  0  0  0  0
   45.4989   -6.8443    8.6693 H   0  0  0  0  0  0
   46.3853   -7.4555    7.2315 H   0  0  0  0  0  0
   47.0368   -7.8425   10.2153 H   0  0  0  0  0  0
   47.1794   -9.0323    8.8771 H   0  0  0  0  0  0
   49.3131   -8.2378    8.2523 H   0  0  0  0  0  0
   49.3516   -7.5175    9.8974 H   0  0  0  0  0  0
   45.3361   -4.0329    8.2159 H   0  0  0  0  0  0
   45.7608   -2.9426   10.8272 H   0  0  0  0  0  0
   43.2314   -3.6708    9.2589 H   0  0  0  0  0  0
   43.1362   -2.7927   10.8231 H   0  0  0  0  0  0
   42.5458   -2.1657    7.8375 H   0  0  0  0  0  0
   43.4936   -0.5343    7.5723 H   0  0  0  0  0  0
   45.1672   -3.3590   12.9800 H   0  0  0  0  0  0
   44.9164   -6.1772   13.5714 H   0  0  0  0  0  0
   44.2625   -3.9169   15.5824 H   0  0  0  0  0  0
   43.5052   -6.1315   16.3741 H   0  0  0  0  0  0
   44.8735   -5.4851   17.3419 H   0  0  0  0  0  0
   45.1636   -6.7761   16.1271 H   0  0  0  0  0  0
   46.5233   -3.7052   14.5164 H   0  0  0  0  0  0
   46.9085   -5.3751   15.0549 H   0  0  0  0  0  0
   46.6183   -4.0841   16.2697 H   0  0  0  0  0  0
   40.9470   -5.5287   13.1357 H   0  0  0  0  0  0
   40.8069   -3.3255   14.3562 H   0  0  0  0  0  0
   43.8571   -3.2716   14.5073 H   0  0  0  0  0  0
   44.6169   -0.3798   15.2579 H   0  0  0  0  0  0
   40.6595    1.0473   15.7748 H   0  0  0  0  0  0
   40.4871   -1.4800   14.8987 H   0  0  0  0  0  0
   48.7372   -5.0707   -0.6846 H   0  0  0  0  0  0
  1  2  1  0  0  0
  1 75  1  0  0  0
  1 76  1  0  0  0
  1 77  1  0  0  0
  2  3  1  0  0  0
  2  5  1  0  0  0
  2 78  1  0  0  0
  3  4  2  0  0  0
  3 12  1  0  0  0
  5  6  1  0  0  0
  5 79  1  0  0  0
  5 80  1  0  0  0
  6  7  1  0  0  0
  6 81  1  0  0  0
  6 82  1  0  0  0
  7  8  1  0  0  0
  7 83  1  0  0  0
  7 84  1  0  0  0
  8  9  1  0  0  0
  8 85  1  0  0  0
  9 10  1  0  0  0
  9 11  2  0  0  0
 10 86  1  0  0  0
 10 87  1  0  0  0
 11 88  1  0  0  0
 11140  1  0  0  0
 12 13  1  0  0  0
 12 89  1  0  0  0
 13 14  1  0  0  0
 13 16  1  0  0  0
 13 90  1  0  0  0
 14 15  2  0  0  0
 14 18  1  0  0  0
 16 17  1  0  0  0
 16 91  1  0  0  0
 16 92  1  0  0  0
 17 93  1  0  0  0
 18 19  1  0  0  0
 18 94  1  0  0  0
 19 20  1  0  0  0
 19 22  1  0  0  0
 19 95  1  0  0  0
 20 21  2  0  0  0
 20 25  1  0  0  0
 22 23  1  0  0  0
 22 24  1  0  0  0
 22 96  1  0  0  0
 23 97  1  0  0  0
 24 98  1  0  0  0
 24 99  1  0  0  0
 24100  1  0  0  0
 25 26  1  0  0  0
 25101  1  0  0  0
 26 27  1  0  0  0
 26 29  1  0  0  0
 26102  1  0  0  0
 27 28  1  0  0  0
 27103  1  0  0  0
 27104  1  0  0  0
 28 31  1  0  0  0
 29 30  2  0  0  0
 29 35  1  0  0  0
 31 32  1  0  0  0
 31 33  2  0  0  0
 31 34  1  0  0  0
 35 36  1  0  0  0
 35105  1  0  0  0
 36 37  1  0  0  0
 36 39  1  0  0  0
 36106  1  0  0  0
 37 38  2  0  0  0
 37 42  1  0  0  0
 39 40  1  0  0  0
 39 41  1  0  0  0
 39107  1  0  0  0
 40108  1  0  0  0
 41109  1  0  0  0
 41110  1  0  0  0
 41111  1  0  0  0
 42 43  1  0  0  0
 42 48  1  0  0  0
 43 44  1  0  0  0
 43 46  1  0  0  0
 43112  1  0  0  0
 44 45  2  0  0  0
 44 49  1  0  0  0
 46 47  1  0  0  0
 46113  1  0  0  0
 46114  1  0  0  0
 47 48  1  0  0  0
 47115  1  0  0  0
 47116  1  0  0  0
 48117  1  0  0  0
 48118  1  0  0  0
 49 50  1  0  0  0
 49119  1  0  0  0
 50 51  1  0  0  0
 50 53  1  0  0  0
 50120  1  0  0  0
 51 52  2  0  0  0
 51 57  1  0  0  0
 53 54  1  0  0  0
 53121  1  0  0  0
 53122  1  0  0  0
 54 55  2  0  0  0
 54 56  1  0  0  0
 56123  1  0  0  0
 56124  1  0  0  0
 57 58  1  0  0  0
 57125  1  0  0  0
 58 59  1  0  0  0
 58 61  1  0  0  0
 58126  1  0  0  0
 59 60  2  0  0  0
 59 64  1  0  0  0
 61 62  1  0  0  0
 61 63  1  0  0  0
 61127  1  0  0  0
 62128  1  0  0  0
 62129  1  0  0  0
 62130  1  0  0  0
 63131  1  0  0  0
 63132  1  0  0  0
 63133  1  0  0  0
 64 65  1  0  0  0
 64134  1  0  0  0
 65 66  1  0  0  0
 65 68  1  0  0  0
 65135  1  0  0  0
 66 67  2  0  0  0
 66 74  1  0  0  0
 68 69  2  0  0  0
 68136  1  0  0  0
 69 70  1  0  0  0
 69 71  1  0  0  0
 70 72  1  0  0  0
 70139  1  0  0  0
 71 73  2  0  0  0
 71137  1  0  0  0
 72 73  1  0  0  0
 72138  1  0  0  0
M  CHG  5   1   1  11   1  32  -1  34  -1  74  -1
M  END
> <s_m_source_file>
../3nkx_ligand.sdf

> <i_m_source_file_index>
1

> <s_epik_input>
W0hdL049QyhbTkgyXSlcW05IXVtDSDJdW0NIMl1bQ0gyXVtDQEhdKFtOSDMrXSlDKD1PKVtOSF1bQ0BASF0oW0NIMl1bT0hdKUMoPU8pW05IXVtDQEBIXShbQ0BIXShbT0hdKVtDSDNdKUMoPU8pW05IXVtDQEBIXShbQ0gyXU9QKD1PKShbT0hdKVtPSF0pQyg9TylbTkhdW0NAQEhdKFtDQEhdKFtPSF0pW0NIM10pQyg9TylOMVtDQEBIXShbQ0gyXVtDSDJdW0NIMl0xKUMoPU8pW05IXVtDQEBIXShbQ0gyXUMoPU8pW05IMl0pQyg9TylbTkhdW0NAQEhdKFtDSF0oW0NIM10pW0NIM10pQyg9TylbTkhdW0NASF0oQyg9TylbT0hdKVtDSDJdQzI9TltDSDJdTj1bQ0hdMg==

> <s_epik_cmdline>
J2VwaWtfYXBwJywgJy1pbWFlJywgJ2xpZ2FuZF9wcm8ubWFlJywgJy1vbWFlJywgJ2xpZ2FuZF9wcmVwLm1hZScsICctbXMnLCAnMScsICctcGgnLCAnNycsICctcGh0JywgJzAuNScsICctbnQn

> <r_epik_Ionization_Penalty>
  0.2336

> <r_epik_Ionization_Penalty_Charging>
  0.2336

> <r_epik_Ionization_Penalty_Neutral>
  0.0000

> <r_epik_State_Penalty>
  0.0954

> <r_epik_Charging_Adjusted_Penalty>
0.329004804363756

> <i_epik_Tot_Q>
-1

> <i_epik_Tot_abs_Q>
5

> <s_epik_Chemistry_Notes>
This compound has an imine and may undergo hydrolysis.

$$$$
