3nlb_ligand
                    3D
 Schrodinger Suite 2020-3.
 55 58  0  0  1  0            999 V2000
    3.7300   -6.9510   14.0550 C   0  0  0  0  0  0
    2.3510   -3.1240   19.4510 C   0  0  0  0  0  0
    3.6700   -2.6620   19.3270 C   0  0  0  0  0  0
    4.7070   -3.2970   18.6920 C   0  0  0  0  0  0
    5.7780   -2.4300   18.8880 C   0  0  3  0  0  0
    5.3830   -1.3940   19.6310 N   0  0  0  0  0  0
    4.1690   -1.5340   19.9110 N   0  0  0  0  0  0
    7.2130   -2.6060   18.3780 C   0  0  0  0  0  0
    4.8070   -4.5650   17.8180 C   0  0  0  0  0  0
    5.9050   -4.8480   17.3210 O   0  0  0  0  0  0
    3.7120   -5.2260   17.5000 N   0  0  0  0  0  0
    3.7480   -6.3780   16.5560 C   0  0  2  0  0  0
    3.7260   -5.8370   15.1000 C   0  0  0  0  0  0
    2.5360   -7.8150   14.2900 N   0  3  2  0  0  0
    2.5760   -8.4380   15.6310 C   0  0  0  0  0  0
    2.5490   -7.3310   16.7550 C   0  0  0  0  0  0
    1.4800   -2.4600   20.2030 N   0  0  0  0  0  0
    1.7740   -4.2170   18.9230 N   0  0  0  0  0  0
    0.5230   -4.2500   19.3800 C   0  0  0  0  0  0
    0.3520   -3.1370   20.1900 C   0  0  0  0  0  0
   -0.8520   -2.9200   20.8660 C   0  0  0  0  0  0
   -1.9120   -3.7910   20.7030 C   0  0  3  0  0  0
   -1.7650   -4.8990   19.8610 C   0  0  0  0  0  0
   -0.5510   -5.1380   19.1910 C   0  0  0  0  0  0
   -3.2200   -3.4410   21.4630 C   0  0  0  0  0  0
   -3.3260   -4.3640   22.7090 C   0  0  0  0  0  0
   -4.4910   -3.4540   20.5970 C   0  0  0  0  0  0
    2.4230   -8.9080   13.2610 C   0  0  0  0  0  0
    3.6851   -6.5096   13.0484 H   0  0  0  0  0  0
    4.6512   -7.5439   14.1546 H   0  0  0  0  0  0
    7.2826   -3.5343   17.7920 H   0  0  0  0  0  0
    7.9022   -2.6600   19.2336 H   0  0  0  0  0  0
    7.4838   -1.7500   17.7424 H   0  0  0  0  0  0
    2.7577   -4.9111   17.9474 H   0  0  0  0  0  0
    4.6748   -6.9236   16.7868 H   0  0  0  0  0  0
    4.6145   -5.2031   14.9635 H   0  0  0  0  0  0
    2.8185   -5.2267   14.9819 H   0  0  0  0  0  0
    1.6615   -7.1504   14.2299 H   0  0  0  0  0  0
    1.7032   -9.0957   15.7559 H   0  0  0  0  0  0
    3.4981   -9.0290   15.7334 H   0  0  0  0  0  0
    2.6191   -7.8068   17.7443 H   0  0  0  0  0  0
    1.6114   -6.7595   16.6886 H   0  0  0  0  0  0
   -0.9598   -2.0516   21.5325 H   0  0  0  0  0  0
   -2.6125   -5.5871   19.7259 H   0  0  0  0  0  0
   -0.4507   -6.0108   18.5291 H   0  0  0  0  0  0
   -3.1635   -2.3875   21.7743 H   0  0  0  0  0  0
   -2.3903   -4.3114   23.2849 H   0  0  0  0  0  0
   -3.4986   -5.4006   22.3838 H   0  0  0  0  0  0
   -4.1641   -4.0333   23.3400 H   0  0  0  0  0  0
   -4.3542   -2.7845   19.7350 H   0  0  0  0  0  0
   -5.3466   -3.1097   21.1965 H   0  0  0  0  0  0
   -4.6811   -4.4770   20.2402 H   0  0  0  0  0  0
    2.3918   -8.4631   12.2555 H   0  0  0  0  0  0
    1.5017   -9.4828   13.4364 H   0  0  0  0  0  0
    3.2929   -9.5767   13.3393 H   0  0  0  0  0  0
  1 13  1  0  0  0
  1 14  1  0  0  0
  1 29  1  0  0  0
  1 30  1  0  0  0
  2  3  1  0  0  0
  2 17  2  0  0  0
  2 18  1  0  0  0
  3  4  2  0  0  0
  3  7  1  0  0  0
  4  5  1  0  0  0
  4  9  1  0  0  0
  5  6  1  0  0  0
  5  8  1  0  0  0
  6  7  2  0  0  0
  8 31  1  0  0  0
  8 32  1  0  0  0
  8 33  1  0  0  0
  9 10  2  0  0  0
  9 11  1  0  0  0
 11 12  1  0  0  0
 11 34  1  0  0  0
 12 13  1  0  0  0
 12 16  1  0  0  0
 12 35  1  0  0  0
 13 36  1  0  0  0
 13 37  1  0  0  0
 14 15  1  0  0  0
 14 28  1  0  0  0
 14 38  1  0  0  0
 15 16  1  0  0  0
 15 39  1  0  0  0
 15 40  1  0  0  0
 16 41  1  0  0  0
 16 42  1  0  0  0
 17 20  1  0  0  0
 18 19  2  0  0  0
 19 20  1  0  0  0
 19 24  1  0  0  0
 20 21  2  0  0  0
 21 22  1  0  0  0
 21 43  1  0  0  0
 22 23  1  0  0  0
 22 25  1  0  0  0
 23 24  2  0  0  0
 23 44  1  0  0  0
 24 45  1  0  0  0
 25 26  1  0  0  0
 25 27  1  0  0  0
 25 46  1  0  0  0
 26 47  1  0  0  0
 26 48  1  0  0  0
 26 49  1  0  0  0
 27 50  1  0  0  0
 27 51  1  0  0  0
 27 52  1  0  0  0
 28 53  1  0  0  0
 28 54  1  0  0  0
 28 55  1  0  0  0
M  CHG  1  14   1
M  END
> <s_m_source_file>
../3nlb_ligand.sdf

> <i_m_source_file_index>
1

> <s_epik_input>
W0NIMl0xW0NIMl1bTkBIK10oW0NIM10pW0NIMl1bQ0gyXVtDQEhdMVtOSF1DKD1PKUMoW0NIXShOPU4yKVtDSDNdKT1DMkMoTj0zKT1OQyhDMzQpPVtDSF1bQ0hdKFtDSF09W0NIXTQpW0NIXShbQ0gzXSlbQ0gzXQ==

> <s_epik_cmdline>
J2VwaWtfYXBwJywgJy1pbWFlJywgJ2xpZ2FuZF9wcm8ubWFlJywgJy1vbWFlJywgJ2xpZ2FuZF9wcmVwLm1hZScsICctbXMnLCAnMScsICctcGgnLCAnNycsICctcGh0JywgJzAuNScsICctbnQn

> <r_epik_Ionization_Penalty>
  0.0173

> <r_epik_Ionization_Penalty_Charging>
  0.0102

> <r_epik_Ionization_Penalty_Neutral>
  0.0071

> <r_epik_State_Penalty>
  0.0078

> <r_epik_Charging_Adjusted_Penalty>
0.0179130067730126

> <i_epik_Tot_Q>
1

> <i_epik_Tot_abs_Q>
1

> <s_epik_Chemistry_Notes>
This compound has an imine and may undergo hydrolysis.

$$$$
