3nmq_ligand
                    3D
 Schrodinger Suite 2020-3.
 53 55  0  0  1  0            999 V2000
   -1.0080    9.1800   28.0850 Cl  0  0  0  0  0  0
   -0.7040    9.8680   26.4610 C   0  0  0  0  0  0
   -1.6830   10.4400   25.7600 N   0  0  0  0  0  0
   -1.4380   10.9800   24.5480 C   0  0  0  0  0  0
   -2.4570   11.5350   23.8540 N   0  0  0  0  0  0
   -0.1860   10.9850   24.0350 N   0  0  0  0  0  0
    0.8180   10.4400   24.7030 C   0  0  0  0  0  0
    0.5600    9.8590   25.9470 C   0  0  0  0  0  0
    2.1190   10.3280   24.3890 N   0  0  0  0  0  0
    2.7690   10.8640   23.1630 C   0  0  0  0  0  0
    3.8290   11.9130   23.6480 C   0  0  0  0  0  0
    3.5360   13.1930   24.1520 C   0  0  0  0  0  0
    2.1270   13.7260   24.2720 C   0  0  0  0  0  0
    4.6060   14.0670   24.5600 C   0  0  0  0  0  0
    4.3380   15.3140   25.0370 O   0  0  0  0  0  0
    4.6230   15.6990   26.3680 C   0  0  0  0  0  0
    5.9390   13.6570   24.4270 C   0  0  0  0  0  0
    7.1030   14.5460   24.8330 C   0  0  0  0  0  0
    6.1620   12.3870   23.9210 C   0  0  0  0  0  0
    5.1510   11.5880   23.5700 N   0  0  0  0  0  0
    2.7290    9.6650   25.3830 C   0  0  0  0  0  0
    1.7800    9.4190   26.3580 C   0  0  0  0  0  0
    2.0830    8.7440   27.4850 C   0  0  0  0  0  0
    2.3450    8.1040   28.4390 C   0  0  0  0  0  0
    2.7330    7.2830   29.6350 C   0  0  0  0  0  0
    2.0140    5.9290   29.7950 C   0  0  0  0  0  0
    2.4570    5.2210   31.0960 C   0  0  0  0  0  0
    2.2090    5.0250   28.5850 C   0  0  0  0  0  0
    0.6040    6.1690   29.9420 O   0  0  0  0  0  0
   -3.4743   11.5302   24.2724 H   0  0  0  0  0  0
   -2.2687   11.9914   22.8710 H   0  0  0  0  0  0
    3.2507   10.0415   22.6139 H   0  0  0  0  0  0
    2.0101   11.3373   22.5227 H   0  0  0  0  0  0
    1.4151   12.9609   23.9289 H   0  0  0  0  0  0
    2.0224   14.6286   23.6520 H   0  0  0  0  0  0
    1.9180   13.9765   25.3225 H   0  0  0  0  0  0
    4.3208   16.7457   26.5196 H   0  0  0  0  0  0
    5.7021   15.5981   26.5558 H   0  0  0  0  0  0
    4.0677   15.0526   27.0635 H   0  0  0  0  0  0
    6.7180   15.5061   25.2070 H   0  0  0  0  0  0
    7.7493   14.7248   23.9611 H   0  0  0  0  0  0
    7.6841   14.0505   25.6247 H   0  0  0  0  0  0
    7.1861   12.0316   23.8067 H   0  0  0  0  0  0
    3.7789    9.3740   25.4159 H   0  0  0  0  0  0
    3.8074    7.0517   29.5880 H   0  0  0  0  0  0
    2.5198    7.8495   30.5535 H   0  0  0  0  0  0
    3.5350    5.0072   31.0483 H   0  0  0  0  0  0
    1.9008    4.2786   31.2082 H   0  0  0  0  0  0
    2.2504    5.8735   31.9571 H   0  0  0  0  0  0
    3.2815    4.8233   28.4471 H   0  0  0  0  0  0
    1.8110    5.5221   27.6880 H   0  0  0  0  0  0
    1.6753    4.0767   28.7460 H   0  0  0  0  0  0
    0.2367    6.8037   30.7619 H   0  0  0  0  0  0
  1  2  1  0  0  0
  2  3  1  0  0  0
  2  8  2  0  0  0
  3  4  2  0  0  0
  4  5  1  0  0  0
  4  6  1  0  0  0
  5 30  1  0  0  0
  5 31  1  0  0  0
  6  7  2  0  0  0
  7  8  1  0  0  0
  7  9  1  0  0  0
  8 22  1  0  0  0
  9 10  1  0  0  0
  9 21  1  0  0  0
 10 11  1  0  0  0
 10 32  1  0  0  0
 10 33  1  0  0  0
 11 12  2  0  0  0
 11 20  1  0  0  0
 12 13  1  0  0  0
 12 14  1  0  0  0
 13 34  1  0  0  0
 13 35  1  0  0  0
 13 36  1  0  0  0
 14 15  1  0  0  0
 14 17  2  0  0  0
 15 16  1  0  0  0
 16 37  1  0  0  0
 16 38  1  0  0  0
 16 39  1  0  0  0
 17 18  1  0  0  0
 17 19  1  0  0  0
 18 40  1  0  0  0
 18 41  1  0  0  0
 18 42  1  0  0  0
 19 20  2  0  0  0
 19 43  1  0  0  0
 21 22  2  0  0  0
 21 44  1  0  0  0
 22 23  1  0  0  0
 23 24  3  0  0  0
 24 25  1  0  0  0
 25 26  1  0  0  0
 25 45  1  0  0  0
 25 46  1  0  0  0
 26 27  1  0  0  0
 26 28  1  0  0  0
 26 29  1  0  0  0
 27 47  1  0  0  0
 27 48  1  0  0  0
 27 49  1  0  0  0
 28 50  1  0  0  0
 28 51  1  0  0  0
 28 52  1  0  0  0
 29 53  1  0  0  0
M  END
> <s_m_source_file>
../3nmq_ligand.sdf

> <i_m_source_file_index>
1

> <s_epik_input>
W05IMl1jKG4xKW5jKENsKWMoYzEyKWMoQyNDW0NIMl1DKFtDSDNdKShbQ0gzXSlbT0hdKVtjSF1uMltDSDJdYzNjKFtDSDNdKWMoT1tDSDNdKWMoW0NIM10pW2NIXW4z

> <s_epik_cmdline>
J2VwaWtfYXBwJywgJy1pbWFlJywgJ2xpZ2FuZF9wcm8ubWFlJywgJy1vbWFlJywgJ2xpZ2FuZF9wcmVwLm1hZScsICctbXMnLCAnMScsICctcGgnLCAnNycsICctcGh0JywgJzAuNScsICctbnQn

> <r_epik_Ionization_Penalty>
  0.1363

> <r_epik_Ionization_Penalty_Charging>
  0.0000

> <r_epik_Ionization_Penalty_Neutral>
  0.1363

> <r_epik_State_Penalty>
  0.1256

> <r_epik_Charging_Adjusted_Penalty>
0.125626893751491

> <i_epik_Tot_Q>
0

> <i_epik_Tot_abs_Q>
0

$$$$
