3nnu_ligand
                    3D
 Schrodinger Suite 2020-3.
 49 52  0  0  1  0            999 V2000
   18.6190   12.3390   29.4570 C   0  0  0  0  0  0
   19.3070   11.3800   30.2120 C   0  0  0  0  0  0
   18.6330   10.5730   31.1380 C   0  0  0  0  0  0
   17.2570   10.7300   31.2760 C   0  0  0  0  0  0
   16.5780   11.6840   30.5160 C   0  0  0  0  0  0
   17.2150   12.4790   29.5820 C   0  0  0  0  0  0
   15.9740   15.6040   23.7850 C   0  0  0  0  0  0
   16.0910   14.5890   24.7260 C   0  0  0  0  0  0
   15.8340   15.2430   25.9330 C   0  0  0  0  0  0
   15.5810   16.5590   25.6530 N   0  0  0  0  0  0
   15.6540   16.8170   24.2850 N   0  0  0  0  0  0
   15.3330   17.5750   26.5150 C   0  0  0  0  0  0
   14.0000   18.5760   26.2800 C   0  0  0  0  0  0
   14.1300   19.6350   27.1710 C   0  0  0  0  0  0
   14.8570   19.7610   28.3590 C   0  0  0  0  0  0
   15.8260   18.7980   28.6240 C   0  0  0  0  0  0
   16.0380   17.7520   27.7210 C   0  0  0  0  0  0
   15.8350   14.8090   27.2280 N   0  0  0  0  0  0
   16.5820   13.7780   27.6300 C   0  0  0  0  0  0
   17.3030   13.1630   26.8620 O   0  0  0  0  0  0
   16.4990   13.4340   28.9100 N   0  0  0  0  0  0
   16.2240   15.5020   19.8010 C   0  0  0  0  0  0
   15.9340   16.6140   21.1010 S   0  0  0  0  0  0
   16.1110   15.3630   22.3120 C   0  0  0  0  0  0
   16.3960   14.1160   21.7700 C   0  0  0  0  0  0
   16.4460   14.2320   20.3950 C   0  0  0  0  0  0
   13.0600   20.6610   26.8480 C   0  0  0  0  0  0
   13.6560   21.9340   26.2860 C   0  0  0  0  0  0
   13.2710   23.0280   26.6720 O   0  0  0  0  0  0
   14.5920   21.7900   25.3630 N   0  0  0  0  0  0
   14.8210   11.8790   30.6730 Cl  0  0  0  0  0  0
   16.2990    9.7360   32.4200 Cl  0  0  0  0  0  0
   19.1679   12.9817   28.7687 H   0  0  0  0  0  0
   20.3819   11.2600   30.0770 H   0  0  0  0  0  0
   19.1735    9.8395   31.7362 H   0  0  0  0  0  0
   16.3263   13.5374   24.5622 H   0  0  0  0  0  0
   13.1905   18.4231   25.5663 H   0  0  0  0  0  0
   14.6717   20.5824   29.0512 H   0  0  0  0  0  0
   16.4199   18.8593   29.5359 H   0  0  0  0  0  0
   16.8059   17.0192   27.9689 H   0  0  0  0  0  0
   15.2067   15.3127   27.9774 H   0  0  0  0  0  0
   15.7413   14.0286   29.4413 H   0  0  0  0  0  0
   16.2338   15.7335   18.7359 H   0  0  0  0  0  0
   16.5540   13.1982   22.3363 H   0  0  0  0  0  0
   16.6531   13.3603   19.7742 H   0  0  0  0  0  0
   12.3664   20.2451   26.1024 H   0  0  0  0  0  0
   12.5056   20.9134   27.7639 H   0  0  0  0  0  0
   14.9045   20.7832   25.0490 H   0  0  0  0  0  0
   15.0581   22.6771   24.9093 H   0  0  0  0  0  0
  1  2  2  0  0  0
  1  6  1  0  0  0
  1 33  1  0  0  0
  2  3  1  0  0  0
  2 34  1  0  0  0
  3  4  2  0  0  0
  3 35  1  0  0  0
  4  5  1  0  0  0
  4 32  1  0  0  0
  5  6  2  0  0  0
  5 31  1  0  0  0
  6 21  1  0  0  0
  7  8  1  0  0  0
  7 11  2  0  0  0
  7 24  1  0  0  0
  8  9  2  0  0  0
  8 36  1  0  0  0
  9 10  1  0  0  0
  9 18  1  0  0  0
 10 11  1  0  0  0
 10 12  1  0  0  0
 12 13  2  0  0  0
 12 17  1  0  0  0
 13 14  1  0  0  0
 13 37  1  0  0  0
 14 15  2  0  0  0
 14 27  1  0  0  0
 15 16  1  0  0  0
 15 38  1  0  0  0
 16 17  2  0  0  0
 16 39  1  0  0  0
 17 40  1  0  0  0
 18 19  1  0  0  0
 18 41  1  0  0  0
 19 20  2  0  0  0
 19 21  1  0  0  0
 21 42  1  0  0  0
 22 23  1  0  0  0
 22 26  2  0  0  0
 22 43  1  0  0  0
 23 24  1  0  0  0
 24 25  2  0  0  0
 25 26  1  0  0  0
 25 44  1  0  0  0
 26 45  1  0  0  0
 27 28  1  0  0  0
 27 46  1  0  0  0
 27 47  1  0  0  0
 28 29  2  0  0  0
 28 30  1  0  0  0
 30 48  1  0  0  0
 30 49  1  0  0  0
M  END
> <s_m_source_file>
../3nnu_ligand.sdf

> <i_m_source_file_index>
1

> <s_epik_input>
Q2xjMVtjSF1bY0hdW2NIXWMoYzFDbClbTkhdQyg9TylbTkhdYyhbY0hdYzItYzNzW2NIXVtjSF1bY0hdMyluKG4yKS1jNFtjSF1jKFtjSF1bY0hdW2NIXTQpW0NIMl1DKD1PKVtOSDJd

> <s_epik_cmdline>
J2VwaWtfYXBwJywgJy1pbWFlJywgJ2xpZ2FuZF9wcm8ubWFlJywgJy1vbWFlJywgJ2xpZ2FuZF9wcmVwLm1hZScsICctbXMnLCAnMScsICctcGgnLCAnNycsICctcGh0JywgJzAuNScsICctbnQn

> <r_lp_tautomer_probability>
1

> <r_epik_Ionization_Penalty>
  0.0000

> <r_epik_Ionization_Penalty_Charging>
  0.0000

> <r_epik_Ionization_Penalty_Neutral>
  0.0000

> <r_epik_State_Penalty>
 -0.0000

> <r_epik_Charging_Adjusted_Penalty>
0

> <i_epik_Tot_Q>
0

> <i_epik_Tot_abs_Q>
0

$$$$
