3nnv_ligand
                    3D
 Schrodinger Suite 2020-3.
 57 60  0  0  1  0            999 V2000
   18.7220   10.9890   30.8090 C   0  0  0  0  0  0
   19.2770   12.0040   30.0190 C   0  0  0  0  0  0
   18.4360   12.7960   29.2250 C   0  0  0  0  0  0
   17.3470   10.7760   30.7950 C   0  0  0  0  0  0
   16.4990   11.5790   30.0070 C   0  0  0  0  0  0
   17.0330   12.6120   29.2050 C   0  0  0  0  0  0
   16.2650   13.4830   28.4360 N   0  0  0  0  0  0
   16.3960   13.7600   27.1350 C   0  0  0  0  0  0
   17.2360   13.1860   26.4380 O   0  0  0  0  0  0
   15.5630   14.6880   26.6140 N   0  0  0  0  0  0
   15.5710   15.0430   25.2870 C   0  0  0  0  0  0
   15.9030   14.3430   24.1230 C   0  0  0  0  0  0
   15.6860   15.2810   23.1050 C   0  0  0  0  0  0
   15.8780   14.9880   21.6300 C   0  0  0  0  0  0
   17.1910   14.2290   21.3510 C   0  0  0  0  0  0
   15.8450   16.2420   20.7370 C   0  0  0  0  0  0
   14.6960   14.1050   21.2500 C   0  0  0  0  0  0
   15.2250   16.4690   23.5390 N   0  0  0  0  0  0
   15.1640   16.2840   24.9100 N   0  0  0  0  0  0
   14.7560   17.3360   25.6540 C   0  0  0  0  0  0
   15.3300   17.7590   26.8550 C   0  0  0  0  0  0
   13.6790   18.1280   25.2050 C   0  0  0  0  0  0
   13.1910   19.2450   25.8860 C   0  0  0  0  0  0
   13.7920   19.6270   27.0670 C   0  0  0  0  0  0
   13.2530   20.8320   27.8160 C   0  0  0  0  0  0
   14.8750   18.8740   27.5630 C   0  0  0  0  0  0
   12.8460   21.8590   26.9000 O   0  0  0  0  0  0
   15.1300   11.3170   30.0400 C   0  0  0  0  0  0
   14.6240   10.2630   30.8200 C   0  0  0  0  0  0
   15.4710    9.4860   31.6060 C   0  0  0  0  0  0
   16.8340    9.7530   31.5940 C   0  0  0  0  0  0
   19.3652   10.3681   31.4326 H   0  0  0  0  0  0
   20.3533   12.1764   30.0217 H   0  0  0  0  0  0
   18.8758   13.5768   28.6045 H   0  0  0  0  0  0
   15.4360   14.0393   28.8979 H   0  0  0  0  0  0
   14.8345   15.1983   27.2611 H   0  0  0  0  0  0
   16.2482   13.3133   24.0298 H   0  0  0  0  0  0
   18.0467   14.8639   21.6243 H   0  0  0  0  0  0
   17.2485   13.9765   20.2819 H   0  0  0  0  0  0
   17.2144   13.3052   21.9477 H   0  0  0  0  0  0
   16.6909   16.8969   20.9931 H   0  0  0  0  0  0
   14.9007   16.7825   20.8987 H   0  0  0  0  0  0
   15.9198   15.9424   19.6812 H   0  0  0  0  0  0
   14.6980   13.2004   21.8759 H   0  0  0  0  0  0
   14.7779   13.8185   20.1911 H   0  0  0  0  0  0
   13.7588   14.6586   21.4086 H   0  0  0  0  0  0
   16.1705   17.1939   27.2578 H   0  0  0  0  0  0
   13.1972   17.8507   24.2674 H   0  0  0  0  0  0
   12.3460   19.8078   25.4893 H   0  0  0  0  0  0
   12.3846   20.5300   28.4198 H   0  0  0  0  0  0
   14.0361   21.2342   28.4755 H   0  0  0  0  0  0
   15.3569   19.1611   28.4976 H   0  0  0  0  0  0
   12.4305   22.8033   27.2817 H   0  0  0  0  0  0
   14.4470   11.9343   29.4564 H   0  0  0  0  0  0
   13.5548   10.0511   30.8095 H   0  0  0  0  0  0
   15.0704    8.6804   32.2214 H   0  0  0  0  0  0
   17.5074    9.1597   32.2126 H   0  0  0  0  0  0
  1  2  2  0  0  0
  1  4  1  0  0  0
  1 32  1  0  0  0
  2  3  1  0  0  0
  2 33  1  0  0  0
  3  6  2  0  0  0
  3 34  1  0  0  0
  4  5  2  0  0  0
  4 31  1  0  0  0
  5  6  1  0  0  0
  5 28  1  0  0  0
  6  7  1  0  0  0
  7  8  1  0  0  0
  7 35  1  0  0  0
  8  9  2  0  0  0
  8 10  1  0  0  0
 10 11  1  0  0  0
 10 36  1  0  0  0
 11 12  2  0  0  0
 11 19  1  0  0  0
 12 13  1  0  0  0
 12 37  1  0  0  0
 13 14  1  0  0  0
 13 18  2  0  0  0
 14 15  1  0  0  0
 14 16  1  0  0  0
 14 17  1  0  0  0
 15 38  1  0  0  0
 15 39  1  0  0  0
 15 40  1  0  0  0
 16 41  1  0  0  0
 16 42  1  0  0  0
 16 43  1  0  0  0
 17 44  1  0  0  0
 17 45  1  0  0  0
 17 46  1  0  0  0
 18 19  1  0  0  0
 19 20  1  0  0  0
 20 21  2  0  0  0
 20 22  1  0  0  0
 21 26  1  0  0  0
 21 47  1  0  0  0
 22 23  2  0  0  0
 22 48  1  0  0  0
 23 24  1  0  0  0
 23 49  1  0  0  0
 24 25  1  0  0  0
 24 26  2  0  0  0
 25 27  1  0  0  0
 25 50  1  0  0  0
 25 51  1  0  0  0
 26 52  1  0  0  0
 27 53  1  0  0  0
 28 29  2  0  0  0
 28 54  1  0  0  0
 29 30  1  0  0  0
 29 55  1  0  0  0
 30 31  2  0  0  0
 30 56  1  0  0  0
 31 57  1  0  0  0
M  END
> <s_m_source_file>
../3nnv_ligand.sdf

> <i_m_source_file_index>
1

> <s_epik_input>
W2NIXTFbY0hdW2NIXVtjSF1jKGMxMiljKFtjSF1bY0hdW2NIXTIpW05IXUMoPU8pW05IXWMzW2NIXWMoQyhbQ0gzXSkoW0NIM10pW0NIM10pbm4zLWM0W2NIXVtjSF1jKFtjSF1bY0hdNClbQ0gyXVtPSF0=

> <s_epik_cmdline>
J2VwaWtfYXBwJywgJy1pbWFlJywgJ2xpZ2FuZF9wcm8ubWFlJywgJy1vbWFlJywgJ2xpZ2FuZF9wcmVwLm1hZScsICctbXMnLCAnMScsICctcGgnLCAnNycsICctcGh0JywgJzAuNScsICctbnQn

> <r_lp_tautomer_probability>
1

> <r_epik_Ionization_Penalty>
  0.0000

> <r_epik_Ionization_Penalty_Charging>
  0.0000

> <r_epik_Ionization_Penalty_Neutral>
  0.0000

> <r_epik_State_Penalty>
 -0.0000

> <r_epik_Charging_Adjusted_Penalty>
0

> <i_epik_Tot_Q>
0

> <i_epik_Tot_abs_Q>
0

$$$$
