3nnx_ligand
                    3D
 Schrodinger Suite 2020-3.
 54 56  0  0  1  0            999 V2000
    6.6480  -38.1000  -25.7670 C   0  0  0  0  0  0
    5.5570  -38.9210  -25.5680 C   0  0  0  0  0  0
    5.4490  -40.1810  -26.1580 C   0  0  0  0  0  0
    6.4490  -40.6340  -27.0080 C   0  0  0  0  0  0
    7.5410  -39.8190  -27.2560 C   0  0  0  0  0  0
    7.6370  -38.5850  -26.6300 C   0  0  0  0  0  0
    8.6200  -40.2950  -28.1760 C   0  0  0  0  0  0
    8.1810  -40.0840  -29.6170 C   0  0  0  0  0  0
    7.6860  -38.9170  -30.0140 N   0  0  0  0  0  0
    8.3330  -40.9780  -30.3990 O   0  0  0  0  0  0
    6.7590  -36.9070  -25.2230 N   0  0  0  0  0  0
    7.1720  -35.8710  -26.0150 N   0  0  0  0  0  0
    7.1240  -34.8630  -25.1360 C   0  0  0  0  0  0
    6.7100  -35.1890  -23.8570 C   0  0  0  0  0  0
    6.4750  -36.5460  -23.9520 C   0  0  0  0  0  0
    7.5260  -33.4760  -25.5320 C   0  0  0  0  0  0
    7.5610  -33.4350  -27.0720 C   0  0  0  0  0  0
    8.9090  -33.1420  -24.9500 C   0  0  0  0  0  0
    6.4860  -32.5220  -24.9620 C   0  0  0  0  0  0
    6.0800  -37.4770  -23.0330 N   0  0  0  0  0  0
    5.1870  -37.1660  -22.0990 C   0  0  0  0  0  0
    4.7530  -38.2230  -21.3620 N   0  0  0  0  0  0
    3.8200  -38.1750  -20.3620 C   0  0  0  0  0  0
    4.8210  -35.9820  -22.0290 O   0  0  0  0  0  0
    2.5650  -37.5930  -20.5820 C   0  0  0  0  0  0
    1.6420  -37.5540  -19.5600 C   0  0  0  0  0  0
    1.9440  -38.0880  -18.3020 C   0  0  0  0  0  0
    3.1820  -38.6900  -18.0380 C   0  0  0  0  0  0
    4.0980  -38.6990  -19.0850 C   0  0  0  0  0  0
    5.6710  -39.4670  -18.7640 Cl  0  0  0  0  0  0
    3.5980  -39.4360  -16.3960 Cl  0  0  0  0  0  0
    4.7487  -38.5721  -24.9254 H   0  0  0  0  0  0
    4.5816  -40.8081  -25.9520 H   0  0  0  0  0  0
    6.3757  -41.6169  -27.4734 H   0  0  0  0  0  0
    8.5167  -37.9693  -26.8175 H   0  0  0  0  0  0
    9.5421  -39.7264  -27.9849 H   0  0  0  0  0  0
    8.8060  -41.3649  -28.0005 H   0  0  0  0  0  0
    7.5500  -38.1017  -29.2882 H   0  0  0  0  0  0
    7.4121  -38.7659  -31.0686 H   0  0  0  0  0  0
    6.5974  -34.5372  -22.9906 H   0  0  0  0  0  0
    8.3237  -34.1370  -27.4402 H   0  0  0  0  0  0
    7.8082  -32.4166  -27.4061 H   0  0  0  0  0  0
    6.5761  -33.7222  -27.4689 H   0  0  0  0  0  0
    9.6577  -33.8333  -25.3641 H   0  0  0  0  0  0
    8.8807  -33.2450  -23.8552 H   0  0  0  0  0  0
    9.1782  -32.1087  -25.2142 H   0  0  0  0  0  0
    5.4980  -32.7640  -25.3806 H   0  0  0  0  0  0
    6.7530  -31.4881  -25.2262 H   0  0  0  0  0  0
    6.4555  -32.6244  -23.8672 H   0  0  0  0  0  0
    6.5016  -38.4925  -23.0628 H   0  0  0  0  0  0
    5.1591  -39.2280  -21.5494 H   0  0  0  0  0  0
    2.3198  -37.1729  -21.5574 H   0  0  0  0  0  0
    0.6653  -37.1021  -19.7331 H   0  0  0  0  0  0
    1.1986  -38.0345  -17.5085 H   0  0  0  0  0  0
  1  2  2  0  0  0
  1  6  1  0  0  0
  1 11  1  0  0  0
  2  3  1  0  0  0
  2 32  1  0  0  0
  3  4  2  0  0  0
  3 33  1  0  0  0
  4  5  1  0  0  0
  4 34  1  0  0  0
  5  6  2  0  0  0
  5  7  1  0  0  0
  6 35  1  0  0  0
  7  8  1  0  0  0
  7 36  1  0  0  0
  7 37  1  0  0  0
  8  9  1  0  0  0
  8 10  2  0  0  0
  9 38  1  0  0  0
  9 39  1  0  0  0
 11 12  1  0  0  0
 11 15  1  0  0  0
 12 13  2  0  0  0
 13 14  1  0  0  0
 13 16  1  0  0  0
 14 15  2  0  0  0
 14 40  1  0  0  0
 15 20  1  0  0  0
 16 17  1  0  0  0
 16 18  1  0  0  0
 16 19  1  0  0  0
 17 41  1  0  0  0
 17 42  1  0  0  0
 17 43  1  0  0  0
 18 44  1  0  0  0
 18 45  1  0  0  0
 18 46  1  0  0  0
 19 47  1  0  0  0
 19 48  1  0  0  0
 19 49  1  0  0  0
 20 21  1  0  0  0
 20 50  1  0  0  0
 21 22  1  0  0  0
 21 24  2  0  0  0
 22 23  1  0  0  0
 22 51  1  0  0  0
 23 25  2  0  0  0
 23 29  1  0  0  0
 25 26  1  0  0  0
 25 52  1  0  0  0
 26 27  2  0  0  0
 26 53  1  0  0  0
 27 28  1  0  0  0
 27 54  1  0  0  0
 28 29  2  0  0  0
 28 31  1  0  0  0
 29 30  1  0  0  0
M  END
> <s_m_source_file>
../3nnx_ligand.sdf

> <i_m_source_file_index>
1

> <s_epik_input>
W05IMl1DKD1PKVtDSDJdYyhbY0hdMSlbY0hdW2NIXVtjSF1jMS1uMm5jKEMoW0NIM10pKFtDSDNdKVtDSDNdKVtjSF1jMltOSF1DKD1PKVtOSF1jM1tjSF1bY0hdW2NIXWMoQ2wpYzNDbA==

> <s_epik_cmdline>
J2VwaWtfYXBwJywgJy1pbWFlJywgJ2xpZ2FuZF9wcm8ubWFlJywgJy1vbWFlJywgJ2xpZ2FuZF9wcmVwLm1hZScsICctbXMnLCAnMScsICctcGgnLCAnNycsICctcGh0JywgJzAuNScsICctbnQn

> <r_lp_tautomer_probability>
1

> <r_epik_Ionization_Penalty>
  0.0000

> <r_epik_Ionization_Penalty_Charging>
  0.0000

> <r_epik_Ionization_Penalty_Neutral>
  0.0000

> <r_epik_State_Penalty>
 -0.0000

> <r_epik_Charging_Adjusted_Penalty>
0

> <i_epik_Tot_Q>
0

> <i_epik_Tot_abs_Q>
0

$$$$
