3nok_ligand
                    3D
 Schrodinger Suite 2020-3.
 41 40  0  0  1  0            999 V2000
    4.9990   10.9430   15.1360 N   0  0  0  0  0  0
    4.4400    9.8300   15.3900 O   0  0  0  0  0  0
    4.9310   12.1380   16.0060 C   0  0  0  0  0  0
    5.2980   11.2270   13.7320 C   0  0  0  0  0  0
    6.3650   10.4090   15.3980 C   0  0  0  0  0  0
    6.6300    9.6800   16.7250 C   0  0  0  0  0  0
    7.9870    8.9590   16.8170 C   0  0  0  0  0  0
    8.1080    8.0950   18.1080 C   0  0  0  0  0  0
    9.4980    7.4990   18.4170 C   0  0  0  0  0  0
    9.4960    6.6860   19.7390 C   0  0  0  0  0  0
   10.8610    6.2390   20.2980 C   0  0  0  0  0  0
   10.6800    5.3480   21.5390 C   0  0  0  0  0  0
   11.9570    5.1490   22.3550 C   0  0  0  0  0  0
   11.9100    4.0340   23.4070 C   0  0  0  0  0  0
    3.9487   12.6196   15.8913 H   0  0  0  0  0  0
    5.7223   12.8461   15.7188 H   0  0  0  0  0  0
    5.0715   11.8366   17.0545 H   0  0  0  0  0  0
    4.4100   11.6601   13.2484 H   0  0  0  0  0  0
    5.5758   10.2938   13.2203 H   0  0  0  0  0  0
    6.1329   11.9406   13.6720 H   0  0  0  0  0  0
    6.6279    9.6770   14.6202 H   0  0  0  0  0  0
    7.0907   11.2355   15.3840 H   0  0  0  0  0  0
    6.6033   10.4040   17.5527 H   0  0  0  0  0  0
    5.8569    8.9136   16.8831 H   0  0  0  0  0  0
    8.1089    8.2948   15.9487 H   0  0  0  0  0  0
    8.7975    9.7027   16.8264 H   0  0  0  0  0  0
    7.8440    8.7057   18.9840 H   0  0  0  0  0  0
    7.4238    7.2363   18.0400 H   0  0  0  0  0  0
    9.7990    6.8276   17.5993 H   0  0  0  0  0  0
   10.2325    8.3122   18.5130 H   0  0  0  0  0  0
    9.0357    7.2861   20.5378 H   0  0  0  0  0  0
    8.9203    5.7592   19.5987 H   0  0  0  0  0  0
   11.4032    5.6690   19.5292 H   0  0  0  0  0  0
   11.4492    7.1245   20.5809 H   0  0  0  0  0  0
    9.9343    5.8002   22.2094 H   0  0  0  0  0  0
   10.3359    4.3507   21.2274 H   0  0  0  0  0  0
   12.7885    4.8993   21.6796 H   0  0  0  0  0  0
   12.1924    6.0754   22.8994 H   0  0  0  0  0  0
   12.8766    3.9820   23.9296 H   0  0  0  0  0  0
   11.7080    3.0721   22.9130 H   0  0  0  0  0  0
   11.1118    4.2482   24.1329 H   0  0  0  0  0  0
  1  2  2  0  0  0
  1  3  1  0  0  0
  1  4  1  0  0  0
  1  5  1  0  0  0
  3 15  1  0  0  0
  3 16  1  0  0  0
  3 17  1  0  0  0
  4 18  1  0  0  0
  4 19  1  0  0  0
  4 20  1  0  0  0
  5  6  1  0  0  0
  5 21  1  0  0  0
  5 22  1  0  0  0
  6  7  1  0  0  0
  6 23  1  0  0  0
  6 24  1  0  0  0
  7  8  1  0  0  0
  7 25  1  0  0  0
  7 26  1  0  0  0
  8  9  1  0  0  0
  8 27  1  0  0  0
  8 28  1  0  0  0
  9 10  1  0  0  0
  9 29  1  0  0  0
  9 30  1  0  0  0
 10 11  1  0  0  0
 10 31  1  0  0  0
 10 32  1  0  0  0
 11 12  1  0  0  0
 11 33  1  0  0  0
 11 34  1  0  0  0
 12 13  1  0  0  0
 12 35  1  0  0  0
 12 36  1  0  0  0
 13 14  1  0  0  0
 13 37  1  0  0  0
 13 38  1  0  0  0
 14 39  1  0  0  0
 14 40  1  0  0  0
 14 41  1  0  0  0
M  END
> <s_m_source_file>
../3nok_ligand.sdf

> <i_m_source_file_index>
1

> <s_epik_input>
Tz1OKFtDSDNdKShbQ0gzXSlbQ0gyXVtDSDJdW0NIMl1bQ0gyXVtDSDJdW0NIMl1bQ0gyXVtDSDJdW0NIMl1bQ0gzXQ==

> <s_epik_cmdline>
J2VwaWtfYXBwJywgJy1pbWFlJywgJ2xpZ2FuZF9wcm8ubWFlJywgJy1vbWFlJywgJ2xpZ2FuZF9wcmVwLm1hZScsICctbXMnLCAnMScsICctcGgnLCAnNycsICctcGh0JywgJzAuNScsICctbnQn

> <r_lp_tautomer_probability>
1

> <r_epik_Ionization_Penalty>
  0.0000

> <r_epik_Ionization_Penalty_Charging>
  0.0000

> <r_epik_Ionization_Penalty_Neutral>
  0.0000

> <r_epik_State_Penalty>
 -0.0000

> <r_epik_Charging_Adjusted_Penalty>
0

> <i_epik_Tot_Q>
0

> <i_epik_Tot_abs_Q>
0

$$$$
