3np7_ligand
                    3D
 Schrodinger Suite 2020-3.
 35 36  0  0  1  0            999 V2000
    7.0580   24.5830   32.1970 C   0  0  0  0  0  0
    6.6790   24.2560   33.4700 O   0  0  0  0  0  0
    7.5850   23.6210   31.3240 C   0  0  0  0  0  0
    7.9780   23.9680   30.0280 C   0  0  0  0  0  0
    7.8320   25.2840   29.6080 C   0  0  0  0  0  0
    8.1930   25.6720   28.3580 O   0  0  0  0  0  0
    7.3100   26.2310   30.4750 C   0  0  0  0  0  0
    7.1580   27.8430   29.8960 Cl  0  0  0  0  0  0
    6.9180   25.9010   31.7690 C   0  0  0  0  0  0
    7.7450   22.1740   31.7840 C   0  0  1  0  0  0
    7.0930   21.1790   30.8090 C   0  0  2  0  0  0
    5.6900   21.4150   30.7070 O   0  0  0  0  0  0
    7.3120   19.7590   31.3100 C   0  0  1  0  0  0
    6.8030   18.8450   30.3470 O   0  0  0  0  0  0
    8.7960   19.5050   31.5360 C   0  0  2  0  0  0
    8.9390   18.2170   32.1220 O   0  0  0  0  0  0
    9.3950   20.5800   32.4560 C   0  0  2  0  0  0
    9.1570   21.8840   31.8700 O   0  0  0  0  0  0
   10.9080   20.4670   32.6260 C   0  0  0  0  0  0
   11.5190   20.7460   31.3470 O   0  0  0  0  0  0
    6.7822   23.2202   33.8256 H   0  0  0  0  0  0
    8.3932   23.2164   29.3565 H   0  0  0  0  0  0
    8.6095   24.9376   27.6529 H   0  0  0  0  0  0
    6.5088   26.6603   32.4354 H   0  0  0  0  0  0
    7.3006   22.0540   32.7831 H   0  0  0  0  0  0
    7.4869   21.3190   29.7915 H   0  0  0  0  0  0
    5.3203   22.3910   30.3596 H   0  0  0  0  0  0
    6.7472   19.5707   32.2349 H   0  0  0  0  0  0
    5.7421   18.8836   30.0590 H   0  0  0  0  0  0
    9.3475   19.4745   30.5847 H   0  0  0  0  0  0
    8.5627   17.3280   31.5947 H   0  0  0  0  0  0
    8.8999   20.4950   33.4346 H   0  0  0  0  0  0
   11.2478   21.1946   33.3778 H   0  0  0  0  0  0
   11.1648   19.4501   32.9576 H   0  0  0  0  0  0
   12.6137   20.7190   31.2428 H   0  0  0  0  0  0
  1  2  1  0  0  0
  1  3  2  0  0  0
  1  9  1  0  0  0
  2 21  1  0  0  0
  3  4  1  0  0  0
  3 10  1  0  0  0
  4  5  2  0  0  0
  4 22  1  0  0  0
  5  6  1  0  0  0
  5  7  1  0  0  0
  6 23  1  0  0  0
  7  8  1  0  0  0
  7  9  2  0  0  0
  9 24  1  0  0  0
 10 11  1  0  0  0
 10 18  1  0  0  0
 10 25  1  0  0  0
 11 12  1  0  0  0
 11 13  1  0  0  0
 11 26  1  0  0  0
 12 27  1  0  0  0
 13 14  1  0  0  0
 13 15  1  0  0  0
 13 28  1  0  0  0
 14 29  1  0  0  0
 15 16  1  0  0  0
 15 17  1  0  0  0
 15 30  1  0  0  0
 16 31  1  0  0  0
 17 18  1  0  0  0
 17 19  1  0  0  0
 17 32  1  0  0  0
 19 20  1  0  0  0
 19 33  1  0  0  0
 19 34  1  0  0  0
 20 35  1  0  0  0
M  END
> <s_m_source_file>
../3np7_ligand.sdf

> <i_m_source_file_index>
1

> <s_epik_input>
Q2xjKFtjSF0xKWMoW09IXSlbY0hdYyhjMVtPSF0pW0NASF0yW0NASF0oW09IXSlbQ0BASF0oW09IXSlbQ0BIXShbT0hdKVtDQEhdKE8yKVtDSDJdW09IXQ==

> <s_epik_cmdline>
J2VwaWtfYXBwJywgJy1pbWFlJywgJ2xpZ2FuZF9wcm8ubWFlJywgJy1vbWFlJywgJ2xpZ2FuZF9wcmVwLm1hZScsICctbXMnLCAnMScsICctcGgnLCAnNycsICctcGh0JywgJzAuNScsICctbnQn

> <r_lp_tautomer_probability>
0.999999999416998

> <r_epik_Ionization_Penalty>
  0.0151

> <r_epik_Ionization_Penalty_Charging>
  0.0000

> <r_epik_Ionization_Penalty_Neutral>
  0.0151

> <r_epik_State_Penalty>
  0.0102

> <r_epik_Charging_Adjusted_Penalty>
0.0101862806248924

> <i_epik_Tot_Q>
0

> <i_epik_Tot_abs_Q>
0

$$$$
