3np9_ligand
                    3D
 Schrodinger Suite 2020-3.
 38 39  0  0  1  0            999 V2000
   33.6380   23.9780   30.1330 C   0  0  0  0  0  0
   32.2910   24.1350   30.3350 O   0  0  0  0  0  0
   34.1270   23.4390   28.9460 C   0  0  0  0  0  0
   35.5020   23.2860   28.7630 C   0  0  0  0  0  0
   36.3960   23.6840   29.7580 C   0  0  0  0  0  0
   37.7290   23.5250   29.5380 O   0  0  0  0  0  0
   35.9080   24.2310   30.9460 C   0  0  0  0  0  0
   34.5320   24.3760   31.1220 C   0  0  0  0  0  0
   33.9050   25.0340   32.5820 Cl  0  0  0  0  0  0
   38.5320   23.6890   30.7100 C   0  0  0  0  0  0
   33.1460   22.9830   27.8670 C   0  0  1  0  0  0
   33.6100   23.1590   26.4150 C   0  0  2  0  0  0
   33.8650   24.5470   26.1360 O   0  0  0  0  0  0
   32.5490   22.5680   25.4640 C   0  0  1  0  0  0
   33.0070   22.6420   24.1130 O   0  0  0  0  0  0
   32.2430   21.1030   25.8230 C   0  0  2  0  0  0
   31.0830   20.6640   25.1110 O   0  0  0  0  0  0
   31.9980   20.9180   27.3370 C   0  0  2  0  0  0
   33.0380   21.5490   28.1290 O   0  0  0  0  0  0
   31.9260   19.4360   27.7480 C   0  0  0  0  0  0
   33.0400   18.7210   27.1960 O   0  0  0  0  0  0
   31.5782   23.8227   29.5576 H   0  0  0  0  0  0
   35.8801   22.8529   27.8370 H   0  0  0  0  0  0
   36.5975   24.5426   31.7306 H   0  0  0  0  0  0
   39.5916   23.5460   30.4514 H   0  0  0  0  0  0
   38.2352   22.9459   31.4648 H   0  0  0  0  0  0
   38.3869   24.7013   31.1152 H   0  0  0  0  0  0
   32.2051   23.5474   27.9451 H   0  0  0  0  0  0
   34.5862   22.6816   26.2444 H   0  0  0  0  0  0
   34.6007   25.1025   26.7361 H   0  0  0  0  0  0
   31.6311   23.1734   25.4950 H   0  0  0  0  0  0
   33.2762   23.6149   23.6760 H   0  0  0  0  0  0
   33.0750   20.4663   25.4876 H   0  0  0  0  0  0
   31.0598   20.7153   24.0124 H   0  0  0  0  0  0
   31.0572   21.4345   27.5782 H   0  0  0  0  0  0
   31.9527   19.3580   28.8449 H   0  0  0  0  0  0
   30.9906   18.9962   27.3718 H   0  0  0  0  0  0
   33.1516   17.6436   27.3877 H   0  0  0  0  0  0
  1  2  1  0  0  0
  1  3  2  0  0  0
  1  8  1  0  0  0
  2 22  1  0  0  0
  3  4  1  0  0  0
  3 11  1  0  0  0
  4  5  2  0  0  0
  4 23  1  0  0  0
  5  6  1  0  0  0
  5  7  1  0  0  0
  6 10  1  0  0  0
  7  8  2  0  0  0
  7 24  1  0  0  0
  8  9  1  0  0  0
 10 25  1  0  0  0
 10 26  1  0  0  0
 10 27  1  0  0  0
 11 12  1  0  0  0
 11 19  1  0  0  0
 11 28  1  0  0  0
 12 13  1  0  0  0
 12 14  1  0  0  0
 12 29  1  0  0  0
 13 30  1  0  0  0
 14 15  1  0  0  0
 14 16  1  0  0  0
 14 31  1  0  0  0
 15 32  1  0  0  0
 16 17  1  0  0  0
 16 18  1  0  0  0
 16 33  1  0  0  0
 17 34  1  0  0  0
 18 19  1  0  0  0
 18 20  1  0  0  0
 18 35  1  0  0  0
 20 21  1  0  0  0
 20 36  1  0  0  0
 20 37  1  0  0  0
 21 38  1  0  0  0
M  END
> <s_m_source_file>
../3np9_ligand.sdf

> <i_m_source_file_index>
1

> <s_epik_input>
Q2xjMVtjSF1jKE9bQ0gzXSlbY0hdYyhjMVtPSF0pW0NASF0yW0NASF0oW09IXSlbQ0BASF0oW09IXSlbQ0BIXShbT0hdKVtDQEhdKE8yKVtDSDJdW09IXQ==

> <s_epik_cmdline>
J2VwaWtfYXBwJywgJy1pbWFlJywgJ2xpZ2FuZF9wcm8ubWFlJywgJy1vbWFlJywgJ2xpZ2FuZF9wcmVwLm1hZScsICctbXMnLCAnMScsICctcGgnLCAnNycsICctcGh0JywgJzAuNScsICctbnQn

> <r_lp_tautomer_probability>
0.999999999999998

> <r_epik_Ionization_Penalty>
  0.0139

> <r_epik_Ionization_Penalty_Charging>
  0.0000

> <r_epik_Ionization_Penalty_Neutral>
  0.0139

> <r_epik_State_Penalty>
  0.0108

> <r_epik_Charging_Adjusted_Penalty>
0.0108118563788366

> <i_epik_Tot_Q>
0

> <i_epik_Tot_abs_Q>
0

$$$$
