3npa_ligand
                    3D
 Schrodinger Suite 2020-3.
 35 36  0  0  1  0            999 V2000
   33.8110   24.1870   30.1340 C   0  0  0  0  0  0
   32.4740   24.4190   30.2620 O   0  0  0  0  0  0
   34.3050   23.4920   29.0230 C   0  0  0  0  0  0
   35.6740   23.2530   28.9100 C   0  0  0  0  0  0
   36.5440   23.7240   29.8910 C   0  0  0  0  0  0
   37.8750   23.4950   29.7850 O   0  0  0  0  0  0
   36.0570   24.4210   30.9890 C   0  0  0  0  0  0
   37.2820   25.0400   32.3050 Br  0  0  0  0  0  0
   34.6880   24.6530   31.1200 C   0  0  0  0  0  0
   33.3440   22.9600   27.9460 C   0  0  1  0  0  0
   33.7390   23.1860   26.4730 C   0  0  2  0  0  0
   33.9490   24.5850   26.2070 O   0  0  0  0  0  0
   32.6560   22.5750   25.5490 C   0  0  1  0  0  0
   33.0590   22.6660   24.1780 O   0  0  0  0  0  0
   32.3780   21.1030   25.9190 C   0  0  2  0  0  0
   31.2100   20.6220   25.2360 O   0  0  0  0  0  0
   32.1910   20.9270   27.4450 C   0  0  2  0  0  0
   33.3120   21.5170   28.1430 O   0  0  0  0  0  0
   32.1040   19.4560   27.8750 C   0  0  0  0  0  0
   33.2010   18.7370   27.3040 O   0  0  0  0  0  0
   31.7767   24.0567   29.4922 H   0  0  0  0  0  0
   36.0628   22.6987   28.0558 H   0  0  0  0  0  0
   38.2710   22.9439   28.9193 H   0  0  0  0  0  0
   34.3036   25.1938   31.9848 H   0  0  0  0  0  0
   32.3756   23.4610   28.0916 H   0  0  0  0  0  0
   34.7243   22.7493   26.2531 H   0  0  0  0  0  0
   34.6914   25.1502   26.7895 H   0  0  0  0  0  0
   31.7298   23.1654   25.6080 H   0  0  0  0  0  0
   33.2991   23.6457   23.7392 H   0  0  0  0  0  0
   33.2059   20.4765   25.5554 H   0  0  0  0  0  0
   31.1580   20.6652   24.1381 H   0  0  0  0  0  0
   31.2742   21.4563   27.7438 H   0  0  0  0  0  0
   32.1496   19.3914   28.9722 H   0  0  0  0  0  0
   31.1552   19.0261   27.5216 H   0  0  0  0  0  0
   33.3134   17.6601   27.4981 H   0  0  0  0  0  0
  1  2  1  0  0  0
  1  3  2  0  0  0
  1  9  1  0  0  0
  2 21  1  0  0  0
  3  4  1  0  0  0
  3 10  1  0  0  0
  4  5  2  0  0  0
  4 22  1  0  0  0
  5  6  1  0  0  0
  5  7  1  0  0  0
  6 23  1  0  0  0
  7  8  1  0  0  0
  7  9  2  0  0  0
  9 24  1  0  0  0
 10 11  1  0  0  0
 10 18  1  0  0  0
 10 25  1  0  0  0
 11 12  1  0  0  0
 11 13  1  0  0  0
 11 26  1  0  0  0
 12 27  1  0  0  0
 13 14  1  0  0  0
 13 15  1  0  0  0
 13 28  1  0  0  0
 14 29  1  0  0  0
 15 16  1  0  0  0
 15 17  1  0  0  0
 15 30  1  0  0  0
 16 31  1  0  0  0
 17 18  1  0  0  0
 17 19  1  0  0  0
 17 32  1  0  0  0
 19 20  1  0  0  0
 19 33  1  0  0  0
 19 34  1  0  0  0
 20 35  1  0  0  0
M  END
> <s_m_source_file>
../3npa_ligand.sdf

> <i_m_source_file_index>
1

> <s_epik_input>
QnJjKFtjSF0xKWMoW09IXSlbY0hdYyhjMVtPSF0pW0NASF0yW0NASF0oW09IXSlbQ0BASF0oW09IXSlbQ0BIXShbT0hdKVtDQEhdKE8yKVtDSDJdW09IXQ==

> <s_epik_cmdline>
J2VwaWtfYXBwJywgJy1pbWFlJywgJ2xpZ2FuZF9wcm8ubWFlJywgJy1vbWFlJywgJ2xpZ2FuZF9wcmVwLm1hZScsICctbXMnLCAnMScsICctcGgnLCAnNycsICctcGh0JywgJzAuNScsICctbnQn

> <r_lp_tautomer_probability>
0.999999999416998

> <r_epik_Ionization_Penalty>
  0.0153

> <r_epik_Ionization_Penalty_Charging>
  0.0000

> <r_epik_Ionization_Penalty_Neutral>
  0.0153

> <r_epik_State_Penalty>
  0.0102

> <r_epik_Charging_Adjusted_Penalty>
0.0101862806248924

> <i_epik_Tot_Q>
0

> <i_epik_Tot_abs_Q>
0

$$$$
