3npc_ligand
                    3D
 Schrodinger Suite 2020-3.
 76 80  0  0  1  0            999 V2000
   55.1090   47.7460   10.1500 C   0  0  0  0  0  0
   53.9930   48.1800    9.9410 O   0  0  0  0  0  0
   55.8600   48.2360   11.1640 N   0  0  0  0  0  0
   55.3960   49.1900   12.0890 C   0  0  0  0  0  0
   56.1180   50.3550   12.4040 C   0  0  0  0  0  0
   55.5790   51.2550   13.3750 C   0  0  0  0  0  0
   54.3430   50.9590   14.0150 C   0  0  0  0  0  0
   57.3380   50.6560   11.7700 C   0  0  0  0  0  0
   57.9950   51.7930   12.0920 C   0  0  0  0  0  0
   57.4780   52.6710   13.0470 C   0  0  0  0  0  0
   56.2960   52.4300   13.6800 C   0  0  0  0  0  0
   53.6760   49.8000   13.6980 C   0  0  0  0  0  0
   54.2040   48.9310   12.7500 C   0  0  0  0  0  0
   55.6480   46.7770    9.3860 N   0  0  0  0  0  0
   55.0160   46.0950    8.3370 C   0  0  0  0  0  0
   54.2400   46.5870    7.3270 C   0  0  0  0  0  0
   53.8390   45.5070    6.5200 C   0  0  0  0  0  0
   54.3430   44.4170    7.0110 N   0  0  0  0  0  0
   55.0820   44.7430    8.1500 N   0  0  0  0  0  0
   55.7500   43.7760    8.9090 C   0  0  0  0  0  0
   53.8320   45.9910    4.1080 C   0  0  0  0  0  0
   52.3840   44.1580    5.0340 C   0  0  0  0  0  0
   51.8030   46.5280    5.4910 C   0  0  0  0  0  0
   52.9670   45.5500    5.2890 C   0  0  0  0  0  0
   56.4310   42.7670    8.2300 C   0  0  0  0  0  0
   57.0790   41.7790    8.9380 C   0  0  0  0  0  0
   57.0340   41.7900   10.3270 C   0  0  0  0  0  0
   56.3450   42.7890   11.0040 C   0  0  0  0  0  0
   55.6950   43.7860   10.2950 C   0  0  0  0  0  0
   57.7560   40.7120   11.1040 C   0  0  0  0  0  0
   53.8680   51.8360   14.9470 O   0  0  0  0  0  0
   52.5070   51.6030   15.3470 C   0  0  0  0  0  0
   52.0470   52.8360   16.1360 C   0  0  0  0  0  0
   51.2040   53.7350   15.3300 N   0  0  0  0  0  0
   52.0140   54.3100   14.2390 C   0  0  0  0  0  0
   51.1380   55.2660   13.4220 C   0  0  0  0  0  0
   50.7840   56.3550   14.2750 O   0  0  0  0  0  0
   49.9840   55.8710   15.3710 C   0  0  0  0  0  0
   50.7740   54.8450   16.1980 C   0  0  0  0  0  0
   56.8950   47.8890   11.2994 H   0  0  0  0  0  0
   57.7506   49.9767   11.0241 H   0  0  0  0  0  0
   58.9393   52.0271   11.6004 H   0  0  0  0  0  0
   58.0359   53.5746   13.2929 H   0  0  0  0  0  0
   55.9091   53.1373   14.4136 H   0  0  0  0  0  0
   52.7329   49.5621   14.1899 H   0  0  0  0  0  0
   53.6625   48.0140   12.5179 H   0  0  0  0  0  0
   56.6839   46.4510    9.5610 H   0  0  0  0  0  0
   53.9772   47.6336    7.1730 H   0  0  0  0  0  0
   54.6615   45.2808    3.9757 H   0  0  0  0  0  0
   54.2365   46.9949    4.3045 H   0  0  0  0  0  0
   53.2202   46.0146    3.1941 H   0  0  0  0  0  0
   53.2031   43.4389    4.8860 H   0  0  0  0  0  0
   51.7521   44.1844    4.1340 H   0  0  0  0  0  0
   51.7777   43.8504    5.8988 H   0  0  0  0  0  0
   52.1999   47.5371    5.6762 H   0  0  0  0  0  0
   51.2000   46.2072    6.3532 H   0  0  0  0  0  0
   51.1744   46.5412    4.5884 H   0  0  0  0  0  0
   56.4507   42.7598    7.1402 H   0  0  0  0  0  0
   57.6232   40.9942    8.4126 H   0  0  0  0  0  0
   56.3160   42.7882   12.0936 H   0  0  0  0  0  0
   55.1471   44.5686   10.8198 H   0  0  0  0  0  0
   58.2394   40.0159   10.4027 H   0  0  0  0  0  0
   57.0342   40.1630   11.7266 H   0  0  0  0  0  0
   58.5195   41.1730   11.7478 H   0  0  0  0  0  0
   51.8815   51.4605   14.4534 H   0  0  0  0  0  0
   52.4588   50.7017   15.9758 H   0  0  0  0  0  0
   51.4620   52.5145   17.0103 H   0  0  0  0  0  0
   52.9262   53.4052   16.4723 H   0  0  0  0  0  0
   52.8665   54.8591   14.6654 H   0  0  0  0  0  0
   52.3853   53.5012   13.5925 H   0  0  0  0  0  0
   51.7037   55.6274   12.5506 H   0  0  0  0  0  0
   50.2369   54.7359   13.0800 H   0  0  0  0  0  0
   49.7025   56.7137   16.0196 H   0  0  0  0  0  0
   49.0754   55.3913   14.9780 H   0  0  0  0  0  0
   50.1341   54.4543   17.0029 H   0  0  0  0  0  0
   51.6580   55.3317   16.6359 H   0  0  0  0  0  0
  1  2  2  0  0  0
  1  3  1  0  0  0
  1 14  1  0  0  0
  3  4  1  0  0  0
  3 40  1  0  0  0
  4  5  2  0  0  0
  4 13  1  0  0  0
  5  6  1  0  0  0
  5  8  1  0  0  0
  6  7  2  0  0  0
  6 11  1  0  0  0
  7 12  1  0  0  0
  7 31  1  0  0  0
  8  9  2  0  0  0
  8 41  1  0  0  0
  9 10  1  0  0  0
  9 42  1  0  0  0
 10 11  2  0  0  0
 10 43  1  0  0  0
 11 44  1  0  0  0
 12 13  2  0  0  0
 12 45  1  0  0  0
 13 46  1  0  0  0
 14 15  1  0  0  0
 14 47  1  0  0  0
 15 16  2  0  0  0
 15 19  1  0  0  0
 16 17  1  0  0  0
 16 48  1  0  0  0
 17 18  2  0  0  0
 17 24  1  0  0  0
 18 19  1  0  0  0
 19 20  1  0  0  0
 20 25  2  0  0  0
 20 29  1  0  0  0
 21 24  1  0  0  0
 21 49  1  0  0  0
 21 50  1  0  0  0
 21 51  1  0  0  0
 22 24  1  0  0  0
 22 52  1  0  0  0
 22 53  1  0  0  0
 22 54  1  0  0  0
 23 24  1  0  0  0
 23 55  1  0  0  0
 23 56  1  0  0  0
 23 57  1  0  0  0
 25 26  1  0  0  0
 25 58  1  0  0  0
 26 27  2  0  0  0
 26 59  1  0  0  0
 27 28  1  0  0  0
 27 30  1  0  0  0
 28 29  2  0  0  0
 28 60  1  0  0  0
 29 61  1  0  0  0
 30 62  1  0  0  0
 30 63  1  0  0  0
 30 64  1  0  0  0
 31 32  1  0  0  0
 32 33  1  0  0  0
 32 65  1  0  0  0
 32 66  1  0  0  0
 33 34  1  0  0  0
 33 67  1  0  0  0
 33 68  1  0  0  0
 34 35  1  0  0  0
 34 39  1  0  0  0
 35 36  1  0  0  0
 35 69  1  0  0  0
 35 70  1  0  0  0
 36 37  1  0  0  0
 36 71  1  0  0  0
 36 72  1  0  0  0
 37 38  1  0  0  0
 38 39  1  0  0  0
 38 73  1  0  0  0
 38 74  1  0  0  0
 39 75  1  0  0  0
 39 76  1  0  0  0
M  END
> <s_m_source_file>
../3npc_ligand.sdf

> <i_m_source_file_index>
1

> <s_epik_input>
W2NIXTFbY0hdYyhbQ0gzXSlbY0hdW2NIXWMxLW4ybmMoQyhbQ0gzXSkoW0NIM10pW0NIM10pW2NIXWMyW05IXUMoPU8pW05IXWMzW2NIXVtjSF1jKGMoYzM0KVtjSF1bY0hdW2NIXVtjSF00KU9bQ0gyXVtDSDJdW05IK101W0NIMl1bQ0gyXU9bQ0gyXVtDSDJdNQ==

> <s_epik_cmdline>
J2VwaWtfYXBwJywgJy1pbWFlJywgJ2xpZ2FuZF9wcm8ubWFlJywgJy1vbWFlJywgJ2xpZ2FuZF9wcmVwLm1hZScsICctbXMnLCAnMScsICctcGgnLCAnNycsICctcGh0JywgJzAuNScsICctbnQn

> <r_lp_tautomer_probability>
1

> <r_epik_Ionization_Penalty>
  0.0642

> <r_epik_Ionization_Penalty_Charging>
  0.0000

> <r_epik_Ionization_Penalty_Neutral>
  0.0642

> <r_epik_State_Penalty>
  0.0558

> <r_epik_Charging_Adjusted_Penalty>
0.0558297731723035

> <i_epik_Tot_Q>
0

> <i_epik_Tot_abs_Q>
0

$$$$
