3nrm_ligand
                    3D
 Schrodinger Suite 2020-3.
 32 35  0  0  1  0            999 V2000
    6.4020   29.3950    8.9170 C   0  0  0  0  0  0
    2.4980   33.5140    6.4530 N   0  0  0  0  0  0
    2.2010   33.7390    3.6730 S   0  0  0  0  0  0
    5.3720   30.5230    6.1490 C   0  0  0  0  0  0
    3.7520   32.1270    8.8740 N   0  0  0  0  0  0
    4.8580   31.1130    4.9800 C   0  0  0  0  0  0
    4.9360   30.9400    7.3780 N   0  0  0  0  0  0
    7.5540   27.7000    9.7990 N   0  3  0  0  0  0
    3.4410   32.5050    6.3770 C   0  0  0  0  0  0
    8.3230   28.2510    8.8450 N   0  0  0  0  0  0
    3.9900   31.8990    7.5240 C   0  0  0  0  0  0
    1.3140   34.8800    3.0740 N   0  0  0  0  0  0
    5.3470   30.4430    8.6050 C   0  0  0  0  0  0
    3.9160   32.0750    5.1300 N   0  0  0  0  0  0
    7.6390   29.2720    8.2950 C   0  0  0  0  0  0
    4.5770   31.2260    9.4880 C   0  0  0  0  0  0
    6.3780   28.3720    9.8550 C   0  0  0  0  0  0
    1.9870   34.1420    5.3480 C   0  0  0  0  0  0
    1.1470   35.2420    5.3560 C   0  0  0  0  0  0
   -0.1190   36.8070    3.7680 C   0  0  0  0  0  0
    0.7800   35.6500    4.0720 C   0  0  0  0  0  0
    2.1251   33.8456    7.4333 H   0  0  0  0  0  0
    6.1188   29.7324    6.0762 H   0  0  0  0  0  0
    5.2040   30.8081    3.9924 H   0  0  0  0  0  0
    8.0003   29.9058    7.4851 H   0  0  0  0  0  0
    4.6344   31.1219   10.5715 H   0  0  0  0  0  0
    5.5495   28.1461   10.5264 H   0  0  0  0  0  0
    0.8084   35.7365    6.2665 H   0  0  0  0  0  0
   -0.2383   36.9023    2.6786 H   0  0  0  0  0  0
    0.3229   37.7304    4.1707 H   0  0  0  0  0  0
   -1.1024   36.6388    4.2312 H   0  0  0  0  0  0
    7.9265   26.8424   10.3785 H   0  0  0  0  0  0
  1 13  1  0  0  0
  1 15  2  0  0  0
  1 17  1  0  0  0
  2  9  1  0  0  0
  2 18  1  0  0  0
  2 22  1  0  0  0
  3 12  1  0  0  0
  3 18  1  0  0  0
  4  6  2  0  0  0
  4  7  1  0  0  0
  4 23  1  0  0  0
  5 11  2  0  0  0
  5 16  1  0  0  0
  6 14  1  0  0  0
  6 24  1  0  0  0
  7 11  1  0  0  0
  7 13  1  0  0  0
  8 10  1  0  0  0
  8 17  2  0  0  0
  8 32  1  0  0  0
  9 11  1  0  0  0
  9 14  2  0  0  0
 10 15  1  0  0  0
 12 21  2  0  0  0
 13 16  2  0  0  0
 15 25  1  0  0  0
 16 26  1  0  0  0
 17 27  1  0  0  0
 18 19  2  0  0  0
 19 21  1  0  0  0
 19 28  1  0  0  0
 20 21  1  0  0  0
 20 29  1  0  0  0
 20 30  1  0  0  0
 20 31  1  0  0  0
M  CHG  1   8   1
M  END
> <s_m_source_file>
../3nrm_ligand.sdf

> <i_m_source_file_index>
1

> <s_epik_input>
W2NIXTFuW25IXVtjSF1jMS1jMltjSF1uYyhuMjMpYyhuW2NIXVtjSF0zKVtOSF1jNHNuYyhbY0hdNClbQ0gzXQ==

> <s_epik_cmdline>
J2VwaWtfYXBwJywgJy1pbWFlJywgJ2xpZ2FuZF9wcm8ubWFlJywgJy1vbWFlJywgJ2xpZ2FuZF9wcmVwLm1hZScsICctbXMnLCAnMScsICctcGgnLCAnNycsICctcGh0JywgJzAuNScsICctbnQn

> <r_epik_Ionization_Penalty>
  0.0001

> <r_epik_Ionization_Penalty_Charging>
  0.0001

> <r_epik_Ionization_Penalty_Neutral>
  0.0000

> <r_epik_State_Penalty>
  0.4107

> <r_epik_Charging_Adjusted_Penalty>
0.410782935338245

> <i_epik_Tot_Q>
1

> <i_epik_Tot_abs_Q>
1

$$$$
