3ns7_ligand
                    3D
 Schrodinger Suite 2020-3.
 59 60  0  0  1  0            999 V2000
   28.3110    1.1930   51.0270 C   0  0  0  0  0  0
   28.7020    1.4260   49.5640 C   0  0  0  0  0  0
   29.9980    0.8300   49.3020 N   0  0  0  0  0  0
   25.3980    3.3750   51.6540 C   0  0  0  0  0  0
   24.8560    4.6290   51.6040 C   0  0  0  0  0  0
   25.6280    5.7130   51.1940 C   0  0  0  0  0  0
   26.9520    5.5180   50.8100 C   0  0  0  0  0  0
   27.5020    4.2410   50.8620 C   0  0  0  0  0  0
   26.7450    3.1670   51.2490 C   0  0  0  0  0  0
   24.8760    2.1380   51.9730 N   0  0  0  0  0  0
   27.0100    1.8080   51.3680 N   0  0  0  0  0  0
   25.8600    1.2470   51.7830 C   0  0  0  0  0  0
   25.6490   -0.2460   51.9470 C   0  0  0  0  0  0
   30.8870    1.4240   48.4880 C   0  0  0  0  0  0
   30.7870    2.5610   48.0430 O   0  0  0  0  0  0
   32.1220    0.5570   48.2580 C   0  0  0  0  0  0
   33.3070    1.4370   47.8180 C   0  0  1  0  0  0
   34.6320    1.0330   48.5110 C   0  0  0  0  0  0
   33.3760    1.5010   46.2820 C   0  0  0  0  0  0
   32.7010    0.7600   45.5640 O   0  0  0  0  0  0
   34.8940   -0.4860   48.5620 C   0  0  0  0  0  0
   34.7060    1.6600   49.9170 C   0  0  0  0  0  0
   35.8640    3.1580   44.1870 C   0  0  0  0  0  0
   34.2060    2.4550   45.8270 N   0  0  0  0  0  0
   36.7280    2.0330   44.1730 O   0  0  0  0  0  0
   34.4050    2.7480   44.4090 C   0  0  1  0  0  0
   33.4520    3.8880   44.0140 C   0  0  0  0  0  0
   33.1470    3.9080   42.5160 C   0  0  0  0  0  0
   32.3670    3.1220   42.0390 O   0  0  0  0  0  0
   33.5860    4.8570   41.8760 O   0  5  0  0  0  0
   28.2364    0.1124   51.2190 H   0  0  0  0  0  0
   29.0762    1.6304   51.6852 H   0  0  0  0  0  0
   27.9501    0.9662   48.9058 H   0  0  0  0  0  0
   28.7514    2.5068   49.3653 H   0  0  0  0  0  0
   30.2690   -0.1263   49.7732 H   0  0  0  0  0  0
   23.8143    4.7811   51.8865 H   0  0  0  0  0  0
   25.1960    6.7135   51.1737 H   0  0  0  0  0  0
   27.5542    6.3608   50.4706 H   0  0  0  0  0  0
   28.5476    4.0935   50.5916 H   0  0  0  0  0  0
   24.6236   -0.4351   52.2974 H   0  0  0  0  0  0
   26.3662   -0.6390   52.6826 H   0  0  0  0  0  0
   25.8042   -0.7466   50.9799 H   0  0  0  0  0  0
   32.3837    0.0368   49.1912 H   0  0  0  0  0  0
   31.9092   -0.1834   47.4728 H   0  0  0  0  0  0
   33.1304    2.4679   48.1585 H   0  0  0  0  0  0
   35.4429    1.4331   47.8846 H   0  0  0  0  0  0
   34.8344   -0.9027   47.5457 H   0  0  0  0  0  0
   34.1385   -0.9671   49.2005 H   0  0  0  0  0  0
   35.8960   -0.6715   48.9762 H   0  0  0  0  0  0
   34.5152    2.7411   49.8469 H   0  0  0  0  0  0
   35.7066    1.4910   50.3416 H   0  0  0  0  0  0
   33.9490    1.1954   50.5659 H   0  0  0  0  0  0
   36.1603    3.8378   44.9994 H   0  0  0  0  0  0
   35.9330    3.6854   43.2241 H   0  0  0  0  0  0
   34.7518    3.0302   46.5894 H   0  0  0  0  0  0
   37.8089    2.1714   44.0227 H   0  0  0  0  0  0
   34.1831    1.8394   43.8300 H   0  0  0  0  0  0
   32.4989    3.7718   44.5508 H   0  0  0  0  0  0
   33.9064    4.8541   44.2787 H   0  0  0  0  0  0
  1  2  1  0  0  0
  1 11  1  0  0  0
  1 31  1  0  0  0
  1 32  1  0  0  0
  2  3  1  0  0  0
  2 33  1  0  0  0
  2 34  1  0  0  0
  3 14  1  0  0  0
  3 35  1  0  0  0
  4  5  2  0  0  0
  4  9  1  0  0  0
  4 10  1  0  0  0
  5  6  1  0  0  0
  5 36  1  0  0  0
  6  7  2  0  0  0
  6 37  1  0  0  0
  7  8  1  0  0  0
  7 38  1  0  0  0
  8  9  2  0  0  0
  8 39  1  0  0  0
  9 11  1  0  0  0
 10 12  2  0  0  0
 11 12  1  0  0  0
 12 13  1  0  0  0
 13 40  1  0  0  0
 13 41  1  0  0  0
 13 42  1  0  0  0
 14 15  2  0  0  0
 14 16  1  0  0  0
 16 17  1  0  0  0
 16 43  1  0  0  0
 16 44  1  0  0  0
 17 18  1  0  0  0
 17 19  1  0  0  0
 17 45  1  0  0  0
 18 21  1  0  0  0
 18 22  1  0  0  0
 18 46  1  0  0  0
 19 20  2  0  0  0
 19 24  1  0  0  0
 21 47  1  0  0  0
 21 48  1  0  0  0
 21 49  1  0  0  0
 22 50  1  0  0  0
 22 51  1  0  0  0
 22 52  1  0  0  0
 23 25  1  0  0  0
 23 26  1  0  0  0
 23 53  1  0  0  0
 23 54  1  0  0  0
 24 26  1  0  0  0
 24 55  1  0  0  0
 25 56  1  0  0  0
 26 27  1  0  0  0
 26 57  1  0  0  0
 27 28  1  0  0  0
 27 58  1  0  0  0
 27 59  1  0  0  0
 28 29  2  0  0  0
 28 30  1  0  0  0
M  CHG  1  30  -1
M  END
> <s_m_source_file>
../3ns7_ligand.sdf

> <i_m_source_file_index>
1

> <s_epik_input>
W2NIXTFbY0hdW2NIXVtjSF1jKGMxMiluKGMobjIpW0NIM10pW0NIMl1bQ0gyXVtOSF1DKD1PKVtDSDJdW0NAQEhdKFtDSF0oW0NIM10pW0NIM10pQyg9TylbTkhdW0NASF0oW0NIMl1bT0hdKVtDSDJdQyg9TylbT0hd

> <s_epik_cmdline>
J2VwaWtfYXBwJywgJy1pbWFlJywgJ2xpZ2FuZF9wcm8ubWFlJywgJy1vbWFlJywgJ2xpZ2FuZF9wcmVwLm1hZScsICctbXMnLCAnMScsICctcGgnLCAnNycsICctcGh0JywgJzAuNScsICctbnQn

> <r_epik_Ionization_Penalty>
  0.1292

> <r_epik_Ionization_Penalty_Charging>
  0.0015

> <r_epik_Ionization_Penalty_Neutral>
  0.1277

> <r_epik_State_Penalty>
  0.1171

> <r_epik_Charging_Adjusted_Penalty>
0.118621523362342

> <i_epik_Tot_Q>
-1

> <i_epik_Tot_abs_Q>
1

$$$$
