3ns9_ligand
                    3D
 Schrodinger Suite 2020-3.
 55 57  0  0  1  0            999 V2000
    1.6430   -4.8010  -29.2550 N   0  0  0  0  0  0
    1.5250   -5.9400  -28.7130 N   0  0  0  0  0  0
    2.4420   -6.9660  -28.5960 C   0  0  0  0  0  0
    2.0800   -8.0990  -27.8330 C   0  0  0  0  0  0
    0.7660   -8.2020  -27.2370 C   0  0  0  0  0  0
   -0.1350   -7.1610  -27.3200 N   0  0  0  0  0  0
    0.2530   -6.0650  -28.0560 C   0  0  0  0  0  0
   -0.3640   -4.8510  -28.3800 C   0  0  0  0  0  0
    0.5030   -4.1160  -29.1010 C   0  0  0  0  0  0
    3.6520   -6.8040  -29.1880 N   0  0  0  0  0  0
    4.7830   -7.7640  -28.9660 C   0  0  0  0  0  0
    4.7230   -8.8550  -30.0140 C   0  0  0  0  0  0
    4.7350   -8.4860  -31.3650 C   0  0  0  0  0  0
    4.6810   -9.4500  -32.3650 C   0  0  0  0  0  0
    4.6150  -10.8130  -32.0080 C   0  0  0  0  0  0
    4.6220  -11.1410  -30.6740 C   0  0  0  0  0  0
    4.6650  -10.1900  -29.6460 C   0  0  0  0  0  0
    0.4920   -9.3120  -26.5190 N   0  0  0  0  0  0
   -0.9020   -9.5720  -26.0100 C   0  0  2  0  0  0
   -1.0830   -9.2120  -24.5500 C   0  0  1  0  0  0
   -0.7310   -7.7240  -24.1800 C   0  0  0  0  0  0
   -1.5920   -6.9460  -24.9620 O   0  0  0  0  0  0
   -1.1950  -11.0980  -26.1930 C   0  0  0  0  0  0
   -0.0090  -11.8870  -25.9210 O   0  0  0  0  0  0
   -2.4850   -9.5190  -24.2100 O   0  0  0  0  0  0
   -1.7460   -4.4110  -27.9630 C   0  0  0  0  0  0
   -1.7530   -4.0710  -26.4490 C   0  0  0  0  0  0
   -2.8670   -5.4870  -28.1990 C   0  0  0  0  0  0
    2.7998   -8.9053  -27.6918 H   0  0  0  0  0  0
    0.3077   -3.1196  -29.4973 H   0  0  0  0  0  0
    3.7896   -5.9352  -29.8485 H   0  0  0  0  0  0
    5.7401   -7.2277  -29.0458 H   0  0  0  0  0  0
    4.6947   -8.2093  -27.9641 H   0  0  0  0  0  0
    4.7873   -7.4313  -31.6353 H   0  0  0  0  0  0
    4.6896   -9.1556  -33.4145 H   0  0  0  0  0  0
    4.5597  -11.5878  -32.7726 H   0  0  0  0  0  0
    4.5926  -12.1959  -30.4011 H   0  0  0  0  0  0
    4.6533  -10.4884  -28.5977 H   0  0  0  0  0  0
    1.2979  -10.0299  -26.3066 H   0  0  0  0  0  0
   -1.5756   -8.9086  -26.5723 H   0  0  0  0  0  0
   -0.4057   -9.8519  -23.9654 H   0  0  0  0  0  0
   -0.9007   -7.5635  -23.1051 H   0  0  0  0  0  0
    0.3247   -7.5269  -24.4179 H   0  0  0  0  0  0
   -1.5541   -5.8486  -24.8961 H   0  0  0  0  0  0
   -1.9913  -11.4043  -25.4986 H   0  0  0  0  0  0
   -1.5174  -11.2880  -27.2274 H   0  0  0  0  0  0
   -0.0464  -12.9831  -26.0050 H   0  0  0  0  0  0
   -2.8916  -10.5221  -24.4064 H   0  0  0  0  0  0
   -1.9349   -3.5366  -28.6032 H   0  0  0  0  0  0
   -0.9795   -3.3177  -26.2388 H   0  0  0  0  0  0
   -1.5456   -4.9816  -25.8678 H   0  0  0  0  0  0
   -2.7389   -3.6727  -26.1672 H   0  0  0  0  0  0
   -2.8967   -5.7579  -29.2647 H   0  0  0  0  0  0
   -3.8411   -5.0737  -27.8985 H   0  0  0  0  0  0
   -2.6478   -6.3825  -27.5990 H   0  0  0  0  0  0
  1  2  1  0  0  0
  1  9  2  0  0  0
  2  3  1  0  0  0
  2  7  1  0  0  0
  3  4  2  0  0  0
  3 10  1  0  0  0
  4  5  1  0  0  0
  4 29  1  0  0  0
  5  6  2  0  0  0
  5 18  1  0  0  0
  6  7  1  0  0  0
  7  8  2  0  0  0
  8  9  1  0  0  0
  8 26  1  0  0  0
  9 30  1  0  0  0
 10 11  1  0  0  0
 10 31  1  0  0  0
 11 12  1  0  0  0
 11 32  1  0  0  0
 11 33  1  0  0  0
 12 13  2  0  0  0
 12 17  1  0  0  0
 13 14  1  0  0  0
 13 34  1  0  0  0
 14 15  2  0  0  0
 14 35  1  0  0  0
 15 16  1  0  0  0
 15 36  1  0  0  0
 16 17  2  0  0  0
 16 37  1  0  0  0
 17 38  1  0  0  0
 18 19  1  0  0  0
 18 39  1  0  0  0
 19 20  1  0  0  0
 19 23  1  0  0  0
 19 40  1  0  0  0
 20 21  1  0  0  0
 20 25  1  0  0  0
 20 41  1  0  0  0
 21 22  1  0  0  0
 21 42  1  0  0  0
 21 43  1  0  0  0
 22 44  1  0  0  0
 23 24  1  0  0  0
 23 45  1  0  0  0
 23 46  1  0  0  0
 24 47  1  0  0  0
 25 48  1  0  0  0
 26 27  1  0  0  0
 26 28  1  0  0  0
 26 49  1  0  0  0
 27 50  1  0  0  0
 27 51  1  0  0  0
 27 52  1  0  0  0
 28 53  1  0  0  0
 28 54  1  0  0  0
 28 55  1  0  0  0
M  END
> <s_m_source_file>
../3ns9_ligand.sdf

> <i_m_source_file_index>
1

> <s_epik_input>
bjFbY0hdYyhbQ0hdKFtDSDNdKVtDSDNdKWMobjEyKW5jKFtOSF1bQ0BASF0oW0NIMl1bT0hdKVtDQEhdKFtPSF0pW0NIMl1bT0hdKVtjSF1jMltOSF1bQ0gyXWMzW2NIXVtjSF1bY0hdW2NIXVtjSF0z

> <s_epik_cmdline>
J2VwaWtfYXBwJywgJy1pbWFlJywgJ2xpZ2FuZF9wcm8ubWFlJywgJy1vbWFlJywgJ2xpZ2FuZF9wcmVwLm1hZScsICctbXMnLCAnMScsICctcGgnLCAnNycsICctcGh0JywgJzAuNScsICctbnQn

> <r_lp_tautomer_probability>
1

> <r_epik_Ionization_Penalty>
  0.0000

> <r_epik_Ionization_Penalty_Charging>
  0.0000

> <r_epik_Ionization_Penalty_Neutral>
  0.0000

> <r_epik_State_Penalty>
 -0.0000

> <r_epik_Charging_Adjusted_Penalty>
0

> <i_epik_Tot_Q>
0

> <i_epik_Tot_abs_Q>
0

$$$$
