3nsh_ligand
                    3D
 Schrodinger Suite 2020-3.
 64 66  0  0  1  0            999 V2000
    0.3830   33.6660   32.5710 C   0  0  0  0  0  0
   -0.7050   33.6730   33.6010 C   0  0  0  0  0  0
   -1.9480   33.5270   33.1460 N   0  0  0  0  0  0
   -3.1010   33.6380   34.0050 C   0  0  2  0  0  0
   -3.6050   32.2450   34.2490 C   0  0  1  0  0  0
   -2.5650   31.2950   34.8130 C   0  0  0  0  0  0
   -3.2580   30.1540   35.3910 N   0  3  0  0  0  0
   -2.5150   29.4740   36.4780 C   0  0  0  0  0  0
   -2.4600   30.2150   37.7800 C   0  0  0  0  0  0
   -3.5500   30.8160   38.3510 C   0  0  0  0  0  0
   -3.2090   31.4760   39.5480 C   0  0  0  0  0  0
   -1.8550   31.4210   39.8520 C   0  0  0  0  0  0
   -1.0070   30.5300   38.6330 S   0  0  0  0  0  0
   -4.2190   32.2090   40.3830 C   0  0  0  0  0  0
   -4.9860   31.3940   41.3920 C   0  0  0  0  0  0
   -4.0310   30.8410   42.4380 C   0  0  0  0  0  0
   -5.7900   30.3280   40.6490 C   0  0  0  0  0  0
   -5.9290   32.2990   42.1920 C   0  0  0  0  0  0
   -0.4630   33.7920   34.8000 O   0  0  0  0  0  0
   -4.1240   34.4870   33.2960 C   0  0  0  0  0  0
   -3.4270   35.8270   33.0100 C   0  0  0  0  0  0
   -3.3210   36.2840   31.6910 C   0  0  0  0  0  0
   -2.6700   37.4900   31.4380 C   0  0  0  0  0  0
   -2.1040   38.2270   32.4760 C   0  0  0  0  0  0
   -2.2010   37.7700   33.7900 C   0  0  0  0  0  0
   -2.8760   36.5650   34.0570 C   0  0  0  0  0  0
   -2.5440   38.0560   30.1100 F   0  0  0  0  0  0
   -1.5710   38.6430   34.8310 F   0  0  0  0  0  0
   -4.6770   32.3020   35.1800 O   0  0  0  0  0  0
   -1.2310   28.7090   36.1210 C   0  0  0  0  0  0
   -2.4770   27.9450   36.5960 C   0  0  0  0  0  0
   -0.0597   33.5490   31.5708 H   0  0  0  0  0  0
    1.0693   32.8293   32.7683 H   0  0  0  0  0  0
    0.9381   34.6145   32.6176 H   0  0  0  0  0  0
   -2.0787   33.3148   32.0746 H   0  0  0  0  0  0
   -2.8310   34.1108   34.9608 H   0  0  0  0  0  0
   -3.9687   31.8597   33.2850 H   0  0  0  0  0  0
   -1.8964   30.9620   34.0055 H   0  0  0  0  0  0
   -1.9772   31.8117   35.5860 H   0  0  0  0  0  0
   -4.2174   30.4844   35.8157 H   0  0  0  0  0  0
   -3.4425   29.4025   34.6092 H   0  0  0  0  0  0
   -4.5557   30.7873   37.9317 H   0  0  0  0  0  0
   -1.3933   31.8728   40.7300 H   0  0  0  0  0  0
   -3.7145   32.9984   40.9596 H   0  0  0  0  0  0
   -4.9776   32.6616   39.7275 H   0  0  0  0  0  0
   -3.3055   30.1705   41.9541 H   0  0  0  0  0  0
   -4.6002   30.2808   43.1945 H   0  0  0  0  0  0
   -3.4965   31.6716   42.9221 H   0  0  0  0  0  0
   -5.1051   29.6838   40.0781 H   0  0  0  0  0  0
   -6.4955   30.8150   39.9597 H   0  0  0  0  0  0
   -6.3482   29.7179   41.3744 H   0  0  0  0  0  0
   -5.3416   33.0625   42.7230 H   0  0  0  0  0  0
   -6.4875   31.6935   42.9210 H   0  0  0  0  0  0
   -6.6348   32.7906   41.5063 H   0  0  0  0  0  0
   -4.4314   33.9893   32.3644 H   0  0  0  0  0  0
   -5.0012   34.6232   33.9456 H   0  0  0  0  0  0
   -3.7430   35.7030   30.8710 H   0  0  0  0  0  0
   -1.5852   39.1612   32.2610 H   0  0  0  0  0  0
   -2.9684   36.2080   35.0827 H   0  0  0  0  0  0
   -5.5512   32.9371   34.9740 H   0  0  0  0  0  0
   -0.9696   28.9017   35.0700 H   0  0  0  0  0  0
   -0.4102   29.0468   36.7708 H   0  0  0  0  0  0
   -2.6808   27.6524   37.6366 H   0  0  0  0  0  0
   -3.2402   27.5072   35.9358 H   0  0  0  0  0  0
  1  2  1  0  0  0
  1 32  1  0  0  0
  1 33  1  0  0  0
  1 34  1  0  0  0
  2  3  1  0  0  0
  2 19  2  0  0  0
  3  4  1  0  0  0
  3 35  1  0  0  0
  4  5  1  0  0  0
  4 20  1  0  0  0
  4 36  1  0  0  0
  5  6  1  0  0  0
  5 29  1  0  0  0
  5 37  1  0  0  0
  6  7  1  0  0  0
  6 38  1  0  0  0
  6 39  1  0  0  0
  7  8  1  0  0  0
  7 40  1  0  0  0
  7 41  1  0  0  0
  8  9  1  0  0  0
  8 30  1  0  0  0
  8 31  1  0  0  0
  9 10  2  0  0  0
  9 13  1  0  0  0
 10 11  1  0  0  0
 10 42  1  0  0  0
 11 12  2  0  0  0
 11 14  1  0  0  0
 12 13  1  0  0  0
 12 43  1  0  0  0
 14 15  1  0  0  0
 14 44  1  0  0  0
 14 45  1  0  0  0
 15 16  1  0  0  0
 15 17  1  0  0  0
 15 18  1  0  0  0
 16 46  1  0  0  0
 16 47  1  0  0  0
 16 48  1  0  0  0
 17 49  1  0  0  0
 17 50  1  0  0  0
 17 51  1  0  0  0
 18 52  1  0  0  0
 18 53  1  0  0  0
 18 54  1  0  0  0
 20 21  1  0  0  0
 20 55  1  0  0  0
 20 56  1  0  0  0
 21 22  2  0  0  0
 21 26  1  0  0  0
 22 23  1  0  0  0
 22 57  1  0  0  0
 23 24  2  0  0  0
 23 27  1  0  0  0
 24 25  1  0  0  0
 24 58  1  0  0  0
 25 26  2  0  0  0
 25 28  1  0  0  0
 26 59  1  0  0  0
 29 60  1  0  0  0
 30 31  1  0  0  0
 30 61  1  0  0  0
 30 62  1  0  0  0
 31 63  1  0  0  0
 31 64  1  0  0  0
M  CHG  1   7   1
M  END
> <s_m_source_file>
../3nsh_ligand.sdf

> <i_m_source_file_index>
1

> <s_epik_input>
W2NIXTFjKEYpW2NIXWMoRilbY0hdYzFbQ0gyXVtDQEhdKFtOSF1DKD1PKVtDSDNdKVtDQEhdKFtPSF0pW0NIMl1bTkgyK11DMihbQ0gyXVtDSDJdMiljM1tjSF1jKFtjSF1zMylbQ0gyXUMoW0NIM10pKFtDSDNdKVtDSDNd

> <s_epik_cmdline>
J2VwaWtfYXBwJywgJy1pbWFlJywgJ2xpZ2FuZF9wcm8ubWFlJywgJy1vbWFlJywgJ2xpZ2FuZF9wcmVwLm1hZScsICctbXMnLCAnMScsICctcGgnLCAnNycsICctcGh0JywgJzAuNScsICctbnQn

> <r_epik_Ionization_Penalty>
  0.0301

> <r_epik_Ionization_Penalty_Charging>
  0.0301

> <r_epik_Ionization_Penalty_Neutral>
  0.0000

> <r_epik_State_Penalty>
  0.0248

> <r_epik_Charging_Adjusted_Penalty>
0.0549722813479598

> <i_epik_Tot_Q>
1

> <i_epik_Tot_abs_Q>
1

$$$$
