3nsn_ligand
                    3D
 Schrodinger Suite 2020-3.
116119  0  0  1  0            999 V2000
   35.9850    2.6440   13.2710 C   0  0  1  0  0  0
   37.4400    2.9630   13.6510 C   0  0  2  0  0  0
   37.6890    4.3940   13.4050 N   0  0  0  0  0  0
   37.7810    5.3260   14.3750 C   0  0  0  0  0  0
   37.9820    6.5250   14.1590 O   0  0  0  0  0  0
   37.6120    4.8310   15.8020 C   0  0  0  0  0  0
   38.4290    2.1210   12.8210 C   0  0  1  0  0  0
   39.7680    2.2530   13.3470 O   0  0  0  0  0  0
   38.0470    0.6260   12.7630 C   0  0  2  0  0  0
   38.8480    0.0420   11.7290 O   0  0  0  0  0  0
   36.5520    0.4830   12.4340 C   0  0  2  0  0  0
   35.7590    1.2360   13.3660 O   0  0  0  0  0  0
   36.0990   -0.9650   12.5820 C   0  0  0  0  0  0
   34.8110   -1.1020   12.0000 O   0  0  0  0  0  0
   31.0540    4.1730   14.6930 C   0  0  1  0  0  0
   31.3750    2.7020   14.5150 C   0  0  2  0  0  0
   30.6630    1.9200   15.5410 N   0  0  0  0  0  0
   29.5660    1.1990   15.2590 C   0  0  0  0  0  0
   29.0610    1.1150   14.1390 O   0  0  0  0  0  0
   28.9570    0.4550   16.4560 C   0  0  0  0  0  0
   32.8820    2.4440   14.6310 C   0  0  1  0  0  0
   33.1420    1.0820   14.2590 O   0  0  0  0  0  0
   33.7160    3.3750   13.7290 C   0  0  2  0  0  0
   35.0900    3.3380   14.1740 O   0  0  0  0  0  0
   33.2120    4.8270   13.7830 C   0  0  2  0  0  0
   31.7650    4.9190   13.6970 O   0  0  0  0  0  0
   33.7690    5.5840   12.5810 C   0  0  0  0  0  0
   34.1450    6.8880   13.0020 O   0  0  0  0  0  0
   27.9930    8.0450   16.0110 C   0  0  1  0  0  0
   26.9210    8.5050   16.8530 O   0  0  0  0  0  0
   29.0920    7.3370   16.8850 C   0  0  2  0  0  0
   30.2920    8.2070   16.8850 N   0  0  0  0  0  0
   31.2640    8.1770   17.8210 C   0  0  0  0  0  0
   31.2920    7.4130   18.7870 O   0  0  0  0  0  0
   32.3900    9.1880   17.5990 C   0  0  0  0  0  0
   29.4840    5.8560   16.4890 C   0  0  1  0  0  0
   29.1590    4.9680   17.5770 O   0  0  0  0  0  0
   28.8330    5.3350   15.1820 C   0  0  2  0  0  0
   29.6420    4.3370   14.4500 O   0  0  0  0  0  0
   28.4830    6.5180   14.2880 C   0  0  2  0  0  0
   27.4360    7.2330   14.9430 O   0  0  0  0  0  0
   28.0510    6.0500   12.9000 C   0  0  0  0  0  0
   29.1920    6.1280   12.0460 O   0  0  0  0  0  0
   39.2880   -1.3360   11.9010 C   0  0  1  0  0  0
   40.2860   -1.6910   10.7400 C   0  0  2  0  0  0
   40.2100   -3.1160   10.2670 N   0  3  0  0  0  0
   41.7390   -1.1950   11.0580 C   0  0  1  0  0  0
   42.2240   -0.3680    9.9830 O   0  0  0  0  0  0
   41.8210   -0.4130   12.3710 C   0  0  2  0  0  0
   43.1980   -0.1200   12.6430 O   0  0  0  0  0  0
   41.2170   -1.2510   13.5070 C   0  0  2  0  0  0
   39.8250   -1.6150   13.2390 O   0  0  0  0  0  0
   41.2770   -0.5020   14.8350 C   0  0  0  0  0  0
   40.8730   -1.3900   15.8850 O   0  0  0  0  0  0
   38.9190   -3.3920    9.6250 C   0  0  0  0  0  0
   40.3760   -4.1200   11.3310 C   0  0  0  0  0  0
   41.2380   -3.3960    9.2470 C   0  0  0  0  0  0
   35.7354    2.9392   12.2412 H   0  0  0  0  0  0
   37.5995    2.7646   14.7211 H   0  0  0  0  0  0
   37.8130    4.7617   12.3757 H   0  0  0  0  0  0
   37.4428    3.7441   15.7954 H   0  0  0  0  0  0
   36.7498    5.3335   16.2647 H   0  0  0  0  0  0
   38.5211    5.0571   16.3786 H   0  0  0  0  0  0
   38.4542    2.5306   11.8004 H   0  0  0  0  0  0
   40.2174    3.2503   13.4633 H   0  0  0  0  0  0
   38.2690    0.0796   13.6915 H   0  0  0  0  0  0
   36.3734    0.8789   11.4234 H   0  0  0  0  0  0
   36.8126   -1.6266   12.0691 H   0  0  0  0  0  0
   36.0563   -1.2286   13.6491 H   0  0  0  0  0  0
   34.3064   -2.0794   12.0048 H   0  0  0  0  0  0
   31.3201    4.5659   15.6854 H   0  0  0  0  0  0
   31.0196    2.3789   13.5254 H   0  0  0  0  0  0
   31.0271    1.9140   16.5790 H   0  0  0  0  0  0
   29.5532    0.6604   17.3573 H   0  0  0  0  0  0
   28.9577   -0.6264   16.2545 H   0  0  0  0  0  0
   27.9238    0.7980   16.6138 H   0  0  0  0  0  0
   33.1931    2.5743   15.6780 H   0  0  0  0  0  0
   32.6379    0.2610   14.7900 H   0  0  0  0  0  0
   33.6893    3.0159   12.6896 H   0  0  0  0  0  0
   33.4912    5.2631   14.7535 H   0  0  0  0  0  0
   34.6460    5.0503   12.1859 H   0  0  0  0  0  0
   32.9975    5.6503   11.7998 H   0  0  0  0  0  0
   34.5727    7.5976   12.2784 H   0  0  0  0  0  0
   28.4246    8.9083   15.4833 H   0  0  0  0  0  0
   27.1397    9.1395   17.7245 H   0  0  0  0  0  0
   28.6949    7.2589   17.9079 H   0  0  0  0  0  0
   30.4374    8.9435   16.0810 H   0  0  0  0  0  0
   32.1834    9.7733   16.6908 H   0  0  0  0  0  0
   33.3445    8.6539   17.4818 H   0  0  0  0  0  0
   32.4519    9.8639   18.4647 H   0  0  0  0  0  0
   30.5734    5.7987   16.3480 H   0  0  0  0  0  0
   29.5358    5.1773   18.5891 H   0  0  0  0  0  0
   27.9310    4.7613   15.4412 H   0  0  0  0  0  0
   29.3248    7.2159   14.1680 H   0  0  0  0  0  0
   27.6858    5.0141   12.9595 H   0  0  0  0  0  0
   27.2468    6.7014   12.5272 H   0  0  0  0  0  0
   29.1088    5.8355   10.9889 H   0  0  0  0  0  0
   38.3782   -1.9542   11.8968 H   0  0  0  0  0  0
   39.9439   -1.1729    9.8320 H   0  0  0  0  0  0
   42.4230   -2.0543   11.1198 H   0  0  0  0  0  0
   42.2434   -0.7581    8.9547 H   0  0  0  0  0  0
   41.3140    0.5607   12.3013 H   0  0  0  0  0  0
   43.7854    0.4747   11.9280 H   0  0  0  0  0  0
   41.7788   -2.1949   13.5657 H   0  0  0  0  0  0
   42.3056   -0.1560   15.0147 H   0  0  0  0  0  0
   40.6000    0.3642   14.7984 H   0  0  0  0  0  0
   40.8490   -1.0357   16.9261 H   0  0  0  0  0  0
   38.1055   -3.2004   10.3402 H   0  0  0  0  0  0
   38.8860   -4.4440    9.3052 H   0  0  0  0  0  0
   38.7982   -2.7384    8.7485 H   0  0  0  0  0  0
   39.6260   -3.9485   12.1172 H   0  0  0  0  0  0
   41.3846   -4.0346   11.7615 H   0  0  0  0  0  0
   40.2414   -5.1269   10.9092 H   0  0  0  0  0  0
   41.1508   -2.6662    8.4286 H   0  0  0  0  0  0
   41.0933   -4.4115    8.8497 H   0  0  0  0  0  0
   42.2365   -3.3192    9.7021 H   0  0  0  0  0  0
  1  2  1  0  0  0
  1 12  1  0  0  0
  1 24  1  0  0  0
  1 58  1  0  0  0
  2  3  1  0  0  0
  2  7  1  0  0  0
  2 59  1  0  0  0
  3  4  1  0  0  0
  3 60  1  0  0  0
  4  5  2  0  0  0
  4  6  1  0  0  0
  6 61  1  0  0  0
  6 62  1  0  0  0
  6 63  1  0  0  0
  7  8  1  0  0  0
  7  9  1  0  0  0
  7 64  1  0  0  0
  8 65  1  0  0  0
  9 10  1  0  0  0
  9 11  1  0  0  0
  9 66  1  0  0  0
 10 44  1  0  0  0
 11 12  1  0  0  0
 11 13  1  0  0  0
 11 67  1  0  0  0
 13 14  1  0  0  0
 13 68  1  0  0  0
 13 69  1  0  0  0
 14 70  1  0  0  0
 15 16  1  0  0  0
 15 26  1  0  0  0
 15 39  1  0  0  0
 15 71  1  0  0  0
 16 17  1  0  0  0
 16 21  1  0  0  0
 16 72  1  0  0  0
 17 18  1  0  0  0
 17 73  1  0  0  0
 18 19  2  0  0  0
 18 20  1  0  0  0
 20 74  1  0  0  0
 20 75  1  0  0  0
 20 76  1  0  0  0
 21 22  1  0  0  0
 21 23  1  0  0  0
 21 77  1  0  0  0
 22 78  1  0  0  0
 23 24  1  0  0  0
 23 25  1  0  0  0
 23 79  1  0  0  0
 25 26  1  0  0  0
 25 27  1  0  0  0
 25 80  1  0  0  0
 27 28  1  0  0  0
 27 81  1  0  0  0
 27 82  1  0  0  0
 28 83  1  0  0  0
 29 30  1  0  0  0
 29 31  1  0  0  0
 29 41  1  0  0  0
 29 84  1  0  0  0
 30 85  1  0  0  0
 31 32  1  0  0  0
 31 36  1  0  0  0
 31 86  1  0  0  0
 32 33  1  0  0  0
 32 87  1  0  0  0
 33 34  2  0  0  0
 33 35  1  0  0  0
 35 88  1  0  0  0
 35 89  1  0  0  0
 35 90  1  0  0  0
 36 37  1  0  0  0
 36 38  1  0  0  0
 36 91  1  0  0  0
 37 92  1  0  0  0
 38 39  1  0  0  0
 38 40  1  0  0  0
 38 93  1  0  0  0
 40 41  1  0  0  0
 40 42  1  0  0  0
 40 94  1  0  0  0
 42 43  1  0  0  0
 42 95  1  0  0  0
 42 96  1  0  0  0
 43 97  1  0  0  0
 44 45  1  0  0  0
 44 52  1  0  0  0
 44 98  1  0  0  0
 45 46  1  0  0  0
 45 47  1  0  0  0
 45 99  1  0  0  0
 46 55  1  0  0  0
 46 56  1  0  0  0
 46 57  1  0  0  0
 47 48  1  0  0  0
 47 49  1  0  0  0
 47100  1  0  0  0
 48101  1  0  0  0
 49 50  1  0  0  0
 49 51  1  0  0  0
 49102  1  0  0  0
 50103  1  0  0  0
 51 52  1  0  0  0
 51 53  1  0  0  0
 51104  1  0  0  0
 53 54  1  0  0  0
 53105  1  0  0  0
 53106  1  0  0  0
 54107  1  0  0  0
 55108  1  0  0  0
 55109  1  0  0  0
 55110  1  0  0  0
 56111  1  0  0  0
 56112  1  0  0  0
 56113  1  0  0  0
 57114  1  0  0  0
 57115  1  0  0  0
 57116  1  0  0  0
M  CHG  1  46   1
M  END
> <s_m_source_file>
../3nsn_ligand.sdf

> <i_m_source_file_index>
1

> <s_epik_input>
W09IXVtDSDJdW0NAQEhdKE8xKVtDQEBIXShbT0hdKVtDQEhdKFtPSF0pW0NAQEhdKFtOK10oW0NIM10pKFtDSDNdKVtDSDNdKVtDQEBIXTFPW0NASF0oW0NASF0oTzIpW0NIMl1bT0hdKVtDQEhdKFtPSF0pW0NAQEhdKFtOSF1DKD1PKVtDSDNdKVtDQEBIXTJPW0NASF0oW0NASF0oTzMpW0NIMl1bT0hdKVtDQEhdKFtPSF0pW0NAQEhdKFtOSF1DKD1PKVtDSDNdKVtDQEBIXTNPW0NASF0oW0NASF0oTzQpW0NIMl1bT0hdKVtDQEhdKFtPSF0pW0NASF0oW0NAQEhdNFtPSF0pW05IXUMoPU8pW0NIM10=

> <s_epik_cmdline>
J2VwaWtfYXBwJywgJy1pbWFlJywgJ2xpZ2FuZF9wcm8ubWFlJywgJy1vbWFlJywgJ2xpZ2FuZF9wcmVwLm1hZScsICctbXMnLCAnMScsICctcGgnLCAnNycsICctcGh0JywgJzAuNScsICctbnQn

> <r_lp_tautomer_probability>
1

> <r_epik_Ionization_Penalty>
  0.0008

> <r_epik_Ionization_Penalty_Charging>
  0.0000

> <r_epik_Ionization_Penalty_Neutral>
  0.0008

> <r_epik_State_Penalty>
 -0.0000

> <r_epik_Charging_Adjusted_Penalty>
0

> <i_epik_Tot_Q>
1

> <i_epik_Tot_abs_Q>
1

> <s_epik_Chemistry_Notes>
This compound contains an acetal/aminal-like group ( X-CH(R)-Y where X, Y are N, S, or O) that may be acid/base labile, releasing an aldehyde.

$$$$
