3nsq_ligand
                    3D
 Schrodinger Suite 2020-3.
 26 28  0  0  1  0            999 V2000
   52.7090  -16.0920    6.9920 O   0  0  0  0  0  0
   53.5360  -16.4780    7.8160 C   0  0  0  0  0  0
   54.4960  -17.4180    7.4590 C   0  0  0  0  0  0
   54.5290  -17.9290    6.1670 C   0  0  0  0  0  0
   55.4900  -18.8710    5.8160 C   0  0  0  0  0  0
   56.4200  -19.3000    6.7550 C   0  0  0  0  0  0
   56.3840  -18.7840    8.0450 C   0  0  0  0  0  0
   57.2860  -19.1940    8.9700 O   0  0  0  0  0  0
   55.4260  -17.8460    8.3970 C   0  0  0  0  0  0
   55.4010  -17.3390    9.6910 C   0  0  0  0  0  0
   56.2260  -17.7200   10.5220 O   0  0  0  0  0  0
   54.4400  -16.3990   10.0450 C   0  0  0  0  0  0
   53.5100  -15.9690    9.1070 C   0  0  0  0  0  0
   52.5480  -15.0310    9.4560 C   0  0  0  0  0  0
   52.5200  -14.5230   10.7460 C   0  0  0  0  0  0
   53.4500  -14.9500   11.6860 C   0  0  0  0  0  0
   54.4120  -15.8890   11.3360 C   0  0  0  0  0  0
   55.3250  -16.3080   12.2540 O   0  0  0  0  0  0
   53.8016  -17.5914    5.4287 H   0  0  0  0  0  0
   55.5137  -19.2732    4.8032 H   0  0  0  0  0  0
   57.1742  -20.0377    6.4812 H   0  0  0  0  0  0
   58.0503  -19.9379    8.7009 H   0  0  0  0  0  0
   51.8180  -14.6953    8.7194 H   0  0  0  0  0  0
   51.7660  -13.7864   11.0235 H   0  0  0  0  0  0
   53.4247  -14.5478   12.6988 H   0  0  0  0  0  0
   56.0854  -17.0517   11.9736 H   0  0  0  0  0  0
  1  2  2  0  0  0
  2  3  1  0  0  0
  2 13  1  0  0  0
  3  4  2  0  0  0
  3  9  1  0  0  0
  4  5  1  0  0  0
  4 19  1  0  0  0
  5  6  2  0  0  0
  5 20  1  0  0  0
  6  7  1  0  0  0
  6 21  1  0  0  0
  7  8  1  0  0  0
  7  9  2  0  0  0
  8 22  1  0  0  0
  9 10  1  0  0  0
 10 11  2  0  0  0
 10 12  1  0  0  0
 12 13  2  0  0  0
 12 17  1  0  0  0
 13 14  1  0  0  0
 14 15  2  0  0  0
 14 23  1  0  0  0
 15 16  1  0  0  0
 15 24  1  0  0  0
 16 17  2  0  0  0
 16 25  1  0  0  0
 17 18  1  0  0  0
 18 26  1  0  0  0
M  END
> <s_m_source_file>
../3nsq_ligand.sdf

> <i_m_source_file_index>
1

> <s_epik_input>
W09IXWMxW2NIXVtjSF1bY0hdYyhDMj1PKWMxQyg9TyljKGMyMyljKFtPSF0pW2NIXVtjSF1bY0hdMw==

> <s_epik_cmdline>
J2VwaWtfYXBwJywgJy1pbWFlJywgJ2xpZ2FuZF9wcm8ubWFlJywgJy1vbWFlJywgJ2xpZ2FuZF9wcmVwLm1hZScsICctbXMnLCAnMScsICctcGgnLCAnNycsICctcGh0JywgJzAuNScsICctbnQn

> <r_lp_tautomer_probability>
1

> <r_epik_Ionization_Penalty>
  0.0024

> <r_epik_Ionization_Penalty_Charging>
  0.0000

> <r_epik_Ionization_Penalty_Neutral>
  0.0024

> <r_epik_State_Penalty>
 -0.0000

> <r_epik_Charging_Adjusted_Penalty>
0

> <i_epik_Tot_Q>
0

> <i_epik_Tot_abs_Q>
0

$$$$
