3nth_ligand
                    3D
 Schrodinger Suite 2020-3.
107106  0  0  1  0            999 V2000
   24.1690  -12.0500   -2.0990 N   0  3  0  0  0  0
   23.9560  -12.5530   -0.7010 C   0  0  2  0  0  0
   22.9260  -11.7020   -0.0030 C   0  0  0  0  0  0
   22.2100  -10.9490   -0.6490 O   0  0  0  0  0  0
   25.2530  -12.5100    0.0910 C   0  0  0  0  0  0
   22.8770  -11.7750    1.3290 N   0  0  0  0  0  0
   21.8840  -10.9810    2.0090 C   0  0  2  0  0  0
   22.0220  -10.6930    3.4890 C   0  0  0  0  0  0
   21.6890  -11.5230    4.3390 O   0  0  0  0  0  0
   20.5140  -11.5790    1.7510 C   0  0  0  0  0  0
   19.4780  -10.5290    1.4570 C   0  0  0  0  0  0
   20.1020   -9.1760    1.2160 C   0  0  0  0  0  0
   19.4410   -8.4560    0.1320 N   0  0  0  0  0  0
   19.9210   -7.3490   -0.4290 C   0  0  0  0  0  0
   21.0680   -6.8300   -0.0010 N   0  0  0  0  0  0
   19.2700   -6.7770   -1.4370 N   0  3  0  0  0  0
   22.4810   -9.4790    3.7810 N   0  0  0  0  0  0
   22.6450   -9.0560    5.1520 C   0  0  0  0  0  0
   23.5730  -10.0210    5.8310 C   0  0  0  0  0  0
   23.3230  -10.4350    6.9590 O   0  0  0  0  0  0
   24.6530  -10.3730    5.1390 N   0  0  0  0  0  0
   25.6200  -11.3080    5.6840 C   0  0  1  0  0  0
   26.0620  -12.2900    4.6010 C   0  0  0  0  0  0
   25.1530  -13.5090    4.4530 C   0  0  0  0  0  0
   25.2290  -14.4440    5.6650 C   0  0  0  0  0  0
   24.4040  -15.6450    5.5020 N   0  0  2  0  0  0
   24.1850  -16.5530    6.4550 C   0  0  1  0  0  0
   24.7280  -16.4010    7.6500 N   0  3  2  0  0  0
   24.0910  -16.9970    8.8280 C   0  0  0  0  0  0
   23.4200  -17.6210    6.2240 N   0  0  2  0  0  0
   22.8770  -17.9080    4.8820 C   0  0  0  0  0  0
   26.8380  -10.6930    6.3800 C   0  0  0  0  0  0
   26.8990  -10.6780    7.6070 O   0  0  0  0  0  0
   27.8150  -10.1940    5.6350 N   0  0  0  0  0  0
   28.9640   -9.6380    6.3220 C   0  0  0  0  0  0
   30.0600   -9.0330    5.4790 C   0  0  0  0  0  0
   30.4210   -9.5660    4.4280 O   0  0  0  0  0  0
   30.5930   -7.9130    5.9640 N   0  0  0  0  0  0
   31.6640   -7.1840    5.2880 C   0  0  2  0  0  0
   32.6510   -6.6230    6.3090 C   0  0  0  0  0  0
   32.8650   -5.3940    6.2960 O   0  0  0  0  0  0
   31.0780   -6.0320    4.4690 C   0  0  0  0  0  0
   31.5820   -5.9630    3.0400 C   0  0  0  0  0  0
   31.1690   -7.1980    2.2550 C   0  0  0  0  0  0
   29.7400   -7.4800    2.3850 N   0  0  0  0  0  0
   28.7700   -6.6560    2.0000 C   0  0  0  0  0  0
   29.0660   -5.4850    1.4540 N   0  3  0  0  0  0
   27.4990   -7.0010    2.1660 N   0  0  0  0  0  0
   33.1980   -7.4120    7.1090 O   0  5  0  0  0  0
   23.2189  -12.0903   -2.6519 H   0  0  0  0  0  0
   24.9151  -12.6798   -2.6056 H   0  0  0  0  0  0
   24.5291  -11.0112   -2.0640 H   0  0  0  0  0  0
   23.5992  -13.5913   -0.7694 H   0  0  0  0  0  0
   26.0105  -13.1290   -0.4121 H   0  0  0  0  0  0
   25.0765  -12.8984    1.1049 H   0  0  0  0  0  0
   25.6104  -11.4715    0.1532 H   0  0  0  0  0  0
   23.5616  -12.4129    1.9073 H   0  0  0  0  0  0
   22.0938  -10.0117    1.5331 H   0  0  0  0  0  0
   20.5667  -12.2566    0.8861 H   0  0  0  0  0  0
   20.1864  -12.1413    2.6379 H   0  0  0  0  0  0
   18.9129  -10.8133    0.5571 H   0  0  0  0  0  0
   18.7895  -10.4440    2.3107 H   0  0  0  0  0  0
   20.0247   -8.5686    2.1298 H   0  0  0  0  0  0
   21.1614   -9.3032    0.9488 H   0  0  0  0  0  0
   18.4854   -8.8236   -0.2700 H   0  0  0  0  0  0
   21.6080   -7.3021    0.8330 H   0  0  0  0  0  0
   21.4768   -5.9286   -0.4809 H   0  0  0  0  0  0
   18.3210   -7.2050   -1.7923 H   0  0  0  0  0  0
   22.7370   -8.7936    2.9596 H   0  0  0  0  0  0
   23.0706   -8.0419    5.1744 H   0  0  0  0  0  0
   21.6666   -9.0542    5.6547 H   0  0  0  0  0  0
   24.8071   -9.9432    4.1383 H   0  0  0  0  0  0
   25.0304  -11.7913    6.4770 H   0  0  0  0  0  0
   26.0780  -11.7789    3.6271 H   0  0  0  0  0  0
   27.0694  -12.6649    4.8349 H   0  0  0  0  0  0
   24.1098  -13.1774    4.3443 H   0  0  0  0  0  0
   25.4502  -14.0821    3.5624 H   0  0  0  0  0  0
   26.2699  -14.7667    5.8145 H   0  0  0  0  0  0
   24.8778  -13.9117    6.5613 H   0  0  0  0  0  0
   23.3763  -15.3513    5.2420 H   0  0  0  0  0  0
   25.0711  -17.1144    6.1238 H   0  0  0  0  0  0
   25.7403  -16.8314    7.6502 H   0  0  0  0  0  0
   24.6855  -16.7638    9.7237 H   0  0  0  0  0  0
   24.0325  -18.0880    8.7006 H   0  0  0  0  0  0
   23.0771  -16.5864    8.9437 H   0  0  0  0  0  0
   23.9830  -18.5345    6.4658 H   0  0  0  0  0  0
   22.2785  -18.8302    4.9182 H   0  0  0  0  0  0
   23.7062  -18.0366    4.1708 H   0  0  0  0  0  0
   22.2416  -17.0710    4.5569 H   0  0  0  0  0  0
   27.7770  -10.1911    4.5357 H   0  0  0  0  0  0
   28.6350   -8.8296    6.9916 H   0  0  0  0  0  0
   29.4550  -10.4258    6.9121 H   0  0  0  0  0  0
   30.1913   -7.5407    6.9180 H   0  0  0  0  0  0
   32.1622   -7.9157    4.6351 H   0  0  0  0  0  0
   29.9841   -6.1364    4.4198 H   0  0  0  0  0  0
   31.3338   -5.0749    4.9471 H   0  0  0  0  0  0
   31.1621   -5.0746    2.5456 H   0  0  0  0  0  0
   32.6800   -5.8973    3.0412 H   0  0  0  0  0  0
   31.3926   -7.0464    1.1887 H   0  0  0  0  0  0
   31.7256   -8.0713    2.6258 H   0  0  0  0  0  0
   29.4048   -8.4298    2.8273 H   0  0  0  0  0  0
   30.1174   -5.1935    1.3139 H   0  0  0  0  0  0
   27.2471   -7.9715    2.6185 H   0  0  0  0  0  0
   26.6976   -6.3164    1.8510 H   0  0  0  0  0  0
   24.7850  -15.3298    7.8933 H   0  0  0  0  0  0
   19.6803   -5.8757   -1.9158 H   0  0  0  0  0  0
   28.2603   -4.8047    1.1410 H   0  0  0  0  0  0
  1  2  1  0  0  0
  1 50  1  0  0  0
  1 51  1  0  0  0
  1 52  1  0  0  0
  2  3  1  0  0  0
  2  5  1  0  0  0
  2 53  1  0  0  0
  3  4  2  0  0  0
  3  6  1  0  0  0
  5 54  1  0  0  0
  5 55  1  0  0  0
  5 56  1  0  0  0
  6  7  1  0  0  0
  6 57  1  0  0  0
  7  8  1  0  0  0
  7 10  1  0  0  0
  7 58  1  0  0  0
  8  9  2  0  0  0
  8 17  1  0  0  0
 10 11  1  0  0  0
 10 59  1  0  0  0
 10 60  1  0  0  0
 11 12  1  0  0  0
 11 61  1  0  0  0
 11 62  1  0  0  0
 12 13  1  0  0  0
 12 63  1  0  0  0
 12 64  1  0  0  0
 13 14  1  0  0  0
 13 65  1  0  0  0
 14 15  1  0  0  0
 14 16  2  0  0  0
 15 66  1  0  0  0
 15 67  1  0  0  0
 16 68  1  0  0  0
 16106  1  0  0  0
 17 18  1  0  0  0
 17 69  1  0  0  0
 18 19  1  0  0  0
 18 70  1  0  0  0
 18 71  1  0  0  0
 19 20  2  0  0  0
 19 21  1  0  0  0
 21 22  1  0  0  0
 21 72  1  0  0  0
 22 23  1  0  0  0
 22 32  1  0  0  0
 22 73  1  0  0  0
 23 24  1  0  0  0
 23 74  1  0  0  0
 23 75  1  0  0  0
 24 25  1  0  0  0
 24 76  1  0  0  0
 24 77  1  0  0  0
 25 26  1  0  0  0
 25 78  1  0  0  0
 25 79  1  0  0  0
 26 27  1  0  0  0
 26 80  1  0  0  0
 27 28  1  0  0  0
 27 30  1  0  0  0
 27 81  1  0  0  0
 28 29  1  0  0  0
 28 82  1  0  0  0
 28105  1  0  0  0
 29 83  1  0  0  0
 29 84  1  0  0  0
 29 85  1  0  0  0
 30 31  1  0  0  0
 30 86  1  0  0  0
 31 87  1  0  0  0
 31 88  1  0  0  0
 31 89  1  0  0  0
 32 33  2  0  0  0
 32 34  1  0  0  0
 34 35  1  0  0  0
 34 90  1  0  0  0
 35 36  1  0  0  0
 35 91  1  0  0  0
 35 92  1  0  0  0
 36 37  2  0  0  0
 36 38  1  0  0  0
 38 39  1  0  0  0
 38 93  1  0  0  0
 39 40  1  0  0  0
 39 42  1  0  0  0
 39 94  1  0  0  0
 40 41  2  0  0  0
 40 49  1  0  0  0
 42 43  1  0  0  0
 42 95  1  0  0  0
 42 96  1  0  0  0
 43 44  1  0  0  0
 43 97  1  0  0  0
 43 98  1  0  0  0
 44 45  1  0  0  0
 44 99  1  0  0  0
 44100  1  0  0  0
 45 46  1  0  0  0
 45101  1  0  0  0
 46 47  2  0  0  0
 46 48  1  0  0  0
 47102  1  0  0  0
 47107  1  0  0  0
 48103  1  0  0  0
 48104  1  0  0  0
M  CHG  5   1   1  16   1  28   1  47   1  49  -1
M  END
> <s_m_source_file>
../3nth_ligand.sdf

> <i_m_source_file_index>
1

> <s_epik_input>
W0hdL049QyhbTkgyXSlcW05IXVtDSDJdW0NIMl1bQ0gyXVtDQEhdKFtOSF1DKD1PKVtDQEBIXShbTkgzK10pW0NIM10pQyg9TylbTkhdW0NIMl1DKD1PKVtOSF1bQ0BASF0oW0NIMl1bQ0gyXVtDSDJdW05IXVtDSF0oW05IXVtDSDNdKVtOSF1bQ0gzXSlDKD1PKVtOSF1bQ0gyXUMoPU8pW05IXVtDQEhdKEMoPU8pW09IXSlbQ0gyXVtDSDJdW0NIMl1bTkhdL0MoPU5cW0hdKVtOSDJd

> <s_epik_cmdline>
J2VwaWtfYXBwJywgJy1pbWFlJywgJ2xpZ2FuZF9wcm8ubWFlJywgJy1vbWFlJywgJ2xpZ2FuZF9wcmVwLm1hZScsICctbXMnLCAnMScsICctcGgnLCAnNycsICctcGh0JywgJzAuNScsICctbnQn

> <r_epik_Ionization_Penalty>
  0.1252

> <r_epik_Ionization_Penalty_Charging>
  0.1252

> <r_epik_Ionization_Penalty_Neutral>
  0.0000

> <r_epik_State_Penalty>
  0.1937

> <r_epik_Charging_Adjusted_Penalty>
0.318892196643243

> <i_epik_Tot_Q>
3

> <i_epik_Tot_abs_Q>
5

> <s_epik_Chemistry_Notes>
This compound has an imine and may undergo hydrolysis. This compound contains an acetal/aminal-like group ( X-CH(R)-Y where X, Y are N, S, or O) that may be acid/base labile, releasing an aldehyde.

$$$$
