3nti_ligand
                    3D
 Schrodinger Suite 2020-3.
114113  0  0  1  0            999 V2000
    6.6750    0.8040   -1.2920 N   0  3  0  0  0  0
    7.4230   -0.2220   -0.4880 C   0  0  2  0  0  0
    8.2860   -1.1400   -1.3330 C   0  0  0  0  0  0
    8.4260   -0.9230   -2.5300 O   0  0  0  0  0  0
    6.4470   -1.1030    0.2870 C   0  0  0  0  0  0
    5.2660   -1.7140   -0.5050 C   0  0  0  0  0  0
    4.5740   -2.6940    0.4500 C   0  0  0  0  0  0
    3.1990   -3.0390    0.0950 N   0  0  0  0  0  0
    2.4160   -3.8140    0.8450 C   0  0  0  0  0  0
    2.8790   -4.3130    1.9790 N   0  3  0  0  0  0
    1.1750   -4.1040    0.4690 N   0  0  0  0  0  0
    8.8370   -2.1840   -0.7180 N   0  0  0  0  0  0
    9.6170   -3.1230   -1.4870 C   0  0  0  0  0  0
   11.0990   -3.0560   -1.2850 C   0  0  0  0  0  0
   11.6260   -3.1770   -0.1760 O   0  0  0  0  0  0
   11.7690   -2.8170   -2.3940 N   0  0  0  0  0  0
   13.2020   -2.7780   -2.4000 C   0  0  2  0  0  0
   13.6660   -2.2260   -3.7300 C   0  0  0  0  0  0
   13.0520   -2.4920   -4.7520 O   0  0  0  0  0  0
   13.7050   -4.2000   -2.2380 C   0  0  0  0  0  0
   14.1190   -4.5620   -0.8560 C   0  0  0  0  0  0
   15.2150   -3.6220   -0.4940 C   0  0  0  0  0  0
   16.1220   -4.1550    0.5070 N   0  0  0  0  0  0
   17.3000   -3.6090    0.7840 C   0  0  0  0  0  0
   17.7040   -2.5240    0.1330 N   0  0  0  0  0  0
   18.0720   -4.1450    1.7100 N   0  3  0  0  0  0
   14.7720   -1.4980   -3.7270 N   0  0  0  0  0  0
   15.2570   -0.9370   -4.9650 C   0  0  0  0  0  0
   14.2070    0.0120   -5.4880 C   0  0  0  0  0  0
   13.9010    0.0250   -6.6790 O   0  0  0  0  0  0
   13.6090    0.7900   -4.5960 N   0  0  0  0  0  0
   12.6210    1.7500   -5.0510 C   0  0  1  0  0  0
   11.6810    2.1770   -3.9220 C   0  0  0  0  0  0
   10.4040    1.3490   -3.8590 C   0  0  0  0  0  0
    9.6940    1.3480   -5.2250 C   0  0  0  0  0  0
    8.4610    0.5710   -5.2350 N   0  0  2  0  0  0
    7.6330    0.4840   -6.2590 C   0  0  3  0  0  0
    7.9120    1.1290   -7.3860 N   0  3  2  0  0  0
    7.3350    0.5970   -8.5820 C   0  0  0  0  0  0
    6.5130   -0.2410   -6.1170 N   0  0  2  0  0  0
    6.1400   -0.8220   -4.8070 C   0  0  0  0  0  0
   13.4480    2.9190   -5.5520 C   0  0  0  0  0  0
   13.2800    3.3900   -6.6690 O   0  0  0  0  0  0
   14.3850    3.3660   -4.7400 N   0  0  0  0  0  0
   15.2150    4.4650   -5.1830 C   0  0  0  0  0  0
   14.5980    5.8460   -5.0540 C   0  0  0  0  0  0
   13.8340    6.2920   -5.9090 O   0  0  0  0  0  0
   14.9450    6.5330   -3.9720 N   0  0  0  0  0  0
   14.4480    7.8830   -3.7180 C   0  0  2  0  0  0
   14.9000    8.3110   -2.3260 C   0  0  0  0  0  0
   15.5766    7.4963   -1.6434 O   0  0  0  0  0  0
   12.9150    7.9250   -3.8130 C   0  0  0  0  0  0
   14.6050    9.4483   -1.8709 O   0  5  0  0  0  0
    7.3911    1.4304   -1.8442 H   0  0  0  0  0  0
    6.0795    1.4360   -0.6168 H   0  0  0  0  0  0
    6.0070    0.2965   -2.0035 H   0  0  0  0  0  0
    8.0761    0.3644    0.1750 H   0  0  0  0  0  0
    6.9876   -1.9593    0.7165 H   0  0  0  0  0  0
    5.9868   -0.5167    1.0960 H   0  0  0  0  0  0
    4.5797   -0.9127   -0.8162 H   0  0  0  0  0  0
    5.6510   -2.2332   -1.3950 H   0  0  0  0  0  0
    5.1375   -3.6383    0.4780 H   0  0  0  0  0  0
    4.5379   -2.2585    1.4595 H   0  0  0  0  0  0
    2.7580   -2.6532   -0.8359 H   0  0  0  0  0  0
    3.9043   -4.0819    2.3036 H   0  0  0  0  0  0
    0.7758   -3.6965   -0.4715 H   0  0  0  0  0  0
    0.5468   -4.7516    1.0983 H   0  0  0  0  0  0
    8.7035   -2.3354    0.3633 H   0  0  0  0  0  0
    9.3168   -4.1488   -1.2269 H   0  0  0  0  0  0
    9.4443   -2.9513   -2.5597 H   0  0  0  0  0  0
   11.2102   -2.6458   -3.3259 H   0  0  0  0  0  0
   13.5333   -2.1317   -1.5738 H   0  0  0  0  0  0
   12.9110   -4.9048   -2.5257 H   0  0  0  0  0  0
   14.5831   -4.3540   -2.8824 H   0  0  0  0  0  0
   13.2615   -4.4522   -0.1758 H   0  0  0  0  0  0
   14.4691   -5.6047   -0.8393 H   0  0  0  0  0  0
   15.8098   -3.3899   -1.3897 H   0  0  0  0  0  0
   14.7838   -2.6943   -0.0897 H   0  0  0  0  0  0
   15.8446   -5.0534    1.0779 H   0  0  0  0  0  0
   17.0622   -2.0752   -0.6395 H   0  0  0  0  0  0
   18.6804   -2.0742    0.3663 H   0  0  0  0  0  0
   17.7397   -5.0435    2.2506 H   0  0  0  0  0  0
   15.3203   -1.3196   -2.7902 H   0  0  0  0  0  0
   16.1981   -0.3985   -4.7797 H   0  0  0  0  0  0
   15.4338   -1.7455   -5.6896 H   0  0  0  0  0  0
   13.8517    0.7159   -3.5257 H   0  0  0  0  0  0
   11.9922    1.2930   -5.8293 H   0  0  0  0  0  0
   12.1954    2.0683   -2.9558 H   0  0  0  0  0  0
   11.3889    3.2277   -4.0657 H   0  0  0  0  0  0
   10.6519    0.3131   -3.5844 H   0  0  0  0  0  0
    9.7268    1.7762   -3.1047 H   0  0  0  0  0  0
    9.4367    2.3801   -5.5052 H   0  0  0  0  0  0
   10.3623    0.9175   -5.9853 H   0  0  0  0  0  0
    8.6940   -0.4888   -5.0548 H   0  0  0  0  0  0
    7.0853    1.3641   -5.8909 H   0  0  0  0  0  0
    7.5531    2.1663   -7.3133 H   0  0  0  0  0  0
    7.6376    1.2139   -9.4410 H   0  0  0  0  0  0
    6.2385    0.6031   -8.4943 H   0  0  0  0  0  0
    7.6852   -0.4352   -8.7304 H   0  0  0  0  0  0
    5.6411    0.3759   -6.3800 H   0  0  0  0  0  0
    5.1944   -1.3750   -4.9071 H   0  0  0  0  0  0
    6.0166   -0.0150   -4.0698 H   0  0  0  0  0  0
    6.9319   -1.5076   -4.4711 H   0  0  0  0  0  0
   14.5434    2.9232   -3.7456 H   0  0  0  0  0  0
   16.1432    4.4845   -4.5930 H   0  0  0  0  0  0
   15.4598    4.3338   -6.2473 H   0  0  0  0  0  0
   15.6289    6.0548   -3.2554 H   0  0  0  0  0  0
   14.8808    8.5351   -4.4909 H   0  0  0  0  0  0
   12.6015    7.6145   -4.8206 H   0  0  0  0  0  0
   12.5635    8.9491   -3.6189 H   0  0  0  0  0  0
   12.4826    7.2414   -3.0675 H   0  0  0  0  0  0
    8.9998    1.1280   -7.5494 H   0  0  0  0  0  0
   19.0479   -3.6933    1.9415 H   0  0  0  0  0  0
    2.2388   -4.9591    2.5976 H   0  0  0  0  0  0
  1  2  1  0  0  0
  1 54  1  0  0  0
  1 55  1  0  0  0
  1 56  1  0  0  0
  2  3  1  0  0  0
  2  5  1  0  0  0
  2 57  1  0  0  0
  3  4  2  0  0  0
  3 12  1  0  0  0
  5  6  1  0  0  0
  5 58  1  0  0  0
  5 59  1  0  0  0
  6  7  1  0  0  0
  6 60  1  0  0  0
  6 61  1  0  0  0
  7  8  1  0  0  0
  7 62  1  0  0  0
  7 63  1  0  0  0
  8  9  1  0  0  0
  8 64  1  0  0  0
  9 10  2  0  0  0
  9 11  1  0  0  0
 10 65  1  0  0  0
 10114  1  0  0  0
 11 66  1  0  0  0
 11 67  1  0  0  0
 12 13  1  0  0  0
 12 68  1  0  0  0
 13 14  1  0  0  0
 13 69  1  0  0  0
 13 70  1  0  0  0
 14 15  2  0  0  0
 14 16  1  0  0  0
 16 17  1  0  0  0
 16 71  1  0  0  0
 17 18  1  0  0  0
 17 20  1  0  0  0
 17 72  1  0  0  0
 18 19  2  0  0  0
 18 27  1  0  0  0
 20 21  1  0  0  0
 20 73  1  0  0  0
 20 74  1  0  0  0
 21 22  1  0  0  0
 21 75  1  0  0  0
 21 76  1  0  0  0
 22 23  1  0  0  0
 22 77  1  0  0  0
 22 78  1  0  0  0
 23 24  1  0  0  0
 23 79  1  0  0  0
 24 25  1  0  0  0
 24 26  2  0  0  0
 25 80  1  0  0  0
 25 81  1  0  0  0
 26 82  1  0  0  0
 26113  1  0  0  0
 27 28  1  0  0  0
 27 83  1  0  0  0
 28 29  1  0  0  0
 28 84  1  0  0  0
 28 85  1  0  0  0
 29 30  2  0  0  0
 29 31  1  0  0  0
 31 32  1  0  0  0
 31 86  1  0  0  0
 32 33  1  0  0  0
 32 42  1  0  0  0
 32 87  1  0  0  0
 33 34  1  0  0  0
 33 88  1  0  0  0
 33 89  1  0  0  0
 34 35  1  0  0  0
 34 90  1  0  0  0
 34 91  1  0  0  0
 35 36  1  0  0  0
 35 92  1  0  0  0
 35 93  1  0  0  0
 36 37  1  0  0  0
 36 94  1  0  0  0
 37 38  1  0  0  0
 37 40  1  0  0  0
 37 95  1  0  0  0
 38 39  1  0  0  0
 38 96  1  0  0  0
 38112  1  0  0  0
 39 97  1  0  0  0
 39 98  1  0  0  0
 39 99  1  0  0  0
 40 41  1  0  0  0
 40100  1  0  0  0
 41101  1  0  0  0
 41102  1  0  0  0
 41103  1  0  0  0
 42 43  2  0  0  0
 42 44  1  0  0  0
 44 45  1  0  0  0
 44104  1  0  0  0
 45 46  1  0  0  0
 45105  1  0  0  0
 45106  1  0  0  0
 46 47  2  0  0  0
 46 48  1  0  0  0
 48 49  1  0  0  0
 48107  1  0  0  0
 49 50  1  0  0  0
 49 52  1  0  0  0
 49108  1  0  0  0
 50 51  2  0  0  0
 50 53  1  0  0  0
 52109  1  0  0  0
 52110  1  0  0  0
 52111  1  0  0  0
M  CHG  5   1   1  10   1  26   1  38   1  53  -1
M  END
> <s_m_source_file>
../3nti_ligand.sdf

> <i_m_source_file_index>
1

> <s_epik_input>
W0hdL049QyhbTkgyXSlcW05IXVtDSDJdW0NIMl1bQ0gyXVtDQEhdKFtOSDMrXSlDKD1PKVtOSF1bQ0gyXUMoPU8pW05IXVtDQEBIXShbQ0gyXVtDSDJdW0NIMl1bTkhdL0MoW05IMl0pPU5cW0hdKUMoPU8pW05IXVtDSDJdQyg9TylbTkhdW0NAQEhdKFtDSDJdW0NIMl1bQ0gyXVtOSF1bQ0hdKFtOSF1bQ0gzXSlbTkhdW0NIM10pQyg9TylbTkhdW0NIMl1DKD1PKVtOSF1bQ0BASF0oW0NIM10pQyg9TylbT0hd

> <s_epik_cmdline>
J2VwaWtfYXBwJywgJy1pbWFlJywgJ2xpZ2FuZF9wcm8ubWFlJywgJy1vbWFlJywgJ2xpZ2FuZF9wcmVwLm1hZScsICctbXMnLCAnMScsICctcGgnLCAnNycsICctcGh0JywgJzAuNScsICctbnQn

> <r_epik_Ionization_Penalty>
  0.1356

> <r_epik_Ionization_Penalty_Charging>
  0.1356

> <r_epik_Ionization_Penalty_Neutral>
  0.0000

> <r_epik_State_Penalty>
  0.2027

> <r_epik_Charging_Adjusted_Penalty>
0.338251148479528

> <i_epik_Tot_Q>
3

> <i_epik_Tot_abs_Q>
5

> <s_epik_Chemistry_Notes>
This compound has an imine and may undergo hydrolysis. This compound contains an acetal/aminal-like group ( X-CH(R)-Y where X, Y are N, S, or O) that may be acid/base labile, releasing an aldehyde.

$$$$
