3ntp_ligand
                    3D
 Schrodinger Suite 2020-3.
 58 60  0  0  1  0            999 V2000
   -6.2450   46.7980   79.9890 P   0  0  0  0  0  0
   -5.9970   40.9080   80.0760 C   0  0  1  0  0  0
   -5.4850   41.4860   81.3320 N   0  3  1  0  0  0
   -7.9590   39.7820   79.4240 O   0  0  0  0  0  0
   -4.5720   40.5280   81.9730 C   0  0  0  0  0  0
   -8.0820   41.0680   81.2650 N   0  0  0  0  0  0
   -5.8100   43.3180   85.4150 O   0  0  0  0  0  0
   -4.3250   39.3850   80.9970 C   0  0  0  0  0  0
  -11.3790   38.0530   84.3860 N   0  0  0  0  0  0
   -5.2270   39.6240   79.7950 C   0  0  0  0  0  0
   -5.1520   43.5470   83.2810 N   0  0  0  0  0  0
   -4.7950   42.7580   81.0810 C   0  0  0  0  0  0
   -7.4380   40.5390   80.2300 C   0  0  0  0  0  0
   -9.4770   40.8480   81.6320 C   0  0  0  0  0  0
   -9.4730   40.9970   83.1520 C   0  0  0  0  0  0
   -5.4820   43.8570   81.8920 C   0  0  2  0  0  0
   -4.8430   45.2160   81.6190 C   0  0  0  0  0  0
   -6.0710   43.5820   84.2460 C   0  0  0  0  0  0
   -7.4500   43.9750   83.8080 C   0  0  0  0  0  0
   -6.3510   46.8270   78.4830 O   0  5  0  0  0  0
  -10.0500   39.7710   83.8230 C   0  0  3  0  0  0
  -11.2470   39.1340   83.5470 C   0  0  0  0  0  0
  -10.2900   37.9690   85.1960 C   0  0  0  0  0  0
   -9.4160   38.9980   84.9080 C   0  0  0  0  0  0
   -8.2010   39.1760   85.5780 C   0  0  0  0  0  0
   -7.9110   38.2300   86.5820 C   0  0  0  0  0  0
   -8.8020   37.1860   86.8710 C   0  0  0  0  0  0
  -10.0080   37.0370   86.1830 C   0  0  0  0  0  0
   -5.6180   48.0430   80.5720 O   0  5  0  0  0  0
   -7.4830   46.2920   80.6850 O   0  0  0  0  0  0
   -5.1580   45.6400   80.2900 O   0  0  0  0  0  0
   -5.8854   41.6626   79.2835 H   0  0  0  0  0  0
   -6.3315   41.6908   82.0039 H   0  0  0  0  0  0
   -3.6243   41.0309   82.2157 H   0  0  0  0  0  0
   -5.0311   40.1455   82.8965 H   0  0  0  0  0  0
   -7.4512   41.7321   81.8741 H   0  0  0  0  0  0
   -3.2673   39.3828   80.6950 H   0  0  0  0  0  0
   -4.5696   38.4288   81.4826 H   0  0  0  0  0  0
   -5.9354   38.7926   79.6652 H   0  0  0  0  0  0
   -4.6329   39.7461   78.8773 H   0  0  0  0  0  0
   -4.1216   43.2755   83.5541 H   0  0  0  0  0  0
   -3.7421   42.6706   81.3872 H   0  0  0  0  0  0
   -4.8463   42.9976   80.0086 H   0  0  0  0  0  0
  -10.1090   41.6013   81.1390 H   0  0  0  0  0  0
   -9.7866   39.8426   81.3106 H   0  0  0  0  0  0
   -8.4402   41.1364   83.5040 H   0  0  0  0  0  0
  -10.0783   41.8703   83.4364 H   0  0  0  0  0  0
   -6.5633   43.8896   81.6928 H   0  0  0  0  0  0
   -5.2292   45.9538   82.3377 H   0  0  0  0  0  0
   -3.7512   45.1361   81.7265 H   0  0  0  0  0  0
   -8.1253   43.9720   84.6763 H   0  0  0  0  0  0
   -7.8145   43.2582   83.0575 H   0  0  0  0  0  0
   -7.4218   44.9832   83.3689 H   0  0  0  0  0  0
  -12.0338   39.3590   82.8119 H   0  0  0  0  0  0
   -7.5217   39.9942   85.3389 H   0  0  0  0  0  0
   -6.9797   38.3111   87.1426 H   0  0  0  0  0  0
   -8.5462   36.4718   87.6537 H   0  0  0  0  0  0
  -10.6971   36.2240   86.4118 H   0  0  0  0  0  0
  1 20  1  0  0  0
  1 29  1  0  0  0
  1 30  2  0  0  0
  1 31  1  0  0  0
  2  3  1  0  0  0
  2 10  1  0  0  0
  2 13  1  0  0  0
  2 32  1  0  0  0
  3  5  1  0  0  0
  3 12  1  0  0  0
  3 33  1  0  0  0
  4 13  2  0  0  0
  5  8  1  0  0  0
  5 34  1  0  0  0
  5 35  1  0  0  0
  6 13  1  0  0  0
  6 14  1  0  0  0
  6 36  1  0  0  0
  7 18  2  0  0  0
  8 10  1  0  0  0
  8 37  1  0  0  0
  8 38  1  0  0  0
  9 22  2  0  0  0
  9 23  1  0  0  0
 10 39  1  0  0  0
 10 40  1  0  0  0
 11 16  1  0  0  0
 11 18  1  0  0  0
 11 41  1  0  0  0
 12 16  1  0  0  0
 12 42  1  0  0  0
 12 43  1  0  0  0
 14 15  1  0  0  0
 14 44  1  0  0  0
 14 45  1  0  0  0
 15 21  1  0  0  0
 15 46  1  0  0  0
 15 47  1  0  0  0
 16 17  1  0  0  0
 16 48  1  0  0  0
 17 31  1  0  0  0
 17 49  1  0  0  0
 17 50  1  0  0  0
 18 19  1  0  0  0
 19 51  1  0  0  0
 19 52  1  0  0  0
 19 53  1  0  0  0
 21 22  1  0  0  0
 21 24  1  0  0  0
 22 54  1  0  0  0
 23 24  2  0  0  0
 23 28  1  0  0  0
 24 25  1  0  0  0
 25 26  2  0  0  0
 25 55  1  0  0  0
 26 27  1  0  0  0
 26 56  1  0  0  0
 27 28  2  0  0  0
 27 57  1  0  0  0
 28 58  1  0  0  0
M  CHG  3   3   1  20  -1  29  -1
M  END
> <s_m_source_file>
../3ntp_ligand.sdf

> <i_m_source_file_index>
1

> <s_epik_input>
W09IXVAoPU8pKFtPSF0pT1tDSDJdW0NASF0oW05IXUMoPU8pW0NIM10pW0NIMl1bTkBIK10oW0NIMl1bQ0gyXVtDSDJdMSlbQ0BASF0xQyg9TylbTkhdW0NIMl1bQ0gyXVtDSF0oW0NIXT1OMiljKGMyMylbY0hdW2NIXVtjSF1bY0hdMw==

> <s_epik_cmdline>
J2VwaWtfYXBwJywgJy1pbWFlJywgJ2xpZ2FuZF9wcm8ubWFlJywgJy1vbWFlJywgJ2xpZ2FuZF9wcmVwLm1hZScsICctbXMnLCAnMScsICctcGgnLCAnNycsICctcGh0JywgJzAuNScsICctbnQn

> <r_lp_tautomer_probability>
1

> <r_epik_Ionization_Penalty>
  0.1770

> <r_epik_Ionization_Penalty_Charging>
  0.1572

> <r_epik_Ionization_Penalty_Neutral>
  0.0198

> <r_epik_State_Penalty>
 -0.0000

> <r_epik_Charging_Adjusted_Penalty>
0.157171378390953

> <i_epik_Tot_Q>
-1

> <i_epik_Tot_abs_Q>
3

> <s_epik_Chemistry_Notes>
This compound has an imine and may undergo hydrolysis.

$$$$
