3nu3_ligand
                    3D
 Schrodinger Suite 2020-3.
 70 72  0  0  1  0            999 V2000
   12.4560   18.0160   19.7620 C   0  0  0  0  0  0
   14.4290   18.7200   20.8760 C   0  0  0  0  0  0
   14.6150   20.5140   18.2890 C   0  0  0  0  0  0
   13.8340   18.5760   19.4830 C   0  0  2  0  0  0
   15.1800   22.6440   17.1740 C   0  0  2  0  0  0
   15.6420   23.7670   18.0870 C   0  0  1  0  0  0
   14.4840   23.1260   15.9110 C   0  0  0  0  0  0
   14.0720   21.9840   14.9890 C   0  0  0  0  0  0
   12.7980   21.4770   14.9830 C   0  0  0  0  0  0
   15.0220   21.3710   14.1580 C   0  0  0  0  0  0
   12.4520   20.3800   14.2270 C   0  0  0  0  0  0
   14.6940   20.2900   13.3760 C   0  0  0  0  0  0
   13.4110   19.8100   13.4310 C   0  0  0  0  0  0
   16.7590   24.6690   17.5750 C   0  0  0  0  0  0
   19.0180   24.3960   18.5690 C   0  0  0  0  0  0
   18.6750   23.8240   19.9270 C   0  0  0  0  0  0
   19.5070   25.0860   15.3930 C   0  0  0  0  0  0
   18.7370   26.0010   14.6500 C   0  0  0  0  0  0
   19.2680   27.1610   14.1740 C   0  0  0  0  0  0
   20.6050   27.4550   14.3740 C   0  0  0  0  0  0
   21.4030   26.5730   15.1280 C   0  0  0  0  0  0
   20.8550   25.3770   15.6600 C   0  0  0  0  0  0
   18.6000   22.2940   19.9200 C   0  0  0  0  0  0
   19.6840   24.2860   20.9880 C   0  0  0  0  0  0
   13.2970   18.3110   21.8450 C   0  0  0  0  0  0
   14.2780   21.7450   17.9010 N   0  0  0  0  0  0
   18.0690   24.0060   17.5200 N   0  0  2  0  0  0
   21.1080   28.6900   14.0090 N   0  0  0  0  0  0
   13.5750   19.8880   18.8630 O   0  0  0  0  0  0
   15.7730   19.9990   18.1850 O   0  0  0  0  0  0
   14.4720   24.5600   18.4230 O   0  0  0  0  0  0
   17.6060   23.4010   15.1600 O   0  0  0  0  0  0
   19.7300   22.6620   16.2780 O   0  0  0  0  0  0
   12.0980   18.4530   21.0540 O   0  0  0  0  0  0
   18.7070   23.6850   16.0520 S   0  0  0  0  0  0
   11.7476   18.3935   19.0098 H   0  0  0  0  0  0
   12.4901   16.9175   19.7148 H   0  0  0  0  0  0
   15.3021   18.0578   20.9720 H   0  0  0  0  0  0
   14.7405   19.7628   21.0357 H   0  0  0  0  0  0
   14.4963   18.0065   18.8144 H   0  0  0  0  0  0
   16.0792   22.0851   16.8756 H   0  0  0  0  0  0
   16.0668   23.2952   18.9853 H   0  0  0  0  0  0
   13.5747   23.6821   16.1829 H   0  0  0  0  0  0
   15.1616   23.7842   15.3474 H   0  0  0  0  0  0
   12.0355   21.9576   15.5960 H   0  0  0  0  0  0
   16.0399   21.7600   14.1324 H   0  0  0  0  0  0
   11.4407   19.9748   14.2606 H   0  0  0  0  0  0
   15.4363   19.8250   12.7272 H   0  0  0  0  0  0
   13.1449   18.9464   12.8215 H   0  0  0  0  0  0
   16.5186   25.0082   16.5566 H   0  0  0  0  0  0
   16.8590   25.5411   18.2379 H   0  0  0  0  0  0
   19.0192   25.4946   18.6236 H   0  0  0  0  0  0
   20.0140   24.0430   18.2633 H   0  0  0  0  0  0
   17.6740   24.2128   20.1653 H   0  0  0  0  0  0
   17.6894   25.7751   14.4508 H   0  0  0  0  0  0
   18.6350   27.8631   13.6314 H   0  0  0  0  0  0
   22.4518   26.8113   15.3047 H   0  0  0  0  0  0
   21.4644   24.7015   16.2604 H   0  0  0  0  0  0
   17.8766   21.9659   19.1591 H   0  0  0  0  0  0
   18.2780   21.9382   20.9098 H   0  0  0  0  0  0
   19.5916   21.8794   19.6861 H   0  0  0  0  0  0
   19.7358   25.3848   20.9908 H   0  0  0  0  0  0
   20.6764   23.8727   20.7548 H   0  0  0  0  0  0
   19.3627   23.9315   21.9785 H   0  0  0  0  0  0
   13.4556   17.2745   22.1775 H   0  0  0  0  0  0
   13.3014   18.9807   22.7176 H   0  0  0  0  0  0
   13.2600   22.0750   18.1554 H   0  0  0  0  0  0
   20.4897   29.3835   13.4201 H   0  0  0  0  0  0
   22.1265   28.9791   14.3075 H   0  0  0  0  0  0
   13.5672   24.0686   18.8102 H   0  0  0  0  0  0
  1  4  1  0  0  0
  1 34  1  0  0  0
  1 36  1  0  0  0
  1 37  1  0  0  0
  2  4  1  0  0  0
  2 25  1  0  0  0
  2 38  1  0  0  0
  2 39  1  0  0  0
  3 26  1  0  0  0
  3 29  1  0  0  0
  3 30  2  0  0  0
  4 29  1  0  0  0
  4 40  1  0  0  0
  5  6  1  0  0  0
  5  7  1  0  0  0
  5 26  1  0  0  0
  5 41  1  0  0  0
  6 14  1  0  0  0
  6 31  1  0  0  0
  6 42  1  0  0  0
  7  8  1  0  0  0
  7 43  1  0  0  0
  7 44  1  0  0  0
  8  9  2  0  0  0
  8 10  1  0  0  0
  9 11  1  0  0  0
  9 45  1  0  0  0
 10 12  2  0  0  0
 10 46  1  0  0  0
 11 13  2  0  0  0
 11 47  1  0  0  0
 12 13  1  0  0  0
 12 48  1  0  0  0
 13 49  1  0  0  0
 14 27  1  0  0  0
 14 50  1  0  0  0
 14 51  1  0  0  0
 15 16  1  0  0  0
 15 27  1  0  0  0
 15 52  1  0  0  0
 15 53  1  0  0  0
 16 23  1  0  0  0
 16 24  1  0  0  0
 16 54  1  0  0  0
 17 18  2  0  0  0
 17 22  1  0  0  0
 17 35  1  0  0  0
 18 19  1  0  0  0
 18 55  1  0  0  0
 19 20  2  0  0  0
 19 56  1  0  0  0
 20 21  1  0  0  0
 20 28  1  0  0  0
 21 22  2  0  0  0
 21 57  1  0  0  0
 22 58  1  0  0  0
 23 59  1  0  0  0
 23 60  1  0  0  0
 23 61  1  0  0  0
 24 62  1  0  0  0
 24 63  1  0  0  0
 24 64  1  0  0  0
 25 34  1  0  0  0
 25 65  1  0  0  0
 25 66  1  0  0  0
 26 67  1  0  0  0
 27 35  1  0  0  0
 28 68  1  0  0  0
 28 69  1  0  0  0
 31 70  1  0  0  0
 32 35  2  0  0  0
 33 35  2  0  0  0
M  END
> <s_m_source_file>
../3nu3_ligand.sdf

> <i_m_source_file_index>
1

> <s_epik_input>
W0NIMl0xW0NIMl1PW0NIMl1bQ0BIXTFPQyg9TylbTkhdW0NAQEhdKFtDSDJdYzJbY0hdW2NIXVtjSF1bY0hdW2NIXTIpW0NASF0oW09IXSlbQ0gyXU4oW0NIMl1bQ0hdKFtDSDNdKVtDSDNdKVMoPU8pKD1PKWMzW2NIXVtjSF1jKFtOSDJdKVtjSF1bY0hdMw==

> <s_epik_cmdline>
J2VwaWtfYXBwJywgJy1pbWFlJywgJ2xpZ2FuZF9wcm8ubWFlJywgJy1vbWFlJywgJ2xpZ2FuZF9wcmVwLm1hZScsICctbXMnLCAnMScsICctcGgnLCAnNycsICctcGh0JywgJzAuNScsICctbnQn

> <r_lp_tautomer_probability>
1

> <r_epik_Ionization_Penalty>
  0.0000

> <r_epik_Ionization_Penalty_Charging>
  0.0000

> <r_epik_Ionization_Penalty_Neutral>
  0.0000

> <r_epik_State_Penalty>
 -0.0000

> <r_epik_Charging_Adjusted_Penalty>
0

> <i_epik_Tot_Q>
0

> <i_epik_Tot_abs_Q>
0

> <s_epik_Chemistry_Notes>
This compound has an ester and may undergo hydrolysis at high or low pH.

$$$$
