3nu9_ligand
                    3D
 Schrodinger Suite 2020-3.
 70 72  0  0  1  0            999 V2000
   17.1050   25.3570   18.6600 C   0  0  0  0  0  0
   15.1580   24.5540   19.8520 C   0  0  0  0  0  0
   14.8220   22.7010   17.4170 C   0  0  0  0  0  0
   15.7230   24.7330   18.4450 C   0  0  2  0  0  0
   14.1860   20.5200   16.4720 C   0  0  2  0  0  0
   13.7730   19.4420   17.4770 C   0  0  1  0  0  0
   14.8270   19.9860   15.1780 C   0  0  0  0  0  0
   15.1930   21.1350   14.2640 C   0  0  0  0  0  0
   16.4970   21.6270   14.2470 C   0  0  0  0  0  0
   14.2200   21.7130   13.4400 C   0  0  0  0  0  0
   16.8420   22.6940   13.4160 C   0  0  0  0  0  0
   14.5450   22.7920   12.6110 C   0  0  0  0  0  0
   15.8570   23.2750   12.6040 C   0  0  0  0  0  0
   12.6420   18.5160   17.0120 C   0  0  0  0  0  0
   10.4250   19.1550   18.1220 C   0  0  0  0  0  0
   11.0040   19.7630   19.3990 C   0  0  0  0  0  0
    9.9340   18.1410   15.0860 C   0  0  0  0  0  0
   10.5890   17.1810   14.3070 C   0  0  0  0  0  0
    9.9470   16.0090   13.8900 C   0  0  0  0  0  0
    8.6350   15.7530   14.2700 C   0  0  0  0  0  0
    7.9550   16.7100   15.0280 C   0  0  0  0  0  0
    8.6080   17.8940   15.4350 C   0  0  0  0  0  0
   11.1940   21.2720   19.3110 C   0  0  0  0  0  0
    9.9950   19.4420   20.4900 C   0  0  0  0  0  0
   16.2990   24.9320   20.8000 C   0  0  0  0  0  0
   15.0990   21.4320   17.1390 N   0  0  0  0  0  0
   11.3000   19.1120   16.9590 N   0  0  3  0  0  0
    8.0050   14.6090   13.8580 N   0  0  0  0  0  0
   15.9820   23.4470   17.8920 O   0  0  0  0  0  0
   13.7190   23.2350   17.3230 O   0  0  0  0  0  0
   14.9210   18.6190   17.7610 O   0  0  0  0  0  0
   11.7900   19.7810   14.6570 O   0  0  0  0  0  0
    9.7180   20.5240   15.6980 O   0  0  0  0  0  0
   17.4780   24.9720   19.9860 O   0  0  0  0  0  0
   10.7060   19.4960   15.5710 S   0  0  0  0  0  0
   17.8058   24.9634   17.9090 H   0  0  0  0  0  0
   17.0338   26.4499   18.5578 H   0  0  0  0  0  0
   14.2888   25.2149   19.9849 H   0  0  0  0  0  0
   14.8481   23.5079   19.9924 H   0  0  0  0  0  0
   15.0405   25.2664   17.7670 H   0  0  0  0  0  0
   13.2837   21.0736   16.1731 H   0  0  0  0  0  0
   13.4420   19.9586   18.3900 H   0  0  0  0  0  0
   15.7366   19.4193   15.4262 H   0  0  0  0  0  0
   14.1142   19.3271   14.6606 H   0  0  0  0  0  0
   17.2537   21.1747   14.8881 H   0  0  0  0  0  0
   13.2033   21.3201   13.4444 H   0  0  0  0  0  0
   17.8645   23.0712   13.3983 H   0  0  0  0  0  0
   13.7848   23.2504   11.9784 H   0  0  0  0  0  0
   16.1178   24.1141   11.9590 H   0  0  0  0  0  0
   12.8566   18.1576   15.9944 H   0  0  0  0  0  0
   12.5671   17.6571   17.6951 H   0  0  0  0  0  0
   10.1325   18.1119   18.3125 H   0  0  0  0  0  0
    9.5424   19.7319   17.8087 H   0  0  0  0  0  0
   12.0038   19.3482   19.5950 H   0  0  0  0  0  0
   11.6261   17.3500   14.0173 H   0  0  0  0  0  0
   10.4792   15.2931   13.2636 H   0  0  0  0  0  0
    6.9148   16.5416   15.3066 H   0  0  0  0  0  0
    8.0656   18.6270   16.0322 H   0  0  0  0  0  0
   11.9240   21.5042   18.5216 H   0  0  0  0  0  0
   11.5631   21.6519   20.2751 H   0  0  0  0  0  0
   10.2320   21.7494   19.0728 H   0  0  0  0  0  0
    9.8578   18.3524   20.5535 H   0  0  0  0  0  0
    9.0331   19.9194   20.2518 H   0  0  0  0  0  0
   10.3641   19.8219   21.4541 H   0  0  0  0  0  0
   16.0903   25.9128   21.2522 H   0  0  0  0  0  0
   16.3840   24.1736   21.5922 H   0  0  0  0  0  0
   16.0952   21.0838   17.4493 H   0  0  0  0  0  0
    8.5522   13.8640   13.2618 H   0  0  0  0  0  0
    6.9517   14.4351   14.1233 H   0  0  0  0  0  0
   15.8553   19.0808   18.1128 H   0  0  0  0  0  0
  1  4  1  0  0  0
  1 34  1  0  0  0
  1 36  1  0  0  0
  1 37  1  0  0  0
  2  4  1  0  0  0
  2 25  1  0  0  0
  2 38  1  0  0  0
  2 39  1  0  0  0
  3 26  1  0  0  0
  3 29  1  0  0  0
  3 30  2  0  0  0
  4 29  1  0  0  0
  4 40  1  0  0  0
  5  6  1  0  0  0
  5  7  1  0  0  0
  5 26  1  0  0  0
  5 41  1  0  0  0
  6 14  1  0  0  0
  6 31  1  0  0  0
  6 42  1  0  0  0
  7  8  1  0  0  0
  7 43  1  0  0  0
  7 44  1  0  0  0
  8  9  2  0  0  0
  8 10  1  0  0  0
  9 11  1  0  0  0
  9 45  1  0  0  0
 10 12  2  0  0  0
 10 46  1  0  0  0
 11 13  2  0  0  0
 11 47  1  0  0  0
 12 13  1  0  0  0
 12 48  1  0  0  0
 13 49  1  0  0  0
 14 27  1  0  0  0
 14 50  1  0  0  0
 14 51  1  0  0  0
 15 16  1  0  0  0
 15 27  1  0  0  0
 15 52  1  0  0  0
 15 53  1  0  0  0
 16 23  1  0  0  0
 16 24  1  0  0  0
 16 54  1  0  0  0
 17 18  2  0  0  0
 17 22  1  0  0  0
 17 35  1  0  0  0
 18 19  1  0  0  0
 18 55  1  0  0  0
 19 20  2  0  0  0
 19 56  1  0  0  0
 20 21  1  0  0  0
 20 28  1  0  0  0
 21 22  2  0  0  0
 21 57  1  0  0  0
 22 58  1  0  0  0
 23 59  1  0  0  0
 23 60  1  0  0  0
 23 61  1  0  0  0
 24 62  1  0  0  0
 24 63  1  0  0  0
 24 64  1  0  0  0
 25 34  1  0  0  0
 25 65  1  0  0  0
 25 66  1  0  0  0
 26 67  1  0  0  0
 27 35  1  0  0  0
 28 68  1  0  0  0
 28 69  1  0  0  0
 31 70  1  0  0  0
 32 35  2  0  0  0
 33 35  2  0  0  0
M  END
> <s_m_source_file>
../3nu9_ligand.sdf

> <i_m_source_file_index>
1

> <s_epik_input>
W0NIMl0xW0NIMl1PW0NIMl1bQ0BIXTFPQyg9TylbTkhdW0NAQEhdKFtDSDJdYzJbY0hdW2NIXVtjSF1bY0hdW2NIXTIpW0NASF0oW09IXSlbQ0gyXU4oW0NIMl1bQ0hdKFtDSDNdKVtDSDNdKVMoPU8pKD1PKWMzW2NIXVtjSF1jKFtOSDJdKVtjSF1bY0hdMw==

> <s_epik_cmdline>
J2VwaWtfYXBwJywgJy1pbWFlJywgJ2xpZ2FuZF9wcm8ubWFlJywgJy1vbWFlJywgJ2xpZ2FuZF9wcmVwLm1hZScsICctbXMnLCAnMScsICctcGgnLCAnNycsICctcGh0JywgJzAuNScsICctbnQn

> <r_lp_tautomer_probability>
1

> <r_epik_Ionization_Penalty>
  0.0000

> <r_epik_Ionization_Penalty_Charging>
  0.0000

> <r_epik_Ionization_Penalty_Neutral>
  0.0000

> <r_epik_State_Penalty>
 -0.0000

> <r_epik_Charging_Adjusted_Penalty>
0

> <i_epik_Tot_Q>
0

> <i_epik_Tot_abs_Q>
0

> <s_epik_Chemistry_Notes>
This compound has an ester and may undergo hydrolysis at high or low pH.

$$$$
