3nuj_ligand
                    3D
 Schrodinger Suite 2020-3.
 70 72  0  0  1  0            999 V2000
   16.7790   24.9520   19.2150 C   0  0  0  0  0  0
   14.8380   24.0450   20.2910 C   0  0  0  0  0  0
   14.7210   22.2320   17.8570 C   0  0  0  0  0  0
   15.4520   24.2370   18.9020 C   0  0  2  0  0  0
   14.1420   20.0510   16.8470 C   0  0  2  0  0  0
   13.6410   18.9770   17.8070 C   0  0  1  0  0  0
   14.8280   19.5290   15.5830 C   0  0  0  0  0  0
   15.2270   20.6690   14.6550 C   0  0  0  0  0  0
   16.5230   21.1490   14.6460 C   0  0  0  0  0  0
   14.3100   21.2780   13.8150 C   0  0  0  0  0  0
   16.8310   22.2420   13.8370 C   0  0  0  0  0  0
   14.5690   22.3450   12.9710 C   0  0  0  0  0  0
   15.8560   22.8420   13.0760 C   0  0  0  0  0  0
   12.4990   18.1500   17.2280 C   0  0  0  0  0  0
   10.2450   18.3750   18.1580 C   0  0  0  0  0  0
   10.6630   18.8840   19.5440 C   0  0  0  0  0  0
    9.7550   17.6730   15.0520 C   0  0  0  0  0  0
   10.4650   16.7940   14.2600 C   0  0  0  0  0  0
    9.8060   15.6830   13.7540 C   0  0  0  0  0  0
    8.5590   15.3400   14.2150 C   0  0  0  0  0  0
    7.7960   16.2790   14.9180 C   0  0  0  0  0  0
    8.4400   17.4090   15.3760 C   0  0  0  0  0  0
   10.6740   20.4210   19.5090 C   0  0  0  0  0  0
    9.5900   18.4390   20.5590 C   0  0  0  0  0  0
   15.9160   24.5330   21.2310 C   0  0  0  0  0  0
   15.0380   20.9620   17.5280 N   0  0  0  0  0  0
   11.2160   18.8130   17.1510 N   0  0  2  0  0  0
    7.9670   14.2410   13.7660 N   0  0  0  0  0  0
   15.7750   22.9110   18.4090 O   0  0  0  0  0  0
   13.6140   22.7310   17.7140 O   0  0  0  0  0  0
   14.6860   18.0690   18.1220 O   0  0  0  0  0  0
   11.6630   19.3930   14.6550 O   0  0  0  0  0  0
    9.6040   20.2520   15.7500 O   0  0  0  0  0  0
   17.1400   24.4610   20.5010 O   0  0  0  0  0  0
   10.5770   19.1030   15.6700 S   0  0  0  0  0  0
   17.5244   24.6935   18.4485 H   0  0  0  0  0  0
   16.6176   26.0401   19.2172 H   0  0  0  0  0  0
   13.9161   24.6399   20.3698 H   0  0  0  0  0  0
   14.6022   22.9815   20.4439 H   0  0  0  0  0  0
   14.8129   24.7323   18.1562 H   0  0  0  0  0  0
   13.2507   20.6158   16.5362 H   0  0  0  0  0  0
   13.3342   19.4789   18.7365 H   0  0  0  0  0  0
   15.7350   18.9723   15.8614 H   0  0  0  0  0  0
   14.1406   18.8627   15.0412 H   0  0  0  0  0  0
   17.2915   20.6809   15.2611 H   0  0  0  0  0  0
   13.2943   20.8825   13.8184 H   0  0  0  0  0  0
   17.8517   22.6233   13.8078 H   0  0  0  0  0  0
   13.8268   22.7557   12.2865 H   0  0  0  0  0  0
   16.1084   23.7511   12.5302 H   0  0  0  0  0  0
   12.7498   17.8471   16.2007 H   0  0  0  0  0  0
   12.3445   17.2540   17.8471 H   0  0  0  0  0  0
   10.2041   17.2758   18.1681 H   0  0  0  0  0  0
    9.2530   18.7765   17.9037 H   0  0  0  0  0  0
   11.6547   18.4934   19.8160 H   0  0  0  0  0  0
   11.5177   16.9683   14.0374 H   0  0  0  0  0  0
   10.2825   15.0769   12.9835 H   0  0  0  0  0  0
    6.7322   16.1230   15.0969 H   0  0  0  0  0  0
    7.8971   18.1107   16.0093 H   0  0  0  0  0  0
   11.4326   20.7660   18.7910 H   0  0  0  0  0  0
   10.9135   20.8088   20.5101 H   0  0  0  0  0  0
    9.6838   20.7878   19.2009 H   0  0  0  0  0  0
    9.5610   17.3403   20.6039 H   0  0  0  0  0  0
    8.6071   18.8192   20.2438 H   0  0  0  0  0  0
    9.8368   18.8402   21.5530 H   0  0  0  0  0  0
   15.6963   25.5669   21.5357 H   0  0  0  0  0  0
   15.9465   23.8871   22.1209 H   0  0  0  0  0  0
   16.0486   20.6315   17.8100 H   0  0  0  0  0  0
    8.5489   13.4904   13.2111 H   0  0  0  0  0  0
    6.8942   14.0804   13.9486 H   0  0  0  0  0  0
   15.6248   18.4408   18.5582 H   0  0  0  0  0  0
  1  4  1  0  0  0
  1 34  1  0  0  0
  1 36  1  0  0  0
  1 37  1  0  0  0
  2  4  1  0  0  0
  2 25  1  0  0  0
  2 38  1  0  0  0
  2 39  1  0  0  0
  3 26  1  0  0  0
  3 29  1  0  0  0
  3 30  2  0  0  0
  4 29  1  0  0  0
  4 40  1  0  0  0
  5  6  1  0  0  0
  5  7  1  0  0  0
  5 26  1  0  0  0
  5 41  1  0  0  0
  6 14  1  0  0  0
  6 31  1  0  0  0
  6 42  1  0  0  0
  7  8  1  0  0  0
  7 43  1  0  0  0
  7 44  1  0  0  0
  8  9  2  0  0  0
  8 10  1  0  0  0
  9 11  1  0  0  0
  9 45  1  0  0  0
 10 12  2  0  0  0
 10 46  1  0  0  0
 11 13  2  0  0  0
 11 47  1  0  0  0
 12 13  1  0  0  0
 12 48  1  0  0  0
 13 49  1  0  0  0
 14 27  1  0  0  0
 14 50  1  0  0  0
 14 51  1  0  0  0
 15 16  1  0  0  0
 15 27  1  0  0  0
 15 52  1  0  0  0
 15 53  1  0  0  0
 16 23  1  0  0  0
 16 24  1  0  0  0
 16 54  1  0  0  0
 17 18  2  0  0  0
 17 22  1  0  0  0
 17 35  1  0  0  0
 18 19  1  0  0  0
 18 55  1  0  0  0
 19 20  2  0  0  0
 19 56  1  0  0  0
 20 21  1  0  0  0
 20 28  1  0  0  0
 21 22  2  0  0  0
 21 57  1  0  0  0
 22 58  1  0  0  0
 23 59  1  0  0  0
 23 60  1  0  0  0
 23 61  1  0  0  0
 24 62  1  0  0  0
 24 63  1  0  0  0
 24 64  1  0  0  0
 25 34  1  0  0  0
 25 65  1  0  0  0
 25 66  1  0  0  0
 26 67  1  0  0  0
 27 35  1  0  0  0
 28 68  1  0  0  0
 28 69  1  0  0  0
 31 70  1  0  0  0
 32 35  2  0  0  0
 33 35  2  0  0  0
M  END
> <s_m_source_file>
../3nuj_ligand.sdf

> <i_m_source_file_index>
1

> <s_epik_input>
W0NIMl0xW0NIMl1PW0NIMl1bQ0BIXTFPQyg9TylbTkhdW0NAQEhdKFtDSDJdYzJbY0hdW2NIXVtjSF1bY0hdW2NIXTIpW0NASF0oW09IXSlbQ0gyXU4oW0NIMl1bQ0hdKFtDSDNdKVtDSDNdKVMoPU8pKD1PKWMzW2NIXVtjSF1jKFtOSDJdKVtjSF1bY0hdMw==

> <s_epik_cmdline>
J2VwaWtfYXBwJywgJy1pbWFlJywgJ2xpZ2FuZF9wcm8ubWFlJywgJy1vbWFlJywgJ2xpZ2FuZF9wcmVwLm1hZScsICctbXMnLCAnMScsICctcGgnLCAnNycsICctcGh0JywgJzAuNScsICctbnQn

> <r_lp_tautomer_probability>
1

> <r_epik_Ionization_Penalty>
  0.0000

> <r_epik_Ionization_Penalty_Charging>
  0.0000

> <r_epik_Ionization_Penalty_Neutral>
  0.0000

> <r_epik_State_Penalty>
 -0.0000

> <r_epik_Charging_Adjusted_Penalty>
0

> <i_epik_Tot_Q>
0

> <i_epik_Tot_abs_Q>
0

> <s_epik_Chemistry_Notes>
This compound has an ester and may undergo hydrolysis at high or low pH.

$$$$
