3nuo_ligand
                    3D
 Schrodinger Suite 2020-3.
 70 72  0  0  1  0            999 V2000
   16.6100   25.3290   19.4890 C   0  0  0  0  0  0
   14.6280   24.5260   20.5520 C   0  0  0  0  0  0
   14.4200   22.7240   18.0830 C   0  0  0  0  0  0
   15.2710   24.6870   19.1590 C   0  0  2  0  0  0
   13.8330   20.5600   17.0000 C   0  0  2  0  0  0
   13.4190   19.4450   17.9610 C   0  0  1  0  0  0
   14.5630   20.0660   15.7580 C   0  0  0  0  0  0
   14.9670   21.2180   14.8550 C   0  0  0  0  0  0
   16.2890   21.6600   14.7980 C   0  0  0  0  0  0
   14.0300   21.8220   14.0480 C   0  0  0  0  0  0
   16.6170   22.7880   14.0350 C   0  0  0  0  0  0
   14.3440   22.8890   13.2240 C   0  0  0  0  0  0
   15.6460   23.3470   13.2210 C   0  0  0  0  0  0
   12.3310   18.5160   17.4000 C   0  0  0  0  0  0
   10.0920   18.8170   18.4490 C   0  0  0  0  0  0
   10.4790   19.3930   19.8130 C   0  0  0  0  0  0
    9.5810   18.0420   15.2590 C   0  0  0  0  0  0
   10.2910   17.1470   14.4910 C   0  0  0  0  0  0
    9.7700   15.9410   14.0320 C   0  0  0  0  0  0
    8.4480   15.6290   14.3360 C   0  0  0  0  0  0
    7.6980   16.5740   15.0340 C   0  0  0  0  0  0
    8.2630   17.7600   15.5340 C   0  0  0  0  0  0
   10.4240   20.9220   19.7760 C   0  0  0  0  0  0
    9.4510   18.8950   20.8400 C   0  0  0  0  0  0
   15.7430   24.8990   21.5120 C   0  0  0  0  0  0
   14.7320   21.4860   17.6810 N   0  0  0  0  0  0
   11.0260   19.1680   17.3790 N   0  0  2  0  0  0
    7.9390   14.4490   13.9390 N   0  0  0  0  0  0
   15.4920   23.3610   18.6400 O   0  0  0  0  0  0
   13.2940   23.2220   18.0320 O   0  0  0  0  0  0
   14.5520   18.6330   18.2720 O   0  0  0  0  0  0
   11.4320   19.8530   14.9750 O   0  0  0  0  0  0
    9.2710   20.4970   16.0770 O   0  0  0  0  0  0
   16.9520   24.8460   20.7830 O   0  0  0  0  0  0
   10.3430   19.5050   15.9230 S   0  0  0  0  0  0
   17.3554   25.0294   18.7375 H   0  0  0  0  0  0
   16.5031   26.4238   19.4832 H   0  0  0  0  0  0
   13.7633   25.2006   20.6369 H   0  0  0  0  0  0
   14.2959   23.4857   20.6846 H   0  0  0  0  0  0
   14.6891   25.2232   18.3949 H   0  0  0  0  0  0
   12.9113   21.0781   16.6966 H   0  0  0  0  0  0
   13.0680   19.9237   18.8871 H   0  0  0  0  0  0
   15.4717   19.5237   16.0582 H   0  0  0  0  0  0
   13.9050   19.3923   15.1896 H   0  0  0  0  0  0
   17.0661   21.1280   15.3468 H   0  0  0  0  0  0
   13.0064   21.4476   14.0580 H   0  0  0  0  0  0
   17.6177   23.2177   14.0811 H   0  0  0  0  0  0
   13.5847   23.3542   12.5954 H   0  0  0  0  0  0
   15.9172   24.1705   12.5604 H   0  0  0  0  0  0
   12.5909   18.2265   16.3711 H   0  0  0  0  0  0
   12.2588   17.6152   18.0272 H   0  0  0  0  0  0
   10.0601   17.7192   18.5103 H   0  0  0  0  0  0
    9.1015   19.1969   18.1582 H   0  0  0  0  0  0
   11.5001   19.0769   20.0728 H   0  0  0  0  0  0
   11.3188   17.3969   14.2277 H   0  0  0  0  0  0
   10.3837   15.2557   13.4473 H   0  0  0  0  0  0
    6.6367   16.3869   15.1978 H   0  0  0  0  0  0
    7.6645   18.4473   16.1319 H   0  0  0  0  0  0
   11.1548   21.2976   19.0446 H   0  0  0  0  0  0
   10.6638   21.3217   20.7724 H   0  0  0  0  0  0
    9.4139   21.2456   19.4844 H   0  0  0  0  0  0
    9.4761   17.7960   20.8806 H   0  0  0  0  0  0
    8.4455   19.2281   20.5434 H   0  0  0  0  0  0
    9.6953   19.3042   21.8314 H   0  0  0  0  0  0
   15.5681   25.9130   21.9008 H   0  0  0  0  0  0
   15.7618   24.1840   22.3477 H   0  0  0  0  0  0
   15.7659   21.1844   17.9048 H   0  0  0  0  0  0
    8.5701   13.7345   13.3902 H   0  0  0  0  0  0
    6.8916   14.1985   14.1631 H   0  0  0  0  0  0
   15.4593   19.0922   18.6914 H   0  0  0  0  0  0
  1  4  1  0  0  0
  1 34  1  0  0  0
  1 36  1  0  0  0
  1 37  1  0  0  0
  2  4  1  0  0  0
  2 25  1  0  0  0
  2 38  1  0  0  0
  2 39  1  0  0  0
  3 26  1  0  0  0
  3 29  1  0  0  0
  3 30  2  0  0  0
  4 29  1  0  0  0
  4 40  1  0  0  0
  5  6  1  0  0  0
  5  7  1  0  0  0
  5 26  1  0  0  0
  5 41  1  0  0  0
  6 14  1  0  0  0
  6 31  1  0  0  0
  6 42  1  0  0  0
  7  8  1  0  0  0
  7 43  1  0  0  0
  7 44  1  0  0  0
  8  9  2  0  0  0
  8 10  1  0  0  0
  9 11  1  0  0  0
  9 45  1  0  0  0
 10 12  2  0  0  0
 10 46  1  0  0  0
 11 13  2  0  0  0
 11 47  1  0  0  0
 12 13  1  0  0  0
 12 48  1  0  0  0
 13 49  1  0  0  0
 14 27  1  0  0  0
 14 50  1  0  0  0
 14 51  1  0  0  0
 15 16  1  0  0  0
 15 27  1  0  0  0
 15 52  1  0  0  0
 15 53  1  0  0  0
 16 23  1  0  0  0
 16 24  1  0  0  0
 16 54  1  0  0  0
 17 18  2  0  0  0
 17 22  1  0  0  0
 17 35  1  0  0  0
 18 19  1  0  0  0
 18 55  1  0  0  0
 19 20  2  0  0  0
 19 56  1  0  0  0
 20 21  1  0  0  0
 20 28  1  0  0  0
 21 22  2  0  0  0
 21 57  1  0  0  0
 22 58  1  0  0  0
 23 59  1  0  0  0
 23 60  1  0  0  0
 23 61  1  0  0  0
 24 62  1  0  0  0
 24 63  1  0  0  0
 24 64  1  0  0  0
 25 34  1  0  0  0
 25 65  1  0  0  0
 25 66  1  0  0  0
 26 67  1  0  0  0
 27 35  1  0  0  0
 28 68  1  0  0  0
 28 69  1  0  0  0
 31 70  1  0  0  0
 32 35  2  0  0  0
 33 35  2  0  0  0
M  END
> <s_m_source_file>
../3nuo_ligand.sdf

> <i_m_source_file_index>
1

> <s_epik_input>
W0NIMl0xW0NIMl1PW0NIMl1bQ0BIXTFPQyg9TylbTkhdW0NAQEhdKFtDSDJdYzJbY0hdW2NIXVtjSF1bY0hdW2NIXTIpW0NASF0oW09IXSlbQ0gyXU4oW0NIMl1bQ0hdKFtDSDNdKVtDSDNdKVMoPU8pKD1PKWMzW2NIXVtjSF1jKFtOSDJdKVtjSF1bY0hdMw==

> <s_epik_cmdline>
J2VwaWtfYXBwJywgJy1pbWFlJywgJ2xpZ2FuZF9wcm8ubWFlJywgJy1vbWFlJywgJ2xpZ2FuZF9wcmVwLm1hZScsICctbXMnLCAnMScsICctcGgnLCAnNycsICctcGh0JywgJzAuNScsICctbnQn

> <r_lp_tautomer_probability>
1

> <r_epik_Ionization_Penalty>
  0.0000

> <r_epik_Ionization_Penalty_Charging>
  0.0000

> <r_epik_Ionization_Penalty_Neutral>
  0.0000

> <r_epik_State_Penalty>
 -0.0000

> <r_epik_Charging_Adjusted_Penalty>
0

> <i_epik_Tot_Q>
0

> <i_epik_Tot_abs_Q>
0

> <s_epik_Chemistry_Notes>
This compound has an ester and may undergo hydrolysis at high or low pH.

$$$$
