3nus_ligand
                    3D
 Schrodinger Suite 2020-3.
 17 18  0  0  1  0            999 V2000
  -41.6470   16.7550   12.7440 C   0  0  0  0  0  0
  -42.6540   15.9820   12.2070 C   0  0  0  0  0  0
  -40.3940   16.2470   13.0120 C   0  0  0  0  0  0
  -42.4820   14.6480   11.9040 C   0  0  0  0  0  0
  -40.1960   14.9090   12.7170 C   0  0  0  0  0  0
  -41.2270   14.1640   12.1840 C   0  0  0  0  0  0
  -39.1000   14.0160   12.8290 C   0  0  0  0  0  0
  -39.4300   12.7990   12.3950 N   0  0  0  0  0  0
  -40.7100   12.9160   12.0150 N   0  3  0  0  0  0
  -37.8980   14.4010   13.3140 N   0  0  0  0  0  0
  -41.8483   17.8034   12.9641 H   0  0  0  0  0  0
  -43.6229   16.4428   12.0146 H   0  0  0  0  0  0
  -39.6016   16.8655   13.4335 H   0  0  0  0  0  0
  -43.2734   14.0306   11.4790 H   0  0  0  0  0  0
  -37.7448   15.4392   13.6436 H   0  0  0  0  0  0
  -37.0733   13.6760   13.3790 H   0  0  0  0  0  0
  -41.2450   12.0448   11.6091 H   0  0  0  0  0  0
  1  2  2  0  0  0
  1  3  1  0  0  0
  1 11  1  0  0  0
  2  4  1  0  0  0
  2 12  1  0  0  0
  3  5  2  0  0  0
  3 13  1  0  0  0
  4  6  2  0  0  0
  4 14  1  0  0  0
  5  6  1  0  0  0
  5  7  1  0  0  0
  6  9  1  0  0  0
  7  8  2  0  0  0
  7 10  1  0  0  0
  8  9  1  0  0  0
  9 17  1  0  0  0
 10 15  1  0  0  0
 10 16  1  0  0  0
M  CHG  1   9   1
M  END
> <s_m_source_file>
../3nus_ligand.sdf

> <i_m_source_file_index>
1

> <s_epik_input>
W2NIXTFbY0hdW2NIXVtjSF1jKGMxMilbbkhdbmMyW05IMl0=

> <s_epik_cmdline>
J2VwaWtfYXBwJywgJy1pbWFlJywgJ2xpZ2FuZF9wcm8ubWFlJywgJy1vbWFlJywgJ2xpZ2FuZF9wcmVwLm1hZScsICctbXMnLCAnMScsICctcGgnLCAnNycsICctcGh0JywgJzAuNScsICctbnQn

> <r_lp_tautomer_probability>
1

> <r_epik_Ionization_Penalty>
  0.0000

> <r_epik_Ionization_Penalty_Charging>
  0.0000

> <r_epik_Ionization_Penalty_Neutral>
  0.0000

> <r_epik_State_Penalty>
 -0.0000

> <r_epik_Charging_Adjusted_Penalty>
0

> <i_epik_Tot_Q>
1

> <i_epik_Tot_abs_Q>
1

> <s_epik_Chemistry_Notes>
This compound has an imine and may undergo hydrolysis.

$$$$
