3nw3_ligand
                    3D
 Schrodinger Suite 2020-3.
 65 65  0  0  1  0            999 V2000
  -17.6450  -21.2200  -19.3950 C   0  0  2  0  0  0
  -17.5960  -20.3540  -18.2740 O   0  0  0  0  0  0
  -16.2940  -21.9300  -19.6460 C   0  0  2  0  0  0
  -15.4390  -21.6520  -18.4850 N   0  0  0  0  0  0
  -15.5920  -22.1650  -17.2490 C   0  0  0  0  0  0
  -16.4920  -22.9500  -16.9250 O   0  0  0  0  0  0
  -14.5620  -21.6940  -16.2570 C   0  0  0  0  0  0
  -15.4850  -21.3220  -20.8070 C   0  0  1  0  0  0
  -14.3330  -22.1430  -21.0880 O   0  0  0  0  0  0
  -16.3700  -20.9400  -22.0060 C   0  0  2  0  0  0
  -15.5870  -20.2620  -23.0090 O   0  0  0  0  0  0
  -17.4300  -19.9720  -21.4600 C   0  0  2  0  0  0
  -18.2880  -20.7160  -20.5830 O   0  0  0  0  0  0
  -18.2560  -19.3060  -22.5630 C   0  0  0  0  0  0
  -17.4990  -18.2110  -23.1200 O   0  0  0  0  0  0
  -14.1470  -22.6440  -22.4190 C   0  0  2  0  0  0
  -14.0540  -24.1640  -22.3950 C   0  0  0  0  0  0
  -12.9140  -22.0640  -23.0670 C   0  0  0  0  0  0
  -12.0600  -21.4990  -22.4030 O   0  0  0  0  0  0
  -12.8900  -22.2390  -24.3910 N   0  0  0  0  0  0
  -11.9550  -21.8500  -25.4550 C   0  0  1  0  0  0
  -12.6190  -20.6800  -26.1820 C   0  0  0  0  0  0
  -10.5020  -21.5120  -25.2000 C   0  0  0  0  0  0
  -10.0990  -21.1130  -24.1180 O   0  0  0  0  0  0
   -9.7360  -21.6730  -26.2920 N   0  0  0  0  0  0
   -8.3000  -21.4320  -26.4810 C   0  0  2  0  0  0
   -8.0880  -21.9720  -27.8980 C   0  0  0  0  0  0
   -6.8510  -21.4320  -28.6130 C   0  0  0  0  0  0
   -6.0070  -22.5910  -29.0970 C   0  0  0  0  0  0
   -6.4060  -23.2040  -30.2110 N   0  0  0  0  0  0
   -5.0090  -22.9270  -28.4790 O   0  0  0  0  0  0
   -7.3820  -22.1210  -25.5010 C   0  0  0  0  0  0
   -7.9040  -22.8020  -24.5810 O   0  0  0  0  0  0
   -6.1290  -22.0170  -25.6590 O   0  5  0  0  0  0
  -18.4354  -21.9092  -19.0630 H   0  0  0  0  0  0
  -17.1171  -20.6878  -17.3417 H   0  0  0  0  0  0
  -16.5032  -22.9968  -19.8138 H   0  0  0  0  0  0
  -14.5826  -20.9687  -18.5837 H   0  0  0  0  0  0
  -13.8618  -21.0065  -16.7540 H   0  0  0  0  0  0
  -14.0089  -22.5597  -15.8638 H   0  0  0  0  0  0
  -15.0628  -21.1717  -15.4285 H   0  0  0  0  0  0
  -14.9969  -20.3790  -20.5197 H   0  0  0  0  0  0
  -16.7915  -21.8162  -22.5204 H   0  0  0  0  0  0
  -14.7711  -20.7928  -23.5215 H   0  0  0  0  0  0
  -16.9540  -19.1741  -20.8711 H   0  0  0  0  0  0
  -18.4779  -20.0419  -23.3499 H   0  0  0  0  0  0
  -19.1977  -18.9280  -22.1384 H   0  0  0  0  0  0
  -17.9261  -17.6039  -23.9318 H   0  0  0  0  0  0
  -15.0355  -22.3019  -22.9700 H   0  0  0  0  0  0
  -14.9559  -24.5791  -21.9214 H   0  0  0  0  0  0
  -13.1658  -24.4680  -21.8216 H   0  0  0  0  0  0
  -13.9731  -24.5427  -23.4246 H   0  0  0  0  0  0
  -13.8020  -22.8019  -24.6389 H   0  0  0  0  0  0
  -11.8290  -22.8159  -25.9660 H   0  0  0  0  0  0
  -13.6761  -20.9182  -26.3711 H   0  0  0  0  0  0
  -12.1059  -20.5042  -27.1390 H   0  0  0  0  0  0
  -12.5526  -19.7759  -25.5589 H   0  0  0  0  0  0
  -10.3464  -22.0434  -27.1288 H   0  0  0  0  0  0
   -8.0788  -20.3695  -26.3017 H   0  0  0  0  0  0
   -7.9795  -23.0660  -27.8610 H   0  0  0  0  0  0
   -8.9542  -21.7104  -28.5235 H   0  0  0  0  0  0
   -7.1622  -20.8193  -29.4719 H   0  0  0  0  0  0
   -6.2646  -20.8153  -27.9160 H   0  0  0  0  0  0
   -7.3131  -22.8632  -30.7316 H   0  0  0  0  0  0
   -5.8283  -24.0508  -30.6099 H   0  0  0  0  0  0
  1  2  1  0  0  0
  1  3  1  0  0  0
  1 13  1  0  0  0
  1 35  1  0  0  0
  2 36  1  0  0  0
  3  4  1  0  0  0
  3  8  1  0  0  0
  3 37  1  0  0  0
  4  5  1  0  0  0
  4 38  1  0  0  0
  5  6  2  0  0  0
  5  7  1  0  0  0
  7 39  1  0  0  0
  7 40  1  0  0  0
  7 41  1  0  0  0
  8  9  1  0  0  0
  8 10  1  0  0  0
  8 42  1  0  0  0
  9 16  1  0  0  0
 10 11  1  0  0  0
 10 12  1  0  0  0
 10 43  1  0  0  0
 11 44  1  0  0  0
 12 13  1  0  0  0
 12 14  1  0  0  0
 12 45  1  0  0  0
 14 15  1  0  0  0
 14 46  1  0  0  0
 14 47  1  0  0  0
 15 48  1  0  0  0
 16 17  1  0  0  0
 16 18  1  0  0  0
 16 49  1  0  0  0
 17 50  1  0  0  0
 17 51  1  0  0  0
 17 52  1  0  0  0
 18 19  2  0  0  0
 18 20  1  0  0  0
 20 21  1  0  0  0
 20 53  1  0  0  0
 21 22  1  0  0  0
 21 23  1  0  0  0
 21 54  1  0  0  0
 22 55  1  0  0  0
 22 56  1  0  0  0
 22 57  1  0  0  0
 23 24  2  0  0  0
 23 25  1  0  0  0
 25 26  1  0  0  0
 25 58  1  0  0  0
 26 27  1  0  0  0
 26 32  1  0  0  0
 26 59  1  0  0  0
 27 28  1  0  0  0
 27 60  1  0  0  0
 27 61  1  0  0  0
 28 29  1  0  0  0
 28 62  1  0  0  0
 28 63  1  0  0  0
 29 30  1  0  0  0
 29 31  2  0  0  0
 30 64  1  0  0  0
 30 65  1  0  0  0
 32 33  2  0  0  0
 32 34  1  0  0  0
M  CHG  1  34  -1
M  END
> <s_m_source_file>
../3nw3_ligand.sdf

> <i_m_source_file_index>
1

> <s_epik_input>
Tz1DKFtDSDNdKVtOSF1bQ0BASF0oW0NASF0xW09IXSlbQ0BIXShbQ0BIXShbT0hdKVtDQEhdKE8xKVtDSDJdW09IXSlPW0NASF0oW0NIM10pQyg9TylbTkhdW0NAQEhdKFtDSDNdKUMoPU8pW05IXVtDQEBIXShDKD1PKVtPSF0pW0NIMl1bQ0gyXUMoPU8pW05IMl0=

> <s_epik_cmdline>
J2VwaWtfYXBwJywgJy1pbWFlJywgJ2xpZ2FuZF9wcm8ubWFlJywgJy1vbWFlJywgJ2xpZ2FuZF9wcmVwLm1hZScsICctbXMnLCAnMScsICctcGgnLCAnNycsICctcGh0JywgJzAuNScsICctbnQn

> <r_lp_tautomer_probability>
1

> <r_epik_Ionization_Penalty>
  0.0001

> <r_epik_Ionization_Penalty_Charging>
  0.0001

> <r_epik_Ionization_Penalty_Neutral>
  0.0000

> <r_epik_State_Penalty>
 -0.0000

> <r_epik_Charging_Adjusted_Penalty>
0.000114065176020957

> <i_epik_Tot_Q>
-1

> <i_epik_Tot_abs_Q>
1

> <s_epik_Chemistry_Notes>
This compound contains an acetal/aminal-like group ( X-CH(R)-Y where X, Y are N, S, or O) that may be acid/base labile, releasing an aldehyde.

$$$$
