3nw6_ligand
                    3D
 Schrodinger Suite 2020-3.
 52 57  0  0  1  0            999 V2000
  -16.4110    7.4650   10.4150 N   0  0  0  0  0  0
  -17.1080    6.9940   11.5160 C   0  0  0  0  0  0
  -17.5720    8.0950   12.3100 C   0  0  0  0  0  0
  -17.1170    9.2330   11.6250 C   0  0  0  0  0  0
  -16.4150    8.8180   10.4790 C   0  0  0  0  0  0
  -15.8680    6.5940    9.5050 N   0  0  0  0  0  0
  -15.9780    5.2610    9.6250 C   0  0  0  0  0  0
  -16.6480    4.7630   10.6830 N   0  0  0  0  0  0
  -17.1980    5.6150   11.6050 C   0  0  0  0  0  0
  -17.8660    5.1100   12.6590 N   0  0  0  0  0  0
  -18.0990    3.6890   12.9590 C   0  0  0  0  0  0
  -17.7980    2.4260   12.3000 C   0  0  0  0  0  0
  -18.3150    1.3880   13.1520 C   0  0  3  0  0  0
  -18.8580    2.0190   14.1990 N   0  0  0  0  0  0
  -18.7310    3.3370   14.0810 N   0  0  0  0  0  0
  -18.3300   -0.1470   13.0470 C   0  0  0  0  0  0
  -19.1040   -0.2790   11.7720 C   0  0  0  0  0  0
  -17.5890   -0.3710   11.7850 C   0  0  0  0  0  0
  -15.3620    4.3760    8.5960 C   0  0  1  0  0  0
  -14.5730    3.2790    9.1640 N   0  0  0  0  0  0
  -14.9350    1.9720    8.6100 C   0  0  0  0  0  0
  -15.8280    2.3040    7.3980 C   0  0  0  0  0  0
  -16.3850    3.7410    7.6400 C   0  0  0  0  0  0
  -13.6190    3.5410   10.1070 C   0  0  0  0  0  0
  -13.1690    4.6680   10.2530 O   0  0  0  0  0  0
  -13.0990    2.5030   10.9740 C   0  0  0  0  0  0
  -13.9690    1.6500   11.6860 C   0  0  0  0  0  0
  -13.4740    0.6660   12.5100 C   0  0  0  0  0  0
  -12.0890    0.5460   12.6130 C   0  0  0  0  0  0
  -11.2190    1.3540   11.9370 N   0  0  0  0  0  0
  -11.7120    2.3330   11.1170 C   0  0  0  0  0  0
  -11.7040   -0.4390   13.4370 F   0  0  0  0  0  0
  -18.1472    8.0568   13.2351 H   0  0  0  0  0  0
  -17.2806   10.2664   11.9306 H   0  0  0  0  0  0
  -15.9462    9.4831    9.7537 H   0  0  0  0  0  0
  -18.3054    5.7863   13.4070 H   0  0  0  0  0  0
  -17.2692    2.4212   11.3355 H   0  0  0  0  0  0
  -18.3227   -0.6268   14.0368 H   0  0  0  0  0  0
  -19.7913   -1.1346   11.8472 H   0  0  0  0  0  0
  -19.6813    0.6407   11.5966 H   0  0  0  0  0  0
  -16.9027    0.4703   11.6085 H   0  0  0  0  0  0
  -17.0126   -1.3050   11.8590 H   0  0  0  0  0  0
  -14.6747    5.0609    8.0777 H   0  0  0  0  0  0
  -14.0225    1.4340    8.3134 H   0  0  0  0  0  0
  -15.4742    1.3880    9.3704 H   0  0  0  0  0  0
  -15.2266    2.2649    6.4778 H   0  0  0  0  0  0
  -16.6455    1.5709    7.3331 H   0  0  0  0  0  0
  -17.3753    3.7279    8.1188 H   0  0  0  0  0  0
  -16.4342    4.3296    6.7120 H   0  0  0  0  0  0
  -15.0471    1.7724   11.5817 H   0  0  0  0  0  0
  -14.1407    0.0040   13.0625 H   0  0  0  0  0  0
  -11.0261    2.9827   10.5733 H   0  0  0  0  0  0
  1  2  1  0  0  0
  1  5  1  0  0  0
  1  6  1  0  0  0
  2  3  2  0  0  0
  2  9  1  0  0  0
  3  4  1  0  0  0
  3 33  1  0  0  0
  4  5  2  0  0  0
  4 34  1  0  0  0
  5 35  1  0  0  0
  6  7  2  0  0  0
  7  8  1  0  0  0
  7 19  1  0  0  0
  8  9  2  0  0  0
  9 10  1  0  0  0
 10 11  1  0  0  0
 10 36  1  0  0  0
 11 12  2  0  0  0
 11 15  1  0  0  0
 12 13  1  0  0  0
 12 37  1  0  0  0
 13 14  1  0  0  0
 13 16  1  0  0  0
 14 15  2  0  0  0
 16 17  1  0  0  0
 16 18  1  0  0  0
 16 38  1  0  0  0
 17 18  1  0  0  0
 17 39  1  0  0  0
 17 40  1  0  0  0
 18 41  1  0  0  0
 18 42  1  0  0  0
 19 20  1  0  0  0
 19 23  1  0  0  0
 19 43  1  0  0  0
 20 21  1  0  0  0
 20 24  1  0  0  0
 21 22  1  0  0  0
 21 44  1  0  0  0
 21 45  1  0  0  0
 22 23  1  0  0  0
 22 46  1  0  0  0
 22 47  1  0  0  0
 23 48  1  0  0  0
 23 49  1  0  0  0
 24 25  2  0  0  0
 24 26  1  0  0  0
 26 27  2  0  0  0
 26 31  1  0  0  0
 27 28  1  0  0  0
 27 50  1  0  0  0
 28 29  2  0  0  0
 28 51  1  0  0  0
 29 30  1  0  0  0
 29 32  1  0  0  0
 30 31  2  0  0  0
 31 52  1  0  0  0
M  END
> <s_m_source_file>
../3nw6_ligand.sdf

> <i_m_source_file_index>
1

> <s_epik_input>
W0NIMl0xW0NIMl1bQ0hdMVtDSF0oTj1OMilbQ0hdPUMyW05IXWMoYyhuMzQpW2NIXVtjSF1bY0hdMyluYyhuNClbQ0BIXTVOKFtDSDJdW0NIMl1bQ0gyXTUpQyg9TyljNltjSF1bY0hdYyhGKW5bY0hdNg==

> <s_epik_cmdline>
J2VwaWtfYXBwJywgJy1pbWFlJywgJ2xpZ2FuZF9wcm8ubWFlJywgJy1vbWFlJywgJ2xpZ2FuZF9wcmVwLm1hZScsICctbXMnLCAnMScsICctcGgnLCAnNycsICctcGh0JywgJzAuNScsICctbnQn

> <r_epik_Ionization_Penalty>
  0.0621

> <r_epik_Ionization_Penalty_Charging>
  0.0000

> <r_epik_Ionization_Penalty_Neutral>
  0.0621

> <r_epik_State_Penalty>
  0.0538

> <r_epik_Charging_Adjusted_Penalty>
0.0537701387415916

> <i_epik_Tot_Q>
0

> <i_epik_Tot_abs_Q>
0

$$$$
