3nw7_ligand
                    3D
 Schrodinger Suite 2020-3.
 47 51  0  0  1  0            999 V2000
  -17.4570    8.9330   11.3080 C   0  0  0  0  0  0
  -12.8690    2.0720   11.7070 C   0  0  0  0  0  0
  -17.9820    7.8730   12.0950 C   0  0  0  0  0  0
  -11.9540    1.5210   12.6090 C   0  0  0  0  0  0
  -18.4740    2.4290   12.7460 C   0  0  0  0  0  0
  -14.4440    0.4060   12.4090 C   0  0  0  0  0  0
  -16.7490    8.3690   10.2640 C   0  0  0  0  0  0
  -14.1460    1.4960   11.6000 C   0  0  0  0  0  0
  -17.5770    6.6970   11.5070 C   0  0  0  0  0  0
  -18.9330    1.4430   13.6050 C   0  0  0  0  0  0
  -18.7850    3.6650   13.3880 C   0  0  0  0  0  0
  -12.3630    0.4360   13.3540 C   0  0  0  0  0  0
  -17.7880    5.3070   11.8330 C   0  0  0  0  0  0
  -16.4970    4.8650    9.9180 C   0  0  0  0  0  0
  -15.2270    1.9800   10.7030 C   0  0  0  0  0  0
  -18.3440   -0.7040   12.1660 C   0  0  0  0  0  0
  -19.8180   -0.7170   12.4470 C   0  0  0  0  0  0
  -18.8680   -0.0760   13.4280 C   0  0  0  0  0  0
  -15.9320    3.7260    9.1060 C   0  0  0  0  0  0
  -13.5820   -0.1380   13.2800 N   0  0  0  0  0  0
  -19.3920    3.4250   14.5620 N   0  3  0  0  0  0
  -17.2260    4.4570   11.0090 N   0  0  0  0  0  0
  -16.2630    6.0910    9.5670 N   0  0  0  0  0  0
  -19.4720    2.0820   14.6740 N   0  3  0  0  0  0
  -16.8270    7.0110   10.3940 N   0  0  0  0  0  0
  -18.5370    4.9380   12.9470 N   0  0  0  0  0  0
  -14.9470    3.1040    9.9670 N   0  0  0  0  0  0
  -16.3050    1.3970   10.6820 O   0  0  0  0  0  0
  -11.5100   -0.1090   14.2230 F   0  0  0  0  0  0
  -17.5889    9.9988   11.4942 H   0  0  0  0  0  0
  -12.5964    2.9335   11.0974 H   0  0  0  0  0  0
  -18.5902    7.9726   12.9940 H   0  0  0  0  0  0
  -10.9518    1.9352   12.7193 H   0  0  0  0  0  0
  -17.9898    2.1510   11.7983 H   0  0  0  0  0  0
  -15.4385   -0.0332   12.3307 H   0  0  0  0  0  0
  -16.2227    8.9103    9.4778 H   0  0  0  0  0  0
  -17.9782   -1.7377   12.0790 H   0  0  0  0  0  0
  -18.1549   -0.1678   11.2244 H   0  0  0  0  0  0
  -20.3493   -0.1871   11.6427 H   0  0  0  0  0  0
  -20.1725   -1.7571   12.4973 H   0  0  0  0  0  0
  -18.6154   -0.2046   14.4909 H   0  0  0  0  0  0
  -16.7399    3.0274    8.8426 H   0  0  0  0  0  0
  -15.4755    4.1220    8.1869 H   0  0  0  0  0  0
  -18.9491    5.7993   13.4932 H   0  0  0  0  0  0
  -13.9369    3.5323   10.0461 H   0  0  0  0  0  0
  -19.9367    1.6310   15.5632 H   0  0  0  0  0  0
  -19.7059    4.2639   15.2005 H   0  0  0  0  0  0
  1  3  1  0  0  0
  1  7  2  0  0  0
  1 30  1  0  0  0
  2  4  2  0  0  0
  2  8  1  0  0  0
  2 31  1  0  0  0
  3  9  2  0  0  0
  3 32  1  0  0  0
  4 12  1  0  0  0
  4 33  1  0  0  0
  5 10  2  0  0  0
  5 11  1  0  0  0
  5 34  1  0  0  0
  6  8  2  0  0  0
  6 20  1  0  0  0
  6 35  1  0  0  0
  7 25  1  0  0  0
  7 36  1  0  0  0
  8 15  1  0  0  0
  9 13  1  0  0  0
  9 25  1  0  0  0
 10 18  1  0  0  0
 10 24  1  0  0  0
 11 21  2  0  0  0
 11 26  1  0  0  0
 12 20  2  0  0  0
 12 29  1  0  0  0
 13 22  2  0  0  0
 13 26  1  0  0  0
 14 19  1  0  0  0
 14 22  1  0  0  0
 14 23  2  0  0  0
 15 27  1  0  0  0
 15 28  2  0  0  0
 16 17  1  0  0  0
 16 18  1  0  0  0
 16 37  1  0  0  0
 16 38  1  0  0  0
 17 18  1  0  0  0
 17 39  1  0  0  0
 17 40  1  0  0  0
 18 41  1  0  0  0
 19 27  1  0  0  0
 19 42  1  0  0  0
 19 43  1  0  0  0
 21 24  1  0  0  0
 21 47  1  0  0  0
 23 25  1  0  0  0
 24 46  1  0  0  0
 26 44  1  0  0  0
 27 45  1  0  0  0
M  CHG  2  21   1  24   1
M  END
> <s_m_source_file>
../3nw7_ligand.sdf

> <i_m_source_file_index>
1

> <s_epik_input>
W0NIMl0xW0NIMl1bQ0hdMWMyW2NIXWMobltuSF0yKVtOSF1jM25jKG5uKGMzNClbY0hdW2NIXVtjSF00KVtDSDJdW05IXUMoPU8pYzVbY0hdW2NIXWMoRiluW2NIXTU=

> <s_epik_cmdline>
J2VwaWtfYXBwJywgJy1pbWFlJywgJ2xpZ2FuZF9wcm8ubWFlJywgJy1vbWFlJywgJ2xpZ2FuZF9wcmVwLm1hZScsICctbXMnLCAnMScsICctcGgnLCAnNycsICctcGh0JywgJzAuNScsICctbnQn

> <r_epik_Ionization_Penalty>
  0.0637

> <r_epik_Ionization_Penalty_Charging>
  0.0604

> <r_epik_Ionization_Penalty_Neutral>
  0.0033

> <r_epik_State_Penalty>
  0.0523

> <r_epik_Charging_Adjusted_Penalty>
0.11270471619658

> <i_epik_Tot_Q>
2

> <i_epik_Tot_abs_Q>
2

> <s_epik_Chemistry_Notes>
This compound has an imine and may undergo hydrolysis.

$$$$
