3nww_ligand
                    3D
 Schrodinger Suite 2020-3.
 69 71  0  0  1  0            999 V2000
   -3.5610    0.9220   20.4690 C   0  0  0  0  0  0
   -2.9290    1.0440   21.7220 C   0  0  0  0  0  0
   -2.3930    2.2650   22.1030 N   0  0  0  0  0  0
   -2.4350    3.3690   21.3390 C   0  0  0  0  0  0
   -3.0350    3.2950   20.1230 N   0  0  0  0  0  0
   -3.6000    2.0940   19.6720 C   0  0  0  0  0  0
   -2.8040   -0.0900   22.6800 C   0  0  0  0  0  0
   -2.9980   -1.4720   22.4390 C   0  0  0  0  0  0
   -2.7800   -2.1540   23.5930 N   0  0  0  0  0  0
   -2.4390   -1.4080   24.6770 C   0  0  0  0  0  0
   -2.3740    0.2510   24.2800 S   0  0  0  0  0  0
   -2.1680   -1.9840   26.0040 N   0  0  0  0  0  0
   -1.7040   -1.1800   27.1570 C   0  0  0  0  0  0
   -0.2040   -0.9250   27.0220 C   0  0  0  0  0  0
   -1.8580   -1.9620   28.4510 C   0  0  0  0  0  0
   -1.8650    4.5080   21.8410 N   0  0  0  0  0  0
   -5.5950    1.6950   15.7160 C   0  0  0  0  0  0
   -4.2660    1.9650   18.3460 C   0  0  0  0  0  0
   -3.5930    2.3120   17.0990 C   0  0  0  0  0  0
   -4.2380    2.1850   15.7950 C   0  0  0  0  0  0
   -6.2670    1.3480   16.9470 C   0  0  0  0  0  0
   -5.6540    1.4650   18.2370 C   0  0  0  0  0  0
   -2.1790    2.8320   17.0650 C   0  0  0  0  0  0
    1.9670    5.9860   22.1270 C   0  0  0  0  0  0
    0.5030    6.1880   22.0070 N   0  3  0  0  0  0
   -0.1610    5.6690   23.2220 C   0  0  0  0  0  0
   -0.8590    4.3590   22.9080 C   0  0  0  0  0  0
    0.1930    7.6240   21.9340 C   0  0  0  0  0  0
   -1.9550    3.6490   15.8730 N   0  0  0  0  0  0
   -0.7820    3.5740   15.1960 C   0  0  0  0  0  0
   -0.6810    4.4670   14.1920 N   0  0  0  0  0  0
    0.0990    2.7670   15.4760 O   0  0  0  0  0  0
    0.5320    4.4640   13.3650 C   0  0  0  0  0  0
    0.1160    4.3180   11.8940 C   0  0  0  0  0  0
   -3.9951   -0.0192   20.1316 H   0  0  0  0  0  0
   -3.2768   -1.9158   21.4833 H   0  0  0  0  0  0
   -2.3261   -3.0667   26.1165 H   0  0  0  0  0  0
   -2.3116   -0.2631   27.1529 H   0  0  0  0  0  0
   -0.0101   -0.3578   26.0997 H   0  0  0  0  0  0
    0.3290   -1.8863   26.9802 H   0  0  0  0  0  0
    0.1492   -0.3473   27.8889 H   0  0  0  0  0  0
   -2.9217   -2.1859   28.6197 H   0  0  0  0  0  0
   -1.4718   -1.3635   29.2893 H   0  0  0  0  0  0
   -1.2920   -2.9026   28.3806 H   0  0  0  0  0  0
   -2.1342    5.5097   21.4749 H   0  0  0  0  0  0
   -6.0977    1.5901   14.7545 H   0  0  0  0  0  0
   -3.6994    2.4580   14.8875 H   0  0  0  0  0  0
   -7.2911    0.9789   16.8918 H   0  0  0  0  0  0
   -6.2078    1.1869   19.1337 H   0  0  0  0  0  0
   -1.9933    3.4480   17.9572 H   0  0  0  0  0  0
   -1.4771    1.9852   17.0516 H   0  0  0  0  0  0
    2.1854    4.9092   22.1806 H   0  0  0  0  0  0
    2.3317    6.4800   23.0397 H   0  0  0  0  0  0
    2.4700    6.4189   21.2497 H   0  0  0  0  0  0
    0.1509    5.6743   21.1003 H   0  0  0  0  0  0
    0.5908    5.5009   24.0072 H   0  0  0  0  0  0
   -0.9029    6.4003   23.5752 H   0  0  0  0  0  0
   -1.3487    4.0033   23.8265 H   0  0  0  0  0  0
   -0.0962    3.6314   22.5938 H   0  0  0  0  0  0
    0.6681    8.0567   21.0412 H   0  0  0  0  0  0
    0.5758    8.1279   22.8338 H   0  0  0  0  0  0
   -0.8967    7.7612   21.8724 H   0  0  0  0  0  0
   -2.7413    4.3317   15.5184 H   0  0  0  0  0  0
   -1.4850    5.1890   13.9864 H   0  0  0  0  0  0
    1.0768    5.4086   13.5098 H   0  0  0  0  0  0
    1.1746    3.6212   13.6596 H   0  0  0  0  0  0
    1.0134    4.3137   11.2579 H   0  0  0  0  0  0
   -0.5305    5.1615   11.6104 H   0  0  0  0  0  0
   -0.4328    3.3741   11.7601 H   0  0  0  0  0  0
  1  2  2  0  0  0
  1  6  1  0  0  0
  1 35  1  0  0  0
  2  3  1  0  0  0
  2  7  1  0  0  0
  3  4  2  0  0  0
  4  5  1  0  0  0
  4 16  1  0  0  0
  5  6  2  0  0  0
  6 18  1  0  0  0
  7  8  2  0  0  0
  7 11  1  0  0  0
  8  9  1  0  0  0
  8 36  1  0  0  0
  9 10  2  0  0  0
 10 11  1  0  0  0
 10 12  1  0  0  0
 12 13  1  0  0  0
 12 37  1  0  0  0
 13 14  1  0  0  0
 13 15  1  0  0  0
 13 38  1  0  0  0
 14 39  1  0  0  0
 14 40  1  0  0  0
 14 41  1  0  0  0
 15 42  1  0  0  0
 15 43  1  0  0  0
 15 44  1  0  0  0
 16 27  1  0  0  0
 16 45  1  0  0  0
 17 20  2  0  0  0
 17 21  1  0  0  0
 17 46  1  0  0  0
 18 19  2  0  0  0
 18 22  1  0  0  0
 19 20  1  0  0  0
 19 23  1  0  0  0
 20 47  1  0  0  0
 21 22  2  0  0  0
 21 48  1  0  0  0
 22 49  1  0  0  0
 23 29  1  0  0  0
 23 50  1  0  0  0
 23 51  1  0  0  0
 24 25  1  0  0  0
 24 52  1  0  0  0
 24 53  1  0  0  0
 24 54  1  0  0  0
 25 26  1  0  0  0
 25 28  1  0  0  0
 25 55  1  0  0  0
 26 27  1  0  0  0
 26 56  1  0  0  0
 26 57  1  0  0  0
 27 58  1  0  0  0
 27 59  1  0  0  0
 28 60  1  0  0  0
 28 61  1  0  0  0
 28 62  1  0  0  0
 29 30  1  0  0  0
 29 63  1  0  0  0
 30 31  1  0  0  0
 30 32  2  0  0  0
 31 33  1  0  0  0
 31 64  1  0  0  0
 33 34  1  0  0  0
 33 65  1  0  0  0
 33 66  1  0  0  0
 34 67  1  0  0  0
 34 68  1  0  0  0
 34 69  1  0  0  0
M  CHG  1  25   1
M  END
> <s_m_source_file>
../3nww_ligand.sdf

> <i_m_source_file_index>
1

> <s_epik_input>
W0NIM11bQ0hdKFtDSDNdKVtOSF1jKHMxKW5bY0hdYzEtYzJbY0hdYyhuYyhuMilbTkhdW0NIMl1bQ0gyXVtOSCtdKFtDSDNdKVtDSDNdKS1jM2MoW2NIXVtjSF1bY0hdW2NIXTMpW0NIMl1bTkhdQyg9TylbTkhdW0NIMl1bQ0gzXQ==

> <s_epik_cmdline>
J2VwaWtfYXBwJywgJy1pbWFlJywgJ2xpZ2FuZF9wcm8ubWFlJywgJy1vbWFlJywgJ2xpZ2FuZF9wcmVwLm1hZScsICctbXMnLCAnMScsICctcGgnLCAnNycsICctcGh0JywgJzAuNScsICctbnQn

> <r_lp_tautomer_probability>
1

> <r_epik_Ionization_Penalty>
  0.0032

> <r_epik_Ionization_Penalty_Charging>
  0.0017

> <r_epik_Ionization_Penalty_Neutral>
  0.0015

> <r_epik_State_Penalty>
 -0.0000

> <r_epik_Charging_Adjusted_Penalty>
0.00172848563458732

> <i_epik_Tot_Q>
1

> <i_epik_Tot_abs_Q>
1

$$$$
