3nxq_ligand
                    3D
 Schrodinger Suite 2020-3.
 63 63  0  0  1  0            999 V2000
   -7.5060  -19.3570  -23.2410 C   0  0  0  0  0  0
   -7.7620  -18.3480  -22.1590 C   0  0  0  0  0  0
   -8.3630  -19.6230  -24.0750 O   0  0  0  0  0  0
   -4.1880  -18.8950  -23.0540 C   0  0  0  0  0  0
   -4.0730  -19.0630  -24.2540 O   0  0  0  0  0  0
   -5.2250  -19.6980  -22.3380 C   0  0  2  0  0  0
   -4.6910  -21.0680  -21.9530 C   0  0  0  0  0  0
   -5.7510  -21.7530  -21.1230 C   0  0  0  0  0  0
   -6.0410  -21.2440  -20.0210 O   0  0  0  0  0  0
   -6.3050  -22.7880  -21.5640 O   0  5  0  0  0  0
   -6.3150  -19.9630  -23.2680 N   0  0  0  0  0  0
   -5.1940  -15.4070  -22.0910 C   0  0  0  0  0  0
   -6.4970  -15.0460  -22.4600 C   0  0  0  0  0  0
   -6.7680  -14.6290  -23.7650 C   0  0  0  0  0  0
   -5.7360  -14.5760  -24.7010 C   0  0  0  0  0  0
   -4.4340  -14.9330  -24.3340 C   0  0  0  0  0  0
   -4.1590  -15.3530  -23.0300 C   0  0  0  0  0  0
   -2.7480  -15.7500  -22.6310 C   0  0  0  0  0  0
   -2.4510  -17.2060  -23.0280 C   0  0  1  0  0  0
   -0.7630  -17.7120  -22.5710 P   0  0  2  0  0  0
   -0.5340  -19.0460  -23.2270 O   0  0  0  0  0  0
   -0.5880  -17.6640  -21.0700 O   0  5  0  0  0  0
   -3.4480  -18.0280  -22.3510 N   0  0  0  0  0  0
    0.3200  -16.4960  -23.3570 C   0  0  0  0  0  0
    1.6900  -16.4160  -22.6870 C   0  0  1  0  0  0
    2.7360  -16.0930  -23.7530 C   0  0  0  0  0  0
    1.7230  -15.2970  -21.6820 C   0  0  0  0  0  0
    0.9020  -14.3860  -21.7360 O   0  0  0  0  0  0
    2.7050  -15.3610  -20.7760 N   0  0  0  0  0  0
    2.9270  -14.3460  -19.7560 C   0  0  1  0  0  0
    4.0510  -14.7870  -18.8150 C   0  0  0  0  0  0
    3.3370  -13.0720  -20.4370 C   0  0  0  0  0  0
    3.9910  -13.1240  -21.4730 O   0  0  0  0  0  0
    2.9640  -11.9270  -19.8890 N   0  0  0  0  0  0
   -8.7778  -17.9408  -22.2703 H   0  0  0  0  0  0
   -7.0290  -17.5316  -22.2381 H   0  0  0  0  0  0
   -7.6668  -18.8324  -21.1760 H   0  0  0  0  0  0
   -5.5587  -19.1208  -21.4631 H   0  0  0  0  0  0
   -4.4813  -21.6488  -22.8633 H   0  0  0  0  0  0
   -3.7646  -20.9504  -21.3716 H   0  0  0  0  0  0
   -6.1882  -20.7098  -24.0656 H   0  0  0  0  0  0
   -4.9870  -15.7303  -21.0708 H   0  0  0  0  0  0
   -7.3015  -15.0909  -21.7260 H   0  0  0  0  0  0
   -7.7813  -14.3464  -24.0504 H   0  0  0  0  0  0
   -5.9442  -14.2555  -25.7218 H   0  0  0  0  0  0
   -3.6304  -14.8833  -25.0687 H   0  0  0  0  0  0
   -2.0253  -15.0925  -23.1364 H   0  0  0  0  0  0
   -2.6336  -15.6515  -21.5414 H   0  0  0  0  0  0
   -2.7243  -17.2948  -24.0898 H   0  0  0  0  0  0
   -3.5913  -17.9353  -21.2643 H   0  0  0  0  0  0
    0.4735  -16.7691  -24.4115 H   0  0  0  0  0  0
   -0.1442  -15.5004  -23.2999 H   0  0  0  0  0  0
    1.8935  -17.3685  -22.1758 H   0  0  0  0  0  0
    2.7450  -16.8899  -24.5112 H   0  0  0  0  0  0
    3.7283  -16.0224  -23.2835 H   0  0  0  0  0  0
    2.4877  -15.1342  -24.2317 H   0  0  0  0  0  0
    3.3641  -16.2400  -20.8299 H   0  0  0  0  0  0
    1.9819  -14.2149  -19.2086 H   0  0  0  0  0  0
    3.7614  -15.7204  -18.3101 H   0  0  0  0  0  0
    4.2287  -14.0035  -18.0636 H   0  0  0  0  0  0
    4.9705  -14.9540  -19.3952 H   0  0  0  0  0  0
    2.3776  -11.9279  -18.9583 H   0  0  0  0  0  0
    3.2402  -10.9741  -20.3641 H   0  0  0  0  0  0
  1  2  1  0  0  0
  1  3  2  0  0  0
  1 11  1  0  0  0
  2 35  1  0  0  0
  2 36  1  0  0  0
  2 37  1  0  0  0
  4  5  2  0  0  0
  4  6  1  0  0  0
  4 23  1  0  0  0
  6  7  1  0  0  0
  6 11  1  0  0  0
  6 38  1  0  0  0
  7  8  1  0  0  0
  7 39  1  0  0  0
  7 40  1  0  0  0
  8  9  2  0  0  0
  8 10  1  0  0  0
 11 41  1  0  0  0
 12 13  2  0  0  0
 12 17  1  0  0  0
 12 42  1  0  0  0
 13 14  1  0  0  0
 13 43  1  0  0  0
 14 15  2  0  0  0
 14 44  1  0  0  0
 15 16  1  0  0  0
 15 45  1  0  0  0
 16 17  2  0  0  0
 16 46  1  0  0  0
 17 18  1  0  0  0
 18 19  1  0  0  0
 18 47  1  0  0  0
 18 48  1  0  0  0
 19 20  1  0  0  0
 19 23  1  0  0  0
 19 49  1  0  0  0
 20 21  2  0  0  0
 20 22  1  0  0  0
 20 24  1  0  0  0
 23 50  1  0  0  0
 24 25  1  0  0  0
 24 51  1  0  0  0
 24 52  1  0  0  0
 25 26  1  0  0  0
 25 27  1  0  0  0
 25 53  1  0  0  0
 26 54  1  0  0  0
 26 55  1  0  0  0
 26 56  1  0  0  0
 27 28  2  0  0  0
 27 29  1  0  0  0
 29 30  1  0  0  0
 29 57  1  0  0  0
 30 31  1  0  0  0
 30 32  1  0  0  0
 30 58  1  0  0  0
 31 59  1  0  0  0
 31 60  1  0  0  0
 31 61  1  0  0  0
 32 33  2  0  0  0
 32 34  1  0  0  0
 34 62  1  0  0  0
 34 63  1  0  0  0
M  CHG  2  10  -1  22  -1
M  END
> <s_m_source_file>
../3nxq_ligand.sdf

> <i_m_source_file_index>
1

> <s_epik_input>
W2NIXTFbY0hdW2NIXVtjSF1bY0hdYzFbQ0gyXVtDQEhdKFtOSF1DKD1PKVtDQEhdKFtDSDJdQyg9TylbT0hdKVtOSF1DKD1PKVtDSDNdKVtQQF0oPU8pKFtPSF0pW0NIMl1bQ0BASF0oW0NIM10pQyg9TylbTkhdW0NAQEhdKFtDSDNdKUMoPU8pW05IMl0=

> <s_epik_cmdline>
J2VwaWtfYXBwJywgJy1pbWFlJywgJ2xpZ2FuZF9wcm8ubWFlJywgJy1vbWFlJywgJ2xpZ2FuZF9wcmVwLm1hZScsICctbXMnLCAnMScsICctcGgnLCAnNycsICctcGh0JywgJzAuNScsICctbnQn

> <r_lp_tautomer_probability>
1

> <r_epik_Ionization_Penalty>
  0.0025

> <r_epik_Ionization_Penalty_Charging>
  0.0025

> <r_epik_Ionization_Penalty_Neutral>
  0.0000

> <r_epik_State_Penalty>
 -0.0000

> <r_epik_Charging_Adjusted_Penalty>
0.00252276520197424

> <i_epik_Tot_Q>
-2

> <i_epik_Tot_abs_Q>
2

$$$$
