3ny3_ligand
                    3D
 Schrodinger Suite 2020-3.
 77 77  0  0  1  0            999 V2000
   13.1660    1.5290   10.2310 N   0  3  0  0  0  0
   13.6500    1.5720    8.8240 C   0  0  2  0  0  0
   15.0400    0.9440    8.7430 C   0  0  0  0  0  0
   15.7330    0.8040    9.7520 O   0  0  0  0  0  0
   13.7020    3.0220    8.3050 C   0  0  0  0  0  0
   12.4100    3.8370    8.4930 C   0  0  0  0  0  0
   11.2850    3.3270    7.5930 C   0  0  0  0  0  0
   10.1960    4.3020    7.5090 N   0  0  0  0  0  0
    9.3080    4.5430    8.4710 C   0  0  0  0  0  0
    9.3320    3.8780    9.6280 N   0  0  0  0  0  0
    8.3790    5.4790    8.2750 N   0  3  0  0  0  0
   15.4530    0.5790    7.5310 N   0  0  0  0  0  0
   16.8030    0.0570    7.3130 C   0  0  2  0  0  0
   17.8360    1.0770    7.8080 C   0  0  0  0  0  0
   17.5560    2.2770    7.8240 O   0  0  0  0  0  0
   17.0210   -0.3340    5.8310 C   0  0  2  0  0  0
   16.0670   -1.4800    5.4480 C   0  0  0  0  0  0
   18.4790   -0.7290    5.5770 C   0  0  0  0  0  0
   16.2510   -2.0470    4.0230 C   0  0  0  0  0  0
   19.0080    0.5980    8.2420 N   0  0  0  0  0  0
   20.0520    1.4820    8.7690 C   0  0  2  0  0  0
   20.3160    2.6730    7.8480 C   0  0  0  0  0  0
   20.5140    2.5060    6.6470 O   0  0  0  0  0  0
   21.3530    0.7170    9.0170 C   0  0  0  0  0  0
   22.4110    1.5340    9.7130 C   0  0  0  0  0  0
   23.6140    1.8190    9.0750 C   0  0  0  0  0  0
   22.1940    2.0340   11.0030 C   0  0  0  0  0  0
   24.5940    2.5820    9.7110 C   0  0  0  0  0  0
   23.1710    2.8060   11.6510 C   0  0  0  0  0  0
   24.3780    3.0730   10.9970 C   0  0  0  0  0  0
   20.3110    3.8670    8.4290 N   0  0  0  0  0  0
   20.5030    5.0850    7.6550 C   0  0  2  0  0  0
   21.5540    5.9640    8.3170 C   0  0  0  0  0  0
   21.9700    7.0092    7.7496 O   0  0  0  0  0  0
   19.1800    5.8430    7.5220 C   0  0  0  0  0  0
   18.7520    6.3350    8.7820 O   0  0  0  0  0  0
   22.0135    5.6430    9.4455 O   0  5  0  0  0  0
   13.1380    0.4853   10.5774 H   0  0  0  0  0  0
   12.1555    1.9603   10.2845 H   0  0  0  0  0  0
   13.8468    2.1096   10.8708 H   0  0  0  0  0  0
   12.9356    0.9911    8.2222 H   0  0  0  0  0  0
   14.4961    3.5716    8.8316 H   0  0  0  0  0  0
   13.9130    3.0177    7.2254 H   0  0  0  0  0  0
   12.0780    3.7618    9.5390 H   0  0  0  0  0  0
   12.6019    4.8911    8.2441 H   0  0  0  0  0  0
   11.6773    3.1490    6.5809 H   0  0  0  0  0  0
   10.8857    2.3872    8.0020 H   0  0  0  0  0  0
   10.0655    4.9036    6.5974 H   0  0  0  0  0  0
   10.0936    3.1035    9.8015 H   0  0  0  0  0  0
    8.5902    4.1044   10.4080 H   0  0  0  0  0  0
    8.3490    6.0338    7.3257 H   0  0  0  0  0  0
   14.7575    0.6760    6.6843 H   0  0  0  0  0  0
   16.8815   -0.8553    7.9225 H   0  0  0  0  0  0
   16.8048    0.5352    5.1924 H   0  0  0  0  0  0
   16.2108   -2.3234    6.1394 H   0  0  0  0  0  0
   15.0268   -1.1277    5.5108 H   0  0  0  0  0  0
   19.1391    0.1049    5.8580 H   0  0  0  0  0  0
   18.6155   -0.9613    4.5105 H   0  0  0  0  0  0
   18.7294   -1.6142    6.1801 H   0  0  0  0  0  0
   15.5246   -2.8554    3.8534 H   0  0  0  0  0  0
   17.2717   -2.4425    3.9147 H   0  0  0  0  0  0
   16.0877   -1.2468    3.2861 H   0  0  0  0  0  0
   19.1782   -0.4878    8.1962 H   0  0  0  0  0  0
   19.6385    1.8455    9.7213 H   0  0  0  0  0  0
   21.1479   -0.1603    9.6482 H   0  0  0  0  0  0
   21.7732    0.3868    8.0555 H   0  0  0  0  0  0
   23.7929    1.4424    8.0679 H   0  0  0  0  0  0
   21.2534    1.8208   11.5109 H   0  0  0  0  0  0
   25.5327    2.7949    9.1995 H   0  0  0  0  0  0
   22.9907    3.1934   12.6537 H   0  0  0  0  0  0
   25.1483    3.6641   11.4923 H   0  0  0  0  0  0
   20.1579    3.9250    9.5168 H   0  0  0  0  0  0
   20.8562    4.7661    6.6632 H   0  0  0  0  0  0
   19.3116    6.6926    6.8359 H   0  0  0  0  0  0
   18.4084    5.1670    7.1248 H   0  0  0  0  0  0
   17.8144    6.9049    8.8603 H   0  0  0  0  0  0
    7.6425    5.6964    9.0626 H   0  0  0  0  0  0
  1  2  1  0  0  0
  1 38  1  0  0  0
  1 39  1  0  0  0
  1 40  1  0  0  0
  2  3  1  0  0  0
  2  5  1  0  0  0
  2 41  1  0  0  0
  3  4  2  0  0  0
  3 12  1  0  0  0
  5  6  1  0  0  0
  5 42  1  0  0  0
  5 43  1  0  0  0
  6  7  1  0  0  0
  6 44  1  0  0  0
  6 45  1  0  0  0
  7  8  1  0  0  0
  7 46  1  0  0  0
  7 47  1  0  0  0
  8  9  1  0  0  0
  8 48  1  0  0  0
  9 10  1  0  0  0
  9 11  2  0  0  0
 10 49  1  0  0  0
 10 50  1  0  0  0
 11 51  1  0  0  0
 11 77  1  0  0  0
 12 13  1  0  0  0
 12 52  1  0  0  0
 13 14  1  0  0  0
 13 16  1  0  0  0
 13 53  1  0  0  0
 14 15  2  0  0  0
 14 20  1  0  0  0
 16 17  1  0  0  0
 16 18  1  0  0  0
 16 54  1  0  0  0
 17 19  1  0  0  0
 17 55  1  0  0  0
 17 56  1  0  0  0
 18 57  1  0  0  0
 18 58  1  0  0  0
 18 59  1  0  0  0
 19 60  1  0  0  0
 19 61  1  0  0  0
 19 62  1  0  0  0
 20 21  1  0  0  0
 20 63  1  0  0  0
 21 22  1  0  0  0
 21 24  1  0  0  0
 21 64  1  0  0  0
 22 23  2  0  0  0
 22 31  1  0  0  0
 24 25  1  0  0  0
 24 65  1  0  0  0
 24 66  1  0  0  0
 25 26  2  0  0  0
 25 27  1  0  0  0
 26 28  1  0  0  0
 26 67  1  0  0  0
 27 29  2  0  0  0
 27 68  1  0  0  0
 28 30  2  0  0  0
 28 69  1  0  0  0
 29 30  1  0  0  0
 29 70  1  0  0  0
 30 71  1  0  0  0
 31 32  1  0  0  0
 31 72  1  0  0  0
 32 33  1  0  0  0
 32 35  1  0  0  0
 32 73  1  0  0  0
 33 34  2  0  0  0
 33 37  1  0  0  0
 35 36  1  0  0  0
 35 74  1  0  0  0
 35 75  1  0  0  0
 36 76  1  0  0  0
M  CHG  3   1   1  11   1  37  -1
M  END
> <s_m_source_file>
../3ny3_ligand.sdf

> <i_m_source_file_index>
1

> <s_epik_input>
W0hdL049QyhbTkgyXSlcW05IXVtDSDJdW0NIMl1bQ0gyXVtDQEhdKFtOSDMrXSlDKD1PKVtOSF1bQ0BASF0oW0NAQEhdKFtDSDNdKVtDSDJdW0NIM10pQyg9TylbTkhdW0NASF0oQyg9TylbTkhdW0NASF0oQyg9TylbT0hdKVtDSDJdW09IXSlbQ0gyXWMxW2NIXVtjSF1bY0hdW2NIXVtjSF0x

> <s_epik_cmdline>
J2VwaWtfYXBwJywgJy1pbWFlJywgJ2xpZ2FuZF9wcm8ubWFlJywgJy1vbWFlJywgJ2xpZ2FuZF9wcmVwLm1hZScsICctbXMnLCAnMScsICctcGgnLCAnNycsICctcGh0JywgJzAuNScsICctbnQn

> <r_epik_Ionization_Penalty>
  0.1311

> <r_epik_Ionization_Penalty_Charging>
  0.1311

> <r_epik_Ionization_Penalty_Neutral>
  0.0000

> <r_epik_State_Penalty>
  0.1205

> <r_epik_Charging_Adjusted_Penalty>
0.251609142666762

> <i_epik_Tot_Q>
1

> <i_epik_Tot_abs_Q>
3

> <s_epik_Chemistry_Notes>
This compound has an imine and may undergo hydrolysis.

$$$$
