3nyd_ligand
                    3D
 Schrodinger Suite 2020-3.
 15 16  0  0  1  0            999 V2000
   22.1600   -1.3570  -24.1310 N   0  0  0  0  0  0
   20.8260   -1.8360  -24.0050 N   0  0  0  0  0  0
   20.6990   -2.3180  -22.7250 N   0  0  0  0  0  0
   22.2870   -2.6210  -20.9120 C   0  0  0  0  0  0
   23.6020   -2.4230  -20.4580 C   0  0  0  0  0  0
   24.5230   -1.7750  -21.2870 C   0  0  0  0  0  0
   24.1340   -1.3690  -22.5550 C   0  0  0  0  0  0
   25.0880   -2.4190  -18.7300 O   0  5  0  0  0  0
   23.2360   -3.3950  -18.3970 O   0  0  0  0  0  0
   21.8820   -2.2070  -22.1640 C   0  0  0  0  0  0
   22.8380   -1.6360  -23.0270 C   0  0  0  0  0  0
   24.0060   -2.7790  -19.1510 N   0  3  0  0  0  0
   21.5502   -3.1175  -20.2635 H   0  0  0  0  0  0
   25.5394   -1.5902  -20.9392 H   0  0  0  0  0  0
   24.8521   -0.8329  -23.1929 H   0  0  0  0  0  0
  1  2  2  0  0  0
  1 11  1  0  0  0
  2  3  1  0  0  0
  3 10  2  0  0  0
  4  5  2  0  0  0
  4 10  1  0  0  0
  4 13  1  0  0  0
  5  6  1  0  0  0
  5 12  1  0  0  0
  6  7  1  0  0  0
  6 14  1  0  0  0
  7 11  2  0  0  0
  7 15  1  0  0  0
  8 12  1  0  0  0
  9 12  2  0  0  0
 10 11  1  0  0  0
M  CHG  2   8  -1  12   1
M  END
> <s_m_source_file>
../3nyd_ligand.sdf

> <i_m_source_file_index>
1

> <s_epik_input>
Tj0xTj1OQyhDMTIpPVtDSF1bQ0gyXUMoPVtDSF0yKVtOK10oW08tXSk9Tw==

> <s_epik_cmdline>
J2VwaWtfYXBwJywgJy1pbWFlJywgJ2xpZ2FuZF9wcm8ubWFlJywgJy1vbWFlJywgJ2xpZ2FuZF9wcmVwLm1hZScsICctbXMnLCAnMScsICctcGgnLCAnNycsICctcGh0JywgJzAuNScsICctbnQn

> <r_lp_tautomer_probability>
1

> <r_epik_Ionization_Penalty>
  0.0000

> <r_epik_Ionization_Penalty_Charging>
  0.0000

> <r_epik_Ionization_Penalty_Neutral>
  0.0000

> <r_epik_State_Penalty>
 -0.0000

> <r_epik_Charging_Adjusted_Penalty>
0

> <i_epik_Tot_Q>
0

> <i_epik_Tot_abs_Q>
2

> <s_epik_Chemistry_Notes>
This compound has an imine and may undergo hydrolysis.

$$$$
