3nyn_ligand
                    3D
 Schrodinger Suite 2020-3.
 37 39  0  0  1  0            999 V2000
  -71.0400   17.4850   19.2790 N   0  0  0  0  0  0
  -70.8730   16.1870   19.6080 C   0  0  0  0  0  0
  -71.7270   15.5070   20.4030 N   0  0  0  0  0  0
  -72.8280   16.1000   20.9250 C   0  0  0  0  0  0
  -73.0750   17.5150   20.6080 C   0  0  0  0  0  0
  -72.0930   18.1970   19.7300 C   0  0  0  0  0  0
  -72.2190   19.4890   19.3770 N   0  0  0  0  0  0
  -74.3250   17.7920   21.3380 C   0  0  0  0  0  0
  -74.7050   16.6360   21.9800 C   0  0  0  0  0  0
  -73.8140   15.6580   21.7210 N   0  0  0  0  0  0
  -73.8830   14.2680   22.2410 C   0  0  1  0  0  0
  -74.9420   19.1440   21.2910 C   0  0  0  0  0  0
  -76.2630   19.2410   21.3460 N   0  0  0  0  0  0
  -74.2430   20.1360   21.2110 O   0  0  0  0  0  0
  -72.9320   14.1990   23.4170 C   0  0  2  0  0  0
  -72.3830   12.8800   23.5330 O   0  0  0  0  0  0
  -73.8230   14.5680   24.5760 C   0  0  2  0  0  0
  -73.3520   13.9840   25.7870 O   0  0  0  0  0  0
  -75.1980   14.0400   24.1790 C   0  0  2  0  0  0
  -75.1820   13.9410   22.7520 O   0  0  0  0  0  0
  -76.3780   14.8950   24.6580 C   0  0  0  0  0  0
  -75.9990   15.7710   25.7400 O   0  0  0  0  0  0
  -70.0046   15.6606   19.2119 H   0  0  0  0  0  0
  -71.4676   19.9564   18.7236 H   0  0  0  0  0  0
  -73.0734   20.0780   19.7418 H   0  0  0  0  0  0
  -75.5923   16.5273   22.6037 H   0  0  0  0  0  0
  -73.6860   13.5663   21.4171 H   0  0  0  0  0  0
  -76.8787   18.3323   21.4182 H   0  0  0  0  0  0
  -76.7434   20.2302   21.3195 H   0  0  0  0  0  0
  -72.0248   14.8172   23.3475 H   0  0  0  0  0  0
  -71.7154   12.4913   22.7499 H   0  0  0  0  0  0
  -73.8136   15.6393   24.8256 H   0  0  0  0  0  0
  -72.3713   14.2737   26.1923 H   0  0  0  0  0  0
  -75.3623   13.0405   24.6079 H   0  0  0  0  0  0
  -76.7450   15.5129   23.8252 H   0  0  0  0  0  0
  -77.1867   14.2386   25.0116 H   0  0  0  0  0  0
  -76.7433   16.4459   26.1877 H   0  0  0  0  0  0
  1  2  1  0  0  0
  1  6  2  0  0  0
  2  3  2  0  0  0
  2 23  1  0  0  0
  3  4  1  0  0  0
  4  5  2  0  0  0
  4 10  1  0  0  0
  5  6  1  0  0  0
  5  8  1  0  0  0
  6  7  1  0  0  0
  7 24  1  0  0  0
  7 25  1  0  0  0
  8  9  2  0  0  0
  8 12  1  0  0  0
  9 10  1  0  0  0
  9 26  1  0  0  0
 10 11  1  0  0  0
 11 15  1  0  0  0
 11 20  1  0  0  0
 11 27  1  0  0  0
 12 13  1  0  0  0
 12 14  2  0  0  0
 13 28  1  0  0  0
 13 29  1  0  0  0
 15 16  1  0  0  0
 15 17  1  0  0  0
 15 30  1  0  0  0
 16 31  1  0  0  0
 17 18  1  0  0  0
 17 19  1  0  0  0
 17 32  1  0  0  0
 18 33  1  0  0  0
 19 20  1  0  0  0
 19 21  1  0  0  0
 19 34  1  0  0  0
 21 22  1  0  0  0
 21 35  1  0  0  0
 21 36  1  0  0  0
 22 37  1  0  0  0
M  END
> <s_m_source_file>
../3nyn_ligand.sdf

> <i_m_source_file_index>
1

> <s_epik_input>
bjFbY0hdbmMoW05IMl0pYyhjMTIpYyhDKD1PKVtOSDJdKVtjSF1uMltDQEhdM1tDQEhdKFtPSF0pW0NASF0oW09IXSlbQ0BIXShPMylbQ0gyXVtPSF0=

> <s_epik_cmdline>
J2VwaWtfYXBwJywgJy1pbWFlJywgJ2xpZ2FuZF9wcm8ubWFlJywgJy1vbWFlJywgJ2xpZ2FuZF9wcmVwLm1hZScsICctbXMnLCAnMScsICctcGgnLCAnNycsICctcGh0JywgJzAuNScsICctbnQn

> <r_lp_tautomer_probability>
1

> <r_epik_Ionization_Penalty>
  0.0002

> <r_epik_Ionization_Penalty_Charging>
  0.0000

> <r_epik_Ionization_Penalty_Neutral>
  0.0002

> <r_epik_State_Penalty>
 -0.0000

> <r_epik_Charging_Adjusted_Penalty>
0

> <i_epik_Tot_Q>
0

> <i_epik_Tot_abs_Q>
0

> <s_epik_Chemistry_Notes>
This compound contains an acetal/aminal-like group ( X-CH(R)-Y where X, Y are N, S, or O) that may be acid/base labile, releasing an aldehyde.

$$$$
