3nyx_ligand
                    3D
 Schrodinger Suite 2020-3.
 33 36  0  0  1  0            999 V2000
    6.7130   15.5810   22.2950 C   0  0  0  0  0  0
    8.4000   14.1770   21.4400 N   0  0  0  0  0  0
    7.2520    4.8380   22.4700 O   0  5  0  0  0  0
    5.8220   10.5790   21.9590 S   0  0  0  0  0  0
    4.8480   17.3300   23.2130 Cl  0  0  0  0  0  0
    7.1620   14.3140   21.9550 C   0  0  0  0  0  0
    7.4660    7.8470   19.5990 N   0  0  0  0  0  0
    6.7320    7.6540   22.0800 S   0  0  0  0  0  0
    6.3300   13.2010   22.1230 C   0  0  0  0  0  0
    6.9340    9.1140   19.9450 N   0  0  0  0  0  0
    8.1610    2.1420   21.9830 S   0  0  0  0  0  0
    5.0410   13.3360   22.6410 C   0  0  0  0  0  0
    7.8840    5.7220   20.5000 N   0  0  0  0  0  0
    4.5820   14.6020   22.9850 C   0  0  0  0  0  0
    5.4230   15.7060   22.7930 C   0  0  0  0  0  0
    8.8840   12.9750   21.0920 C   0  0  0  0  0  0
    8.0970   11.8330   21.2380 C   0  0  0  0  0  0
    6.8070   11.9430   21.7620 C   0  0  0  0  0  0
    6.5210    9.1490   21.2410 C   0  0  0  0  0  0
    7.4070    6.9840   20.6430 C   0  0  0  0  0  0
    7.7950    4.7380   21.3870 C   0  0  0  0  0  0
    8.3910    3.4650   21.0150 C   0  0  0  0  0  0
    9.0990    3.2510   19.9720 C   0  0  0  0  0  0
    9.4230    2.0040   19.9040 C   0  0  0  0  0  0
    9.0810    1.2200   20.9480 C   0  0  0  0  0  0
    7.3545   16.4540   22.1748 H   0  0  0  0  0  0
    4.4038   12.4616   22.7738 H   0  0  0  0  0  0
    3.5821   14.7341   23.3982 H   0  0  0  0  0  0
    9.8953   12.8908   20.6940 H   0  0  0  0  0  0
    8.4871   10.8585   20.9444 H   0  0  0  0  0  0
    9.3869    4.0114   19.2460 H   0  0  0  0  0  0
    9.9507    1.6006   19.0398 H   0  0  0  0  0  0
    9.3569    0.1748   21.0874 H   0  0  0  0  0  0
  1  6  2  0  0  0
  1 15  1  0  0  0
  1 26  1  0  0  0
  2  6  1  0  0  0
  2 16  2  0  0  0
  3 21  1  0  0  0
  4 18  1  0  0  0
  4 19  1  0  0  0
  5 15  1  0  0  0
  6  9  1  0  0  0
  7 10  1  0  0  0
  7 20  2  0  0  0
  8 19  1  0  0  0
  8 20  1  0  0  0
  9 12  2  0  0  0
  9 18  1  0  0  0
 10 19  2  0  0  0
 11 22  1  0  0  0
 11 25  1  0  0  0
 12 14  1  0  0  0
 12 27  1  0  0  0
 13 20  1  0  0  0
 13 21  2  0  0  0
 14 15  2  0  0  0
 14 28  1  0  0  0
 16 17  1  0  0  0
 16 29  1  0  0  0
 17 18  2  0  0  0
 17 30  1  0  0  0
 21 22  1  0  0  0
 22 23  2  0  0  0
 23 24  1  0  0  0
 23 31  1  0  0  0
 24 25  2  0  0  0
 24 32  1  0  0  0
 25 33  1  0  0  0
M  CHG  1   3  -1
M  END
> <s_m_source_file>
../3nyx_ligand.sdf

> <i_m_source_file_index>
1

> <s_epik_input>
W2NIXTFjKENsKVtjSF1bY0hdYyhjMTIpYyhbY0hdW2NIXW4yKVNjM3NjKG5uMylbTkhdQyg9TyljNHNbY0hdW2NIXVtjSF00

> <s_epik_cmdline>
J2VwaWtfYXBwJywgJy1pbWFlJywgJ2xpZ2FuZF9wcm8ubWFlJywgJy1vbWFlJywgJ2xpZ2FuZF9wcmVwLm1hZScsICctbXMnLCAnMScsICctcGgnLCAnNycsICctcGh0JywgJzAuNScsICctbnQn

> <r_epik_Ionization_Penalty>
  0.2516

> <r_epik_Ionization_Penalty_Charging>
  0.2454

> <r_epik_Ionization_Penalty_Neutral>
  0.0062

> <r_epik_State_Penalty>
  0.2366

> <r_epik_Charging_Adjusted_Penalty>
0.481999810731599

> <i_epik_Tot_Q>
-1

> <i_epik_Tot_abs_Q>
1

$$$$
