3nzc_ligand
                    3D
 Schrodinger Suite 2020-3.
 56 59  0  0  1  0            999 V2000
   10.3390   -1.8500   13.0660 N   0  0  0  0  0  0
   10.6040   -2.6740   12.0590 C   0  0  0  0  0  0
   11.5410   -2.3620   11.1990 N   0  0  0  0  0  0
   12.2380   -1.2480   11.3160 C   0  0  0  0  0  0
   11.9870   -0.3660   12.3500 C   0  0  0  0  0  0
   10.9840   -0.7140   13.2480 C   0  0  0  0  0  0
   18.4830    1.4460   12.0370 C   0  0  0  0  0  0
   12.6480    1.8960   13.4090 C   0  0  0  0  0  0
    9.9350   -3.8000   11.8910 N   0  0  0  0  0  0
   10.6440    0.0190   14.2690 N   0  0  0  0  0  0
   15.9380    1.7570    2.1840 C   0  0  0  0  0  0
   16.8320    1.7960    3.2410 C   0  0  0  0  0  0
   14.8670    2.6410    2.1070 C   0  0  0  0  0  0
   16.6220    2.7480    4.2300 C   0  0  0  0  0  0
   14.6720    3.5790    3.0970 C   0  0  0  0  0  0
   17.6430    2.6430    8.5760 C   0  0  0  0  0  0
   17.9140    2.1950    9.8500 C   0  0  0  0  0  0
   13.8960    0.1100   10.4360 C   0  0  0  0  0  0
   15.3340    2.9190    9.1340 C   0  0  0  0  0  0
   14.9620    4.0470    6.6390 C   0  0  0  0  0  0
   15.3250    4.6790    5.2900 C   0  0  0  0  0  0
   14.5290    2.3370   11.4900 C   0  0  0  0  0  0
   13.1730   -0.9940   10.4080 N   0  0  0  0  0  0
   17.1070    1.6740   12.0150 O   0  0  0  0  0  0
   16.1730    3.4440    6.9720 O   0  0  0  0  0  0
   15.5480    3.6360    4.1670 C   0  0  0  0  0  0
   16.3650    3.0170    8.2200 C   0  0  0  0  0  0
   13.7120    1.0570   11.4310 C   0  0  0  0  0  0
   15.6110    2.4430   10.4230 C   0  0  0  0  0  0
   12.7560    0.8100   12.3840 C   0  0  0  0  0  0
   16.8910    2.0980   10.7610 C   0  0  0  0  0  0
   18.7796    1.0888   13.0342 H   0  0  0  0  0  0
   19.0135    2.3826   11.8103 H   0  0  0  0  0  0
   18.7409    0.6869   11.2839 H   0  0  0  0  0  0
   11.8672    1.6352   14.1386 H   0  0  0  0  0  0
   12.3857    2.8426   12.9139 H   0  0  0  0  0  0
   13.6117    2.0080   13.9274 H   0  0  0  0  0  0
    9.1439   -4.0810   12.6018 H   0  0  0  0  0  0
   10.1688   -4.4570   11.0403 H   0  0  0  0  0  0
    9.8406   -0.3145   14.9423 H   0  0  0  0  0  0
   11.1602    0.9717   14.4583 H   0  0  0  0  0  0
   16.0767    1.0175    1.3953 H   0  0  0  0  0  0
   17.6717    1.1032    3.2948 H   0  0  0  0  0  0
   14.1806    2.5916    1.2617 H   0  0  0  0  0  0
   17.3107    2.8025    5.0731 H   0  0  0  0  0  0
   13.8328    4.2721    3.0379 H   0  0  0  0  0  0
   18.4469    2.7023    7.8423 H   0  0  0  0  0  0
   18.9303    1.9202   10.1323 H   0  0  0  0  0  0
   14.6484    0.2792    9.6657 H   0  0  0  0  0  0
   14.3200    3.2075    8.8570 H   0  0  0  0  0  0
   14.6518    4.8347    7.3413 H   0  0  0  0  0  0
   14.1360    3.3341    6.4995 H   0  0  0  0  0  0
   14.5120    5.3459    4.9669 H   0  0  0  0  0  0
   16.2544    5.2580    5.3946 H   0  0  0  0  0  0
   13.8636    3.2031   11.3590 H   0  0  0  0  0  0
   15.0327    2.4059   12.4655 H   0  0  0  0  0  0
  1  2  2  0  0  0
  1  6  1  0  0  0
  2  3  1  0  0  0
  2  9  1  0  0  0
  3  4  2  0  0  0
  4  5  1  0  0  0
  4 23  1  0  0  0
  5  6  2  0  0  0
  5 30  1  0  0  0
  6 10  1  0  0  0
  7 24  1  0  0  0
  7 32  1  0  0  0
  7 33  1  0  0  0
  7 34  1  0  0  0
  8 30  1  0  0  0
  8 35  1  0  0  0
  8 36  1  0  0  0
  8 37  1  0  0  0
  9 38  1  0  0  0
  9 39  1  0  0  0
 10 40  1  0  0  0
 10 41  1  0  0  0
 11 12  2  0  0  0
 11 13  1  0  0  0
 11 42  1  0  0  0
 12 14  1  0  0  0
 12 43  1  0  0  0
 13 15  2  0  0  0
 13 44  1  0  0  0
 14 26  2  0  0  0
 14 45  1  0  0  0
 15 26  1  0  0  0
 15 46  1  0  0  0
 16 17  2  0  0  0
 16 27  1  0  0  0
 16 47  1  0  0  0
 17 31  1  0  0  0
 17 48  1  0  0  0
 18 23  2  0  0  0
 18 28  1  0  0  0
 18 49  1  0  0  0
 19 27  2  0  0  0
 19 29  1  0  0  0
 19 50  1  0  0  0
 20 21  1  0  0  0
 20 25  1  0  0  0
 20 51  1  0  0  0
 20 52  1  0  0  0
 21 26  1  0  0  0
 21 53  1  0  0  0
 21 54  1  0  0  0
 22 28  1  0  0  0
 22 29  1  0  0  0
 22 55  1  0  0  0
 22 56  1  0  0  0
 24 31  1  0  0  0
 25 27  1  0  0  0
 28 30  2  0  0  0
 29 31  2  0  0  0
M  END
> <s_m_source_file>
../3nzc_ligand.sdf

> <i_m_source_file_index>
1

> <s_epik_input>
bjFjKFtOSDJdKW5jKFtOSDJdKWMoYzEyKWMoW0NIM10pYyhbY0hdbjIpW0NIMl1jKFtjSF0zKWMoT1tDSDNdKVtjSF1bY0hdYzNPW0NIMl1bQ0gyXWM0W2NIXVtjSF1bY0hdW2NIXVtjSF00

> <s_epik_cmdline>
J2VwaWtfYXBwJywgJy1pbWFlJywgJ2xpZ2FuZF9wcm8ubWFlJywgJy1vbWFlJywgJ2xpZ2FuZF9wcmVwLm1hZScsICctbXMnLCAnMScsICctcGgnLCAnNycsICctcGh0JywgJzAuNScsICctbnQn

> <r_lp_tautomer_probability>
1

> <r_epik_Ionization_Penalty>
  0.2363

> <r_epik_Ionization_Penalty_Charging>
  0.0000

> <r_epik_Ionization_Penalty_Neutral>
  0.2363

> <r_epik_State_Penalty>
  0.2135

> <r_epik_Charging_Adjusted_Penalty>
0.213525789589801

> <i_epik_Tot_Q>
0

> <i_epik_Tot_abs_Q>
0

$$$$
