3nzi_ligand
                    3D
 Schrodinger Suite 2020-3.
 87 87  0  0  1  0            999 V2000
   -7.8620  -11.8960  -16.3820 N   0  3  0  0  0  0
   -7.1010  -13.0810  -15.8890 C   0  0  2  0  0  0
   -5.8470  -12.6600  -15.1090 C   0  0  0  0  0  0
   -5.6400  -11.4780  -14.8390 O   0  0  0  0  0  0
   -6.7360  -14.0020  -17.0670 C   0  0  0  0  0  0
   -5.6430  -13.4720  -18.0060 C   0  0  0  0  0  0
   -5.1160  -14.6920  -19.2370 S   0  0  0  0  0  0
   -4.2090  -15.8590  -18.2210 C   0  0  0  0  0  0
   -5.0150  -13.6420  -14.7690 N   0  0  0  0  0  0
   -3.8120  -13.4410  -13.9550 C   0  0  2  0  0  0
   -2.5360  -13.4270  -14.8080 C   0  0  0  0  0  0
   -2.5950  -13.4390  -16.0340 O   0  0  0  0  0  0
   -3.7150  -14.5580  -12.9010 C   0  0  0  0  0  0
   -3.6080  -15.9390  -13.4890 C   0  0  0  0  0  0
   -2.3720  -16.4690  -13.8490 C   0  0  0  0  0  0
   -4.7480  -16.7060  -13.6980 C   0  0  0  0  0  0
   -2.2730  -17.7430  -14.4070 C   0  0  0  0  0  0
   -4.6580  -17.9810  -14.2530 C   0  0  0  0  0  0
   -3.4170  -18.5000  -14.6070 C   0  0  0  0  0  0
   -1.3870  -13.3840  -14.1380 N   0  0  0  0  0  0
   -0.0910  -13.6750  -14.7460 C   0  0  2  0  0  0
    0.8140  -14.2290  -13.6450 C   0  0  0  0  0  0
    0.7210  -13.7800  -12.5030 O   0  0  0  0  0  0
    0.5210  -12.4280  -15.3870 C   0  0  0  0  0  0
    1.6640  -15.2060  -13.9720 N   0  0  0  0  0  0
    2.6170  -15.7720  -12.9970 C   0  0  2  0  0  0
    3.8220  -14.8440  -12.8070 C   0  0  0  0  0  0
    4.1700  -14.0890  -13.7140 O   0  0  0  0  0  0
    3.0980  -17.1730  -13.4220 C   0  0  0  0  0  0
    2.0580  -18.2470  -13.7970 C   0  0  0  0  0  0
    2.6520  -19.6510  -13.7010 C   0  0  0  0  0  0
    0.8020  -18.1560  -12.9460 C   0  0  0  0  0  0
    4.4590  -14.9230  -11.6350 N   0  0  0  0  0  0
    5.5520  -14.0000  -11.2450 C   0  0  1  0  0  0
    5.1050  -13.1250  -10.0450 C   0  0  0  0  0  0
    4.1160  -12.0540  -10.5030 C   0  0  0  0  0  0
    4.4620  -13.8670   -8.8690 C   0  0  0  0  0  0
    6.9390  -14.7880  -10.9780 B   0  0  0  0  0  0
    7.4050  -15.6340  -12.1650 O   0  0  0  0  0  0
    8.0680  -13.9280  -10.3940 O   0  0  0  0  0  0
   -8.1175  -11.2451  -15.5328 H   0  0  0  0  0  0
   -8.7850  -12.2328  -16.8766 H   0  0  0  0  0  0
   -7.2445  -11.3365  -17.1000 H   0  0  0  0  0  0
   -7.7685  -13.6139  -15.1958 H   0  0  0  0  0  0
   -6.3724  -14.9654  -16.6802 H   0  0  0  0  0  0
   -7.6264  -14.1699  -17.6908 H   0  0  0  0  0  0
   -6.0200  -12.5919  -18.5476 H   0  0  0  0  0  0
   -4.7587  -13.1886  -17.4163 H   0  0  0  0  0  0
   -3.8229  -16.6725  -18.8528 H   0  0  0  0  0  0
   -4.8790  -16.2762  -17.4549 H   0  0  0  0  0  0
   -3.3688  -15.3440  -17.7322 H   0  0  0  0  0  0
   -5.2707  -14.6478  -15.1336 H   0  0  0  0  0  0
   -3.9409  -12.4524  -13.4903 H   0  0  0  0  0  0
   -2.8225  -14.3979  -12.2782 H   0  0  0  0  0  0
   -4.6130  -14.5419  -12.2659 H   0  0  0  0  0  0
   -1.4686  -15.8795  -13.6924 H   0  0  0  0  0  0
   -5.7241  -16.3054  -13.4245 H   0  0  0  0  0  0
   -1.2980  -18.1429  -14.6854 H   0  0  0  0  0  0
   -5.5604  -18.5719  -14.4098 H   0  0  0  0  0  0
   -3.3443  -19.4977  -15.0398 H   0  0  0  0  0  0
   -1.4467  -13.1126  -13.0737 H   0  0  0  0  0  0
   -0.2565  -14.4119  -15.5458 H   0  0  0  0  0  0
   -0.1505  -12.0528  -16.1733 H   0  0  0  0  0  0
    1.4957  -12.6834  -15.8283 H   0  0  0  0  0  0
    0.6579  -11.6512  -14.6203 H   0  0  0  0  0  0
    1.6397  -15.5886  -15.0030 H   0  0  0  0  0  0
    2.0483  -15.8442  -12.0582 H   0  0  0  0  0  0
    3.7347  -17.0868  -14.3149 H   0  0  0  0  0  0
    3.6749  -17.6268  -12.6027 H   0  0  0  0  0  0
    1.7601  -18.0586  -14.8390 H   0  0  0  0  0  0
    3.5599  -19.7080  -14.3194 H   0  0  0  0  0  0
    1.9166  -20.3856  -14.0608 H   0  0  0  0  0  0
    2.9072  -19.8703  -12.6537 H   0  0  0  0  0  0
    0.3811  -17.1425  -13.0208 H   0  0  0  0  0  0
    1.0533  -18.3722  -11.8971 H   0  0  0  0  0  0
    0.0627  -18.8875  -13.3042 H   0  0  0  0  0  0
    4.1386  -15.7183  -10.9459 H   0  0  0  0  0  0
    5.6747  -13.3297  -12.1085 H   0  0  0  0  0  0
    6.0421  -12.6932   -9.6638 H   0  0  0  0  0  0
    4.5442  -11.4977  -11.3499 H   0  0  0  0  0  0
    3.9156  -11.3609   -9.6727 H   0  0  0  0  0  0
    3.1763  -12.5325  -10.8161 H   0  0  0  0  0  0
    5.1471  -14.6493   -8.5104 H   0  0  0  0  0  0
    3.5190  -14.3280   -9.1979 H   0  0  0  0  0  0
    4.2582  -13.1564   -8.0544 H   0  0  0  0  0  0
    6.6950  -16.2984  -12.6792 H   0  0  0  0  0  0
    7.8701  -13.2701   -9.5349 H   0  0  0  0  0  0
  1  2  1  0  0  0
  1 41  1  0  0  0
  1 42  1  0  0  0
  1 43  1  0  0  0
  2  3  1  0  0  0
  2  5  1  0  0  0
  2 44  1  0  0  0
  3  4  2  0  0  0
  3  9  1  0  0  0
  5  6  1  0  0  0
  5 45  1  0  0  0
  5 46  1  0  0  0
  6  7  1  0  0  0
  6 47  1  0  0  0
  6 48  1  0  0  0
  7  8  1  0  0  0
  8 49  1  0  0  0
  8 50  1  0  0  0
  8 51  1  0  0  0
  9 10  1  0  0  0
  9 52  1  0  0  0
 10 11  1  0  0  0
 10 13  1  0  0  0
 10 53  1  0  0  0
 11 12  2  0  0  0
 11 20  1  0  0  0
 13 14  1  0  0  0
 13 54  1  0  0  0
 13 55  1  0  0  0
 14 15  2  0  0  0
 14 16  1  0  0  0
 15 17  1  0  0  0
 15 56  1  0  0  0
 16 18  2  0  0  0
 16 57  1  0  0  0
 17 19  2  0  0  0
 17 58  1  0  0  0
 18 19  1  0  0  0
 18 59  1  0  0  0
 19 60  1  0  0  0
 20 21  1  0  0  0
 20 61  1  0  0  0
 21 22  1  0  0  0
 21 24  1  0  0  0
 21 62  1  0  0  0
 22 23  2  0  0  0
 22 25  1  0  0  0
 24 63  1  0  0  0
 24 64  1  0  0  0
 24 65  1  0  0  0
 25 26  1  0  0  0
 25 66  1  0  0  0
 26 27  1  0  0  0
 26 29  1  0  0  0
 26 67  1  0  0  0
 27 28  2  0  0  0
 27 33  1  0  0  0
 29 30  1  0  0  0
 29 68  1  0  0  0
 29 69  1  0  0  0
 30 31  1  0  0  0
 30 32  1  0  0  0
 30 70  1  0  0  0
 31 71  1  0  0  0
 31 72  1  0  0  0
 31 73  1  0  0  0
 32 74  1  0  0  0
 32 75  1  0  0  0
 32 76  1  0  0  0
 33 34  1  0  0  0
 33 77  1  0  0  0
 34 35  1  0  0  0
 34 38  1  0  0  0
 34 78  1  0  0  0
 35 36  1  0  0  0
 35 37  1  0  0  0
 35 79  1  0  0  0
 36 80  1  0  0  0
 36 81  1  0  0  0
 36 82  1  0  0  0
 37 83  1  0  0  0
 37 84  1  0  0  0
 37 85  1  0  0  0
 38 39  1  0  0  0
 38 40  1  0  0  0
 39 86  1  0  0  0
 40 87  1  0  0  0
M  CHG  1   1   1
M  END
> <s_m_source_file>
../3nzi_ligand.sdf

> <i_m_source_file_index>
1

> <s_epik_input>
W0NIM11TW0NIMl1bQ0gyXVtDQEhdKFtOSDMrXSlDKD1PKVtOSF1bQ0BASF0oW0NIMl1jMVtjSF1bY0hdW2NIXVtjSF1bY0hdMSlDKD1PKVtOSF1bQ0BASF0oW0NIM10pQyg9TylbTkhdW0NAQEhdKFtDSDJdW0NIXShbQ0gzXSlbQ0gzXSlDKD1PKVtOSF1bQ0BASF0oW0NIXShbQ0gzXSlbQ0gzXSlCKFtPSF0pW09IXQ==

> <s_epik_cmdline>
J2VwaWtfYXBwJywgJy1pbWFlJywgJ2xpZ2FuZF9wcm8ubWFlJywgJy1vbWFlJywgJ2xpZ2FuZF9wcmVwLm1hZScsICctbXMnLCAnMScsICctcGgnLCAnNycsICctcGh0JywgJzAuNScsICctbnQn

> <r_epik_Ionization_Penalty>
  0.1703

> <r_epik_Ionization_Penalty_Charging>
  0.1703

> <r_epik_Ionization_Penalty_Neutral>
  0.0000

> <r_epik_State_Penalty>
  0.1596

> <r_epik_Charging_Adjusted_Penalty>
0.329892249546993

> <i_epik_Tot_Q>
1

> <i_epik_Tot_abs_Q>
1

> <s_epik_Chemistry_Notes>
This compound contains a Lewis acid (boronic acid) which adds nucleophiles to form tetrahedral complexes, lowering the experimental pKa

$$$$
