3nzk_ligand
                    3D
 Schrodinger Suite 2020-3.
 59 61  0  0  1  0            999 V2000
   -0.0910  -19.6980  -15.0970 C   0  0  0  0  0  0
   -0.8190  -20.3800  -13.9420 C   0  0  0  0  0  0
   -2.1430  -21.6730  -11.7320 C   0  0  0  0  0  0
   -2.8030  -22.2980  -10.6540 C   0  0  0  0  0  0
    1.9730  -16.1540  -13.8630 O   0  0  0  0  0  0
   -3.3700  -22.8340   -9.7300 C   0  0  0  0  0  0
   -4.0440  -23.3770   -8.6020 C   0  0  0  0  0  0
   -8.7250  -23.7990   -3.1500 C   0  0  1  0  0  0
   -5.4430  -24.3660   -6.2780 C   0  0  0  0  0  0
   -6.1670  -24.8220   -5.1310 C   0  0  0  0  0  0
   -8.3590  -25.0610   -4.0190 C   0  0  1  0  0  0
   -7.5580  -22.8590   -2.8100 C   0  0  0  0  0  0
   -9.5460  -25.8140   -4.6430 C   0  0  0  0  0  0
    1.8080  -16.4100  -15.2610 C   0  0  0  0  0  0
    0.7680  -16.4410  -13.1590 C   0  0  0  0  0  0
    1.4410  -17.9080  -15.4910 C   0  0  0  0  0  0
    0.5330  -17.9510  -13.3100 C   0  0  0  0  0  0
    0.2410  -18.2770  -14.7240 N   0  0  0  0  0  0
   -0.1260  -21.3960  -13.1790 C   0  0  0  0  0  0
   -2.1800  -20.0090  -13.6020 C   0  0  0  0  0  0
   -0.7910  -22.0400  -12.0690 C   0  0  0  0  0  0
   -2.8450  -20.6600  -12.4900 C   0  0  0  0  0  0
   -5.4830  -23.3180   -8.5620 C   0  0  0  0  0  0
   -3.2920  -23.9150   -7.4930 C   0  0  0  0  0  0
   -6.1800  -23.8040   -7.4060 C   0  0  0  0  0  0
   -3.9790  -24.4190   -6.3240 C   0  0  0  0  0  0
   -5.5540  -25.2220   -4.1320 O   0  0  0  0  0  0
   -7.4790  -24.6370   -5.1200 N   0  0  0  0  0  0
   -9.6690  -23.0000   -3.8650 O   0  0  0  0  0  0
   -9.7130  -27.0510   -4.2510 N   0  0  0  0  0  0
  -10.4490  -25.1740   -5.1430 O   0  0  0  0  0  0
  -10.8340  -27.6990   -4.5260 O   0  0  0  0  0  0
    0.8390  -20.2427  -15.3169 H   0  0  0  0  0  0
   -0.7357  -19.6986  -15.9882 H   0  0  0  0  0  0
   -9.1698  -24.1592   -2.2106 H   0  0  0  0  0  0
   -7.8427  -25.7767   -3.3623 H   0  0  0  0  0  0
   -6.7890  -23.4155   -2.2542 H   0  0  0  0  0  0
   -7.9259  -22.0261   -2.1928 H   0  0  0  0  0  0
   -7.1237  -22.4625   -3.7396 H   0  0  0  0  0  0
    1.0015  -15.7755  -15.6572 H   0  0  0  0  0  0
    2.7461  -16.1828  -15.7886 H   0  0  0  0  0  0
    0.8861  -16.1627  -12.1014 H   0  0  0  0  0  0
   -0.0598  -15.8657  -13.5992 H   0  0  0  0  0  0
    1.2439  -18.0773  -16.5599 H   0  0  0  0  0  0
    2.2777  -18.5444  -15.1672 H   0  0  0  0  0  0
    1.4336  -18.4960  -12.9908 H   0  0  0  0  0  0
   -0.3197  -18.2538  -12.6845 H   0  0  0  0  0  0
    0.8947  -21.6748  -13.4408 H   0  0  0  0  0  0
   -2.6999  -19.2447  -14.1797 H   0  0  0  0  0  0
   -0.2709  -22.8016  -11.4881 H   0  0  0  0  0  0
   -3.8672  -20.3880  -12.2268 H   0  0  0  0  0  0
   -6.0386  -22.9067   -9.4047 H   0  0  0  0  0  0
   -2.2032  -23.9415   -7.5368 H   0  0  0  0  0  0
   -7.2682  -23.7532   -7.3696 H   0  0  0  0  0  0
   -3.4151  -24.8329   -5.4880 H   0  0  0  0  0  0
   -7.9039  -24.1338   -6.0010 H   0  0  0  0  0  0
  -10.6071  -23.4474   -4.2253 H   0  0  0  0  0  0
   -8.9118  -27.5524   -3.6883 H   0  0  0  0  0  0
  -10.9643  -28.7389   -4.1918 H   0  0  0  0  0  0
  1  2  1  0  0  0
  1 18  1  0  0  0
  1 33  1  0  0  0
  1 34  1  0  0  0
  2 19  2  0  0  0
  2 20  1  0  0  0
  3  4  1  0  0  0
  3 21  2  0  0  0
  3 22  1  0  0  0
  4  6  3  0  0  0
  5 14  1  0  0  0
  5 15  1  0  0  0
  6  7  1  0  0  0
  7 23  2  0  0  0
  7 24  1  0  0  0
  8 11  1  0  0  0
  8 12  1  0  0  0
  8 29  1  0  0  0
  8 35  1  0  0  0
  9 10  1  0  0  0
  9 25  2  0  0  0
  9 26  1  0  0  0
 10 27  2  0  0  0
 10 28  1  0  0  0
 11 13  1  0  0  0
 11 28  1  0  0  0
 11 36  1  0  0  0
 12 37  1  0  0  0
 12 38  1  0  0  0
 12 39  1  0  0  0
 13 30  1  0  0  0
 13 31  2  0  0  0
 14 16  1  0  0  0
 14 40  1  0  0  0
 14 41  1  0  0  0
 15 17  1  0  0  0
 15 42  1  0  0  0
 15 43  1  0  0  0
 16 18  1  0  0  0
 16 44  1  0  0  0
 16 45  1  0  0  0
 17 18  1  0  0  0
 17 46  1  0  0  0
 17 47  1  0  0  0
 19 21  1  0  0  0
 19 48  1  0  0  0
 20 22  2  0  0  0
 20 49  1  0  0  0
 21 50  1  0  0  0
 22 51  1  0  0  0
 23 25  1  0  0  0
 23 52  1  0  0  0
 24 26  2  0  0  0
 24 53  1  0  0  0
 25 54  1  0  0  0
 26 55  1  0  0  0
 28 56  1  0  0  0
 29 57  1  0  0  0
 30 32  1  0  0  0
 30 58  1  0  0  0
 32 59  1  0  0  0
M  END
> <s_m_source_file>
../3nzk_ligand.sdf

> <i_m_source_file_index>
1

> <s_epik_input>
W0NIMl0xW0NIMl1PW0NIMl1bQ0gyXVtOSCtdMVtDSDJdYzJbY0hdW2NIXWMoW2NIXVtjSF0yKUMjQ2MzW2NIXVtjSF1jKFtjSF1bY0hdMylDKD1PKVtOSF1bQ0BASF0oW0NAQEhdKFtDSDNdKVtPSF0pQyg9TylbTkhdW09IXQ==

> <s_epik_cmdline>
J2VwaWtfYXBwJywgJy1pbWFlJywgJ2xpZ2FuZF9wcm8ubWFlJywgJy1vbWFlJywgJ2xpZ2FuZF9wcmVwLm1hZScsICctbXMnLCAnMScsICctcGgnLCAnNycsICctcGh0JywgJzAuNScsICctbnQn

> <r_epik_Ionization_Penalty>
  0.2951

> <r_epik_Ionization_Penalty_Charging>
  0.0000

> <r_epik_Ionization_Penalty_Neutral>
  0.2951

> <r_epik_State_Penalty>
  0.2773

> <r_epik_Charging_Adjusted_Penalty>
0.277327297006007

> <i_epik_Tot_Q>
0

> <i_epik_Tot_abs_Q>
0

> <s_epik_Chemistry_Notes>
This compound has a N-S or N-O group and may undergo hydrolysis at high or low pH.

$$$$
