3nzs_ligand
                    3D
 Schrodinger Suite 2020-3.
 47 50  0  0  1  0            999 V2000
   20.2290   13.3200   22.9300 C   0  0  0  0  0  0
   22.5850   12.9710   23.0970 N   0  0  0  0  0  0
   22.0020   19.0400   21.2690 O   0  0  0  0  0  0
   24.7480   13.3740   19.1170 S   0  0  0  0  0  0
   21.3180   12.6390   23.4360 C   0  0  0  0  0  0
   21.7520   14.6770   21.7250 N   0  0  0  0  0  0
   26.1040   13.8030   18.9240 O   0  0  0  0  0  0
   22.7980   13.9930   22.2410 C   0  0  0  0  0  0
   19.3710   11.7730   24.2500 N   0  0  0  0  0  0
   24.2840   12.6810   17.9470 O   0  0  0  0  0  0
   20.4760   14.3700   22.0540 C   0  0  0  0  0  0
   20.7790   11.7110   24.2300 N   0  0  0  0  0  0
   18.9940   12.7870   23.4330 C   0  0  0  0  0  0
   19.4370   15.0680   21.5270 N   0  0  0  0  0  0
   21.3750   10.6480   25.0770 C   0  0  0  0  0  0
   24.1190   14.3450   21.8870 N   0  0  0  0  0  0
   19.4420   16.4260   21.4820 C   0  0  0  0  0  0
   20.6500   17.1030   21.6100 C   0  0  0  0  0  0
   20.7970   18.4000   21.1360 C   0  0  0  0  0  0
   19.7230   19.0400   20.5300 C   0  0  0  0  0  0
   18.5090   18.3750   20.4030 C   0  0  0  0  0  0
   18.3700   17.0750   20.8780 C   0  0  0  0  0  0
   22.2070   20.3170   20.6690 C   0  0  0  0  0  0
   24.9850   13.1640   21.6880 C   0  0  0  0  0  0
   24.6420   12.3710   20.4330 C   0  0  0  0  0  0
   23.7740   14.6820   19.4190 C   0  0  0  0  0  0
   24.1470   15.3060   20.7620 C   0  0  0  0  0  0
   17.9814   13.1223   23.2084 H   0  0  0  0  0  0
   18.5641   14.5340   21.1234 H   0  0  0  0  0  0
   22.4712   10.6833   24.9924 H   0  0  0  0  0  0
   21.0128    9.6652   24.7409 H   0  0  0  0  0  0
   21.0828   10.8076   26.1254 H   0  0  0  0  0  0
   21.4944   16.6080   22.0897 H   0  0  0  0  0  0
   19.8318   20.0581   20.1562 H   0  0  0  0  0  0
   17.6633   18.8738   19.9297 H   0  0  0  0  0  0
   17.4142   16.5611   20.7762 H   0  0  0  0  0  0
   23.2280   20.6642   20.8857 H   0  0  0  0  0  0
   21.4810   21.0351   21.0780 H   0  0  0  0  0  0
   22.0702   20.2369   19.5805 H   0  0  0  0  0  0
   26.0324   13.4881   21.5995 H   0  0  0  0  0  0
   24.8826   12.4852   22.5475 H   0  0  0  0  0  0
   23.6184   11.9759   20.5114 H   0  0  0  0  0  0
   25.3491   11.5366   20.3160 H   0  0  0  0  0  0
   23.9054   15.4288   18.6221 H   0  0  0  0  0  0
   22.7233   14.3578   19.4480 H   0  0  0  0  0  0
   23.4328   16.1196   20.9569 H   0  0  0  0  0  0
   25.1598   15.7234   20.6614 H   0  0  0  0  0  0
  1  5  2  0  0  0
  1 11  1  0  0  0
  1 13  1  0  0  0
  2  5  1  0  0  0
  2  8  2  0  0  0
  3 19  1  0  0  0
  3 23  1  0  0  0
  4  7  2  0  0  0
  4 10  2  0  0  0
  4 25  1  0  0  0
  4 26  1  0  0  0
  5 12  1  0  0  0
  6  8  1  0  0  0
  6 11  2  0  0  0
  8 16  1  0  0  0
  9 12  1  0  0  0
  9 13  2  0  0  0
 11 14  1  0  0  0
 12 15  1  0  0  0
 13 28  1  0  0  0
 14 17  1  0  0  0
 14 29  1  0  0  0
 15 30  1  0  0  0
 15 31  1  0  0  0
 15 32  1  0  0  0
 16 24  1  0  0  0
 16 27  1  0  0  0
 17 18  2  0  0  0
 17 22  1  0  0  0
 18 19  1  0  0  0
 18 33  1  0  0  0
 19 20  2  0  0  0
 20 21  1  0  0  0
 20 34  1  0  0  0
 21 22  2  0  0  0
 21 35  1  0  0  0
 22 36  1  0  0  0
 23 37  1  0  0  0
 23 38  1  0  0  0
 23 39  1  0  0  0
 24 25  1  0  0  0
 24 40  1  0  0  0
 24 41  1  0  0  0
 25 42  1  0  0  0
 25 43  1  0  0  0
 26 27  1  0  0  0
 26 44  1  0  0  0
 26 45  1  0  0  0
 27 46  1  0  0  0
 27 47  1  0  0  0
M  END
> <s_m_source_file>
../3nzs_ligand.sdf

> <i_m_source_file_index>
1

> <s_epik_input>
Tz1TMSg9TylbQ0gyXVtDSDJdTihbQ0gyXVtDSDJdMSljKG5jKGMyMyluKFtDSDNdKW5bY0hdMyluYzJbTkhdYzRbY0hdYyhPW0NIM10pW2NIXVtjSF1bY0hdNA==

> <s_epik_cmdline>
J2VwaWtfYXBwJywgJy1pbWFlJywgJ2xpZ2FuZF9wcm8ubWFlJywgJy1vbWFlJywgJ2xpZ2FuZF9wcmVwLm1hZScsICctbXMnLCAnMScsICctcGgnLCAnNycsICctcGh0JywgJzAuNScsICctbnQn

> <r_lp_tautomer_probability>
1

> <r_epik_Ionization_Penalty>
  0.0000

> <r_epik_Ionization_Penalty_Charging>
  0.0000

> <r_epik_Ionization_Penalty_Neutral>
  0.0000

> <r_epik_State_Penalty>
 -0.0000

> <r_epik_Charging_Adjusted_Penalty>
5.5605733161828e-11

> <i_epik_Tot_Q>
0

> <i_epik_Tot_abs_Q>
0

$$$$
