3nzu_ligand
                    3D
 Schrodinger Suite 2020-3.
 45 48  0  0  1  0            999 V2000
   21.5420   11.5970   24.5420 C   0  0  0  0  0  0
   20.7140   12.6420   24.0130 N   0  0  0  0  0  0
   21.0970   13.5410   23.1190 C   0  0  0  0  0  0
   20.0210   14.3560   22.8790 C   0  0  0  0  0  0
   18.9940   13.8830   23.6880 C   0  0  0  0  0  0
   19.4090   12.8700   24.3370 N   0  0  0  0  0  0
   20.1750   15.3930   21.9680 C   0  0  0  0  0  0
   21.3190   15.5330   21.3870 N   0  0  0  0  0  0
   22.2960   14.7290   21.6540 C   0  0  0  0  0  0
   22.2030   13.7600   22.4870 N   0  0  0  0  0  0
   23.5600   14.9030   20.9700 C   0  0  0  0  0  0
   23.6500   15.7670   19.9200 C   0  0  0  0  0  0
   24.8340   15.9310   19.2580 C   0  0  0  0  0  0
   25.9340   15.2300   19.6260 C   0  0  0  0  0  0
   25.8590   14.3430   20.6690 C   0  0  0  0  0  0
   24.6720   14.1660   21.3510 C   0  0  0  0  0  0
   24.9040   13.2200   22.3400 C   0  0  0  0  0  0
   26.1250   12.8470   22.2660 N   0  0  0  0  0  0
   26.7500   13.5240   21.2470 N   0  0  0  0  0  0
   19.1620   16.2590   21.6950 N   0  0  0  0  0  0
   19.1910   17.1660   20.5620 C   0  0  0  0  0  0
   18.2690   18.3500   20.8660 C   0  0  0  0  0  0
   19.0340   19.4770   21.5640 C   0  0  0  0  0  0
   18.1190   21.0380   21.6230 S   0  0  0  0  0  0
   17.2840   21.0390   22.7250 O   0  0  0  0  0  0
   19.0020   22.1080   21.5060 O   0  0  0  0  0  0
   17.1450   20.8970   20.1250 C   0  0  0  0  0  0
   22.5454   11.6630   24.0960 H   0  0  0  0  0  0
   21.0975   10.6199   24.3018 H   0  0  0  0  0  0
   21.6181   11.7068   25.6339 H   0  0  0  0  0  0
   17.9939   14.3111   23.7556 H   0  0  0  0  0  0
   22.7716   16.3310   19.6062 H   0  0  0  0  0  0
   24.8944   16.6324   18.4259 H   0  0  0  0  0  0
   26.8752   15.3708   19.0946 H   0  0  0  0  0  0
   24.1694   12.8564   23.0585 H   0  0  0  0  0  0
   18.2963   16.2542   22.3737 H   0  0  0  0  0  0
   20.2198   17.5216   20.4033 H   0  0  0  0  0  0
   18.8421   16.6392   19.6616 H   0  0  0  0  0  0
   17.8491   18.7384   19.9264 H   0  0  0  0  0  0
   17.4517   18.0189   21.5236 H   0  0  0  0  0  0
   19.2536   19.1835   22.6011 H   0  0  0  0  0  0
   19.9764   19.6665   21.0292 H   0  0  0  0  0  0
   16.4480   20.0512   20.2191 H   0  0  0  0  0  0
   17.8132   20.7278   19.2678 H   0  0  0  0  0  0
   16.5761   21.8254   19.9688 H   0  0  0  0  0  0
  1  2  1  0  0  0
  1 28  1  0  0  0
  1 29  1  0  0  0
  1 30  1  0  0  0
  2  3  1  0  0  0
  2  6  1  0  0  0
  3  4  2  0  0  0
  3 10  1  0  0  0
  4  5  1  0  0  0
  4  7  1  0  0  0
  5  6  2  0  0  0
  5 31  1  0  0  0
  7  8  2  0  0  0
  7 20  1  0  0  0
  8  9  1  0  0  0
  9 10  2  0  0  0
  9 11  1  0  0  0
 11 12  2  0  0  0
 11 16  1  0  0  0
 12 13  1  0  0  0
 12 32  1  0  0  0
 13 14  2  0  0  0
 13 33  1  0  0  0
 14 15  1  0  0  0
 14 34  1  0  0  0
 15 16  2  0  0  0
 15 19  1  0  0  0
 16 17  1  0  0  0
 17 18  1  0  0  0
 17 35  1  0  0  0
 18 19  2  0  0  0
 20 21  1  0  0  0
 20 36  1  0  0  0
 21 22  1  0  0  0
 21 37  1  0  0  0
 21 38  1  0  0  0
 22 23  1  0  0  0
 22 39  1  0  0  0
 22 40  1  0  0  0
 23 24  1  0  0  0
 23 41  1  0  0  0
 23 42  1  0  0  0
 24 25  2  0  0  0
 24 26  2  0  0  0
 24 27  1  0  0  0
 27 43  1  0  0  0
 27 44  1  0  0  0
 27 45  1  0  0  0
M  END
> <s_m_source_file>
../3nzu_ligand.sdf

> <i_m_source_file_index>
1

> <s_epik_input>
Tz1TKD1PKShbQ0gzXSlbQ0gyXVtDSDJdW0NIMl1bTkhdYyhjKGMxMilbY0hdbm4xW0NIM10pbmMobjIpLWMoW2NIXVtjSF1bY0hdMyljKGMzNClbQ0gyXU49TjQ=

> <s_epik_cmdline>
J2VwaWtfYXBwJywgJy1pbWFlJywgJ2xpZ2FuZF9wcm8ubWFlJywgJy1vbWFlJywgJ2xpZ2FuZF9wcmVwLm1hZScsICctbXMnLCAnMScsICctcGgnLCAnNycsICctcGh0JywgJzAuNScsICctbnQn

> <r_lp_tautomer_probability>
1

> <r_epik_Ionization_Penalty>
  0.0009

> <r_epik_Ionization_Penalty_Charging>
  0.0000

> <r_epik_Ionization_Penalty_Neutral>
  0.0009

> <r_epik_State_Penalty>
 -0.0000

> <r_epik_Charging_Adjusted_Penalty>
0

> <i_epik_Tot_Q>
0

> <i_epik_Tot_abs_Q>
0

$$$$
