3nzw_ligand
                    3D
 Schrodinger Suite 2020-3.
102106  0  0  1  0            999 V2000
    8.3230 -137.9540   23.5500 O   0  0  0  0  0  0
    9.0550 -138.5490   24.3180 C   0  0  0  0  0  0
    8.6380 -139.4130   25.2930 O   0  0  0  0  0  0
    7.2040 -139.7080   25.4780 C   0  0  0  0  0  0
    6.5720 -140.4300   24.2420 C   0  0  0  0  0  0
    6.3710 -138.4280   25.8400 C   0  0  0  0  0  0
    7.1760 -140.6950   26.6750 C   0  0  0  0  0  0
   10.8850 -139.2550   21.6380 O   0  0  0  0  0  0
   10.7200 -138.0610   21.9090 C   0  0  0  0  0  0
   11.1230 -137.5810   23.2970 C   0  0  1  0  0  0
   10.4220 -138.4430   24.2920 N   0  0  0  0  0  0
   12.6680 -137.6230   23.4650 C   0  0  0  0  0  0
   13.0690 -137.0560   24.8350 C   0  0  0  0  0  0
   13.3600 -137.9170   25.9330 C   0  0  0  0  0  0
   13.7300 -137.3730   27.1860 C   0  0  0  0  0  0
   13.8160 -135.9480   27.3670 C   0  0  0  0  0  0
   13.5220 -135.1000   26.2670 C   0  0  0  0  0  0
   13.1530 -135.6460   25.0130 C   0  0  0  0  0  0
   14.1890 -135.3260   28.5780 O   0  0  0  0  0  0
   14.5940 -136.0290   29.7750 C   0  0  0  0  0  0
   16.0280 -136.6120   29.7020 C   0  0  0  0  0  0
   17.0750 -135.8740   29.0820 C   0  0  0  0  0  0
   18.3880 -136.4130   29.0160 C   0  0  0  0  0  0
   18.6610 -137.6990   29.5730 C   0  0  0  0  0  0
   17.6160 -138.4420   30.1940 C   0  0  0  0  0  0
   16.3050 -137.8990   30.2580 C   0  0  0  0  0  0
   10.1630 -137.1400   21.0630 N   0  0  0  0  0  0
    9.6850 -137.4780   19.7260 C   0  0  2  0  0  0
   10.7250 -137.2500   18.6720 C   0  0  0  0  0  0
   11.4350 -136.2590   18.7100 O   0  0  0  0  0  0
    8.4080 -136.6520   19.4380 C   0  0  0  0  0  0
   10.8470 -138.2560   17.5690 N   0  0  0  0  0  0
   11.6670 -137.9390   16.4140 C   0  0  1  0  0  0
   12.7060 -139.0390   16.0490 C   0  0  0  0  0  0
   13.6720 -139.5790   17.1600 C   0  0  2  0  0  0
   14.5860 -140.4880   16.5600 O   0  0  0  0  0  0
   12.9890 -140.4470   18.2120 C   0  0  0  0  0  0
   12.2790 -141.4150   17.9490 O   0  0  0  0  0  0
   13.2960 -139.9980   19.4400 N   0  0  0  0  0  0
   14.1320 -138.8910   19.3480 C   0  0  0  0  0  0
   14.6390 -138.1680   20.4470 C   0  0  0  0  0  0
   15.4730 -137.0620   20.1540 C   0  0  0  0  0  0
   15.7620 -136.7100   18.7950 C   0  0  0  0  0  0
   15.2360 -137.4540   17.7040 C   0  0  0  0  0  0
   14.4050 -138.5500   18.0150 C   0  0  0  0  0  0
   10.7770 -137.6610   15.2030 C   0  0  0  0  0  0
    9.6870 -138.2160   15.1740 O   0  0  0  0  0  0
   11.2080 -136.8260   14.1990 N   0  0  0  0  0  0
   10.3730 -136.5530   12.9980 C   0  0  0  0  0  0
    9.6260 -135.2050   13.1480 C   0  0  0  0  0  0
    8.4800 -135.1070   13.9820 C   0  0  0  0  0  0
    7.7940 -133.8600   14.1170 C   0  0  0  0  0  0
    8.2520 -132.7140   13.4150 C   0  0  0  0  0  0
    9.3950 -132.8120   12.5800 C   0  0  0  0  0  0
   10.0800 -134.0540   12.4470 C   0  0  0  0  0  0
    6.5795 -139.7504   23.3771 H   0  0  0  0  0  0
    5.5356 -140.7159   24.4748 H   0  0  0  0  0  0
    7.1566 -141.3312   24.0053 H   0  0  0  0  0  0
    6.3895 -137.7268   24.9927 H   0  0  0  0  0  0
    6.8084 -137.9443   26.7259 H   0  0  0  0  0  0
    5.3314 -138.7159   26.0551 H   0  0  0  0  0  0
    7.7593 -141.5930   26.4235 H   0  0  0  0  0  0
    6.1359 -140.9816   26.8897 H   0  0  0  0  0  0
    7.6129 -140.2100   27.5604 H   0  0  0  0  0  0
   10.7930 -136.5453   23.4654 H   0  0  0  0  0  0
   11.0031 -139.0147   25.0306 H   0  0  0  0  0  0
   13.0168 -138.6636   23.3902 H   0  0  0  0  0  0
   13.1393 -137.0206   22.6744 H   0  0  0  0  0  0
   13.2974 -138.9979   25.8072 H   0  0  0  0  0  0
   13.9515 -138.0385   28.0204 H   0  0  0  0  0  0
   13.5808 -134.0184   26.3885 H   0  0  0  0  0  0
   12.9317 -134.9814   24.1779 H   0  0  0  0  0  0
   14.5644 -135.3404   30.6323 H   0  0  0  0  0  0
   13.9083 -136.8698   29.9562 H   0  0  0  0  0  0
   16.8690 -134.8919   28.6563 H   0  0  0  0  0  0
   19.1870 -135.8446   28.5400 H   0  0  0  0  0  0
   19.6685 -138.1121   29.5231 H   0  0  0  0  0  0
   17.8219 -139.4244   30.6188 H   0  0  0  0  0  0
   15.5057 -138.4672   30.7339 H   0  0  0  0  0  0
   10.0834 -136.1063   21.4305 H   0  0  0  0  0  0
    9.4973 -138.5619   19.7299 H   0  0  0  0  0  0
    7.6644 -136.8395   20.2266 H   0  0  0  0  0  0
    7.9918 -136.9480   18.4638 H   0  0  0  0  0  0
    8.6603 -135.5815   19.4190 H   0  0  0  0  0  0
   10.3263 -139.2234   17.6251 H   0  0  0  0  0  0
   12.1990 -137.0359   16.7478 H   0  0  0  0  0  0
   12.1800 -139.9340   15.6854 H   0  0  0  0  0  0
   13.3769 -138.6632   15.2624 H   0  0  0  0  0  0
   14.2137 -141.2939   15.9104 H   0  0  0  0  0  0
   12.8914 -140.5054   20.3282 H   0  0  0  0  0  0
   14.4003 -138.4471   21.4733 H   0  0  0  0  0  0
   15.8982 -136.4742   20.9675 H   0  0  0  0  0  0
   16.4010 -135.8504   18.5931 H   0  0  0  0  0  0
   15.4650 -137.1889   16.6718 H   0  0  0  0  0  0
   12.1970 -136.3551   14.2999 H   0  0  0  0  0  0
   11.0164 -136.5064   12.1070 H   0  0  0  0  0  0
    9.6337 -137.3581   12.8747 H   0  0  0  0  0  0
    8.1229 -135.9849   14.5204 H   0  0  0  0  0  0
    6.9171 -133.7888   14.7605 H   0  0  0  0  0  0
    7.7281 -131.7636   13.5170 H   0  0  0  0  0  0
    9.7498 -131.9348   12.0390 H   0  0  0  0  0  0
   10.9575 -134.1225   11.8040 H   0  0  0  0  0  0
  1  2  2  0  0  0
  2  3  1  0  0  0
  2 11  1  0  0  0
  3  4  1  0  0  0
  4  5  1  0  0  0
  4  6  1  0  0  0
  4  7  1  0  0  0
  5 56  1  0  0  0
  5 57  1  0  0  0
  5 58  1  0  0  0
  6 59  1  0  0  0
  6 60  1  0  0  0
  6 61  1  0  0  0
  7 62  1  0  0  0
  7 63  1  0  0  0
  7 64  1  0  0  0
  8  9  2  0  0  0
  9 10  1  0  0  0
  9 27  1  0  0  0
 10 11  1  0  0  0
 10 12  1  0  0  0
 10 65  1  0  0  0
 11 66  1  0  0  0
 12 13  1  0  0  0
 12 67  1  0  0  0
 12 68  1  0  0  0
 13 14  2  0  0  0
 13 18  1  0  0  0
 14 15  1  0  0  0
 14 69  1  0  0  0
 15 16  2  0  0  0
 15 70  1  0  0  0
 16 17  1  0  0  0
 16 19  1  0  0  0
 17 18  2  0  0  0
 17 71  1  0  0  0
 18 72  1  0  0  0
 19 20  1  0  0  0
 20 21  1  0  0  0
 20 73  1  0  0  0
 20 74  1  0  0  0
 21 22  2  0  0  0
 21 26  1  0  0  0
 22 23  1  0  0  0
 22 75  1  0  0  0
 23 24  2  0  0  0
 23 76  1  0  0  0
 24 25  1  0  0  0
 24 77  1  0  0  0
 25 26  2  0  0  0
 25 78  1  0  0  0
 26 79  1  0  0  0
 27 28  1  0  0  0
 27 80  1  0  0  0
 28 29  1  0  0  0
 28 31  1  0  0  0
 28 81  1  0  0  0
 29 30  2  0  0  0
 29 32  1  0  0  0
 31 82  1  0  0  0
 31 83  1  0  0  0
 31 84  1  0  0  0
 32 33  1  0  0  0
 32 85  1  0  0  0
 33 34  1  0  0  0
 33 46  1  0  0  0
 33 86  1  0  0  0
 34 35  1  0  0  0
 34 87  1  0  0  0
 34 88  1  0  0  0
 35 36  1  0  0  0
 35 37  1  0  0  0
 35 45  1  0  0  0
 36 89  1  0  0  0
 37 38  2  0  0  0
 37 39  1  0  0  0
 39 40  1  0  0  0
 39 90  1  0  0  0
 40 41  2  0  0  0
 40 45  1  0  0  0
 41 42  1  0  0  0
 41 91  1  0  0  0
 42 43  2  0  0  0
 42 92  1  0  0  0
 43 44  1  0  0  0
 43 93  1  0  0  0
 44 45  2  0  0  0
 44 94  1  0  0  0
 46 47  2  0  0  0
 46 48  1  0  0  0
 48 49  1  0  0  0
 48 95  1  0  0  0
 49 50  1  0  0  0
 49 96  1  0  0  0
 49 97  1  0  0  0
 50 51  2  0  0  0
 50 55  1  0  0  0
 51 52  1  0  0  0
 51 98  1  0  0  0
 52 53  2  0  0  0
 52 99  1  0  0  0
 53 54  1  0  0  0
 53100  1  0  0  0
 54 55  2  0  0  0
 54101  1  0  0  0
 55102  1  0  0  0
M  END
> <s_m_source_file>
../3nzw_ligand.sdf

> <i_m_source_file_index>
1

> <s_epik_input>
W2NIXTFbY0hdW2NIXVtjSF1bY0hdYzFbQ0gyXU9jKFtjSF1bY0hdMilbY0hdW2NIXWMyW0NIMl1bQ0BIXShbTkhdQyg9TylPQyhbQ0gzXSkoW0NIM10pW0NIM10pQyg9TylbTkhdW0NAQEhdKFtDSDNdKUMoPU8pW05IXVtDQEBIXShbQ0gyXVtDQF0oW09IXSkoQyg9TylbTkhdMyljKGMzNClbY0hdW2NIXVtjSF1bY0hdNClDKD1PKVtOSF1bQ0gyXWM1W2NIXVtjSF1bY0hdW2NIXVtjSF01

> <s_epik_cmdline>
J2VwaWtfYXBwJywgJy1pbWFlJywgJ2xpZ2FuZF9wcm8ubWFlJywgJy1vbWFlJywgJ2xpZ2FuZF9wcmVwLm1hZScsICctbXMnLCAnMScsICctcGgnLCAnNycsICctcGh0JywgJzAuNScsICctbnQn

> <r_lp_tautomer_probability>
1

> <r_epik_Ionization_Penalty>
  0.0000

> <r_epik_Ionization_Penalty_Charging>
  0.0000

> <r_epik_Ionization_Penalty_Neutral>
  0.0000

> <r_epik_State_Penalty>
 -0.0000

> <r_epik_Charging_Adjusted_Penalty>
0

> <i_epik_Tot_Q>
0

> <i_epik_Tot_abs_Q>
0

> <s_epik_Chemistry_Notes>
This compound has an ester and may undergo hydrolysis at high or low pH.

$$$$
