3nzx_ligand
                    3D
 Schrodinger Suite 2020-3.
102106  0  0  1  0            999 V2000
    8.0890 -138.0090   23.2740 O   0  0  0  0  0  0
    8.8060 -138.6490   24.0520 C   0  0  0  0  0  0
    8.3410 -139.5480   24.9670 O   0  0  0  0  0  0
    6.8890 -139.8260   25.0640 C   0  0  0  0  0  0
    6.3310 -140.5180   23.7670 C   0  0  0  0  0  0
    6.0360 -138.5970   25.5020 C   0  0  0  0  0  0
    6.7990 -140.8820   26.2040 C   0  0  0  0  0  0
   11.1690 -139.1010   21.3170 O   0  0  0  0  0  0
   10.6470 -138.0530   21.7670 C   0  0  0  0  0  0
   10.9470 -137.6120   23.1810 C   0  0  1  0  0  0
   10.1880 -138.5360   24.0830 N   0  0  0  0  0  0
   12.4890 -137.6930   23.4470 C   0  0  0  0  0  0
   12.8810 -137.2100   24.8690 C   0  0  0  0  0  0
   13.1630 -138.1360   25.9180 C   0  0  0  0  0  0
   13.5360 -137.6800   27.2040 C   0  0  0  0  0  0
   13.6350 -136.2480   27.4560 C   0  0  0  0  0  0
   13.3510 -135.3570   26.4090 C   0  0  0  0  0  0
   12.9810 -135.8320   25.1420 C   0  0  0  0  0  0
   14.0010 -135.6680   28.7060 O   0  0  0  0  0  0
   14.4740 -136.4040   29.8490 C   0  0  0  0  0  0
   15.8810 -136.9480   29.6830 C   0  0  0  0  0  0
   16.8670 -136.1810   28.9890 C   0  0  0  0  0  0
   18.1820 -136.6840   28.8360 C   0  0  0  0  0  0
   18.5210 -137.9610   29.3770 C   0  0  0  0  0  0
   17.5380 -138.7330   30.0720 C   0  0  0  0  0  0
   16.2150 -138.2210   30.2240 C   0  0  0  0  0  0
    9.7780 -137.2900   21.0420 N   0  0  0  0  0  0
    9.3530 -137.5490   19.6610 C   0  0  2  0  0  0
   10.4980 -137.3560   18.6310 C   0  0  0  0  0  0
   11.2990 -136.4410   18.7530 O   0  0  0  0  0  0
    8.2900 -136.5160   19.2400 C   0  0  0  0  0  0
   10.5400 -138.2230   17.5750 N   0  0  0  0  0  0
   11.4900 -138.1890   16.4930 C   0  0  1  0  0  0
   12.1930 -139.5180   16.4360 C   0  0  0  0  0  0
   13.6920 -139.6270   16.6910 C   0  0  1  0  0  0
   14.1300 -141.0120   16.6150 O   0  0  0  0  0  0
   14.5200 -138.7920   15.6930 C   0  0  0  0  0  0
   14.4820 -138.9620   14.4990 O   0  0  0  0  0  0
   15.2750 -137.8670   16.3430 N   0  0  0  0  0  0
   15.0390 -137.9650   17.7100 C   0  0  0  0  0  0
   15.6480 -137.1770   18.7170 C   0  0  0  0  0  0
   15.2790 -137.4390   20.0720 C   0  0  0  0  0  0
   14.3610 -138.4810   20.3820 C   0  0  0  0  0  0
   13.7530 -139.2740   19.3640 C   0  0  0  0  0  0
   14.1280 -139.0070   18.0190 C   0  0  0  0  0  0
   10.6870 -137.9600   15.1950 C   0  0  0  0  0  0
    9.6970 -138.7040   14.9580 O   0  0  0  0  0  0
   11.0520 -136.9280   14.3420 N   0  0  0  0  0  0
   10.3150 -136.6500   13.1290 C   0  0  0  0  0  0
    9.6210 -135.2620   13.2200 C   0  0  0  0  0  0
    8.4440 -135.0850   13.9880 C   0  0  0  0  0  0
    7.8120 -133.7910   14.0650 C   0  0  0  0  0  0
    8.3690 -132.6740   13.3600 C   0  0  0  0  0  0
    9.5540 -132.8470   12.5780 C   0  0  0  0  0  0
   10.1820 -134.1450   12.5080 C   0  0  0  0  0  0
    6.3729 -139.8096   22.9265 H   0  0  0  0  0  0
    5.2885 -140.8260   23.9353 H   0  0  0  0  0  0
    6.9413 -141.4025   23.5318 H   0  0  0  0  0  0
    6.0750 -137.8257   24.7187 H   0  0  0  0  0  0
    6.4381 -138.1873   26.4403 H   0  0  0  0  0  0
    4.9930 -138.9108   25.6561 H   0  0  0  0  0  0
    7.3909 -141.7680   25.9307 H   0  0  0  0  0  0
    5.7487 -141.1739   26.3513 H   0  0  0  0  0  0
    7.1938 -140.4504   27.1356 H   0  0  0  0  0  0
   10.6029 -136.5820   23.3562 H   0  0  0  0  0  0
   10.7275 -139.1617   24.8093 H   0  0  0  0  0  0
   12.8249 -138.7352   23.3420 H   0  0  0  0  0  0
   13.0202 -137.0615   22.7197 H   0  0  0  0  0  0
   13.0901 -139.2065   25.7259 H   0  0  0  0  0  0
   13.7477 -138.3939   28.0000 H   0  0  0  0  0  0
   13.4188 -134.2831   26.5827 H   0  0  0  0  0  0
   12.7654 -135.1164   24.3486 H   0  0  0  0  0  0
   14.4782 -135.7476   30.7317 H   0  0  0  0  0  0
   13.8104 -137.2617   30.0331 H   0  0  0  0  0  0
   16.6063 -135.2064   28.5764 H   0  0  0  0  0  0
   18.9332 -136.0978   28.3067 H   0  0  0  0  0  0
   19.5328 -138.3490   29.2599 H   0  0  0  0  0  0
   17.7984 -139.7081   30.4837 H   0  0  0  0  0  0
   15.4615 -138.8039   30.7536 H   0  0  0  0  0  0
    9.3883 -136.4147   21.5824 H   0  0  0  0  0  0
    8.9979 -138.5890   19.7100 H   0  0  0  0  0  0
    7.4283 -136.5783   19.9209 H   0  0  0  0  0  0
    7.9609 -136.7268   18.2118 H   0  0  0  0  0  0
    8.7220 -135.5055   19.2868 H   0  0  0  0  0  0
    9.7593 -138.9976   17.5974 H   0  0  0  0  0  0
   12.2260 -137.3942   16.6843 H   0  0  0  0  0  0
   11.7572 -140.1957   17.1848 H   0  0  0  0  0  0
   12.0728 -139.9537   15.4331 H   0  0  0  0  0  0
   13.9005 -141.6133   15.7229 H   0  0  0  0  0  0
   15.9351 -137.1968   15.7728 H   0  0  0  0  0  0
   16.3708 -136.4002   18.4676 H   0  0  0  0  0  0
   15.7039 -136.8361   20.8745 H   0  0  0  0  0  0
   14.1157 -138.6786   21.4255 H   0  0  0  0  0  0
   13.0304 -140.0529   19.6075 H   0  0  0  0  0  0
   11.9255 -136.3145   14.6077 H   0  0  0  0  0  0
   11.0054 -136.6490   12.2726 H   0  0  0  0  0  0
    9.5478 -137.4242   12.9805 H   0  0  0  0  0  0
    8.0137 -135.9312   14.5236 H   0  0  0  0  0  0
    6.9084 -133.6620   14.6608 H   0  0  0  0  0  0
    7.8911 -131.6962   13.4197 H   0  0  0  0  0  0
    9.9811 -132.0024   12.0372 H   0  0  0  0  0  0
   11.0853 -134.2793   11.9130 H   0  0  0  0  0  0
  1  2  2  0  0  0
  2  3  1  0  0  0
  2 11  1  0  0  0
  3  4  1  0  0  0
  4  5  1  0  0  0
  4  6  1  0  0  0
  4  7  1  0  0  0
  5 56  1  0  0  0
  5 57  1  0  0  0
  5 58  1  0  0  0
  6 59  1  0  0  0
  6 60  1  0  0  0
  6 61  1  0  0  0
  7 62  1  0  0  0
  7 63  1  0  0  0
  7 64  1  0  0  0
  8  9  2  0  0  0
  9 10  1  0  0  0
  9 27  1  0  0  0
 10 11  1  0  0  0
 10 12  1  0  0  0
 10 65  1  0  0  0
 11 66  1  0  0  0
 12 13  1  0  0  0
 12 67  1  0  0  0
 12 68  1  0  0  0
 13 14  2  0  0  0
 13 18  1  0  0  0
 14 15  1  0  0  0
 14 69  1  0  0  0
 15 16  2  0  0  0
 15 70  1  0  0  0
 16 17  1  0  0  0
 16 19  1  0  0  0
 17 18  2  0  0  0
 17 71  1  0  0  0
 18 72  1  0  0  0
 19 20  1  0  0  0
 20 21  1  0  0  0
 20 73  1  0  0  0
 20 74  1  0  0  0
 21 22  2  0  0  0
 21 26  1  0  0  0
 22 23  1  0  0  0
 22 75  1  0  0  0
 23 24  2  0  0  0
 23 76  1  0  0  0
 24 25  1  0  0  0
 24 77  1  0  0  0
 25 26  2  0  0  0
 25 78  1  0  0  0
 26 79  1  0  0  0
 27 28  1  0  0  0
 27 80  1  0  0  0
 28 29  1  0  0  0
 28 31  1  0  0  0
 28 81  1  0  0  0
 29 30  2  0  0  0
 29 32  1  0  0  0
 31 82  1  0  0  0
 31 83  1  0  0  0
 31 84  1  0  0  0
 32 33  1  0  0  0
 32 85  1  0  0  0
 33 34  1  0  0  0
 33 46  1  0  0  0
 33 86  1  0  0  0
 34 35  1  0  0  0
 34 87  1  0  0  0
 34 88  1  0  0  0
 35 36  1  0  0  0
 35 37  1  0  0  0
 35 45  1  0  0  0
 36 89  1  0  0  0
 37 38  2  0  0  0
 37 39  1  0  0  0
 39 40  1  0  0  0
 39 90  1  0  0  0
 40 41  2  0  0  0
 40 45  1  0  0  0
 41 42  1  0  0  0
 41 91  1  0  0  0
 42 43  2  0  0  0
 42 92  1  0  0  0
 43 44  1  0  0  0
 43 93  1  0  0  0
 44 45  2  0  0  0
 44 94  1  0  0  0
 46 47  2  0  0  0
 46 48  1  0  0  0
 48 49  1  0  0  0
 48 95  1  0  0  0
 49 50  1  0  0  0
 49 96  1  0  0  0
 49 97  1  0  0  0
 50 51  2  0  0  0
 50 55  1  0  0  0
 51 52  1  0  0  0
 51 98  1  0  0  0
 52 53  2  0  0  0
 52 99  1  0  0  0
 53 54  1  0  0  0
 53100  1  0  0  0
 54 55  2  0  0  0
 54101  1  0  0  0
 55102  1  0  0  0
M  END
> <s_m_source_file>
../3nzx_ligand.sdf

> <i_m_source_file_index>
1

> <s_epik_input>
W2NIXTFbY0hdW2NIXVtjSF1bY0hdYzFbQ0gyXU9jKFtjSF1bY0hdMilbY0hdW2NIXWMyW0NIMl1bQ0BIXShbTkhdQyg9TylPQyhbQ0gzXSkoW0NIM10pW0NIM10pQyg9TylbTkhdW0NAQEhdKFtDSDNdKUMoPU8pW05IXVtDQEBIXShbQ0gyXVtDQEBdKFtPSF0pKEMoPU8pW05IXTMpYyhjMzQpW2NIXVtjSF1bY0hdW2NIXTQpQyg9TylbTkhdW0NIMl1jNVtjSF1bY0hdW2NIXVtjSF1bY0hdNQ==

> <s_epik_cmdline>
J2VwaWtfYXBwJywgJy1pbWFlJywgJ2xpZ2FuZF9wcm8ubWFlJywgJy1vbWFlJywgJ2xpZ2FuZF9wcmVwLm1hZScsICctbXMnLCAnMScsICctcGgnLCAnNycsICctcGh0JywgJzAuNScsICctbnQn

> <r_lp_tautomer_probability>
1

> <r_epik_Ionization_Penalty>
  0.0000

> <r_epik_Ionization_Penalty_Charging>
  0.0000

> <r_epik_Ionization_Penalty_Neutral>
  0.0000

> <r_epik_State_Penalty>
 -0.0000

> <r_epik_Charging_Adjusted_Penalty>
0

> <i_epik_Tot_Q>
0

> <i_epik_Tot_abs_Q>
0

> <s_epik_Chemistry_Notes>
This compound has an ester and may undergo hydrolysis at high or low pH.

$$$$
