3o0e_ligand
                    3D
 Schrodinger Suite 2020-3.
136135  0  0  1  0            999 V2000
   10.5150   -2.1690   34.0710 N   0  3  0  0  0  0
    9.7180   -3.1390   34.8730 C   0  0  2  0  0  0
    9.1340   -4.2470   33.9940 C   0  0  0  0  0  0
    8.8900   -4.0420   32.8080 O   0  0  0  0  0  0
    8.5640   -2.4260   35.6190 C   0  0  0  0  0  0
    8.9940   -1.7010   36.7650 O   0  0  0  0  0  0
    8.9530   -5.4280   34.5860 N   0  0  0  0  0  0
    7.9340   -6.4070   34.1660 C   0  0  0  0  0  0
    7.9450   -7.1190   32.8390 C   0  0  0  0  0  0
    8.7550   -8.0050   32.6290 O   0  0  0  0  0  0
    6.9980   -6.7490   31.9720 N   0  0  0  0  0  0
    6.7610   -7.4050   30.6790 C   0  0  0  0  0  0
    5.2790   -7.6340   30.4080 C   0  0  0  0  0  0
    4.4580   -7.5630   31.3190 O   0  0  0  0  0  0
    4.9370   -7.9340   29.1610 N   0  0  0  0  0  0
    3.5390   -8.1370   28.7590 C   0  0  0  0  0  0
    3.0990   -7.0280   27.8210 C   0  0  0  0  0  0
    2.6570   -7.2960   26.7030 O   0  0  0  0  0  0
    3.2440   -5.7810   28.2950 N   0  0  0  0  0  0
    2.9260   -4.5140   27.5640 C   0  0  0  0  0  0
    3.5600   -3.3370   28.3160 C   0  0  0  0  0  0
    4.3360   -3.5930   29.2460 O   0  0  0  0  0  0
    3.2620   -2.0600   28.0030 N   0  0  0  0  0  0
    2.2930   -1.5440   27.0090 C   0  0  2  0  0  0
    2.8560   -0.2820   26.2930 C   0  0  0  0  0  0
    4.0590   -0.0270   26.3130 O   0  0  0  0  0  0
    0.9670   -1.1480   27.7030 C   0  0  0  0  0  0
    0.0140   -2.2880   28.0440 C   0  0  0  0  0  0
   -0.4730   -2.1340   29.4490 C   0  0  0  0  0  0
   -1.1000   -3.3610   29.9410 N   0  0  0  0  0  0
   -1.2110   -3.7070   31.2340 C   0  0  0  0  0  0
   -0.7170   -2.9310   32.2030 N   0  0  0  0  0  0
   -1.8150   -4.8470   31.5670 N   0  3  0  0  0  0
    1.9700    0.5060   25.6870 N   0  0  0  0  0  0
    2.3230    1.7690   25.0060 C   0  0  0  0  0  0
    1.1010    2.4690   24.3830 C   0  0  0  0  0  0
    1.2520    3.3920   23.5740 O   0  0  0  0  0  0
   -0.1080    2.0330   24.7650 N   0  0  0  0  0  0
   -1.3700    2.5860   24.2580 C   0  0  0  0  0  0
   -2.2800    3.1990   25.3350 C   0  0  0  0  0  0
   -2.5630    2.5760   26.3490 O   0  0  0  0  0  0
   -2.7090    4.4400   25.0990 N   0  0  0  0  0  0
   -3.7970    5.1140   25.8240 C   0  0  2  0  0  0
   -4.1440    6.4530   25.1350 C   0  0  0  0  0  0
   -3.3010    7.0800   24.5050 O   0  0  0  0  0  0
   -3.4680    5.3040   27.3190 C   0  0  0  0  0  0
   -4.7110    5.6920   28.1810 C   0  0  0  0  0  0
   -5.6610    4.9270   28.3320 O   0  0  0  0  0  0
   -4.6720    6.8780   28.7620 N   0  0  0  0  0  0
   -5.3920    6.8820   25.2750 N   0  0  0  0  0  0
   -5.9530    8.0230   24.5510 C   0  0  0  0  0  0
   -7.3670    7.5800   24.2330 C   0  0  0  0  0  0
   -7.6840    7.2980   23.0830 O   0  0  0  0  0  0
   -8.2030    7.4570   25.2750 N   0  0  0  0  0  0
   -9.5570    6.8740   25.1920 C   0  0  0  0  0  0
   -9.7480    5.7530   26.1980 C   0  0  0  0  0  0
   -8.8110    4.9950   26.4550 O   0  0  0  0  0  0
  -10.9430    5.6300   26.7740 N   0  0  0  0  0  0
  -11.1770    4.6010   27.8080 C   0  0  0  0  0  0
  -12.5840    4.0360   27.9480 C   0  0  0  0  0  0
  -13.3420    3.9850   26.9770 O   0  0  0  0  0  0
  -12.9280    3.6040   29.1640 N   0  0  0  0  0  0
  -14.2660    3.0610   29.4600 C   0  0  0  0  0  0
  -14.7760    3.2350   30.8910 C   0  0  0  0  0  0
  -14.1460    2.7820   31.8490 O   0  0  0  0  0  0
  -15.9270    3.8960   31.0270 N   0  0  0  0  0  0
  -16.6020    4.0790   32.3210 C   0  0  0  0  0  0
  -17.7330    3.0740   32.4820 C   0  0  0  0  0  0
  -17.5510    1.8950   32.1910 O   0  0  0  0  0  0
  -18.9000    3.5250   32.9390 N   0  0  0  0  0  0
  -20.0460    2.6290   33.1330 C   0  0  0  0  0  0
  -21.3590    3.3540   33.3730 C   0  0  0  0  0  0
  -21.6648    3.7903   34.5148 O   0  0  0  0  0  0
  -22.1571    3.5222   32.4126 O   0  5  0  0  0  0
   11.3263   -2.7011   33.5526 H   0  0  0  0  0  0
   10.9440   -1.4068   34.7381 H   0  0  0  0  0  0
    9.8632   -1.6829   33.3301 H   0  0  0  0  0  0
   10.4339   -3.5765   35.5844 H   0  0  0  0  0  0
    8.0752   -1.7113   34.9406 H   0  0  0  0  0  0
    7.8296   -3.1720   35.9568 H   0  0  0  0  0  0
    8.2616   -1.1529   37.3758 H   0  0  0  0  0  0
    9.6176   -5.6548   35.4327 H   0  0  0  0  0  0
    7.9221   -7.2499   34.8727 H   0  0  0  0  0  0
    6.9454   -5.9249   34.1537 H   0  0  0  0  0  0
    6.3750   -5.8957   32.2782 H   0  0  0  0  0  0
    7.1614   -6.7763   29.8700 H   0  0  0  0  0  0
    7.2641   -8.3831   30.6664 H   0  0  0  0  0  0
    5.7424   -8.0295   28.4179 H   0  0  0  0  0  0
    3.4423   -9.1043   28.2443 H   0  0  0  0  0  0
    2.8962   -8.1307   29.6516 H   0  0  0  0  0  0
    3.6368   -5.7399   29.3217 H   0  0  0  0  0  0
    3.3334   -4.5673   26.5436 H   0  0  0  0  0  0
    1.8350   -4.3819   27.5167 H   0  0  0  0  0  0
    3.8569   -1.3587   28.6066 H   0  0  0  0  0  0
    2.1433   -2.3739   26.3027 H   0  0  0  0  0  0
    1.1879   -0.6444   28.6557 H   0  0  0  0  0  0
    0.4010   -0.4667   27.0508 H   0  0  0  0  0  0
   -0.8441   -2.2667   27.3561 H   0  0  0  0  0  0
    0.5406   -3.2486   27.9437 H   0  0  0  0  0  0
    0.3747   -1.8904   30.1063 H   0  0  0  0  0  0
   -1.2156   -1.3237   29.4929 H   0  0  0  0  0  0
   -1.5265   -4.0840   29.2301 H   0  0  0  0  0  0
   -0.2148   -1.9860   31.9486 H   0  0  0  0  0  0
   -0.8125   -3.2371   33.2552 H   0  0  0  0  0  0
   -2.2283   -5.4996   30.7839 H   0  0  0  0  0  0
    0.9232    0.1690   25.7128 H   0  0  0  0  0  0
    2.7756    2.4621   25.7304 H   0  0  0  0  0  0
    3.0409    1.5621   24.1987 H   0  0  0  0  0  0
   -0.1220    1.2148   25.5000 H   0  0  0  0  0  0
   -1.1552    3.3833   23.5312 H   0  0  0  0  0  0
   -1.9488    1.7893   23.7679 H   0  0  0  0  0  0
   -2.1796    4.9646   24.2900 H   0  0  0  0  0  0
   -4.6548    4.4285   25.7591 H   0  0  0  0  0  0
   -3.0617    4.3667   27.7270 H   0  0  0  0  0  0
   -2.7236    6.1060   27.4316 H   0  0  0  0  0  0
   -3.8065    7.5387   28.6060 H   0  0  0  0  0  0
   -5.5051    7.2047   29.4017 H   0  0  0  0  0  0
   -6.0157    6.3222   25.9875 H   0  0  0  0  0  0
   -5.9285    8.9141   25.1954 H   0  0  0  0  0  0
   -5.3590    8.2099   23.6442 H   0  0  0  0  0  0
   -7.8209    7.8253   26.2385 H   0  0  0  0  0  0
  -10.3052    7.6540   25.3965 H   0  0  0  0  0  0
   -9.7192    6.4657   24.1836 H   0  0  0  0  0  0
  -11.7593    6.3032   26.4733 H   0  0  0  0  0  0
  -10.5371    3.7287   27.6086 H   0  0  0  0  0  0
  -10.9351    5.0145   28.7982 H   0  0  0  0  0  0
  -12.1706    3.6644   29.9594 H   0  0  0  0  0  0
  -15.0111    3.5504   28.8156 H   0  0  0  0  0  0
  -14.2723    1.9775   29.2702 H   0  0  0  0  0  0
  -16.3706    4.3139   30.1113 H   0  0  0  0  0  0
  -15.8777    3.9339   33.1361 H   0  0  0  0  0  0
  -17.0182    5.0957   32.3770 H   0  0  0  0  0  0
  -18.9934    4.5959   33.1725 H   0  0  0  0  0  0
  -20.1780    2.0034   32.2379 H   0  0  0  0  0  0
  -19.8646    1.9855   34.0065 H   0  0  0  0  0  0
   -1.9004   -5.1355   32.6250 H   0  0  0  0  0  0
  1  2  1  0  0  0
  1 75  1  0  0  0
  1 76  1  0  0  0
  1 77  1  0  0  0
  2  3  1  0  0  0
  2  5  1  0  0  0
  2 78  1  0  0  0
  3  4  2  0  0  0
  3  7  1  0  0  0
  5  6  1  0  0  0
  5 79  1  0  0  0
  5 80  1  0  0  0
  6 81  1  0  0  0
  7  8  1  0  0  0
  7 82  1  0  0  0
  8  9  1  0  0  0
  8 83  1  0  0  0
  8 84  1  0  0  0
  9 10  2  0  0  0
  9 11  1  0  0  0
 11 12  1  0  0  0
 11 85  1  0  0  0
 12 13  1  0  0  0
 12 86  1  0  0  0
 12 87  1  0  0  0
 13 14  2  0  0  0
 13 15  1  0  0  0
 15 16  1  0  0  0
 15 88  1  0  0  0
 16 17  1  0  0  0
 16 89  1  0  0  0
 16 90  1  0  0  0
 17 18  2  0  0  0
 17 19  1  0  0  0
 19 20  1  0  0  0
 19 91  1  0  0  0
 20 21  1  0  0  0
 20 92  1  0  0  0
 20 93  1  0  0  0
 21 22  2  0  0  0
 21 23  1  0  0  0
 23 24  1  0  0  0
 23 94  1  0  0  0
 24 25  1  0  0  0
 24 27  1  0  0  0
 24 95  1  0  0  0
 25 26  2  0  0  0
 25 34  1  0  0  0
 27 28  1  0  0  0
 27 96  1  0  0  0
 27 97  1  0  0  0
 28 29  1  0  0  0
 28 98  1  0  0  0
 28 99  1  0  0  0
 29 30  1  0  0  0
 29100  1  0  0  0
 29101  1  0  0  0
 30 31  1  0  0  0
 30102  1  0  0  0
 31 32  1  0  0  0
 31 33  2  0  0  0
 32103  1  0  0  0
 32104  1  0  0  0
 33105  1  0  0  0
 33136  1  0  0  0
 34 35  1  0  0  0
 34106  1  0  0  0
 35 36  1  0  0  0
 35107  1  0  0  0
 35108  1  0  0  0
 36 37  2  0  0  0
 36 38  1  0  0  0
 38 39  1  0  0  0
 38109  1  0  0  0
 39 40  1  0  0  0
 39110  1  0  0  0
 39111  1  0  0  0
 40 41  2  0  0  0
 40 42  1  0  0  0
 42 43  1  0  0  0
 42112  1  0  0  0
 43 44  1  0  0  0
 43 46  1  0  0  0
 43113  1  0  0  0
 44 45  2  0  0  0
 44 50  1  0  0  0
 46 47  1  0  0  0
 46114  1  0  0  0
 46115  1  0  0  0
 47 48  2  0  0  0
 47 49  1  0  0  0
 49116  1  0  0  0
 49117  1  0  0  0
 50 51  1  0  0  0
 50118  1  0  0  0
 51 52  1  0  0  0
 51119  1  0  0  0
 51120  1  0  0  0
 52 53  2  0  0  0
 52 54  1  0  0  0
 54 55  1  0  0  0
 54121  1  0  0  0
 55 56  1  0  0  0
 55122  1  0  0  0
 55123  1  0  0  0
 56 57  2  0  0  0
 56 58  1  0  0  0
 58 59  1  0  0  0
 58124  1  0  0  0
 59 60  1  0  0  0
 59125  1  0  0  0
 59126  1  0  0  0
 60 61  2  0  0  0
 60 62  1  0  0  0
 62 63  1  0  0  0
 62127  1  0  0  0
 63 64  1  0  0  0
 63128  1  0  0  0
 63129  1  0  0  0
 64 65  2  0  0  0
 64 66  1  0  0  0
 66 67  1  0  0  0
 66130  1  0  0  0
 67 68  1  0  0  0
 67131  1  0  0  0
 67132  1  0  0  0
 68 69  2  0  0  0
 68 70  1  0  0  0
 70 71  1  0  0  0
 70133  1  0  0  0
 71 72  1  0  0  0
 71134  1  0  0  0
 71135  1  0  0  0
 72 73  2  0  0  0
 72 74  1  0  0  0
M  CHG  3   1   1  33   1  74  -1
M  END
> <s_m_source_file>
../3o0e_ligand.sdf

> <i_m_source_file_index>
1

> <s_epik_input>
W09IXVtDSDJdW0NASF0oW05IMytdKUMoPU8pW05IXVtDSDJdQyg9TylbTkhdW0NIMl1DKD1PKVtOSF1bQ0gyXUMoPU8pW05IXVtDSDJdQyg9TylbTkhdW0NAQEhdKFtDSDJdW0NIMl1bQ0gyXVtOSF0vQyhbTkgyXSk9TlxbSF0pQyg9TylbTkhdW0NIMl1DKD1PKVtOSF1bQ0gyXUMoPU8pW05IXVtDQEBIXShbQ0gyXUMoPU8pW05IMl0pQyg9TylbTkhdW0NIMl1DKD1PKVtOSF1bQ0gyXUMoPU8pW05IXVtDSDJdQyg9TylbTkhdW0NIMl1DKD1PKVtOSF1bQ0gyXUMoPU8pW05IXVtDSDJdQyg9TylbT0hd

> <s_epik_cmdline>
J2VwaWtfYXBwJywgJy1pbWFlJywgJ2xpZ2FuZF9wcm8ubWFlJywgJy1vbWFlJywgJ2xpZ2FuZF9wcmVwLm1hZScsICctbXMnLCAnMScsICctcGgnLCAnNycsICctcGh0JywgJzAuNScsICctbnQn

> <r_epik_Ionization_Penalty>
  0.1504

> <r_epik_Ionization_Penalty_Charging>
  0.1504

> <r_epik_Ionization_Penalty_Neutral>
  0.0000

> <r_epik_State_Penalty>
  0.1395

> <r_epik_Charging_Adjusted_Penalty>
0.289951036055253

> <i_epik_Tot_Q>
1

> <i_epik_Tot_abs_Q>
3

> <s_epik_Chemistry_Notes>
This compound has an imine and may undergo hydrolysis.

$$$$
