3o0g_ligand
                    3D
 Schrodinger Suite 2020-3.
 36 38  0  0  1  0            999 V2000
   -3.5840   67.0120   61.6530 Cl  0  0  0  0  0  0
   -7.4780   58.5100   57.2400 N   0  0  0  0  0  0
   -6.8320   59.0240   63.8580 C   0  0  0  0  0  0
   -6.9870   59.0860   62.4710 C   0  0  0  0  0  0
   -6.8760   57.9330   61.7000 C   0  0  0  0  0  0
   -7.0430   57.9580   60.1840 C   0  0  0  0  0  0
   -6.6390   59.2000   59.3770 C   0  0  0  0  0  0
   -6.8670   59.4110   58.0110 C   0  0  0  0  0  0
   -6.4290   60.6020   57.5390 N   0  0  0  0  0  0
   -4.2940   64.6470   58.5180 C   0  0  0  0  0  0
   -3.8620   65.7040   59.3170 C   0  0  0  0  0  0
   -4.1280   65.6850   60.6830 C   0  0  0  0  0  0
   -6.5660   57.8000   64.4760 C   0  0  0  0  0  0
   -6.4640   56.6470   63.6980 C   0  0  0  0  0  0
   -6.6230   56.7170   62.3190 C   0  0  0  0  0  0
   -7.5210   56.9810   59.6180 O   0  0  0  0  0  0
   -5.8600   60.5720   59.9820 S   0  0  0  0  0  0
   -5.8480   61.3800   58.4740 C   0  0  0  0  0  0
   -5.3510   62.5970   58.2040 N   0  0  0  0  0  0
   -4.9830   63.5610   59.0640 C   0  0  0  0  0  0
   -5.2440   63.5410   60.4430 C   0  0  0  0  0  0
   -4.8180   64.6030   61.2520 C   0  0  0  0  0  0
   -5.9380   55.3250   65.6300 O   0  5  0  0  0  0
   -6.2240   55.4630   64.2350 N   0  3  0  0  0  0
   -6.2770   54.3090   63.4020 O   0  0  0  0  0  0
   -7.8158   57.5560   57.6709 H   0  0  0  0  0  0
   -7.6441   58.7211   56.1733 H   0  0  0  0  0  0
   -6.9186   59.9302   64.4575 H   0  0  0  0  0  0
   -7.1958   60.0419   61.9906 H   0  0  0  0  0  0
   -4.0906   64.6679   57.4473 H   0  0  0  0  0  0
   -3.3195   66.5398   58.8751 H   0  0  0  0  0  0
   -6.4392   57.7464   65.5573 H   0  0  0  0  0  0
   -6.5484   55.8099   61.7192 H   0  0  0  0  0  0
   -5.1998   62.9102   57.1604 H   0  0  0  0  0  0
   -5.7780   62.6996   60.8846 H   0  0  0  0  0  0
   -5.0223   64.5889   62.3226 H   0  0  0  0  0  0
  1 12  1  0  0  0
  2  8  1  0  0  0
  2 26  1  0  0  0
  2 27  1  0  0  0
  3  4  2  0  0  0
  3 13  1  0  0  0
  3 28  1  0  0  0
  4  5  1  0  0  0
  4 29  1  0  0  0
  5  6  1  0  0  0
  5 15  2  0  0  0
  6  7  1  0  0  0
  6 16  2  0  0  0
  7  8  2  0  0  0
  7 17  1  0  0  0
  8  9  1  0  0  0
  9 18  2  0  0  0
 10 11  2  0  0  0
 10 20  1  0  0  0
 10 30  1  0  0  0
 11 12  1  0  0  0
 11 31  1  0  0  0
 12 22  2  0  0  0
 13 14  2  0  0  0
 13 32  1  0  0  0
 14 15  1  0  0  0
 14 24  1  0  0  0
 15 33  1  0  0  0
 17 18  1  0  0  0
 18 19  1  0  0  0
 19 20  1  0  0  0
 19 34  1  0  0  0
 20 21  2  0  0  0
 21 22  1  0  0  0
 21 35  1  0  0  0
 22 36  1  0  0  0
 23 24  1  0  0  0
 24 25  2  0  0  0
M  CHG  2  23  -1  24   1
M  END
> <s_m_source_file>
../3o0g_ligand.sdf

> <i_m_source_file_index>
1

> <s_epik_input>
Q2xjMVtjSF1bY0hdYyhbY0hdW2NIXTEpW05IXWMoczIpbmMoW05IMl0pYzJDKD1PKWMzW2NIXVtjSF1bY0hdYyhbY0hdMylbTitdKFtPLV0pPU8=

> <s_epik_cmdline>
J2VwaWtfYXBwJywgJy1pbWFlJywgJ2xpZ2FuZF9wcm8ubWFlJywgJy1vbWFlJywgJ2xpZ2FuZF9wcmVwLm1hZScsICctbXMnLCAnMScsICctcGgnLCAnNycsICctcGh0JywgJzAuNScsICctbnQn

> <r_lp_tautomer_probability>
1

> <r_epik_Ionization_Penalty>
  0.0002

> <r_epik_Ionization_Penalty_Charging>
  0.0000

> <r_epik_Ionization_Penalty_Neutral>
  0.0002

> <r_epik_State_Penalty>
 -0.0000

> <r_epik_Charging_Adjusted_Penalty>
0

> <i_epik_Tot_Q>
0

> <i_epik_Tot_abs_Q>
2

$$$$
