3o0u_ligand
                    3D
 Schrodinger Suite 2020-3.
 45 46  0  0  1  0            999 V2000
  -17.3600   -0.1580   -5.0420 C   0  0  0  0  0  0
  -18.5150   -0.8130   -4.6370 C   0  0  0  0  0  0
  -19.6280   -0.0850   -4.2760 C   0  0  0  0  0  0
  -19.6180    1.2950   -4.2850 C   0  0  0  0  0  0
  -18.4780    1.9770   -4.6920 C   0  0  0  0  0  0
  -17.3440    1.2360   -5.0720 C   0  0  0  0  0  0
  -16.1990   -1.0290   -5.4520 C   0  0  0  0  0  0
  -16.6100   -1.7560   -6.4570 F   0  0  0  0  0  0
  -15.8630   -1.8560   -4.4860 F   0  0  0  0  0  0
  -15.1310   -0.3620   -5.8260 F   0  0  0  0  0  0
  -17.4840    4.0660   -5.4340 N   0  0  0  0  0  0
  -18.4630    3.4690   -4.7230 C   0  0  0  0  0  0
  -19.3990    4.2750   -4.0600 C   0  0  0  0  0  0
  -19.3030    5.6590   -4.1290 C   0  0  0  0  0  0
  -18.3150    6.2010   -4.8350 N   0  0  0  0  0  0
  -17.4160    5.4220   -5.4720 C   0  0  0  0  0  0
  -20.2710    6.6070   -3.4460 C   0  0  0  0  0  0
  -19.5870    7.2530   -2.2320 C   0  0  0  0  0  0
  -20.4860    8.2900   -1.5720 C   0  0  0  0  0  0
  -20.8590   -0.7830   -3.8380 C   0  0  0  0  0  0
  -21.8000   -1.0150   -4.7430 N   0  0  0  0  0  0
  -20.9530   -1.0960   -2.6600 O   0  0  0  0  0  0
  -23.0310   -1.6910   -4.3760 C   0  0  0  0  0  0
  -21.6420   -0.6130   -6.1340 C   0  0  0  0  0  0
  -16.3230    6.0590   -6.2210 C   0  0  0  0  0  0
  -16.1570    7.2890   -6.2590 N   0  0  0  0  0  0
  -18.5415   -1.9022   -4.6046 H   0  0  0  0  0  0
  -20.5033    1.8492   -3.9732 H   0  0  0  0  0  0
  -16.4425    1.7576   -5.3936 H   0  0  0  0  0  0
  -20.2047    3.8142   -3.4885 H   0  0  0  0  0  0
  -20.5771    7.3913   -4.1539 H   0  0  0  0  0  0
  -21.1576    6.0480   -3.1121 H   0  0  0  0  0  0
  -19.3475    6.4769   -1.4901 H   0  0  0  0  0  0
  -18.6604    7.7502   -2.5547 H   0  0  0  0  0  0
  -19.9653    8.7306   -0.7090 H   0  0  0  0  0  0
  -21.4146    7.8076   -1.2328 H   0  0  0  0  0  0
  -20.7275    9.0808   -2.2975 H   0  0  0  0  0  0
  -23.0106   -1.9329   -3.3031 H   0  0  0  0  0  0
  -23.1278   -2.6186   -4.9593 H   0  0  0  0  0  0
  -23.8873   -1.0338   -4.5875 H   0  0  0  0  0  0
  -20.6691   -0.1163   -6.2639 H   0  0  0  0  0  0
  -22.4485    0.0829   -6.4084 H   0  0  0  0  0  0
  -21.6890   -1.5020   -6.7802 H   0  0  0  0  0  0
  -15.6350    5.3941   -6.7637 H   0  0  0  0  0  0
  -16.8450    7.9539   -5.7163 H   0  0  0  0  0  0
  1  2  2  0  0  0
  1  6  1  0  0  0
  1  7  1  0  0  0
  2  3  1  0  0  0
  2 27  1  0  0  0
  3  4  2  0  0  0
  3 20  1  0  0  0
  4  5  1  0  0  0
  4 28  1  0  0  0
  5  6  2  0  0  0
  5 12  1  0  0  0
  6 29  1  0  0  0
  7  8  1  0  0  0
  7  9  1  0  0  0
  7 10  1  0  0  0
 11 12  2  0  0  0
 11 16  1  0  0  0
 12 13  1  0  0  0
 13 14  2  0  0  0
 13 30  1  0  0  0
 14 15  1  0  0  0
 14 17  1  0  0  0
 15 16  2  0  0  0
 16 25  1  0  0  0
 17 18  1  0  0  0
 17 31  1  0  0  0
 17 32  1  0  0  0
 18 19  1  0  0  0
 18 33  1  0  0  0
 18 34  1  0  0  0
 19 35  1  0  0  0
 19 36  1  0  0  0
 19 37  1  0  0  0
 20 21  1  0  0  0
 20 22  2  0  0  0
 21 23  1  0  0  0
 21 24  1  0  0  0
 23 38  1  0  0  0
 23 39  1  0  0  0
 23 40  1  0  0  0
 24 41  1  0  0  0
 24 42  1  0  0  0
 24 43  1  0  0  0
 25 26  2  0  0  0
 25 44  1  0  0  0
 26 45  1  0  0  0
M  END
> <s_m_source_file>
../3o0u_ligand.sdf

> <i_m_source_file_index>
1

> <s_epik_input>
RkMoRikoRiljMVtjSF1jKEMoPU8pTihbQ0gzXSlbQ0gzXSlbY0hdYyhbY0hdMSktYzJuYygvW0NIXT1OXFtIXSluYyhbY0hdMilbQ0gyXVtDSDJdW0NIM10=

> <s_epik_cmdline>
J2VwaWtfYXBwJywgJy1pbWFlJywgJ2xpZ2FuZF9wcm8ubWFlJywgJy1vbWFlJywgJ2xpZ2FuZF9wcmVwLm1hZScsICctbXMnLCAnMScsICctcGgnLCAnNycsICctcGh0JywgJzAuNScsICctbnQn

> <r_lp_tautomer_probability>
1

> <r_epik_Ionization_Penalty>
  0.0000

> <r_epik_Ionization_Penalty_Charging>
  0.0000

> <r_epik_Ionization_Penalty_Neutral>
  0.0000

> <r_epik_State_Penalty>
 -0.0000

> <r_epik_Charging_Adjusted_Penalty>
0

> <i_epik_Tot_Q>
0

> <i_epik_Tot_abs_Q>
0

> <s_epik_Chemistry_Notes>
This compound has an imine and may undergo hydrolysis.

$$$$
