3o1d_ligand
                    3D
 Schrodinger Suite 2020-3.
184185  0  0  1  0            999 V2000
   25.3360   29.7000   28.1980 N   0  3  0  0  0  0
   25.2330   31.0110   27.5630 C   0  0  2  0  0  0
   23.8420   31.6010   27.7650 C   0  0  0  0  0  0
   22.8390   30.9880   27.3960 O   0  0  0  0  0  0
   25.5630   30.9150   26.0770 C   0  0  0  0  0  0
   23.7900   32.7910   28.3550 N   0  0  0  0  0  0
   22.5220   33.4440   28.6560 C   0  0  2  0  0  0
   22.4080   34.7870   27.9490 C   0  0  0  0  0  0
   22.3550   35.8340   28.5960 O   0  0  0  0  0  0
   22.3680   33.6380   30.1650 C   0  0  0  0  0  0
   22.3650   32.3570   30.9390 C   0  0  0  0  0  0
   21.2510   31.5510   31.0370 N   0  0  0  0  0  0
   23.3400   31.7410   31.6460 C   0  0  0  0  0  0
   21.5410   30.4930   31.7730 C   0  0  0  0  0  0
   22.8020   30.5830   32.1560 N   0  0  0  0  0  0
   22.3610   34.7420   26.6200 N   0  0  0  0  0  0
   22.3020   35.9430   25.7910 C   0  0  2  0  0  0
   21.3790   37.0090   26.3740 C   0  0  0  0  0  0
   21.8050   38.1270   26.6590 O   0  0  0  0  0  0
   21.8260   35.5910   24.3790 C   0  0  0  0  0  0
   22.4840   34.3640   23.7530 C   0  0  0  0  0  0
   23.9360   34.6070   23.3740 C   0  0  0  0  0  0
   24.8730   34.2370   24.5090 C   0  0  0  0  0  0
   26.2970   34.4070   24.1220 N   0  3  0  0  0  0
   20.1130   36.6500   26.5500 N   0  0  0  0  0  0
   19.0850   37.6040   26.9490 C   0  0  2  0  0  0
   19.2720   38.1300   28.3710 C   0  0  0  0  0  0
   19.2600   39.3420   28.5880 O   0  0  0  0  0  0
   17.6760   37.0050   26.7890 C   0  0  2  0  0  0
   17.5060   36.4530   25.3710 C   0  0  0  0  0  0
   16.6110   38.0460   27.1050 C   0  0  0  0  0  0
   16.1510   35.8330   25.1030 C   0  0  0  0  0  0
   19.4300   37.2250   29.3360 N   0  0  0  0  0  0
   19.6570   37.6310   30.7220 C   0  0  2  0  0  0
   20.8520   38.5650   30.8340 C   0  0  0  0  0  0
   20.7700   39.6100   31.4760 O   0  0  0  0  0  0
   19.8550   36.4210   31.6370 C   0  0  0  0  0  0
   18.5910   35.7430   32.1620 C   0  0  0  0  0  0
   18.9680   34.5790   33.0570 C   0  0  0  0  0  0
   17.7260   36.7410   32.9160 C   0  0  0  0  0  0
   21.9630   38.1910   30.2070 N   0  0  0  0  0  0
   23.1590   39.0200   30.2630 C   0  0  2  0  0  0
   22.8680   40.3890   29.6600 C   0  0  0  0  0  0
   23.3210   41.4130   30.1670 O   0  0  0  0  0  0
   24.3330   38.3540   29.5420 C   0  0  0  0  0  0
   25.6640   38.9380   29.9000 C   0  0  0  0  0  0
   26.2190   40.0020   29.2210 N   0  0  0  0  0  0
   26.5480   38.6130   30.8740 C   0  0  0  0  0  0
   27.3870   40.3050   29.7580 C   0  0  0  0  0  0
   27.6110   39.4770   30.7620 N   0  0  0  0  0  0
   22.0960   40.3970   28.5780 N   0  0  0  0  0  0
   21.7120   41.6440   27.9310 C   0  0  2  0  0  0
   20.8660   42.4990   28.8640 C   0  0  0  0  0  0
   21.1650   43.6720   29.0760 O   0  0  0  0  0  0
   20.9530   41.3810   26.6260 C   0  0  0  0  0  0
   20.6410   42.6450   25.8320 C   0  0  0  0  0  0
   21.8960   43.4950   25.6430 C   0  0  0  0  0  0
   21.7090   44.5700   24.6710 N   0  0  0  0  0  0
   22.6760   45.3870   24.2610 C   0  0  0  0  0  0
   23.9090   45.2600   24.7350 N   0  0  0  0  0  0
   22.4090   46.3340   23.3720 N   0  0  0  0  0  0
   19.8120   41.9060   29.4200 N   0  0  0  0  0  0
   18.8770   42.6330   30.2770 C   0  0  2  0  0  0
   19.5120   43.0930   31.5850 C   0  0  0  0  0  0
   19.0670   44.0720   32.1860 O   0  0  0  0  0  0
   17.6470   41.7780   30.5860 C   0  0  0  0  0  0
   16.7420   41.3650   29.4280 C   0  0  0  0  0  0
   15.6210   40.4930   29.9670 C   0  0  0  0  0  0
   16.1890   42.5840   28.6990 C   0  0  0  0  0  0
   20.5420   42.3860   32.0340 N   0  0  0  0  0  0
   21.2450   42.7960   33.2440 C   0  0  2  0  0  0
   22.1310   43.9940   32.9430 C   0  0  0  0  0  0
   23.0490   44.3100   33.6990 O   0  0  0  0  0  0
   22.0650   41.6410   33.8130 C   0  0  0  0  0  0
   21.2010   40.6340   34.5700 C   0  0  0  0  0  0
   21.9160   39.3050   34.7650 C   0  0  0  0  0  0
   20.7630   41.2320   35.9010 C   0  0  0  0  0  0
   21.8240   44.6620   31.8350 N   0  0  0  0  0  0
   22.6440   45.7410   31.3080 C   0  0  2  0  0  0
   23.9680   45.1730   30.8090 C   0  0  0  0  0  0
   24.5320   44.2570   31.4110 O   0  0  0  0  0  0
   22.8840   46.8170   32.3650 C   0  0  0  0  0  0
   23.3830   48.1340   31.7980 C   0  0  0  0  0  0
   23.8340   49.0920   32.8790 C   0  0  0  0  0  0
   24.6630   48.7480   33.7200 O   0  0  0  0  0  0
   23.2880   50.3020   32.8650 N   0  0  0  0  0  0
   24.4932   45.6467   29.7662 O   0  0  0  0  0  0
   25.0946   29.7906   29.2674 H   0  0  0  0  0  0
   26.3610   29.3172   28.0846 H   0  0  0  0  0  0
   24.6300   29.0048   27.7203 H   0  0  0  0  0  0
   25.9769   31.6455   28.0670 H   0  0  0  0  0  0
   26.5688   30.4877   25.9517 H   0  0  0  0  0  0
   25.5327   31.9192   25.6291 H   0  0  0  0  0  0
   24.8254   30.2688   25.5786 H   0  0  0  0  0  0
   24.7381   33.2835   28.6170 H   0  0  0  0  0  0
   21.7504   32.7619   28.2694 H   0  0  0  0  0  0
   23.2021   34.2472   30.5433 H   0  0  0  0  0  0
   21.4165   34.1490   30.3738 H   0  0  0  0  0  0
   24.3891   31.9982   31.8539 H   0  0  0  0  0  0
   20.8557   29.6828   32.0221 H   0  0  0  0  0  0
   22.3679   33.7481   26.1486 H   0  0  0  0  0  0
   23.3358   36.3187   25.7910 H   0  0  0  0  0  0
   20.7447   35.3895   24.3962 H   0  0  0  0  0  0
   22.0313   36.4335   23.7022 H   0  0  0  0  0  0
   22.4575   33.5287   24.4683 H   0  0  0  0  0  0
   21.9398   34.0820   22.8396 H   0  0  0  0  0  0
   24.1928   33.9964   22.4958 H   0  0  0  0  0  0
   24.0795   35.6712   23.1353 H   0  0  0  0  0  0
   24.6703   34.8819   25.3768 H   0  0  0  0  0  0
   24.7130   33.1852   24.7885 H   0  0  0  0  0  0
   26.9426   34.1298   24.9684 H   0  0  0  0  0  0
   26.4801   35.4569   23.8497 H   0  0  0  0  0  0
   26.5228   33.7602   23.2614 H   0  0  0  0  0  0
   19.8498   35.5948   26.3850 H   0  0  0  0  0  0
   19.2424   38.4375   26.2486 H   0  0  0  0  0  0
   17.5440   36.1794   27.5038 H   0  0  0  0  0  0
   17.6376   37.2667   24.6426 H   0  0  0  0  0  0
   18.2592   35.6723   25.1887 H   0  0  0  0  0  0
   16.7589   38.4231   28.1277 H   0  0  0  0  0  0
   15.6145   37.5874   27.0238 H   0  0  0  0  0  0
   16.6902   38.8797   26.3918 H   0  0  0  0  0  0
   16.1149   35.4642   24.0673 H   0  0  0  0  0  0
   15.3661   36.5894   25.2504 H   0  0  0  0  0  0
   15.9876   34.9950   25.7966 H   0  0  0  0  0  0
   19.3873   36.1571   29.0757 H   0  0  0  0  0  0
   18.7393   38.1677   31.0045 H   0  0  0  0  0  0
   20.4102   35.6399   31.0970 H   0  0  0  0  0  0
   20.4230   36.7246   32.5287 H   0  0  0  0  0  0
   18.0058   35.3569   31.3144 H   0  0  0  0  0  0
   19.5924   33.8702   32.4932 H   0  0  0  0  0  0
   18.0553   34.0704   33.4010 H   0  0  0  0  0  0
   19.5299   34.9517   33.9261 H   0  0  0  0  0  0
   17.4641   37.5761   32.2497 H   0  0  0  0  0  0
   18.2814   37.1250   33.7844 H   0  0  0  0  0  0
   16.8069   36.2437   33.2593 H   0  0  0  0  0  0
   21.9741   37.2469   29.6426 H   0  0  0  0  0  0
   23.4014   39.1176   31.3315 H   0  0  0  0  0  0
   24.3629   37.2851   29.7999 H   0  0  0  0  0  0
   24.2067   38.4655   28.4550 H   0  0  0  0  0  0
   26.5455   37.8430   31.6596 H   0  0  0  0  0  0
   28.0527   41.1027   29.4285 H   0  0  0  0  0  0
   21.7462   39.4363   28.1721 H   0  0  0  0  0  0
   22.6628   42.1540   27.7169 H   0  0  0  0  0  0
   21.5546   40.7273   25.9773 H   0  0  0  0  0  0
   19.9941   40.8915   26.8517 H   0  0  0  0  0  0
   20.2492   42.3687   24.8420 H   0  0  0  0  0  0
   19.8891   43.2403   26.3708 H   0  0  0  0  0  0
   22.1759   43.9540   26.6027 H   0  0  0  0  0  0
   22.7196   42.8587   25.2868 H   0  0  0  0  0  0
   20.7174   44.7447   24.2281 H   0  0  0  0  0  0
   24.1367   44.4764   25.4726 H   0  0  0  0  0  0
   24.7034   45.9384   24.3903 H   0  0  0  0  0  0
   21.3889   46.4443   22.9754 H   0  0  0  0  0  0
   19.6549   40.8362   29.2179 H   0  0  0  0  0  0
   18.6093   43.5164   29.6786 H   0  0  0  0  0  0
   17.9650   40.8314   31.0473 H   0  0  0  0  0  0
   16.9880   42.3207   31.2797 H   0  0  0  0  0  0
   17.3249   40.7889   28.6943 H   0  0  0  0  0  0
   16.0502   39.6236   30.4865 H   0  0  0  0  0  0
   14.9916   40.1481   29.1334 H   0  0  0  0  0  0
   15.0094   41.0759   30.6714 H   0  0  0  0  0  0
   17.0224   43.1945   28.3211 H   0  0  0  0  0  0
   15.5817   43.1825   29.3939 H   0  0  0  0  0  0
   15.5639   42.2547   27.8559 H   0  0  0  0  0  0
   20.8645   41.4869   31.4885 H   0  0  0  0  0  0
   20.4703   43.0795   33.9716 H   0  0  0  0  0  0
   22.5678   41.1089   32.9920 H   0  0  0  0  0  0
   22.8188   42.0351   34.5105 H   0  0  0  0  0  0
   20.3066   40.4177   33.9672 H   0  0  0  0  0  0
   22.2170   38.9035   33.7861 H   0  0  0  0  0  0
   21.2389   38.5937   35.2606 H   0  0  0  0  0  0
   22.8088   39.4571   35.3892 H   0  0  0  0  0  0
   20.2512   42.1891   35.7222 H   0  0  0  0  0  0
   21.6457   41.4010   36.5352 H   0  0  0  0  0  0
   20.0758   40.5376   36.4065 H   0  0  0  0  0  0
   20.9028   44.3655   31.3121 H   0  0  0  0  0  0
   22.0734   46.1790   30.4758 H   0  0  0  0  0  0
   21.9434   47.0260   32.8956 H   0  0  0  0  0  0
   23.6392   46.4640   33.0827 H   0  0  0  0  0  0
   24.2379   47.9460   31.1319 H   0  0  0  0  0  0
   22.5751   48.6182   31.2298 H   0  0  0  0  0  0
   22.5503   50.5636   32.0921 H   0  0  0  0  0  0
   23.5733   51.0430   33.6263 H   0  0  0  0  0  0
   25.4483   45.2428   29.3992 H   0  0  0  0  0  0
  1  2  1  0  0  0
  1 88  1  0  0  0
  1 89  1  0  0  0
  1 90  1  0  0  0
  2  3  1  0  0  0
  2  5  1  0  0  0
  2 91  1  0  0  0
  3  4  2  0  0  0
  3  6  1  0  0  0
  5 92  1  0  0  0
  5 93  1  0  0  0
  5 94  1  0  0  0
  6  7  1  0  0  0
  6 95  1  0  0  0
  7  8  1  0  0  0
  7 10  1  0  0  0
  7 96  1  0  0  0
  8  9  2  0  0  0
  8 16  1  0  0  0
 10 11  1  0  0  0
 10 97  1  0  0  0
 10 98  1  0  0  0
 11 12  2  0  0  0
 11 13  1  0  0  0
 12 14  1  0  0  0
 13 15  2  0  0  0
 13 99  1  0  0  0
 14 15  1  0  0  0
 14100  1  0  0  0
 16 17  1  0  0  0
 16101  1  0  0  0
 17 18  1  0  0  0
 17 20  1  0  0  0
 17102  1  0  0  0
 18 19  2  0  0  0
 18 25  1  0  0  0
 20 21  1  0  0  0
 20103  1  0  0  0
 20104  1  0  0  0
 21 22  1  0  0  0
 21105  1  0  0  0
 21106  1  0  0  0
 22 23  1  0  0  0
 22107  1  0  0  0
 22108  1  0  0  0
 23 24  1  0  0  0
 23109  1  0  0  0
 23110  1  0  0  0
 24111  1  0  0  0
 24112  1  0  0  0
 24113  1  0  0  0
 25 26  1  0  0  0
 25114  1  0  0  0
 26 27  1  0  0  0
 26 29  1  0  0  0
 26115  1  0  0  0
 27 28  2  0  0  0
 27 33  1  0  0  0
 29 30  1  0  0  0
 29 31  1  0  0  0
 29116  1  0  0  0
 30 32  1  0  0  0
 30117  1  0  0  0
 30118  1  0  0  0
 31119  1  0  0  0
 31120  1  0  0  0
 31121  1  0  0  0
 32122  1  0  0  0
 32123  1  0  0  0
 32124  1  0  0  0
 33 34  1  0  0  0
 33125  1  0  0  0
 34 35  1  0  0  0
 34 37  1  0  0  0
 34126  1  0  0  0
 35 36  2  0  0  0
 35 41  1  0  0  0
 37 38  1  0  0  0
 37127  1  0  0  0
 37128  1  0  0  0
 38 39  1  0  0  0
 38 40  1  0  0  0
 38129  1  0  0  0
 39130  1  0  0  0
 39131  1  0  0  0
 39132  1  0  0  0
 40133  1  0  0  0
 40134  1  0  0  0
 40135  1  0  0  0
 41 42  1  0  0  0
 41136  1  0  0  0
 42 43  1  0  0  0
 42 45  1  0  0  0
 42137  1  0  0  0
 43 44  2  0  0  0
 43 51  1  0  0  0
 45 46  1  0  0  0
 45138  1  0  0  0
 45139  1  0  0  0
 46 47  2  0  0  0
 46 48  1  0  0  0
 47 49  1  0  0  0
 48 50  2  0  0  0
 48140  1  0  0  0
 49 50  1  0  0  0
 49141  1  0  0  0
 51 52  1  0  0  0
 51142  1  0  0  0
 52 53  1  0  0  0
 52 55  1  0  0  0
 52143  1  0  0  0
 53 54  2  0  0  0
 53 62  1  0  0  0
 55 56  1  0  0  0
 55144  1  0  0  0
 55145  1  0  0  0
 56 57  1  0  0  0
 56146  1  0  0  0
 56147  1  0  0  0
 57 58  1  0  0  0
 57148  1  0  0  0
 57149  1  0  0  0
 58 59  1  0  0  0
 58150  1  0  0  0
 59 60  1  0  0  0
 59 61  2  0  0  0
 60151  1  0  0  0
 60152  1  0  0  0
 61153  1  0  0  0
 62 63  1  0  0  0
 62154  1  0  0  0
 63 64  1  0  0  0
 63 66  1  0  0  0
 63155  1  0  0  0
 64 65  2  0  0  0
 64 70  1  0  0  0
 66 67  1  0  0  0
 66156  1  0  0  0
 66157  1  0  0  0
 67 68  1  0  0  0
 67 69  1  0  0  0
 67158  1  0  0  0
 68159  1  0  0  0
 68160  1  0  0  0
 68161  1  0  0  0
 69162  1  0  0  0
 69163  1  0  0  0
 69164  1  0  0  0
 70 71  1  0  0  0
 70165  1  0  0  0
 71 72  1  0  0  0
 71 74  1  0  0  0
 71166  1  0  0  0
 72 73  2  0  0  0
 72 78  1  0  0  0
 74 75  1  0  0  0
 74167  1  0  0  0
 74168  1  0  0  0
 75 76  1  0  0  0
 75 77  1  0  0  0
 75169  1  0  0  0
 76170  1  0  0  0
 76171  1  0  0  0
 76172  1  0  0  0
 77173  1  0  0  0
 77174  1  0  0  0
 77175  1  0  0  0
 78 79  1  0  0  0
 78176  1  0  0  0
 79 80  1  0  0  0
 79 82  1  0  0  0
 79177  1  0  0  0
 80 81  2  0  0  0
 80 87  1  0  0  0
 82 83  1  0  0  0
 82178  1  0  0  0
 82179  1  0  0  0
 83 84  1  0  0  0
 83180  1  0  0  0
 83181  1  0  0  0
 84 85  2  0  0  0
 84 86  1  0  0  0
 86182  1  0  0  0
 86183  1  0  0  0
 87184  1  0  0  0
M  CHG  2   1   1  24   1
M  END
> <s_m_source_file>
../3o1d_ligand.sdf

> <i_m_source_file_index>
1

> <s_epik_input>
W0NIXTE9TltDSDJdTj1DMVtDSDJdW0NASF0oW05IXUMoPU8pW0NAQEhdKFtOSDMrXSlbQ0gzXSlDKD1PKVtOSF1bQ0BASF0oW0NIMl1bQ0gyXVtDSDJdW0NIMl1bTkgzK10pQyg9TylbTkhdW0NAQEhdKFtDQEBIXShbQ0gzXSlbQ0gyXVtDSDNdKUMoPU8pW05IXVtDQEBIXShbQ0gyXVtDSF0oW0NIM10pW0NIM10pQyg9TylbTkhdW0NAQEhdKFtDSDJdQzI9TltDSDJdTj1bQ0hdMilDKD1PKVtOSF1bQ0BASF0oW0NIMl1bQ0gyXVtDSDJdW05IXS9DKFtOSDJdKT1OXFtIXSlDKD1PKVtOSF1bQ0BASF0oW0NIMl1bQ0hdKFtDSDNdKVtDSDNdKUMoPU8pW05IXVtDQEBIXShbQ0gyXVtDSF0oW0NIM10pW0NIM10pQyg9TylbTkhdW0NASF0oQyg9TylbT0hdKVtDSDJdW0NIMl1DKD1PKVtOSDJd

> <s_epik_cmdline>
J2VwaWtfYXBwJywgJy1pbWFlJywgJ2xpZ2FuZF9wcm8ubWFlJywgJy1vbWFlJywgJ2xpZ2FuZF9wcmVwLm1hZScsICctbXMnLCAnMScsICctcGgnLCAnNycsICctcGh0JywgJzAuNScsICctbnQn

> <s_epik_pKa_notes>
Molecule size exceeds maximum supported for generating protonation states

> <s_epik_Chemistry_Notes>
This compound has an imine and may undergo hydrolysis.

$$$$
