3o1e_ligand
                    3D
 Schrodinger Suite 2020-3.
181182  0  0  1  0            999 V2000
   25.4880   31.7860   25.9520 N   0  3  0  0  0  0
   24.5430   31.3220   26.9600 C   0  0  0  0  0  0
   23.9050   32.5000   27.6910 C   0  0  0  0  0  0
   24.6070   33.3540   28.2320 O   0  0  0  0  0  0
   22.5740   32.5330   27.7040 N   0  0  0  0  0  0
   21.8100   33.5840   28.3910 C   0  0  2  0  0  0
   21.8900   34.9210   27.6690 C   0  0  0  0  0  0
   22.0870   35.9690   28.2840 O   0  0  0  0  0  0
   22.2550   33.7390   29.8400 C   0  0  0  0  0  0
   22.1830   32.4710   30.6260 C   0  0  0  0  0  0
   21.0330   31.7160   30.7150 N   0  0  0  0  0  0
   23.1190   31.8230   31.3600 C   0  0  0  0  0  0
   21.2640   30.6560   31.4700 C   0  0  0  0  0  0
   22.5210   30.6980   31.8740 N   0  0  0  0  0  0
   21.7430   34.8460   26.3520 N   0  0  0  0  0  0
   21.6920   35.9870   25.4600 C   0  0  2  0  0  0
   20.9040   37.1320   26.0810 C   0  0  0  0  0  0
   21.4340   38.2080   26.3390 O   0  0  0  0  0  0
   20.9870   35.5310   24.1780 C   0  0  0  0  0  0
   21.5800   35.9800   22.8630 C   0  0  0  0  0  0
   20.9630   35.1450   21.7300 C   0  0  0  0  0  0
   21.1530   35.7850   20.3570 C   0  0  0  0  0  0
   20.3350   37.0280   20.1760 N   0  3  0  0  0  0
   19.6240   36.8810   26.3140 N   0  0  0  0  0  0
   18.6890   37.9300   26.6930 C   0  0  2  0  0  0
   18.8580   38.4380   28.1410 C   0  0  0  0  0  0
   18.8220   39.6520   28.3830 O   0  0  0  0  0  0
   17.2220   37.4810   26.4300 C   0  0  2  0  0  0
   17.0970   36.7980   25.0500 C   0  0  0  0  0  0
   16.2760   38.6500   26.5310 C   0  0  0  0  0  0
   15.8650   35.8900   24.9320 C   0  0  0  0  0  0
   19.0240   37.5320   29.1050 N   0  0  0  0  0  0
   19.2350   37.9710   30.4910 C   0  0  2  0  0  0
   20.3950   38.9570   30.5390 C   0  0  0  0  0  0
   20.3000   40.0020   31.1640 O   0  0  0  0  0  0
   19.5140   36.7910   31.4230 C   0  0  0  0  0  0
   18.2810   36.1100   32.0170 C   0  0  0  0  0  0
   18.6580   34.8500   32.7470 C   0  0  0  0  0  0
   17.5360   37.0620   32.9300 C   0  0  0  0  0  0
   21.4810   38.6130   29.8510 N   0  0  0  0  0  0
   22.6550   39.4670   29.7290 C   0  0  2  0  0  0
   22.3080   40.8300   29.1820 C   0  0  0  0  0  0
   22.6890   41.8540   29.7430 O   0  0  0  0  0  0
   23.6590   38.8380   28.7780 C   0  0  0  0  0  0
   24.8770   38.3080   29.4540 C   0  0  0  0  0  0
   25.1280   36.9570   29.5830 N   0  0  0  0  0  0
   25.9160   38.9450   30.0430 C   0  0  0  0  0  0
   26.2700   36.7870   30.2210 C   0  0  0  0  0  0
   26.7670   37.9770   30.5140 N   0  0  0  0  0  0
   21.6080   40.8340   28.0580 N   0  0  0  0  0  0
   21.2300   42.0800   27.4350 C   0  0  2  0  0  0
   20.4070   42.9390   28.3950 C   0  0  0  0  0  0
   20.6700   44.1320   28.5550 O   0  0  0  0  0  0
   20.4340   41.8080   26.1650 C   0  0  0  0  0  0
   19.9450   43.0690   25.5010 C   0  0  0  0  0  0
   21.1160   43.9520   25.2160 C   0  0  0  0  0  0
   20.7460   45.0720   24.3710 N   0  0  0  0  0  0
   21.6220   45.9420   23.8900 C   0  0  0  0  0  0
   22.9070   45.8090   24.1880 N   0  0  0  0  0  0
   21.2160   46.9420   23.1200 N   0  0  0  0  0  0
   19.4110   42.3290   29.0310 N   0  0  0  0  0  0
   18.5160   43.0670   29.9220 C   0  0  2  0  0  0
   19.1880   43.4640   31.2280 C   0  0  0  0  0  0
   18.5840   44.1400   32.0540 O   0  0  0  0  0  0
   17.2590   42.2580   30.2350 C   0  0  0  0  0  0
   16.4320   41.8540   29.0180 C   0  0  0  0  0  0
   15.1710   41.1220   29.4500 C   0  0  0  0  0  0
   16.0990   43.0730   28.1710 C   0  0  0  0  0  0
   20.4340   43.0380   31.4080 N   0  0  0  0  0  0
   21.1660   43.3310   32.6290 C   0  0  2  0  0  0
   22.1800   44.4500   32.4220 C   0  0  0  0  0  0
   22.7490   44.9510   33.3820 O   0  0  0  0  0  0
   21.8320   42.0650   33.1810 C   0  0  0  0  0  0
   20.8950   41.1140   33.9430 C   0  0  0  0  0  0
   21.5680   39.8020   34.3370 C   0  0  0  0  0  0
   20.3210   41.8080   35.1630 C   0  0  0  0  0  0
   22.3870   44.8540   31.1700 N   0  0  0  0  0  0
   23.3290   45.9290   30.8490 C   0  0  2  0  0  0
   22.7700   47.3140   31.2100 C   0  0  0  0  0  0
   21.5630   47.4670   31.4240 O   0  0  0  0  0  0
   23.6930   45.9090   29.3570 C   0  0  0  0  0  0
   24.4420   44.6750   28.8420 C   0  0  0  0  0  0
   24.4950   44.6260   27.3070 C   0  0  0  0  0  0
   24.3000   45.6440   26.6350 O   0  0  0  0  0  0
   24.7430   43.4370   26.7510 N   0  0  0  0  0  0
   23.5488   48.3014   31.2884 O   0  0  0  0  0  0
   25.9331   30.9199   25.4405 H   0  0  0  0  0  0
   26.2818   32.3735   26.4365 H   0  0  0  0  0  0
   24.9622   32.4148   25.2184 H   0  0  0  0  0  0
   23.7492   30.7345   26.4755 H   0  0  0  0  0  0
   25.0687   30.6932   27.6936 H   0  0  0  0  0  0
   22.0461   31.7286   27.1709 H   0  0  0  0  0  0
   20.7697   33.2281   28.3587 H   0  0  0  0  0  0
   23.2991   34.0841   29.8680 H   0  0  0  0  0  0
   21.6119   34.4752   30.3444 H   0  0  0  0  0  0
   24.1745   32.0363   31.5847 H   0  0  0  0  0  0
   20.5404   29.8793   31.7172 H   0  0  0  0  0  0
   21.6572   33.8269   25.9469 H   0  0  0  0  0  0
   22.7296   36.3122   25.2938 H   0  0  0  0  0  0
   20.9791   34.4319   24.1350 H   0  0  0  0  0  0
   19.9527   35.9054   24.1753 H   0  0  0  0  0  0
   21.3566   37.0454   22.7048 H   0  0  0  0  0  0
   22.6700   35.8330   22.8830 H   0  0  0  0  0  0
   21.4353   34.1518   21.7074 H   0  0  0  0  0  0
   19.8825   35.0333   21.9034 H   0  0  0  0  0  0
   22.2104   36.0566   20.2223 H   0  0  0  0  0  0
   20.8554   35.0707   19.5751 H   0  0  0  0  0  0
   20.5134   37.4414   19.1724 H   0  0  0  0  0  0
   20.6231   37.7703   20.9349 H   0  0  0  0  0  0
   19.2682   36.7844   20.2879 H   0  0  0  0  0  0
   19.2746   35.8428   26.2133 H   0  0  0  0  0  0
   18.9899   38.7505   26.0250 H   0  0  0  0  0  0
   16.9187   36.7650   27.2080 H   0  0  0  0  0  0
   17.0189   37.5661   24.2665 H   0  0  0  0  0  0
   17.9858   36.1763   24.8667 H   0  0  0  0  0  0
   16.3803   39.1218   27.5192 H   0  0  0  0  0  0
   15.2423   38.2975   26.4002 H   0  0  0  0  0  0
   16.5151   39.3839   25.7473 H   0  0  0  0  0  0
   15.8374   35.4379   23.9296 H   0  0  0  0  0  0
   14.9540   36.4857   25.0908 H   0  0  0  0  0  0
   15.9208   35.0958   25.6911 H   0  0  0  0  0  0
   19.0033   36.4587   28.8651 H   0  0  0  0  0  0
   18.2969   38.4546   30.8011 H   0  0  0  0  0  0
   20.0622   36.0115   30.8736 H   0  0  0  0  0  0
   20.1187   37.1325   32.2760 H   0  0  0  0  0  0
   17.6061   35.8190   31.1986 H   0  0  0  0  0  0
   19.1965   34.1773   32.0633 H   0  0  0  0  0  0
   17.7479   34.3509   33.1111 H   0  0  0  0  0  0
   19.3053   35.1004   33.6004 H   0  0  0  0  0  0
   17.2724   37.9733   32.3731 H   0  0  0  0  0  0
   18.1760   37.3267   33.7846 H   0  0  0  0  0  0
   16.6186   36.5772   33.2952 H   0  0  0  0  0  0
   21.4634   37.6288   29.3601 H   0  0  0  0  0  0
   23.0406   39.5565   30.7553 H   0  0  0  0  0  0
   23.1864   37.9968   28.2498 H   0  0  0  0  0  0
   23.9921   39.5894   28.0469 H   0  0  0  0  0  0
   26.1585   40.0082   30.1875 H   0  0  0  0  0  0
   26.7267   35.8280   30.4654 H   0  0  0  0  0  0
   21.3145   39.8784   27.5991 H   0  0  0  0  0  0
   22.1783   42.5836   27.1958 H   0  0  0  0  0  0
   21.0675   41.2721   25.4429 H   0  0  0  0  0  0
   19.5546   41.1935   26.4080 H   0  0  0  0  0  0
   19.4344   42.8139   24.5607 H   0  0  0  0  0  0
   19.2429   43.5874   26.1705 H   0  0  0  0  0  0
   21.5159   44.3472   26.1615 H   0  0  0  0  0  0
   21.8963   43.3717   24.7019 H   0  0  0  0  0  0
   19.6920   45.2316   24.0996 H   0  0  0  0  0  0
   23.2402   44.9781   24.8272 H   0  0  0  0  0  0
   20.1490   47.0492   22.8748 H   0  0  0  0  0  0
   21.9461   47.6645   22.7263 H   0  0  0  0  0  0
   19.2665   41.2495   28.8771 H   0  0  0  0  0  0
   18.2717   43.9732   29.3483 H   0  0  0  0  0  0
   17.5407   41.3264   30.7476 H   0  0  0  0  0  0
   16.5957   42.8478   30.8847 H   0  0  0  0  0  0
   17.0248   41.1653   28.3981 H   0  0  0  0  0  0
   15.4449   40.2480   30.0591 H   0  0  0  0  0  0
   14.6169   40.7895   28.5598 H   0  0  0  0  0  0
   14.5391   41.7991   30.0435 H   0  0  0  0  0  0
   17.0297   43.5793   27.8753 H   0  0  0  0  0  0
   15.4744   43.7654   28.7545 H   0  0  0  0  0  0
   15.5522   42.7557   27.2708 H   0  0  0  0  0  0
   20.9105   42.4520   30.6083 H   0  0  0  0  0  0
   20.4013   43.6859   33.3356 H   0  0  0  0  0  0
   22.2609   41.4846   32.3508 H   0  0  0  0  0  0
   22.6310   42.3471   33.8824 H   0  0  0  0  0  0
   20.0704   40.8490   33.2649 H   0  0  0  0  0  0
   21.9769   39.3156   33.4391 H   0  0  0  0  0  0
   20.8289   39.1382   34.8093 H   0  0  0  0  0  0
   22.3833   40.0067   35.0465 H   0  0  0  0  0  0
   19.8415   42.7496   34.8575 H   0  0  0  0  0  0
   21.1298   42.0232   35.8769 H   0  0  0  0  0  0
   19.5754   41.1546   35.6396 H   0  0  0  0  0  0
   21.8263   44.3556   30.3655 H   0  0  0  0  0  0
   24.2062   45.7053   31.4739 H   0  0  0  0  0  0
   22.7746   45.9711   28.7547 H   0  0  0  0  0  0
   24.3415   46.7670   29.1262 H   0  0  0  0  0  0
   25.4753   44.6895   29.2190 H   0  0  0  0  0  0
   23.9355   43.7647   29.1953 H   0  0  0  0  0  0
   24.9109   42.5562   27.3881 H   0  0  0  0  0  0
   24.7793   43.3387   25.6560 H   0  0  0  0  0  0
   23.1532   49.2948   31.5465 H   0  0  0  0  0  0
  1  2  1  0  0  0
  1 87  1  0  0  0
  1 88  1  0  0  0
  1 89  1  0  0  0
  2  3  1  0  0  0
  2 90  1  0  0  0
  2 91  1  0  0  0
  3  4  2  0  0  0
  3  5  1  0  0  0
  5  6  1  0  0  0
  5 92  1  0  0  0
  6  7  1  0  0  0
  6  9  1  0  0  0
  6 93  1  0  0  0
  7  8  2  0  0  0
  7 15  1  0  0  0
  9 10  1  0  0  0
  9 94  1  0  0  0
  9 95  1  0  0  0
 10 11  2  0  0  0
 10 12  1  0  0  0
 11 13  1  0  0  0
 12 14  2  0  0  0
 12 96  1  0  0  0
 13 14  1  0  0  0
 13 97  1  0  0  0
 15 16  1  0  0  0
 15 98  1  0  0  0
 16 17  1  0  0  0
 16 19  1  0  0  0
 16 99  1  0  0  0
 17 18  2  0  0  0
 17 24  1  0  0  0
 19 20  1  0  0  0
 19100  1  0  0  0
 19101  1  0  0  0
 20 21  1  0  0  0
 20102  1  0  0  0
 20103  1  0  0  0
 21 22  1  0  0  0
 21104  1  0  0  0
 21105  1  0  0  0
 22 23  1  0  0  0
 22106  1  0  0  0
 22107  1  0  0  0
 23108  1  0  0  0
 23109  1  0  0  0
 23110  1  0  0  0
 24 25  1  0  0  0
 24111  1  0  0  0
 25 26  1  0  0  0
 25 28  1  0  0  0
 25112  1  0  0  0
 26 27  2  0  0  0
 26 32  1  0  0  0
 28 29  1  0  0  0
 28 30  1  0  0  0
 28113  1  0  0  0
 29 31  1  0  0  0
 29114  1  0  0  0
 29115  1  0  0  0
 30116  1  0  0  0
 30117  1  0  0  0
 30118  1  0  0  0
 31119  1  0  0  0
 31120  1  0  0  0
 31121  1  0  0  0
 32 33  1  0  0  0
 32122  1  0  0  0
 33 34  1  0  0  0
 33 36  1  0  0  0
 33123  1  0  0  0
 34 35  2  0  0  0
 34 40  1  0  0  0
 36 37  1  0  0  0
 36124  1  0  0  0
 36125  1  0  0  0
 37 38  1  0  0  0
 37 39  1  0  0  0
 37126  1  0  0  0
 38127  1  0  0  0
 38128  1  0  0  0
 38129  1  0  0  0
 39130  1  0  0  0
 39131  1  0  0  0
 39132  1  0  0  0
 40 41  1  0  0  0
 40133  1  0  0  0
 41 42  1  0  0  0
 41 44  1  0  0  0
 41134  1  0  0  0
 42 43  2  0  0  0
 42 50  1  0  0  0
 44 45  1  0  0  0
 44135  1  0  0  0
 44136  1  0  0  0
 45 46  2  0  0  0
 45 47  1  0  0  0
 46 48  1  0  0  0
 47 49  2  0  0  0
 47137  1  0  0  0
 48 49  1  0  0  0
 48138  1  0  0  0
 50 51  1  0  0  0
 50139  1  0  0  0
 51 52  1  0  0  0
 51 54  1  0  0  0
 51140  1  0  0  0
 52 53  2  0  0  0
 52 61  1  0  0  0
 54 55  1  0  0  0
 54141  1  0  0  0
 54142  1  0  0  0
 55 56  1  0  0  0
 55143  1  0  0  0
 55144  1  0  0  0
 56 57  1  0  0  0
 56145  1  0  0  0
 56146  1  0  0  0
 57 58  1  0  0  0
 57147  1  0  0  0
 58 59  2  0  0  0
 58 60  1  0  0  0
 59148  1  0  0  0
 60149  1  0  0  0
 60150  1  0  0  0
 61 62  1  0  0  0
 61151  1  0  0  0
 62 63  1  0  0  0
 62 65  1  0  0  0
 62152  1  0  0  0
 63 64  2  0  0  0
 63 69  1  0  0  0
 65 66  1  0  0  0
 65153  1  0  0  0
 65154  1  0  0  0
 66 67  1  0  0  0
 66 68  1  0  0  0
 66155  1  0  0  0
 67156  1  0  0  0
 67157  1  0  0  0
 67158  1  0  0  0
 68159  1  0  0  0
 68160  1  0  0  0
 68161  1  0  0  0
 69 70  1  0  0  0
 69162  1  0  0  0
 70 71  1  0  0  0
 70 73  1  0  0  0
 70163  1  0  0  0
 71 72  2  0  0  0
 71 77  1  0  0  0
 73 74  1  0  0  0
 73164  1  0  0  0
 73165  1  0  0  0
 74 75  1  0  0  0
 74 76  1  0  0  0
 74166  1  0  0  0
 75167  1  0  0  0
 75168  1  0  0  0
 75169  1  0  0  0
 76170  1  0  0  0
 76171  1  0  0  0
 76172  1  0  0  0
 77 78  1  0  0  0
 77173  1  0  0  0
 78 79  1  0  0  0
 78 81  1  0  0  0
 78174  1  0  0  0
 79 80  2  0  0  0
 79 86  1  0  0  0
 81 82  1  0  0  0
 81175  1  0  0  0
 81176  1  0  0  0
 82 83  1  0  0  0
 82177  1  0  0  0
 82178  1  0  0  0
 83 84  2  0  0  0
 83 85  1  0  0  0
 85179  1  0  0  0
 85180  1  0  0  0
 86181  1  0  0  0
M  CHG  2   1   1  23   1
M  END
> <s_m_source_file>
../3o1e_ligand.sdf

> <i_m_source_file_index>
1

> <s_epik_input>
W0NIXTE9TltDSDJdTj1DMVtDSDJdW0NASF0oW05IXUMoPU8pW0NIMl1bTkgzK10pQyg9TylbTkhdW0NAQEhdKFtDSDJdW0NIMl1bQ0gyXVtDSDJdW05IMytdKUMoPU8pW05IXVtDQEBIXShbQ0BASF0oW0NIM10pW0NIMl1bQ0gzXSlDKD1PKVtOSF1bQ0BASF0oW0NIMl1bQ0hdKFtDSDNdKVtDSDNdKUMoPU8pW05IXVtDQEBIXShbQ0gyXUMyPU5bQ0gyXU49W0NIXTIpQyg9TylbTkhdW0NAQEhdKFtDSDJdW0NIMl1bQ0gyXVtOSF0vQyg9TlxbSF0pW05IMl0pQyg9TylbTkhdW0NAQEhdKFtDSDJdW0NIXShbQ0gzXSlbQ0gzXSlDKD1PKVtOSF1bQ0BASF0oW0NIMl1bQ0hdKFtDSDNdKVtDSDNdKUMoPU8pW05IXVtDQEhdKEMoPU8pW09IXSlbQ0gyXVtDSDJdQyg9TylbTkgyXQ==

> <s_epik_cmdline>
J2VwaWtfYXBwJywgJy1pbWFlJywgJ2xpZ2FuZF9wcm8ubWFlJywgJy1vbWFlJywgJ2xpZ2FuZF9wcmVwLm1hZScsICctbXMnLCAnMScsICctcGgnLCAnNycsICctcGh0JywgJzAuNScsICctbnQn

> <s_epik_pKa_notes>
Molecule size exceeds maximum supported for generating protonation states

> <s_epik_Chemistry_Notes>
This compound has an imine and may undergo hydrolysis.

$$$$
