3o1g_ligand
                    3D
 Schrodinger Suite 2020-3.
 67 69  0  0  1  0            999 V2000
   13.8270   -3.0190    6.8110 C   0  0  0  0  0  0
   15.0070   -3.0930    6.1640 N   0  0  0  0  0  0
   16.0020   -2.2520    6.4700 C   0  0  0  0  0  0
   15.8670   -1.2810    7.4130 N   0  0  0  0  0  0
   14.7120   -1.1740    8.1130 C   0  0  0  0  0  0
   13.6610   -2.0530    7.8270 C   0  0  0  0  0  0
   17.2430   -2.3000    5.6910 C   0  0  0  0  0  0
   17.9940   -1.2960    5.7920 N   0  0  0  0  0  0
   14.6150   -0.0910    9.1820 C   0  0  0  0  0  0
   14.9510    1.2670    8.6010 C   0  0  0  0  0  0
   13.9790    1.6250    7.5000 C   0  0  0  0  0  0
   12.7880   -4.0310    6.4500 C   0  0  0  0  0  0
   11.4130   -3.7990    6.5580 C   0  0  0  0  0  0
   10.5060   -4.7910    6.1980 C   0  0  0  0  0  0
   10.9630   -6.0320    5.7740 C   0  0  0  0  0  0
   12.3320   -6.2700    5.6590 C   0  0  0  0  0  0
   13.2370   -5.2740    6.0010 C   0  0  0  0  0  0
   12.8600   -7.6050    5.2200 C   0  0  0  0  0  0
   13.6980   -7.4650    4.2430 F   0  0  0  0  0  0
   11.9090   -8.4220    4.8840 F   0  0  0  0  0  0
   13.4780   -8.1770    6.2270 F   0  0  0  0  0  0
    9.0190   -4.6080    6.3410 C   0  0  0  0  0  0
    8.6450   -4.5500    7.4820 O   0  0  0  0  0  0
    8.1360   -4.6090    5.3440 N   0  0  0  0  0  0
    8.4980   -4.7110    3.9360 C   0  0  0  0  0  0
    8.0920   -3.4490    3.2170 C   0  0  0  0  0  0
    8.3710   -2.2120    3.7880 C   0  0  0  0  0  0
    7.9760   -1.0510    3.1310 C   0  0  0  0  0  0
    7.3230   -1.1440    1.9080 C   0  0  0  0  0  0
    7.0540   -2.3770    1.3390 C   0  0  0  0  0  0
    7.4390   -3.5420    1.9990 C   0  0  0  0  0  0
    6.6820   -4.4580    5.6140 C   0  0  0  0  0  0
    6.2240   -5.6580    6.4600 C   0  0  0  0  0  0
    4.7640   -5.8090    6.4570 N   0  3  0  0  0  0
    4.2130   -6.9630    7.1630 C   0  0  0  0  0  0
    3.8710   -4.8560    5.7920 C   0  0  0  0  0  0
   12.7251   -1.9924    8.3824 H   0  0  0  0  0  0
   17.5350   -3.1427    5.0471 H   0  0  0  0  0  0
   17.7020   -0.4533    6.4359 H   0  0  0  0  0  0
   13.5911   -0.0624    9.5831 H   0  0  0  0  0  0
   15.3213   -0.3142    9.9952 H   0  0  0  0  0  0
   14.8922    2.0290    9.3921 H   0  0  0  0  0  0
   15.9697    1.2466    8.1865 H   0  0  0  0  0  0
   14.2371    2.6125    7.0898 H   0  0  0  0  0  0
   12.9576    1.6527    7.9074 H   0  0  0  0  0  0
   14.0351    0.8703    6.7017 H   0  0  0  0  0  0
   11.0509   -2.8387    6.9251 H   0  0  0  0  0  0
   10.2509   -6.8206    5.5309 H   0  0  0  0  0  0
   14.3070   -5.4644    5.9181 H   0  0  0  0  0  0
    9.5856   -4.8493    3.8461 H   0  0  0  0  0  0
    7.9806   -5.5710    3.4857 H   0  0  0  0  0  0
    8.8947   -2.1526    4.7421 H   0  0  0  0  0  0
    8.1774   -0.0750    3.5726 H   0  0  0  0  0  0
    7.0187   -0.2345    1.3900 H   0  0  0  0  0  0
    6.5428   -2.4362    0.3781 H   0  0  0  0  0  0
    7.2283   -4.5176    1.5609 H   0  0  0  0  0  0
    6.5062   -3.5202    6.1613 H   0  0  0  0  0  0
    6.1326   -4.4351    4.6613 H   0  0  0  0  0  0
    6.6651   -6.5811    6.0560 H   0  0  0  0  0  0
    6.5524   -5.5196    7.5007 H   0  0  0  0  0  0
    4.8274   -6.4040    5.5340 H   0  0  0  0  0  0
    5.0337   -7.5560    7.5929 H   0  0  0  0  0  0
    3.6411   -7.5850    6.4586 H   0  0  0  0  0  0
    3.5493   -6.6170    7.9691 H   0  0  0  0  0  0
    4.4682   -4.0622    5.3196 H   0  0  0  0  0  0
    3.1914   -4.4113    6.5339 H   0  0  0  0  0  0
    3.2832   -5.3793    5.0234 H   0  0  0  0  0  0
  1  2  2  0  0  0
  1  6  1  0  0  0
  1 12  1  0  0  0
  2  3  1  0  0  0
  3  4  2  0  0  0
  3  7  1  0  0  0
  4  5  1  0  0  0
  5  6  2  0  0  0
  5  9  1  0  0  0
  6 37  1  0  0  0
  7  8  2  0  0  0
  7 38  1  0  0  0
  8 39  1  0  0  0
  9 10  1  0  0  0
  9 40  1  0  0  0
  9 41  1  0  0  0
 10 11  1  0  0  0
 10 42  1  0  0  0
 10 43  1  0  0  0
 11 44  1  0  0  0
 11 45  1  0  0  0
 11 46  1  0  0  0
 12 13  2  0  0  0
 12 17  1  0  0  0
 13 14  1  0  0  0
 13 47  1  0  0  0
 14 15  2  0  0  0
 14 22  1  0  0  0
 15 16  1  0  0  0
 15 48  1  0  0  0
 16 17  2  0  0  0
 16 18  1  0  0  0
 17 49  1  0  0  0
 18 19  1  0  0  0
 18 20  1  0  0  0
 18 21  1  0  0  0
 22 23  2  0  0  0
 22 24  1  0  0  0
 24 25  1  0  0  0
 24 32  1  0  0  0
 25 26  1  0  0  0
 25 50  1  0  0  0
 25 51  1  0  0  0
 26 27  2  0  0  0
 26 31  1  0  0  0
 27 28  1  0  0  0
 27 52  1  0  0  0
 28 29  2  0  0  0
 28 53  1  0  0  0
 29 30  1  0  0  0
 29 54  1  0  0  0
 30 31  2  0  0  0
 30 55  1  0  0  0
 31 56  1  0  0  0
 32 33  1  0  0  0
 32 57  1  0  0  0
 32 58  1  0  0  0
 33 34  1  0  0  0
 33 59  1  0  0  0
 33 60  1  0  0  0
 34 35  1  0  0  0
 34 36  1  0  0  0
 34 61  1  0  0  0
 35 62  1  0  0  0
 35 63  1  0  0  0
 35 64  1  0  0  0
 36 65  1  0  0  0
 36 66  1  0  0  0
 36 67  1  0  0  0
M  CHG  1  34   1
M  END
> <s_m_source_file>
../3o1g_ligand.sdf

> <i_m_source_file_index>
1

> <s_epik_input>
W0NIM11bQ0gyXVtDSDJdYyhbY0hdMSluYygvW0NIXT1OXFtIXSluYzEtYzJbY0hdYyhbY0hdYyhbY0hdMilDKEYpKEYpRilDKD1PKU4oW0NIMl1bQ0gyXVtOSCtdKFtDSDNdKVtDSDNdKVtDSDJdYzNbY0hdW2NIXVtjSF1bY0hdW2NIXTM=

> <s_epik_cmdline>
J2VwaWtfYXBwJywgJy1pbWFlJywgJ2xpZ2FuZF9wcm8ubWFlJywgJy1vbWFlJywgJ2xpZ2FuZF9wcmVwLm1hZScsICctbXMnLCAnMScsICctcGgnLCAnNycsICctcGh0JywgJzAuNScsICctbnQn

> <r_epik_Ionization_Penalty>
  0.0096

> <r_epik_Ionization_Penalty_Charging>
  0.0096

> <r_epik_Ionization_Penalty_Neutral>
  0.0000

> <r_epik_State_Penalty>
  0.0073

> <r_epik_Charging_Adjusted_Penalty>
0.016937287322506

> <i_epik_Tot_Q>
1

> <i_epik_Tot_abs_Q>
1

> <s_epik_Chemistry_Notes>
This compound has an imine and may undergo hydrolysis.

$$$$
