3o2m_ligand
                    3D
 Schrodinger Suite 2020-3.
 59 62  0  0  1  0            999 V2000
   37.9530   84.7360   46.1900 N   0  0  0  0  0  0
   37.1450   82.1460   46.5290 C   0  0  0  0  0  0
   37.3730   81.4940   45.1750 C   0  0  0  0  0  0
   36.3500   80.6360   44.7230 C   0  0  0  0  0  0
   36.4550   79.9660   43.4910 C   0  0  0  0  0  0
   38.6050   80.9910   43.1090 C   0  0  0  0  0  0
   38.7560   78.5520   41.1860 C   0  0  0  0  0  0
   38.0020   77.8130   38.9670 C   0  0  0  0  0  0
   36.6420   79.4090   40.2190 C   0  0  0  0  0  0
   39.3830   86.6190   46.7160 C   0  0  0  0  0  0
   37.9900   80.7880   50.2600 C   0  0  0  0  0  0
   38.5730   82.0620   49.6850 C   0  0  0  0  0  0
   38.9610   81.7850   48.2260 C   0  0  0  0  0  0
   38.2770   82.6930   47.2740 N   0  0  0  0  0  0
   37.5750   80.1340   42.6710 C   0  0  0  0  0  0
   38.5150   81.6730   44.3550 C   0  0  0  0  0  0
   37.6660   79.3700   41.3570 C   0  0  0  0  0  0
   38.9410   77.7820   40.0180 C   0  0  0  0  0  0
   36.8570   78.6310   39.0770 C   0  0  0  0  0  0
   35.4150   80.2220   40.2520 C   0  0  0  0  0  0
   34.2010   79.7380   39.9440 N   0  0  0  0  0  0
   33.2970   80.7330   40.0940 N   0  3  0  0  0  0
   33.9700   81.8610   40.5040 N   0  0  0  0  0  0
   35.2800   81.5310   40.5970 N   0  3  0  0  0  0
   38.3050   86.0280   46.0020 C   0  0  0  0  0  0
   38.6580   84.0010   47.0960 C   0  0  0  0  0  0
   39.7060   84.4990   47.8110 N   0  0  0  0  0  0
   40.0680   85.7900   47.6360 C   0  0  0  0  0  0
   41.2180   86.3010   48.4510 C   0  0  0  0  0  0
   37.5110   86.8180   45.0020 C   0  0  0  0  0  0
   37.6640   80.8270   51.7550 C   0  0  0  0  0  0
   36.4630   83.0014   46.4139 H   0  0  0  0  0  0
   36.7008   81.4132   47.2187 H   0  0  0  0  0  0
   35.4626   80.4894   45.3387 H   0  0  0  0  0  0
   35.6500   79.3049   43.1701 H   0  0  0  0  0  0
   39.4855   81.1338   42.4826 H   0  0  0  0  0  0
   39.5025   78.4958   41.9783 H   0  0  0  0  0  0
   38.1594   77.2083   38.0739 H   0  0  0  0  0  0
   39.6680   87.6598   46.5623 H   0  0  0  0  0  0
   37.0482   80.5502   49.7438 H   0  0  0  0  0  0
   38.7034   79.9625   50.1201 H   0  0  0  0  0  0
   37.8216   82.8638   49.7340 H   0  0  0  0  0  0
   39.4598   82.3545   50.2664 H   0  0  0  0  0  0
   40.0457   81.9204   48.1030 H   0  0  0  0  0  0
   38.6884   80.7521   47.9639 H   0  0  0  0  0  0
   39.3219   82.3310   44.6776 H   0  0  0  0  0  0
   39.8258   77.1520   39.9268 H   0  0  0  0  0  0
   36.1325   78.6566   38.2630 H   0  0  0  0  0  0
   41.3994   87.3581   48.2067 H   0  0  0  0  0  0
   42.1189   85.7122   48.2235 H   0  0  0  0  0  0
   40.9794   86.2076   49.5207 H   0  0  0  0  0  0
   36.7296   86.1780   44.5663 H   0  0  0  0  0  0
   38.1785   87.1762   44.2044 H   0  0  0  0  0  0
   37.0432   87.6785   45.5027 H   0  0  0  0  0  0
   37.2490   79.8567   52.0652 H   0  0  0  0  0  0
   36.9267   81.6200   51.9489 H   0  0  0  0  0  0
   38.5820   81.0324   52.3252 H   0  0  0  0  0  0
   32.3293   80.5614   39.9093 H   0  0  0  0  0  0
   36.0163   82.2856   40.9107 H   0  0  0  0  0  0
  1 25  2  0  0  0
  1 26  1  0  0  0
  2  3  1  0  0  0
  2 14  1  0  0  0
  2 32  1  0  0  0
  2 33  1  0  0  0
  3  4  2  0  0  0
  3 16  1  0  0  0
  4  5  1  0  0  0
  4 34  1  0  0  0
  5 15  2  0  0  0
  5 35  1  0  0  0
  6 15  1  0  0  0
  6 16  2  0  0  0
  6 36  1  0  0  0
  7 17  2  0  0  0
  7 18  1  0  0  0
  7 37  1  0  0  0
  8 18  2  0  0  0
  8 19  1  0  0  0
  8 38  1  0  0  0
  9 17  1  0  0  0
  9 19  2  0  0  0
  9 20  1  0  0  0
 10 25  1  0  0  0
 10 28  2  0  0  0
 10 39  1  0  0  0
 11 12  1  0  0  0
 11 31  1  0  0  0
 11 40  1  0  0  0
 11 41  1  0  0  0
 12 13  1  0  0  0
 12 42  1  0  0  0
 12 43  1  0  0  0
 13 14  1  0  0  0
 13 44  1  0  0  0
 13 45  1  0  0  0
 14 26  1  0  0  0
 15 17  1  0  0  0
 16 46  1  0  0  0
 18 47  1  0  0  0
 19 48  1  0  0  0
 20 21  2  0  0  0
 20 24  1  0  0  0
 21 22  1  0  0  0
 22 23  1  0  0  0
 22 58  1  0  0  0
 23 24  2  0  0  0
 24 59  1  0  0  0
 25 30  1  0  0  0
 26 27  2  0  0  0
 27 28  1  0  0  0
 28 29  1  0  0  0
 29 49  1  0  0  0
 29 50  1  0  0  0
 29 51  1  0  0  0
 30 52  1  0  0  0
 30 53  1  0  0  0
 30 54  1  0  0  0
 31 55  1  0  0  0
 31 56  1  0  0  0
 31 57  1  0  0  0
M  CHG  2  22   1  24   1
M  END
> <s_m_source_file>
../3o2m_ligand.sdf

> <i_m_source_file_index>
1

> <s_epik_input>
W2NIXTFjKFtDSDNdKW5jKG5jMVtDSDNdKU4oW0NIMl1bQ0gyXVtDSDJdW0NIM10pW0NIMl1jMltjSF1bY0hdYyhbY0hdW2NIXTIpLWMoW2NIXVtjSF1bY0hdW2NIXTMpYzMtYzRuW25IXW5uNA==

> <s_epik_cmdline>
J2VwaWtfYXBwJywgJy1pbWFlJywgJ2xpZ2FuZF9wcm8ubWFlJywgJy1vbWFlJywgJ2xpZ2FuZF9wcmVwLm1hZScsICctbXMnLCAnMScsICctcGgnLCAnNycsICctcGh0JywgJzAuNScsICctbnQn

> <r_epik_Ionization_Penalty>
 10.5150

> <r_epik_Ionization_Penalty_Charging>
 10.5111

> <r_epik_Ionization_Penalty_Neutral>
  0.0039

> <r_epik_State_Penalty>
  0.0112

> <r_epik_Charging_Adjusted_Penalty>
10.5223709335897

> <i_epik_Tot_Q>
2

> <i_epik_Tot_abs_Q>
2

> <s_epik_Chemistry_Notes>
This compound has an imine and may undergo hydrolysis.

$$$$
