3o3j_ligand
                    3D
 Schrodinger Suite 2020-3.
 23 24  0  0  1  0            999 V2000
    2.1850   21.7530  -28.9070 Br  0  0  0  0  0  0
   -1.2370   16.7720  -26.3670 N   0  0  0  0  0  0
   -3.4880   17.4590  -26.4460 O   0  0  0  0  0  0
   -3.5430   20.3570  -30.8070 N   0  0  0  0  0  0
   -3.6020   19.1170  -30.1800 C   0  0  0  0  0  0
   -2.5230   18.7330  -29.4810 C   0  0  3  0  0  0
   -1.7070   19.8610  -29.6930 C   0  0  0  0  0  0
   -0.3930   20.2040  -29.2340 C   0  0  0  0  0  0
    0.2750   21.4740  -29.5900 C   0  0  0  0  0  0
   -0.4890   22.3880  -30.4460 C   0  0  0  0  0  0
   -1.7900   22.0610  -30.9410 C   0  0  0  0  0  0
   -2.3730   20.8570  -30.5490 C   0  0  0  0  0  0
   -2.3520   17.3750  -28.7310 C   0  0  0  0  0  0
   -2.4190   17.2110  -27.0600 C   0  0  0  0  0  0
   -1.0400   16.5700  -24.9850 O   0  0  0  0  0  0
   -0.4137   16.5871  -27.0727 H   0  0  0  0  0  0
   -4.5068   18.4979  -30.2696 H   0  0  0  0  0  0
    0.1367   19.4978  -28.5947 H   0  0  0  0  0  0
   -0.0500   23.3491  -30.7138 H   0  0  0  0  0  0
   -2.3158   22.7402  -31.6120 H   0  0  0  0  0  0
   -3.1347   16.6746  -29.0578 H   0  0  0  0  0  0
   -1.3627   16.9519  -28.9595 H   0  0  0  0  0  0
   -0.0631   16.2276  -24.6130 H   0  0  0  0  0  0
  1  9  1  0  0  0
  2 14  1  0  0  0
  2 15  1  0  0  0
  2 16  1  0  0  0
  3 14  2  0  0  0
  4  5  2  0  0  0
  4 12  1  0  0  0
  5  6  1  0  0  0
  5 17  1  0  0  0
  6  7  1  0  0  0
  6 13  1  0  0  0
  7  8  1  0  0  0
  7 12  2  0  0  0
  8  9  2  0  0  0
  8 18  1  0  0  0
  9 10  1  0  0  0
 10 11  2  0  0  0
 10 19  1  0  0  0
 11 12  1  0  0  0
 11 20  1  0  0  0
 13 14  1  0  0  0
 13 21  1  0  0  0
 13 22  1  0  0  0
 15 23  1  0  0  0
M  END
> <s_m_source_file>
../3o3j_ligand.sdf

> <i_m_source_file_index>
1

> <s_epik_input>
QnJjKFtjSF0xKVtjSF1bY0hdYyhjMTIpTj1bQ0hdW0NIXTJbQ0gyXUMoPU8pW05IXVtPSF0=

> <s_epik_cmdline>
J2VwaWtfYXBwJywgJy1pbWFlJywgJ2xpZ2FuZF9wcm8ubWFlJywgJy1vbWFlJywgJ2xpZ2FuZF9wcmVwLm1hZScsICctbXMnLCAnMScsICctcGgnLCAnNycsICctcGh0JywgJzAuNScsICctbnQn

> <r_lp_tautomer_probability>
1

> <r_epik_Ionization_Penalty>
  0.0203

> <r_epik_Ionization_Penalty_Charging>
  0.0000

> <r_epik_Ionization_Penalty_Neutral>
  0.0203

> <r_epik_State_Penalty>
 -0.0000

> <r_epik_Charging_Adjusted_Penalty>
0

> <i_epik_Tot_Q>
0

> <i_epik_Tot_abs_Q>
0

> <s_epik_Chemistry_Notes>
This compound has an imine and may undergo hydrolysis. This compound has a N-S or N-O group and may undergo hydrolysis at high or low pH.

$$$$
