3o4k_ligand
                    3D
 Schrodinger Suite 2020-3.
127128  0  0  1  0            999 V2000
   18.4590   20.5470  -22.3260 C   0  0  1  0  0  0
   17.3060   21.3000  -22.8090 O   0  0  0  0  0  0
   18.7570   20.7730  -20.8190 C   0  0  2  0  0  0
   18.0680   21.7030  -18.6830 O   0  0  0  0  0  0
   17.7460   21.7110  -20.1050 C   0  0  2  0  0  0
   15.2870   22.1930  -19.9460 O   0  0  0  0  0  0
   16.2960   21.3290  -20.5090 C   0  0  1  0  0  0
   20.1410   21.1500  -20.5880 O   0  0  0  0  0  0
   16.0690   21.2370  -22.0390 C   0  0  1  0  0  0
   16.9400   18.6700  -22.4030 O   0  0  0  0  0  0
   18.3070   19.0540  -22.6210 C   0  0  0  0  0  0
   12.7010   19.9120  -26.1390 O   0  0  0  0  0  0
   13.9630   21.3660  -24.7510 O   0  0  0  0  0  0
   24.2320   18.7850  -25.4690 C   0  0  0  0  0  0
   15.0930   22.2060  -22.5120 O   0  0  0  0  0  0
   23.0770   17.8850  -25.9110 C   0  0  0  0  0  0
   10.6000   21.4630  -24.2460 O   0  0  0  0  0  0
   21.9220   17.8310  -24.8990 C   0  0  0  0  0  0
   10.3790   21.4290  -26.6080 O   0  0  0  0  0  0
   20.7180   17.0050  -25.3760 C   0  0  0  0  0  0
   20.8360   15.4830  -25.1450 C   0  0  0  0  0  0
   19.4690   14.8000  -24.9340 C   0  0  0  0  0  0
   18.7370   14.2960  -26.1980 C   0  0  0  0  0  0
   17.1980   14.3830  -26.2180 C   0  0  0  0  0  0
   16.5740   14.9930  -24.9780 C   0  0  0  0  0  0
   15.1950   15.6450  -25.0800 C   0  0  0  0  0  0
   15.2530   16.9600  -25.8720 C   0  0  0  0  0  0
   15.4690   18.2130  -25.0260 C   0  0  0  0  0  0
   16.0630   19.3480  -25.8610 C   0  0  0  0  0  0
   15.0000   20.0280  -26.7300 C   0  0  0  0  0  0
   13.7960   20.4030  -25.8750 C   0  0  0  0  0  0
   13.0000   21.4130  -23.6780 C   0  0  1  0  0  0
   13.6880   21.8860  -22.3810 C   0  0  0  0  0  0
   11.7870   22.2700  -24.0630 C   0  0  0  0  0  0
    9.8130   21.3620  -25.5040 C   0  0  0  0  0  0
    8.2980   21.1640  -25.4100 C   0  0  0  0  0  0
    7.6480   21.0560  -26.7890 C   0  0  0  0  0  0
    6.1960   21.5370  -26.8100 C   0  0  0  0  0  0
    6.0350   22.7520  -27.7350 C   0  0  0  0  0  0
    5.4000   22.4460  -29.0940 C   0  0  0  0  0  0
    6.0320   23.2380  -30.2290 C   0  0  0  0  0  0
   15.4610   20.6520  -16.3610 C   0  0  1  0  0  0
   16.2930   20.7430  -17.5290 O   0  0  0  0  0  0
   15.4700   21.9180  -15.5080 C   0  0  2  0  0  0
   14.4710   21.8190  -14.4530 N   0  3  0  0  0  0
   13.9170   23.4200  -16.6570 O   0  0  0  0  0  0
   15.3140   23.2060  -16.3430 C   0  0  2  0  0  0
   16.2530   23.2530  -17.5800 C   0  0  1  0  0  0
   17.0500   24.5100  -17.6640 N   0  0  0  0  0  0
   17.1040   21.9220  -17.6190 C   0  0  2  0  0  0
   13.9730   20.3270  -16.5120 C   0  0  0  0  0  0
   16.7210   25.8470  -17.6670 C   0  0  0  0  0  0
   15.6050   26.3590  -17.6800 O   0  0  0  0  0  0
   17.8660   26.8250  -17.4750 C   0  0  0  0  0  0
   19.2824   20.9673  -22.9221 H   0  0  0  0  0  0
   18.6898   19.7973  -20.3155 H   0  0  0  0  0  0
   17.8401   22.7793  -20.3496 H   0  0  0  0  0  0
   15.2734   22.3904  -18.8639 H   0  0  0  0  0  0
   16.1152   20.3538  -20.0332 H   0  0  0  0  0  0
   20.9538   20.5630  -21.0405 H   0  0  0  0  0  0
   15.6425   20.2546  -22.2898 H   0  0  0  0  0  0
   16.6293   17.6271  -22.5638 H   0  0  0  0  0  0
   18.5850   18.8567  -23.6668 H   0  0  0  0  0  0
   18.9645   18.4793  -21.9522 H   0  0  0  0  0  0
   25.0189   18.7757  -26.2376 H   0  0  0  0  0  0
   24.6432   18.4137  -24.5187 H   0  0  0  0  0  0
   23.8645   19.8128  -25.3328 H   0  0  0  0  0  0
   22.6658   18.2563  -26.8613 H   0  0  0  0  0  0
   23.4444   16.8572  -26.0472 H   0  0  0  0  0  0
   22.2771   17.3790  -23.9612 H   0  0  0  0  0  0
   21.5603   18.8507  -24.7006 H   0  0  0  0  0  0
   19.8134   17.3345  -24.8439 H   0  0  0  0  0  0
   20.5800   17.1490  -26.4578 H   0  0  0  0  0  0
   21.3127   15.0154  -26.0191 H   0  0  0  0  0  0
   21.4465   15.2942  -24.2496 H   0  0  0  0  0  0
   19.5962   13.9156  -24.2924 H   0  0  0  0  0  0
   18.7768   15.5061  -24.4521 H   0  0  0  0  0  0
   19.0702   14.8768  -27.0707 H   0  0  0  0  0  0
   18.9679   13.2321  -26.3558 H   0  0  0  0  0  0
   16.8768   15.0016  -27.0689 H   0  0  0  0  0  0
   16.7749   13.3727  -26.3188 H   0  0  0  0  0  0
   16.4531   14.2164  -24.2084 H   0  0  0  0  0  0
   17.2262   15.7912  -24.5941 H   0  0  0  0  0  0
   14.5026   14.9602  -25.5914 H   0  0  0  0  0  0
   14.8166   15.8625  -24.0703 H   0  0  0  0  0  0
   16.0839   16.9183  -26.5916 H   0  0  0  0  0  0
   14.3062   17.1042  -26.4131 H   0  0  0  0  0  0
   14.5056   18.5476  -24.6137 H   0  0  0  0  0  0
   16.1608   17.9843  -24.2020 H   0  0  0  0  0  0
   16.5001   20.1047  -25.1929 H   0  0  0  0  0  0
   16.8454   18.9465  -26.5217 H   0  0  0  0  0  0
   15.4226   20.9377  -27.1815 H   0  0  0  0  0  0
   14.6804   19.3384  -27.5252 H   0  0  0  0  0  0
   12.6471   20.3793  -23.5483 H   0  0  0  0  0  0
   13.5632   21.0766  -21.6466 H   0  0  0  0  0  0
   13.1391   22.7768  -22.0417 H   0  0  0  0  0  0
   12.0190   22.7985  -24.9994 H   0  0  0  0  0  0
   11.6120   23.0031  -23.2618 H   0  0  0  0  0  0
    8.0829   20.2386  -24.8555 H   0  0  0  0  0  0
    7.8483   22.0193  -24.8844 H   0  0  0  0  0  0
    8.2112   21.6681  -27.5088 H   0  0  0  0  0  0
    7.6549   20.0059  -27.1164 H   0  0  0  0  0  0
    5.5467   20.7270  -27.1737 H   0  0  0  0  0  0
    5.8899   21.8236  -25.7931 H   0  0  0  0  0  0
    5.3940   23.5014  -27.2477 H   0  0  0  0  0  0
    7.0227   23.1911  -27.9388 H   0  0  0  0  0  0
    5.5195   21.3766  -29.3221 H   0  0  0  0  0  0
    4.3294   22.6970  -29.0634 H   0  0  0  0  0  0
    5.5378   22.9784  -31.1768 H   0  0  0  0  0  0
    7.1026   22.9939  -30.2947 H   0  0  0  0  0  0
    5.9125   24.3143  -30.0360 H   0  0  0  0  0  0
   16.0067   19.7815  -15.9679 H   0  0  0  0  0  0
   16.4347   21.9818  -14.9834 H   0  0  0  0  0  0
   14.6246   20.8872  -13.8889 H   0  0  0  0  0  0
   13.4656   21.8160  -14.8992 H   0  0  0  0  0  0
   14.5683   22.6790  -13.7741 H   0  0  0  0  0  0
   13.1647   23.4072  -15.8546 H   0  0  0  0  0  0
   15.5719   24.0832  -15.7314 H   0  0  0  0  0  0
   15.6648   23.3534  -18.5041 H   0  0  0  0  0  0
   18.1461   24.4620  -17.7435 H   0  0  0  0  0  0
   17.7610   21.9851  -16.7390 H   0  0  0  0  0  0
   13.8562   19.4176  -17.1197 H   0  0  0  0  0  0
   13.4627   21.1666  -17.0066 H   0  0  0  0  0  0
   13.5308   20.1633  -15.5182 H   0  0  0  0  0  0
   18.8201   26.2775  -17.4769 H   0  0  0  0  0  0
   17.7449   27.3473  -16.5145 H   0  0  0  0  0  0
   17.8627   27.5588  -18.2944 H   0  0  0  0  0  0
  1  2  1  0  0  0
  1  3  1  0  0  0
  1 11  1  0  0  0
  1 55  1  0  0  0
  2  9  1  0  0  0
  3  5  1  0  0  0
  3  8  1  0  0  0
  3 56  1  0  0  0
  4  5  1  0  0  0
  4 50  1  0  0  0
  5  7  1  0  0  0
  5 57  1  0  0  0
  6  7  1  0  0  0
  6 58  1  0  0  0
  7  9  1  0  0  0
  7 59  1  0  0  0
  8 60  1  0  0  0
  9 15  1  0  0  0
  9 61  1  0  0  0
 10 11  1  0  0  0
 10 62  1  0  0  0
 11 63  1  0  0  0
 11 64  1  0  0  0
 12 31  2  0  0  0
 13 31  1  0  0  0
 13 32  1  0  0  0
 14 16  1  0  0  0
 14 65  1  0  0  0
 14 66  1  0  0  0
 14 67  1  0  0  0
 15 33  1  0  0  0
 16 18  1  0  0  0
 16 68  1  0  0  0
 16 69  1  0  0  0
 17 34  1  0  0  0
 17 35  1  0  0  0
 18 20  1  0  0  0
 18 70  1  0  0  0
 18 71  1  0  0  0
 19 35  2  0  0  0
 20 21  1  0  0  0
 20 72  1  0  0  0
 20 73  1  0  0  0
 21 22  1  0  0  0
 21 74  1  0  0  0
 21 75  1  0  0  0
 22 23  1  0  0  0
 22 76  1  0  0  0
 22 77  1  0  0  0
 23 24  1  0  0  0
 23 78  1  0  0  0
 23 79  1  0  0  0
 24 25  1  0  0  0
 24 80  1  0  0  0
 24 81  1  0  0  0
 25 26  1  0  0  0
 25 82  1  0  0  0
 25 83  1  0  0  0
 26 27  1  0  0  0
 26 84  1  0  0  0
 26 85  1  0  0  0
 27 28  1  0  0  0
 27 86  1  0  0  0
 27 87  1  0  0  0
 28 29  1  0  0  0
 28 88  1  0  0  0
 28 89  1  0  0  0
 29 30  1  0  0  0
 29 90  1  0  0  0
 29 91  1  0  0  0
 30 31  1  0  0  0
 30 92  1  0  0  0
 30 93  1  0  0  0
 32 33  1  0  0  0
 32 34  1  0  0  0
 32 94  1  0  0  0
 33 95  1  0  0  0
 33 96  1  0  0  0
 34 97  1  0  0  0
 34 98  1  0  0  0
 35 36  1  0  0  0
 36 37  1  0  0  0
 36 99  1  0  0  0
 36100  1  0  0  0
 37 38  1  0  0  0
 37101  1  0  0  0
 37102  1  0  0  0
 38 39  1  0  0  0
 38103  1  0  0  0
 38104  1  0  0  0
 39 40  1  0  0  0
 39105  1  0  0  0
 39106  1  0  0  0
 40 41  1  0  0  0
 40107  1  0  0  0
 40108  1  0  0  0
 41109  1  0  0  0
 41110  1  0  0  0
 41111  1  0  0  0
 42 43  1  0  0  0
 42 44  1  0  0  0
 42 51  1  0  0  0
 42112  1  0  0  0
 43 50  1  0  0  0
 44 45  1  0  0  0
 44 47  1  0  0  0
 44113  1  0  0  0
 45114  1  0  0  0
 45115  1  0  0  0
 45116  1  0  0  0
 46 47  1  0  0  0
 46117  1  0  0  0
 47 48  1  0  0  0
 47118  1  0  0  0
 48 49  1  0  0  0
 48 50  1  0  0  0
 48119  1  0  0  0
 49 52  1  0  0  0
 49120  1  0  0  0
 50121  1  0  0  0
 51122  1  0  0  0
 51123  1  0  0  0
 51124  1  0  0  0
 52 53  2  0  0  0
 52 54  1  0  0  0
 54125  1  0  0  0
 54126  1  0  0  0
 54127  1  0  0  0
M  CHG  1  45   1
M  END
> <s_m_source_file>
../3o4k_ligand.sdf

> <i_m_source_file_index>
1

> <s_epik_input>
W05IMytdW0NAQEhdMVtDQEhdKFtPSF0pW0NAQEhdKFtOSF1DKD1PKVtDSDNdKVtDQEBIXShPW0NAQEhdMVtDSDNdKU9bQ0BASF0oW0NAQEhdMltPSF0pW0NAQEhdKFtPSF0pW0NASF0oT1tDQEBIXTJbQ0gyXVtPSF0pT1tDSDJdW0NAQEhdKFtDSDJdT0MoPU8pW0NIMl1bQ0gyXVtDSDJdW0NIMl1bQ0gyXVtDSDNdKU9DKD1PKVtDSDJdW0NIMl1bQ0gyXVtDSDJdW0NIMl1bQ0gyXVtDSDJdW0NIMl1bQ0gyXVtDSDJdW0NIMl1bQ0gyXVtDSDJdW0NIM10=

> <s_epik_cmdline>
J2VwaWtfYXBwJywgJy1pbWFlJywgJ2xpZ2FuZF9wcm8ubWFlJywgJy1vbWFlJywgJ2xpZ2FuZF9wcmVwLm1hZScsICctbXMnLCAnMScsICctcGgnLCAnNycsICctcGh0JywgJzAuNScsICctbnQn

> <r_epik_Ionization_Penalty>
  0.0619

> <r_epik_Ionization_Penalty_Charging>
  0.0619

> <r_epik_Ionization_Penalty_Neutral>
  0.0000

> <r_epik_State_Penalty>
  0.0537

> <r_epik_Charging_Adjusted_Penalty>
0.11560060259316

> <i_epik_Tot_Q>
1

> <i_epik_Tot_abs_Q>
1

> <s_epik_Chemistry_Notes>
This compound has an ester and may undergo hydrolysis at high or low pH. This compound contains an acetal/aminal-like group ( X-CH(R)-Y where X, Y are N, S, or O) that may be acid/base labile, releasing an aldehyde.

$$$$
