3o57_ligand
                    3D
 Schrodinger Suite 2020-3.
 72 77  0  0  1  0            999 V2000
   41.2450   45.5800   63.9860 C   0  0  0  0  0  0
   41.8630   46.8690   63.4410 C   0  0  0  0  0  0
   43.2860   46.6780   63.1510 N   0  0  0  0  0  0
   43.7810   46.3270   61.9410 N   0  0  0  0  0  0
   45.1260   46.2640   62.0690 C   0  0  0  0  0  0
   45.5230   46.6230   63.4230 C   0  0  0  0  0  0
   46.6960   46.7530   64.1480 C   0  0  0  0  0  0
   47.9720   46.5270   63.6660 N   0  0  0  0  0  0
   48.3540   46.0980   62.3310 C   0  0  0  0  0  0
   49.6030   45.2360   62.4950 C   0  0  0  0  0  0
   50.1330   44.7740   61.1370 C   0  0  0  0  0  0
   50.2970   45.8760   60.2340 O   0  0  0  0  0  0
   49.2270   46.7890   60.0680 C   0  0  0  0  0  0
   48.6740   47.2480   61.4250 C   0  0  0  0  0  0
   46.5390   47.1240   65.5040 C   0  0  0  0  0  0
   45.2650   47.3720   66.0190 C   0  0  0  0  0  0
   44.1440   47.2300   65.3230 N   0  0  0  0  0  0
   44.2690   46.8580   64.0280 C   0  0  0  0  0  0
   47.6710   47.4430   66.3900 C   0  0  0  0  0  0
   48.9570   47.3070   66.0210 N   0  0  0  0  0  0
   49.7580   47.8100   67.1530 C   0  0  0  0  0  0
   51.2670   47.8220   67.1990 C   0  0  0  0  0  0
   51.8630   47.8060   65.7720 C   0  0  0  0  0  0
   52.4010   46.6180   65.3710 N   0  0  0  0  0  0
   52.9980   46.4480   64.0400 C   0  0  0  0  0  0
   48.8630   48.2290   68.0540 C   0  0  0  0  0  0
   47.6010   48.0410   67.6090 O   0  0  0  0  0  0
   49.0430   48.8510   69.4070 C   0  0  0  0  0  0
   48.7780   50.3420   69.3730 C   0  0  0  0  0  0
   49.7500   51.2480   68.9280 C   0  0  0  0  0  0
   49.4980   52.6230   68.9070 C   0  0  0  0  0  0
   48.2640   53.1180   69.3310 C   0  0  0  0  0  0
   47.5400   50.8560   69.7890 C   0  0  0  0  0  0
   47.2910   52.2290   69.7730 C   0  0  0  0  0  0
   52.4370   45.3830   66.1730 C   0  0  0  0  0  0
   53.0710   44.3300   65.2440 C   0  0  0  0  0  0
   52.9350   44.9250   63.8390 C   0  0  0  0  0  0
   51.8540   48.8050   65.0650 O   0  0  0  0  0  0
   40.1781   45.7454   64.1966 H   0  0  0  0  0  0
   41.7610   45.2894   64.9130 H   0  0  0  0  0  0
   41.3515   44.7784   63.2402 H   0  0  0  0  0  0
   41.3470   47.1596   62.5140 H   0  0  0  0  0  0
   41.7564   47.6706   64.1867 H   0  0  0  0  0  0
   45.8148   45.9842   61.2718 H   0  0  0  0  0  0
   48.7448   46.7097   64.4272 H   0  0  0  0  0  0
   47.4883   45.5751   61.8985 H   0  0  0  0  0  0
   50.3873   45.8192   62.9996 H   0  0  0  0  0  0
   49.3598   44.3492   63.0987 H   0  0  0  0  0  0
   51.1096   44.2858   61.2713 H   0  0  0  0  0  0
   49.4248   44.0605   60.6904 H   0  0  0  0  0  0
   49.5810   47.6723   59.5162 H   0  0  0  0  0  0
   48.4161   46.3050   59.5040 H   0  0  0  0  0  0
   47.7614   47.8332   61.2391 H   0  0  0  0  0  0
   49.4306   47.8897   61.9002 H   0  0  0  0  0  0
   45.1865   47.7020   67.0549 H   0  0  0  0  0  0
   51.6109   48.7303   67.7155 H   0  0  0  0  0  0
   51.6244   46.9342   67.7413 H   0  0  0  0  0  0
   52.4036   47.0014   63.2981 H   0  0  0  0  0  0
   54.0275   46.8353   64.0477 H   0  0  0  0  0  0
   48.3428   48.3894   70.1188 H   0  0  0  0  0  0
   50.0753   48.6889   69.7507 H   0  0  0  0  0  0
   50.7178   50.8748   68.5930 H   0  0  0  0  0  0
   50.2682   53.3109   68.5582 H   0  0  0  0  0  0
   48.0654   54.1896   69.3158 H   0  0  0  0  0  0
   46.7618   50.1729   70.1295 H   0  0  0  0  0  0
   46.3259   52.6074   70.1098 H   0  0  0  0  0  0
   53.0438   45.5493   67.0753 H   0  0  0  0  0  0
   51.4135   45.1057   66.4655 H   0  0  0  0  0  0
   54.1237   44.1793   65.5252 H   0  0  0  0  0  0
   52.5259   43.3795   65.3412 H   0  0  0  0  0  0
   51.9739   44.6556   63.3766 H   0  0  0  0  0  0
   53.7591   44.6073   63.1833 H   0  0  0  0  0  0
  1  2  1  0  0  0
  1 39  1  0  0  0
  1 40  1  0  0  0
  1 41  1  0  0  0
  2  3  1  0  0  0
  2 42  1  0  0  0
  2 43  1  0  0  0
  3  4  1  0  0  0
  3 18  1  0  0  0
  4  5  2  0  0  0
  5  6  1  0  0  0
  5 44  1  0  0  0
  6  7  2  0  0  0
  6 18  1  0  0  0
  7  8  1  0  0  0
  7 15  1  0  0  0
  8  9  1  0  0  0
  8 45  1  0  0  0
  9 10  1  0  0  0
  9 14  1  0  0  0
  9 46  1  0  0  0
 10 11  1  0  0  0
 10 47  1  0  0  0
 10 48  1  0  0  0
 11 12  1  0  0  0
 11 49  1  0  0  0
 11 50  1  0  0  0
 12 13  1  0  0  0
 13 14  1  0  0  0
 13 51  1  0  0  0
 13 52  1  0  0  0
 14 53  1  0  0  0
 14 54  1  0  0  0
 15 16  2  0  0  0
 15 19  1  0  0  0
 16 17  1  0  0  0
 16 55  1  0  0  0
 17 18  2  0  0  0
 19 20  2  0  0  0
 19 27  1  0  0  0
 20 21  1  0  0  0
 21 22  1  0  0  0
 21 26  2  0  0  0
 22 23  1  0  0  0
 22 56  1  0  0  0
 22 57  1  0  0  0
 23 24  1  0  0  0
 23 38  2  0  0  0
 24 25  1  0  0  0
 24 35  1  0  0  0
 25 37  1  0  0  0
 25 58  1  0  0  0
 25 59  1  0  0  0
 26 27  1  0  0  0
 26 28  1  0  0  0
 28 29  1  0  0  0
 28 60  1  0  0  0
 28 61  1  0  0  0
 29 30  2  0  0  0
 29 33  1  0  0  0
 30 31  1  0  0  0
 30 62  1  0  0  0
 31 32  2  0  0  0
 31 63  1  0  0  0
 32 34  1  0  0  0
 32 64  1  0  0  0
 33 34  2  0  0  0
 33 65  1  0  0  0
 34 66  1  0  0  0
 35 36  1  0  0  0
 35 67  1  0  0  0
 35 68  1  0  0  0
 36 37  1  0  0  0
 36 69  1  0  0  0
 36 70  1  0  0  0
 37 71  1  0  0  0
 37 72  1  0  0  0
M  END
> <s_m_source_file>
../3o57_ligand.sdf

> <i_m_source_file_index>
1

> <s_epik_input>
W0NIMl0xW0NIMl1PW0NIMl1bQ0gyXVtDSF0xW05IXWMyYyhbY0hdbmMoYzIzKW4oW0NIMl1bQ0gzXSluW2NIXTMpLWM0bmMoW0NIMl1DKD1PKU41W0NIMl1bQ0gyXVtDSDJdW0NIMl01KWMobzQpW0NIMl1jNltjSF1bY0hdW2NIXVtjSF1bY0hdNg==

> <s_epik_cmdline>
J2VwaWtfYXBwJywgJy1pbWFlJywgJ2xpZ2FuZF9wcm8ubWFlJywgJy1vbWFlJywgJ2xpZ2FuZF9wcmVwLm1hZScsICctbXMnLCAnMScsICctcGgnLCAnNycsICctcGh0JywgJzAuNScsICctbnQn

> <r_epik_Ionization_Penalty>
  0.0812

> <r_epik_Ionization_Penalty_Charging>
  0.0000

> <r_epik_Ionization_Penalty_Neutral>
  0.0812

> <r_epik_State_Penalty>
  0.0720

> <r_epik_Charging_Adjusted_Penalty>
0.0719561652964611

> <i_epik_Tot_Q>
0

> <i_epik_Tot_abs_Q>
0

$$$$
