3o5n_ligand
                    3D
 Schrodinger Suite 2020-3.
 34 36  0  0  1  0            999 V2000
   51.7950  -20.5690   89.8930 C   0  0  0  0  0  0
   54.1240  -21.1790   89.6590 N   0  0  0  0  0  0
   51.9170  -21.3220   90.8810 O   0  0  0  0  0  0
   53.0840  -20.2900   89.1060 C   0  0  2  0  0  0
   53.5030  -18.7880   89.1680 C   0  0  2  0  0  0
   54.8740  -18.4990   89.8280 C   0  0  1  0  0  0
   55.1270  -23.7560   90.2080 O   0  0  0  0  0  0
   59.2950  -18.0330   89.7190 O   0  5  0  0  0  0
   56.0180  -24.1100   88.2120 O   0  5  0  0  0  0
   57.2130  -16.8960   89.2460 O   0  0  0  0  0  0
   57.7000  -21.7260   89.0990 C   0  0  0  0  0  0
   58.1640  -20.4120   89.1650 C   0  0  0  0  0  0
   53.0480  -18.1950   91.4570 C   0  0  0  0  0  0
   52.5660  -17.9430   90.0280 C   0  0  0  0  0  0
   55.7880  -23.3920   89.2110 C   0  0  0  0  0  0
   56.3470  -21.9730   89.2620 C   0  0  0  0  0  0
   57.3110  -19.3330   89.3990 C   0  0  0  0  0  0
   55.4810  -20.9120   89.4960 C   0  0  0  0  0  0
   57.8960  -18.1170   89.4490 N   0  3  0  0  0  0
   54.5580  -18.4050   91.3270 C   0  0  0  0  0  0
   55.9350  -19.5950   89.5660 C   0  0  0  0  0  0
   50.7220  -20.0610   89.4940 O   0  5  0  0  0  0
   53.8358  -22.0815   90.2179 H   0  0  0  0  0  0
   52.9551  -20.5432   88.0433 H   0  0  0  0  0  0
   53.4920  -18.5188   88.1015 H   0  0  0  0  0  0
   55.3193  -17.5807   89.4176 H   0  0  0  0  0  0
   58.3936  -22.5479   88.9214 H   0  0  0  0  0  0
   59.2287  -20.2219   89.0292 H   0  0  0  0  0  0
   52.8095  -17.3229   92.0835 H   0  0  0  0  0  0
   52.5453  -19.0857   91.8618 H   0  0  0  0  0  0
   52.6579  -16.8854   89.7400 H   0  0  0  0  0  0
   51.5286  -18.2757   89.8757 H   0  0  0  0  0  0
   54.8640  -19.3367   91.8253 H   0  0  0  0  0  0
   55.1062  -17.5578   91.7649 H   0  0  0  0  0  0
  1  3  2  0  0  0
  1  4  1  0  0  0
  1 22  1  0  0  0
  2  4  1  0  0  0
  2 18  1  0  0  0
  2 23  1  0  0  0
  4  5  1  0  0  0
  4 24  1  0  0  0
  5  6  1  0  0  0
  5 14  1  0  0  0
  5 25  1  0  0  0
  6 20  1  0  0  0
  6 21  1  0  0  0
  6 26  1  0  0  0
  7 15  2  0  0  0
  8 19  1  0  0  0
  9 15  1  0  0  0
 10 19  2  0  0  0
 11 12  2  0  0  0
 11 16  1  0  0  0
 11 27  1  0  0  0
 12 17  1  0  0  0
 12 28  1  0  0  0
 13 14  1  0  0  0
 13 20  1  0  0  0
 13 29  1  0  0  0
 13 30  1  0  0  0
 14 31  1  0  0  0
 14 32  1  0  0  0
 15 16  1  0  0  0
 16 18  2  0  0  0
 17 19  1  0  0  0
 17 21  2  0  0  0
 18 21  1  0  0  0
 20 33  1  0  0  0
 20 34  1  0  0  0
M  CHG  4   8  -1   9  -1  19   1  22  -1
M  END
> <s_m_source_file>
../3o5n_ligand.sdf

> <i_m_source_file_index>
1

> <s_epik_input>
W0NIMl0xW0NIMl1bQ0gyXVtDQEhdKFtDQEhdMTIpYzNjKFtOSF1bQ0BIXTJDKD1PKVtPSF0pYyhDKD1PKVtPSF0pW2NIXVtjSF1jM1tOK10oW08tXSk9Tw==

> <s_epik_cmdline>
J2VwaWtfYXBwJywgJy1pbWFlJywgJ2xpZ2FuZF9wcm8ubWFlJywgJy1vbWFlJywgJ2xpZ2FuZF9wcmVwLm1hZScsICctbXMnLCAnMScsICctcGgnLCAnNycsICctcGh0JywgJzAuNScsICctbnQn

> <r_lp_tautomer_probability>
1

> <r_epik_Ionization_Penalty>
  0.0054

> <r_epik_Ionization_Penalty_Charging>
  0.0043

> <r_epik_Ionization_Penalty_Neutral>
  0.0011

> <r_epik_State_Penalty>
 -0.0000

> <r_epik_Charging_Adjusted_Penalty>
0.0043239642236032

> <i_epik_Tot_Q>
-2

> <i_epik_Tot_abs_Q>
4

$$$$
