3o64_ligand
                    3D
 Schrodinger Suite 2020-3.
 68 71  0  0  1  0            999 V2000
   49.1300   34.7210   36.7950 C   0  0  0  0  0  0
   50.4790   35.1680   37.2090 N   0  0  0  0  0  0
   51.2810   35.3960   35.9750 C   0  0  2  0  0  0
   50.3740   35.3450   34.7750 C   0  0  0  0  0  0
   49.0530   34.7020   35.2340 C   0  0  0  0  0  0
   50.9450   35.3250   38.3890 C   0  0  0  0  0  0
   52.1250   35.7140   38.5950 O   0  0  0  0  0  0
   50.0500   35.0120   39.6090 C   0  0  1  0  0  0
   50.1900   33.4520   39.7620 C   0  0  2  0  0  0
   49.1620   33.0060   40.7920 C   0  0  0  0  0  0
   50.7130   35.6130   40.6930 O   0  0  0  0  0  0
   47.9420   32.9010   40.4720 O   0  0  0  0  0  0
   49.6120   32.7700   42.0450 N   0  0  0  0  0  0
   51.5840   33.2440   40.2350 O   0  0  0  0  0  0
   48.7390   32.3410   43.1710 C   0  0  1  0  0  0
   49.5510   31.5300   44.1850 C   0  0  0  0  0  0
   48.9270   31.1400   45.4290 C   0  0  0  0  0  0
   49.6830   30.4070   46.3800 C   0  0  0  0  0  0
   51.0150   30.0310   46.1250 C   0  0  0  0  0  0
   51.6340   30.3890   44.9090 C   0  0  0  0  0  0
   50.9000   31.1520   43.9490 C   0  0  0  0  0  0
   51.7540   29.2610   47.0750 N   0  0  0  0  0  0
   52.2620   34.1990   35.8250 C   0  0  0  0  0  0
   51.1560   28.2120   47.8410 N   0  0  0  0  0  0
   52.1090   27.7200   48.6010 C   0  0  0  0  0  0
   53.3570   28.4400   48.3260 C   0  0  0  0  0  0
   53.0710   29.3530   47.4110 C   0  0  0  0  0  0
   51.9600   32.8990   36.2830 N   0  0  0  0  0  0
   52.8490   31.9010   36.1040 C   0  0  0  0  0  0
   54.1990   32.6630   35.3060 S   0  0  0  0  0  0
   53.4660   34.2730   35.2410 C   0  0  0  0  0  0
   52.8120   30.5620   36.4460 N   0  0  0  0  0  0
   51.4700   30.2370   36.9190 C   0  0  0  0  0  0
   48.0630   33.5780   43.8260 C   0  0  0  0  0  0
   54.2870   35.7030   34.5090 S   0  0  0  0  0  0
   54.5430   35.2880   33.1410 O   0  0  0  0  0  0
   55.5760   35.9060   35.1580 O   0  0  0  0  0  0
   53.4180   37.2770   34.6170 C   0  0  0  0  0  0
   48.9424   33.7104   37.1867 H   0  0  0  0  0  0
   48.3753   35.4148   37.1939 H   0  0  0  0  0  0
   51.7664   36.3801   36.0523 H   0  0  0  0  0  0
   50.2002   36.3655   34.4031 H   0  0  0  0  0  0
   50.8450   34.7421   33.9847 H   0  0  0  0  0  0
   48.9591   33.6634   34.8842 H   0  0  0  0  0  0
   48.1782   35.2809   34.9029 H   0  0  0  0  0  0
   49.0219   35.4031   39.5987 H   0  0  0  0  0  0
   50.0386   32.8449   38.8573 H   0  0  0  0  0  0
   50.7385   36.7090   40.7829 H   0  0  0  0  0  0
   50.6904   32.9124   42.2085 H   0  0  0  0  0  0
   52.4308   33.5227   39.5906 H   0  0  0  0  0  0
   47.9627   31.6832   42.7532 H   0  0  0  0  0  0
   47.8898   31.4054   45.6338 H   0  0  0  0  0  0
   49.2224   30.1293   47.3281 H   0  0  0  0  0  0
   52.6610   30.0870   44.7038 H   0  0  0  0  0  0
   51.3840   31.4494   43.0187 H   0  0  0  0  0  0
   51.9910   26.9085   49.3191 H   0  0  0  0  0  0
   54.3290   28.2589   48.7849 H   0  0  0  0  0  0
   53.7793   30.0674   46.9916 H   0  0  0  0  0  0
   53.5871   29.7822   36.4121 H   0  0  0  0  0  0
   51.4262   29.1731   37.1950 H   0  0  0  0  0  0
   50.7409   30.4391   36.1205 H   0  0  0  0  0  0
   51.2316   30.8539   37.7980 H   0  0  0  0  0  0
   47.4922   34.1299   43.0647 H   0  0  0  0  0  0
   48.8353   34.2347   44.2529 H   0  0  0  0  0  0
   47.3831   33.2447   44.6239 H   0  0  0  0  0  0
   52.4311   37.1844   34.1401 H   0  0  0  0  0  0
   54.0022   38.0544   34.1028 H   0  0  0  0  0  0
   53.2900   37.5534   35.6740 H   0  0  0  0  0  0
  1  2  1  0  0  0
  1  5  1  0  0  0
  1 39  1  0  0  0
  1 40  1  0  0  0
  2  3  1  0  0  0
  2  6  1  0  0  0
  3  4  1  0  0  0
  3 23  1  0  0  0
  3 41  1  0  0  0
  4  5  1  0  0  0
  4 42  1  0  0  0
  4 43  1  0  0  0
  5 44  1  0  0  0
  5 45  1  0  0  0
  6  7  2  0  0  0
  6  8  1  0  0  0
  8  9  1  0  0  0
  8 11  1  0  0  0
  8 46  1  0  0  0
  9 10  1  0  0  0
  9 14  1  0  0  0
  9 47  1  0  0  0
 10 12  2  0  0  0
 10 13  1  0  0  0
 11 48  1  0  0  0
 13 15  1  0  0  0
 13 49  1  0  0  0
 14 50  1  0  0  0
 15 16  1  0  0  0
 15 34  1  0  0  0
 15 51  1  0  0  0
 16 17  2  0  0  0
 16 21  1  0  0  0
 17 18  1  0  0  0
 17 52  1  0  0  0
 18 19  2  0  0  0
 18 53  1  0  0  0
 19 20  1  0  0  0
 19 22  1  0  0  0
 20 21  2  0  0  0
 20 54  1  0  0  0
 21 55  1  0  0  0
 22 24  1  0  0  0
 22 27  1  0  0  0
 23 28  1  0  0  0
 23 31  2  0  0  0
 24 25  2  0  0  0
 25 26  1  0  0  0
 25 56  1  0  0  0
 26 27  2  0  0  0
 26 57  1  0  0  0
 27 58  1  0  0  0
 28 29  2  0  0  0
 29 30  1  0  0  0
 29 32  1  0  0  0
 30 31  1  0  0  0
 31 35  1  0  0  0
 32 33  1  0  0  0
 32 59  1  0  0  0
 33 60  1  0  0  0
 33 61  1  0  0  0
 33 62  1  0  0  0
 34 63  1  0  0  0
 34 64  1  0  0  0
 34 65  1  0  0  0
 35 36  2  0  0  0
 35 37  2  0  0  0
 35 38  1  0  0  0
 38 66  1  0  0  0
 38 67  1  0  0  0
 38 68  1  0  0  0
M  END
> <s_m_source_file>
../3o64_ligand.sdf

> <i_m_source_file_index>
1

> <s_epik_input>
Tz1TKD1PKShbQ0gzXSljMXNjKFtOSF1bQ0gzXSluYzFbQ0BIXTJbQ0gyXVtDSDJdW0NIMl1OMkMoPU8pW0NASF0oW09IXSlbQ0BASF0oW09IXSlDKD1PKVtOSF1bQ0BIXShbQ0gzXSljM1tjSF1bY0hdYyhbY0hdW2NIXTMpLW40bltjSF1bY0hdW2NIXTQ=

> <s_epik_cmdline>
J2VwaWtfYXBwJywgJy1pbWFlJywgJ2xpZ2FuZF9wcm8ubWFlJywgJy1vbWFlJywgJ2xpZ2FuZF9wcmVwLm1hZScsICctbXMnLCAnMScsICctcGgnLCAnNycsICctcGh0JywgJzAuNScsICctbnQn

> <r_lp_tautomer_probability>
1

> <r_epik_Ionization_Penalty>
  0.0029

> <r_epik_Ionization_Penalty_Charging>
  0.0000

> <r_epik_Ionization_Penalty_Neutral>
  0.0029

> <r_epik_State_Penalty>
 -0.0000

> <r_epik_Charging_Adjusted_Penalty>
0

> <i_epik_Tot_Q>
0

> <i_epik_Tot_abs_Q>
0

$$$$
