3o6l_ligand
                    3D
 Schrodinger Suite 2020-3.
241247  0  0  1  0            999 V2000
   57.4660   12.9520   -5.1790 N   0  3  0  0  0  0
   58.2910   14.1290   -4.7070 C   0  0  2  0  0  0
   57.4210   15.4030   -4.8780 C   0  0  0  0  0  0
   56.2440   15.3560   -4.4690 O   0  0  0  0  0  0
   59.6630   14.1940   -5.4350 C   0  0  0  0  0  0
   60.2510   12.8440   -5.9960 C   0  0  0  0  0  0
   60.0120   11.6240   -5.0950 C   0  0  0  0  0  0
   59.2220   10.7350   -5.4970 O   0  0  0  0  0  0
   60.6010   11.5700   -3.9840 O   0  0  0  0  0  0
   57.9610   16.5330   -5.4520 N   0  0  0  0  0  0
   56.9580   17.5430   -5.8770 C   0  0  2  0  0  0
   55.6720   17.0060   -6.6810 C   0  0  0  0  0  0
   54.5690   17.1890   -6.1370 O   0  0  0  0  0  0
   57.8030   18.6230   -6.5800 C   0  0  0  0  0  0
   59.1430   18.5400   -5.9010 C   0  0  0  0  0  0
   59.3310   17.1170   -5.4240 C   0  0  0  0  0  0
   55.6950   16.3730   -7.8820 N   0  0  0  0  0  0
   56.7010   16.2460   -8.9750 C   0  0  2  0  0  0
   56.0810   15.2590  -10.0000 C   0  0  0  0  0  0
   55.8390   15.6440  -11.1460 O   0  0  0  0  0  0
   58.1650   15.8260   -8.5420 C   0  0  0  0  0  0
   58.4660   14.3330   -8.7730 C   0  0  0  0  0  0
   59.1930   16.6820   -9.2500 C   0  0  0  0  0  0
   55.7500   14.0380   -9.5410 N   0  0  0  0  0  0
   55.4140   12.8610  -10.4030 C   0  0  2  0  0  0
   53.8850   12.6170  -10.6130 C   0  0  0  0  0  0
   53.0830   13.4340  -10.1260 O   0  0  0  0  0  0
   56.1380   11.5750   -9.9000 C   0  0  0  0  0  0
   55.6960   11.1300   -8.4850 C   0  0  0  0  0  0
   54.7840   10.2640   -8.3920 O   0  0  0  0  0  0
   56.2720   11.6250   -7.4750 O   0  0  0  0  0  0
   53.4740   11.5040  -11.3310 N   0  0  0  0  0  0
   52.0000   11.2930  -11.5050 C   0  0  2  0  0  0
   51.3190   10.7600  -10.2440 C   0  0  0  0  0  0
   50.0840   10.8250  -10.1600 O   0  0  0  0  0  0
   51.8880   10.3080  -12.6830 C   0  0  0  0  0  0
   53.3140   10.0540  -13.1610 C   0  0  0  0  0  0
   54.2360   10.4260  -12.0010 C   0  0  0  0  0  0
   52.1270   10.2720   -9.2810 N   0  0  0  0  0  0
   51.6460    9.9120   -7.9420 C   0  0  2  0  0  0
   50.6960    8.7110   -8.0010 C   0  0  0  0  0  0
   49.6880    8.6720   -7.2930 O   0  0  0  0  0  0
   50.9260   11.1120   -7.3380 C   0  0  0  0  0  0
   51.8730   12.2510   -6.8500 C   0  0  0  0  0  0
   51.0720   13.3930   -6.2470 C   0  0  0  0  0  0
   51.9560   14.6360   -6.1260 C   0  0  0  0  0  0
   51.1230   15.8010   -6.5190 N   0  3  0  0  0  0
   51.0140    7.7580   -8.8850 N   0  0  0  0  0  0
   50.1780    6.6060   -9.1430 C   0  0  2  0  0  0
   50.7660    5.4180   -8.4100 C   0  0  0  0  0  0
   51.9500    5.4190   -8.0390 O   0  0  0  0  0  0
   50.1450    6.3110  -10.6360 C   0  0  0  0  0  0
   49.3640    7.2530  -11.5420 C   0  0  0  0  0  0
   49.8500    7.0550  -12.9970 C   0  0  0  0  0  0
   47.8920    6.9880  -11.4410 C   0  0  0  0  0  0
   49.9370    4.3960   -8.2130 N   0  0  0  0  0  0
   50.3520    3.1700   -7.5490 C   0  0  2  0  0  0
   51.1960    2.3320   -8.5190 C   0  0  0  0  0  0
   51.0940    2.5260   -9.7240 O   0  0  0  0  0  0
   49.1050    2.4040   -7.1370 C   0  0  0  0  0  0
   48.3350    3.0050   -5.8820 C   0  0  0  0  0  0
   46.8160    2.8110   -6.0200 C   0  0  0  0  0  0
   46.2510    2.2040   -5.1200 O   0  0  0  0  0  0
   46.2130    3.2450   -7.0430 O   0  0  0  0  0  0
   52.0150    1.4120   -7.9940 N   0  0  0  0  0  0
   53.0040    0.6750   -8.7800 C   0  0  2  0  0  0
   52.4410   -0.1200   -9.9460 C   0  0  0  0  0  0
   53.1980   -0.3920  -10.8720 O   0  0  0  0  0  0
   53.6090   -0.2970   -7.7540 C   0  0  0  0  0  0
   53.4930    0.4370   -6.4760 C   0  0  0  0  0  0
   52.1380    1.0630   -6.5580 C   0  0  0  0  0  0
   51.1540   -0.4490   -9.9500 N   0  0  0  0  0  0
   50.6270   -1.3630  -10.9840 C   0  0  2  0  0  0
   49.9290   -0.5970  -12.0350 C   0  0  0  0  0  0
   49.4150   -1.1570  -12.9920 O   0  0  0  0  0  0
   49.6910   -2.4310  -10.3630 C   0  0  0  0  0  0
   48.7520   -1.8130   -9.3300 C   0  0  0  0  0  0
   48.9910   -1.6560   -7.9720 C   0  0  0  0  0  0
   47.4550   -1.2400   -9.5820 C   0  0  0  0  0  0
   47.9060   -1.0420   -7.3900 N   0  0  0  0  0  0
   46.9720   -0.7400   -8.3490 C   0  0  0  0  0  0
   46.6450   -1.1090  -10.7360 C   0  0  0  0  0  0
   45.6920   -0.1660   -8.2180 C   0  0  0  0  0  0
   45.3820   -0.4860  -10.6190 C   0  0  0  0  0  0
   44.9290   -0.0210   -9.3380 C   0  0  0  0  0  0
   49.9070    0.7210  -11.8850 N   0  0  0  0  0  0
   49.3310    1.5700  -12.9000 C   0  0  2  0  0  0
   50.3540    1.8110  -14.0130 C   0  0  0  0  0  0
   51.5330    1.9420  -13.7370 O   0  0  0  0  0  0
   48.9390    2.9160  -12.3210 C   0  0  0  0  0  0
   47.7950    2.8620  -11.2960 C   0  0  0  0  0  0
   46.4710    2.7970  -12.0310 C   0  0  0  0  0  0
   45.3040    3.0320  -10.9830 C   0  0  0  0  0  0
   45.0560    4.4870  -10.6860 N   0  3  0  0  0  0
   49.8620    1.8890  -15.2430 N   0  0  0  0  0  0
   50.6550    2.3160  -16.3730 C   0  0  2  0  0  0
   50.3330    3.7910  -16.5580 C   0  0  0  0  0  0
   49.1510    4.1400  -16.6530 O   0  0  0  0  0  0
   50.3180    1.4510  -17.5940 C   0  0  0  0  0  0
   50.6370   -0.0070  -17.3680 C   0  0  0  0  0  0
   49.6740   -0.9510  -17.0490 N   0  0  0  0  0  0
   51.8240   -0.6590  -17.3100 C   0  0  0  0  0  0
   50.2480   -2.1250  -16.8460 C   0  0  0  0  0  0
   51.5530   -1.9720  -16.9860 N   0  0  0  0  0  0
   51.3580    4.6690  -16.5850 N   0  0  0  0  0  0
   51.0320    6.1240  -16.6240 C   0  0  2  0  0  0
   50.2030    6.4360  -17.8720 C   0  0  0  0  0  0
   50.5340    5.9290  -18.9550 O   0  0  0  0  0  0
   52.3890    6.8330  -16.6420 C   0  0  0  0  0  0
   53.4730    5.7100  -16.6220 C   0  0  0  0  0  0
   52.7950    4.3730  -16.7630 C   0  0  0  0  0  0
   49.0940    7.1770  -17.6890 N   0  0  0  0  0  0
   48.0550    7.4140  -18.7280 C   0  0  0  0  0  0
   48.3900    8.5480  -19.7130 C   0  0  0  0  0  0
   49.3750    9.2880  -19.5300 O   0  0  0  0  0  0
   47.5870    8.6760  -20.7720 N   0  0  0  0  0  0
   47.7840    9.7500  -21.7490 C   0  0  2  0  0  0
   46.7350   10.8790  -21.6000 C   0  0  0  0  0  0
   46.0700   10.9950  -20.5560 O   0  0  0  0  0  0
   47.7990    9.1800  -23.1670 C   0  0  0  0  0  0
   46.4960    9.2550  -23.7250 O   0  0  0  0  0  0
   46.5390   11.6900  -22.5220 O   0  0  0  0  0  0
   56.5054   12.9392   -4.6432 H   0  0  0  0  0  0
   58.0109   12.0179   -4.9773 H   0  0  0  0  0  0
   57.2819   13.0431   -6.2596 H   0  0  0  0  0  0
   58.5416   14.0033   -3.6433 H   0  0  0  0  0  0
   59.5849   14.8621   -6.3054 H   0  0  0  0  0  0
   60.4269   14.5799   -4.7439 H   0  0  0  0  0  0
   59.7893   12.6192   -6.9688 H   0  0  0  0  0  0
   61.3395   12.9419   -6.1206 H   0  0  0  0  0  0
   60.4460   10.7063   -3.3207 H   0  0  0  0  0  0
   56.4845   17.9365   -4.9654 H   0  0  0  0  0  0
   57.8689   18.3954   -7.6542 H   0  0  0  0  0  0
   57.3297   19.6063   -6.4420 H   0  0  0  0  0  0
   59.9338   18.8109   -6.6161 H   0  0  0  0  0  0
   59.1658   19.2349   -5.0486 H   0  0  0  0  0  0
   59.7261   17.0761   -4.3982 H   0  0  0  0  0  0
   59.9883   16.5425   -6.0933 H   0  0  0  0  0  0
   54.7171   15.8778   -7.9743 H   0  0  0  0  0  0
   56.8298   17.2633   -9.3732 H   0  0  0  0  0  0
   58.2714   15.9970   -7.4606 H   0  0  0  0  0  0
   57.7125   13.7225   -8.2538 H   0  0  0  0  0  0
   59.4652   14.0952   -8.3793 H   0  0  0  0  0  0
   58.4352   14.1152   -9.8508 H   0  0  0  0  0  0
   58.9669   17.7446   -9.0773 H   0  0  0  0  0  0
   59.1645   16.4717  -10.3293 H   0  0  0  0  0  0
   60.1946   16.4518   -8.8579 H   0  0  0  0  0  0
   55.7369   13.9390   -8.4455 H   0  0  0  0  0  0
   55.8122   13.1607  -11.3836 H   0  0  0  0  0  0
   55.9268   10.7427  -10.5875 H   0  0  0  0  0  0
   57.2226   11.7550   -9.8644 H   0  0  0  0  0  0
   55.9683   11.3181   -6.4633 H   0  0  0  0  0  0
   51.4993   12.2540  -11.6940 H   0  0  0  0  0  0
   51.4140    9.3770  -12.3387 H   0  0  0  0  0  0
   51.2773   10.7574  -13.4799 H   0  0  0  0  0  0
   53.4278    8.9929  -13.4277 H   0  0  0  0  0  0
   53.5218   10.6780  -14.0428 H   0  0  0  0  0  0
   55.2089   10.8169  -12.3336 H   0  0  0  0  0  0
   54.3956    9.5970  -11.2958 H   0  0  0  0  0  0
   53.1899   10.1475   -9.5355 H   0  0  0  0  0  0
   52.5332    9.6441   -7.3495 H   0  0  0  0  0  0
   50.2540   11.5526   -8.0892 H   0  0  0  0  0  0
   50.3388   10.7868   -6.4665 H   0  0  0  0  0  0
   52.5590   11.8555   -6.0864 H   0  0  0  0  0  0
   52.4541   12.6348   -7.7015 H   0  0  0  0  0  0
   50.2117   13.6192   -6.8941 H   0  0  0  0  0  0
   50.7134   13.1022   -5.2486 H   0  0  0  0  0  0
   52.3034   14.7392   -5.0874 H   0  0  0  0  0  0
   52.8237   14.5354   -6.7945 H   0  0  0  0  0  0
   51.7217   16.7210   -6.4464 H   0  0  0  0  0  0
   50.2550   15.8744   -5.8473 H   0  0  0  0  0  0
   50.7753   15.6705   -7.5544 H   0  0  0  0  0  0
   51.9627    7.8817   -9.4278 H   0  0  0  0  0  0
   49.1683    6.8463   -8.7786 H   0  0  0  0  0  0
   51.1702    6.3215  -11.0345 H   0  0  0  0  0  0
   49.6963    5.3209  -10.8043 H   0  0  0  0  0  0
   49.5155    8.2910  -11.2110 H   0  0  0  0  0  0
   50.9306    7.2532  -13.0528 H   0  0  0  0  0  0
   49.3149    7.7506  -13.6602 H   0  0  0  0  0  0
   49.6502    6.0204  -13.3127 H   0  0  0  0  0  0
   47.5638    7.1332  -10.4012 H   0  0  0  0  0  0
   47.6837    5.9531  -11.7501 H   0  0  0  0  0  0
   47.3484    7.6833  -12.0976 H   0  0  0  0  0  0
   48.9034    4.5034   -8.5737 H   0  0  0  0  0  0
   50.9446    3.4439   -6.6637 H   0  0  0  0  0  0
   48.3889    2.3930   -7.9719 H   0  0  0  0  0  0
   49.3788    1.3713   -6.8752 H   0  0  0  0  0  0
   48.6729    2.4969   -4.9668 H   0  0  0  0  0  0
   48.5465    4.0816   -5.8031 H   0  0  0  0  0  0
   45.1263    3.1059   -7.1412 H   0  0  0  0  0  0
   53.6799    1.4102   -9.2411 H   0  0  0  0  0  0
   53.0332   -1.2342   -7.7530 H   0  0  0  0  0  0
   54.6545   -0.5093   -8.0222 H   0  0  0  0  0  0
   53.5783   -0.2703   -5.6379 H   0  0  0  0  0  0
   54.2971    1.1846   -6.4082 H   0  0  0  0  0  0
   52.0579    1.9765   -5.9505 H   0  0  0  0  0  0
   51.3338    0.3660   -6.2798 H   0  0  0  0  0  0
   50.4805   -0.0401   -9.1824 H   0  0  0  0  0  0
   51.4957   -1.8433  -11.4580 H   0  0  0  0  0  0
   49.0838   -2.8921  -11.1560 H   0  0  0  0  0  0
   50.2956   -3.2048   -9.8674 H   0  0  0  0  0  0
   49.8948   -1.9694   -7.4494 H   0  0  0  0  0  0
   46.9904   -1.4830  -11.6998 H   0  0  0  0  0  0
   45.3209    0.1544   -7.2445 H   0  0  0  0  0  0
   44.7526   -0.3586  -11.4997 H   0  0  0  0  0  0
   43.9533    0.4585   -9.2597 H   0  0  0  0  0  0
   50.3345    1.1652  -10.9740 H   0  0  0  0  0  0
   48.4425    1.0267  -13.2541 H   0  0  0  0  0  0
   49.8051    3.3614  -11.8095 H   0  0  0  0  0  0
   48.6097    3.5822  -13.1320 H   0  0  0  0  0  0
   47.9109    1.9692  -10.6639 H   0  0  0  0  0  0
   47.8241    3.7634  -10.6662 H   0  0  0  0  0  0
   46.4432    3.5771  -12.8061 H   0  0  0  0  0  0
   46.3608    1.8087  -12.5013 H   0  0  0  0  0  0
   44.3676    2.6094  -11.3761 H   0  0  0  0  0  0
   45.5589    2.5384  -10.0336 H   0  0  0  0  0  0
   44.2384    4.5780   -9.9557 H   0  0  0  0  0  0
   44.7785    5.0085  -11.6139 H   0  0  0  0  0  0
   45.9699    4.9375  -10.2714 H   0  0  0  0  0  0
   48.8067    1.6129  -15.3846 H   0  0  0  0  0  0
   51.7275    2.1808  -16.1691 H   0  0  0  0  0  0
   49.2441    1.5343  -17.8172 H   0  0  0  0  0  0
   50.9005    1.7970  -18.4606 H   0  0  0  0  0  0
   52.8633   -0.3342  -17.4658 H   0  0  0  0  0  0
   49.7345   -3.0559  -16.6053 H   0  0  0  0  0  0
   50.4285    6.4307  -15.7570 H   0  0  0  0  0  0
   52.4714    7.4440  -17.5530 H   0  0  0  0  0  0
   52.4761    7.4806  -15.7571 H   0  0  0  0  0  0
   54.1730    5.8612  -17.4569 H   0  0  0  0  0  0
   54.0235    5.7486  -15.6704 H   0  0  0  0  0  0
   53.1217    3.6628  -15.9891 H   0  0  0  0  0  0
   52.9581    3.9322  -17.7575 H   0  0  0  0  0  0
   48.9833    7.6218  -16.6890 H   0  0  0  0  0  0
   47.9180    6.5001  -19.3247 H   0  0  0  0  0  0
   47.1048    7.6806  -18.2422 H   0  0  0  0  0  0
   46.7655    7.9564  -20.9038 H   0  0  0  0  0  0
   48.7753   10.1647  -21.5139 H   0  0  0  0  0  0
   48.4964    9.7610  -23.7884 H   0  0  0  0  0  0
   48.1233    8.1293  -23.1365 H   0  0  0  0  0  0
   46.3130    8.8889  -24.7460 H   0  0  0  0  0  0
   45.7907   12.4875  -22.4032 H   0  0  0  0  0  0
  1  2  1  0  0  0
  1123  1  0  0  0
  1124  1  0  0  0
  1125  1  0  0  0
  2  3  1  0  0  0
  2  5  1  0  0  0
  2126  1  0  0  0
  3  4  2  0  0  0
  3 10  1  0  0  0
  5  6  1  0  0  0
  5127  1  0  0  0
  5128  1  0  0  0
  6  7  1  0  0  0
  6129  1  0  0  0
  6130  1  0  0  0
  7  8  2  0  0  0
  7  9  1  0  0  0
  9131  1  0  0  0
 10 11  1  0  0  0
 10 16  1  0  0  0
 11 12  1  0  0  0
 11 14  1  0  0  0
 11132  1  0  0  0
 12 13  2  0  0  0
 12 17  1  0  0  0
 14 15  1  0  0  0
 14133  1  0  0  0
 14134  1  0  0  0
 15 16  1  0  0  0
 15135  1  0  0  0
 15136  1  0  0  0
 16137  1  0  0  0
 16138  1  0  0  0
 17 18  1  0  0  0
 17139  1  0  0  0
 18 19  1  0  0  0
 18 21  1  0  0  0
 18140  1  0  0  0
 19 20  2  0  0  0
 19 24  1  0  0  0
 21 22  1  0  0  0
 21 23  1  0  0  0
 21141  1  0  0  0
 22142  1  0  0  0
 22143  1  0  0  0
 22144  1  0  0  0
 23145  1  0  0  0
 23146  1  0  0  0
 23147  1  0  0  0
 24 25  1  0  0  0
 24148  1  0  0  0
 25 26  1  0  0  0
 25 28  1  0  0  0
 25149  1  0  0  0
 26 27  2  0  0  0
 26 32  1  0  0  0
 28 29  1  0  0  0
 28150  1  0  0  0
 28151  1  0  0  0
 29 30  2  0  0  0
 29 31  1  0  0  0
 31152  1  0  0  0
 32 33  1  0  0  0
 32 38  1  0  0  0
 33 34  1  0  0  0
 33 36  1  0  0  0
 33153  1  0  0  0
 34 35  2  0  0  0
 34 39  1  0  0  0
 36 37  1  0  0  0
 36154  1  0  0  0
 36155  1  0  0  0
 37 38  1  0  0  0
 37156  1  0  0  0
 37157  1  0  0  0
 38158  1  0  0  0
 38159  1  0  0  0
 39 40  1  0  0  0
 39160  1  0  0  0
 40 41  1  0  0  0
 40 43  1  0  0  0
 40161  1  0  0  0
 41 42  2  0  0  0
 41 48  1  0  0  0
 43 44  1  0  0  0
 43162  1  0  0  0
 43163  1  0  0  0
 44 45  1  0  0  0
 44164  1  0  0  0
 44165  1  0  0  0
 45 46  1  0  0  0
 45166  1  0  0  0
 45167  1  0  0  0
 46 47  1  0  0  0
 46168  1  0  0  0
 46169  1  0  0  0
 47170  1  0  0  0
 47171  1  0  0  0
 47172  1  0  0  0
 48 49  1  0  0  0
 48173  1  0  0  0
 49 50  1  0  0  0
 49 52  1  0  0  0
 49174  1  0  0  0
 50 51  2  0  0  0
 50 56  1  0  0  0
 52 53  1  0  0  0
 52175  1  0  0  0
 52176  1  0  0  0
 53 54  1  0  0  0
 53 55  1  0  0  0
 53177  1  0  0  0
 54178  1  0  0  0
 54179  1  0  0  0
 54180  1  0  0  0
 55181  1  0  0  0
 55182  1  0  0  0
 55183  1  0  0  0
 56 57  1  0  0  0
 56184  1  0  0  0
 57 58  1  0  0  0
 57 60  1  0  0  0
 57185  1  0  0  0
 58 59  2  0  0  0
 58 65  1  0  0  0
 60 61  1  0  0  0
 60186  1  0  0  0
 60187  1  0  0  0
 61 62  1  0  0  0
 61188  1  0  0  0
 61189  1  0  0  0
 62 63  2  0  0  0
 62 64  1  0  0  0
 64190  1  0  0  0
 65 66  1  0  0  0
 65 71  1  0  0  0
 66 67  1  0  0  0
 66 69  1  0  0  0
 66191  1  0  0  0
 67 68  2  0  0  0
 67 72  1  0  0  0
 69 70  1  0  0  0
 69192  1  0  0  0
 69193  1  0  0  0
 70 71  1  0  0  0
 70194  1  0  0  0
 70195  1  0  0  0
 71196  1  0  0  0
 71197  1  0  0  0
 72 73  1  0  0  0
 72198  1  0  0  0
 73 74  1  0  0  0
 73 76  1  0  0  0
 73199  1  0  0  0
 74 75  2  0  0  0
 74 86  1  0  0  0
 76 77  1  0  0  0
 76200  1  0  0  0
 76201  1  0  0  0
 77 78  2  0  0  0
 77 79  1  0  0  0
 78 80  1  0  0  0
 78202  1  0  0  0
 79 81  2  0  0  0
 79 82  1  0  0  0
 80 81  1  0  0  0
 81 83  1  0  0  0
 82 84  2  0  0  0
 82203  1  0  0  0
 83 85  2  0  0  0
 83204  1  0  0  0
 84 85  1  0  0  0
 84205  1  0  0  0
 85206  1  0  0  0
 86 87  1  0  0  0
 86207  1  0  0  0
 87 88  1  0  0  0
 87 90  1  0  0  0
 87208  1  0  0  0
 88 89  2  0  0  0
 88 95  1  0  0  0
 90 91  1  0  0  0
 90209  1  0  0  0
 90210  1  0  0  0
 91 92  1  0  0  0
 91211  1  0  0  0
 91212  1  0  0  0
 92 93  1  0  0  0
 92213  1  0  0  0
 92214  1  0  0  0
 93 94  1  0  0  0
 93215  1  0  0  0
 93216  1  0  0  0
 94217  1  0  0  0
 94218  1  0  0  0
 94219  1  0  0  0
 95 96  1  0  0  0
 95220  1  0  0  0
 96 97  1  0  0  0
 96 99  1  0  0  0
 96221  1  0  0  0
 97 98  2  0  0  0
 97105  1  0  0  0
 99100  1  0  0  0
 99222  1  0  0  0
 99223  1  0  0  0
100101  2  0  0  0
100102  1  0  0  0
101103  1  0  0  0
102104  2  0  0  0
102224  1  0  0  0
103104  1  0  0  0
103225  1  0  0  0
105106  1  0  0  0
105111  1  0  0  0
106107  1  0  0  0
106109  1  0  0  0
106226  1  0  0  0
107108  2  0  0  0
107112  1  0  0  0
109110  1  0  0  0
109227  1  0  0  0
109228  1  0  0  0
110111  1  0  0  0
110229  1  0  0  0
110230  1  0  0  0
111231  1  0  0  0
111232  1  0  0  0
112113  1  0  0  0
112233  1  0  0  0
113114  1  0  0  0
113234  1  0  0  0
113235  1  0  0  0
114115  2  0  0  0
114116  1  0  0  0
116117  1  0  0  0
116236  1  0  0  0
117118  1  0  0  0
117120  1  0  0  0
117237  1  0  0  0
118119  2  0  0  0
118122  1  0  0  0
120121  1  0  0  0
120238  1  0  0  0
120239  1  0  0  0
121240  1  0  0  0
122241  1  0  0  0
M  CHG  3   1   1  47   1  94   1
M  END
> <s_m_source_file>
../3o6l_ligand.sdf

> <i_m_source_file_index>
1

> <s_epik_input>
Tz1DKFtPSF0pW0NIMl1bQ0gyXVtDQEhdKFtOSDMrXSlDKD1PKU4xW0NAQEhdKFtDSDJdW0NIMl1bQ0gyXTEpQyg9TylbTkhdW0NAQEhdKFtDSF0oW0NIM10pW0NIM10pQyg9TylbTkhdW0NAQEhdKFtDSDJdQyg9TylbT0hdKUMoPU8pTjJbQ0BASF0oW0NIMl1bQ0gyXVtDSDJdMilDKD1PKVtOSF1bQ0BASF0oW0NIMl1bQ0gyXVtDSDJdW0NIMl1bTkgzK10pQyg9TylbTkhdW0NAQEhdKFtDSDJdW0NIXShbQ0gzXSlbQ0gzXSlDKD1PKVtOSF1bQ0BASF0oW0NIMl1bQ0gyXUMoPU8pW09IXSlDKD1PKU4zW0NAQEhdKFtDSDJdW0NIMl1bQ0gyXTMpQyg9TylbTkhdW0NAQEhdKFtDSDJdYzRbY0hdW25IXWMoYzQ1KVtjSF1bY0hdW2NIXVtjSF01KUMoPU8pW05IXVtDQEBIXShbQ0gyXVtDSDJdW0NIMl1bQ0gyXVtOSDMrXSlDKD1PKVtOSF1bQ0BASF0oW0NIMl1DNj1OW0NIMl1OPVtDSF02KUMoPU8pTjdbQ0BASF0oW0NIMl1bQ0gyXVtDSDJdNylDKD1PKVtOSF1bQ0gyXUMoPU8pW05IXVtDQEhdKEMoPU8pW09IXSlbQ0gyXVtPSF0=

> <s_epik_cmdline>
J2VwaWtfYXBwJywgJy1pbWFlJywgJ2xpZ2FuZF9wcm8ubWFlJywgJy1vbWFlJywgJ2xpZ2FuZF9wcmVwLm1hZScsICctbXMnLCAnMScsICctcGgnLCAnNycsICctcGh0JywgJzAuNScsICctbnQn

> <s_epik_pKa_notes>
Molecule size exceeds maximum supported for generating protonation states

> <s_epik_Chemistry_Notes>
This compound has an imine and may undergo hydrolysis.

$$$$
