3o6m_ligand
                    3D
 Schrodinger Suite 2020-3.
164169  0  0  1  0            999 V2000
   52.0060   13.1810  -12.5830 N   0  3  0  0  0  0
   51.1800   12.0290  -12.1440 C   0  0  2  0  0  0
   51.7030   11.3570  -10.8710 C   0  0  0  0  0  0
   52.9050   11.0130  -10.7730 O   0  0  0  0  0  0
   51.2350   11.0670  -13.3390 C   0  0  0  0  0  0
   52.6230   11.3440  -13.9640 C   0  0  0  0  0  0
   52.8770   12.8600  -13.7390 C   0  0  0  0  0  0
   50.7920   11.1850   -9.9160 N   0  0  0  0  0  0
   51.1100   10.6900   -8.5670 C   0  0  2  0  0  0
   50.3380    9.3730   -8.3740 C   0  0  0  0  0  0
   49.3690    9.2830   -7.5920 O   0  0  0  0  0  0
   50.6990   11.7370   -7.5160 C   0  0  0  0  0  0
   51.3250   13.1440   -7.7060 C   0  0  0  0  0  0
   50.8840   14.1760   -6.6430 C   0  0  0  0  0  0
   51.7540   15.4200   -6.6740 C   0  0  0  0  0  0
   50.9620   16.6720   -6.4560 N   0  3  0  0  0  0
   50.7390    8.3810   -9.1590 N   0  0  0  0  0  0
   49.9490    7.1900   -9.3660 C   0  0  2  0  0  0
   50.5210    6.0590   -8.5350 C   0  0  0  0  0  0
   51.6510    6.1300   -8.1150 O   0  0  0  0  0  0
   49.9360    6.8040  -10.8470 C   0  0  0  0  0  0
   49.3690    7.7320  -11.9410 C   0  0  0  0  0  0
   49.3910    7.0470  -13.2950 C   0  0  0  0  0  0
   47.9690    8.2440  -11.6360 C   0  0  0  0  0  0
   49.7270    5.0260   -8.2710 N   0  0  0  0  0  0
   50.2350    3.8170   -7.6250 C   0  0  2  0  0  0
   51.1450    3.0130   -8.5840 C   0  0  0  0  0  0
   51.0050    3.1370   -9.7880 O   0  0  0  0  0  0
   49.0530    2.9480   -7.1960 C   0  0  0  0  0  0
   48.4610    3.3170   -5.8620 C   0  0  0  0  0  0
   46.9380    3.1620   -5.8630 C   0  0  0  0  0  0
   46.3590    2.8000   -4.8240 O   0  0  0  0  0  0
   46.3410    3.4100   -6.9160 O   0  0  0  0  0  0
   52.0260    2.1330   -8.0520 N   0  0  0  0  0  0
   53.0210    1.4850   -8.9140 C   0  0  2  0  0  0
   52.4430    0.6640  -10.0670 C   0  0  0  0  0  0
   52.9880    0.7040  -11.1670 O   0  0  0  0  0  0
   53.7790    0.6010   -7.9590 C   0  0  0  0  0  0
   53.5570    1.1860   -6.5940 C   0  0  0  0  0  0
   52.1760    1.7410   -6.6390 C   0  0  0  0  0  0
   51.3180   -0.0280   -9.8470 N   0  0  0  0  0  0
   50.7200   -0.8910  -10.8890 C   0  0  2  0  0  0
   50.0350   -0.1090  -12.0100 C   0  0  0  0  0  0
   49.6430   -0.6890  -13.0320 O   0  0  0  0  0  0
   49.7460   -1.8800  -10.2670 C   0  0  0  0  0  0
   48.7600   -1.2540   -9.2930 C   0  0  0  0  0  0
   48.9090   -1.1650   -7.9540 C   0  0  0  0  0  0
   47.4630   -0.6850   -9.5980 C   0  0  0  0  0  0
   47.8130   -0.5530   -7.3940 N   0  0  0  0  0  0
   46.9030   -0.2550   -8.3760 C   0  0  0  0  0  0
   46.7240   -0.5040  -10.7830 C   0  0  0  0  0  0
   45.6250    0.3820   -8.2880 C   0  0  0  0  0  0
   45.3990    0.1340  -10.7000 C   0  0  0  0  0  0
   44.8860    0.5390   -9.4590 C   0  0  0  0  0  0
   49.9010    1.2150  -11.8330 N   0  0  0  0  0  0
   49.3480    2.0510  -12.8860 C   0  0  2  0  0  0
   50.2710    2.1470  -14.1030 C   0  0  0  0  0  0
   51.4860    2.0660  -13.9700 O   0  0  0  0  0  0
   49.0640    3.4710  -12.3620 C   0  0  0  0  0  0
   47.8200    3.6140  -11.5020 C   0  0  0  0  0  0
   46.5480    3.2340  -12.2520 C   0  0  0  0  0  0
   45.3290    3.4900  -11.3820 C   0  0  0  0  0  0
   45.0300    4.9130  -11.1370 N   0  3  0  0  0  0
   49.6830    2.3870  -15.2740 N   0  0  0  0  0  0
   50.4680    2.6050  -16.4860 C   0  0  2  0  0  0
   51.2490    3.9500  -16.4770 C   0  0  0  0  0  0
   50.6310    5.0370  -16.3440 O   0  0  0  0  0  0
   49.5680    2.4870  -17.7260 C   0  0  0  0  0  0
   50.3210    2.1870  -18.9830 C   0  0  0  0  0  0
   51.0200    3.1510  -19.6820 N   0  0  0  0  0  0
   50.5100    1.0200  -19.6520 C   0  0  0  0  0  0
   51.6100    2.5920  -20.7230 C   0  0  0  0  0  0
   51.3130    1.3010  -20.7330 N   0  0  0  0  0  0
   52.6020    3.8870  -16.6230 N   0  0  0  0  0  0
   53.4510    5.1050  -16.7140 C   0  0  2  0  0  0
   53.0230    6.1390  -17.7870 C   0  0  0  0  0  0
   51.9415    6.0060  -18.4197 O   0  0  0  0  0  0
   54.8580    4.5550  -17.0350 C   0  0  0  0  0  0
   54.6590    3.1150  -17.4330 C   0  0  0  0  0  0
   53.4210    2.6600  -16.6830 C   0  0  0  0  0  0
   53.7672    7.1263  -18.0299 O   0  0  0  0  0  0
   51.3486   14.0116  -12.8796 H   0  0  0  0  0  0
   52.6542   13.5041  -11.7551 H   0  0  0  0  0  0
   50.1691   12.3761  -11.8841 H   0  0  0  0  0  0
   51.1367   10.0316  -12.9810 H   0  0  0  0  0  0
   50.4115   11.2952  -14.0316 H   0  0  0  0  0  0
   53.3819   10.7280  -13.4593 H   0  0  0  0  0  0
   52.5997   11.0929  -15.0347 H   0  0  0  0  0  0
   52.5779   13.4701  -14.6040 H   0  0  0  0  0  0
   53.9239   13.0780  -13.4810 H   0  0  0  0  0  0
   49.7537   11.4350  -10.1795 H   0  0  0  0  0  0
   52.1953   10.5273   -8.4911 H   0  0  0  0  0  0
   49.6078   11.8735   -7.5417 H   0  0  0  0  0  0
   51.0019   11.3917   -6.5165 H   0  0  0  0  0  0
   52.4210   13.0682   -7.6503 H   0  0  0  0  0  0
   51.0346   13.5449   -8.6883 H   0  0  0  0  0  0
   49.8431   14.4764   -6.8334 H   0  0  0  0  0  0
   50.9585   13.7260   -5.6420 H   0  0  0  0  0  0
   52.5145   15.3554   -5.8818 H   0  0  0  0  0  0
   52.2499   15.4964   -7.6529 H   0  0  0  0  0  0
   51.6349   17.5416   -6.4873 H   0  0  0  0  0  0
   50.4670   16.6265   -5.4747 H   0  0  0  0  0  0
   50.2023   16.7675   -7.2458 H   0  0  0  0  0  0
   51.7117    8.4899   -9.6610 H   0  0  0  0  0  0
   48.9304    7.4362   -9.0315 H   0  0  0  0  0  0
   50.9668    6.6306  -11.1898 H   0  0  0  0  0  0
   49.3455    5.8857  -10.9814 H   0  0  0  0  0  0
   50.0210    8.6172  -11.9772 H   0  0  0  0  0  0
   50.4071    6.6814  -13.5045 H   0  0  0  0  0  0
   49.0916    7.7641  -14.0736 H   0  0  0  0  0  0
   48.6903    6.1991  -13.2884 H   0  0  0  0  0  0
   47.9653    8.7381  -10.6532 H   0  0  0  0  0  0
   47.2642    7.3995  -11.6246 H   0  0  0  0  0  0
   47.6655    8.9645  -12.4098 H   0  0  0  0  0  0
   48.6653    5.0957   -8.5503 H   0  0  0  0  0  0
   50.8126    4.1606   -6.7542 H   0  0  0  0  0  0
   48.2465    3.0332   -7.9392 H   0  0  0  0  0  0
   49.3761    1.8990   -7.1242 H   0  0  0  0  0  0
   48.8774    2.6622   -5.0823 H   0  0  0  0  0  0
   48.7045    4.3643   -5.6298 H   0  0  0  0  0  0
   45.2650    2.6859   -4.8153 H   0  0  0  0  0  0
   53.6224    2.2649   -9.4040 H   0  0  0  0  0  0
   53.3885   -0.4255   -8.0210 H   0  0  0  0  0  0
   54.8463    0.6040   -8.2251 H   0  0  0  0  0  0
   53.6543    0.3950   -5.8358 H   0  0  0  0  0  0
   54.3056    1.9694   -6.4046 H   0  0  0  0  0  0
   52.0538    2.6265   -5.9979 H   0  0  0  0  0  0
   51.4103    0.9941   -6.3824 H   0  0  0  0  0  0
   50.8375    0.0575   -8.8612 H   0  0  0  0  0  0
   51.5779   -1.4214  -11.3280 H   0  0  0  0  0  0
   49.1551   -2.3609  -11.0604 H   0  0  0  0  0  0
   50.3063   -2.6464   -9.7115 H   0  0  0  0  0  0
   49.7737   -1.5264   -7.3974 H   0  0  0  0  0  0
   47.1247   -0.8297  -11.7429 H   0  0  0  0  0  0
   45.2399    0.7348   -7.3313 H   0  0  0  0  0  0
   44.8148    0.2920  -11.6066 H   0  0  0  0  0  0
   43.8923    0.9842   -9.4097 H   0  0  0  0  0  0
   50.2143    1.6662  -10.8800 H   0  0  0  0  0  0
   48.4238    1.5238  -13.1651 H   0  0  0  0  0  0
   49.9088    3.8096  -11.7442 H   0  0  0  0  0  0
   48.9337    4.1564  -13.2124 H   0  0  0  0  0  0
   47.9046    2.9583  -10.6229 H   0  0  0  0  0  0
   47.7204    4.6586  -11.1720 H   0  0  0  0  0  0
   46.4689    3.8369  -13.1687 H   0  0  0  0  0  0
   46.5834    2.1669  -12.5169 H   0  0  0  0  0  0
   44.4386    3.0578  -11.8620 H   0  0  0  0  0  0
   45.4772    3.0237  -10.3968 H   0  0  0  0  0  0
   44.1360    4.9957  -10.5014 H   0  0  0  0  0  0
   44.8462    5.4194  -12.0960 H   0  0  0  0  0  0
   45.8848    5.3854  -10.6308 H   0  0  0  0  0  0
   48.5843    2.4193  -15.3171 H   0  0  0  0  0  0
   51.2019    1.7858  -16.4706 H   0  0  0  0  0  0
   48.8413    1.6751  -17.5756 H   0  0  0  0  0  0
   49.0318    3.4348  -17.8815 H   0  0  0  0  0  0
   50.1573   -0.0078  -19.4813 H   0  0  0  0  0  0
   52.2363    3.1066  -21.4517 H   0  0  0  0  0  0
   53.3557    5.6429  -15.7592 H   0  0  0  0  0  0
   51.6529    6.7489  -19.1778 H   0  0  0  0  0  0
   55.3006    5.1373  -17.8566 H   0  0  0  0  0  0
   55.4960    4.6366  -16.1426 H   0  0  0  0  0  0
   54.5170    3.0518  -18.5220 H   0  0  0  0  0  0
   55.5440    2.5290  -17.1440 H   0  0  0  0  0  0
   53.6460    2.3191  -15.6617 H   0  0  0  0  0  0
   52.8665    1.8748  -17.2178 H   0  0  0  0  0  0
  1  2  1  0  0  0
  1  7  1  0  0  0
  1 82  1  0  0  0
  1 83  1  0  0  0
  2  3  1  0  0  0
  2  5  1  0  0  0
  2 84  1  0  0  0
  3  4  2  0  0  0
  3  8  1  0  0  0
  5  6  1  0  0  0
  5 85  1  0  0  0
  5 86  1  0  0  0
  6  7  1  0  0  0
  6 87  1  0  0  0
  6 88  1  0  0  0
  7 89  1  0  0  0
  7 90  1  0  0  0
  8  9  1  0  0  0
  8 91  1  0  0  0
  9 10  1  0  0  0
  9 12  1  0  0  0
  9 92  1  0  0  0
 10 11  2  0  0  0
 10 17  1  0  0  0
 12 13  1  0  0  0
 12 93  1  0  0  0
 12 94  1  0  0  0
 13 14  1  0  0  0
 13 95  1  0  0  0
 13 96  1  0  0  0
 14 15  1  0  0  0
 14 97  1  0  0  0
 14 98  1  0  0  0
 15 16  1  0  0  0
 15 99  1  0  0  0
 15100  1  0  0  0
 16101  1  0  0  0
 16102  1  0  0  0
 16103  1  0  0  0
 17 18  1  0  0  0
 17104  1  0  0  0
 18 19  1  0  0  0
 18 21  1  0  0  0
 18105  1  0  0  0
 19 20  2  0  0  0
 19 25  1  0  0  0
 21 22  1  0  0  0
 21106  1  0  0  0
 21107  1  0  0  0
 22 23  1  0  0  0
 22 24  1  0  0  0
 22108  1  0  0  0
 23109  1  0  0  0
 23110  1  0  0  0
 23111  1  0  0  0
 24112  1  0  0  0
 24113  1  0  0  0
 24114  1  0  0  0
 25 26  1  0  0  0
 25115  1  0  0  0
 26 27  1  0  0  0
 26 29  1  0  0  0
 26116  1  0  0  0
 27 28  2  0  0  0
 27 34  1  0  0  0
 29 30  1  0  0  0
 29117  1  0  0  0
 29118  1  0  0  0
 30 31  1  0  0  0
 30119  1  0  0  0
 30120  1  0  0  0
 31 32  1  0  0  0
 31 33  2  0  0  0
 32121  1  0  0  0
 34 35  1  0  0  0
 34 40  1  0  0  0
 35 36  1  0  0  0
 35 38  1  0  0  0
 35122  1  0  0  0
 36 37  2  0  0  0
 36 41  1  0  0  0
 38 39  1  0  0  0
 38123  1  0  0  0
 38124  1  0  0  0
 39 40  1  0  0  0
 39125  1  0  0  0
 39126  1  0  0  0
 40127  1  0  0  0
 40128  1  0  0  0
 41 42  1  0  0  0
 41129  1  0  0  0
 42 43  1  0  0  0
 42 45  1  0  0  0
 42130  1  0  0  0
 43 44  2  0  0  0
 43 55  1  0  0  0
 45 46  1  0  0  0
 45131  1  0  0  0
 45132  1  0  0  0
 46 47  2  0  0  0
 46 48  1  0  0  0
 47 49  1  0  0  0
 47133  1  0  0  0
 48 50  2  0  0  0
 48 51  1  0  0  0
 49 50  1  0  0  0
 50 52  1  0  0  0
 51 53  2  0  0  0
 51134  1  0  0  0
 52 54  2  0  0  0
 52135  1  0  0  0
 53 54  1  0  0  0
 53136  1  0  0  0
 54137  1  0  0  0
 55 56  1  0  0  0
 55138  1  0  0  0
 56 57  1  0  0  0
 56 59  1  0  0  0
 56139  1  0  0  0
 57 58  2  0  0  0
 57 64  1  0  0  0
 59 60  1  0  0  0
 59140  1  0  0  0
 59141  1  0  0  0
 60 61  1  0  0  0
 60142  1  0  0  0
 60143  1  0  0  0
 61 62  1  0  0  0
 61144  1  0  0  0
 61145  1  0  0  0
 62 63  1  0  0  0
 62146  1  0  0  0
 62147  1  0  0  0
 63148  1  0  0  0
 63149  1  0  0  0
 63150  1  0  0  0
 64 65  1  0  0  0
 64151  1  0  0  0
 65 66  1  0  0  0
 65 68  1  0  0  0
 65152  1  0  0  0
 66 67  2  0  0  0
 66 74  1  0  0  0
 68 69  1  0  0  0
 68153  1  0  0  0
 68154  1  0  0  0
 69 70  2  0  0  0
 69 71  1  0  0  0
 70 72  1  0  0  0
 71 73  2  0  0  0
 71155  1  0  0  0
 72 73  1  0  0  0
 72156  1  0  0  0
 74 75  1  0  0  0
 74 80  1  0  0  0
 75 76  1  0  0  0
 75 78  1  0  0  0
 75157  1  0  0  0
 76 77  1  0  0  0
 76 81  2  0  0  0
 77158  1  0  0  0
 78 79  1  0  0  0
 78159  1  0  0  0
 78160  1  0  0  0
 79 80  1  0  0  0
 79161  1  0  0  0
 79162  1  0  0  0
 80163  1  0  0  0
 80164  1  0  0  0
M  CHG  3   1   1  16   1  63   1
M  END
> <s_m_source_file>
../3o6m_ligand.sdf

> <i_m_source_file_index>
1

> <s_epik_input>
W0NIMl0xW0NIMl1bQ0gyXVtOSDIrXVtDQEBIXTFDKD1PKVtOSF1bQ0BASF0oW0NIMl1bQ0gyXVtDSDJdW0NIMl1bTkgzK10pQyg9TylbTkhdW0NAQEhdKFtDSDJdW0NIXShbQ0gzXSlbQ0gzXSlDKD1PKVtOSF1bQ0BASF0oW0NIMl1bQ0gyXUMoPU8pW09IXSlDKD1PKU4yW0NAQEhdKFtDSDJdW0NIMl1bQ0gyXTIpQyg9TylbTkhdW0NAQEhdKFtDSDJdYzNbY0hdW25IXWMoYzM0KVtjSF1bY0hdW2NIXVtjSF00KUMoPU8pW05IXVtDQEBIXShbQ0gyXVtDSDJdW0NIMl1bQ0gyXVtOSDMrXSlDKD1PKVtOSF1bQ0BIXShDKD1PKU41W0NASF0oQyg9TylbT0hdKVtDSDJdW0NIMl1bQ0gyXTUpW0NIMl1DNj1OW0NIMl1OPVtDSF02

> <s_epik_cmdline>
J2VwaWtfYXBwJywgJy1pbWFlJywgJ2xpZ2FuZF9wcm8ubWFlJywgJy1vbWFlJywgJ2xpZ2FuZF9wcmVwLm1hZScsICctbXMnLCAnMScsICctcGgnLCAnNycsICctcGh0JywgJzAuNScsICctbnQn

> <s_epik_pKa_notes>
Molecule size exceeds maximum supported for generating protonation states

> <s_epik_Chemistry_Notes>
This compound has an imine and may undergo hydrolysis.

$$$$
