3o6t_ligand
                    3D
 Schrodinger Suite 2020-3.
 28 30  0  0  1  0            999 V2000
   30.0440  -20.2990   20.5180 C   0  0  0  0  0  0
   30.8020  -21.0290   19.6680 C   0  0  0  0  0  0
   30.3330  -21.3120   18.4280 C   0  0  0  0  0  0
   29.0970  -20.8860   18.0320 C   0  0  0  0  0  0
   28.3380  -20.1420   18.9180 C   0  0  0  0  0  0
   28.8100  -19.8460   20.1550 C   0  0  0  0  0  0
   28.6660  -21.2860   16.5120 S   0  0  0  0  0  0
   30.1510  -22.0540   16.3840 C   0  0  0  0  0  0
   30.8950  -21.9940   17.4620 N   0  0  0  0  0  0
   30.7240  -22.8440   15.2840 C   0  0  1  0  0  0
   32.1960  -22.6720   15.3820 C   0  0  0  0  0  0
   33.0650  -23.6350   15.5830 C   0  0  0  0  0  0
   32.6070  -24.9110   16.0840 C   0  0  0  0  0  0
   31.1410  -25.1140   16.3310 C   0  0  0  0  0  0
   30.2380  -24.2680   15.4520 C   0  0  0  0  0  0
   30.3210  -22.4100   14.0370 O   0  0  0  0  0  0
   33.3890  -25.7760   16.2880 O   0  0  0  0  0  0
   30.4269  -20.0684   21.5121 H   0  0  0  0  0  0
   31.7836  -21.3874   19.9782 H   0  0  0  0  0  0
   27.3507  -19.7901   18.6190 H   0  0  0  0  0  0
   28.2118  -19.2549   20.8484 H   0  0  0  0  0  0
   32.5416  -21.6336   15.2708 H   0  0  0  0  0  0
   34.1311  -23.4670   15.3704 H   0  0  0  0  0  0
   30.8798  -26.1659   16.1434 H   0  0  0  0  0  0
   30.9062  -24.8584   17.3748 H   0  0  0  0  0  0
   29.2394  -24.2626   15.9132 H   0  0  0  0  0  0
   30.1846  -24.7558   14.4675 H   0  0  0  0  0  0
   30.5694  -21.3921   13.7021 H   0  0  0  0  0  0
  1  2  1  0  0  0
  1  6  2  0  0  0
  1 18  1  0  0  0
  2  3  2  0  0  0
  2 19  1  0  0  0
  3  4  1  0  0  0
  3  9  1  0  0  0
  4  5  2  0  0  0
  4  7  1  0  0  0
  5  6  1  0  0  0
  5 20  1  0  0  0
  6 21  1  0  0  0
  7  8  1  0  0  0
  8  9  2  0  0  0
  8 10  1  0  0  0
 10 11  1  0  0  0
 10 15  1  0  0  0
 10 16  1  0  0  0
 11 12  2  0  0  0
 11 22  1  0  0  0
 12 13  1  0  0  0
 12 23  1  0  0  0
 13 14  1  0  0  0
 13 17  2  0  0  0
 14 15  1  0  0  0
 14 24  1  0  0  0
 14 25  1  0  0  0
 15 26  1  0  0  0
 15 27  1  0  0  0
 16 28  1  0  0  0
M  END
> <s_m_source_file>
../3o6t_ligand.sdf

> <i_m_source_file_index>
1

> <s_epik_input>
W2NIXTFbY0hdW2NIXVtjSF1jKGMxMilzYyhuMilbQ0BAXTMoW09IXSlbQ0hdPVtDSF1DKD1PKVtDSDJdW0NIMl0z

> <s_epik_cmdline>
J2VwaWtfYXBwJywgJy1pbWFlJywgJ2xpZ2FuZF9wcm8ubWFlJywgJy1vbWFlJywgJ2xpZ2FuZF9wcmVwLm1hZScsICctbXMnLCAnMScsICctcGgnLCAnNycsICctcGh0JywgJzAuNScsICctbnQn

> <r_lp_tautomer_probability>
1

> <r_epik_Ionization_Penalty>
  0.0000

> <r_epik_Ionization_Penalty_Charging>
  0.0000

> <r_epik_Ionization_Penalty_Neutral>
  0.0000

> <r_epik_State_Penalty>
 -0.0000

> <r_epik_Charging_Adjusted_Penalty>
0

> <i_epik_Tot_Q>
0

> <i_epik_Tot_abs_Q>
0

$$$$
