3o75_ligand
                    3D
 Schrodinger Suite 2020-3.
 27 27  0  0  1  0            999 V2000
   -0.8220    4.1160    4.3120 C   0  0  0  0  0  0
   -1.1880    3.6710    3.0150 O   0  0  0  0  0  0
   -0.7150    4.5260    1.7380 P   0  0  0  0  0  0
   -2.0280    4.7660    4.9670 C   0  0  2  0  0  0
   -2.7270    5.5740    4.0110 O   0  0  0  0  0  0
   -1.5940    5.6210    6.1490 C   0  0  1  0  0  0
   -1.1390    6.9090    5.7410 O   0  0  0  0  0  0
   -2.8640    5.6650    6.9610 C   0  0  2  0  0  0
   -2.6680    6.0550    8.3230 O   0  0  0  0  0  0
   -3.2400    4.2010    6.8430 C   0  0  2  0  0  0
   -2.9360    3.8020    5.5010 O   0  0  0  0  0  0
   -4.6840    3.9860    7.2240 C   0  0  0  0  0  0
   -4.6470    3.7460    8.6250 O   0  0  0  0  0  0
   -1.3060    5.8940    1.9590 O   0  5  0  0  0  0
    0.7880    4.4910    1.8050 O   0  0  0  0  0  0
   -1.3190    3.7870    0.5700 O   0  5  0  0  0  0
   -0.4894    3.2575    4.9139 H   0  0  0  0  0  0
   -0.0035    4.8465    4.2316 H   0  0  0  0  0  0
   -2.1990    6.3815    3.4827 H   0  0  0  0  0  0
   -0.7058    5.2818    6.7022 H   0  0  0  0  0  0
   -0.2209    7.0039    5.1426 H   0  0  0  0  0  0
   -3.6041    6.4241    6.6677 H   0  0  0  0  0  0
   -2.3904    7.0918    8.5637 H   0  0  0  0  0  0
   -2.6482    3.5426    7.4960 H   0  0  0  0  0  0
   -5.2665    4.8855    6.9759 H   0  0  0  0  0  0
   -5.0852    3.1249    6.6695 H   0  0  0  0  0  0
   -5.5801    3.5542    9.1750 H   0  0  0  0  0  0
  1  2  1  0  0  0
  1  4  1  0  0  0
  1 17  1  0  0  0
  1 18  1  0  0  0
  2  3  1  0  0  0
  3 14  1  0  0  0
  3 15  2  0  0  0
  3 16  1  0  0  0
  4  5  1  0  0  0
  4  6  1  0  0  0
  4 11  1  0  0  0
  5 19  1  0  0  0
  6  7  1  0  0  0
  6  8  1  0  0  0
  6 20  1  0  0  0
  7 21  1  0  0  0
  8  9  1  0  0  0
  8 10  1  0  0  0
  8 22  1  0  0  0
  9 23  1  0  0  0
 10 11  1  0  0  0
 10 12  1  0  0  0
 10 24  1  0  0  0
 12 13  1  0  0  0
 12 25  1  0  0  0
 12 26  1  0  0  0
 13 27  1  0  0  0
M  CHG  2  14  -1  16  -1
M  END
> <s_m_source_file>
../3o75_ligand.sdf

> <i_m_source_file_index>
1

> <s_epik_input>
W09IXVAoPU8pKFtPSF0pT1tDSDJdW0NAXTEoW09IXSlbQ0BASF0oW09IXSlbQ0BIXShbT0hdKVtDQEhdKE8xKVtDSDJdW09IXQ==

> <s_epik_cmdline>
J2VwaWtfYXBwJywgJy1pbWFlJywgJ2xpZ2FuZF9wcm8ubWFlJywgJy1vbWFlJywgJ2xpZ2FuZF9wcmVwLm1hZScsICctbXMnLCAnMScsICctcGgnLCAnNycsICctcGh0JywgJzAuNScsICctbnQn

> <r_epik_Ionization_Penalty>
  0.0869

> <r_epik_Ionization_Penalty_Charging>
  0.0869

> <r_epik_Ionization_Penalty_Neutral>
  0.0000

> <r_epik_State_Penalty>
  0.0774

> <r_epik_Charging_Adjusted_Penalty>
0.164380599053971

> <i_epik_Tot_Q>
-2

> <i_epik_Tot_abs_Q>
2

$$$$
