3o84_ligand
                    3D
 Schrodinger Suite 2020-3.
 38 41  0  0  1  0            999 V2000
  -26.0130   -6.7110   15.7700 C   0  0  0  0  0  0
  -26.5260   -6.6180   14.4700 C   0  0  0  0  0  0
  -25.6570   -6.4870   13.3840 C   0  0  0  0  0  0
  -24.2820   -6.4540   13.6650 C   0  0  0  0  0  0
  -23.8100   -6.5470   14.9800 C   0  0  0  0  0  0
  -24.6870   -6.6630   15.9970 N   0  0  0  0  0  0
  -26.1860   -6.3840   11.9390 C   0  0  0  0  0  0
  -25.0660   -5.8580   11.1550 N   0  0  0  0  0  0
  -24.0360   -6.4940   10.5960 C   0  0  0  0  0  0
  -23.2420   -5.4840   10.0760 C   0  0  0  0  0  0
  -23.8160   -4.1910   10.3520 C   0  0  0  0  0  0
  -24.9560   -4.4560   11.0390 N   0  0  0  0  0  0
  -23.7340   -7.7900   10.4820 N   0  0  0  0  0  0
  -22.6230   -8.1920    9.8480 C   0  0  0  0  0  0
  -21.7670   -7.2370    9.2810 C   0  0  0  0  0  0
  -22.0760   -5.8720    9.3910 C   0  0  0  0  0  0
  -21.1610   -4.8390    8.7880 C   0  0  0  0  0  0
  -20.3330   -5.1930    7.9310 O   0  0  0  0  0  0
  -21.2200   -3.6420    9.1530 O   0  5  0  0  0  0
  -22.3660   -9.6560    9.7730 C   0  0  0  0  0  0
  -23.1510  -10.5250   10.5450 C   0  0  0  0  0  0
  -22.9350  -11.9050   10.4880 C   0  0  0  0  0  0
  -21.9410  -12.4240    9.6560 C   0  0  0  0  0  0
  -21.1480  -11.5670    8.8880 C   0  0  0  0  0  0
  -21.3680  -10.1790    8.9390 C   0  0  0  0  0  0
  -26.6978   -6.8239   16.6105 H   0  0  0  0  0  0
  -27.6031   -6.6478   14.3057 H   0  0  0  0  0  0
  -23.5699   -6.3543   12.8458 H   0  0  0  0  0  0
  -22.7388   -6.5257   15.1802 H   0  0  0  0  0  0
  -26.4913   -7.3809   11.5884 H   0  0  0  0  0  0
  -27.0512   -5.7052   11.9128 H   0  0  0  0  0  0
  -23.4212   -3.2147   10.0707 H   0  0  0  0  0  0
  -20.8651   -7.5533    8.7569 H   0  0  0  0  0  0
  -23.9315  -10.1232   11.1911 H   0  0  0  0  0  0
  -23.5433  -12.5767   11.0938 H   0  0  0  0  0  0
  -21.7830  -13.5013    9.6053 H   0  0  0  0  0  0
  -20.3617  -11.9730    8.2517 H   0  0  0  0  0  0
  -20.7618   -9.5090    8.3293 H   0  0  0  0  0  0
  1  2  2  0  0  0
  1  6  1  0  0  0
  1 26  1  0  0  0
  2  3  1  0  0  0
  2 27  1  0  0  0
  3  4  2  0  0  0
  3  7  1  0  0  0
  4  5  1  0  0  0
  4 28  1  0  0  0
  5  6  2  0  0  0
  5 29  1  0  0  0
  7  8  1  0  0  0
  7 30  1  0  0  0
  7 31  1  0  0  0
  8  9  1  0  0  0
  8 12  1  0  0  0
  9 10  2  0  0  0
  9 13  1  0  0  0
 10 11  1  0  0  0
 10 16  1  0  0  0
 11 12  2  0  0  0
 11 32  1  0  0  0
 13 14  2  0  0  0
 14 15  1  0  0  0
 14 20  1  0  0  0
 15 16  2  0  0  0
 15 33  1  0  0  0
 16 17  1  0  0  0
 17 18  2  0  0  0
 17 19  1  0  0  0
 20 21  2  0  0  0
 20 25  1  0  0  0
 21 22  1  0  0  0
 21 34  1  0  0  0
 22 23  2  0  0  0
 22 35  1  0  0  0
 23 24  1  0  0  0
 23 36  1  0  0  0
 24 25  2  0  0  0
 24 37  1  0  0  0
 25 38  1  0  0  0
M  CHG  1  19  -1
M  END
> <s_m_source_file>
../3o84_ligand.sdf

> <i_m_source_file_index>
1

> <s_epik_input>
W2NIXTFbY0hdbltjSF1bY0hdYzFbQ0gyXW4ybltjSF1jKGMyMyljKEMoPU8pW09IXSlbY0hdYyhuMyktYzRbY0hdW2NIXVtjSF1bY0hdW2NIXTQ=

> <s_epik_cmdline>
J2VwaWtfYXBwJywgJy1pbWFlJywgJ2xpZ2FuZF9wcm8ubWFlJywgJy1vbWFlJywgJ2xpZ2FuZF9wcmVwLm1hZScsICctbXMnLCAnMScsICctcGgnLCAnNycsICctcGh0JywgJzAuNScsICctbnQn

> <r_lp_tautomer_probability>
1

> <r_epik_Ionization_Penalty>
  0.0068

> <r_epik_Ionization_Penalty_Charging>
  0.0001

> <r_epik_Ionization_Penalty_Neutral>
  0.0067

> <r_epik_State_Penalty>
 -0.0000

> <r_epik_Charging_Adjusted_Penalty>
0.000114417426353533

> <i_epik_Tot_Q>
-1

> <i_epik_Tot_abs_Q>
1

$$$$
