3o86_ligand
                    3D
 Schrodinger Suite 2020-3.
 27 27  0  0  1  0            999 V2000
   23.2060    8.1130   13.9990 O   0  0  0  0  0  0
   25.0920    7.4110   12.5410 O   0  0  0  0  0  0
   25.5620    4.0940   16.5910 O   0  0  0  0  0  0
   26.7640    5.9530   17.5360 O   0  0  0  0  0  0
   21.0720    5.7270    9.7450 C   0  0  0  0  0  0
   22.3930    5.3150    9.7020 C   0  0  0  0  0  0
   20.4720    6.0410   10.9660 C   0  0  0  0  0  0
   23.1210    5.2410   10.8760 C   0  0  0  0  0  0
   21.2030    5.9660   12.1460 C   0  0  0  0  0  0
   26.2610    5.9550   14.9110 C   0  0  0  0  0  0
   23.3440    5.4830   13.3490 C   0  0  0  0  0  0
   25.0140    6.6900   15.1170 N   0  0  3  0  0  0
   22.5290    5.5640   12.0830 C   0  0  0  0  0  0
   24.2280    7.0380   13.7130 S   0  0  0  0  0  0
   26.6420    5.1450   16.2600 B   0  0  0  0  0  0
   25.6699    3.4558   17.4804 H   0  0  0  0  0  0
   27.0208    5.4527   18.4814 H   0  0  0  0  0  0
   20.4980    5.8066    8.8218 H   0  0  0  0  0  0
   22.8556    5.0511    8.7510 H   0  0  0  0  0  0
   19.4260    6.3462   10.9941 H   0  0  0  0  0  0
   24.1645    4.9271   10.8494 H   0  0  0  0  0  0
   20.7433    6.2181   13.1017 H   0  0  0  0  0  0
   26.1349    5.2444   14.0809 H   0  0  0  0  0  0
   27.0678    6.6623   14.6688 H   0  0  0  0  0  0
   22.6806    5.2640   14.1987 H   0  0  0  0  0  0
   24.0926    4.6828   13.2526 H   0  0  0  0  0  0
   24.6073    6.8096   16.1320 H   0  0  0  0  0  0
  1 14  2  0  0  0
  2 14  2  0  0  0
  3 15  1  0  0  0
  3 16  1  0  0  0
  4 15  1  0  0  0
  4 17  1  0  0  0
  5  6  2  0  0  0
  5  7  1  0  0  0
  5 18  1  0  0  0
  6  8  1  0  0  0
  6 19  1  0  0  0
  7  9  2  0  0  0
  7 20  1  0  0  0
  8 13  2  0  0  0
  8 21  1  0  0  0
  9 13  1  0  0  0
  9 22  1  0  0  0
 10 12  1  0  0  0
 10 15  1  0  0  0
 10 23  1  0  0  0
 10 24  1  0  0  0
 11 13  1  0  0  0
 11 14  1  0  0  0
 11 25  1  0  0  0
 11 26  1  0  0  0
 12 14  1  0  0  0
 12 27  1  0  0  0
M  END
> <s_m_source_file>
../3o86_ligand.sdf

> <i_m_source_file_index>
1

> <s_epik_input>
W09IXUIoW09IXSlbQ0gyXVtOSF1TKD1PKSg9TylbQ0gyXWMxW2NIXVtjSF1bY0hdW2NIXVtjSF0x

> <s_epik_cmdline>
J2VwaWtfYXBwJywgJy1pbWFlJywgJ2xpZ2FuZF9wcm8ubWFlJywgJy1vbWFlJywgJ2xpZ2FuZF9wcmVwLm1hZScsICctbXMnLCAnMScsICctcGgnLCAnNycsICctcGh0JywgJzAuNScsICctbnQn

> <r_lp_tautomer_probability>
1

> <r_epik_Ionization_Penalty>
  0.0001

> <r_epik_Ionization_Penalty_Charging>
  0.0000

> <r_epik_Ionization_Penalty_Neutral>
  0.0001

> <r_epik_State_Penalty>
 -0.0000

> <r_epik_Charging_Adjusted_Penalty>
0

> <i_epik_Tot_Q>
0

> <i_epik_Tot_abs_Q>
0

> <s_epik_Chemistry_Notes>
This compound contains a Lewis acid (boronic acid) which adds nucleophiles to form tetrahedral complexes, lowering the experimental pKa

$$$$
