3o87_ligand
                    3D
 Schrodinger Suite 2020-3.
 29 29  0  0  1  0            999 V2000
   20.2640    3.4890    7.7590 O   0  5  0  0  0  0
   23.3110    7.5490   13.6990 O   0  0  0  0  0  0
   25.0880    6.4700   12.2740 O   0  0  0  0  0  0
   18.7330    4.5790    8.9100 O   0  0  0  0  0  0
   26.8370    5.5020   17.4030 O   0  0  0  0  0  0
   25.5960    3.5700   16.5190 O   0  0  0  0  0  0
   23.0260    4.2170   10.9780 C   0  0  0  0  0  0
   21.1230    5.0140   12.2490 C   0  0  0  0  0  0
   22.2100    4.0070    9.8720 C   0  0  0  0  0  0
   20.3140    4.8000   11.1390 C   0  0  0  0  0  0
   26.3370    5.3820   14.7750 C   0  0  0  0  0  0
   23.3120    4.8770   13.3970 C   0  0  0  0  0  0
   25.1090    6.1560   14.9400 N   0  0  3  0  0  0
   19.8850    4.1120    8.7760 C   0  0  0  0  0  0
   22.4750    4.7190   12.1550 C   0  0  0  0  0  0
   20.8590    4.3610    9.9370 C   0  0  0  0  0  0
   24.2830    6.4080   13.5320 S   0  0  0  0  0  0
   26.6460    4.6420   16.1840 B   0  0  0  0  0  0
   27.0483    5.0364   18.3770 H   0  0  0  0  0  0
   25.6816    2.9877   17.4483 H   0  0  0  0  0  0
   24.0908    3.9902   10.9245 H   0  0  0  0  0  0
   20.7030    5.4060   13.1753 H   0  0  0  0  0  0
   22.6202    3.5699    8.9616 H   0  0  0  0  0  0
   19.2411    4.9781   11.2114 H   0  0  0  0  0  0
   26.1978    4.6396   13.9754 H   0  0  0  0  0  0
   27.1632    6.0575   14.5083 H   0  0  0  0  0  0
   22.6608    4.8553   14.2832 H   0  0  0  0  0  0
   24.0393    4.0539   13.4562 H   0  0  0  0  0  0
   24.7258    6.3711   15.9484 H   0  0  0  0  0  0
  1 14  1  0  0  0
  2 17  2  0  0  0
  3 17  2  0  0  0
  4 14  2  0  0  0
  5 18  1  0  0  0
  5 19  1  0  0  0
  6 18  1  0  0  0
  6 20  1  0  0  0
  7  9  2  0  0  0
  7 15  1  0  0  0
  7 21  1  0  0  0
  8 10  1  0  0  0
  8 15  2  0  0  0
  8 22  1  0  0  0
  9 16  1  0  0  0
  9 23  1  0  0  0
 10 16  2  0  0  0
 10 24  1  0  0  0
 11 13  1  0  0  0
 11 18  1  0  0  0
 11 25  1  0  0  0
 11 26  1  0  0  0
 12 15  1  0  0  0
 12 17  1  0  0  0
 12 27  1  0  0  0
 12 28  1  0  0  0
 13 17  1  0  0  0
 13 29  1  0  0  0
 14 16  1  0  0  0
M  CHG  1   1  -1
M  END
> <s_m_source_file>
../3o87_ligand.sdf

> <i_m_source_file_index>
1

> <s_epik_input>
W09IXUMoPU8pYyhbY0hdW2NIXTEpW2NIXVtjSF1jMVtDSDJdUyg9TykoPU8pW05IXVtDSDJdQihbT0hdKVtPSF0=

> <s_epik_cmdline>
J2VwaWtfYXBwJywgJy1pbWFlJywgJ2xpZ2FuZF9wcm8ubWFlJywgJy1vbWFlJywgJ2xpZ2FuZF9wcmVwLm1hZScsICctbXMnLCAnMScsICctcGgnLCAnNycsICctcGh0JywgJzAuNScsICctbnQn

> <r_lp_tautomer_probability>
1

> <r_epik_Ionization_Penalty>
  0.0008

> <r_epik_Ionization_Penalty_Charging>
  0.0007

> <r_epik_Ionization_Penalty_Neutral>
  0.0001

> <r_epik_State_Penalty>
 -0.0000

> <r_epik_Charging_Adjusted_Penalty>
0.000681221990280585

> <i_epik_Tot_Q>
-1

> <i_epik_Tot_abs_Q>
1

> <s_epik_Chemistry_Notes>
This compound contains a Lewis acid (boronic acid) which adds nucleophiles to form tetrahedral complexes, lowering the experimental pKa

$$$$
