3o88_ligand
                    3D
 Schrodinger Suite 2020-3.
 42 43  0  0  1  0            999 V2000
   20.9500   10.9280   14.7930 O   0  5  0  0  0  0
   26.9750    5.4300   13.3830 O   0  0  0  0  0  0
   25.0350    3.7250   13.6890 O   0  0  0  0  0  0
   20.9500   10.5160   12.5980 O   0  0  0  0  0  0
   25.3710    4.8280   17.3760 O   0  0  0  0  0  0
   27.1040    6.5560   18.1360 O   0  0  0  0  0  0
   20.2720    5.5490   11.6010 C   0  0  0  0  0  0
   20.7990    6.3820   12.5840 C   0  0  0  0  0  0
   21.1510    4.8690   10.7590 C   0  0  0  0  0  0
   25.0250    9.7000   12.6570 C   0  0  0  0  0  0
   22.1780    6.5290   12.7170 C   0  0  0  0  0  0
   22.5300    5.0280   10.8850 C   0  0  0  0  0  0
   25.5520    9.0920   13.8050 C   0  0  0  0  0  0
   23.7070   10.1430   12.6730 C   0  0  0  0  0  0
   23.4660    9.3650   14.9530 C   0  0  0  0  0  0
   25.4340    8.2140   16.1280 C   0  0  0  0  0  0
   24.5310    6.0380   12.0350 C   0  0  0  0  0  0
   25.0220    6.0370   15.0310 N   0  0  3  0  0  0
   21.4980   10.5040   13.7270 C   0  0  0  0  0  0
   23.0680    5.8550   11.8650 C   0  0  0  0  0  0
   24.7990    8.9200   14.9650 C   0  0  0  0  0  0
   22.9240    9.9760   13.8140 C   0  0  0  0  0  0
   25.9790    6.8080   15.7950 C   0  0  2  0  0  0
   25.2680    5.4010   13.5770 S   0  0  0  0  0  0
   26.4160    5.8540   16.9830 B   0  0  0  0  0  0
   25.5765    4.1178   18.1905 H   0  0  0  0  0  0
   27.4444    5.9778   19.0077 H   0  0  0  0  0  0
   19.1940    5.4308   11.4918 H   0  0  0  0  0  0
   20.1292    6.9221   13.2532 H   0  0  0  0  0  0
   20.7544    4.2040    9.9918 H   0  0  0  0  0  0
   25.6393    9.8236   11.7651 H   0  0  0  0  0  0
   22.5736    7.1794   13.4971 H   0  0  0  0  0  0
   23.1963    4.4964   10.2056 H   0  0  0  0  0  0
   26.5843    8.7424   13.7898 H   0  0  0  0  0  0
   23.2846   10.6226   11.7900 H   0  0  0  0  0  0
   22.8463    9.2334   15.8400 H   0  0  0  0  0  0
   26.2815    8.8087   16.4996 H   0  0  0  0  0  0
   24.6926    8.0905   16.9312 H   0  0  0  0  0  0
   25.0618    5.5261   11.2188 H   0  0  0  0  0  0
   24.7714    7.1112   12.0124 H   0  0  0  0  0  0
   24.0858    5.7011   15.5009 H   0  0  0  0  0  0
   26.8500    7.0689   15.1759 H   0  0  0  0  0  0
  1 19  1  0  0  0
  2 24  2  0  0  0
  3 24  2  0  0  0
  4 19  2  0  0  0
  5 25  1  0  0  0
  5 26  1  0  0  0
  6 25  1  0  0  0
  6 27  1  0  0  0
  7  8  2  0  0  0
  7  9  1  0  0  0
  7 28  1  0  0  0
  8 11  1  0  0  0
  8 29  1  0  0  0
  9 12  2  0  0  0
  9 30  1  0  0  0
 10 13  2  0  0  0
 10 14  1  0  0  0
 10 31  1  0  0  0
 11 20  2  0  0  0
 11 32  1  0  0  0
 12 20  1  0  0  0
 12 33  1  0  0  0
 13 21  1  0  0  0
 13 34  1  0  0  0
 14 22  2  0  0  0
 14 35  1  0  0  0
 15 21  2  0  0  0
 15 22  1  0  0  0
 15 36  1  0  0  0
 16 21  1  0  0  0
 16 23  1  0  0  0
 16 37  1  0  0  0
 16 38  1  0  0  0
 17 20  1  0  0  0
 17 24  1  0  0  0
 17 39  1  0  0  0
 17 40  1  0  0  0
 18 23  1  0  0  0
 18 24  1  0  0  0
 18 41  1  0  0  0
 19 22  1  0  0  0
 23 25  1  0  0  0
 23 42  1  0  0  0
M  CHG  1   1  -1
M  END
> <s_m_source_file>
../3o88_ligand.sdf

> <i_m_source_file_index>
1

> <s_epik_input>
W09IXUMoPU8pYyhbY0hdMSlbY0hdW2NIXVtjSF1jMVtDSDJdW0NAQEhdKEIoW09IXSlbT0hdKVtOSF1TKD1PKSg9TylbQ0gyXWMyW2NIXVtjSF1bY0hdW2NIXVtjSF0y

> <s_epik_cmdline>
J2VwaWtfYXBwJywgJy1pbWFlJywgJ2xpZ2FuZF9wcm8ubWFlJywgJy1vbWFlJywgJ2xpZ2FuZF9wcmVwLm1hZScsICctbXMnLCAnMScsICctcGgnLCAnNycsICctcGh0JywgJzAuNScsICctbnQn

> <r_lp_tautomer_probability>
1

> <r_epik_Ionization_Penalty>
  0.0010

> <r_epik_Ionization_Penalty_Charging>
  0.0009

> <r_epik_Ionization_Penalty_Neutral>
  0.0001

> <r_epik_State_Penalty>
 -0.0000

> <r_epik_Charging_Adjusted_Penalty>
0.000911088743736798

> <i_epik_Tot_Q>
-1

> <i_epik_Tot_abs_Q>
1

> <s_epik_Chemistry_Notes>
This compound contains a Lewis acid (boronic acid) which adds nucleophiles to form tetrahedral complexes, lowering the experimental pKa

$$$$
