3o8p_ligand
                    3D
 Schrodinger Suite 2020-3.
 40 41  0  0  1  0            999 V2000
   -0.8030   -2.9520  -14.5390 C   0  0  0  0  0  0
    0.0310   -2.3730  -15.2310 O   0  0  0  0  0  0
   -2.1040   -3.0490  -14.8690 N   0  0  0  0  0  0
   -2.7360   -2.3890  -15.8820 C   0  0  0  0  0  0
   -4.0960   -2.0840  -15.7160 C   0  0  0  0  0  0
   -4.8160   -1.4230  -16.7190 C   0  0  0  0  0  0
   -4.1630   -1.0680  -17.9120 C   0  0  0  0  0  0
   -5.0820   -0.2270  -19.2070 Cl  0  0  0  0  0  0
   -2.8090   -1.3880  -18.0990 C   0  0  0  0  0  0
   -2.0950   -2.0430  -17.0800 C   0  0  0  0  0  0
   -0.4560   -3.5630  -13.3910 N   0  0  0  0  0  0
    0.7040   -3.3750  -12.7410 C   0  0  0  0  0  0
    1.4390   -2.2490  -12.3970 C   0  0  0  0  0  0
    2.5270   -2.7860  -11.7150 C   0  0  0  0  0  0
    2.4910   -4.1290  -11.5890 N   0  0  0  0  0  0
    1.3080   -4.4800  -12.2600 N   0  0  0  0  0  0
    1.0360   -5.9370  -12.2970 C   0  0  0  0  0  0
    3.0350   -1.0780  -10.0050 C   0  0  0  0  0  0
    4.2430   -1.0760  -12.2520 C   0  0  0  0  0  0
    4.7300   -2.7900  -10.5330 C   0  0  0  0  0  0
    3.6270   -1.9280  -11.1360 C   0  0  0  0  0  0
   -2.7686   -3.7129  -14.2967 H   0  0  0  0  0  0
   -4.5999   -2.3662  -14.7915 H   0  0  0  0  0  0
   -5.8704   -1.1866  -16.5762 H   0  0  0  0  0  0
   -2.3114   -1.1289  -19.0336 H   0  0  0  0  0  0
   -1.0411   -2.2822  -17.2217 H   0  0  0  0  0  0
   -1.1461   -4.2768  -12.9175 H   0  0  0  0  0  0
    1.2186   -1.2027  -12.6086 H   0  0  0  0  0  0
    0.0962   -6.1209  -12.8382 H   0  0  0  0  0  0
    0.9484   -6.3198  -11.2695 H   0  0  0  0  0  0
    1.8616   -6.4512  -12.8108 H   0  0  0  0  0  0
    2.2328   -0.4412  -10.4063 H   0  0  0  0  0  0
    3.8231   -0.4452   -9.5709 H   0  0  0  0  0  0
    2.6245   -1.7380   -9.2266 H   0  0  0  0  0  0
    3.4639   -0.4439  -12.7032 H   0  0  0  0  0  0
    4.6722   -1.7345  -13.0215 H   0  0  0  0  0  0
    5.0348   -0.4383  -11.8319 H   0  0  0  0  0  0
    4.3108   -3.4116   -9.7280 H   0  0  0  0  0  0
    5.5188   -2.1422  -10.1231 H   0  0  0  0  0  0
    5.1563   -3.4383  -11.3127 H   0  0  0  0  0  0
  1  2  2  0  0  0
  1  3  1  0  0  0
  1 11  1  0  0  0
  3  4  1  0  0  0
  3 22  1  0  0  0
  4  5  2  0  0  0
  4 10  1  0  0  0
  5  6  1  0  0  0
  5 23  1  0  0  0
  6  7  2  0  0  0
  6 24  1  0  0  0
  7  8  1  0  0  0
  7  9  1  0  0  0
  9 10  2  0  0  0
  9 25  1  0  0  0
 10 26  1  0  0  0
 11 12  1  0  0  0
 11 27  1  0  0  0
 12 13  2  0  0  0
 12 16  1  0  0  0
 13 14  1  0  0  0
 13 28  1  0  0  0
 14 15  2  0  0  0
 14 21  1  0  0  0
 15 16  1  0  0  0
 16 17  1  0  0  0
 17 29  1  0  0  0
 17 30  1  0  0  0
 17 31  1  0  0  0
 18 21  1  0  0  0
 18 32  1  0  0  0
 18 33  1  0  0  0
 18 34  1  0  0  0
 19 21  1  0  0  0
 19 35  1  0  0  0
 19 36  1  0  0  0
 19 37  1  0  0  0
 20 21  1  0  0  0
 20 38  1  0  0  0
 20 39  1  0  0  0
 20 40  1  0  0  0
M  END
> <s_m_source_file>
../3o8p_ligand.sdf

> <i_m_source_file_index>
1

> <s_epik_input>
W0NIM11uMW5jKEMoW0NIM10pKFtDSDNdKVtDSDNdKVtjSF1jMVtOSF1DKD1PKVtOSF1jMltjSF1bY0hdYyhDbClbY0hdW2NIXTI=

> <s_epik_cmdline>
J2VwaWtfYXBwJywgJy1pbWFlJywgJ2xpZ2FuZF9wcm8ubWFlJywgJy1vbWFlJywgJ2xpZ2FuZF9wcmVwLm1hZScsICctbXMnLCAnMScsICctcGgnLCAnNycsICctcGh0JywgJzAuNScsICctbnQn

> <r_lp_tautomer_probability>
1

> <r_epik_Ionization_Penalty>
  0.0001

> <r_epik_Ionization_Penalty_Charging>
  0.0000

> <r_epik_Ionization_Penalty_Neutral>
  0.0001

> <r_epik_State_Penalty>
 -0.0000

> <r_epik_Charging_Adjusted_Penalty>
0

> <i_epik_Tot_Q>
0

> <i_epik_Tot_abs_Q>
0

$$$$
