3o95_ligand
                    3D
 Schrodinger Suite 2020-3.
 56 57  0  0  1  0            999 V2000
   16.3760  -35.1240   17.8240 C   0  0  0  0  0  0
   15.5890  -35.9600   18.8110 C   0  0  0  0  0  0
   14.3630  -36.6340   18.1790 C   0  0  0  0  0  0
   14.7360  -37.4110   16.9300 C   0  0  0  0  0  0
   13.8060  -37.6270   19.1850 C   0  0  0  0  0  0
   17.7000  -33.4600   16.0500 C   0  0  0  0  0  0
   19.2310  -31.4100   15.5910 C   0  0  0  0  0  0
   19.4490  -35.2450   15.6700 C   0  0  0  0  0  0
   20.6650  -34.6510   16.0060 C   0  0  0  0  0  0
   21.8440  -35.1330   15.4530 C   0  0  0  0  0  0
   23.0910  -36.7040   13.9690 C   0  0  0  0  0  0
   19.4270  -36.3360   14.7900 C   0  0  0  0  0  0
   19.0430  -30.9200   16.7280 O   0  5  0  0  0  0
   20.1080  -30.9750   14.8140 O   0  0  0  0  0  0
   18.3860  -32.5470   15.0540 C   0  0  0  0  0  0
   16.5290  -33.0540   16.6830 C   0  0  0  0  0  0
   15.8960  -31.7010   16.4480 C   0  0  0  0  0  0
   14.3940  -31.8090   16.6390 C   0  0  0  0  0  0
   15.9190  -33.8900   17.5520 N   0  0  0  0  0  0
   13.2610  -35.6570   17.8000 C   0  0  0  0  0  0
   17.5330  -35.5690   17.2080 C   0  0  0  0  0  0
   18.0690  -36.9520   17.5270 C   0  0  0  0  0  0
   19.3940  -36.8510   18.1140 N   0  3  0  0  0  0
   18.1930  -34.7390   16.3030 C   0  0  0  0  0  0
   20.6030  -36.8170   14.2330 C   0  0  0  0  0  0
   21.8090  -36.2050   14.5690 C   0  0  0  0  0  0
   16.2348  -36.7525   19.2171 H   0  0  0  0  0  0
   15.2334  -35.3201   19.6320 H   0  0  0  0  0  0
   15.5337  -38.1295   17.1697 H   0  0  0  0  0  0
   15.0907  -36.7137   16.1567 H   0  0  0  0  0  0
   13.8539  -37.9530   16.5583 H   0  0  0  0  0  0
   14.5927  -38.3414   19.4692 H   0  0  0  0  0  0
   12.9622  -38.1706   18.7350 H   0  0  0  0  0  0
   13.4598  -37.0879   20.0792 H   0  0  0  0  0  0
   20.6900  -33.8112   16.7004 H   0  0  0  0  0  0
   22.7966  -34.6708   15.7121 H   0  0  0  0  0  0
   23.9312  -36.1037   14.3479 H   0  0  0  0  0  0
   23.0419  -36.6158   12.8736 H   0  0  0  0  0  0
   23.2394  -37.7582   14.2457 H   0  0  0  0  0  0
   18.4777  -36.8105   14.5413 H   0  0  0  0  0  0
   19.0696  -33.1372   14.4260 H   0  0  0  0  0  0
   17.6296  -32.0634   14.4184 H   0  0  0  0  0  0
   16.3068  -30.9746   17.1647 H   0  0  0  0  0  0
   16.1135  -31.3675   15.4226 H   0  0  0  0  0  0
   13.9311  -30.8258   16.4686 H   0  0  0  0  0  0
   14.1779  -32.1432   17.6645 H   0  0  0  0  0  0
   13.9846  -32.5362   15.9224 H   0  0  0  0  0  0
   13.6497  -34.9307   17.0711 H   0  0  0  0  0  0
   12.9169  -35.1255   18.6995 H   0  0  0  0  0  0
   12.4193  -36.2082   17.3553 H   0  0  0  0  0  0
   17.3957  -37.4508   18.2396 H   0  0  0  0  0  0
   18.1282  -37.5446   16.6022 H   0  0  0  0  0  0
   19.7723  -37.8587   18.3409 H   0  0  0  0  0  0
   19.3402  -36.2620   19.0415 H   0  0  0  0  0  0
   20.0728  -36.3558   17.4040 H   0  0  0  0  0  0
   20.5839  -37.6607   13.5431 H   0  0  0  0  0  0
  1  2  1  0  0  0
  1 19  2  0  0  0
  1 21  1  0  0  0
  2  3  1  0  0  0
  2 27  1  0  0  0
  2 28  1  0  0  0
  3  4  1  0  0  0
  3  5  1  0  0  0
  3 20  1  0  0  0
  4 29  1  0  0  0
  4 30  1  0  0  0
  4 31  1  0  0  0
  5 32  1  0  0  0
  5 33  1  0  0  0
  5 34  1  0  0  0
  6 15  1  0  0  0
  6 16  2  0  0  0
  6 24  1  0  0  0
  7 13  1  0  0  0
  7 14  2  0  0  0
  7 15  1  0  0  0
  8  9  2  0  0  0
  8 12  1  0  0  0
  8 24  1  0  0  0
  9 10  1  0  0  0
  9 35  1  0  0  0
 10 26  2  0  0  0
 10 36  1  0  0  0
 11 26  1  0  0  0
 11 37  1  0  0  0
 11 38  1  0  0  0
 11 39  1  0  0  0
 12 25  2  0  0  0
 12 40  1  0  0  0
 15 41  1  0  0  0
 15 42  1  0  0  0
 16 17  1  0  0  0
 16 19  1  0  0  0
 17 18  1  0  0  0
 17 43  1  0  0  0
 17 44  1  0  0  0
 18 45  1  0  0  0
 18 46  1  0  0  0
 18 47  1  0  0  0
 20 48  1  0  0  0
 20 49  1  0  0  0
 20 50  1  0  0  0
 21 22  1  0  0  0
 21 24  2  0  0  0
 22 23  1  0  0  0
 22 51  1  0  0  0
 22 52  1  0  0  0
 23 53  1  0  0  0
 23 54  1  0  0  0
 23 55  1  0  0  0
 25 26  1  0  0  0
 25 56  1  0  0  0
M  CHG  2  13  -1  23   1
M  END
> <s_m_source_file>
../3o95_ligand.sdf

> <i_m_source_file_index>
1

> <s_epik_input>
W0NIM11DKFtDSDNdKShbQ0gzXSlbQ0gyXWMxbmMoW0NIMl1bQ0gzXSljKFtDSDJdQyg9TylbT0hdKWMoYzFbQ0gyXVtOSDMrXSktYzJbY0hdW2NIXWMoW0NIM10pW2NIXVtjSF0y

> <s_epik_cmdline>
J2VwaWtfYXBwJywgJy1pbWFlJywgJ2xpZ2FuZF9wcm8ubWFlJywgJy1vbWFlJywgJ2xpZ2FuZF9wcmVwLm1hZScsICctbXMnLCAnMScsICctcGgnLCAnNycsICctcGh0JywgJzAuNScsICctbnQn

> <r_lp_tautomer_probability>
1

> <r_epik_Ionization_Penalty>
  0.2632

> <r_epik_Ionization_Penalty_Charging>
  0.0481

> <r_epik_Ionization_Penalty_Neutral>
  0.2150

> <r_epik_State_Penalty>
 -0.0000

> <r_epik_Charging_Adjusted_Penalty>
0.0481421036526046

> <i_epik_Tot_Q>
0

> <i_epik_Tot_abs_Q>
2

$$$$
