3o9a_ligand
                    3D
 Schrodinger Suite 2020-3.
 80 83  0  0  1  0            999 V2000
   15.2640   36.8980   18.8620 C   0  0  0  0  0  0
   14.9130   35.5430   18.5380 O   0  0  0  0  0  0
   15.6430   34.7940   17.6380 C   0  0  0  0  0  0
   16.6690   35.3650   16.8740 C   0  0  0  0  0  0
   17.4010   34.5810   15.9790 C   0  0  0  0  0  0
   17.1500   33.2230   15.8090 C   0  0  0  0  0  0
   16.1150   32.6610   16.5710 C   0  0  0  0  0  0
   15.3780   33.4320   17.4870 C   0  0  0  0  0  0
   18.0510   32.3340   14.7750 S   0  0  0  0  0  0
   17.2730   31.2520   14.2660 O   0  0  0  0  0  0
   18.5690   33.1480   13.6970 O   0  0  0  0  0  0
   19.3640   31.7370   15.5100 N   0  0  1  0  0  0
   20.0780   32.7780   16.2950 C   0  0  0  0  0  0
   21.5800   32.4850   16.3810 C   0  0  1  0  0  0
   22.2640   32.3920   15.0110 C   0  0  0  0  0  0
   22.2460   33.5250   17.2850 C   0  0  0  0  0  0
   19.0910   30.5110   16.2930 C   0  0  0  0  0  0
   19.9380   29.3640   15.7330 C   0  0  1  0  0  0
   22.1360   34.9420   16.7850 C   0  0  0  0  0  0
   19.8840   28.2340   16.6120 O   0  0  0  0  0  0
   19.5400   28.9130   14.3330 C   0  0  1  0  0  0
   20.6230   28.1000   13.8510 N   0  0  0  0  0  0
   21.4740   28.4390   12.8860 C   0  0  0  0  0  0
   21.5030   29.4720   12.2360 O   0  0  0  0  0  0
   22.4340   27.4000   12.6390 O   0  0  0  0  0  0
   23.2840   27.5150   11.5100 C   0  0  1  0  0  0
   24.6090   26.9590   11.9810 C   0  0  0  0  0  0
   24.4480   25.5390   11.8700 O   0  0  0  0  0  0
   23.5370   25.2630   10.8020 C   0  0  1  0  0  0
   22.5090   24.3610   11.2120 O   0  0  0  0  0  0
   21.2220   25.0020   11.1960 C   0  0  0  0  0  0
   21.3860   26.2250   10.3070 C   0  0  0  0  0  0
   22.8660   26.5640   10.4090 C   0  0  1  0  0  0
   18.2250   28.1220   14.2440 C   0  0  0  0  0  0
   18.1390   26.4190   12.3770 C   0  0  0  0  0  0
   17.9430   26.0680   11.0550 C   0  0  0  0  0  0
   17.5910   27.0290   10.1290 C   0  0  0  0  0  0
   17.4440   28.3460   10.5230 C   0  0  0  0  0  0
   17.6280   28.6950   11.8560 C   0  0  0  0  0  0
   17.9870   27.7390   12.7890 C   0  0  0  0  0  0
   14.5484   37.2966   19.5962 H   0  0  0  0  0  0
   15.2344   37.5125   17.9501 H   0  0  0  0  0  0
   16.2780   36.9223   19.2878 H   0  0  0  0  0  0
   16.8972   36.4257   16.9783 H   0  0  0  0  0  0
   18.1942   35.0480   15.3952 H   0  0  0  0  0  0
   15.8771   31.6041   16.4504 H   0  0  0  0  0  0
   14.5949   32.9632   18.0829 H   0  0  0  0  0  0
   19.9414   33.7578   15.8141 H   0  0  0  0  0  0
   19.6707   32.8108   17.3163 H   0  0  0  0  0  0
   21.7024   31.4863   16.8256 H   0  0  0  0  0  0
   21.7539   31.6351   14.3971 H   0  0  0  0  0  0
   23.3175   32.1055   15.1458 H   0  0  0  0  0  0
   22.2111   33.3687   14.5077 H   0  0  0  0  0  0
   21.7793   33.4979   18.2807 H   0  0  0  0  0  0
   23.3185   33.2983   17.3765 H   0  0  0  0  0  0
   19.3511   30.6840   17.3477 H   0  0  0  0  0  0
   18.0236   30.2565   16.2156 H   0  0  0  0  0  0
   20.9809   29.7124   15.7017 H   0  0  0  0  0  0
   22.6385   35.6199   17.4907 H   0  0  0  0  0  0
   21.0750   35.2201   16.7018 H   0  0  0  0  0  0
   22.6142   35.0205   15.7975 H   0  0  0  0  0  0
   20.1381   28.3520   17.6757 H   0  0  0  0  0  0
   19.4123   29.8001   13.6952 H   0  0  0  0  0  0
   20.8011   27.1061   14.2874 H   0  0  0  0  0  0
   23.2471   28.5658   11.1867 H   0  0  0  0  0  0
   25.4154   27.3365   11.3351 H   0  0  0  0  0  0
   24.7916   27.2757   13.0185 H   0  0  0  0  0  0
   24.1144   24.7684   10.0070 H   0  0  0  0  0  0
   20.4718   24.3080   10.7890 H   0  0  0  0  0  0
   20.9410   25.2859   12.2209 H   0  0  0  0  0  0
   21.0901   25.9727    9.2780 H   0  0  0  0  0  0
   20.7489   27.0394   10.6825 H   0  0  0  0  0  0
   23.1345   27.0372    9.4530 H   0  0  0  0  0  0
   18.2997   27.2156   14.8628 H   0  0  0  0  0  0
   17.3959   28.7468   14.6076 H   0  0  0  0  0  0
   18.4152   25.6548   13.1035 H   0  0  0  0  0  0
   18.0665   25.0309   10.7431 H   0  0  0  0  0  0
   17.4290   26.7498    9.0879 H   0  0  0  0  0  0
   17.1843   29.1094    9.7897 H   0  0  0  0  0  0
   17.4883   29.7299   12.1684 H   0  0  0  0  0  0
  1  2  1  0  0  0
  1 41  1  0  0  0
  1 42  1  0  0  0
  1 43  1  0  0  0
  2  3  1  0  0  0
  3  4  2  0  0  0
  3  8  1  0  0  0
  4  5  1  0  0  0
  4 44  1  0  0  0
  5  6  2  0  0  0
  5 45  1  0  0  0
  6  7  1  0  0  0
  6  9  1  0  0  0
  7  8  2  0  0  0
  7 46  1  0  0  0
  8 47  1  0  0  0
  9 10  2  0  0  0
  9 11  2  0  0  0
  9 12  1  0  0  0
 12 13  1  0  0  0
 12 17  1  0  0  0
 13 14  1  0  0  0
 13 48  1  0  0  0
 13 49  1  0  0  0
 14 15  1  0  0  0
 14 16  1  0  0  0
 14 50  1  0  0  0
 15 51  1  0  0  0
 15 52  1  0  0  0
 15 53  1  0  0  0
 16 19  1  0  0  0
 16 54  1  0  0  0
 16 55  1  0  0  0
 17 18  1  0  0  0
 17 56  1  0  0  0
 17 57  1  0  0  0
 18 20  1  0  0  0
 18 21  1  0  0  0
 18 58  1  0  0  0
 19 59  1  0  0  0
 19 60  1  0  0  0
 19 61  1  0  0  0
 20 62  1  0  0  0
 21 22  1  0  0  0
 21 34  1  0  0  0
 21 63  1  0  0  0
 22 23  1  0  0  0
 22 64  1  0  0  0
 23 24  2  0  0  0
 23 25  1  0  0  0
 25 26  1  0  0  0
 26 27  1  0  0  0
 26 33  1  0  0  0
 26 65  1  0  0  0
 27 28  1  0  0  0
 27 66  1  0  0  0
 27 67  1  0  0  0
 28 29  1  0  0  0
 29 30  1  0  0  0
 29 33  1  0  0  0
 29 68  1  0  0  0
 30 31  1  0  0  0
 31 32  1  0  0  0
 31 69  1  0  0  0
 31 70  1  0  0  0
 32 33  1  0  0  0
 32 71  1  0  0  0
 32 72  1  0  0  0
 33 73  1  0  0  0
 34 40  1  0  0  0
 34 74  1  0  0  0
 34 75  1  0  0  0
 35 36  2  0  0  0
 35 40  1  0  0  0
 35 76  1  0  0  0
 36 37  1  0  0  0
 36 77  1  0  0  0
 37 38  2  0  0  0
 37 78  1  0  0  0
 38 39  1  0  0  0
 38 79  1  0  0  0
 39 40  2  0  0  0
 39 80  1  0  0  0
M  END
> <s_m_source_file>
../3o9a_ligand.sdf

> <i_m_source_file_index>
1

> <s_epik_input>
W0NIM11PYzFbY0hdW2NIXWMoW2NIXVtjSF0xKVMoPU8pKD1PKU4oW0NIMl1bQ0BASF0oW0NIM10pW0NIMl1bQ0gzXSlbQ0gyXVtDQEBIXShbT0hdKVtDQEBIXShbTkhdQyg9TylPW0NAQEhdKFtDSDJdTzIpW0NAQEhdKFtDQEBIXTIzKVtDSDJdW0NIMl1PMylbQ0gyXWM0W2NIXVtjSF1bY0hdW2NIXVtjSF00

> <s_epik_cmdline>
J2VwaWtfYXBwJywgJy1pbWFlJywgJ2xpZ2FuZF9wcm8ubWFlJywgJy1vbWFlJywgJ2xpZ2FuZF9wcmVwLm1hZScsICctbXMnLCAnMScsICctcGgnLCAnNycsICctcGh0JywgJzAuNScsICctbnQn

> <r_lp_tautomer_probability>
1

> <r_epik_Ionization_Penalty>
  0.0000

> <r_epik_Ionization_Penalty_Charging>
  0.0000

> <r_epik_Ionization_Penalty_Neutral>
  0.0000

> <r_epik_State_Penalty>
 -0.0000

> <r_epik_Charging_Adjusted_Penalty>
0

> <i_epik_Tot_Q>
0

> <i_epik_Tot_abs_Q>
0

> <s_epik_Chemistry_Notes>
This compound has an ester and may undergo hydrolysis at high or low pH. This compound contains an acetal/aminal-like group ( X-CH(R)-Y where X, Y are N, S, or O) that may be acid/base labile, releasing an aldehyde.

$$$$
