3o9b_ligand
                    3D
 Schrodinger Suite 2020-3.
 80 83  0  0  1  0            999 V2000
   14.4380   35.8720   18.1600 C   0  0  0  0  0  0
   14.8780   35.8530   19.5200 O   0  0  0  0  0  0
   15.3400   34.9860   17.3250 C   0  0  0  0  0  0
   15.1730   33.6060   17.2980 C   0  0  0  0  0  0
   16.0200   32.8070   16.5100 C   0  0  0  0  0  0
   17.0480   33.3780   15.7560 C   0  0  0  0  0  0
   17.2020   34.7690   15.8050 C   0  0  0  0  0  0
   16.3580   35.5640   16.5770 C   0  0  0  0  0  0
   18.0590   32.4580   14.8510 S   0  0  0  0  0  0
   18.7050   33.2860   13.8770 O   0  0  0  0  0  0
   17.3100   31.3870   14.2920 O   0  0  0  0  0  0
   19.2950   31.8410   15.7160 N   0  0  1  0  0  0
   20.0050   32.8810   16.5120 C   0  0  0  0  0  0
   21.5080   32.6080   16.5480 C   0  0  1  0  0  0
   22.1360   32.5700   15.1530 C   0  0  0  0  0  0
   22.1890   33.6270   17.4650 C   0  0  0  0  0  0
   18.9830   30.5720   16.4190 C   0  0  0  0  0  0
   19.9020   29.4720   15.8520 C   0  0  1  0  0  0
   22.0610   35.0490   16.9680 C   0  0  0  0  0  0
   19.8240   28.3060   16.6990 O   0  0  0  0  0  0
   19.5720   29.0820   14.4110 C   0  0  1  0  0  0
   20.6510   28.2500   13.9230 N   0  0  0  0  0  0
   21.5330   28.6230   13.0110 C   0  0  0  0  0  0
   21.6000   29.6810   12.4120 O   0  0  0  0  0  0
   22.5140   27.6090   12.7640 O   0  0  0  0  0  0
   23.3400   27.7570   11.6190 C   0  0  1  0  0  0
   24.6600   27.1610   12.0530 C   0  0  0  0  0  0
   24.4580   25.7540   11.8940 O   0  0  0  0  0  0
   23.5610   25.5260   10.8110 C   0  0  1  0  0  0
   22.5520   24.5950   11.1860 O   0  0  0  0  0  0
   21.2730   25.2420   11.2340 C   0  0  0  0  0  0
   21.3980   26.5350   10.4380 C   0  0  0  0  0  0
   22.8850   26.8470   10.5100 C   0  0  1  0  0  0
   18.2660   28.2930   14.2550 C   0  0  0  0  0  0
   17.7190   28.8950   11.8580 C   0  0  0  0  0  0
   17.5150   28.5510   10.5250 C   0  0  0  0  0  0
   17.5970   27.2270   10.1230 C   0  0  0  0  0  0
   17.8940   26.2620   11.0550 C   0  0  0  0  0  0
   18.1060   26.5940   12.3890 C   0  0  0  0  0  0
   18.0280   27.9170   12.8070 C   0  0  0  0  0  0
   13.4044   35.4998   18.1038 H   0  0  0  0  0  0
   14.4782   36.9020   17.7759 H   0  0  0  0  0  0
   14.3422   36.4410   20.2797 H   0  0  0  0  0  0
   14.3834   33.1423   17.8893 H   0  0  0  0  0  0
   15.8725   31.7273   16.4871 H   0  0  0  0  0  0
   17.9981   35.2390   15.2276 H   0  0  0  0  0  0
   16.4970   36.6450   16.5943 H   0  0  0  0  0  0
   19.8357   33.8688   16.0586 H   0  0  0  0  0  0
   19.6205   32.8799   17.5426 H   0  0  0  0  0  0
   21.6639   31.6005   16.9610 H   0  0  0  0  0  0
   21.6128   31.8251   14.5355 H   0  0  0  0  0  0
   23.1981   32.2963   15.2364 H   0  0  0  0  0  0
   22.0485   33.5613   14.6844 H   0  0  0  0  0  0
   21.7344   33.5812   18.4656 H   0  0  0  0  0  0
   23.2617   33.3947   17.5387 H   0  0  0  0  0  0
   19.1617   30.6966   17.4972 H   0  0  0  0  0  0
   17.9283   30.3090   16.2502 H   0  0  0  0  0  0
   20.9421   29.8294   15.8732 H   0  0  0  0  0  0
   22.5688   35.7291   17.6678 H   0  0  0  0  0  0
   20.9969   35.3195   16.9008 H   0  0  0  0  0  0
   22.5242   35.1330   15.9738 H   0  0  0  0  0  0
   20.0309   28.3936   17.7758 H   0  0  0  0  0  0
   19.4949   30.0031   13.8146 H   0  0  0  0  0  0
   20.7790   27.2299   14.3141 H   0  0  0  0  0  0
   23.3151   28.8148   11.3184 H   0  0  0  0  0  0
   25.4649   27.5443   11.4086 H   0  0  0  0  0  0
   24.8625   27.4399   13.0976 H   0  0  0  0  0  0
   24.1275   25.0817    9.9793 H   0  0  0  0  0  0
   20.5122   24.5837   10.7893 H   0  0  0  0  0  0
   21.0082   25.4537   12.2805 H   0  0  0  0  0  0
   21.0532   26.3658    9.4072 H   0  0  0  0  0  0
   20.7813   27.3156   10.9074 H   0  0  0  0  0  0
   23.1357   27.3562    9.5677 H   0  0  0  0  0  0
   18.3203   27.3720   14.8540 H   0  0  0  0  0  0
   17.4226   28.9075   14.6029 H   0  0  0  0  0  0
   17.6369   29.9377   12.1648 H   0  0  0  0  0  0
   17.2896   29.3268    9.7933 H   0  0  0  0  0  0
   17.4281   26.9549    9.0811 H   0  0  0  0  0  0
   17.9646   25.2197   10.7440 H   0  0  0  0  0  0
   18.3350   25.8108   13.1117 H   0  0  0  0  0  0
  1  2  1  0  0  0
  1  3  1  0  0  0
  1 41  1  0  0  0
  1 42  1  0  0  0
  2 43  1  0  0  0
  3  4  2  0  0  0
  3  8  1  0  0  0
  4  5  1  0  0  0
  4 44  1  0  0  0
  5  6  2  0  0  0
  5 45  1  0  0  0
  6  7  1  0  0  0
  6  9  1  0  0  0
  7  8  2  0  0  0
  7 46  1  0  0  0
  8 47  1  0  0  0
  9 10  2  0  0  0
  9 11  2  0  0  0
  9 12  1  0  0  0
 12 13  1  0  0  0
 12 17  1  0  0  0
 13 14  1  0  0  0
 13 48  1  0  0  0
 13 49  1  0  0  0
 14 15  1  0  0  0
 14 16  1  0  0  0
 14 50  1  0  0  0
 15 51  1  0  0  0
 15 52  1  0  0  0
 15 53  1  0  0  0
 16 19  1  0  0  0
 16 54  1  0  0  0
 16 55  1  0  0  0
 17 18  1  0  0  0
 17 56  1  0  0  0
 17 57  1  0  0  0
 18 20  1  0  0  0
 18 21  1  0  0  0
 18 58  1  0  0  0
 19 59  1  0  0  0
 19 60  1  0  0  0
 19 61  1  0  0  0
 20 62  1  0  0  0
 21 22  1  0  0  0
 21 34  1  0  0  0
 21 63  1  0  0  0
 22 23  1  0  0  0
 22 64  1  0  0  0
 23 24  2  0  0  0
 23 25  1  0  0  0
 25 26  1  0  0  0
 26 27  1  0  0  0
 26 33  1  0  0  0
 26 65  1  0  0  0
 27 28  1  0  0  0
 27 66  1  0  0  0
 27 67  1  0  0  0
 28 29  1  0  0  0
 29 30  1  0  0  0
 29 33  1  0  0  0
 29 68  1  0  0  0
 30 31  1  0  0  0
 31 32  1  0  0  0
 31 69  1  0  0  0
 31 70  1  0  0  0
 32 33  1  0  0  0
 32 71  1  0  0  0
 32 72  1  0  0  0
 33 73  1  0  0  0
 34 40  1  0  0  0
 34 74  1  0  0  0
 34 75  1  0  0  0
 35 36  2  0  0  0
 35 40  1  0  0  0
 35 76  1  0  0  0
 36 37  1  0  0  0
 36 77  1  0  0  0
 37 38  2  0  0  0
 37 78  1  0  0  0
 38 39  1  0  0  0
 38 79  1  0  0  0
 39 40  2  0  0  0
 39 80  1  0  0  0
M  END
> <s_m_source_file>
../3o9b_ligand.sdf

> <i_m_source_file_index>
1

> <s_epik_input>
W09IXVtDSDJdYzFbY0hdW2NIXWMoW2NIXVtjSF0xKVMoPU8pKD1PKU4oW0NIMl1bQ0BASF0oW0NIM10pW0NIMl1bQ0gzXSlbQ0gyXVtDQEBIXShbT0hdKVtDQEBIXShbTkhdQyg9TylPW0NAQEhdKFtDSDJdTzIpW0NAQEhdKFtDQEBIXTIzKVtDSDJdW0NIMl1PMylbQ0gyXWM0W2NIXVtjSF1bY0hdW2NIXVtjSF00

> <s_epik_cmdline>
J2VwaWtfYXBwJywgJy1pbWFlJywgJ2xpZ2FuZF9wcm8ubWFlJywgJy1vbWFlJywgJ2xpZ2FuZF9wcmVwLm1hZScsICctbXMnLCAnMScsICctcGgnLCAnNycsICctcGh0JywgJzAuNScsICctbnQn

> <r_lp_tautomer_probability>
1

> <r_epik_Ionization_Penalty>
  0.0000

> <r_epik_Ionization_Penalty_Charging>
  0.0000

> <r_epik_Ionization_Penalty_Neutral>
  0.0000

> <r_epik_State_Penalty>
 -0.0000

> <r_epik_Charging_Adjusted_Penalty>
0

> <i_epik_Tot_Q>
0

> <i_epik_Tot_abs_Q>
0

> <s_epik_Chemistry_Notes>
This compound has an ester and may undergo hydrolysis at high or low pH. This compound contains an acetal/aminal-like group ( X-CH(R)-Y where X, Y are N, S, or O) that may be acid/base labile, releasing an aldehyde.

$$$$
