3o9c_ligand
                    3D
 Schrodinger Suite 2020-3.
 79 83  0  0  1  0            999 V2000
   15.6860   36.7420   18.4310 C   0  0  0  0  0  0
   15.0120   35.4700   18.5970 O   0  0  0  0  0  0
   15.6050   34.5810   17.7220 C   0  0  0  0  0  0
   16.6340   36.5460   17.3740 O   0  0  0  0  0  0
   16.5950   35.2180   17.0020 C   0  0  0  0  0  0
   17.3370   34.5430   16.0350 C   0  0  0  0  0  0
   17.1220   33.1740   15.8070 C   0  0  0  0  0  0
   16.1140   32.5460   16.5500 C   0  0  0  0  0  0
   15.3500   33.2310   17.5120 C   0  0  0  0  0  0
   18.0290   32.3410   14.7480 S   0  0  0  0  0  0
   17.3140   31.2170   14.2430 O   0  0  0  0  0  0
   18.5200   33.2070   13.6830 O   0  0  0  0  0  0
   19.3370   31.7340   15.4920 N   0  0  1  0  0  0
   20.1080   32.7450   16.2580 C   0  0  0  0  0  0
   21.6060   32.4410   16.3620 C   0  0  1  0  0  0
   22.3340   32.4190   15.0120 C   0  0  0  0  0  0
   22.2570   33.4460   17.3190 C   0  0  0  0  0  0
   19.0540   30.5120   16.2740 C   0  0  0  0  0  0
   19.9560   29.3810   15.7650 C   0  0  1  0  0  0
   22.0590   34.8880   16.9170 C   0  0  0  0  0  0
   19.9420   28.2620   16.6590 O   0  0  0  0  0  0
   19.5790   28.9150   14.3640 C   0  0  1  0  0  0
   20.6490   28.0800   13.8710 N   0  0  0  0  0  0
   21.4910   28.4340   12.9130 C   0  0  0  0  0  0
   21.5540   29.4800   12.2750 O   0  0  0  0  0  0
   22.4540   27.4050   12.6720 O   0  0  0  0  0  0
   23.2520   27.5490   11.5030 C   0  0  1  0  0  0
   24.5770   26.9610   11.9210 C   0  0  0  0  0  0
   24.3060   25.5610   11.8970 O   0  0  0  0  0  0
   23.4600   25.2900   10.7860 C   0  0  1  0  0  0
   22.4810   24.3360   11.1700 O   0  0  0  0  0  0
   21.2020   24.9680   11.2500 C   0  0  0  0  0  0
   21.3050   26.2320   10.3990 C   0  0  0  0  0  0
   22.7810   26.5960   10.4180 C   0  0  1  0  0  0
   18.2720   28.1290   14.2720 C   0  0  0  0  0  0
   18.1060   26.3830   12.4390 C   0  0  0  0  0  0
   17.8720   26.0170   11.1200 C   0  0  0  0  0  0
   17.5120   26.9650   10.1800 C   0  0  0  0  0  0
   17.4180   28.2930   10.5560 C   0  0  0  0  0  0
   17.6510   28.6580   11.8820 C   0  0  0  0  0  0
   18.0000   27.7140   12.8360 C   0  0  0  0  0  0
   14.9495   37.5157   18.1683 H   0  0  0  0  0  0
   16.1871   37.0169   19.3709 H   0  0  0  0  0  0
   18.0869   35.0793   15.4535 H   0  0  0  0  0  0
   15.9146   31.4886   16.3764 H   0  0  0  0  0  0
   14.5758   32.7149   18.0797 H   0  0  0  0  0  0
   20.0096   33.7268   15.7717 H   0  0  0  0  0  0
   19.7173   32.8035   17.2846 H   0  0  0  0  0  0
   21.7005   31.4187   16.7568 H   0  0  0  0  0  0
   21.8481   31.6914   14.3452 H   0  0  0  0  0  0
   23.3842   32.1305   15.1664 H   0  0  0  0  0  0
   22.2917   33.4193   14.5563 H   0  0  0  0  0  0
   21.8275   33.3259   18.3246 H   0  0  0  0  0  0
   23.3412   33.2646   17.3593 H   0  0  0  0  0  0
   19.2583   30.7021   17.3380 H   0  0  0  0  0  0
   17.9977   30.2323   16.1478 H   0  0  0  0  0  0
   20.9939   29.7454   15.7634 H   0  0  0  0  0  0
   22.5526   35.5439   17.6493 H   0  0  0  0  0  0
   20.9833   35.1159   16.8871 H   0  0  0  0  0  0
   22.4969   35.0546   15.9218 H   0  0  0  0  0  0
   20.1898   28.4036   17.7213 H   0  0  0  0  0  0
   19.4706   29.8090   13.7324 H   0  0  0  0  0  0
   20.8047   27.0774   14.2960 H   0  0  0  0  0  0
   23.2170   28.6027   11.1891 H   0  0  0  0  0  0
   25.3541   27.2604   11.2023 H   0  0  0  0  0  0
   24.8423   27.3300   12.9227 H   0  0  0  0  0  0
   24.0467   24.8398    9.9717 H   0  0  0  0  0  0
   20.4315   24.2870   10.8595 H   0  0  0  0  0  0
   20.9784   25.2117   12.2991 H   0  0  0  0  0  0
   20.9517   26.0175    9.3796 H   0  0  0  0  0  0
   20.6845   27.0245   10.8429 H   0  0  0  0  0  0
   23.0002   27.0781    9.4539 H   0  0  0  0  0  0
   18.3420   27.2267   14.8973 H   0  0  0  0  0  0
   17.4409   28.7568   14.6258 H   0  0  0  0  0  0
   18.3752   25.6214   13.1708 H   0  0  0  0  0  0
   17.9730   24.9731   10.8231 H   0  0  0  0  0  0
   17.3041   26.6686    9.1519 H   0  0  0  0  0  0
   17.1623   29.0528    9.8174 H   0  0  0  0  0  0
   17.5571   29.7041   12.1735 H   0  0  0  0  0  0
  1  2  1  0  0  0
  1  4  1  0  0  0
  1 42  1  0  0  0
  1 43  1  0  0  0
  2  3  1  0  0  0
  3  5  2  0  0  0
  3  9  1  0  0  0
  4  5  1  0  0  0
  5  6  1  0  0  0
  6  7  2  0  0  0
  6 44  1  0  0  0
  7  8  1  0  0  0
  7 10  1  0  0  0
  8  9  2  0  0  0
  8 45  1  0  0  0
  9 46  1  0  0  0
 10 11  2  0  0  0
 10 12  2  0  0  0
 10 13  1  0  0  0
 13 14  1  0  0  0
 13 18  1  0  0  0
 14 15  1  0  0  0
 14 47  1  0  0  0
 14 48  1  0  0  0
 15 16  1  0  0  0
 15 17  1  0  0  0
 15 49  1  0  0  0
 16 50  1  0  0  0
 16 51  1  0  0  0
 16 52  1  0  0  0
 17 20  1  0  0  0
 17 53  1  0  0  0
 17 54  1  0  0  0
 18 19  1  0  0  0
 18 55  1  0  0  0
 18 56  1  0  0  0
 19 21  1  0  0  0
 19 22  1  0  0  0
 19 57  1  0  0  0
 20 58  1  0  0  0
 20 59  1  0  0  0
 20 60  1  0  0  0
 21 61  1  0  0  0
 22 23  1  0  0  0
 22 35  1  0  0  0
 22 62  1  0  0  0
 23 24  1  0  0  0
 23 63  1  0  0  0
 24 25  2  0  0  0
 24 26  1  0  0  0
 26 27  1  0  0  0
 27 28  1  0  0  0
 27 34  1  0  0  0
 27 64  1  0  0  0
 28 29  1  0  0  0
 28 65  1  0  0  0
 28 66  1  0  0  0
 29 30  1  0  0  0
 30 31  1  0  0  0
 30 34  1  0  0  0
 30 67  1  0  0  0
 31 32  1  0  0  0
 32 33  1  0  0  0
 32 68  1  0  0  0
 32 69  1  0  0  0
 33 34  1  0  0  0
 33 70  1  0  0  0
 33 71  1  0  0  0
 34 72  1  0  0  0
 35 41  1  0  0  0
 35 73  1  0  0  0
 35 74  1  0  0  0
 36 37  2  0  0  0
 36 41  1  0  0  0
 36 75  1  0  0  0
 37 38  1  0  0  0
 37 76  1  0  0  0
 38 39  2  0  0  0
 38 77  1  0  0  0
 39 40  1  0  0  0
 39 78  1  0  0  0
 40 41  2  0  0  0
 40 79  1  0  0  0
M  END
> <s_m_source_file>
../3o9c_ligand.sdf

> <i_m_source_file_index>
1

> <s_epik_input>
TzFbQ0gyXU9jKGMxMilbY0hdYyhbY0hdW2NIXTIpUyg9TykoPU8pTihbQ0gyXVtDQEBIXShbQ0gzXSlbQ0gyXVtDSDNdKVtDSDJdW0NAQEhdKFtPSF0pW0NAQEhdKFtOSF1DKD1PKU9bQ0BASF0oW0NIMl1PMylbQ0BASF0oW0NAQEhdMzQpW0NIMl1bQ0gyXU80KVtDSDJdYzVbY0hdW2NIXVtjSF1bY0hdW2NIXTU=

> <s_epik_cmdline>
J2VwaWtfYXBwJywgJy1pbWFlJywgJ2xpZ2FuZF9wcm8ubWFlJywgJy1vbWFlJywgJ2xpZ2FuZF9wcmVwLm1hZScsICctbXMnLCAnMScsICctcGgnLCAnNycsICctcGh0JywgJzAuNScsICctbnQn

> <r_lp_tautomer_probability>
1

> <r_epik_Ionization_Penalty>
  0.0000

> <r_epik_Ionization_Penalty_Charging>
  0.0000

> <r_epik_Ionization_Penalty_Neutral>
  0.0000

> <r_epik_State_Penalty>
 -0.0000

> <r_epik_Charging_Adjusted_Penalty>
0

> <i_epik_Tot_Q>
0

> <i_epik_Tot_abs_Q>
0

> <s_epik_Chemistry_Notes>
This compound has an ester and may undergo hydrolysis at high or low pH. This compound contains an acetal/aminal-like group ( X-CH(R)-Y where X, Y are N, S, or O) that may be acid/base labile, releasing an aldehyde.

$$$$
