3o9d_ligand
                    3D
 Schrodinger Suite 2020-3.
 78 82  0  0  1  0            999 V2000
   15.4230   36.5910   18.5040 C   0  0  0  0  0  0
   14.9650   35.3250   18.5930 N   0  0  0  0  0  0
   16.6670   36.8450   17.3180 S   0  0  0  0  0  0
   15.5860   34.4770   17.7090 C   0  0  0  0  0  0
   16.5510   35.1650   16.9660 C   0  0  0  0  0  0
   17.3010   34.4470   15.9980 C   0  0  0  0  0  0
   17.1400   33.0660   15.7560 C   0  0  0  0  0  0
   16.1580   32.4210   16.5200 C   0  0  0  0  0  0
   15.4000   33.1190   17.4800 C   0  0  0  0  0  0
   18.0450   32.1760   14.7100 S   0  0  0  0  0  0
   18.5810   33.0370   13.6850 O   0  0  0  0  0  0
   17.2750   31.0920   14.1970 O   0  0  0  0  0  0
   19.3380   31.5720   15.4780 N   0  0  1  0  0  0
   20.0850   32.5990   16.2530 C   0  0  0  0  0  0
   21.5850   32.3130   16.2950 C   0  0  1  0  0  0
   22.2520   32.2240   14.9210 C   0  0  0  0  0  0
   22.2790   33.3600   17.1790 C   0  0  0  0  0  0
   19.0480   30.3530   16.2500 C   0  0  0  0  0  0
   19.9220   29.2230   15.7060 C   0  0  1  0  0  0
   22.1480   34.7680   16.6620 C   0  0  0  0  0  0
   19.8890   28.0940   16.5910 O   0  0  0  0  0  0
   19.5400   28.7640   14.3060 C   0  0  1  0  0  0
   20.6410   27.9570   13.8350 N   0  0  0  0  0  0
   21.4870   28.3090   12.8780 C   0  0  0  0  0  0
   21.5370   29.3390   12.2230 O   0  0  0  0  0  0
   22.4430   27.2710   12.6300 O   0  0  0  0  0  0
   23.2910   27.3900   11.4990 C   0  0  1  0  0  0
   24.6060   26.7870   11.9600 C   0  0  0  0  0  0
   24.3880   25.3850   11.8250 O   0  0  0  0  0  0
   23.5020   25.1410   10.7440 C   0  0  1  0  0  0
   22.5060   24.2330   11.1720 O   0  0  0  0  0  0
   21.2210   24.8640   11.2200 C   0  0  0  0  0  0
   21.3530   26.1120   10.3620 C   0  0  0  0  0  0
   22.8300   26.4570   10.3990 C   0  0  1  0  0  0
   18.2540   27.9490   14.1900 C   0  0  0  0  0  0
   17.6740   28.5440   11.8030 C   0  0  0  0  0  0
   17.4470   28.1940   10.4720 C   0  0  0  0  0  0
   17.5270   26.8780   10.0750 C   0  0  0  0  0  0
   17.8370   25.8960   10.9980 C   0  0  0  0  0  0
   18.0700   26.2470   12.3170 C   0  0  0  0  0  0
   17.9940   27.5700   12.7390 C   0  0  0  0  0  0
   15.0402   37.3963   19.1309 H   0  0  0  0  0  0
   18.0405   34.9912   15.4105 H   0  0  0  0  0  0
   15.9771   31.3569   16.3680 H   0  0  0  0  0  0
   14.6487   32.5807   18.0578 H   0  0  0  0  0  0
   19.9385   33.5860   15.7901 H   0  0  0  0  0  0
   19.7124   32.6204   17.2878 H   0  0  0  0  0  0
   21.6974   31.3069   16.7253 H   0  0  0  0  0  0
   21.7355   31.4683   14.3109 H   0  0  0  0  0  0
   23.3070   31.9378   15.0434 H   0  0  0  0  0  0
   22.1930   33.2019   14.4208 H   0  0  0  0  0  0
   21.8393   33.3382   18.1871 H   0  0  0  0  0  0
   23.3533   33.1322   17.2425 H   0  0  0  0  0  0
   19.2753   30.5287   17.3118 H   0  0  0  0  0  0
   17.9845   30.0941   16.1407 H   0  0  0  0  0  0
   20.9583   29.5912   15.6827 H   0  0  0  0  0  0
   22.6669   35.4585   17.3432 H   0  0  0  0  0  0
   21.0837   35.0401   16.6049 H   0  0  0  0  0  0
   22.5977   34.8341   15.6603 H   0  0  0  0  0  0
   20.1366   28.2219   17.6551 H   0  0  0  0  0  0
   19.3887   29.6570   13.6818 H   0  0  0  0  0  0
   20.8266   26.9674   14.2781 H   0  0  0  0  0  0
   23.2872   28.4444   11.1855 H   0  0  0  0  0  0
   25.4212   27.1498   11.3167 H   0  0  0  0  0  0
   24.8006   27.0841   13.0011 H   0  0  0  0  0  0
   24.0582   24.6772    9.9160 H   0  0  0  0  0  0
   20.4604   24.1779   10.8190 H   0  0  0  0  0  0
   20.9748   25.1157   12.2621 H   0  0  0  0  0  0
   21.0123   25.8917    9.3395 H   0  0  0  0  0  0
   20.7365   26.9170   10.7884 H   0  0  0  0  0  0
   23.0633   26.9507    9.4441 H   0  0  0  0  0  0
   18.3466   27.0308   14.7886 H   0  0  0  0  0  0
   17.4074   28.5450   14.5614 H   0  0  0  0  0  0
   17.5998   29.5873   12.1097 H   0  0  0  0  0  0
   17.2049   28.9665    9.7421 H   0  0  0  0  0  0
   17.3461   26.6104    9.0339 H   0  0  0  0  0  0
   17.8975   24.8524   10.6892 H   0  0  0  0  0  0
   18.3183   25.4699   13.0399 H   0  0  0  0  0  0
  1  2  2  0  0  0
  1  3  1  0  0  0
  1 42  1  0  0  0
  2  4  1  0  0  0
  3  5  1  0  0  0
  4  5  2  0  0  0
  4  9  1  0  0  0
  5  6  1  0  0  0
  6  7  2  0  0  0
  6 43  1  0  0  0
  7  8  1  0  0  0
  7 10  1  0  0  0
  8  9  2  0  0  0
  8 44  1  0  0  0
  9 45  1  0  0  0
 10 11  2  0  0  0
 10 12  2  0  0  0
 10 13  1  0  0  0
 13 14  1  0  0  0
 13 18  1  0  0  0
 14 15  1  0  0  0
 14 46  1  0  0  0
 14 47  1  0  0  0
 15 16  1  0  0  0
 15 17  1  0  0  0
 15 48  1  0  0  0
 16 49  1  0  0  0
 16 50  1  0  0  0
 16 51  1  0  0  0
 17 20  1  0  0  0
 17 52  1  0  0  0
 17 53  1  0  0  0
 18 19  1  0  0  0
 18 54  1  0  0  0
 18 55  1  0  0  0
 19 21  1  0  0  0
 19 22  1  0  0  0
 19 56  1  0  0  0
 20 57  1  0  0  0
 20 58  1  0  0  0
 20 59  1  0  0  0
 21 60  1  0  0  0
 22 23  1  0  0  0
 22 35  1  0  0  0
 22 61  1  0  0  0
 23 24  1  0  0  0
 23 62  1  0  0  0
 24 25  2  0  0  0
 24 26  1  0  0  0
 26 27  1  0  0  0
 27 28  1  0  0  0
 27 34  1  0  0  0
 27 63  1  0  0  0
 28 29  1  0  0  0
 28 64  1  0  0  0
 28 65  1  0  0  0
 29 30  1  0  0  0
 30 31  1  0  0  0
 30 34  1  0  0  0
 30 66  1  0  0  0
 31 32  1  0  0  0
 32 33  1  0  0  0
 32 67  1  0  0  0
 32 68  1  0  0  0
 33 34  1  0  0  0
 33 69  1  0  0  0
 33 70  1  0  0  0
 34 71  1  0  0  0
 35 41  1  0  0  0
 35 72  1  0  0  0
 35 73  1  0  0  0
 36 37  2  0  0  0
 36 41  1  0  0  0
 36 74  1  0  0  0
 37 38  1  0  0  0
 37 75  1  0  0  0
 38 39  2  0  0  0
 38 76  1  0  0  0
 39 40  1  0  0  0
 39 77  1  0  0  0
 40 41  2  0  0  0
 40 78  1  0  0  0
M  END
> <s_m_source_file>
../3o9d_ligand.sdf

> <i_m_source_file_index>
1

> <s_epik_input>
bjFbY0hdc2MoYzEyKVtjSF1jKFtjSF1bY0hdMilTKD1PKSg9TylOKFtDSDJdW0NAQEhdKFtDSDNdKVtDSDJdW0NIM10pW0NIMl1bQ0BASF0oW09IXSlbQ0BASF0oW05IXUMoPU8pT1tDQEBIXShbQ0gyXU8zKVtDQEBIXShbQ0BASF0zNClbQ0gyXVtDSDJdTzQpW0NIMl1jNVtjSF1bY0hdW2NIXVtjSF1bY0hdNQ==

> <s_epik_cmdline>
J2VwaWtfYXBwJywgJy1pbWFlJywgJ2xpZ2FuZF9wcm8ubWFlJywgJy1vbWFlJywgJ2xpZ2FuZF9wcmVwLm1hZScsICctbXMnLCAnMScsICctcGgnLCAnNycsICctcGh0JywgJzAuNScsICctbnQn

> <r_lp_tautomer_probability>
1

> <r_epik_Ionization_Penalty>
  0.0000

> <r_epik_Ionization_Penalty_Charging>
  0.0000

> <r_epik_Ionization_Penalty_Neutral>
  0.0000

> <r_epik_State_Penalty>
 -0.0000

> <r_epik_Charging_Adjusted_Penalty>
0

> <i_epik_Tot_Q>
0

> <i_epik_Tot_abs_Q>
0

> <s_epik_Chemistry_Notes>
This compound has an ester and may undergo hydrolysis at high or low pH. This compound contains an acetal/aminal-like group ( X-CH(R)-Y where X, Y are N, S, or O) that may be acid/base labile, releasing an aldehyde.

$$$$
