3o9e_ligand
                    3D
 Schrodinger Suite 2020-3.
 81 84  0  0  1  0            999 V2000
   14.1220   34.9960   18.1770 N   0  0  0  0  0  0
   15.0450   34.4400   17.3340 C   0  0  0  0  0  0
   16.0790   35.1940   16.7600 C   0  0  0  0  0  0
   17.0010   34.5490   15.9040 C   0  0  0  0  0  0
   16.8810   33.1750   15.6100 C   0  0  0  0  0  0
   15.8160   32.4820   16.1860 C   0  0  0  0  0  0
   14.9120   33.0970   17.0460 C   0  0  0  0  0  0
   17.9220   32.3510   14.6640 S   0  0  0  0  0  0
   18.5510   33.2510   13.7270 O   0  0  0  0  0  0
   17.2320   31.2410   14.0660 O   0  0  0  0  0  0
   19.1350   31.7400   15.5410 N   0  0  1  0  0  0
   19.8370   32.7500   16.3720 C   0  0  0  0  0  0
   21.3460   32.5390   16.4010 C   0  0  0  0  0  0
   21.9630   32.6500   15.0040 C   0  0  0  0  0  0
   21.9710   33.5400   17.3890 C   0  0  0  0  0  0
   18.8900   30.4560   16.2290 C   0  0  0  0  0  0
   19.8470   29.3850   15.6840 C   0  0  1  0  0  0
   21.8570   34.9960   16.9810 C   0  0  0  0  0  0
   19.8090   28.2110   16.5400 O   0  0  0  0  0  0
   19.5310   28.9630   14.2500 C   0  0  1  0  0  0
   23.4170   32.2320   14.8960 C   0  0  0  0  0  0
   20.6360   28.1570   13.7800 N   0  0  0  0  0  0
   21.5070   28.5430   12.8640 C   0  0  0  0  0  0
   21.5780   29.5870   12.2530 O   0  0  0  0  0  0
   22.4610   27.5140   12.6150 O   0  0  0  0  0  0
   23.2940   27.6600   11.4710 C   0  0  1  0  0  0
   24.6080   27.0590   11.9260 C   0  0  0  0  0  0
   24.4060   25.6500   11.7980 O   0  0  0  0  0  0
   23.5230   25.3880   10.7120 C   0  0  1  0  0  0
   22.5430   24.4650   11.1440 O   0  0  0  0  0  0
   21.2680   25.0990   11.1960 C   0  0  0  0  0  0
   21.3660   26.3480   10.3170 C   0  0  0  0  0  0
   22.8460   26.7100   10.3840 C   0  0  1  0  0  0
   18.2300   28.1730   14.1010 C   0  0  0  0  0  0
   18.0640   26.4150   12.2380 C   0  0  0  0  0  0
   17.8720   26.0870   10.9020 C   0  0  0  0  0  0
   17.5830   27.0730    9.9760 C   0  0  0  0  0  0
   17.5110   28.3840   10.3910 C   0  0  0  0  0  0
   17.7040   28.7160   11.7220 C   0  0  0  0  0  0
   17.9890   27.7380   12.6660 C   0  0  0  0  0  0
   14.1864   36.0630   18.4364 H   0  0  0  0  0  0
   13.3155   34.3760   18.5954 H   0  0  0  0  0  0
   16.1702   36.2596   16.9704 H   0  0  0  0  0  0
   17.8171   35.1225   15.4645 H   0  0  0  0  0  0
   15.6881   31.4245   15.9547 H   0  0  0  0  0  0
   14.1013   32.5200   17.4909 H   0  0  0  0  0  0
   19.6443   33.7549   15.9683 H   0  0  0  0  0  0
   19.4683   32.6937   17.4068 H   0  0  0  0  0  0
   21.5530   31.5134   16.7405 H   0  0  0  0  0  0
   21.4042   32.0108   14.3045 H   0  0  0  0  0  0
   21.9151   33.6950   14.6640 H   0  0  0  0  0  0
   21.4770   33.4465   18.3674 H   0  0  0  0  0  0
   23.0444   33.3257   17.4983 H   0  0  0  0  0  0
   19.0592   30.5805   17.3088 H   0  0  0  0  0  0
   17.8511   30.1390   16.0548 H   0  0  0  0  0  0
   20.8679   29.7938   15.7097 H   0  0  0  0  0  0
   22.3300   35.6293   17.7460 H   0  0  0  0  0  0
   20.7954   35.2679   16.8851 H   0  0  0  0  0  0
   22.3629   35.1470   16.0160 H   0  0  0  0  0  0
   20.0114   28.3087   17.6168 H   0  0  0  0  0  0
   19.4390   29.8634   13.6249 H   0  0  0  0  0  0
   23.7564   32.3509   13.8565 H   0  0  0  0  0  0
   23.5191   31.1789   15.1969 H   0  0  0  0  0  0
   24.0299   32.8631   15.5563 H   0  0  0  0  0  0
   20.7944   27.1485   14.1896 H   0  0  0  0  0  0
   23.2735   28.7129   11.1533 H   0  0  0  0  0  0
   25.4205   27.4218   11.2793 H   0  0  0  0  0  0
   24.8066   27.3565   12.9662 H   0  0  0  0  0  0
   24.0667   24.9237    9.8761 H   0  0  0  0  0  0
   20.5000   24.4099   10.8148 H   0  0  0  0  0  0
   21.0347   25.3686   12.2366 H   0  0  0  0  0  0
   21.0391   26.1040    9.2954 H   0  0  0  0  0  0
   20.7213   27.1381   10.7294 H   0  0  0  0  0  0
   23.0939   27.2225    9.4428 H   0  0  0  0  0  0
   18.2743   27.2717   14.7300 H   0  0  0  0  0  0
   17.3825   28.7992   14.4167 H   0  0  0  0  0  0
   18.2760   25.6269   12.9605 H   0  0  0  0  0  0
   17.9494   25.0479   10.5819 H   0  0  0  0  0  0
   17.4143   26.8154    8.9304 H   0  0  0  0  0  0
   17.2999   29.1688    9.6646 H   0  0  0  0  0  0
   17.6312   29.7583   12.0324 H   0  0  0  0  0  0
  1  2  1  0  0  0
  1 41  1  0  0  0
  1 42  1  0  0  0
  2  3  2  0  0  0
  2  7  1  0  0  0
  3  4  1  0  0  0
  3 43  1  0  0  0
  4  5  2  0  0  0
  4 44  1  0  0  0
  5  6  1  0  0  0
  5  8  1  0  0  0
  6  7  2  0  0  0
  6 45  1  0  0  0
  7 46  1  0  0  0
  8  9  2  0  0  0
  8 10  2  0  0  0
  8 11  1  0  0  0
 11 12  1  0  0  0
 11 16  1  0  0  0
 12 13  1  0  0  0
 12 47  1  0  0  0
 12 48  1  0  0  0
 13 14  1  0  0  0
 13 15  1  0  0  0
 13 49  1  0  0  0
 14 21  1  0  0  0
 14 50  1  0  0  0
 14 51  1  0  0  0
 15 18  1  0  0  0
 15 52  1  0  0  0
 15 53  1  0  0  0
 16 17  1  0  0  0
 16 54  1  0  0  0
 16 55  1  0  0  0
 17 19  1  0  0  0
 17 20  1  0  0  0
 17 56  1  0  0  0
 18 57  1  0  0  0
 18 58  1  0  0  0
 18 59  1  0  0  0
 19 60  1  0  0  0
 20 22  1  0  0  0
 20 34  1  0  0  0
 20 61  1  0  0  0
 21 62  1  0  0  0
 21 63  1  0  0  0
 21 64  1  0  0  0
 22 23  1  0  0  0
 22 65  1  0  0  0
 23 24  2  0  0  0
 23 25  1  0  0  0
 25 26  1  0  0  0
 26 27  1  0  0  0
 26 33  1  0  0  0
 26 66  1  0  0  0
 27 28  1  0  0  0
 27 67  1  0  0  0
 27 68  1  0  0  0
 28 29  1  0  0  0
 29 30  1  0  0  0
 29 33  1  0  0  0
 29 69  1  0  0  0
 30 31  1  0  0  0
 31 32  1  0  0  0
 31 70  1  0  0  0
 31 71  1  0  0  0
 32 33  1  0  0  0
 32 72  1  0  0  0
 32 73  1  0  0  0
 33 74  1  0  0  0
 34 40  1  0  0  0
 34 75  1  0  0  0
 34 76  1  0  0  0
 35 36  2  0  0  0
 35 40  1  0  0  0
 35 77  1  0  0  0
 36 37  1  0  0  0
 36 78  1  0  0  0
 37 38  2  0  0  0
 37 79  1  0  0  0
 38 39  1  0  0  0
 38 80  1  0  0  0
 39 40  2  0  0  0
 39 81  1  0  0  0
M  END
> <s_m_source_file>
../3o9e_ligand.sdf

> <i_m_source_file_index>
1

> <s_epik_input>
W05IMl1jMVtjSF1bY0hdYyhbY0hdW2NIXTEpUyg9TykoPU8pTihbQ0gyXVtDSF0oW0NIMl1bQ0gzXSlbQ0gyXVtDSDNdKVtDSDJdW0NAQEhdKFtPSF0pW0NAQEhdKFtOSF1DKD1PKU9bQ0BASF0oW0NIMl1PMilbQ0BASF0oW0NAQEhdMjMpW0NIMl1bQ0gyXU8zKVtDSDJdYzRbY0hdW2NIXVtjSF1bY0hdW2NIXTQ=

> <s_epik_cmdline>
J2VwaWtfYXBwJywgJy1pbWFlJywgJ2xpZ2FuZF9wcm8ubWFlJywgJy1vbWFlJywgJ2xpZ2FuZF9wcmVwLm1hZScsICctbXMnLCAnMScsICctcGgnLCAnNycsICctcGh0JywgJzAuNScsICctbnQn

> <r_lp_tautomer_probability>
1

> <r_epik_Ionization_Penalty>
  0.0000

> <r_epik_Ionization_Penalty_Charging>
  0.0000

> <r_epik_Ionization_Penalty_Neutral>
  0.0000

> <r_epik_State_Penalty>
 -0.0000

> <r_epik_Charging_Adjusted_Penalty>
0

> <i_epik_Tot_Q>
0

> <i_epik_Tot_abs_Q>
0

> <s_epik_Chemistry_Notes>
This compound has an ester and may undergo hydrolysis at high or low pH. This compound contains an acetal/aminal-like group ( X-CH(R)-Y where X, Y are N, S, or O) that may be acid/base labile, releasing an aldehyde.

$$$$
