3o9f_ligand
                    3D
 Schrodinger Suite 2020-3.
 83 86  0  0  1  0            999 V2000
   15.1490   36.9220   18.8820 C   0  0  0  0  0  0
   14.7710   35.5590   18.6410 O   0  0  0  0  0  0
   15.4970   34.8340   17.7240 C   0  0  0  0  0  0
   16.4500   35.4730   16.9080 C   0  0  0  0  0  0
   17.1840   34.7020   15.9980 C   0  0  0  0  0  0
   16.9690   33.3300   15.8340 C   0  0  0  0  0  0
   16.0100   32.7130   16.6490 C   0  0  0  0  0  0
   15.2760   33.4620   17.5790 C   0  0  0  0  0  0
   17.9050   32.4670   14.7990 S   0  0  0  0  0  0
   18.4970   33.3130   13.7890 O   0  0  0  0  0  0
   17.1750   31.3810   14.2430 O   0  0  0  0  0  0
   19.1630   31.8510   15.6290 N   0  0  1  0  0  0
   19.8450   32.8350   16.5200 C   0  0  0  0  0  0
   21.3720   32.6880   16.4850 C   0  0  0  0  0  0
   21.9310   32.8190   15.0660 C   0  0  0  0  0  0
   22.0230   33.6720   17.4660 C   0  0  0  0  0  0
   18.8620   30.5570   16.2850 C   0  0  0  0  0  0
   19.8240   29.5010   15.7260 C   0  0  1  0  0  0
   21.8880   35.1200   17.0730 C   0  0  0  0  0  0
   19.8240   28.3360   16.5680 O   0  0  0  0  0  0
   19.5010   29.0910   14.2980 C   0  0  1  0  0  0
   23.3300   32.2530   14.9340 C   0  0  0  0  0  0
   20.6070   28.2910   13.8380 N   0  0  0  0  0  0
   21.4980   28.6560   12.9190 C   0  0  0  0  0  0
   21.5780   29.7020   12.2980 O   0  0  0  0  0  0
   22.4490   27.6110   12.6550 O   0  0  0  0  0  0
   23.2980   27.7780   11.5230 C   0  0  1  0  0  0
   24.6300   27.2310   11.9960 C   0  0  0  0  0  0
   24.4260   25.8270   11.8710 O   0  0  0  0  0  0
   23.5310   25.5490   10.7880 C   0  0  1  0  0  0
   22.5340   24.6020   11.1750 O   0  0  0  0  0  0
   21.2440   25.2290   11.1580 C   0  0  0  0  0  0
   21.3720   26.4980   10.3230 C   0  0  0  0  0  0
   22.8500   26.8490   10.4090 C   0  0  1  0  0  0
   18.2070   28.2840   14.1910 C   0  0  0  0  0  0
   18.0840   26.5880   12.3280 C   0  0  0  0  0  0
   17.8740   26.2360   11.0060 C   0  0  0  0  0  0
   17.5310   27.2060   10.0850 C   0  0  0  0  0  0
   17.4090   28.5350   10.4790 C   0  0  0  0  0  0
   17.6150   28.8930   11.8130 C   0  0  0  0  0  0
   17.9620   27.9150   12.7400 C   0  0  0  0  0  0
   14.4776   37.3611   19.6346 H   0  0  0  0  0  0
   15.0744   37.4942   17.9455 H   0  0  0  0  0  0
   16.1848   36.9555   19.2506 H   0  0  0  0  0  0
   16.6135   36.5480   16.9832 H   0  0  0  0  0  0
   17.9508   35.1891   15.3956 H   0  0  0  0  0  0
   15.8334   31.6412   16.5588 H   0  0  0  0  0  0
   14.5247   32.9688   18.1958 H   0  0  0  0  0  0
   19.5928   33.8565   16.1991 H   0  0  0  0  0  0
   19.5110   32.6836   17.5571 H   0  0  0  0  0  0
   21.6280   31.6689   16.8104 H   0  0  0  0  0  0
   21.2806   32.2765   14.3642 H   0  0  0  0  0  0
   21.9695   33.8815   14.7837 H   0  0  0  0  0  0
   21.5584   33.5630   18.4571 H   0  0  0  0  0  0
   23.0994   33.4578   17.5401 H   0  0  0  0  0  0
   18.9996   30.6562   17.3718 H   0  0  0  0  0  0
   17.8214   30.2711   16.0718 H   0  0  0  0  0  0
   20.8438   29.9129   15.7474 H   0  0  0  0  0  0
   22.3799   35.7520   17.8271 H   0  0  0  0  0  0
   20.8223   35.3853   17.0110 H   0  0  0  0  0  0
   22.3633   35.2800   16.0940 H   0  0  0  0  0  0
   20.0385   28.4339   17.6424 H   0  0  0  0  0  0
   19.4007   29.9803   13.6584 H   0  0  0  0  0  0
   23.6784   32.3744   13.8977 H   0  0  0  0  0  0
   23.3192   31.1843   15.1944 H   0  0  0  0  0  0
   24.0082   32.7893   15.6140 H   0  0  0  0  0  0
   20.7687   27.2854   14.2535 H   0  0  0  0  0  0
   23.2756   28.8317   11.2081 H   0  0  0  0  0  0
   25.4335   27.6117   11.3484 H   0  0  0  0  0  0
   24.8111   27.5522   13.0323 H   0  0  0  0  0  0
   24.1115   25.0812    9.9792 H   0  0  0  0  0  0
   20.5090   24.5435   10.7108 H   0  0  0  0  0  0
   20.9405   25.4714   12.1871 H   0  0  0  0  0  0
   21.0550   26.2909    9.2902 H   0  0  0  0  0  0
   20.7339   27.2849   10.7516 H   0  0  0  0  0  0
   23.0871   27.3394    9.4533 H   0  0  0  0  0  0
   18.2955   27.3677   14.7932 H   0  0  0  0  0  0
   17.3664   28.8878   14.5635 H   0  0  0  0  0  0
   18.3476   25.8199   13.0550 H   0  0  0  0  0  0
   17.9790   25.1972   10.6931 H   0  0  0  0  0  0
   17.3551   26.9296    9.0454 H   0  0  0  0  0  0
   17.1520   29.2984    9.7446 H   0  0  0  0  0  0
   17.5047   29.9313   12.1259 H   0  0  0  0  0  0
  1  2  1  0  0  0
  1 42  1  0  0  0
  1 43  1  0  0  0
  1 44  1  0  0  0
  2  3  1  0  0  0
  3  4  2  0  0  0
  3  8  1  0  0  0
  4  5  1  0  0  0
  4 45  1  0  0  0
  5  6  2  0  0  0
  5 46  1  0  0  0
  6  7  1  0  0  0
  6  9  1  0  0  0
  7  8  2  0  0  0
  7 47  1  0  0  0
  8 48  1  0  0  0
  9 10  2  0  0  0
  9 11  2  0  0  0
  9 12  1  0  0  0
 12 13  1  0  0  0
 12 17  1  0  0  0
 13 14  1  0  0  0
 13 49  1  0  0  0
 13 50  1  0  0  0
 14 15  1  0  0  0
 14 16  1  0  0  0
 14 51  1  0  0  0
 15 22  1  0  0  0
 15 52  1  0  0  0
 15 53  1  0  0  0
 16 19  1  0  0  0
 16 54  1  0  0  0
 16 55  1  0  0  0
 17 18  1  0  0  0
 17 56  1  0  0  0
 17 57  1  0  0  0
 18 20  1  0  0  0
 18 21  1  0  0  0
 18 58  1  0  0  0
 19 59  1  0  0  0
 19 60  1  0  0  0
 19 61  1  0  0  0
 20 62  1  0  0  0
 21 23  1  0  0  0
 21 35  1  0  0  0
 21 63  1  0  0  0
 22 64  1  0  0  0
 22 65  1  0  0  0
 22 66  1  0  0  0
 23 24  1  0  0  0
 23 67  1  0  0  0
 24 25  2  0  0  0
 24 26  1  0  0  0
 26 27  1  0  0  0
 27 28  1  0  0  0
 27 34  1  0  0  0
 27 68  1  0  0  0
 28 29  1  0  0  0
 28 69  1  0  0  0
 28 70  1  0  0  0
 29 30  1  0  0  0
 30 31  1  0  0  0
 30 34  1  0  0  0
 30 71  1  0  0  0
 31 32  1  0  0  0
 32 33  1  0  0  0
 32 72  1  0  0  0
 32 73  1  0  0  0
 33 34  1  0  0  0
 33 74  1  0  0  0
 33 75  1  0  0  0
 34 76  1  0  0  0
 35 41  1  0  0  0
 35 77  1  0  0  0
 35 78  1  0  0  0
 36 37  2  0  0  0
 36 41  1  0  0  0
 36 79  1  0  0  0
 37 38  1  0  0  0
 37 80  1  0  0  0
 38 39  2  0  0  0
 38 81  1  0  0  0
 39 40  1  0  0  0
 39 82  1  0  0  0
 40 41  2  0  0  0
 40 83  1  0  0  0
M  END
> <s_m_source_file>
../3o9f_ligand.sdf

> <i_m_source_file_index>
1

> <s_epik_input>
W0NIM11PYzFbY0hdW2NIXWMoW2NIXVtjSF0xKVMoPU8pKD1PKU4oW0NIMl1bQ0hdKFtDSDJdW0NIM10pW0NIMl1bQ0gzXSlbQ0gyXVtDQEBIXShbT0hdKVtDQEBIXShbTkhdQyg9TylPW0NAQEhdKFtDSDJdTzIpW0NAQEhdKFtDQEBIXTIzKVtDSDJdW0NIMl1PMylbQ0gyXWM0W2NIXVtjSF1bY0hdW2NIXVtjSF00

> <s_epik_cmdline>
J2VwaWtfYXBwJywgJy1pbWFlJywgJ2xpZ2FuZF9wcm8ubWFlJywgJy1vbWFlJywgJ2xpZ2FuZF9wcmVwLm1hZScsICctbXMnLCAnMScsICctcGgnLCAnNycsICctcGh0JywgJzAuNScsICctbnQn

> <r_lp_tautomer_probability>
1

> <r_epik_Ionization_Penalty>
  0.0000

> <r_epik_Ionization_Penalty_Charging>
  0.0000

> <r_epik_Ionization_Penalty_Neutral>
  0.0000

> <r_epik_State_Penalty>
 -0.0000

> <r_epik_Charging_Adjusted_Penalty>
0

> <i_epik_Tot_Q>
0

> <i_epik_Tot_abs_Q>
0

> <s_epik_Chemistry_Notes>
This compound has an ester and may undergo hydrolysis at high or low pH. This compound contains an acetal/aminal-like group ( X-CH(R)-Y where X, Y are N, S, or O) that may be acid/base labile, releasing an aldehyde.

$$$$
