3o9g_ligand
                    3D
 Schrodinger Suite 2020-3.
 83 86  0  0  1  0            999 V2000
   14.2960   35.7890   18.2350 C   0  0  0  0  0  0
   14.8510   35.8600   19.5590 O   0  0  0  0  0  0
   15.2060   34.9220   17.3790 C   0  0  0  0  0  0
   16.2360   35.5150   16.6580 C   0  0  0  0  0  0
   17.0740   34.7250   15.8480 C   0  0  0  0  0  0
   16.9100   33.3270   15.7550 C   0  0  0  0  0  0
   15.8810   32.7460   16.5160 C   0  0  0  0  0  0
   15.0210   33.5420   17.3020 C   0  0  0  0  0  0
   22.5210   24.6060   11.2720 O   0  0  0  0  0  0
   17.9290   32.3990   14.8720 S   0  0  0  0  0  0
   18.5970   33.2150   13.9280 O   0  0  0  0  0  0
   17.2180   31.2890   14.2940 O   0  0  0  0  0  0
   19.1210   31.7980   15.7940 N   0  0  1  0  0  0
   19.7810   32.8440   16.6270 C   0  0  0  0  0  0
   21.2890   32.6320   16.5680 C   0  0  0  0  0  0
   21.8490   32.8160   15.1560 C   0  0  0  0  0  0
   21.9750   33.5550   17.5770 C   0  0  0  0  0  0
   18.8230   30.4980   16.4310 C   0  0  0  0  0  0
   19.7940   29.4340   15.8810 C   0  0  1  0  0  0
   21.8030   35.0240   17.2580 C   0  0  0  0  0  0
   19.7890   28.2430   16.6950 O   0  0  0  0  0  0
   19.4670   29.0490   14.4330 C   0  0  1  0  0  0
   23.3300   32.4940   15.0310 C   0  0  0  0  0  0
   20.5620   28.2570   13.9230 N   0  0  0  0  0  0
   21.4570   28.6380   13.0100 C   0  0  0  0  0  0
   21.5550   29.6840   12.4000 O   0  0  0  0  0  0
   22.4390   27.6090   12.7640 O   0  0  0  0  0  0
   23.2770   27.7790   11.6290 C   0  0  1  0  0  0
   24.5910   27.1810   12.1260 C   0  0  0  0  0  0
   24.3900   25.7760   11.9720 O   0  0  0  0  0  0
   23.5160   25.5460   10.8720 C   0  0  2  0  0  0
   21.2370   25.2510   11.3180 C   0  0  0  0  0  0
   21.3650   26.4900   10.4390 C   0  0  0  0  0  0
   22.8480   26.8540   10.5110 C   0  0  1  0  0  0
   18.1900   28.2210   14.2730 C   0  0  0  0  0  0
   18.0810   26.5890   12.3620 C   0  0  0  0  0  0
   17.8970   26.2280   11.0320 C   0  0  0  0  0  0
   17.5650   27.2110   10.1090 C   0  0  0  0  0  0
   17.4330   28.5250   10.5340 C   0  0  0  0  0  0
   17.6080   28.8820   11.8810 C   0  0  0  0  0  0
   17.9600   27.9060   12.8070 C   0  0  0  0  0  0
   13.2901   35.3465   18.2824 H   0  0  0  0  0  0
   14.2315   36.8014   17.8096 H   0  0  0  0  0  0
   14.3403   36.4439   20.3389 H   0  0  0  0  0  0
   16.3949   36.5916   16.7197 H   0  0  0  0  0  0
   17.8694   35.2057   15.2785 H   0  0  0  0  0  0
   15.7453   31.6646   16.4987 H   0  0  0  0  0  0
   14.2054   33.0744   17.8535 H   0  0  0  0  0  0
   19.5270   33.8396   16.2343 H   0  0  0  0  0  0
   19.4312   32.7596   17.6665 H   0  0  0  0  0  0
   21.4966   31.5867   16.8406 H   0  0  0  0  0  0
   21.3131   32.1540   14.4599 H   0  0  0  0  0  0
   21.7167   33.8620   14.8425 H   0  0  0  0  0  0
   21.5532   33.3819   18.5780 H   0  0  0  0  0  0
   23.0544   33.3437   17.5924 H   0  0  0  0  0  0
   18.9482   30.5862   17.5203 H   0  0  0  0  0  0
   17.7869   30.2071   16.2034 H   0  0  0  0  0  0
   20.8160   29.8356   15.9469 H   0  0  0  0  0  0
   22.3185   35.6274   18.0197 H   0  0  0  0  0  0
   20.7321   35.2754   17.2540 H   0  0  0  0  0  0
   22.2334   35.2371   16.2684 H   0  0  0  0  0  0
   20.0030   28.3119   17.7718 H   0  0  0  0  0  0
   19.3583   29.9752   13.8496 H   0  0  0  0  0  0
   23.6528   32.6507   13.9912 H   0  0  0  0  0  0
   23.5024   31.4452   15.3144 H   0  0  0  0  0  0
   23.9060   33.1532   15.6970 H   0  0  0  0  0  0
   20.7175   27.2320   14.2908 H   0  0  0  0  0  0
   23.2478   28.8312   11.3096 H   0  0  0  0  0  0
   25.4212   27.5572   11.5102 H   0  0  0  0  0  0
   24.7521   27.4705   13.1749 H   0  0  0  0  0  0
   24.0911   25.1101   10.0418 H   0  0  0  0  0  0
   20.4682   24.5652   10.9326 H   0  0  0  0  0  0
   20.9994   25.5212   12.3575 H   0  0  0  0  0  0
   21.0504   26.2461    9.4135 H   0  0  0  0  0  0
   20.7249   27.2906   10.8382 H   0  0  0  0  0  0
   23.1070   27.3553    9.5668 H   0  0  0  0  0  0
   18.2899   27.2807   14.8350 H   0  0  0  0  0  0
   17.3326   28.7907   14.6608 H   0  0  0  0  0  0
   18.3296   25.8127   13.0856 H   0  0  0  0  0  0
   18.0115   25.1902   10.7189 H   0  0  0  0  0  0
   17.4097   26.9529    9.0615 H   0  0  0  0  0  0
   17.1878   29.2981    9.8058 H   0  0  0  0  0  0
   17.4691   29.9156   12.1980 H   0  0  0  0  0  0
  1  2  1  0  0  0
  1  3  1  0  0  0
  1 42  1  0  0  0
  1 43  1  0  0  0
  2 44  1  0  0  0
  3  4  2  0  0  0
  3  8  1  0  0  0
  4  5  1  0  0  0
  4 45  1  0  0  0
  5  6  2  0  0  0
  5 46  1  0  0  0
  6  7  1  0  0  0
  6 10  1  0  0  0
  7  8  2  0  0  0
  7 47  1  0  0  0
  8 48  1  0  0  0
  9 31  1  0  0  0
  9 32  1  0  0  0
 10 11  2  0  0  0
 10 12  2  0  0  0
 10 13  1  0  0  0
 13 14  1  0  0  0
 13 18  1  0  0  0
 14 15  1  0  0  0
 14 49  1  0  0  0
 14 50  1  0  0  0
 15 16  1  0  0  0
 15 17  1  0  0  0
 15 51  1  0  0  0
 16 23  1  0  0  0
 16 52  1  0  0  0
 16 53  1  0  0  0
 17 20  1  0  0  0
 17 54  1  0  0  0
 17 55  1  0  0  0
 18 19  1  0  0  0
 18 56  1  0  0  0
 18 57  1  0  0  0
 19 21  1  0  0  0
 19 22  1  0  0  0
 19 58  1  0  0  0
 20 59  1  0  0  0
 20 60  1  0  0  0
 20 61  1  0  0  0
 21 62  1  0  0  0
 22 24  1  0  0  0
 22 35  1  0  0  0
 22 63  1  0  0  0
 23 64  1  0  0  0
 23 65  1  0  0  0
 23 66  1  0  0  0
 24 25  1  0  0  0
 24 67  1  0  0  0
 25 26  2  0  0  0
 25 27  1  0  0  0
 27 28  1  0  0  0
 28 29  1  0  0  0
 28 34  1  0  0  0
 28 68  1  0  0  0
 29 30  1  0  0  0
 29 69  1  0  0  0
 29 70  1  0  0  0
 30 31  1  0  0  0
 31 34  1  0  0  0
 31 71  1  0  0  0
 32 33  1  0  0  0
 32 72  1  0  0  0
 32 73  1  0  0  0
 33 34  1  0  0  0
 33 74  1  0  0  0
 33 75  1  0  0  0
 34 76  1  0  0  0
 35 41  1  0  0  0
 35 77  1  0  0  0
 35 78  1  0  0  0
 36 37  2  0  0  0
 36 41  1  0  0  0
 36 79  1  0  0  0
 37 38  1  0  0  0
 37 80  1  0  0  0
 38 39  2  0  0  0
 38 81  1  0  0  0
 39 40  1  0  0  0
 39 82  1  0  0  0
 40 41  2  0  0  0
 40 83  1  0  0  0
M  END
> <s_m_source_file>
../3o9g_ligand.sdf

> <i_m_source_file_index>
1

> <s_epik_input>
W09IXVtDSDJdYzFbY0hdW2NIXWMoW2NIXVtjSF0xKVMoPU8pKD1PKU4oW0NIMl1bQ0hdKFtDSDJdW0NIM10pW0NIMl1bQ0gzXSlbQ0gyXVtDQEBIXShbT0hdKVtDQEBIXShbTkhdQyg9TylPW0NAQEhdKFtDSDJdTzIpW0NAQEhdKFtDQEBIXTIzKVtDSDJdW0NIMl1PMylbQ0gyXWM0W2NIXVtjSF1bY0hdW2NIXVtjSF00

> <s_epik_cmdline>
J2VwaWtfYXBwJywgJy1pbWFlJywgJ2xpZ2FuZF9wcm8ubWFlJywgJy1vbWFlJywgJ2xpZ2FuZF9wcmVwLm1hZScsICctbXMnLCAnMScsICctcGgnLCAnNycsICctcGh0JywgJzAuNScsICctbnQn

> <r_lp_tautomer_probability>
1

> <r_epik_Ionization_Penalty>
  0.0000

> <r_epik_Ionization_Penalty_Charging>
  0.0000

> <r_epik_Ionization_Penalty_Neutral>
  0.0000

> <r_epik_State_Penalty>
 -0.0000

> <r_epik_Charging_Adjusted_Penalty>
0

> <i_epik_Tot_Q>
0

> <i_epik_Tot_abs_Q>
0

> <s_epik_Chemistry_Notes>
This compound has an ester and may undergo hydrolysis at high or low pH. This compound contains an acetal/aminal-like group ( X-CH(R)-Y where X, Y are N, S, or O) that may be acid/base labile, releasing an aldehyde.

$$$$
