3o9h_ligand
                    3D
 Schrodinger Suite 2020-3.
 82 86  0  0  1  0            999 V2000
   15.6200   36.7170   18.3630 C   0  0  0  0  0  0
   14.9180   35.4570   18.5330 O   0  0  0  0  0  0
   15.5210   34.5500   17.6900 C   0  0  0  0  0  0
   16.5050   36.5260   17.2440 O   0  0  0  0  0  0
   16.4570   35.1900   16.9080 C   0  0  0  0  0  0
   17.1950   34.5020   15.9530 C   0  0  0  0  0  0
   17.0290   33.1160   15.7760 C   0  0  0  0  0  0
   16.0420   32.4880   16.5600 C   0  0  0  0  0  0
   15.2840   33.1980   17.5180 C   0  0  0  0  0  0
   17.9600   32.2970   14.7070 S   0  0  0  0  0  0
   17.2300   31.1650   14.1990 O   0  0  0  0  0  0
   18.4890   33.1680   13.6830 O   0  0  0  0  0  0
   19.2300   31.6890   15.5320 N   0  0  1  0  0  0
   19.9510   32.6910   16.3510 C   0  0  0  0  0  0
   21.4670   32.4750   16.3430 C   0  0  0  0  0  0
   22.0610   32.6170   14.9310 C   0  0  0  0  0  0
   22.1360   33.4370   17.3380 C   0  0  0  0  0  0
   18.9190   30.4610   16.2880 C   0  0  0  0  0  0
   19.8470   29.3730   15.7400 C   0  0  1  0  0  0
   21.9910   34.9000   17.0010 C   0  0  0  0  0  0
   19.9230   28.2710   16.6430 O   0  0  0  0  0  0
   19.4860   28.9020   14.3340 C   0  0  1  0  0  0
   23.4600   32.0600   14.8370 C   0  0  0  0  0  0
   20.5830   28.1050   13.8450 N   0  0  0  0  0  0
   21.4770   28.4460   12.9310 C   0  0  0  0  0  0
   21.6270   29.4930   12.3300 O   0  0  0  0  0  0
   22.3930   27.3740   12.6440 O   0  0  0  0  0  0
   23.2650   27.5210   11.5280 C   0  0  1  0  0  0
   24.5850   26.9280   12.0000 C   0  0  0  0  0  0
   24.3950   25.5220   11.8700 O   0  0  0  0  0  0
   23.5090   25.2500   10.7890 C   0  0  1  0  0  0
   22.5120   24.3050   11.1980 O   0  0  0  0  0  0
   21.2600   24.9760   11.3350 C   0  0  0  0  0  0
   21.3560   26.1900   10.4100 C   0  0  0  0  0  0
   22.8330   26.5640   10.4400 C   0  0  1  0  0  0
   18.2020   28.0610   14.2430 C   0  0  0  0  0  0
   18.1340   26.3530   12.3800 C   0  0  0  0  0  0
   17.9310   25.9860   11.0530 C   0  0  0  0  0  0
   17.5280   26.9380   10.1290 C   0  0  0  0  0  0
   17.3330   28.2480   10.5260 C   0  0  0  0  0  0
   17.5410   28.6170   11.8580 C   0  0  0  0  0  0
   17.9530   27.6730   12.7940 C   0  0  0  0  0  0
   14.8928   37.5179   18.1640 H   0  0  0  0  0  0
   16.1811   36.9507   19.2798 H   0  0  0  0  0  0
   17.9110   35.0422   15.3336 H   0  0  0  0  0  0
   15.8573   31.4224   16.4237 H   0  0  0  0  0  0
   14.5249   32.6888   18.1118 H   0  0  0  0  0  0
   19.7508   33.6986   15.9577 H   0  0  0  0  0  0
   19.6060   32.6292   17.3937 H   0  0  0  0  0  0
   21.6651   31.4415   16.6632 H   0  0  0  0  0  0
   21.4302   32.0742   14.2116 H   0  0  0  0  0  0
   22.0998   33.6811   14.6548 H   0  0  0  0  0  0
   21.6952   33.2971   18.3361 H   0  0  0  0  0  0
   23.2151   33.2278   17.3812 H   0  0  0  0  0  0
   19.1018   30.6335   17.3589 H   0  0  0  0  0  0
   17.8631   30.1936   16.1347 H   0  0  0  0  0  0
   20.8678   29.7811   15.7021 H   0  0  0  0  0  0
   22.4994   35.5047   17.7664 H   0  0  0  0  0  0
   20.9240   35.1658   16.9729 H   0  0  0  0  0  0
   22.4439   35.0964   16.0180 H   0  0  0  0  0  0
   20.1742   28.4425   17.7001 H   0  0  0  0  0  0
   19.3531   29.7933   13.7032 H   0  0  0  0  0  0
   23.8367   32.1860   13.8112 H   0  0  0  0  0  0
   23.4469   30.9905   15.0940 H   0  0  0  0  0  0
   24.1164   32.5974   15.5373 H   0  0  0  0  0  0
   20.7448   27.0910   14.2394 H   0  0  0  0  0  0
   23.2551   28.5761   11.2171 H   0  0  0  0  0  0
   25.4017   27.2973   11.3623 H   0  0  0  0  0  0
   24.7696   27.2274   13.0423 H   0  0  0  0  0  0
   24.0759   24.7883    9.9671 H   0  0  0  0  0  0
   20.4466   24.2997   11.0332 H   0  0  0  0  0  0
   21.1174   25.2758   12.3837 H   0  0  0  0  0  0
   21.0209   25.9092    9.4006 H   0  0  0  0  0  0
   20.7170   26.9974   10.7971 H   0  0  0  0  0  0
   23.0823   27.0579    9.4893 H   0  0  0  0  0  0
   18.3151   27.1520   14.8521 H   0  0  0  0  0  0
   17.3511   28.6493   14.6168 H   0  0  0  0  0  0
   18.4385   25.5989   13.1058 H   0  0  0  0  0  0
   18.0883   24.9535   10.7411 H   0  0  0  0  0  0
   17.3649   26.6536    9.0895 H   0  0  0  0  0  0
   17.0162   28.9950    9.7982 H   0  0  0  0  0  0
   17.3796   29.6502   12.1655 H   0  0  0  0  0  0
  1  2  1  0  0  0
  1  4  1  0  0  0
  1 43  1  0  0  0
  1 44  1  0  0  0
  2  3  1  0  0  0
  3  5  2  0  0  0
  3  9  1  0  0  0
  4  5  1  0  0  0
  5  6  1  0  0  0
  6  7  2  0  0  0
  6 45  1  0  0  0
  7  8  1  0  0  0
  7 10  1  0  0  0
  8  9  2  0  0  0
  8 46  1  0  0  0
  9 47  1  0  0  0
 10 11  2  0  0  0
 10 12  2  0  0  0
 10 13  1  0  0  0
 13 14  1  0  0  0
 13 18  1  0  0  0
 14 15  1  0  0  0
 14 48  1  0  0  0
 14 49  1  0  0  0
 15 16  1  0  0  0
 15 17  1  0  0  0
 15 50  1  0  0  0
 16 23  1  0  0  0
 16 51  1  0  0  0
 16 52  1  0  0  0
 17 20  1  0  0  0
 17 53  1  0  0  0
 17 54  1  0  0  0
 18 19  1  0  0  0
 18 55  1  0  0  0
 18 56  1  0  0  0
 19 21  1  0  0  0
 19 22  1  0  0  0
 19 57  1  0  0  0
 20 58  1  0  0  0
 20 59  1  0  0  0
 20 60  1  0  0  0
 21 61  1  0  0  0
 22 24  1  0  0  0
 22 36  1  0  0  0
 22 62  1  0  0  0
 23 63  1  0  0  0
 23 64  1  0  0  0
 23 65  1  0  0  0
 24 25  1  0  0  0
 24 66  1  0  0  0
 25 26  2  0  0  0
 25 27  1  0  0  0
 27 28  1  0  0  0
 28 29  1  0  0  0
 28 35  1  0  0  0
 28 67  1  0  0  0
 29 30  1  0  0  0
 29 68  1  0  0  0
 29 69  1  0  0  0
 30 31  1  0  0  0
 31 32  1  0  0  0
 31 35  1  0  0  0
 31 70  1  0  0  0
 32 33  1  0  0  0
 33 34  1  0  0  0
 33 71  1  0  0  0
 33 72  1  0  0  0
 34 35  1  0  0  0
 34 73  1  0  0  0
 34 74  1  0  0  0
 35 75  1  0  0  0
 36 42  1  0  0  0
 36 76  1  0  0  0
 36 77  1  0  0  0
 37 38  2  0  0  0
 37 42  1  0  0  0
 37 78  1  0  0  0
 38 39  1  0  0  0
 38 79  1  0  0  0
 39 40  2  0  0  0
 39 80  1  0  0  0
 40 41  1  0  0  0
 40 81  1  0  0  0
 41 42  2  0  0  0
 41 82  1  0  0  0
M  END
> <s_m_source_file>
../3o9h_ligand.sdf

> <i_m_source_file_index>
1

> <s_epik_input>
TzFbQ0gyXU9jKGMxMilbY0hdYyhbY0hdW2NIXTIpUyg9TykoPU8pTihbQ0gyXVtDSF0oW0NIMl1bQ0gzXSlbQ0gyXVtDSDNdKVtDSDJdW0NAQEhdKFtPSF0pW0NAQEhdKFtOSF1DKD1PKU9bQ0BASF0oW0NIMl1PMylbQ0BASF0oW0NAQEhdMzQpW0NIMl1bQ0gyXU80KVtDSDJdYzVbY0hdW2NIXVtjSF1bY0hdW2NIXTU=

> <s_epik_cmdline>
J2VwaWtfYXBwJywgJy1pbWFlJywgJ2xpZ2FuZF9wcm8ubWFlJywgJy1vbWFlJywgJ2xpZ2FuZF9wcmVwLm1hZScsICctbXMnLCAnMScsICctcGgnLCAnNycsICctcGh0JywgJzAuNScsICctbnQn

> <r_lp_tautomer_probability>
1

> <r_epik_Ionization_Penalty>
  0.0000

> <r_epik_Ionization_Penalty_Charging>
  0.0000

> <r_epik_Ionization_Penalty_Neutral>
  0.0000

> <r_epik_State_Penalty>
 -0.0000

> <r_epik_Charging_Adjusted_Penalty>
0

> <i_epik_Tot_Q>
0

> <i_epik_Tot_abs_Q>
0

> <s_epik_Chemistry_Notes>
This compound has an ester and may undergo hydrolysis at high or low pH. This compound contains an acetal/aminal-like group ( X-CH(R)-Y where X, Y are N, S, or O) that may be acid/base labile, releasing an aldehyde.

$$$$
