3o9l_ligand
                    3D
 Schrodinger Suite 2020-3.
 86 90  0  0  1  0            999 V2000
    3.1700    8.5520   -5.8500 Cl  0  0  0  0  0  0
    2.4500    8.1280   -4.2770 C   0  0  0  0  0  0
    3.2270    7.6570   -3.2240 C   0  0  0  0  0  0
    1.0720    8.2840   -4.1490 C   0  0  0  0  0  0
    4.6050    7.4750   -3.3050 O   0  0  0  0  0  0
    2.5730    7.3700   -2.0340 C   0  0  0  0  0  0
    0.4350    7.9790   -2.9550 C   0  0  0  0  0  0
    5.2240    6.4650   -4.1440 C   0  0  0  0  0  0
    3.5520    6.7760   -0.6740 Cl  0  0  0  0  0  0
    1.1910    7.5200   -1.8790 C   0  0  0  0  0  0
   -1.0480    8.1600   -2.8380 C   0  0  0  0  0  0
    6.1690    5.4700   -3.4420 C   0  0  0  0  0  0
    5.7820    5.5460   -2.0930 O   0  0  0  0  0  0
    6.3280    5.3000   -0.8600 C   0  0  0  0  0  0
    7.2710    6.2070   -0.3660 C   0  0  0  0  0  0
    5.8430    4.2770   -0.0400 C   0  0  0  0  0  0
    7.7830    6.0590    0.9230 C   0  0  0  0  0  0
    6.3640    4.1240    1.2430 C   0  0  0  0  0  0
    7.3400    5.0070    1.7380 C   0  0  0  0  0  0
    7.8180    4.8410    3.1530 C   0  0  2  0  0  0
    6.8440    5.6500    4.0740 C   0  0  1  0  0  0
    9.2870    5.2050    3.4030 C   0  0  0  0  0  0
    5.4120    5.2200    3.7880 C   0  0  0  0  0  0
    7.1980    5.5210    5.5650 C   0  0  0  0  0  0
    9.6130    5.1650    4.9020 C   0  0  0  0  0  0
    5.0270    4.1390    4.1980 O   0  0  0  0  0  0
    4.5570    5.9740    3.0690 N   0  0  0  0  0  0
    8.6090    5.8310    5.7490 N   0  3  0  0  0  0
    4.8650    7.2730    2.4280 C   0  0  0  0  0  0
    3.2210    5.4900    2.7210 C   0  0  0  0  0  0
    5.2180    8.3370    3.4610 C   0  0  0  0  0  0
    3.8240    8.2940    2.8590 C   0  0  0  0  0  0
    2.0530    5.7930    3.6390 C   0  0  0  0  0  0
    0.7790    5.5680    3.1300 C   0  0  0  0  0  0
    2.2040    6.2880    4.9310 C   0  0  0  0  0  0
    0.5990    4.9490    1.4690 Cl  0  0  0  0  0  0
   -0.3620    5.8270    3.8720 C   0  0  0  0  0  0
    1.0600    6.5430    5.6820 C   0  0  0  0  0  0
   -0.2090    6.3160    5.1640 C   0  0  0  0  0  0
    1.1730    7.0940    7.0750 C   0  0  0  0  0  0
    1.0700    8.6050    6.9450 C   0  0  0  0  0  0
    1.9420    9.2500    8.0050 C   0  0  0  0  0  0
    2.1120   10.6220    7.6730 O   0  0  0  0  0  0
    2.1000   11.4500    8.8330 C   0  0  0  0  0  0
    0.4888    8.6490   -4.9945 H   0  0  0  0  0  0
    4.4426    5.8528   -4.6179 H   0  0  0  0  0  0
    5.8284    6.9546   -4.9219 H   0  0  0  0  0  0
    0.7123    7.2810   -0.9293 H   0  0  0  0  0  0
   -1.4490    8.5279   -3.7940 H   0  0  0  0  0  0
   -1.2669    8.8889   -2.0438 H   0  0  0  0  0  0
   -1.5166    7.1961   -2.5904 H   0  0  0  0  0  0
    6.0219    4.4648   -3.8637 H   0  0  0  0  0  0
    7.2120    5.7834   -3.5966 H   0  0  0  0  0  0
    7.6076    7.0338   -0.9915 H   0  0  0  0  0  0
    5.0643    3.6052   -0.4011 H   0  0  0  0  0  0
    8.5279    6.7614    1.2972 H   0  0  0  0  0  0
    6.0098    3.3077    1.8725 H   0  0  0  0  0  0
    7.8043    3.7589    3.3502 H   0  0  0  0  0  0
    6.9257    6.7241    3.8510 H   0  0  0  0  0  0
    9.9366    4.4874    2.8804 H   0  0  0  0  0  0
    9.4828    6.2194    3.0253 H   0  0  0  0  0  0
    6.5858    6.2237    6.1493 H   0  0  0  0  0  0
    6.9983    4.4930    5.9017 H   0  0  0  0  0  0
    9.6777    4.1187    5.2354 H   0  0  0  0  0  0
   10.5751    5.6672    5.0816 H   0  0  0  0  0  0
    8.7746    6.9042    5.5732 H   0  0  0  0  0  0
    8.9093    5.5771    6.7763 H   0  0  0  0  0  0
    5.3108    6.9212    1.4859 H   0  0  0  0  0  0
    2.9191    5.9124    1.7513 H   0  0  0  0  0  0
    3.2345    4.3921    2.6544 H   0  0  0  0  0  0
    5.5161    7.8504    4.4014 H   0  0  0  0  0  0
    6.0503    8.9505    3.0858 H   0  0  0  0  0  0
    3.4950    8.8739    1.9841 H   0  0  0  0  0  0
    2.9608    7.7739    3.2998 H   0  0  0  0  0  0
    3.1953    6.4718    5.3453 H   0  0  0  0  0  0
   -1.3532    5.6519    3.4537 H   0  0  0  0  0  0
   -1.0887    6.5224    5.7737 H   0  0  0  0  0  0
    0.3568    6.6943    7.6947 H   0  0  0  0  0  0
    2.1403    6.7998    7.5084 H   0  0  0  0  0  0
    1.4121    8.9112    5.9454 H   0  0  0  0  0  0
    0.0238    8.9146    7.0853 H   0  0  0  0  0  0
    1.4543    9.1582    8.9867 H   0  0  0  0  0  0
    2.9192    8.7458    8.0325 H   0  0  0  0  0  0
    2.2338   12.5004    8.5351 H   0  0  0  0  0  0
    2.9187   11.1521    9.5046 H   0  0  0  0  0  0
    1.1382   11.3365    9.3546 H   0  0  0  0  0  0
  1  2  1  0  0  0
  2  3  2  0  0  0
  2  4  1  0  0  0
  3  5  1  0  0  0
  3  6  1  0  0  0
  4  7  2  0  0  0
  4 45  1  0  0  0
  5  8  1  0  0  0
  6  9  1  0  0  0
  6 10  2  0  0  0
  7 10  1  0  0  0
  7 11  1  0  0  0
  8 12  1  0  0  0
  8 46  1  0  0  0
  8 47  1  0  0  0
 10 48  1  0  0  0
 11 49  1  0  0  0
 11 50  1  0  0  0
 11 51  1  0  0  0
 12 13  1  0  0  0
 12 52  1  0  0  0
 12 53  1  0  0  0
 13 14  1  0  0  0
 14 15  2  0  0  0
 14 16  1  0  0  0
 15 17  1  0  0  0
 15 54  1  0  0  0
 16 18  2  0  0  0
 16 55  1  0  0  0
 17 19  2  0  0  0
 17 56  1  0  0  0
 18 19  1  0  0  0
 18 57  1  0  0  0
 19 20  1  0  0  0
 20 21  1  0  0  0
 20 22  1  0  0  0
 20 58  1  0  0  0
 21 23  1  0  0  0
 21 24  1  0  0  0
 21 59  1  0  0  0
 22 25  1  0  0  0
 22 60  1  0  0  0
 22 61  1  0  0  0
 23 26  2  0  0  0
 23 27  1  0  0  0
 24 28  1  0  0  0
 24 62  1  0  0  0
 24 63  1  0  0  0
 25 28  1  0  0  0
 25 64  1  0  0  0
 25 65  1  0  0  0
 27 29  1  0  0  0
 27 30  1  0  0  0
 28 66  1  0  0  0
 28 67  1  0  0  0
 29 31  1  0  0  0
 29 32  1  0  0  0
 29 68  1  0  0  0
 30 33  1  0  0  0
 30 69  1  0  0  0
 30 70  1  0  0  0
 31 32  1  0  0  0
 31 71  1  0  0  0
 31 72  1  0  0  0
 32 73  1  0  0  0
 32 74  1  0  0  0
 33 34  2  0  0  0
 33 35  1  0  0  0
 34 36  1  0  0  0
 34 37  1  0  0  0
 35 38  2  0  0  0
 35 75  1  0  0  0
 37 39  2  0  0  0
 37 76  1  0  0  0
 38 39  1  0  0  0
 38 40  1  0  0  0
 39 77  1  0  0  0
 40 41  1  0  0  0
 40 78  1  0  0  0
 40 79  1  0  0  0
 41 42  1  0  0  0
 41 80  1  0  0  0
 41 81  1  0  0  0
 42 43  1  0  0  0
 42 82  1  0  0  0
 42 83  1  0  0  0
 43 44  1  0  0  0
 44 84  1  0  0  0
 44 85  1  0  0  0
 44 86  1  0  0  0
M  CHG  1  28   1
M  END
> <s_m_source_file>
../3o9l_ligand.sdf

> <i_m_source_file_index>
1

> <s_epik_input>
W2NIXTFjKFtDSDNdKVtjSF1jKENsKWMoYzFDbClPW0NIMl1bQ0gyXU9jMltjSF1bY0hdYyhbY0hdW2NIXTIpW0NAQEhdM1tDQEhdKFtDSDJdW05IMitdW0NIMl1bQ0gyXTMpQyg9TylOKFtDSF00W0NIMl1bQ0gyXTQpW0NIMl1jNWMoQ2wpW2NIXVtjSF1jKFtjSF01KVtDSDJdW0NIMl1bQ0gyXU9bQ0gzXQ==

> <s_epik_cmdline>
J2VwaWtfYXBwJywgJy1pbWFlJywgJ2xpZ2FuZF9wcm8ubWFlJywgJy1vbWFlJywgJ2xpZ2FuZF9wcmVwLm1hZScsICctbXMnLCAnMScsICctcGgnLCAnNycsICctcGh0JywgJzAuNScsICctbnQn

> <r_lp_tautomer_probability>
1

> <r_epik_Ionization_Penalty>
  0.0018

> <r_epik_Ionization_Penalty_Charging>
  0.0018

> <r_epik_Ionization_Penalty_Neutral>
  0.0000

> <r_epik_State_Penalty>
 -0.0000

> <r_epik_Charging_Adjusted_Penalty>
0.00175854426358834

> <i_epik_Tot_Q>
1

> <i_epik_Tot_abs_Q>
1

$$$$
