3o9p_ligand
                    3D
 Schrodinger Suite 2020-3.
 52 51  0  0  1  0            999 V2000
   13.9010   55.4970   39.6030 C   0  0  0  0  0  0
   11.6660   54.7650   39.0260 N   0  3  0  0  0  0
   11.2740   57.3170   39.7000 O   0  0  0  0  0  0
   12.4230   55.3430   40.1100 C   0  0  2  0  0  0
   12.0990   57.1490   41.7450 N   0  0  0  0  0  0
   11.7910   57.3670   44.4160 O   0  5  0  0  0  0
   11.8690   56.6880   40.5110 C   0  0  0  0  0  0
   13.3980   61.9190   39.6640 N   0  0  0  0  0  0
   10.7170   59.2320   44.2480 O   0  0  0  0  0  0
   11.5870   58.4290   42.2150 C   0  0  1  0  0  0
   15.2220   65.6490   33.6330 N   0  3  0  0  0  0
   15.0560   60.8900   40.7570 O   0  0  0  0  0  0
   11.3130   58.3530   43.6850 C   0  0  0  0  0  0
   14.4940   65.3490   40.2320 O   0  5  0  0  0  0
   12.5630   59.5780   41.9900 C   0  0  0  0  0  0
   12.7470   64.2830   40.8560 O   0  0  0  0  0  0
   12.9740   59.6920   40.5230 C   0  0  0  0  0  0
   15.3110   67.4810   36.6150 O   0  5  0  0  0  0
   13.8980   60.8910   40.3340 C   0  0  0  0  0  0
   14.3280   67.7710   34.6270 O   0  0  0  0  0  0
   14.1550   63.0820   39.2840 C   0  0  2  0  0  0
   13.7440   64.2700   40.1510 C   0  0  0  0  0  0
   13.8570   63.3120   37.8160 C   0  0  0  0  0  0
   14.4860   64.5820   37.2600 C   0  0  0  0  0  0
   14.4360   64.6570   35.7540 C   0  0  0  0  0  0
   14.9630   67.0550   35.4210 C   0  0  0  0  0  0
   15.3580   65.6810   35.0720 C   0  0  2  0  0  0
   14.2940   54.5112   39.3138 H   0  0  0  0  0  0
   14.5225   55.9180   40.4071 H   0  0  0  0  0  0
   13.9219   56.1698   38.7330 H   0  0  0  0  0  0
   12.0952   53.7880   38.7592 H   0  0  0  0  0  0
   11.7060   55.4337   38.1535 H   0  0  0  0  0  0
   10.6198   54.6328   39.3390 H   0  0  0  0  0  0
   12.3017   54.6739   40.9746 H   0  0  0  0  0  0
   12.7021   56.5184   42.4148 H   0  0  0  0  0  0
   12.3333   61.8447   39.3978 H   0  0  0  0  0  0
   10.6693   58.5855   41.6291 H   0  0  0  0  0  0
   15.4969   64.6510   33.2608 H   0  0  0  0  0  0
   15.8859   66.4031   33.1851 H   0  0  0  0  0  0
   14.1797   65.8686   33.3583 H   0  0  0  0  0  0
   12.0907   60.5246   42.2915 H   0  0  0  0  0  0
   13.4691   59.4125   42.5913 H   0  0  0  0  0  0
   13.5012   58.7761   40.2177 H   0  0  0  0  0  0
   12.0770   59.8236   39.9001 H   0  0  0  0  0  0
   15.2270   62.8955   39.4456 H   0  0  0  0  0  0
   14.2441   62.4677   37.2266 H   0  0  0  0  0  0
   12.7696   63.3925   37.6708 H   0  0  0  0  0  0
   13.9522   65.4589   37.6551 H   0  0  0  0  0  0
   15.5429   64.6299   37.5610 H   0  0  0  0  0  0
   14.7143   63.6814   35.3289 H   0  0  0  0  0  0
   13.4169   64.9193   35.4336 H   0  0  0  0  0  0
   16.3943   65.4542   35.3630 H   0  0  0  0  0  0
  1  4  1  0  0  0
  1 28  1  0  0  0
  1 29  1  0  0  0
  1 30  1  0  0  0
  2  4  1  0  0  0
  2 31  1  0  0  0
  2 32  1  0  0  0
  2 33  1  0  0  0
  3  7  2  0  0  0
  4  7  1  0  0  0
  4 34  1  0  0  0
  5  7  1  0  0  0
  5 10  1  0  0  0
  5 35  1  0  0  0
  6 13  1  0  0  0
  8 19  1  0  0  0
  8 21  1  0  0  0
  8 36  1  0  0  0
  9 13  2  0  0  0
 10 13  1  0  0  0
 10 15  1  0  0  0
 10 37  1  0  0  0
 11 27  1  0  0  0
 11 38  1  0  0  0
 11 39  1  0  0  0
 11 40  1  0  0  0
 12 19  2  0  0  0
 14 22  1  0  0  0
 15 17  1  0  0  0
 15 41  1  0  0  0
 15 42  1  0  0  0
 16 22  2  0  0  0
 17 19  1  0  0  0
 17 43  1  0  0  0
 17 44  1  0  0  0
 18 26  1  0  0  0
 20 26  2  0  0  0
 21 22  1  0  0  0
 21 23  1  0  0  0
 21 45  1  0  0  0
 23 24  1  0  0  0
 23 46  1  0  0  0
 23 47  1  0  0  0
 24 25  1  0  0  0
 24 48  1  0  0  0
 24 49  1  0  0  0
 25 27  1  0  0  0
 25 50  1  0  0  0
 25 51  1  0  0  0
 26 27  1  0  0  0
 27 52  1  0  0  0
M  CHG  5   2   1   6  -1  11   1  14  -1  18  -1
M  END
> <s_m_source_file>
../3o9p_ligand.sdf

> <i_m_source_file_index>
1

> <s_epik_input>
W0NIM11bQ0BIXShbTkgzK10pQyg9TylbTkhdW0NAQEhdKEMoPU8pW09IXSlbQ0gyXVtDSDJdQyg9TylbTkhdW0NASF0oQyg9TylbT0hdKVtDSDJdW0NIMl1bQ0gyXVtDQEBIXShbTkgzK10pQyg9TylbT0hd

> <s_epik_cmdline>
J2VwaWtfYXBwJywgJy1pbWFlJywgJ2xpZ2FuZF9wcm8ubWFlJywgJy1vbWFlJywgJ2xpZ2FuZF9wcmVwLm1hZScsICctbXMnLCAnMScsICctcGgnLCAnNycsICctcGh0JywgJzAuNScsICctbnQn

> <r_epik_Ionization_Penalty>
  0.1086

> <r_epik_Ionization_Penalty_Charging>
  0.1086

> <r_epik_Ionization_Penalty_Neutral>
  0.0000

> <r_epik_State_Penalty>
  0.0971

> <r_epik_Charging_Adjusted_Penalty>
0.205717045186191

> <i_epik_Tot_Q>
-1

> <i_epik_Tot_abs_Q>
5

$$$$
