3o9v_ligand
                    3D
 Schrodinger Suite 2020-3.
 47 48  0  0  1  0            999 V2000
   45.6130   35.5110   18.2080 C   0  0  0  0  0  0
   44.6560   34.7670   17.3000 C   0  0  0  0  0  0
   44.2270   32.7070   16.2450 C   0  0  0  0  0  0
   44.6810   31.2860   15.9800 C   0  0  0  0  0  0
   42.1450   32.3820   14.8420 C   0  0  0  0  0  0
   43.4810   35.3130   16.7910 C   0  0  0  0  0  0
   41.3900   35.0200   15.3790 C   0  0  0  0  0  0
   41.3840   35.9930   14.3740 C   0  0  0  0  0  0
   40.1800   36.4640   13.8450 C   0  0  0  0  0  0
   37.6680   36.4380   13.7460 C   0  0  0  0  0  0
   40.1750   34.5150   15.8370 C   0  0  0  0  0  0
   41.5670   31.3640   15.3460 O   0  5  0  0  0  0
   42.0100   32.7630   13.6480 O   0  0  0  0  0  0
   43.0440   33.2140   15.7110 C   0  0  0  0  0  0
   42.6740   34.5150   15.9710 C   0  0  0  0  0  0
   38.9700   35.9550   14.3090 C   0  0  0  0  0  0
   38.9730   34.9880   15.3030 C   0  0  0  0  0  0
   43.0600   36.7500   17.0950 C   0  0  0  0  0  0
   41.7730   36.7760   17.7730 N   0  3  0  0  0  0
   46.5620   36.4680   17.4990 C   0  0  0  0  0  0
   47.4950   37.0540   18.5510 C   0  0  0  0  0  0
   47.3110   35.7840   16.3640 C   0  0  0  0  0  0
   44.9880   33.4940   17.0230 N   0  0  0  0  0  0
   45.0409   36.1125   18.9297 H   0  0  0  0  0  0
   46.2413   34.7885   18.7494 H   0  0  0  0  0  0
   43.9500   30.7827   15.3301 H   0  0  0  0  0  0
   44.7597   30.7425   16.9331 H   0  0  0  0  0  0
   45.6629   31.3012   15.4844 H   0  0  0  0  0  0
   42.3286   36.3877   13.9998 H   0  0  0  0  0  0
   40.1878   37.2297   13.0693 H   0  0  0  0  0  0
   37.8615   37.1981   12.9747 H   0  0  0  0  0  0
   37.0614   36.8786   14.5509 H   0  0  0  0  0  0
   37.1254   35.5919   13.2991 H   0  0  0  0  0  0
   40.1618   33.7497   16.6131 H   0  0  0  0  0  0
   38.0269   34.5922   15.6722 H   0  0  0  0  0  0
   43.8127   37.2234   17.7426 H   0  0  0  0  0  0
   42.9780   37.3148   16.1546 H   0  0  0  0  0  0
   41.4896   37.8181   17.9819 H   0  0  0  0  0  0
   41.8455   36.2191   18.7188 H   0  0  0  0  0  0
   41.0108   36.3105   17.1308 H   0  0  0  0  0  0
   45.9978   37.2801   17.0171 H   0  0  0  0  0  0
   46.9002   37.5332   19.3426 H   0  0  0  0  0  0
   48.1521   37.8016   18.0827 H   0  0  0  0  0  0
   48.1064   36.2504   18.9873 H   0  0  0  0  0  0
   46.5889   35.3819   15.6381 H   0  0  0  0  0  0
   47.9198   34.9623   16.7692 H   0  0  0  0  0  0
   47.9655   36.5135   15.8646 H   0  0  0  0  0  0
  1  2  1  0  0  0
  1 20  1  0  0  0
  1 24  1  0  0  0
  1 25  1  0  0  0
  2  6  2  0  0  0
  2 23  1  0  0  0
  3  4  1  0  0  0
  3 14  1  0  0  0
  3 23  2  0  0  0
  4 26  1  0  0  0
  4 27  1  0  0  0
  4 28  1  0  0  0
  5 12  1  0  0  0
  5 13  2  0  0  0
  5 14  1  0  0  0
  6 15  1  0  0  0
  6 18  1  0  0  0
  7  8  2  0  0  0
  7 11  1  0  0  0
  7 15  1  0  0  0
  8  9  1  0  0  0
  8 29  1  0  0  0
  9 16  2  0  0  0
  9 30  1  0  0  0
 10 16  1  0  0  0
 10 31  1  0  0  0
 10 32  1  0  0  0
 10 33  1  0  0  0
 11 17  2  0  0  0
 11 34  1  0  0  0
 14 15  2  0  0  0
 16 17  1  0  0  0
 17 35  1  0  0  0
 18 19  1  0  0  0
 18 36  1  0  0  0
 18 37  1  0  0  0
 19 38  1  0  0  0
 19 39  1  0  0  0
 19 40  1  0  0  0
 20 21  1  0  0  0
 20 22  1  0  0  0
 20 41  1  0  0  0
 21 42  1  0  0  0
 21 43  1  0  0  0
 21 44  1  0  0  0
 22 45  1  0  0  0
 22 46  1  0  0  0
 22 47  1  0  0  0
M  CHG  2  12  -1  19   1
M  END
> <s_m_source_file>
../3o9v_ligand.sdf

> <i_m_source_file_index>
1

> <s_epik_input>
W0NIM11bQ0hdKFtDSDNdKVtDSDJdYzFjKFtDSDJdW05IMytdKWMoYyhjKG4xKVtDSDNdKUMoPU8pW09IXSktYzJbY0hdW2NIXWMoW0NIM10pW2NIXVtjSF0y

> <s_epik_cmdline>
J2VwaWtfYXBwJywgJy1pbWFlJywgJ2xpZ2FuZF9wcm8ubWFlJywgJy1vbWFlJywgJ2xpZ2FuZF9wcmVwLm1hZScsICctbXMnLCAnMScsICctcGgnLCAnNycsICctcGh0JywgJzAuNScsICctbnQn

> <r_lp_tautomer_probability>
1

> <r_epik_Ionization_Penalty>
  0.1643

> <r_epik_Ionization_Penalty_Charging>
  0.0537

> <r_epik_Ionization_Penalty_Neutral>
  0.1105

> <r_epik_State_Penalty>
 -0.0000

> <r_epik_Charging_Adjusted_Penalty>
0.0537256777526769

> <i_epik_Tot_Q>
0

> <i_epik_Tot_abs_Q>
2

$$$$
