3oad_ligand
                    3D
 Schrodinger Suite 2020-3.
 83 87  0  0  1  0            999 V2000
   24.4060   -6.2150    2.7660 C   0  0  0  0  0  0
   23.9170   -6.2260    4.2060 C   0  0  0  0  0  0
   24.8310   -6.8160    5.1760 N   0  3  0  0  0  0
   26.2760   -6.7320    5.0900 C   0  0  0  0  0  0
   26.7450   -6.8380    3.6500 C   0  0  1  0  0  0
   25.9030   -5.9530    2.7080 C   0  0  2  0  0  0
   28.1890   -6.3940    3.5140 C   0  0  0  0  0  0
   29.0470   -7.1060    2.7560 N   0  0  0  0  0  0
   26.1930   -4.5960    3.0710 O   0  0  0  0  0  0
   26.3730   -6.1550    1.2990 C   0  0  0  0  0  0
   25.8530   -7.1480    0.4570 C   0  0  0  0  0  0
   26.3100   -7.2910   -0.7920 N   0  0  0  0  0  0
   27.3180   -6.4800   -1.2490 C   0  0  0  0  0  0
   27.8600   -5.4930   -0.4440 C   0  0  0  0  0  0
   27.3750   -5.3090    0.8480 C   0  0  0  0  0  0
   27.8430   -6.5630   -2.5090 O   0  0  0  0  0  0
   27.6400   -7.6570   -3.3780 C   0  0  0  0  0  0
   28.9700   -7.8730   -4.0700 C   0  0  0  0  0  0
   29.5750   -8.9870   -3.4260 O   0  0  0  0  0  0
   30.9290   -9.1390   -3.4290 C   0  0  0  0  0  0
   31.6230   -9.5180   -4.5600 C   0  0  0  0  0  0
   33.0050   -9.6510   -4.5030 C   0  0  0  0  0  0
   33.6720   -9.4260   -3.3040 C   0  0  0  0  0  0
   32.9650   -9.0500   -2.1610 C   0  0  0  0  0  0
   31.5850   -8.9240   -2.2440 C   0  0  0  0  0  0
   30.5730   -8.4710   -0.8530 Cl  0  0  0  0  0  0
   30.7270   -9.8440   -6.0710 Cl  0  0  0  0  0  0
   35.1650   -9.5700   -3.2350 C   0  0  0  0  0  0
   28.5570   -5.3580    4.0840 O   0  0  0  0  0  0
   30.4260   -6.6640    2.5470 C   0  0  0  0  0  0
   28.6700   -8.3370    1.9920 C   0  0  0  0  0  0
   31.4730   -7.0620    3.5680 C   0  0  0  0  0  0
   31.2040   -7.7810    4.7290 C   0  0  0  0  0  0
   32.2240   -8.1330    5.6190 C   0  0  0  0  0  0
   33.5330   -7.7770    5.3600 C   0  0  0  0  0  0
   33.8070   -7.0770    4.1990 C   0  0  0  0  0  0
   32.7780   -6.7120    3.3220 C   0  0  0  0  0  0
   28.2440   -9.4630    2.9250 C   0  0  0  0  0  0
   29.6110   -9.5210    2.2630 C   0  0  0  0  0  0
   33.1740   -5.8050    1.8230 Cl  0  0  0  0  0  0
   31.9200   -8.9350    6.8700 C   0  0  0  0  0  0
   32.1490  -10.4020    6.4850 C   0  0  0  0  0  0
   31.7530  -11.3980    7.4380 O   0  0  0  0  0  0
   30.7070  -11.0300    8.3500 C   0  0  0  0  0  0
   24.1976   -7.1897    2.3006 H   0  0  0  0  0  0
   23.8849   -5.4232    2.2078 H   0  0  0  0  0  0
   23.7357   -5.1936    4.5395 H   0  0  0  0  0  0
   22.9821   -6.8019    4.2714 H   0  0  0  0  0  0
   24.6413   -6.3828    6.1692 H   0  0  0  0  0  0
   24.6729   -7.9039    5.2142 H   0  0  0  0  0  0
   26.6122   -5.7680    5.4994 H   0  0  0  0  0  0
   26.7261   -7.5527    5.6678 H   0  0  0  0  0  0
   26.6465   -7.9003    3.3820 H   0  0  0  0  0  0
   25.9299   -4.2265    4.0731 H   0  0  0  0  0  0
   25.0686   -7.8100    0.8237 H   0  0  0  0  0  0
   28.6645   -4.8614   -0.8207 H   0  0  0  0  0  0
   27.7722   -4.5211    1.4879 H   0  0  0  0  0  0
   27.3425   -8.5397   -2.7929 H   0  0  0  0  0  0
   26.8465   -7.4104   -4.0988 H   0  0  0  0  0  0
   28.7991   -8.0774   -5.1372 H   0  0  0  0  0  0
   29.5893   -6.9701   -3.9642 H   0  0  0  0  0  0
   33.5645   -9.9309   -5.3956 H   0  0  0  0  0  0
   33.4856   -8.8592   -1.2225 H   0  0  0  0  0  0
   35.5504   -9.8699   -4.2207 H   0  0  0  0  0  0
   35.4254  -10.3369   -2.4907 H   0  0  0  0  0  0
   35.6130   -8.6087   -2.9431 H   0  0  0  0  0  0
   30.7980   -7.0628    1.5917 H   0  0  0  0  0  0
   30.4591   -5.5648    2.5232 H   0  0  0  0  0  0
   28.2637   -7.8456    1.0957 H   0  0  0  0  0  0
   30.1779   -8.0757    4.9491 H   0  0  0  0  0  0
   34.3310   -8.0413    6.0538 H   0  0  0  0  0  0
   34.8363   -6.8062    3.9638 H   0  0  0  0  0  0
   28.0438   -9.0536    3.9262 H   0  0  0  0  0  0
   27.3321   -9.9380    2.5340 H   0  0  0  0  0  0
   29.8344  -10.0358    1.3169 H   0  0  0  0  0  0
   30.5462   -9.1515    2.7091 H   0  0  0  0  0  0
   32.5964   -8.6226    7.6792 H   0  0  0  0  0  0
   30.8779   -8.7584    7.1746 H   0  0  0  0  0  0
   31.5870  -10.6324    5.5679 H   0  0  0  0  0  0
   33.2216  -10.5721    6.3102 H   0  0  0  0  0  0
   30.4958  -11.8725    9.0249 H   0  0  0  0  0  0
   29.7986  -10.7774    7.7834 H   0  0  0  0  0  0
   31.0252  -10.1581    8.9404 H   0  0  0  0  0  0
  1  2  1  0  0  0
  1  6  1  0  0  0
  1 45  1  0  0  0
  1 46  1  0  0  0
  2  3  1  0  0  0
  2 47  1  0  0  0
  2 48  1  0  0  0
  3  4  1  0  0  0
  3 49  1  0  0  0
  3 50  1  0  0  0
  4  5  1  0  0  0
  4 51  1  0  0  0
  4 52  1  0  0  0
  5  6  1  0  0  0
  5  7  1  0  0  0
  5 53  1  0  0  0
  6  9  1  0  0  0
  6 10  1  0  0  0
  7  8  1  0  0  0
  7 29  2  0  0  0
  8 30  1  0  0  0
  8 31  1  0  0  0
  9 54  1  0  0  0
 10 11  2  0  0  0
 10 15  1  0  0  0
 11 12  1  0  0  0
 11 55  1  0  0  0
 12 13  2  0  0  0
 13 14  1  0  0  0
 13 16  1  0  0  0
 14 15  2  0  0  0
 14 56  1  0  0  0
 15 57  1  0  0  0
 16 17  1  0  0  0
 17 18  1  0  0  0
 17 58  1  0  0  0
 17 59  1  0  0  0
 18 19  1  0  0  0
 18 60  1  0  0  0
 18 61  1  0  0  0
 19 20  1  0  0  0
 20 21  2  0  0  0
 20 25  1  0  0  0
 21 22  1  0  0  0
 21 27  1  0  0  0
 22 23  2  0  0  0
 22 62  1  0  0  0
 23 24  1  0  0  0
 23 28  1  0  0  0
 24 25  2  0  0  0
 24 63  1  0  0  0
 25 26  1  0  0  0
 28 64  1  0  0  0
 28 65  1  0  0  0
 28 66  1  0  0  0
 30 32  1  0  0  0
 30 67  1  0  0  0
 30 68  1  0  0  0
 31 38  1  0  0  0
 31 39  1  0  0  0
 31 69  1  0  0  0
 32 33  2  0  0  0
 32 37  1  0  0  0
 33 34  1  0  0  0
 33 70  1  0  0  0
 34 35  2  0  0  0
 34 41  1  0  0  0
 35 36  1  0  0  0
 35 71  1  0  0  0
 36 37  2  0  0  0
 36 72  1  0  0  0
 37 40  1  0  0  0
 38 39  1  0  0  0
 38 73  1  0  0  0
 38 74  1  0  0  0
 39 75  1  0  0  0
 39 76  1  0  0  0
 41 42  1  0  0  0
 41 77  1  0  0  0
 41 78  1  0  0  0
 42 43  1  0  0  0
 42 79  1  0  0  0
 42 80  1  0  0  0
 43 44  1  0  0  0
 44 81  1  0  0  0
 44 82  1  0  0  0
 44 83  1  0  0  0
M  CHG  1   3   1
M  END
> <s_m_source_file>
../3oad_ligand.sdf

> <i_m_source_file_index>
1

> <s_epik_input>
Q2xjMVtjSF1bY0hdYyhbQ0gyXVtDSDJdT1tDSDNdKVtjSF1jMVtDSDJdTihbQ0hdMltDSDJdW0NIMl0yKUMoPU8pW0NASF0zW0NIMl1bTkgyK11bQ0gyXVtDSDJdW0NAXTMoW09IXSljNFtjSF1uYyhbY0hdW2NIXTQpT1tDSDJdW0NIMl1PYzVjKENsKVtjSF1jKFtDSDNdKVtjSF1jNUNs

> <s_epik_cmdline>
J2VwaWtfYXBwJywgJy1pbWFlJywgJ2xpZ2FuZF9wcm8ubWFlJywgJy1vbWFlJywgJ2xpZ2FuZF9wcmVwLm1hZScsICctbXMnLCAnMScsICctcGgnLCAnNycsICctcGh0JywgJzAuNScsICctbnQn

> <r_lp_tautomer_probability>
1

> <r_epik_Ionization_Penalty>
  0.0037

> <r_epik_Ionization_Penalty_Charging>
  0.0037

> <r_epik_Ionization_Penalty_Neutral>
  0.0000

> <r_epik_State_Penalty>
 -0.0000

> <r_epik_Charging_Adjusted_Penalty>
0.00370484903209364

> <i_epik_Tot_Q>
1

> <i_epik_Tot_abs_Q>
1

$$$$
