3oag_ligand
                    3D
 Schrodinger Suite 2020-3.
 85 90  0  0  1  0            999 V2000
   24.5230   -6.0440    2.9490 C   0  0  0  0  0  0
   24.1430   -6.3550    4.4020 C   0  0  0  0  0  0
   25.1640   -7.0420    5.1710 N   0  3  0  0  0  0
   26.5340   -6.5420    5.0810 C   0  0  0  0  0  0
   26.9580   -6.5630    3.6080 C   0  0  1  0  0  0
   26.0030   -5.7140    2.7330 C   0  0  1  0  0  0
   26.4060   -5.9330    1.3080 C   0  0  0  0  0  0
   25.8840   -6.9640    0.5150 C   0  0  0  0  0  0
   26.2980   -7.1330   -0.7570 N   0  0  0  0  0  0
   27.2550   -6.3340   -1.3050 C   0  0  0  0  0  0
   27.8080   -5.3070   -0.5490 C   0  0  0  0  0  0
   27.3860   -5.1070    0.7580 C   0  0  0  0  0  0
   27.7150   -6.4780   -2.5960 O   0  0  0  0  0  0
   27.5980   -7.6750   -3.3600 C   0  0  0  0  0  0
   28.3770   -6.1370    3.2840 C   0  0  0  0  0  0
   28.7510   -5.0350    3.6700 O   0  0  0  0  0  0
   29.1760   -6.9380    2.5360 N   0  0  0  0  0  0
   28.8810   -7.9000   -4.1510 C   0  0  0  0  0  0
   29.4640   -9.1500   -3.7520 O   0  0  0  0  0  0
   30.8190   -9.2030   -3.5710 C   0  0  0  0  0  0
   31.6330   -9.4900   -4.6450 C   0  0  0  0  0  0
   33.0180   -9.5310   -4.5060 C   0  0  0  0  0  0
   33.5790   -9.2960   -3.2560 C   0  0  0  0  0  0
   32.7690   -9.0080   -2.1660 C   0  0  0  0  0  0
   31.3900   -8.9610   -2.3340 C   0  0  0  0  0  0
   30.8500   -9.8110   -6.2030 Cl  0  0  0  0  0  0
   30.3270   -8.5940   -0.9540 Cl  0  0  0  0  0  0
   35.0700   -9.3470   -3.0830 C   0  0  0  0  0  0
   30.5130   -6.5740    2.0410 C   0  0  0  0  0  0
   28.7560   -8.2480    1.9840 C   0  0  0  0  0  0
   31.7500   -6.6210    2.9030 C   0  0  0  0  0  0
   31.6620   -6.8330    4.2670 C   0  0  0  0  0  0
   32.8200   -6.8680    5.0310 C   0  0  0  0  0  0
   34.0690   -6.6940    4.4470 C   0  0  0  0  0  0
   34.1610   -6.4870    3.0730 C   0  0  0  0  0  0
   33.0000   -6.4520    2.3090 C   0  0  0  0  0  0
   33.1700   -6.1840    0.5440 Cl  0  0  0  0  0  0
   32.7090   -7.0760    6.5160 C   0  0  0  0  0  0
   32.6750   -5.7730    7.1880 N   0  3  0  0  0  0
   28.5070   -9.2610    3.0980 C   0  0  0  0  0  0
   29.8030   -9.3240    2.3130 C   0  0  0  0  0  0
   31.6180   -4.7750    6.9790 C   0  0  0  0  0  0
   30.9260   -4.4060    8.2910 C   0  0  0  0  0  0
   30.2260   -5.3180    7.2850 C   0  0  0  0  0  0
   24.2950   -6.9143    2.3161 H   0  0  0  0  0  0
   23.9481   -5.1745    2.5977 H   0  0  0  0  0  0
   23.9274   -5.4164    4.9335 H   0  0  0  0  0  0
   23.2511   -6.9986    4.4180 H   0  0  0  0  0  0
   24.9100   -6.9969    6.2403 H   0  0  0  0  0  0
   25.2188   -8.0930    4.8512 H   0  0  0  0  0  0
   26.5756   -5.5143    5.4710 H   0  0  0  0  0  0
   27.1993   -7.1865    5.6743 H   0  0  0  0  0  0
   26.9248   -7.6387    3.3806 H   0  0  0  0  0  0
   26.0960   -4.6479    2.9877 H   0  0  0  0  0  0
   25.1346   -7.6371    0.9314 H   0  0  0  0  0  0
   28.5713   -4.6602   -0.9816 H   0  0  0  0  0  0
   27.8203   -4.3047    1.3544 H   0  0  0  0  0  0
   27.4298   -8.5264   -2.6841 H   0  0  0  0  0  0
   26.7498   -7.5852   -4.0547 H   0  0  0  0  0  0
   28.6493   -7.9255   -5.2260 H   0  0  0  0  0  0
   29.5859   -7.0805   -3.9472 H   0  0  0  0  0  0
   33.6535   -9.7444   -5.3655 H   0  0  0  0  0  0
   33.2104   -8.8204   -1.1872 H   0  0  0  0  0  0
   35.5429   -9.5871   -4.0467 H   0  0  0  0  0  0
   35.3272  -10.1213   -2.3453 H   0  0  0  0  0  0
   35.4318   -8.3699   -2.7303 H   0  0  0  0  0  0
   30.7855   -7.2325    1.2031 H   0  0  0  0  0  0
   30.5051   -5.5288    1.6984 H   0  0  0  0  0  0
   28.2122   -7.9002    1.0933 H   0  0  0  0  0  0
   30.6893   -6.9717    4.7388 H   0  0  0  0  0  0
   34.9700   -6.7194    5.0599 H   0  0  0  0  0  0
   35.1343   -6.3536    2.6008 H   0  0  0  0  0  0
   31.7855   -7.6298    6.7406 H   0  0  0  0  0  0
   33.5769   -7.6507    6.8717 H   0  0  0  0  0  0
   32.6344   -5.9230    8.2770 H   0  0  0  0  0  0
   33.5800   -5.2036    6.9299 H   0  0  0  0  0  0
   28.3716   -8.7308    4.0522 H   0  0  0  0  0  0
   27.6013   -9.8419    2.8696 H   0  0  0  0  0  0
   29.9753   -9.9513    1.4260 H   0  0  0  0  0  0
   30.7456   -8.8402    2.6086 H   0  0  0  0  0  0
   32.0885   -4.2381    6.1421 H   0  0  0  0  0  0
   31.5380   -4.7502    9.1377 H   0  0  0  0  0  0
   30.8039   -3.3142    8.3468 H   0  0  0  0  0  0
   29.5225   -4.9815    6.5092 H   0  0  0  0  0  0
   30.2565   -6.4175    7.3003 H   0  0  0  0  0  0
  1  2  1  0  0  0
  1  6  1  0  0  0
  1 45  1  0  0  0
  1 46  1  0  0  0
  2  3  1  0  0  0
  2 47  1  0  0  0
  2 48  1  0  0  0
  3  4  1  0  0  0
  3 49  1  0  0  0
  3 50  1  0  0  0
  4  5  1  0  0  0
  4 51  1  0  0  0
  4 52  1  0  0  0
  5  6  1  0  0  0
  5 15  1  0  0  0
  5 53  1  0  0  0
  6  7  1  0  0  0
  6 54  1  0  0  0
  7  8  2  0  0  0
  7 12  1  0  0  0
  8  9  1  0  0  0
  8 55  1  0  0  0
  9 10  2  0  0  0
 10 11  1  0  0  0
 10 13  1  0  0  0
 11 12  2  0  0  0
 11 56  1  0  0  0
 12 57  1  0  0  0
 13 14  1  0  0  0
 14 18  1  0  0  0
 14 58  1  0  0  0
 14 59  1  0  0  0
 15 16  2  0  0  0
 15 17  1  0  0  0
 17 29  1  0  0  0
 17 30  1  0  0  0
 18 19  1  0  0  0
 18 60  1  0  0  0
 18 61  1  0  0  0
 19 20  1  0  0  0
 20 21  2  0  0  0
 20 25  1  0  0  0
 21 22  1  0  0  0
 21 26  1  0  0  0
 22 23  2  0  0  0
 22 62  1  0  0  0
 23 24  1  0  0  0
 23 28  1  0  0  0
 24 25  2  0  0  0
 24 63  1  0  0  0
 25 27  1  0  0  0
 28 64  1  0  0  0
 28 65  1  0  0  0
 28 66  1  0  0  0
 29 31  1  0  0  0
 29 67  1  0  0  0
 29 68  1  0  0  0
 30 40  1  0  0  0
 30 41  1  0  0  0
 30 69  1  0  0  0
 31 32  2  0  0  0
 31 36  1  0  0  0
 32 33  1  0  0  0
 32 70  1  0  0  0
 33 34  2  0  0  0
 33 38  1  0  0  0
 34 35  1  0  0  0
 34 71  1  0  0  0
 35 36  2  0  0  0
 35 72  1  0  0  0
 36 37  1  0  0  0
 38 39  1  0  0  0
 38 73  1  0  0  0
 38 74  1  0  0  0
 39 42  1  0  0  0
 39 75  1  0  0  0
 39 76  1  0  0  0
 40 41  1  0  0  0
 40 77  1  0  0  0
 40 78  1  0  0  0
 41 79  1  0  0  0
 41 80  1  0  0  0
 42 43  1  0  0  0
 42 44  1  0  0  0
 42 81  1  0  0  0
 43 44  1  0  0  0
 43 82  1  0  0  0
 43 83  1  0  0  0
 44 84  1  0  0  0
 44 85  1  0  0  0
M  CHG  2   3   1  39   1
M  END
> <s_m_source_file>
../3oag_ligand.sdf

> <i_m_source_file_index>
1

> <s_epik_input>
W0NIMl0xW0NIMl1bQ0hdMVtOSDIrXVtDSDJdYyhbY0hdW2NIXWMyQ2wpW2NIXWMyW0NIMl1OKFtDSF0zW0NIMl1bQ0gyXTMpQyg9TylbQ0BIXTRbQ0gyXVtOSDIrXVtDSDJdW0NIMl1bQ0BASF00YzVbY0hdbmMoW2NIXVtjSF01KU9bQ0gyXVtDSDJdT2M2YyhDbClbY0hdYyhbQ0gzXSlbY0hdYzZDbA==

> <s_epik_cmdline>
J2VwaWtfYXBwJywgJy1pbWFlJywgJ2xpZ2FuZF9wcm8ubWFlJywgJy1vbWFlJywgJ2xpZ2FuZF9wcmVwLm1hZScsICctbXMnLCAnMScsICctcGgnLCAnNycsICctcGh0JywgJzAuNScsICctbnQn

> <r_lp_tautomer_probability>
1

> <r_epik_Ionization_Penalty>
  0.0089

> <r_epik_Ionization_Penalty_Charging>
  0.0089

> <r_epik_Ionization_Penalty_Neutral>
  0.0000

> <r_epik_State_Penalty>
 -0.0000

> <r_epik_Charging_Adjusted_Penalty>
0.00891770688583102

> <i_epik_Tot_Q>
2

> <i_epik_Tot_abs_Q>
2

$$$$
