3oap_ligand
                    3D
 Schrodinger Suite 2020-3.
209210  0  0  1  0            999 V2000
   67.0730   44.4430    5.8810 N   0  3  0  0  0  0
   67.3310   44.2130    7.3330 C   0  0  2  0  0  0
   66.0910   44.5530    8.1550 C   0  0  0  0  0  0
   65.1010   45.0530    7.6170 O   0  0  0  0  0  0
   68.5180   45.0660    7.7970 C   0  0  0  0  0  0
   68.3450   46.5590    7.5510 C   0  0  0  0  0  0
   69.5210   47.3540    8.0990 C   0  0  0  0  0  0
   70.8000   47.0610    7.3330 C   0  0  0  0  0  0
   70.6960   47.4810    5.9070 N   0  3  0  0  0  0
   66.1510   44.2770    9.4570 N   0  0  0  0  0  0
   65.0370   44.5450   10.3630 C   0  0  2  0  0  0
   63.7390   43.9550    9.8090 C   0  0  0  0  0  0
   62.7620   44.6760    9.5850 O   0  0  0  0  0  0
   64.8710   46.0540   10.5760 C   0  0  0  0  0  0
   66.1610   46.7760   10.8100 C   0  0  0  0  0  0
   67.0910   46.3590   11.7400 N   0  0  0  0  0  0
   66.6850   47.8780   10.2220 C   0  0  0  0  0  0
   68.1330   47.1710   11.7120 C   0  0  0  0  0  0
   67.9120   48.1010   10.8000 N   0  0  0  0  0  0
   63.7410   42.6390    9.6010 N   0  0  0  0  0  0
   62.5880   41.9110    9.0650 C   0  0  2  0  0  0
   61.2500   42.1190    9.7760 C   0  0  0  0  0  0
   60.2640   42.5070    9.1530 O   0  0  0  0  0  0
   62.8720   40.4050    9.0490 C   0  0  0  0  0  0
   63.6050   39.8880    7.8290 C   0  0  0  0  0  0
   63.6750   38.3650    7.8600 C   0  0  0  0  0  0
   64.3020   37.8150    6.5920 C   0  0  0  0  0  0
   64.5250   36.3460    6.6740 N   0  3  0  0  0  0
   61.2190   41.8330   11.0740 N   0  0  0  0  0  0
   59.9970   41.9390   11.8650 C   0  0  2  0  0  0
   59.3470   43.3250   11.8430 C   0  0  0  0  0  0
   58.1580   43.4570   11.5170 O   0  0  0  0  0  0
   60.2680   41.5160   13.3240 C   0  0  2  0  0  0
   60.8840   40.1080   13.3420 C   0  0  0  0  0  0
   58.9730   41.5410   14.1300 C   0  0  0  0  0  0
   61.4940   39.7070   14.6770 C   0  0  0  0  0  0
   60.1250   44.3520   12.1760 N   0  0  0  0  0  0
   59.6120   45.7180   12.2020 C   0  0  2  0  0  0
   58.9870   46.1410   10.8690 C   0  0  0  0  0  0
   57.8790   46.6760   10.8460 O   0  0  0  0  0  0
   60.7250   46.6920   12.6020 C   0  0  0  0  0  0
   60.3100   48.1610   12.7240 C   0  0  0  0  0  0
   59.0940   48.2850   13.6330 C   0  0  0  0  0  0
   61.4730   48.9740   13.2740 C   0  0  0  0  0  0
   59.6800   45.8990    9.7590 N   0  0  0  0  0  0
   59.1380   46.2630    8.4480 C   0  0  2  0  0  0
   57.8070   45.5590    8.1750 C   0  0  0  0  0  0
   56.8400   46.1870    7.7320 O   0  0  0  0  0  0
   60.1160   45.9050    7.3220 C   0  0  0  0  0  0
   61.1740   46.9350    7.0810 C   0  0  0  0  0  0
   62.3850   46.9300    7.7410 N   0  0  0  0  0  0
   61.2020   48.0040    6.2500 C   0  0  0  0  0  0
   63.1140   47.9500    7.3240 C   0  0  0  0  0  0
   62.4190   48.6170    6.4200 N   0  0  0  0  0  0
   57.7720   44.2530    8.4240 N   0  0  0  0  0  0
   56.5680   43.4520    8.2070 C   0  0  2  0  0  0
   55.3830   43.9590    9.0120 C   0  0  0  0  0  0
   54.2710   44.0770    8.4920 O   0  0  0  0  0  0
   56.8400   41.9910    8.5710 C   0  0  0  0  0  0
   57.7080   41.2880    7.5550 C   0  0  0  0  0  0
   58.0740   39.8880    7.9800 C   0  0  0  0  0  0
   58.8620   39.2370    6.9420 N   0  0  0  0  0  0
   59.4330   38.0450    7.0670 C   0  0  0  0  0  0
   59.3080   37.3570    8.1960 N   0  0  0  0  0  0
   60.1380   37.5460    6.0600 N   0  0  0  0  0  0
   55.6270   44.2640   10.2830 N   0  0  0  0  0  0
   54.5750   44.7530   11.1670 C   0  0  2  0  0  0
   54.0680   46.1370   10.7780 C   0  0  0  0  0  0
   52.8920   46.4350   10.9610 O   0  0  0  0  0  0
   55.0680   44.7690   12.6190 C   0  0  0  0  0  0
   55.3540   43.3860   13.2180 C   0  0  0  0  0  0
   55.9970   43.5320   14.5810 C   0  0  0  0  0  0
   54.0550   42.5990   13.3240 C   0  0  0  0  0  0
   54.9480   46.9790   10.2470 N   0  0  0  0  0  0
   54.5570   48.3270    9.8430 C   0  0  2  0  0  0
   53.7800   48.3460    8.5290 C   0  0  0  0  0  0
   52.9100   49.1920    8.3240 O   0  0  0  0  0  0
   55.7930   49.2240    9.6990 C   0  0  0  0  0  0
   56.5120   49.6560   10.9780 C   0  0  0  0  0  0
   57.7640   50.4440   10.6120 C   0  0  0  0  0  0
   55.5740   50.4950   11.8340 C   0  0  0  0  0  0
   54.1070   47.4170    7.6390 N   0  0  0  0  0  0
   53.4550   47.3300    6.3380 C   0  0  2  0  0  0
   52.0170   46.8430    6.4350 C   0  0  0  0  0  0
   51.1080   47.4580    5.8750 O   0  0  0  0  0  0
   54.2670   46.4100    5.4160 C   0  0  0  0  0  0
   53.5880   46.0210    4.1030 C   0  0  0  0  0  0
   52.6360   44.8400    4.2520 C   0  0  0  0  0  0
   52.9990   43.7980    4.8080 O   0  0  0  0  0  0
   51.4160   44.9950    3.7450 N   0  0  0  0  0  0
   51.8090   45.7430    7.1490 N   0  0  0  0  0  0
   50.4740   45.1740    7.2960 C   0  0  2  0  0  0
   49.4420   46.2150    7.7300 C   0  0  0  0  0  0
   48.4520   46.4120    6.9940 O   0  0  0  0  0  0
   50.5000   44.0150    8.2990 C   0  0  0  0  0  0
   49.1750   43.2740    8.3640 C   0  0  0  0  0  0
   48.6310   42.9430    7.2880 O   0  0  0  0  0  0
   48.6790   43.0180    9.4820 O   0  0  0  0  0  0
   49.6340   46.8240    8.8020 O   0  0  0  0  0  0
   66.2206   43.8273    5.5580 H   0  0  0  0  0  0
   67.9660   44.1658    5.3015 H   0  0  0  0  0  0
   66.8423   45.5054    5.7134 H   0  0  0  0  0  0
   67.5644   43.1453    7.4576 H   0  0  0  0  0  0
   68.6657   44.9313    8.8787 H   0  0  0  0  0  0
   69.4262   44.7529    7.2612 H   0  0  0  0  0  0
   68.2717   46.7463    6.4695 H   0  0  0  0  0  0
   67.4273   46.9084    8.0467 H   0  0  0  0  0  0
   69.3062   48.4297    8.0173 H   0  0  0  0  0  0
   69.6810   47.0912    9.1551 H   0  0  0  0  0  0
   71.6368   47.6058    7.7945 H   0  0  0  0  0  0
   71.0054   45.9807    7.3619 H   0  0  0  0  0  0
   71.6386   47.2529    5.3879 H   0  0  0  0  0  0
   70.5020   48.5626    5.8566 H   0  0  0  0  0  0
   69.8706   46.9375    5.4240 H   0  0  0  0  0  0
   67.0798   43.8324    9.8438 H   0  0  0  0  0  0
   65.3026   44.0510   11.3093 H   0  0  0  0  0  0
   64.4034   46.5006    9.6861 H   0  0  0  0  0  0
   64.2329   46.2324   11.4541 H   0  0  0  0  0  0
   66.3174   48.5522    9.4344 H   0  0  0  0  0  0
   69.0234   47.0877   12.3352 H   0  0  0  0  0  0
   64.6650   42.0976    9.8521 H   0  0  0  0  0  0
   62.5079   42.3720    8.0695 H   0  0  0  0  0  0
   63.4931   40.1398    9.9172 H   0  0  0  0  0  0
   61.9221   39.8522    9.0952 H   0  0  0  0  0  0
   63.0727   40.2047    6.9199 H   0  0  0  0  0  0
   64.6271   40.2944    7.8158 H   0  0  0  0  0  0
   64.2828   38.0433    8.7185 H   0  0  0  0  0  0
   62.6595   37.9531    7.9549 H   0  0  0  0  0  0
   63.6381   38.0150    5.7381 H   0  0  0  0  0  0
   65.2739   38.3016    6.4226 H   0  0  0  0  0  0
   64.9792   35.9912    5.7371 H   0  0  0  0  0  0
   63.5624   35.8372    6.8305 H   0  0  0  0  0  0
   65.1982   36.1237    7.5151 H   0  0  0  0  0  0
   62.1557   41.5073   11.5499 H   0  0  0  0  0  0
   59.3175   41.2482   11.3443 H   0  0  0  0  0  0
   60.9682   42.2236   13.7920 H   0  0  0  0  0  0
   60.1074   39.3650   13.1076 H   0  0  0  0  0  0
   61.6862   40.0491   12.5917 H   0  0  0  0  0  0
   58.5461   42.5545   14.1067 H   0  0  0  0  0  0
   59.1837   41.2557   15.1713 H   0  0  0  0  0  0
   58.2555   40.8308   13.6932 H   0  0  0  0  0  0
   61.9090   38.6912   14.6001 H   0  0  0  0  0  0
   60.7176   39.7279   15.4559 H   0  0  0  0  0  0
   62.2964   40.4120   14.9400 H   0  0  0  0  0  0
   61.1755   44.1540   12.4352 H   0  0  0  0  0  0
   58.8179   45.6934   12.9628 H   0  0  0  0  0  0
   61.1295   46.4035   13.5834 H   0  0  0  0  0  0
   61.5278   46.6599   11.8507 H   0  0  0  0  0  0
   60.0416   48.5554   11.7328 H   0  0  0  0  0  0
   58.2652   47.6916   13.2196 H   0  0  0  0  0  0
   58.7918   49.3406   13.6992 H   0  0  0  0  0  0
   59.3469   47.9124   14.6366 H   0  0  0  0  0  0
   62.3403   48.8721   12.6051 H   0  0  0  0  0  0
   61.7372   48.6046   14.2759 H   0  0  0  0  0  0
   61.1821   50.0329   13.3385 H   0  0  0  0  0  0
   60.6681   45.4212    9.8323 H   0  0  0  0  0  0
   58.9937   47.3514    8.5152 H   0  0  0  0  0  0
   60.6303   44.9644    7.5684 H   0  0  0  0  0  0
   59.5617   45.7839    6.3796 H   0  0  0  0  0  0
   60.4748   48.4142    5.5338 H   0  0  0  0  0  0
   64.1181   48.1988    7.6675 H   0  0  0  0  0  0
   58.6878   43.7774    8.8050 H   0  0  0  0  0  0
   56.3433   43.5701    7.1367 H   0  0  0  0  0  0
   57.3542   41.9448    9.5423 H   0  0  0  0  0  0
   55.8870   41.4453    8.6343 H   0  0  0  0  0  0
   57.1713   41.2222    6.5971 H   0  0  0  0  0  0
   58.6404   41.8545    7.4147 H   0  0  0  0  0  0
   58.6639   39.9288    8.9075 H   0  0  0  0  0  0
   57.1569   39.3061    8.1541 H   0  0  0  0  0  0
   59.0167   39.7365    5.9743 H   0  0  0  0  0  0
   58.7233   37.7712    9.0306 H   0  0  0  0  0  0
   59.7891   36.3729    8.2965 H   0  0  0  0  0  0
   60.2412   38.1163    5.1251 H   0  0  0  0  0  0
   56.6516   44.1397   10.6636 H   0  0  0  0  0  0
   53.7551   44.0334   11.0256 H   0  0  0  0  0  0
   56.0055   45.3410   12.6816 H   0  0  0  0  0  0
   54.3076   45.2401   13.2593 H   0  0  0  0  0  0
   56.0534   42.8351   12.5720 H   0  0  0  0  0  0
   56.9328   44.1022   14.4857 H   0  0  0  0  0  0
   56.2151   42.5353   14.9921 H   0  0  0  0  0  0
   55.3101   44.0645   15.2553 H   0  0  0  0  0  0
   53.6022   42.5027   12.3262 H   0  0  0  0  0  0
   53.3597   43.1275   13.9928 H   0  0  0  0  0  0
   54.2647   41.5983   13.7296 H   0  0  0  0  0  0
   55.9874   46.6446   10.1136 H   0  0  0  0  0  0
   53.8991   48.6613   10.6587 H   0  0  0  0  0  0
   56.5558   48.7039    9.1011 H   0  0  0  0  0  0
   55.5097   50.1609    9.1971 H   0  0  0  0  0  0
   56.8114   48.7727   11.5612 H   0  0  0  0  0  0
   58.4243   49.8172    9.9947 H   0  0  0  0  0  0
   58.2925   50.7399   11.5302 H   0  0  0  0  0  0
   57.4789   51.3437   10.0469 H   0  0  0  0  0  0
   54.6799   49.9051   12.0843 H   0  0  0  0  0  0
   55.2753   51.3950   11.2765 H   0  0  0  0  0  0
   56.0889   50.7912   12.7598 H   0  0  0  0  0  0
   54.8959   46.6992    7.9079 H   0  0  0  0  0  0
   53.4346   48.3646    5.9649 H   0  0  0  0  0  0
   55.2094   46.9061    5.1406 H   0  0  0  0  0  0
   54.4878   45.4682    5.9398 H   0  0  0  0  0  0
   53.0055   46.8740    3.7247 H   0  0  0  0  0  0
   54.3528   45.7423    3.3632 H   0  0  0  0  0  0
   51.1387   45.9420    3.2588 H   0  0  0  0  0  0
   50.6845   44.1762    3.8119 H   0  0  0  0  0  0
   52.6694   45.2598    7.6350 H   0  0  0  0  0  0
   50.2165   44.8211    6.2865 H   0  0  0  0  0  0
   47.6929   47.1548    7.2803 H   0  0  0  0  0  0
   51.2777   43.2943    8.0064 H   0  0  0  0  0  0
   50.7205   44.4045    9.3038 H   0  0  0  0  0  0
   47.6714   42.4055    7.2994 H   0  0  0  0  0  0
  1  2  1  0  0  0
  1100  1  0  0  0
  1101  1  0  0  0
  1102  1  0  0  0
  2  3  1  0  0  0
  2  5  1  0  0  0
  2103  1  0  0  0
  3  4  2  0  0  0
  3 10  1  0  0  0
  5  6  1  0  0  0
  5104  1  0  0  0
  5105  1  0  0  0
  6  7  1  0  0  0
  6106  1  0  0  0
  6107  1  0  0  0
  7  8  1  0  0  0
  7108  1  0  0  0
  7109  1  0  0  0
  8  9  1  0  0  0
  8110  1  0  0  0
  8111  1  0  0  0
  9112  1  0  0  0
  9113  1  0  0  0
  9114  1  0  0  0
 10 11  1  0  0  0
 10115  1  0  0  0
 11 12  1  0  0  0
 11 14  1  0  0  0
 11116  1  0  0  0
 12 13  2  0  0  0
 12 20  1  0  0  0
 14 15  1  0  0  0
 14117  1  0  0  0
 14118  1  0  0  0
 15 16  2  0  0  0
 15 17  1  0  0  0
 16 18  1  0  0  0
 17 19  2  0  0  0
 17119  1  0  0  0
 18 19  1  0  0  0
 18120  1  0  0  0
 20 21  1  0  0  0
 20121  1  0  0  0
 21 22  1  0  0  0
 21 24  1  0  0  0
 21122  1  0  0  0
 22 23  2  0  0  0
 22 29  1  0  0  0
 24 25  1  0  0  0
 24123  1  0  0  0
 24124  1  0  0  0
 25 26  1  0  0  0
 25125  1  0  0  0
 25126  1  0  0  0
 26 27  1  0  0  0
 26127  1  0  0  0
 26128  1  0  0  0
 27 28  1  0  0  0
 27129  1  0  0  0
 27130  1  0  0  0
 28131  1  0  0  0
 28132  1  0  0  0
 28133  1  0  0  0
 29 30  1  0  0  0
 29134  1  0  0  0
 30 31  1  0  0  0
 30 33  1  0  0  0
 30135  1  0  0  0
 31 32  2  0  0  0
 31 37  1  0  0  0
 33 34  1  0  0  0
 33 35  1  0  0  0
 33136  1  0  0  0
 34 36  1  0  0  0
 34137  1  0  0  0
 34138  1  0  0  0
 35139  1  0  0  0
 35140  1  0  0  0
 35141  1  0  0  0
 36142  1  0  0  0
 36143  1  0  0  0
 36144  1  0  0  0
 37 38  1  0  0  0
 37145  1  0  0  0
 38 39  1  0  0  0
 38 41  1  0  0  0
 38146  1  0  0  0
 39 40  2  0  0  0
 39 45  1  0  0  0
 41 42  1  0  0  0
 41147  1  0  0  0
 41148  1  0  0  0
 42 43  1  0  0  0
 42 44  1  0  0  0
 42149  1  0  0  0
 43150  1  0  0  0
 43151  1  0  0  0
 43152  1  0  0  0
 44153  1  0  0  0
 44154  1  0  0  0
 44155  1  0  0  0
 45 46  1  0  0  0
 45156  1  0  0  0
 46 47  1  0  0  0
 46 49  1  0  0  0
 46157  1  0  0  0
 47 48  2  0  0  0
 47 55  1  0  0  0
 49 50  1  0  0  0
 49158  1  0  0  0
 49159  1  0  0  0
 50 51  2  0  0  0
 50 52  1  0  0  0
 51 53  1  0  0  0
 52 54  2  0  0  0
 52160  1  0  0  0
 53 54  1  0  0  0
 53161  1  0  0  0
 55 56  1  0  0  0
 55162  1  0  0  0
 56 57  1  0  0  0
 56 59  1  0  0  0
 56163  1  0  0  0
 57 58  2  0  0  0
 57 66  1  0  0  0
 59 60  1  0  0  0
 59164  1  0  0  0
 59165  1  0  0  0
 60 61  1  0  0  0
 60166  1  0  0  0
 60167  1  0  0  0
 61 62  1  0  0  0
 61168  1  0  0  0
 61169  1  0  0  0
 62 63  1  0  0  0
 62170  1  0  0  0
 63 64  1  0  0  0
 63 65  2  0  0  0
 64171  1  0  0  0
 64172  1  0  0  0
 65173  1  0  0  0
 66 67  1  0  0  0
 66174  1  0  0  0
 67 68  1  0  0  0
 67 70  1  0  0  0
 67175  1  0  0  0
 68 69  2  0  0  0
 68 74  1  0  0  0
 70 71  1  0  0  0
 70176  1  0  0  0
 70177  1  0  0  0
 71 72  1  0  0  0
 71 73  1  0  0  0
 71178  1  0  0  0
 72179  1  0  0  0
 72180  1  0  0  0
 72181  1  0  0  0
 73182  1  0  0  0
 73183  1  0  0  0
 73184  1  0  0  0
 74 75  1  0  0  0
 74185  1  0  0  0
 75 76  1  0  0  0
 75 78  1  0  0  0
 75186  1  0  0  0
 76 77  2  0  0  0
 76 82  1  0  0  0
 78 79  1  0  0  0
 78187  1  0  0  0
 78188  1  0  0  0
 79 80  1  0  0  0
 79 81  1  0  0  0
 79189  1  0  0  0
 80190  1  0  0  0
 80191  1  0  0  0
 80192  1  0  0  0
 81193  1  0  0  0
 81194  1  0  0  0
 81195  1  0  0  0
 82 83  1  0  0  0
 82196  1  0  0  0
 83 84  1  0  0  0
 83 86  1  0  0  0
 83197  1  0  0  0
 84 85  2  0  0  0
 84 91  1  0  0  0
 86 87  1  0  0  0
 86198  1  0  0  0
 86199  1  0  0  0
 87 88  1  0  0  0
 87200  1  0  0  0
 87201  1  0  0  0
 88 89  2  0  0  0
 88 90  1  0  0  0
 90202  1  0  0  0
 90203  1  0  0  0
 91 92  1  0  0  0
 91204  1  0  0  0
 92 93  1  0  0  0
 92 95  1  0  0  0
 92205  1  0  0  0
 93 94  1  0  0  0
 93 99  2  0  0  0
 94206  1  0  0  0
 95 96  1  0  0  0
 95207  1  0  0  0
 95208  1  0  0  0
 96 97  1  0  0  0
 96 98  2  0  0  0
 97209  1  0  0  0
M  CHG  3   1   1   9   1  28   1
M  END
> <s_m_source_file>
../3oap_ligand.sdf

> <i_m_source_file_index>
1

> <s_epik_input>
W05IMytdW0NIMl1bQ0gyXVtDSDJdW0NIMl1bQ0BIXShbTkgzK10pQyg9TylbTkhdW0NAQEhdKFtDSDJdQzE9TltDSDJdTj1bQ0hdMSlDKD1PKVtOSF1bQ0BASF0oW0NIMl1bQ0gyXVtDSDJdW0NIMl1bTkgzK10pQyg9TylbTkhdW0NAQEhdKFtDQEBIXShbQ0gzXSlbQ0gyXVtDSDNdKUMoPU8pW05IXVtDQEBIXShbQ0gyXVtDSF0oW0NIM10pW0NIM10pQyg9TylbTkhdW0NAQEhdKFtDSDJdQzI9TltDSDJdTj1bQ0hdMilDKD1PKVtOSF1bQ0BASF0oW0NIMl1bQ0gyXVtDSDJdW05IXS9DKFtOSDJdKT1OXFtIXSlDKD1PKVtOSF1bQ0BASF0oW0NIMl1bQ0hdKFtDSDNdKVtDSDNdKUMoPU8pW05IXVtDQEBIXShbQ0gyXVtDSF0oW0NIM10pW0NIM10pQyg9TylbTkhdW0NAQEhdKFtDSDJdW0NIMl1DKD1PKVtOSDJdKUMoPU8pW05IXVtDQEhdKEMoPU8pW09IXSlbQ0gyXUMoPU8pW09IXQ==

> <s_epik_cmdline>
J2VwaWtfYXBwJywgJy1pbWFlJywgJ2xpZ2FuZF9wcm8ubWFlJywgJy1vbWFlJywgJ2xpZ2FuZF9wcmVwLm1hZScsICctbXMnLCAnMScsICctcGgnLCAnNycsICctcGh0JywgJzAuNScsICctbnQn

> <s_epik_pKa_notes>
Molecule size exceeds maximum supported for generating protonation states

> <s_epik_Chemistry_Notes>
This compound has an imine and may undergo hydrolysis.

$$$$
