3oaw_ligand
                    3D
 Schrodinger Suite 2020-3.
 36 38  0  0  1  0            999 V2000
   47.3440   13.0850   28.4050 N   0  0  0  0  0  0
   47.9520   14.1050   29.0090 C   0  0  0  0  0  0
   47.3110   14.8650   29.8820 N   0  0  0  0  0  0
   46.0130   14.6980   30.1420 C   0  0  0  0  0  0
   45.3330   13.6210   29.5180 C   0  0  0  0  0  0
   46.0590   12.8240   28.6110 C   0  0  0  0  0  0
   49.2790   14.3730   28.7290 N   0  0  0  0  0  0
   46.0940   16.6900   31.5790 C   0  0  0  0  0  0
   45.4010   11.6850   27.8850 C   0  0  0  0  0  0
   45.3410   15.5350   31.0230 N   0  0  0  0  0  0
   44.0210   15.2550   31.3170 C   0  0  0  0  0  0
   43.3630   14.0800   30.6660 C   0  0  0  0  0  0
   44.0410   13.3580   29.8000 N   0  0  0  0  0  0
   43.3780   15.9550   32.0900 O   0  0  0  0  0  0
   41.9450   13.6940   30.9330 C   0  0  0  0  0  0
   45.4680   18.0580   31.2970 C   0  0  0  0  0  0
   46.5030   16.5210   33.0440 C   0  0  0  0  0  0
   41.2280   12.7680   30.2100 C   0  0  0  0  0  0
   40.0030   12.7080   30.7540 N   0  3  0  0  0  0
   39.9320   13.6000   31.8370 N   0  0  0  0  0  0
   41.0860   14.1770   31.9590 C   0  0  0  0  0  0
   49.8252   13.7499   28.0055 H   0  0  0  0  0  0
   49.7887   15.2093   29.2297 H   0  0  0  0  0  0
   47.0171   16.6481   30.9823 H   0  0  0  0  0  0
   46.1359   11.1944   27.2298 H   0  0  0  0  0  0
   44.5679   12.0694   27.2783 H   0  0  0  0  0  0
   45.0175   10.9573   28.6154 H   0  0  0  0  0  0
   45.1944   18.1238   30.2336 H   0  0  0  0  0  0
   46.1924   18.8496   31.5389 H   0  0  0  0  0  0
   44.5673   18.1836   31.9158 H   0  0  0  0  0  0
   46.9450   15.5242   33.1886 H   0  0  0  0  0  0
   45.6164   16.6257   33.6866 H   0  0  0  0  0  0
   47.2415   17.2917   33.3097 H   0  0  0  0  0  0
   41.6992   12.2463   29.3639 H   0  0  0  0  0  0
   41.2540   14.9057   32.7657 H   0  0  0  0  0  0
   39.1262   12.1020   30.4822 H   0  0  0  0  0  0
  1  2  1  0  0  0
  1  6  2  0  0  0
  2  3  2  0  0  0
  2  7  1  0  0  0
  3  4  1  0  0  0
  4  5  2  0  0  0
  4 10  1  0  0  0
  5  6  1  0  0  0
  5 13  1  0  0  0
  6  9  1  0  0  0
  7 22  1  0  0  0
  7 23  1  0  0  0
  8 10  1  0  0  0
  8 16  1  0  0  0
  8 17  1  0  0  0
  8 24  1  0  0  0
  9 25  1  0  0  0
  9 26  1  0  0  0
  9 27  1  0  0  0
 10 11  1  0  0  0
 11 12  1  0  0  0
 11 14  2  0  0  0
 12 13  2  0  0  0
 12 15  1  0  0  0
 15 18  2  0  0  0
 15 21  1  0  0  0
 16 28  1  0  0  0
 16 29  1  0  0  0
 16 30  1  0  0  0
 17 31  1  0  0  0
 17 32  1  0  0  0
 17 33  1  0  0  0
 18 19  1  0  0  0
 18 34  1  0  0  0
 19 20  1  0  0  0
 19 36  1  0  0  0
 20 21  2  0  0  0
 21 35  1  0  0  0
M  CHG  1  19   1
M  END
> <s_m_source_file>
../3oaw_ligand.sdf

> <i_m_source_file_index>
1

> <s_epik_input>
bjFjKFtOSDJdKW5jKFtDSDNdKWMoYzEyKW5jKGMoPU8pbjJbQ0hdKFtDSDNdKVtDSDNdKS1jM1tjSF1bbkhdbltjSF0z

> <s_epik_cmdline>
J2VwaWtfYXBwJywgJy1pbWFlJywgJ2xpZ2FuZF9wcm8ubWFlJywgJy1vbWFlJywgJ2xpZ2FuZF9wcmVwLm1hZScsICctbXMnLCAnMScsICctcGgnLCAnNycsICctcGh0JywgJzAuNScsICctbnQn

> <r_epik_Ionization_Penalty>
  0.0000

> <r_epik_Ionization_Penalty_Charging>
  0.0000

> <r_epik_Ionization_Penalty_Neutral>
  0.0000

> <r_epik_State_Penalty>
  0.4107

> <r_epik_Charging_Adjusted_Penalty>
0.410681752333799

> <i_epik_Tot_Q>
1

> <i_epik_Tot_abs_Q>
1

> <s_epik_Chemistry_Notes>
This compound has an imine and may undergo hydrolysis.

$$$$
