3oay_ligand
                    3D
 Schrodinger Suite 2020-3.
 24 24  0  0  1  0            999 V2000
   50.9540  -16.5470  -29.4010 C   0  0  0  0  0  0
   50.2900  -17.7480  -30.0670 C   0  0  1  0  0  0
   49.3290  -17.3950  -31.2670 C   0  0  2  0  0  0
   48.6260  -18.6480  -31.7460 C   0  0  1  0  0  0
   47.8710  -19.2830  -30.5870 C   0  0  1  0  0  0
   48.8160  -19.5520  -29.4130 C   0  0  0  0  0  0
   49.8960  -15.7050  -28.8690 O   0  0  0  0  0  0
   51.3470  -18.5870  -30.5510 O   0  0  0  0  0  0
   50.0120  -16.8770  -32.4360 O   0  0  0  0  0  0
   47.6730  -18.3020  -32.7600 O   0  0  0  0  0  0
   46.8480  -18.3660  -30.1930 O   0  0  0  0  0  0
   49.5430  -18.4080  -29.0360 O   0  0  0  0  0  0
   51.6132  -16.8945  -28.5919 H   0  0  0  0  0  0
   51.5469  -15.9960  -30.1459 H   0  0  0  0  0  0
   48.6420  -16.6006  -30.9399 H   0  0  0  0  0  0
   49.3504  -19.3429  -32.1958 H   0  0  0  0  0  0
   47.3769  -20.2194  -30.8855 H   0  0  0  0  0  0
   48.2329  -19.8859  -28.5421 H   0  0  0  0  0  0
   49.5362  -20.3345  -29.6939 H   0  0  0  0  0  0
   50.1476  -14.7733  -28.3411 H   0  0  0  0  0  0
   52.0150  -18.2261  -31.3469 H   0  0  0  0  0  0
   50.6085  -15.9558  -32.3613 H   0  0  0  0  0  0
   48.0105  -17.8261  -33.6926 H   0  0  0  0  0  0
   46.0774  -18.0582  -30.9151 H   0  0  0  0  0  0
  1  2  1  0  0  0
  1  7  1  0  0  0
  1 13  1  0  0  0
  1 14  1  0  0  0
  2  3  1  0  0  0
  2  8  1  0  0  0
  2 12  1  0  0  0
  3  4  1  0  0  0
  3  9  1  0  0  0
  3 15  1  0  0  0
  4  5  1  0  0  0
  4 10  1  0  0  0
  4 16  1  0  0  0
  5  6  1  0  0  0
  5 11  1  0  0  0
  5 17  1  0  0  0
  6 12  1  0  0  0
  6 18  1  0  0  0
  6 19  1  0  0  0
  7 20  1  0  0  0
  8 21  1  0  0  0
  9 22  1  0  0  0
 10 23  1  0  0  0
 11 24  1  0  0  0
M  END
> <s_m_source_file>
../3oay_ligand.sdf

> <i_m_source_file_index>
1

> <s_epik_input>
W09IXVtDSDJdW0NAXTEoW09IXSlbQ0BASF0oW09IXSlbQ0BIXShbT0hdKVtDQEBIXShbQ0gyXU8xKVtPSF0=

> <s_epik_cmdline>
J2VwaWtfYXBwJywgJy1pbWFlJywgJ2xpZ2FuZF9wcm8ubWFlJywgJy1vbWFlJywgJ2xpZ2FuZF9wcmVwLm1hZScsICctbXMnLCAnMScsICctcGgnLCAnNycsICctcGh0JywgJzAuNScsICctbnQn

> <r_lp_tautomer_probability>
1

> <r_epik_Ionization_Penalty>
  0.0000

> <r_epik_Ionization_Penalty_Charging>
  0.0000

> <r_epik_Ionization_Penalty_Neutral>
  0.0000

> <r_epik_State_Penalty>
 -0.0000

> <r_epik_Charging_Adjusted_Penalty>
0

> <i_epik_Tot_Q>
0

> <i_epik_Tot_abs_Q>
0

$$$$
