3ob0_ligand
                    3D
 Schrodinger Suite 2020-3.
 90 93  0  0  1  0            999 V2000
   20.2910  -33.4920  -37.7380 C   0  0  2  0  0  0
   20.7980  -34.5160  -38.6710 O   0  0  0  0  0  0
   21.2380  -33.3320  -36.5710 C   0  0  1  0  0  0
   20.8390  -32.1570  -35.8570 O   0  0  0  0  0  0
   21.1630  -34.5760  -35.6940 C   0  0  1  0  0  0
   22.2210  -34.5740  -34.7990 O   0  0  0  0  0  0
   19.8570  -34.5740  -34.9340 C   0  0  2  0  0  0
   19.7520  -35.7020  -34.0720 O   0  0  0  0  0  0
   18.7700  -34.6370  -36.0010 C   0  0  2  0  0  0
   18.9150  -33.6710  -37.1160 O   0  0  0  0  0  0
   17.3480  -34.8180  -35.4470 C   0  0  1  0  0  0
   16.6200  -33.6140  -35.4160 O   0  0  0  0  0  0
   14.1230  -40.0710  -42.2850 C   0  0  1  0  0  0
   15.3120  -39.7260  -41.3360 C   0  0  1  0  0  0
   16.3480  -40.8690  -41.1320 C   0  0  1  0  0  0
   15.8930  -42.3010  -41.5390 C   0  0  2  0  0  0
   15.3340  -42.3030  -42.8780 O   0  0  0  0  0  0
   14.2860  -41.3390  -43.2030 C   0  0  2  0  0  0
   14.4340  -40.9050  -44.6660 C   0  0  0  0  0  0
   15.8010  -38.5870  -42.0570 O   0  0  0  0  0  0
   17.6200  -40.6030  -41.7420 O   0  0  0  0  0  0
   15.1620  -35.2000  -42.0780 C   0  0  1  0  0  0
   15.4410  -35.6470  -40.6260 C   0  0  1  0  0  0
   16.6810  -36.5840  -40.4420 C   0  0  1  0  0  0
   16.8190  -37.6370  -41.5930 C   0  0  2  0  0  0
   16.9580  -36.8500  -42.7960 O   0  0  0  0  0  0
   15.7240  -36.1510  -43.1420 C   0  0  2  0  0  0
   15.8710  -35.4600  -44.4820 C   0  0  0  0  0  0
   13.7530  -35.2820  -42.2460 O   0  0  0  0  0  0
   15.6210  -34.4170  -39.9290 O   0  0  0  0  0  0
   17.2640  -35.4170  -44.8230 O   0  0  0  0  0  0
   17.8570  -35.7070  -40.5760 O   0  0  0  0  0  0
   15.1530  -41.8580  -45.5120 O   0  0  0  0  0  0
   12.8780  -40.1060  -41.5540 O   0  0  0  0  0  0
   21.6180  -36.1700  -40.7460 C   0  0  1  0  0  0
   20.7540  -34.9120  -40.9110 C   0  0  1  0  0  0
   19.8600  -34.6480  -39.7510 C   0  0  1  0  0  0
   18.8930  -35.7970  -39.5910 C   0  0  2  0  0  0
   19.5250  -37.0570  -39.5260 O   0  0  0  0  0  0
   20.6840  -37.3480  -40.3340 C   0  0  2  0  0  0
   21.4080  -38.5270  -39.6230 C   0  0  0  0  0  0
   22.3530  -36.4040  -42.0190 O   0  0  0  0  0  0
   21.5000  -33.7290  -41.2070 O   0  0  0  0  0  0
   20.4890  -39.6010  -39.2470 O   0  0  0  0  0  0
   15.1730  -43.0530  -40.4860 O   0  0  0  0  0  0
   16.6630  -35.6140  -36.5190 C   0  0  0  0  0  0
   20.2275  -32.6431  -38.4347 H   0  0  0  0  0  0
   22.2797  -33.1641  -36.8818 H   0  0  0  0  0  0
   20.8417  -31.1795  -36.3614 H   0  0  0  0  0  0
   21.2915  -35.5031  -36.2719 H   0  0  0  0  0  0
   23.2562  -34.5750  -35.1711 H   0  0  0  0  0  0
   19.7755  -33.7211  -34.2441 H   0  0  0  0  0  0
   20.4586  -35.8244  -33.2379 H   0  0  0  0  0  0
   18.9778  -35.5646  -36.5545 H   0  0  0  0  0  0
   17.3422  -35.1990  -34.4151 H   0  0  0  0  0  0
   16.9010  -32.8194  -34.7091 H   0  0  0  0  0  0
   14.0272  -39.2134  -42.9671 H   0  0  0  0  0  0
   15.0726  -39.4774  -40.2916 H   0  0  0  0  0  0
   16.5422  -40.8486  -40.0495 H   0  0  0  0  0  0
   16.7370  -42.9955  -41.6629 H   0  0  0  0  0  0
   13.4041  -41.9691  -43.0152 H   0  0  0  0  0  0
   13.4371  -40.7709  -45.1113 H   0  0  0  0  0  0
   14.9872  -39.9554  -44.7126 H   0  0  0  0  0  0
   18.1176  -39.6360  -41.5770 H   0  0  0  0  0  0
   15.5524  -34.1828  -42.2292 H   0  0  0  0  0  0
   14.5901  -36.1989  -40.2002 H   0  0  0  0  0  0
   16.6318  -37.0895  -39.4663 H   0  0  0  0  0  0
   17.5923  -38.3138  -41.2006 H   0  0  0  0  0  0
   15.0038  -36.9802  -43.2036 H   0  0  0  0  0  0
   15.3148  -36.0216  -45.2471 H   0  0  0  0  0  0
   15.4700  -34.4380  -44.4135 H   0  0  0  0  0  0
   13.0868  -34.6905  -41.6008 H   0  0  0  0  0  0
   14.8354  -33.6476  -39.9593 H   0  0  0  0  0  0
   17.5851  -34.9517  -45.7666 H   0  0  0  0  0  0
   15.3109  -41.6370  -46.5779 H   0  0  0  0  0  0
   12.6198  -39.2859  -40.8678 H   0  0  0  0  0  0
   22.4052  -36.0560  -39.9862 H   0  0  0  0  0  0
   20.1327  -35.0760  -41.8038 H   0  0  0  0  0  0
   19.2452  -33.7376  -39.8079 H   0  0  0  0  0  0
   18.3846  -35.7780  -38.6157 H   0  0  0  0  0  0
   20.2443  -37.6035  -41.3094 H   0  0  0  0  0  0
   22.1676  -38.9505  -40.2966 H   0  0  0  0  0  0
   21.8940  -38.1600  -38.7070 H   0  0  0  0  0  0
   23.0411  -35.6378  -42.4056 H   0  0  0  0  0  0
   22.2202  -33.7266  -42.0385 H   0  0  0  0  0  0
   20.8702  -40.4972  -38.7356 H   0  0  0  0  0  0
   15.5663  -43.0745  -39.4590 H   0  0  0  0  0  0
   17.1610  -36.5889  -36.6266 H   0  0  0  0  0  0
   16.7167  -35.0677  -37.4722 H   0  0  0  0  0  0
   15.6093  -35.7689  -36.2439 H   0  0  0  0  0  0
  1  2  1  0  0  0
  1  3  1  0  0  0
  1 10  1  0  0  0
  1 47  1  0  0  0
  2 37  1  0  0  0
  3  4  1  0  0  0
  3  5  1  0  0  0
  3 48  1  0  0  0
  4 49  1  0  0  0
  5  6  1  0  0  0
  5  7  1  0  0  0
  5 50  1  0  0  0
  6 51  1  0  0  0
  7  8  1  0  0  0
  7  9  1  0  0  0
  7 52  1  0  0  0
  8 53  1  0  0  0
  9 10  1  0  0  0
  9 11  1  0  0  0
  9 54  1  0  0  0
 11 12  1  0  0  0
 11 46  1  0  0  0
 11 55  1  0  0  0
 12 56  1  0  0  0
 13 14  1  0  0  0
 13 18  1  0  0  0
 13 34  1  0  0  0
 13 57  1  0  0  0
 14 15  1  0  0  0
 14 20  1  0  0  0
 14 58  1  0  0  0
 15 16  1  0  0  0
 15 21  1  0  0  0
 15 59  1  0  0  0
 16 17  1  0  0  0
 16 45  1  0  0  0
 16 60  1  0  0  0
 17 18  1  0  0  0
 18 19  1  0  0  0
 18 61  1  0  0  0
 19 33  1  0  0  0
 19 62  1  0  0  0
 19 63  1  0  0  0
 20 25  1  0  0  0
 21 64  1  0  0  0
 22 23  1  0  0  0
 22 27  1  0  0  0
 22 29  1  0  0  0
 22 65  1  0  0  0
 23 24  1  0  0  0
 23 30  1  0  0  0
 23 66  1  0  0  0
 24 25  1  0  0  0
 24 32  1  0  0  0
 24 67  1  0  0  0
 25 26  1  0  0  0
 25 68  1  0  0  0
 26 27  1  0  0  0
 27 28  1  0  0  0
 27 69  1  0  0  0
 28 31  1  0  0  0
 28 70  1  0  0  0
 28 71  1  0  0  0
 29 72  1  0  0  0
 30 73  1  0  0  0
 31 74  1  0  0  0
 32 38  1  0  0  0
 33 75  1  0  0  0
 34 76  1  0  0  0
 35 36  1  0  0  0
 35 40  1  0  0  0
 35 42  1  0  0  0
 35 77  1  0  0  0
 36 37  1  0  0  0
 36 43  1  0  0  0
 36 78  1  0  0  0
 37 38  1  0  0  0
 37 79  1  0  0  0
 38 39  1  0  0  0
 38 80  1  0  0  0
 39 40  1  0  0  0
 40 41  1  0  0  0
 40 81  1  0  0  0
 41 44  1  0  0  0
 41 82  1  0  0  0
 41 83  1  0  0  0
 42 84  1  0  0  0
 43 85  1  0  0  0
 44 86  1  0  0  0
 45 87  1  0  0  0
 46 88  1  0  0  0
 46 89  1  0  0  0
 46 90  1  0  0  0
M  END
> <s_m_source_file>
../3ob0_ligand.sdf

> <i_m_source_file_index>
1

> <s_epik_input>
W09IXVtDQEBIXShbQ0gzXSlbQ0BASF0oTzEpW0NAQEhdKFtPSF0pW0NASF0oW09IXSlbQ0BIXShbT0hdKVtDQEhdMU9bQ0BASF0oW0NAQEhdKFtPSF0pW0NAQEhdMltPSF0pW0NASF0oT1tDQEBIXTJbQ0gyXVtPSF0pT1tDQEBIXShbQ0BASF0oW09IXSlbQ0BASF0zW09IXSlbQ0BIXShPW0NAQEhdM1tDSDJdW09IXSlPW0NAQEhdKFtDQEBIXTRbT0hdKVtDQEhdKFtPSF0pW0NAQEhdKFtPSF0pT1tDQEBIXTRbQ0gyXVtPSF0=

> <s_epik_cmdline>
J2VwaWtfYXBwJywgJy1pbWFlJywgJ2xpZ2FuZF9wcm8ubWFlJywgJy1vbWFlJywgJ2xpZ2FuZF9wcmVwLm1hZScsICctbXMnLCAnMScsICctcGgnLCAnNycsICctcGh0JywgJzAuNScsICctbnQn

> <r_lp_tautomer_probability>
1

> <r_epik_Ionization_Penalty>
  0.0000

> <r_epik_Ionization_Penalty_Charging>
  0.0000

> <r_epik_Ionization_Penalty_Neutral>
  0.0000

> <r_epik_State_Penalty>
 -0.0000

> <r_epik_Charging_Adjusted_Penalty>
0

> <i_epik_Tot_Q>
0

> <i_epik_Tot_abs_Q>
0

> <s_epik_Chemistry_Notes>
This compound contains an acetal/aminal-like group ( X-CH(R)-Y where X, Y are N, S, or O) that may be acid/base labile, releasing an aldehyde.

$$$$
