3ob2_ligand
                    3D
 Schrodinger Suite 2020-3.
188190  0  0  1  0            999 V2000
  -67.1200   35.7050   -6.6780 N   0  3  0  0  0  0
  -65.9020   36.5720   -6.5530 C   0  0  2  0  0  0
  -65.4390   36.5190   -5.1180 C   0  0  0  0  0  0
  -64.3860   35.9200   -4.8240 O   0  0  0  0  0  0
  -66.2060   38.0170   -6.9600 C   0  0  0  0  0  0
  -65.3560   38.9340   -6.2930 O   0  0  0  0  0  0
  -66.2260   37.1660   -4.2460 N   0  0  0  0  0  0
  -66.1430   37.0080   -2.7860 C   0  0  2  0  0  0
  -67.3560   36.1440   -2.5460 C   0  0  0  0  0  0
  -68.3840   36.3660   -3.2180 O   0  0  0  0  0  0
  -66.3250   38.3440   -2.0280 C   0  0  0  0  0  0
  -65.2590   39.3930   -2.3270 C   0  0  0  0  0  0
  -64.1650   39.5630   -1.4730 C   0  0  0  0  0  0
  -65.3560   40.2170   -3.4620 C   0  0  0  0  0  0
  -63.1850   40.5290   -1.7540 C   0  0  0  0  0  0
  -64.3760   41.1980   -3.7440 C   0  0  0  0  0  0
  -63.2900   41.3480   -2.8870 C   0  0  0  0  0  0
  -67.2390   35.1700   -1.6410 N   0  0  0  0  0  0
  -68.3150   34.2350   -1.2810 C   0  0  2  0  0  0
  -67.9420   33.5640    0.0430 C   0  0  0  0  0  0
  -66.7480   33.4890    0.3770 O   0  0  0  0  0  0
  -68.5700   33.1680   -2.3590 C   0  0  0  0  0  0
  -69.5680   33.4810   -3.4880 C   0  0  0  0  0  0
  -69.2290   32.6720   -4.7430 C   0  0  0  0  0  0
  -71.0320   33.2970   -3.0640 C   0  0  0  0  0  0
  -68.9450   33.1060    0.8020 N   0  0  0  0  0  0
  -68.6920   32.4870    2.1140 C   0  0  2  0  0  0
  -67.7480   31.2900    1.9580 C   0  0  0  0  0  0
  -67.9640   30.4170    1.0990 O   0  0  0  0  0  0
  -69.9840   31.9980    2.8020 C   0  0  0  0  0  0
  -69.7150   31.3220    4.1550 C   0  0  0  0  0  0
  -70.9730   30.8580    4.8990 C   0  0  0  0  0  0
  -72.0650   31.3700    4.6740 O   0  0  0  0  0  0
  -70.8110   29.8910    5.8110 N   0  0  0  0  0  0
  -66.7000   31.2580    2.7810 N   0  0  0  0  0  0
  -65.8750   30.0840    2.8290 C   0  0  2  0  0  0
  -65.5930   29.7100    4.2670 C   0  0  0  0  0  0
  -66.4700   29.1600    4.9020 O   0  0  0  0  0  0
  -64.6270   30.2770    2.0120 C   0  0  0  0  0  0
  -64.1010   28.9550    1.5450 C   0  0  0  0  0  0
  -64.9410   28.3800    0.3730 C   0  0  0  0  0  0
  -64.3410   27.1450   -0.1330 N   0  0  0  0  0  0
  -64.8730   26.3780   -1.0900 C   0  0  0  0  0  0
  -66.0290   26.7280   -1.6870 N   0  0  0  0  0  0
  -64.2310   25.2580   -1.4770 N   0  0  0  0  0  0
  -64.4000   30.0260    4.7830 N   0  0  0  0  0  0
  -64.0090   29.5970    6.1120 C   0  0  2  0  0  0
  -64.1450   30.7540    7.0760 C   0  0  0  0  0  0
  -63.9630   31.9040    6.7330 O   0  0  0  0  0  0
  -62.6060   28.9140    6.1980 C   0  0  0  0  0  0
  -62.5040   27.6720    5.3120 C   0  0  0  0  0  0
  -63.1950   26.5020    5.6520 C   0  0  0  0  0  0
  -61.7670   27.6800    4.1240 C   0  0  0  0  0  0
  -63.1340   25.3730    4.8550 C   0  0  0  0  0  0
  -61.7120   26.5490    3.2970 C   0  0  0  0  0  0
  -62.4150   25.3910    3.6710 C   0  0  0  0  0  0
  -62.4380   24.3210    3.0080 O   0  0  0  0  0  0
  -61.7500   24.0430    1.5430 P   0  0  0  0  0  0
  -62.3960   24.9580    0.6050 O   0  0  0  0  0  0
  -62.1500   22.6510    1.1150 O   0  0  0  0  0  0
  -60.2360   24.3150    1.6580 O   0  0  0  0  0  0
  -64.4480   30.4190    8.3010 N   0  0  0  0  0  0
  -64.8030   31.3840    9.2850 C   0  0  1  0  0  0
  -66.2740   31.1470    9.6460 C   0  0  0  0  0  0
  -66.6970   31.7380   10.8690 O   0  0  0  0  0  0
  -63.8400   31.1590   10.4610 C   0  0  0  0  0  0
  -63.3470   30.0680   10.6960 O   0  0  0  0  0  0
  -66.9510   33.3460   10.7890 P   0  0  0  0  0  0
  -67.5480   33.6960    9.3250 O   0  0  0  0  0  0
  -65.5330   34.1180   10.9900 O   0  0  0  0  0  0
  -67.9530   33.8100   11.9600 O   0  0  0  0  0  0
  -63.5620   32.2030   11.1990 N   0  0  0  0  0  0
  -62.6410   32.1140   12.3230 C   0  0  2  0  0  0
  -63.0760   31.1080   13.4450 C   0  0  0  0  0  0
  -64.2620   30.9040   13.6640 O   0  0  0  0  0  0
  -62.4670   33.5480   12.8320 C   0  0  0  0  0  0
  -62.1440   33.5750   14.2090 O   0  0  0  0  0  0
  -62.1210   30.4380   14.1010 N   0  0  0  0  0  0
  -62.3840   29.5390   15.2470 C   0  0  2  0  0  0
  -63.4430   30.0990   16.2380 C   0  0  0  0  0  0
  -63.2640   31.1900   16.7970 O   0  0  0  0  0  0
  -61.0670   29.2890   16.0380 C   0  0  0  0  0  0
  -61.0080   27.9100   16.7160 C   0  0  0  0  0  0
  -62.0630   27.2780   16.9030 O   0  0  0  0  0  0
  -59.8870   27.4440   17.0620 O   0  0  0  0  0  0
  -64.5450   29.3540   16.4740 N   0  0  0  0  0  0
  -65.4820   29.7610   17.5440 C   0  0  2  0  0  0
  -65.0530   29.3430   18.9700 C   0  0  0  0  0  0
  -65.6420   29.8050   19.9490 O   0  0  0  0  0  0
  -66.7600   29.0060   17.1740 C   0  0  0  0  0  0
  -66.2570   27.7590   16.5050 C   0  0  0  0  0  0
  -65.0760   28.2250   15.6830 C   0  0  0  0  0  0
  -64.0530   28.4620   19.0680 N   0  0  0  0  0  0
  -63.7210   27.7830   20.3070 C   0  0  2  0  0  0
  -62.5940   28.4990   21.0130 C   0  0  0  0  0  0
  -62.0000   29.4470   20.4660 O   0  0  0  0  0  0
  -63.2310   26.3540   20.0470 C   0  0  2  0  0  0
  -61.9080   26.4070   19.4800 O   0  0  0  0  0  0
  -64.1950   25.5780   19.1000 C   0  0  0  0  0  0
  -62.2470   28.0920   22.1410 O   0  0  0  0  0  0
  -66.8700   34.6763   -6.3794 H   0  0  0  0  0  0
  -67.4678   35.7096   -7.7215 H   0  0  0  0  0  0
  -67.9152   36.0935   -6.0247 H   0  0  0  0  0  0
  -65.1188   36.1838   -7.2208 H   0  0  0  0  0  0
  -66.0590   38.1312   -8.0441 H   0  0  0  0  0  0
  -67.2481   38.2586   -6.7039 H   0  0  0  0  0  0
  -65.4543   40.0131   -6.4827 H   0  0  0  0  0  0
  -66.9685   37.8493   -4.6839 H   0  0  0  0  0  0
  -65.1705   36.5935   -2.4820 H   0  0  0  0  0  0
  -67.2946   38.7887   -2.2965 H   0  0  0  0  0  0
  -66.2945   38.1578   -0.9443 H   0  0  0  0  0  0
  -64.0721   38.9412   -0.5826 H   0  0  0  0  0  0
  -66.2027   40.0978   -4.1380 H   0  0  0  0  0  0
  -62.3332   40.6432   -1.0836 H   0  0  0  0  0  0
  -64.4711   41.8314   -4.6259 H   0  0  0  0  0  0
  -62.5261   42.0972   -3.0952 H   0  0  0  0  0  0
  -66.2566   35.0924   -1.1523 H   0  0  0  0  0  0
  -69.2249   34.8470   -1.1941 H   0  0  0  0  0  0
  -67.6273   32.9372   -2.8766 H   0  0  0  0  0  0
  -68.9616   32.2553   -1.8861 H   0  0  0  0  0  0
  -69.4642   34.5486   -3.7316 H   0  0  0  0  0  0
  -68.1740   32.8334   -5.0094 H   0  0  0  0  0  0
  -69.8712   32.9985   -5.5743 H   0  0  0  0  0  0
  -69.3983   31.6029   -4.5469 H   0  0  0  0  0  0
  -71.2302   33.8941   -2.1617 H   0  0  0  0  0  0
  -71.2209   32.2348   -2.8496 H   0  0  0  0  0  0
  -71.6938   33.6303   -3.8770 H   0  0  0  0  0  0
  -69.9750   33.1995    0.4274 H   0  0  0  0  0  0
  -68.2367   33.2954    2.7049 H   0  0  0  0  0  0
  -70.6514   32.8542    2.9797 H   0  0  0  0  0  0
  -70.4901   31.2668    2.1545 H   0  0  0  0  0  0
  -69.0888   30.4308    4.0015 H   0  0  0  0  0  0
  -69.1935   32.0265    4.8196 H   0  0  0  0  0  0
  -69.8144   29.4581    5.9825 H   0  0  0  0  0  0
  -71.6745   29.5296    6.3887 H   0  0  0  0  0  0
  -66.4651   32.1218    3.4203 H   0  0  0  0  0  0
  -66.4512   29.2724    2.3607 H   0  0  0  0  0  0
  -64.8552   30.9020    1.1361 H   0  0  0  0  0  0
  -63.8599   30.7719    2.6257 H   0  0  0  0  0  0
  -63.0636   29.0745    1.1994 H   0  0  0  0  0  0
  -64.1300   28.2346    2.3758 H   0  0  0  0  0  0
  -65.9605   28.1630    0.7245 H   0  0  0  0  0  0
  -64.9836   29.1161   -0.4433 H   0  0  0  0  0  0
  -63.3847   26.7895    0.2781 H   0  0  0  0  0  0
  -66.5554   27.6415   -1.3734 H   0  0  0  0  0  0
  -63.2870   24.9695   -0.9915 H   0  0  0  0  0  0
  -64.6510   24.6323   -2.2783 H   0  0  0  0  0  0
  -63.7088   30.6263    4.1733 H   0  0  0  0  0  0
  -64.7568   28.8262    6.3502 H   0  0  0  0  0  0
  -61.8316   29.6251    5.8746 H   0  0  0  0  0  0
  -62.4109   28.6064    7.2359 H   0  0  0  0  0  0
  -63.7929   26.4807    6.5631 H   0  0  0  0  0  0
  -61.2257   28.5811    3.8356 H   0  0  0  0  0  0
  -63.6541   24.4650    5.1600 H   0  0  0  0  0  0
  -61.1309   26.5677    2.3750 H   0  0  0  0  0  0
  -63.2141   22.3912    1.0135 H   0  0  0  0  0  0
  -59.8775   25.3086    1.9651 H   0  0  0  0  0  0
  -64.4225   29.3508    8.5623 H   0  0  0  0  0  0
  -64.6936   32.4046    8.8895 H   0  0  0  0  0  0
  -66.9169   31.5634    8.8566 H   0  0  0  0  0  0
  -66.4595   30.0667    9.7381 H   0  0  0  0  0  0
  -66.9754   33.4388    8.4217 H   0  0  0  0  0  0
  -64.7050   33.9390   10.2883 H   0  0  0  0  0  0
  -64.0407   33.1628   10.9549 H   0  0  0  0  0  0
  -61.7030   31.7037   11.9207 H   0  0  0  0  0  0
  -61.6554   34.0389   12.2749 H   0  0  0  0  0  0
  -63.4033   34.1059   12.6836 H   0  0  0  0  0  0
  -61.9880   34.5373   14.7186 H   0  0  0  0  0  0
  -61.0915   30.5858   13.7429 H   0  0  0  0  0  0
  -62.7760   28.6294   14.7685 H   0  0  0  0  0  0
  -60.2094   29.3546   15.3523 H   0  0  0  0  0  0
  -60.9639   30.0478   16.8277 H   0  0  0  0  0  0
  -59.8271   26.4591   17.5481 H   0  0  0  0  0  0
  -65.5432   30.8593   17.5537 H   0  0  0  0  0  0
  -67.3335   28.7867   18.0867 H   0  0  0  0  0  0
  -67.3688   29.6247   16.4982 H   0  0  0  0  0  0
  -65.9621   27.0258   17.2702 H   0  0  0  0  0  0
  -67.0533   27.3332   15.8768 H   0  0  0  0  0  0
  -65.3702   28.5827   14.6853 H   0  0  0  0  0  0
  -64.3004   27.4517   15.5812 H   0  0  0  0  0  0
  -63.4710   28.2595   18.1568 H   0  0  0  0  0  0
  -64.6569   27.8078   20.8845 H   0  0  0  0  0  0
  -63.1313   25.8166   21.0016 H   0  0  0  0  0  0
  -61.0985   26.9201   20.0197 H   0  0  0  0  0  0
  -65.2000   25.5460   19.5460 H   0  0  0  0  0  0
  -63.8235   24.5523   18.9591 H   0  0  0  0  0  0
  -64.2419   26.0880   18.1265 H   0  0  0  0  0  0
  -61.4293   28.5937   22.6792 H   0  0  0  0  0  0
  1  2  1  0  0  0
  1101  1  0  0  0
  1102  1  0  0  0
  1103  1  0  0  0
  2  3  1  0  0  0
  2  5  1  0  0  0
  2104  1  0  0  0
  3  4  2  0  0  0
  3  7  1  0  0  0
  5  6  1  0  0  0
  5105  1  0  0  0
  5106  1  0  0  0
  6107  1  0  0  0
  7  8  1  0  0  0
  7108  1  0  0  0
  8  9  1  0  0  0
  8 11  1  0  0  0
  8109  1  0  0  0
  9 10  2  0  0  0
  9 18  1  0  0  0
 11 12  1  0  0  0
 11110  1  0  0  0
 11111  1  0  0  0
 12 13  2  0  0  0
 12 14  1  0  0  0
 13 15  1  0  0  0
 13112  1  0  0  0
 14 16  2  0  0  0
 14113  1  0  0  0
 15 17  2  0  0  0
 15114  1  0  0  0
 16 17  1  0  0  0
 16115  1  0  0  0
 17116  1  0  0  0
 18 19  1  0  0  0
 18117  1  0  0  0
 19 20  1  0  0  0
 19 22  1  0  0  0
 19118  1  0  0  0
 20 21  2  0  0  0
 20 26  1  0  0  0
 22 23  1  0  0  0
 22119  1  0  0  0
 22120  1  0  0  0
 23 24  1  0  0  0
 23 25  1  0  0  0
 23121  1  0  0  0
 24122  1  0  0  0
 24123  1  0  0  0
 24124  1  0  0  0
 25125  1  0  0  0
 25126  1  0  0  0
 25127  1  0  0  0
 26 27  1  0  0  0
 26128  1  0  0  0
 27 28  1  0  0  0
 27 30  1  0  0  0
 27129  1  0  0  0
 28 29  2  0  0  0
 28 35  1  0  0  0
 30 31  1  0  0  0
 30130  1  0  0  0
 30131  1  0  0  0
 31 32  1  0  0  0
 31132  1  0  0  0
 31133  1  0  0  0
 32 33  2  0  0  0
 32 34  1  0  0  0
 34134  1  0  0  0
 34135  1  0  0  0
 35 36  1  0  0  0
 35136  1  0  0  0
 36 37  1  0  0  0
 36 39  1  0  0  0
 36137  1  0  0  0
 37 38  2  0  0  0
 37 46  1  0  0  0
 39 40  1  0  0  0
 39138  1  0  0  0
 39139  1  0  0  0
 40 41  1  0  0  0
 40140  1  0  0  0
 40141  1  0  0  0
 41 42  1  0  0  0
 41142  1  0  0  0
 41143  1  0  0  0
 42 43  1  0  0  0
 42144  1  0  0  0
 43 44  2  0  0  0
 43 45  1  0  0  0
 44145  1  0  0  0
 45146  1  0  0  0
 45147  1  0  0  0
 46 47  1  0  0  0
 46148  1  0  0  0
 47 48  1  0  0  0
 47 50  1  0  0  0
 47149  1  0  0  0
 48 49  2  0  0  0
 48 62  1  0  0  0
 50 51  1  0  0  0
 50150  1  0  0  0
 50151  1  0  0  0
 51 52  2  0  0  0
 51 53  1  0  0  0
 52 54  1  0  0  0
 52152  1  0  0  0
 53 55  2  0  0  0
 53153  1  0  0  0
 54 56  2  0  0  0
 54154  1  0  0  0
 55 56  1  0  0  0
 55155  1  0  0  0
 56 57  1  0  0  0
 57 58  1  0  0  0
 58 59  2  0  0  0
 58 60  1  0  0  0
 58 61  1  0  0  0
 60156  1  0  0  0
 61157  1  0  0  0
 62 63  1  0  0  0
 62158  1  0  0  0
 63 64  1  0  0  0
 63 66  1  0  0  0
 63159  1  0  0  0
 64 65  1  0  0  0
 64160  1  0  0  0
 64161  1  0  0  0
 65 68  1  0  0  0
 66 67  2  0  0  0
 66 72  1  0  0  0
 68 69  1  0  0  0
 68 70  1  0  0  0
 68 71  2  0  0  0
 69162  1  0  0  0
 70163  1  0  0  0
 72 73  1  0  0  0
 72164  1  0  0  0
 73 74  1  0  0  0
 73 76  1  0  0  0
 73165  1  0  0  0
 74 75  2  0  0  0
 74 78  1  0  0  0
 76 77  1  0  0  0
 76166  1  0  0  0
 76167  1  0  0  0
 77168  1  0  0  0
 78 79  1  0  0  0
 78169  1  0  0  0
 79 80  1  0  0  0
 79 82  1  0  0  0
 79170  1  0  0  0
 80 81  2  0  0  0
 80 86  1  0  0  0
 82 83  1  0  0  0
 82171  1  0  0  0
 82172  1  0  0  0
 83 84  2  0  0  0
 83 85  1  0  0  0
 85173  1  0  0  0
 86 87  1  0  0  0
 86 92  1  0  0  0
 87 88  1  0  0  0
 87 90  1  0  0  0
 87174  1  0  0  0
 88 89  2  0  0  0
 88 93  1  0  0  0
 90 91  1  0  0  0
 90175  1  0  0  0
 90176  1  0  0  0
 91 92  1  0  0  0
 91177  1  0  0  0
 91178  1  0  0  0
 92179  1  0  0  0
 92180  1  0  0  0
 93 94  1  0  0  0
 93181  1  0  0  0
 94 95  1  0  0  0
 94 97  1  0  0  0
 94182  1  0  0  0
 95 96  2  0  0  0
 95100  1  0  0  0
 97 98  1  0  0  0
 97 99  1  0  0  0
 97183  1  0  0  0
 98184  1  0  0  0
 99185  1  0  0  0
 99186  1  0  0  0
 99187  1  0  0  0
100188  1  0  0  0
M  CHG  1   1   1
M  END
> <s_m_source_file>
../3ob2_ligand.sdf

> <i_m_source_file_index>
1

> <s_epik_input>
W2NIXTFbY0hdW2NIXVtjSF1bY0hdYzFbQ0gyXVtDQEhdKFtOSF1DKD1PKVtDQEBIXShbTkgzK10pW0NIMl1bT0hdKUMoPU8pW05IXVtDQEBIXShbQ0gyXVtDSF0oW0NIM10pW0NIM10pQyg9TylbTkhdW0NAQEhdKFtDSDJdW0NIMl1DKD1PKVtOSDJdKUMoPU8pW05IXVtDQEBIXShbQ0gyXVtDSDJdW0NIMl1bTkhdL0MoPU5cW0hdKVtOSDJdKUMoPU8pW05IXVtDQEBIXShbQ0gyXWMyW2NIXVtjSF1jKFtjSF1bY0hdMilPUCg9TykoW09IXSlbT0hdKUMoPU8pW05IXVtDQEBIXShbQ0gyXU9QKD1PKShbT0hdKVtPSF0pQyg9TylbTkhdW0NAQEhdKFtDSDJdW09IXSlDKD1PKVtOSF1bQ0BASF0oW0NIMl1DKD1PKVtPSF0pQyg9TylOM1tDQEBIXShbQ0gyXVtDSDJdW0NIMl0zKUMoPU8pW05IXVtDQEhdKEMoPU8pW09IXSlbQ0BIXShbT0hdKVtDSDNd

> <s_epik_cmdline>
J2VwaWtfYXBwJywgJy1pbWFlJywgJ2xpZ2FuZF9wcm8ubWFlJywgJy1vbWFlJywgJ2xpZ2FuZF9wcmVwLm1hZScsICctbXMnLCAnMScsICctcGgnLCAnNycsICctcGh0JywgJzAuNScsICctbnQn

> <s_epik_pKa_notes>
Molecule size exceeds maximum supported for generating protonation states

> <s_epik_Chemistry_Notes>
This compound has an imine and may undergo hydrolysis.

$$$$
