3obq_ligand
                    3D
 Schrodinger Suite 2020-3.
129132  0  0  1  0            999 V2000
   -6.1050   -3.1100    3.8210 N   0  3  0  0  0  0
   -5.8500   -1.9030    3.0020 C   0  0  2  0  0  0
   -4.3940   -1.7900    2.5640 C   0  0  0  0  0  0
   -3.9180   -0.7000    2.2520 O   0  0  0  0  0  0
   -6.2650   -0.7130    3.8500 C   0  0  0  0  0  0
   -7.3780   -1.3250    4.6840 C   0  0  0  0  0  0
   -6.8610   -2.7400    5.0330 C   0  0  0  0  0  0
   -3.6980   -2.9230    2.5420 N   0  0  0  0  0  0
   -2.3020   -2.9560    2.1220 C   0  0  2  0  0  0
   -2.1910   -3.6680    0.7790 C   0  0  0  0  0  0
   -2.7610   -4.7440    0.5920 O   0  0  0  0  0  0
   -1.4120   -3.7030    3.1460 C   0  0  2  0  0  0
   -1.9200   -5.0290    3.3490 O   0  0  0  0  0  0
   -1.3800   -2.9620    4.4700 C   0  0  0  0  0  0
   -1.4650   -3.0680   -0.1760 N   0  0  0  0  0  0
   -1.2950   -3.6710   -1.4990 C   0  0  2  0  0  0
   -0.7360   -5.0840   -1.4000 C   0  0  0  0  0  0
    0.2190   -5.3350   -0.6620 O   0  0  0  0  0  0
   -0.3280   -2.7160   -2.1900 C   0  0  0  0  0  0
   -0.6860   -1.3980   -1.5830 C   0  0  0  0  0  0
   -0.8240   -1.7430   -0.1220 C   0  0  0  0  0  0
   -1.3360   -6.0060   -2.1440 N   0  0  0  0  0  0
   -0.8920   -7.3950   -2.1340 C   0  0  2  0  0  0
   -0.9870   -7.9950   -3.5280 C   0  0  0  0  0  0
   -1.7530   -7.5270   -4.3700 O   0  0  0  0  0  0
   -1.7360   -8.2120   -1.1520 C   0  0  0  0  0  0
   -3.1110   -8.1770   -1.4900 O   0  0  0  0  0  0
   -0.1970   -9.0350   -3.7610 N   0  0  0  0  0  0
   -0.1730   -9.7150   -5.0460 C   0  0  2  0  0  0
    0.0410  -11.2040   -4.8010 C   0  0  0  0  0  0
    0.6890  -11.5900   -3.8300 O   0  0  0  0  0  0
    0.9450   -9.1560   -5.9120 C   0  0  0  0  0  0
   -0.5010  -12.0600   -5.6810 N   0  0  0  0  0  0
   -0.3450  -13.5100   -5.5210 C   0  0  2  0  0  0
    1.0900  -13.9890   -5.7320 C   0  0  0  0  0  0
    1.8950  -13.3180   -6.3780 O   0  0  0  0  0  0
   -1.3030  -14.0700   -6.5650 C   0  0  0  0  0  0
   -1.2330  -13.0440   -7.6550 C   0  0  0  0  0  0
   -1.3020  -11.7460   -6.8790 C   0  0  0  0  0  0
    1.4030  -15.1530   -5.1720 N   0  0  0  0  0  0
    2.7310  -15.7320   -5.3050 C   0  0  2  0  0  0
    2.9060  -16.2840   -6.7180 C   0  0  0  0  0  0
    1.9410  -16.7240   -7.3430 O   0  0  0  0  0  0
    2.9450  -16.8780   -4.2970 C   0  0  0  0  0  0
    2.7950  -16.3590   -2.8770 C   0  0  0  0  0  0
    1.9470  -17.9960   -4.5610 C   0  0  0  0  0  0
    4.1390  -16.2560   -7.2130 N   0  0  0  0  0  0
    4.4410  -16.7540   -8.5590 C   0  0  2  0  0  0
    4.2680  -18.2660   -8.6560 C   0  0  0  0  0  0
    4.3420  -18.9620   -7.6430 O   0  0  0  0  0  0
    5.9130  -16.3800   -8.7430 C   0  0  0  0  0  0
    6.1010  -15.1840   -7.8800 C   0  0  0  0  0  0
    5.2110  -15.3930   -6.6870 C   0  0  0  0  0  0
    4.0410  -18.7640   -9.8670 N   0  0  0  0  0  0
    3.8590  -20.1930  -10.0870 C   0  0  2  0  0  0
    5.1990  -20.9200  -10.1200 C   0  0  0  0  0  0
    6.2310  -20.3270  -10.4340 O   0  0  0  0  0  0
    3.0930  -20.4430  -11.3880 C   0  0  0  0  0  0
    1.5820  -20.2050  -11.3410 C   0  0  0  0  0  0
    1.2740  -18.7170  -11.2730 C   0  0  0  0  0  0
    0.9000  -20.8440  -12.5410 C   0  0  0  0  0  0
    5.1810  -22.1390   -9.8490 O   0  5  0  0  0  0
   -6.6892   -3.8343    3.2345 H   0  0  0  0  0  0
   -5.1466   -3.5635    4.1140 H   0  0  0  0  0  0
   -6.4414   -1.9752    2.0773 H   0  0  0  0  0  0
   -5.4066   -0.3709    4.4468 H   0  0  0  0  0  0
   -6.6049    0.1030    3.1954 H   0  0  0  0  0  0
   -7.5412   -0.7129    5.5833 H   0  0  0  0  0  0
   -8.3039   -1.3596    4.0911 H   0  0  0  0  0  0
   -7.6732   -3.4642    5.1938 H   0  0  0  0  0  0
   -6.1866   -2.7464    5.9020 H   0  0  0  0  0  0
   -4.2014   -3.8509    2.8512 H   0  0  0  0  0  0
   -2.0090   -1.8984    2.0471 H   0  0  0  0  0  0
   -0.3861   -3.8247    2.7682 H   0  0  0  0  0  0
   -2.0160   -5.7177    2.4966 H   0  0  0  0  0  0
   -0.9902   -1.9456    4.3120 H   0  0  0  0  0  0
   -0.7285   -3.4991    5.1751 H   0  0  0  0  0  0
   -2.3981   -2.9043    4.8825 H   0  0  0  0  0  0
   -2.2590   -3.7741   -2.0187 H   0  0  0  0  0  0
    0.7064   -3.0198   -1.9714 H   0  0  0  0  0  0
   -0.4970   -2.7456   -3.2765 H   0  0  0  0  0  0
    0.1188   -0.6739   -1.7778 H   0  0  0  0  0  0
   -1.6236   -1.0324   -2.0271 H   0  0  0  0  0  0
   -1.4731   -1.0437    0.4254 H   0  0  0  0  0  0
    0.1442   -1.8248    0.3937 H   0  0  0  0  0  0
   -2.1838   -5.7041   -2.7765 H   0  0  0  0  0  0
    0.1599   -7.3737   -1.8130 H   0  0  0  0  0  0
   -1.4022   -9.2601   -1.1654 H   0  0  0  0  0  0
   -1.6177   -7.8025   -0.1379 H   0  0  0  0  0  0
   -3.8429   -8.7197   -0.8737 H   0  0  0  0  0  0
    0.4538   -9.3799   -2.9440 H   0  0  0  0  0  0
   -1.1399   -9.5302   -5.5368 H   0  0  0  0  0  0
    0.7767   -8.0820   -6.0797 H   0  0  0  0  0  0
    0.9572   -9.6806   -6.8788 H   0  0  0  0  0  0
    1.9098   -9.3011   -5.4039 H   0  0  0  0  0  0
   -0.5791  -13.8098   -4.4889 H   0  0  0  0  0  0
   -0.9533  -15.0612   -6.8893 H   0  0  0  0  0  0
   -2.3087  -14.1607   -6.1287 H   0  0  0  0  0  0
   -0.2907  -13.1624   -8.2100 H   0  0  0  0  0  0
   -2.0821  -13.1793   -8.3411 H   0  0  0  0  0  0
   -2.3254  -11.4794   -6.5763 H   0  0  0  0  0  0
   -0.8457  -10.9000   -7.4138 H   0  0  0  0  0  0
    0.6281  -15.6805   -4.5964 H   0  0  0  0  0  0
    3.4261  -14.9036   -5.1036 H   0  0  0  0  0  0
    3.9606  -17.2859   -4.4074 H   0  0  0  0  0  0
    3.5225  -15.5525   -2.7026 H   0  0  0  0  0  0
    2.9781  -17.1781   -2.1660 H   0  0  0  0  0  0
    1.7758  -15.9706   -2.7343 H   0  0  0  0  0  0
    2.0686  -18.3601   -5.5918 H   0  0  0  0  0  0
    0.9244  -17.6142   -4.4252 H   0  0  0  0  0  0
    2.1267  -18.8217   -3.8568 H   0  0  0  0  0  0
    3.7526  -16.3121   -9.2944 H   0  0  0  0  0  0
    6.5474  -17.2204   -8.4248 H   0  0  0  0  0  0
    6.1049  -16.1565   -9.8028 H   0  0  0  0  0  0
    7.1570  -15.1100   -7.5810 H   0  0  0  0  0  0
    5.8137  -14.2805   -8.4378 H   0  0  0  0  0  0
    4.7763  -14.4530   -6.3164 H   0  0  0  0  0  0
    5.7259  -15.9088   -5.8630 H   0  0  0  0  0  0
    3.9920  -18.0662  -10.7159 H   0  0  0  0  0  0
    3.2734  -20.5431   -9.2241 H   0  0  0  0  0  0
    3.4797  -19.7785  -12.1747 H   0  0  0  0  0  0
    3.2249  -21.4908  -11.6956 H   0  0  0  0  0  0
    1.1802  -20.6762  -10.4318 H   0  0  0  0  0  0
    1.7771  -18.2780  -10.3988 H   0  0  0  0  0  0
    0.1875  -18.5713  -11.1822 H   0  0  0  0  0  0
    1.6347  -18.2257  -12.1887 H   0  0  0  0  0  0
    1.1371  -21.9178  -12.5687 H   0  0  0  0  0  0
    1.2584  -20.3654  -13.4643 H   0  0  0  0  0  0
   -0.1887  -20.7109  -12.4578 H   0  0  0  0  0  0
  1  2  1  0  0  0
  1  7  1  0  0  0
  1 63  1  0  0  0
  1 64  1  0  0  0
  2  3  1  0  0  0
  2  5  1  0  0  0
  2 65  1  0  0  0
  3  4  2  0  0  0
  3  8  1  0  0  0
  5  6  1  0  0  0
  5 66  1  0  0  0
  5 67  1  0  0  0
  6  7  1  0  0  0
  6 68  1  0  0  0
  6 69  1  0  0  0
  7 70  1  0  0  0
  7 71  1  0  0  0
  8  9  1  0  0  0
  8 72  1  0  0  0
  9 10  1  0  0  0
  9 12  1  0  0  0
  9 73  1  0  0  0
 10 11  2  0  0  0
 10 15  1  0  0  0
 12 13  1  0  0  0
 12 14  1  0  0  0
 12 74  1  0  0  0
 13 75  1  0  0  0
 14 76  1  0  0  0
 14 77  1  0  0  0
 14 78  1  0  0  0
 15 16  1  0  0  0
 15 21  1  0  0  0
 16 17  1  0  0  0
 16 19  1  0  0  0
 16 79  1  0  0  0
 17 18  2  0  0  0
 17 22  1  0  0  0
 19 20  1  0  0  0
 19 80  1  0  0  0
 19 81  1  0  0  0
 20 21  1  0  0  0
 20 82  1  0  0  0
 20 83  1  0  0  0
 21 84  1  0  0  0
 21 85  1  0  0  0
 22 23  1  0  0  0
 22 86  1  0  0  0
 23 24  1  0  0  0
 23 26  1  0  0  0
 23 87  1  0  0  0
 24 25  2  0  0  0
 24 28  1  0  0  0
 26 27  1  0  0  0
 26 88  1  0  0  0
 26 89  1  0  0  0
 27 90  1  0  0  0
 28 29  1  0  0  0
 28 91  1  0  0  0
 29 30  1  0  0  0
 29 32  1  0  0  0
 29 92  1  0  0  0
 30 31  2  0  0  0
 30 33  1  0  0  0
 32 93  1  0  0  0
 32 94  1  0  0  0
 32 95  1  0  0  0
 33 34  1  0  0  0
 33 39  1  0  0  0
 34 35  1  0  0  0
 34 37  1  0  0  0
 34 96  1  0  0  0
 35 36  2  0  0  0
 35 40  1  0  0  0
 37 38  1  0  0  0
 37 97  1  0  0  0
 37 98  1  0  0  0
 38 39  1  0  0  0
 38 99  1  0  0  0
 38100  1  0  0  0
 39101  1  0  0  0
 39102  1  0  0  0
 40 41  1  0  0  0
 40103  1  0  0  0
 41 42  1  0  0  0
 41 44  1  0  0  0
 41104  1  0  0  0
 42 43  2  0  0  0
 42 47  1  0  0  0
 44 45  1  0  0  0
 44 46  1  0  0  0
 44105  1  0  0  0
 45106  1  0  0  0
 45107  1  0  0  0
 45108  1  0  0  0
 46109  1  0  0  0
 46110  1  0  0  0
 46111  1  0  0  0
 47 48  1  0  0  0
 47 53  1  0  0  0
 48 49  1  0  0  0
 48 51  1  0  0  0
 48112  1  0  0  0
 49 50  2  0  0  0
 49 54  1  0  0  0
 51 52  1  0  0  0
 51113  1  0  0  0
 51114  1  0  0  0
 52 53  1  0  0  0
 52115  1  0  0  0
 52116  1  0  0  0
 53117  1  0  0  0
 53118  1  0  0  0
 54 55  1  0  0  0
 54119  1  0  0  0
 55 56  1  0  0  0
 55 58  1  0  0  0
 55120  1  0  0  0
 56 57  2  0  0  0
 56 62  1  0  0  0
 58 59  1  0  0  0
 58121  1  0  0  0
 58122  1  0  0  0
 59 60  1  0  0  0
 59 61  1  0  0  0
 59123  1  0  0  0
 60124  1  0  0  0
 60125  1  0  0  0
 60126  1  0  0  0
 61127  1  0  0  0
 61128  1  0  0  0
 61129  1  0  0  0
M  CHG  2   1   1  62  -1
M  END
> <s_m_source_file>
../3obq_ligand.sdf

> <i_m_source_file_index>
1

> <s_epik_input>
W0NIMl0xW0NIMl1bQ0gyXVtOSDIrXVtDQEBIXTFDKD1PKVtOSF1bQ0BASF0oW0NASF0oW09IXSlbQ0gzXSlDKD1PKU4yW0NAQEhdKFtDSDJdW0NIMl1bQ0gyXTIpQyg9TylbTkhdW0NAQEhdKFtDSDJdW09IXSlDKD1PKVtOSF1bQ0BASF0oW0NIM10pQyg9TylOM1tDQEBIXShbQ0gyXVtDSDJdW0NIMl0zKUMoPU8pW05IXVtDQEBIXShbQ0hdKFtDSDNdKVtDSDNdKUMoPU8pTjRbQ0BASF0oW0NIMl1bQ0gyXVtDSDJdNClDKD1PKVtOSF1bQ0BIXShDKD1PKVtPSF0pW0NIMl1bQ0hdKFtDSDNdKVtDSDNd

> <s_epik_cmdline>
J2VwaWtfYXBwJywgJy1pbWFlJywgJ2xpZ2FuZF9wcm8ubWFlJywgJy1vbWFlJywgJ2xpZ2FuZF9wcmVwLm1hZScsICctbXMnLCAnMScsICctcGgnLCAnNycsICctcGh0JywgJzAuNScsICctbnQn

> <r_epik_Ionization_Penalty>
  0.0416

> <r_epik_Ionization_Penalty_Charging>
  0.0416

> <r_epik_Ionization_Penalty_Neutral>
  0.0000

> <r_epik_State_Penalty>
  0.0349

> <r_epik_Charging_Adjusted_Penalty>
0.0765326156314517

> <i_epik_Tot_Q>
0

> <i_epik_Tot_abs_Q>
2

$$$$
