3obu_ligand
                    3D
 Schrodinger Suite 2020-3.
128131  0  0  1  0            999 V2000
   -7.2870   -2.6170    1.9870 N   0  3  0  0  0  0
   -6.5670   -1.8520    3.0300 C   0  0  2  0  0  0
   -5.0820   -1.7820    2.6930 C   0  0  0  0  0  0
   -4.5070   -0.6990    2.5660 O   0  0  0  0  0  0
   -6.7910   -2.5830    4.3460 C   0  0  0  0  0  0
   -8.0880   -3.3460    4.0670 C   0  0  0  0  0  0
   -7.9940   -3.7590    2.5940 C   0  0  0  0  0  0
   -4.4720   -2.9520    2.5460 N   0  0  0  0  0  0
   -3.0530   -3.0560    2.2240 C   0  0  2  0  0  0
   -2.8650   -3.7660    0.8830 C   0  0  0  0  0  0
   -3.4590   -4.8130    0.6470 O   0  0  0  0  0  0
   -2.3350   -3.8340    3.3290 C   0  0  0  0  0  0
   -0.9640   -4.3500    2.9430 C   0  0  0  0  0  0
    0.1370   -3.7210    3.7630 C   0  0  0  0  0  0
    0.1970   -2.4740    3.8080 O   0  0  0  0  0  0
    0.9420   -4.4710    4.3550 O   0  5  0  0  0  0
   -2.0370   -3.2000   -0.0130 N   0  0  0  0  0  0
   -1.7980   -3.8140   -1.3230 C   0  0  2  0  0  0
   -1.3010   -5.2500   -1.1840 C   0  0  0  0  0  0
   -0.3850   -5.5240   -0.4110 O   0  0  0  0  0  0
   -0.7410   -2.9050   -1.9460 C   0  0  0  0  0  0
   -1.0390   -1.5690   -1.3370 C   0  0  0  0  0  0
   -1.3000   -1.9310    0.1140 C   0  0  0  0  0  0
   -1.9160   -6.1650   -1.9220 N   0  0  0  0  0  0
   -1.5070   -7.5630   -1.8880 C   0  0  2  0  0  0
   -1.5450   -8.1200   -3.3030 C   0  0  0  0  0  0
   -2.2540   -7.5990   -4.1640 O   0  0  0  0  0  0
   -2.4350   -8.4220   -0.9930 C   0  0  2  0  0  0
   -3.7950   -8.2700   -1.4170 O   0  0  0  0  0  0
   -2.3010   -8.0130    0.4680 C   0  0  0  0  0  0
   -0.7790   -9.1780   -3.5370 N   0  0  0  0  0  0
   -0.7260   -9.8070   -4.8480 C   0  0  2  0  0  0
   -0.5890  -11.3130   -4.6720 C   0  0  0  0  0  0
   -0.0430  -11.7800   -3.6730 O   0  0  0  0  0  0
    0.4540   -9.2610   -5.6350 C   0  0  0  0  0  0
   -1.0920  -12.0930   -5.6390 N   0  0  0  0  0  0
   -1.0110  -13.5550   -5.5630 C   0  0  2  0  0  0
    0.3900  -14.0780   -5.8610 C   0  0  0  0  0  0
    1.2100  -13.3830   -6.4500 O   0  0  0  0  0  0
   -2.0230  -14.0030   -6.6100 C   0  0  0  0  0  0
   -1.8590  -12.9580   -7.6680 C   0  0  0  0  0  0
   -1.8050  -11.6700   -6.8590 C   0  0  0  0  0  0
    0.6870  -15.3160   -5.4420 N   0  0  0  0  0  0
    2.0200  -15.8680   -5.7110 C   0  0  2  0  0  0
    2.1170  -16.3290   -7.1660 C   0  0  0  0  0  0
    1.0960  -16.5840   -7.7980 O   0  0  0  0  0  0
    2.1160  -17.0270   -4.7250 C   0  0  0  0  0  0
    0.6890  -17.5000   -4.6310 C   0  0  0  0  0  0
   -0.0940  -16.2040   -4.5610 C   0  0  0  0  0  0
    3.3310  -16.4260   -7.7030 N   0  0  0  0  0  0
    3.4920  -16.8660   -9.0870 C   0  0  2  0  0  0
    2.7310  -18.1700   -9.3030 C   0  0  0  0  0  0
    3.0330  -19.1820   -8.6730 O   0  0  0  0  0  0
    4.9710  -17.0670   -9.4340 C   0  0  0  0  0  0
    5.7710  -15.7780   -9.6450 C   0  0  0  0  0  0
    5.2720  -14.9400  -10.8170 C   0  0  0  0  0  0
    4.7570  -15.5180  -11.8000 O   0  0  0  0  0  0
    5.4150  -13.6980  -10.7660 O   0  5  0  0  0  0
    1.7380  -18.1120  -10.1880 N   0  0  0  0  0  0
    0.8720  -19.2360  -10.5520 C   0  0  2  0  0  0
   -0.4790  -18.7150  -11.0320 C   0  0  0  0  0  0
   -1.4720  -18.8840  -10.2880 O   0  5  0  0  0  0
    0.6370  -20.1950   -9.3760 C   0  0  0  0  0  0
    1.6570  -21.3190   -9.2670 C   0  0  0  0  0  0
    1.9130  -21.9910  -10.5930 C   0  0  0  0  0  0
    0.9690  -22.5940  -11.1480 O   0  5  0  0  0  0
    3.0590  -21.9070  -11.0840 O   0  0  0  0  0  0
   -0.5280  -18.1390  -12.1390 O   0  0  0  0  0  0
   -8.0183   -1.9619    1.4910 H   0  0  0  0  0  0
   -6.5672   -2.9914    1.2443 H   0  0  0  0  0  0
   -6.9568   -0.8244    3.0761 H   0  0  0  0  0  0
   -5.9358   -3.2447    4.5480 H   0  0  0  0  0  0
   -6.8880   -1.8502    5.1606 H   0  0  0  0  0  0
   -8.1491   -4.2206    4.7314 H   0  0  0  0  0  0
   -8.9485   -2.6857    4.2500 H   0  0  0  0  0  0
   -8.9795   -3.8744    2.1193 H   0  0  0  0  0  0
   -7.4054   -4.6761    2.4445 H   0  0  0  0  0  0
   -5.0748   -3.8630    2.6755 H   0  0  0  0  0  0
   -2.6713   -2.0263    2.1600 H   0  0  0  0  0  0
   -2.1974   -3.1835    4.2053 H   0  0  0  0  0  0
   -2.9383   -4.7089    3.6129 H   0  0  0  0  0  0
   -0.9248   -5.4383    3.0981 H   0  0  0  0  0  0
   -0.7717   -4.1234    1.8839 H   0  0  0  0  0  0
   -2.7280   -3.8755   -1.9072 H   0  0  0  0  0  0
    0.2612   -3.2742   -1.6829 H   0  0  0  0  0  0
   -0.8562   -2.9048   -3.0400 H   0  0  0  0  0  0
   -0.1709   -0.9058   -1.4652 H   0  0  0  0  0  0
   -1.9149   -1.1266   -1.8340 H   0  0  0  0  0  0
   -1.9274   -1.1932    0.6355 H   0  0  0  0  0  0
   -0.3771   -2.0989    0.6885 H   0  0  0  0  0  0
   -2.7491   -5.8512   -2.5681 H   0  0  0  0  0  0
   -0.4868   -7.5496   -1.4769 H   0  0  0  0  0  0
   -2.2102   -9.4934   -1.1001 H   0  0  0  0  0  0
   -4.0804   -8.5200   -2.4495 H   0  0  0  0  0  0
   -1.2552   -8.1318    0.7876 H   0  0  0  0  0  0
   -2.9486   -8.6504    1.0880 H   0  0  0  0  0  0
   -2.6025   -6.9615    0.5835 H   0  0  0  0  0  0
   -0.1745   -9.5786   -2.7099 H   0  0  0  0  0  0
   -1.6640   -9.5614   -5.3675 H   0  0  0  0  0  0
    0.3429   -8.1732   -5.7550 H   0  0  0  0  0  0
    0.4861   -9.7378   -6.6258 H   0  0  0  0  0  0
    1.3870   -9.4768   -5.0938 H   0  0  0  0  0  0
   -1.2318  -13.9069   -4.5445 H   0  0  0  0  0  0
   -1.7661  -15.0140   -6.9592 H   0  0  0  0  0  0
   -3.0295  -14.0130   -6.1664 H   0  0  0  0  0  0
   -0.9322  -13.1471   -8.2295 H   0  0  0  0  0  0
   -2.7175  -12.9936   -8.3548 H   0  0  0  0  0  0
   -2.8021  -11.2923   -6.5886 H   0  0  0  0  0  0
   -1.2346  -10.8737   -7.3596 H   0  0  0  0  0  0
    2.8163  -15.1220   -5.5713 H   0  0  0  0  0  0
    2.7932  -17.7951   -5.1268 H   0  0  0  0  0  0
    2.5067  -16.6599   -3.7645 H   0  0  0  0  0  0
    0.4412  -18.0968   -5.5212 H   0  0  0  0  0  0
    0.5662  -18.1181   -3.7294 H   0  0  0  0  0  0
   -0.1273  -15.7780   -3.5474 H   0  0  0  0  0  0
   -1.1177  -16.3005   -4.9519 H   0  0  0  0  0  0
    4.2155  -16.1731   -7.0998 H   0  0  0  0  0  0
    3.0710  -16.0611   -9.7075 H   0  0  0  0  0  0
    5.4676  -17.6145   -8.6194 H   0  0  0  0  0  0
    5.0536  -17.6437  -10.3671 H   0  0  0  0  0  0
    5.7057  -15.1539   -8.7415 H   0  0  0  0  0  0
    6.8238  -16.0280   -9.8426 H   0  0  0  0  0  0
    1.5899  -17.1287  -10.6584 H   0  0  0  0  0  0
    1.4169  -19.7552  -11.3542 H   0  0  0  0  0  0
    0.6770  -19.6332   -8.4311 H   0  0  0  0  0  0
   -0.3508  -20.6676   -9.4800 H   0  0  0  0  0  0
    2.6117  -20.9135   -8.9009 H   0  0  0  0  0  0
    1.2890  -22.0813   -8.5645 H   0  0  0  0  0  0
  1  2  1  0  0  0
  1  7  1  0  0  0
  1 69  1  0  0  0
  1 70  1  0  0  0
  2  3  1  0  0  0
  2  5  1  0  0  0
  2 71  1  0  0  0
  3  4  2  0  0  0
  3  8  1  0  0  0
  5  6  1  0  0  0
  5 72  1  0  0  0
  5 73  1  0  0  0
  6  7  1  0  0  0
  6 74  1  0  0  0
  6 75  1  0  0  0
  7 76  1  0  0  0
  7 77  1  0  0  0
  8  9  1  0  0  0
  8 78  1  0  0  0
  9 10  1  0  0  0
  9 12  1  0  0  0
  9 79  1  0  0  0
 10 11  2  0  0  0
 10 17  1  0  0  0
 12 13  1  0  0  0
 12 80  1  0  0  0
 12 81  1  0  0  0
 13 14  1  0  0  0
 13 82  1  0  0  0
 13 83  1  0  0  0
 14 15  2  0  0  0
 14 16  1  0  0  0
 17 18  1  0  0  0
 17 23  1  0  0  0
 18 19  1  0  0  0
 18 21  1  0  0  0
 18 84  1  0  0  0
 19 20  2  0  0  0
 19 24  1  0  0  0
 21 22  1  0  0  0
 21 85  1  0  0  0
 21 86  1  0  0  0
 22 23  1  0  0  0
 22 87  1  0  0  0
 22 88  1  0  0  0
 23 89  1  0  0  0
 23 90  1  0  0  0
 24 25  1  0  0  0
 24 91  1  0  0  0
 25 26  1  0  0  0
 25 28  1  0  0  0
 25 92  1  0  0  0
 26 27  2  0  0  0
 26 31  1  0  0  0
 28 29  1  0  0  0
 28 30  1  0  0  0
 28 93  1  0  0  0
 29 94  1  0  0  0
 30 95  1  0  0  0
 30 96  1  0  0  0
 30 97  1  0  0  0
 31 32  1  0  0  0
 31 98  1  0  0  0
 32 33  1  0  0  0
 32 35  1  0  0  0
 32 99  1  0  0  0
 33 34  2  0  0  0
 33 36  1  0  0  0
 35100  1  0  0  0
 35101  1  0  0  0
 35102  1  0  0  0
 36 37  1  0  0  0
 36 42  1  0  0  0
 37 38  1  0  0  0
 37 40  1  0  0  0
 37103  1  0  0  0
 38 39  2  0  0  0
 38 43  1  0  0  0
 40 41  1  0  0  0
 40104  1  0  0  0
 40105  1  0  0  0
 41 42  1  0  0  0
 41106  1  0  0  0
 41107  1  0  0  0
 42108  1  0  0  0
 42109  1  0  0  0
 43 44  1  0  0  0
 43 49  1  0  0  0
 44 45  1  0  0  0
 44 47  1  0  0  0
 44110  1  0  0  0
 45 46  2  0  0  0
 45 50  1  0  0  0
 47 48  1  0  0  0
 47111  1  0  0  0
 47112  1  0  0  0
 48 49  1  0  0  0
 48113  1  0  0  0
 48114  1  0  0  0
 49115  1  0  0  0
 49116  1  0  0  0
 50 51  1  0  0  0
 50117  1  0  0  0
 51 52  1  0  0  0
 51 54  1  0  0  0
 51118  1  0  0  0
 52 53  2  0  0  0
 52 59  1  0  0  0
 54 55  1  0  0  0
 54119  1  0  0  0
 54120  1  0  0  0
 55 56  1  0  0  0
 55121  1  0  0  0
 55122  1  0  0  0
 56 57  2  0  0  0
 56 58  1  0  0  0
 59 60  1  0  0  0
 59123  1  0  0  0
 60 61  1  0  0  0
 60 63  1  0  0  0
 60124  1  0  0  0
 61 62  1  0  0  0
 61 68  2  0  0  0
 63 64  1  0  0  0
 63125  1  0  0  0
 63126  1  0  0  0
 64 65  1  0  0  0
 64127  1  0  0  0
 64128  1  0  0  0
 65 66  1  0  0  0
 65 67  2  0  0  0
M  CHG  5   1   1  16  -1  58  -1  62  -1  66  -1
M  END
> <s_m_source_file>
../3obu_ligand.sdf

> <i_m_source_file_index>
1

> <s_epik_input>
W0NIMl0xW0NIMl1bQ0gyXVtOSDIrXVtDQEBIXTFDKD1PKVtOSF1bQ0BASF0oW0NIMl1bQ0gyXUMoPU8pW09IXSlDKD1PKU4yW0NAQEhdKFtDSDJdW0NIMl1bQ0gyXTIpQyg9TylbTkhdW0NAQEhdKFtDQEhdKFtPSF0pW0NIM10pQyg9TylbTkhdW0NAQEhdKFtDSDNdKUMoPU8pTjNbQ0BASF0oW0NIMl1bQ0gyXVtDSDJdMylDKD1PKU40W0NAQEhdKFtDSDJdW0NIMl1bQ0gyXTQpQyg9TylbTkhdW0NAQEhdKFtDSDJdW0NIMl1DKD1PKVtPSF0pQyg9TylbTkhdW0NASF0oQyg9TylbT0hdKVtDSDJdW0NIMl1DKD1PKVtPSF0=

> <s_epik_cmdline>
J2VwaWtfYXBwJywgJy1pbWFlJywgJ2xpZ2FuZF9wcm8ubWFlJywgJy1vbWFlJywgJ2xpZ2FuZF9wcmVwLm1hZScsICctbXMnLCAnMScsICctcGgnLCAnNycsICctcGh0JywgJzAuNScsICctbnQn

> <r_epik_Ionization_Penalty>
  0.0454

> <r_epik_Ionization_Penalty_Charging>
  0.0454

> <r_epik_Ionization_Penalty_Neutral>
  0.0000

> <r_epik_State_Penalty>
  0.0323

> <r_epik_Charging_Adjusted_Penalty>
0.0776905686935406

> <i_epik_Tot_Q>
-3

> <i_epik_Tot_abs_Q>
5

$$$$
