3oc0_ligand
                    3D
 Schrodinger Suite 2020-3.
 54 56  0  0  1  0            999 V2000
   43.5800   53.1650   30.4560 C   0  0  0  0  0  0
   45.0080   51.2800   30.1750 C   0  0  0  0  0  0
   44.1650   52.1960   29.5900 O   0  0  0  0  0  0
   45.3260   51.3610   31.5310 C   0  0  0  0  0  0
   46.1730   50.4070   32.0970 C   0  0  0  0  0  0
   46.5230   50.4300   33.5580 C   0  0  1  0  0  0
   46.6940   49.3770   31.3150 C   0  0  0  0  0  0
   47.5570   48.3440   31.9770 C   0  0  0  0  0  0
   48.5530   49.0070   32.9380 C   0  0  0  0  0  0
   47.9400   50.0640   33.7920 N   0  0  2  0  0  0
   48.1060   49.7880   35.2290 C   0  0  0  0  0  0
   47.9370   51.1360   35.9650 C   0  0  2  0  0  0
   48.0550   50.9910   37.4670 C   0  0  0  0  0  0
   48.6480   49.8450   38.2580 C   0  0  0  0  0  0
   48.8260   50.0250   39.7120 C   0  0  0  0  0  0
   48.1970   49.0880   40.7120 C   0  0  0  0  0  0
   46.5840   51.8120   35.6830 C   0  0  1  0  0  0
   46.9590   53.1880   35.7500 N   0  3  0  0  0  0
   46.2970   51.8130   34.1690 C   0  0  0  0  0  0
   46.3830   49.2960   29.9590 C   0  0  0  0  0  0
   45.5380   50.2500   29.3900 C   0  0  0  0  0  0
   45.1990   50.1870   28.0590 O   0  0  0  0  0  0
   45.7150   49.0810   27.3240 C   0  0  0  0  0  0
   42.9315   53.8346   29.8720 H   0  0  0  0  0  0
   44.3747   53.7530   30.9383 H   0  0  0  0  0  0
   42.9823   52.6553   31.2260 H   0  0  0  0  0  0
   44.9159   52.1636   32.1440 H   0  0  0  0  0  0
   45.8808   49.6709   34.0284 H   0  0  0  0  0  0
   46.9238   47.6469   32.5454 H   0  0  0  0  0  0
   48.1174   47.7886   31.2106 H   0  0  0  0  0  0
   48.9771   48.2457   33.6092 H   0  0  0  0  0  0
   49.3619   49.4780   32.3602 H   0  0  0  0  0  0
   47.3418   49.0669   35.5545 H   0  0  0  0  0  0
   49.1066   49.3679   35.4085 H   0  0  0  0  0  0
   48.7584   51.7655   35.5921 H   0  0  0  0  0  0
   48.6605   51.8169   37.8686 H   0  0  0  0  0  0
   47.0521   51.0186   37.9180 H   0  0  0  0  0  0
   48.0051   48.9582   38.1567 H   0  0  0  0  0  0
   49.6527   49.6153   37.8736 H   0  0  0  0  0  0
   49.8962   49.9692   39.9600 H   0  0  0  0  0  0
   48.4310   51.0071   40.0110 H   0  0  0  0  0  0
   48.4597   49.4089   41.7308 H   0  0  0  0  0  0
   48.5688   48.0668   40.5419 H   0  0  0  0  0  0
   47.1036   49.1047   40.5928 H   0  0  0  0  0  0
   45.7839   51.4228   36.3298 H   0  0  0  0  0  0
   47.2235   53.4459   36.7861 H   0  0  0  0  0  0
   46.1169   53.8140   35.4198 H   0  0  0  0  0  0
   47.8255   53.3642   35.0957 H   0  0  0  0  0  0
   46.9666   52.5406   33.6871 H   0  0  0  0  0  0
   45.2515   52.1169   34.0120 H   0  0  0  0  0  0
   46.7964   48.4939   29.3476 H   0  0  0  0  0  0
   45.3751   49.1441   26.2797 H   0  0  0  0  0  0
   45.3538   48.1431   27.7711 H   0  0  0  0  0  0
   46.8144   49.1019   27.3537 H   0  0  0  0  0  0
  1  3  1  0  0  0
  1 24  1  0  0  0
  1 25  1  0  0  0
  1 26  1  0  0  0
  2  3  1  0  0  0
  2  4  2  0  0  0
  2 21  1  0  0  0
  4  5  1  0  0  0
  4 27  1  0  0  0
  5  6  1  0  0  0
  5  7  2  0  0  0
  6 10  1  0  0  0
  6 19  1  0  0  0
  6 28  1  0  0  0
  7  8  1  0  0  0
  7 20  1  0  0  0
  8  9  1  0  0  0
  8 29  1  0  0  0
  8 30  1  0  0  0
  9 10  1  0  0  0
  9 31  1  0  0  0
  9 32  1  0  0  0
 10 11  1  0  0  0
 11 12  1  0  0  0
 11 33  1  0  0  0
 11 34  1  0  0  0
 12 13  1  0  0  0
 12 17  1  0  0  0
 12 35  1  0  0  0
 13 14  1  0  0  0
 13 36  1  0  0  0
 13 37  1  0  0  0
 14 15  1  0  0  0
 14 38  1  0  0  0
 14 39  1  0  0  0
 15 16  1  0  0  0
 15 40  1  0  0  0
 15 41  1  0  0  0
 16 42  1  0  0  0
 16 43  1  0  0  0
 16 44  1  0  0  0
 17 18  1  0  0  0
 17 19  1  0  0  0
 17 45  1  0  0  0
 18 46  1  0  0  0
 18 47  1  0  0  0
 18 48  1  0  0  0
 19 49  1  0  0  0
 19 50  1  0  0  0
 20 21  2  0  0  0
 20 51  1  0  0  0
 21 22  1  0  0  0
 22 23  1  0  0  0
 23 52  1  0  0  0
 23 53  1  0  0  0
 23 54  1  0  0  0
M  CHG  1  18   1
M  END
> <s_m_source_file>
../3oc0_ligand.sdf

> <i_m_source_file_index>
1

> <s_epik_input>
W0NIM11PYyhbY0hdMSljKE9bQ0gzXSlbY0hdYyhjMTIpW0NIMl1bQ0gyXVtOQEgrXTNbQ0BIXTJbQ0gyXVtDQEhdKFtOSDMrXSlbQ0BIXShbQ0gyXTMpW0NIMl1bQ0gyXVtDSDJdW0NIM10=

> <s_epik_cmdline>
J2VwaWtfYXBwJywgJy1pbWFlJywgJ2xpZ2FuZF9wcm8ubWFlJywgJy1vbWFlJywgJ2xpZ2FuZF9wcmVwLm1hZScsICctbXMnLCAnMScsICctcGgnLCAnNycsICctcGh0JywgJzAuNScsICctbnQn

> <r_lp_tautomer_probability>
1

> <r_epik_Ionization_Penalty>
  0.0093

> <r_epik_Ionization_Penalty_Charging>
  0.0025

> <r_epik_Ionization_Penalty_Neutral>
  0.0068

> <r_epik_State_Penalty>
 -0.0000

> <r_epik_Charging_Adjusted_Penalty>
0.00247373380678518

> <i_epik_Tot_Q>
1

> <i_epik_Tot_abs_Q>
1

$$$$
