3ocb_ligand
                    3D
 Schrodinger Suite 2020-3.
 52 55  0  0  1  0            999 V2000
   14.5350   -1.9910   15.8820 C   0  0  0  0  0  0
    8.4060    4.0740   14.3960 Cl  0  0  0  0  0  0
   15.6670   -1.2180   15.5290 C   0  0  0  0  0  0
   15.8660    0.2010   15.5120 C   0  0  0  0  0  0
   17.1710    0.3050   15.0770 C   0  0  0  0  0  0
   12.2340   -0.4080   21.2740 N   0  3  0  0  0  0
   17.7460   -0.9530   14.8400 N   0  3  0  0  0  0
   16.8180   -1.8940   15.1190 C   0  0  0  0  0  0
   14.6370   -3.3350   15.8050 N   0  0  0  0  0  0
   15.8090   -3.8580   15.3910 C   0  0  0  0  0  0
   16.9380   -3.2240   15.0320 N   0  0  0  0  0  0
   13.3700   -1.3760   16.3110 N   0  0  0  0  0  0
   12.2780   -2.2660   16.7660 C   0  0  0  0  0  0
   10.9200   -1.5910   17.0790 C   0  0  0  0  0  0
   11.0580   -0.3670   17.8970 N   0  0  0  0  0  0
   12.0910    0.5690   17.4010 C   0  0  0  0  0  0
   13.4420   -0.1430   17.1290 C   0  0  0  0  0  0
   10.4120   -0.2000   19.0820 C   0  0  0  0  0  0
    9.5460   -0.9950   19.4620 O   0  0  0  0  0  0
   10.6560    1.0610   19.9540 C   0  0  1  0  0  0
    9.4130    1.9840   19.9870 C   0  0  0  0  0  0
   11.2650    0.7110   21.3290 C   0  0  0  0  0  0
    9.1450    2.5140   18.5910 C   0  0  0  0  0  0
    8.3180    1.7790   17.7090 C   0  0  0  0  0  0
    8.0870    2.2690   16.4050 C   0  0  0  0  0  0
    8.6900    3.4840   15.9950 C   0  0  0  0  0  0
    9.5240    4.2160   16.8740 C   0  0  0  0  0  0
    9.7520    3.7220   18.1760 C   0  0  0  0  0  0
   15.1662    0.9942   15.7751 H   0  0  0  0  0  0
   17.6931    1.2512   14.9344 H   0  0  0  0  0  0
   12.6266   -0.6029   22.2829 H   0  0  0  0  0  0
   13.0638   -0.1418   20.6027 H   0  0  0  0  0  0
   11.7312   -1.3102   20.8955 H   0  0  0  0  0  0
   15.8455   -4.9462   15.3406 H   0  0  0  0  0  0
   12.0683   -3.0158   15.9889 H   0  0  0  0  0  0
   12.5813   -2.7740   17.6933 H   0  0  0  0  0  0
   10.4248   -1.3097   16.1379 H   0  0  0  0  0  0
   10.2807   -2.2933   17.6340 H   0  0  0  0  0  0
   11.7499    1.0268   16.4608 H   0  0  0  0  0  0
   12.2633    1.3556   18.1504 H   0  0  0  0  0  0
   13.8667   -0.3816   18.1153 H   0  0  0  0  0  0
   14.0814    0.5956   16.6234 H   0  0  0  0  0  0
   11.4364    1.6725   19.4776 H   0  0  0  0  0  0
    8.5410    1.4123   20.3376 H   0  0  0  0  0  0
    9.5990    2.8252   20.6709 H   0  0  0  0  0  0
   10.4352    0.4448   22.0003 H   0  0  0  0  0  0
   11.7678    1.6132   21.7075 H   0  0  0  0  0  0
    7.8633    0.8429   18.0332 H   0  0  0  0  0  0
    7.4479    1.7153   15.7171 H   0  0  0  0  0  0
    9.9841    5.1492   16.5493 H   0  0  0  0  0  0
   10.3963    4.2717   18.8622 H   0  0  0  0  0  0
   18.7857   -1.0250   14.4882 H   0  0  0  0  0  0
  1  3  2  0  0  0
  1  9  1  0  0  0
  1 12  1  0  0  0
  2 26  1  0  0  0
  3  4  1  0  0  0
  3  8  1  0  0  0
  4  5  2  0  0  0
  4 29  1  0  0  0
  5  7  1  0  0  0
  5 30  1  0  0  0
  6 22  1  0  0  0
  6 31  1  0  0  0
  6 32  1  0  0  0
  6 33  1  0  0  0
  7  8  2  0  0  0
  7 52  1  0  0  0
  8 11  1  0  0  0
  9 10  2  0  0  0
 10 11  1  0  0  0
 10 34  1  0  0  0
 12 13  1  0  0  0
 12 17  1  0  0  0
 13 14  1  0  0  0
 13 35  1  0  0  0
 13 36  1  0  0  0
 14 15  1  0  0  0
 14 37  1  0  0  0
 14 38  1  0  0  0
 15 16  1  0  0  0
 15 18  1  0  0  0
 16 17  1  0  0  0
 16 39  1  0  0  0
 16 40  1  0  0  0
 17 41  1  0  0  0
 17 42  1  0  0  0
 18 19  2  0  0  0
 18 20  1  0  0  0
 20 21  1  0  0  0
 20 22  1  0  0  0
 20 43  1  0  0  0
 21 23  1  0  0  0
 21 44  1  0  0  0
 21 45  1  0  0  0
 22 46  1  0  0  0
 22 47  1  0  0  0
 23 24  2  0  0  0
 23 28  1  0  0  0
 24 25  1  0  0  0
 24 48  1  0  0  0
 25 26  2  0  0  0
 25 49  1  0  0  0
 26 27  1  0  0  0
 27 28  2  0  0  0
 27 50  1  0  0  0
 28 51  1  0  0  0
M  CHG  2   6   1   7   1
M  END
> <s_m_source_file>
../3ocb_ligand.sdf

> <i_m_source_file_index>
1

> <s_epik_input>
W2NIXTFbY0hdbmMoYzEyKVtuSF1bY0hdbmMyTjNbQ0gyXVtDSDJdTihbQ0gyXVtDSDJdMylDKD1PKVtDQEhdKFtDSDJdW05IMytdKVtDSDJdYzRbY0hdW2NIXWMoQ2wpW2NIXVtjSF00

> <s_epik_cmdline>
J2VwaWtfYXBwJywgJy1pbWFlJywgJ2xpZ2FuZF9wcm8ubWFlJywgJy1vbWFlJywgJ2xpZ2FuZF9wcmVwLm1hZScsICctbXMnLCAnMScsICctcGgnLCAnNycsICctcGh0JywgJzAuNScsICctbnQn

> <r_lp_tautomer_probability>
1

> <r_epik_Ionization_Penalty>
  0.0018

> <r_epik_Ionization_Penalty_Charging>
  0.0018

> <r_epik_Ionization_Penalty_Neutral>
  0.0000

> <r_epik_State_Penalty>
 -0.0000

> <r_epik_Charging_Adjusted_Penalty>
0.00175325605451213

> <i_epik_Tot_Q>
2

> <i_epik_Tot_abs_Q>
2

$$$$
