3ocg_ligand
                    3D
 Schrodinger Suite 2020-3.
 48 51  0  0  1  0            999 V2000
   35.4480   -4.7380   18.7640 N   0  0  0  0  0  0
   36.1210   -5.6690   19.7740 N   0  0  0  0  0  0
   36.5370   -4.9600   20.7330 C   0  0  0  0  0  0
   36.2250   -3.6120   20.5010 C   0  0  0  0  0  0
   35.5530   -3.5020   19.2790 C   0  0  0  0  0  0
   35.1210   -2.3390   18.7790 N   0  0  0  0  0  0
   36.5400   -2.5380   21.3690 C   0  0  0  0  0  0
   36.2700   -1.3560   21.1490 O   0  0  0  0  0  0
   37.1970   -2.7530   22.5700 N   0  0  0  0  0  0
   37.3890   -1.8110   23.5850 C   0  0  0  0  0  0
   38.6800   -1.3320   23.9460 C   0  0  0  0  0  0
   38.8390   -0.3770   24.9790 C   0  0  0  0  0  0
   37.6860    0.0940   25.6470 C   0  0  0  0  0  0
   36.3860   -0.3610   25.3100 C   0  0  0  0  0  0
   36.2510   -1.3160   24.2750 C   0  0  0  0  0  0
   35.3680    0.1490   26.0040 C   0  0  0  0  0  0
   34.2660   -0.3800   25.8770 O   0  0  0  0  0  0
   35.5470    1.2030   26.8130 N   0  0  0  0  0  0
   34.6850    1.6120   27.7560 C   0  0  0  0  0  0
   33.8340    0.9080   28.4810 N   0  0  0  0  0  0
   33.0700    1.8300   29.4210 O   0  0  0  0  0  0
   33.5180    2.9740   29.1820 C   0  0  0  0  0  0
   34.5030    2.9340   28.1830 C   0  0  0  0  0  0
   39.9200   -1.8440   23.2250 C   0  0  0  0  0  0
   34.8510   -5.0630   17.5670 C   0  0  0  0  0  0
   33.4270   -4.8860   17.3990 C   0  0  0  0  0  0
   32.7860   -5.2110   16.1830 C   0  0  0  0  0  0
   33.5280   -5.7180   15.0960 C   0  0  0  0  0  0
   34.9260   -5.8980   15.2420 C   0  0  0  0  0  0
   35.5940   -5.5800   16.4520 C   0  0  0  0  0  0
   37.0607   -5.3392   21.6106 H   0  0  0  0  0  0
   34.5981   -2.3166   17.8115 H   0  0  0  0  0  0
   35.2887   -1.4050   19.3353 H   0  0  0  0  0  0
   37.6256   -3.7412   22.7932 H   0  0  0  0  0  0
   39.8291   -0.0129   25.2532 H   0  0  0  0  0  0
   37.7994    0.8284   26.4444 H   0  0  0  0  0  0
   35.2591   -1.6770   24.0033 H   0  0  0  0  0  0
   36.4607    1.8100   26.7314 H   0  0  0  0  0  0
   33.1864    3.8828   29.6842 H   0  0  0  0  0  0
   35.0435    3.7988   27.7983 H   0  0  0  0  0  0
   39.6228   -2.5739   22.4576 H   0  0  0  0  0  0
   40.5922   -2.3269   23.9495 H   0  0  0  0  0  0
   40.4405   -1.0010   22.7471 H   0  0  0  0  0  0
   32.8358   -4.4941   18.2267 H   0  0  0  0  0  0
   31.7098   -5.0689   16.0840 H   0  0  0  0  0  0
   33.0334   -5.9677   14.1573 H   0  0  0  0  0  0
   35.5020   -6.2904   14.4039 H   0  0  0  0  0  0
   36.6707   -5.7279   16.5356 H   0  0  0  0  0  0
  1  2  1  0  0  0
  1  5  1  0  0  0
  1 25  1  0  0  0
  2  3  2  0  0  0
  3  4  1  0  0  0
  3 31  1  0  0  0
  4  5  2  0  0  0
  4  7  1  0  0  0
  5  6  1  0  0  0
  6 32  1  0  0  0
  6 33  1  0  0  0
  7  8  2  0  0  0
  7  9  1  0  0  0
  9 10  1  0  0  0
  9 34  1  0  0  0
 10 11  2  0  0  0
 10 15  1  0  0  0
 11 12  1  0  0  0
 11 24  1  0  0  0
 12 13  2  0  0  0
 12 35  1  0  0  0
 13 14  1  0  0  0
 13 36  1  0  0  0
 14 15  2  0  0  0
 14 16  1  0  0  0
 15 37  1  0  0  0
 16 17  2  0  0  0
 16 18  1  0  0  0
 18 19  1  0  0  0
 18 38  1  0  0  0
 19 20  2  0  0  0
 19 23  1  0  0  0
 20 21  1  0  0  0
 21 22  1  0  0  0
 22 23  2  0  0  0
 22 39  1  0  0  0
 23 40  1  0  0  0
 24 41  1  0  0  0
 24 42  1  0  0  0
 24 43  1  0  0  0
 25 26  2  0  0  0
 25 30  1  0  0  0
 26 27  1  0  0  0
 26 44  1  0  0  0
 27 28  2  0  0  0
 27 45  1  0  0  0
 28 29  1  0  0  0
 28 46  1  0  0  0
 29 30  2  0  0  0
 29 47  1  0  0  0
 30 48  1  0  0  0
M  END
> <s_m_source_file>
../3ocg_ligand.sdf

> <i_m_source_file_index>
1

> <s_epik_input>
W2NIXTFbY0hdW2NIXVtjSF1bY0hdYzEtbjJuW2NIXWMoYzJbTkgyXSlDKD1PKVtOSF1jM2MoW0NIM10pW2NIXVtjSF1jKFtjSF0zKUMoPU8pW05IXWM0bm9bY0hdW2NIXTQ=

> <s_epik_cmdline>
J2VwaWtfYXBwJywgJy1pbWFlJywgJ2xpZ2FuZF9wcm8ubWFlJywgJy1vbWFlJywgJ2xpZ2FuZF9wcmVwLm1hZScsICctbXMnLCAnMScsICctcGgnLCAnNycsICctcGh0JywgJzAuNScsICctbnQn

> <r_lp_tautomer_probability>
1

> <r_epik_Ionization_Penalty>
  0.0005

> <r_epik_Ionization_Penalty_Charging>
  0.0000

> <r_epik_Ionization_Penalty_Neutral>
  0.0005

> <r_epik_State_Penalty>
 -0.0000

> <r_epik_Charging_Adjusted_Penalty>
0

> <i_epik_Tot_Q>
0

> <i_epik_Tot_abs_Q>
0

$$$$
