3ocp_ligand
                    3D
 Schrodinger Suite 2020-3.
 33 36  0  0  1  0            999 V2000
   -3.0200   33.7660   27.3530 P   0  0  1  0  0  0
   -1.8590   32.8890   27.5550 O   0  0  0  0  0  0
   -4.3880   33.0150   26.8450 O   0  5  0  0  0  0
   -3.4280   34.4910   28.6750 O   0  0  0  0  0  0
   -2.4370   35.4280   29.0830 C   0  0  0  0  0  0
   -2.2180   36.3760   27.9470 C   0  0  1  0  0  0
   -1.1850   37.3520   28.1860 O   0  0  0  0  0  0
   -1.7470   35.7220   26.6780 C   0  0  1  0  0  0
   -2.7460   34.8610   26.1650 O   0  0  0  0  0  0
   -1.4250   36.9540   25.8490 C   0  0  1  0  0  0
   -2.6120   37.5830   25.3770 O   0  0  0  0  0  0
   -0.7650   37.8350   26.9200 C   0  0  2  0  0  0
    0.7060   37.7210   26.8720 N   0  0  0  0  0  0
    1.4260   36.6770   27.2750 C   0  0  0  0  0  0
    2.7530   36.9720   27.0750 N   0  0  0  0  0  0
    2.8230   38.2290   26.5330 C   0  0  0  0  0  0
    3.9530   39.0560   26.1190 C   0  0  0  0  0  0
    5.3010   38.5520   26.2710 N   0  0  0  0  0  0
    3.7500   40.2500   25.6160 N   0  0  0  0  0  0
    2.4610   40.7270   25.4840 C   0  0  0  0  0  0
    1.3720   39.9340   25.8870 N   0  0  0  0  0  0
    1.5860   38.7010   26.4050 C   0  0  0  0  0  0
   -2.7893   35.9701   29.9730 H   0  0  0  0  0  0
   -1.5052   34.8950   29.3233 H   0  0  0  0  0  0
   -3.2042   36.8564   27.8656 H   0  0  0  0  0  0
   -0.9274   34.9902   26.7301 H   0  0  0  0  0  0
   -0.8706   36.7725   24.9165 H   0  0  0  0  0  0
   -3.2218   37.0957   24.6020 H   0  0  0  0  0  0
   -1.0450   38.8935   26.8147 H   0  0  0  0  0  0
    1.0319   35.7498   27.6911 H   0  0  0  0  0  0
    5.4693   37.5503   26.6931 H   0  0  0  0  0  0
    6.1573   39.1706   25.9644 H   0  0  0  0  0  0
    2.2875   41.7190   25.0671 H   0  0  0  0  0  0
  1  2  2  0  0  0
  1  3  1  0  0  0
  1  4  1  0  0  0
  1  9  1  0  0  0
  4  5  1  0  0  0
  5  6  1  0  0  0
  5 23  1  0  0  0
  5 24  1  0  0  0
  6  7  1  0  0  0
  6  8  1  0  0  0
  6 25  1  0  0  0
  7 12  1  0  0  0
  8  9  1  0  0  0
  8 10  1  0  0  0
  8 26  1  0  0  0
 10 11  1  0  0  0
 10 12  1  0  0  0
 10 27  1  0  0  0
 11 28  1  0  0  0
 12 13  1  0  0  0
 12 29  1  0  0  0
 13 14  1  0  0  0
 13 22  1  0  0  0
 14 15  2  0  0  0
 14 30  1  0  0  0
 15 16  1  0  0  0
 16 17  2  0  0  0
 16 22  1  0  0  0
 17 18  1  0  0  0
 17 19  1  0  0  0
 18 31  1  0  0  0
 18 32  1  0  0  0
 19 20  2  0  0  0
 20 21  1  0  0  0
 20 33  1  0  0  0
 21 22  2  0  0  0
M  CHG  1   3  -1
M  END
> <s_m_source_file>
../3ocp_ligand.sdf

> <i_m_source_file_index>
1

> <s_epik_input>
W0NIMl0xT1tQQEBdKD1PKShbT0hdKU9bQ0BIXShbQ0BASF0xMilbQ0BASF0oW09IXSlbQ0BASF0oTzIpbihbY0hdbjMpYyhjMzQpbltjSF1uYzRbTkgyXQ==

> <s_epik_cmdline>
J2VwaWtfYXBwJywgJy1pbWFlJywgJ2xpZ2FuZF9wcm8ubWFlJywgJy1vbWFlJywgJ2xpZ2FuZF9wcmVwLm1hZScsICctbXMnLCAnMScsICctcGgnLCAnNycsICctcGh0JywgJzAuNScsICctbnQn

> <r_lp_tautomer_probability>
1

> <r_epik_Ionization_Penalty>
  0.0008

> <r_epik_Ionization_Penalty_Charging>
  0.0002

> <r_epik_Ionization_Penalty_Neutral>
  0.0005

> <r_epik_State_Penalty>
 -0.0000

> <r_epik_Charging_Adjusted_Penalty>
0.000248221998699987

> <i_epik_Tot_Q>
-1

> <i_epik_Tot_abs_Q>
1

> <s_epik_Chemistry_Notes>
This compound contains an acetal/aminal-like group ( X-CH(R)-Y where X, Y are N, S, or O) that may be acid/base labile, releasing an aldehyde.

$$$$
