3oct_ligand
                    3D
 Schrodinger Suite 2020-3.
 59 62  0  0  1  0            999 V2000
   12.3660    4.7790   21.0800 C   0  0  0  0  0  0
   12.5570    3.5380   20.4570 C   0  0  0  0  0  0
   12.7680    3.1630   19.0340 C   0  0  0  0  0  0
   10.9650    0.2510   30.7990 N   0  0  0  0  0  0
   13.4940    3.2730   14.0610 C   0  0  0  0  0  0
   14.6170    3.5190   14.8460 C   0  0  0  0  0  0
   14.4900    3.7930   16.2040 C   0  0  0  0  0  0
   15.7200    4.0740   17.0300 C   0  0  0  0  0  0
   11.9930    1.9470   24.8060 C   0  0  0  0  0  0
   11.8940    1.8040   26.1980 C   0  0  0  0  0  0
   11.8550    0.5120   26.7620 C   0  0  0  0  0  0
   12.0040   -0.3960   24.5970 C   0  0  0  0  0  0
   12.0830   -1.5890   23.6830 C   0  0  0  0  0  0
   11.8730   -0.9570   28.8140 C   0  0  0  0  0  0
   11.4920    1.5780   28.9230 C   0  0  0  0  0  0
   10.1000    0.4060   31.9940 C   0  0  0  0  0  0
    9.7010    1.8770   32.2530 C   0  0  0  0  0  0
   12.0390    3.1850   24.2340 N   0  0  0  0  0  0
   12.1750    3.4310   22.8960 C   0  0  0  0  0  0
   12.1810    4.6930   22.4250 N   0  0  0  0  0  0
   12.4740    2.2100   21.6350 S   0  0  0  0  0  0
   13.0420    4.1270   18.1500 N   0  0  0  0  0  0
   13.2240    3.8270   16.7860 C   0  0  0  0  0  0
   12.1070    3.5850   16.0010 C   0  0  0  0  0  0
   12.2310    3.3030   14.6430 C   0  0  0  0  0  0
   10.4800    3.6230   16.7500 Cl  0  0  0  0  0  0
   12.6730    1.9960   18.7150 O   0  0  0  0  0  0
   11.9120   -0.5630   25.9440 N   0  0  0  0  0  0
   12.0680    0.8340   24.0450 N   0  0  0  0  0  0
   11.7410    0.3540   28.1580 N   0  0  0  0  0  0
   10.9480   -1.0190   30.0510 C   0  0  0  0  0  0
   11.8690    1.3130   30.3720 C   0  0  0  0  0  0
    8.2660    2.0640   32.4130 O   0  0  0  0  0  0
   12.3657    5.7245   20.5376 H   0  0  0  0  0  0
   13.6036    3.0584   12.9980 H   0  0  0  0  0  0
   15.6074    3.4967   14.3913 H   0  0  0  0  0  0
   16.6140    3.9991   16.3935 H   0  0  0  0  0  0
   15.7887    3.3403   17.8466 H   0  0  0  0  0  0
   15.6544    5.0876   17.4523 H   0  0  0  0  0  0
   11.8476    2.6846   26.8387 H   0  0  0  0  0  0
   12.0174   -2.5118   24.2781 H   0  0  0  0  0  0
   13.0386   -1.5710   23.1384 H   0  0  0  0  0  0
   11.2508   -1.5561   22.9644 H   0  0  0  0  0  0
   11.5891   -1.7508   28.1074 H   0  0  0  0  0  0
   12.9157   -1.1047   29.1318 H   0  0  0  0  0  0
   12.1040    2.3961   28.5153 H   0  0  0  0  0  0
   10.4274    1.8454   28.8508 H   0  0  0  0  0  0
    9.1762   -0.1749   31.8558 H   0  0  0  0  0  0
   10.6339    0.0396   32.8832 H   0  0  0  0  0  0
   10.1863    2.2318   33.1742 H   0  0  0  0  0  0
   10.0240    2.4992   31.4054 H   0  0  0  0  0  0
   11.9642    4.0845   24.8627 H   0  0  0  0  0  0
   13.1282    5.1714   18.4842 H   0  0  0  0  0  0
   11.3443    3.1071   14.0401 H   0  0  0  0  0  0
   11.2929   -1.8340   30.7044 H   0  0  0  0  0  0
    9.9236   -1.2304   29.7107 H   0  0  0  0  0  0
   11.7162    2.2006   31.0036 H   0  0  0  0  0  0
   12.9096    0.9694   30.4680 H   0  0  0  0  0  0
    7.8600    3.0687   32.6021 H   0  0  0  0  0  0
  1  2  2  0  0  0
  1 20  1  0  0  0
  1 34  1  0  0  0
  2  3  1  0  0  0
  2 21  1  0  0  0
  3 22  1  0  0  0
  3 27  2  0  0  0
  4 16  1  0  0  0
  4 31  1  0  0  0
  4 32  1  0  0  0
  5  6  2  0  0  0
  5 25  1  0  0  0
  5 35  1  0  0  0
  6  7  1  0  0  0
  6 36  1  0  0  0
  7  8  1  0  0  0
  7 23  2  0  0  0
  8 37  1  0  0  0
  8 38  1  0  0  0
  8 39  1  0  0  0
  9 10  2  0  0  0
  9 18  1  0  0  0
  9 29  1  0  0  0
 10 11  1  0  0  0
 10 40  1  0  0  0
 11 28  2  0  0  0
 11 30  1  0  0  0
 12 13  1  0  0  0
 12 28  1  0  0  0
 12 29  2  0  0  0
 13 41  1  0  0  0
 13 42  1  0  0  0
 13 43  1  0  0  0
 14 30  1  0  0  0
 14 31  1  0  0  0
 14 44  1  0  0  0
 14 45  1  0  0  0
 15 30  1  0  0  0
 15 32  1  0  0  0
 15 46  1  0  0  0
 15 47  1  0  0  0
 16 17  1  0  0  0
 16 48  1  0  0  0
 16 49  1  0  0  0
 17 33  1  0  0  0
 17 50  1  0  0  0
 17 51  1  0  0  0
 18 19  1  0  0  0
 18 52  1  0  0  0
 19 20  2  0  0  0
 19 21  1  0  0  0
 22 23  1  0  0  0
 22 53  1  0  0  0
 23 24  1  0  0  0
 24 25  2  0  0  0
 24 26  1  0  0  0
 25 54  1  0  0  0
 31 55  1  0  0  0
 31 56  1  0  0  0
 32 57  1  0  0  0
 32 58  1  0  0  0
 33 59  1  0  0  0
M  END
> <s_m_source_file>
../3oct_ligand.sdf

> <i_m_source_file_index>
1

> <s_epik_input>
W0NIM11jMVtjSF1bY0hdW2NIXWMoQ2wpYzFbTkhdQyg9TyljMltjSF1uYyhzMilbTkhdYzNbY0hdYyhuYyhuMylbQ0gzXSlOKFtDSDJdW0NIMl00KVtDSDJdW0NIMl1bTkgrXTRbQ0gyXVtDSDJdW09IXQ==

> <s_epik_cmdline>
J2VwaWtfYXBwJywgJy1pbWFlJywgJ2xpZ2FuZF9wcm8ubWFlJywgJy1vbWFlJywgJ2xpZ2FuZF9wcmVwLm1hZScsICctbXMnLCAnMScsICctcGgnLCAnNycsICctcGh0JywgJzAuNScsICctbnQn

> <r_lp_tautomer_probability>
0.999999999985434

> <r_epik_Ionization_Penalty>
  0.5787

> <r_epik_Ionization_Penalty_Charging>
  0.0000

> <r_epik_Ionization_Penalty_Neutral>
  0.5787

> <r_epik_State_Penalty>
  0.4045

> <r_epik_Charging_Adjusted_Penalty>
0.404525148573214

> <i_epik_Tot_Q>
0

> <i_epik_Tot_abs_Q>
0

$$$$
