3ocz_ligand
                    3D
 Schrodinger Suite 2020-3.
 36 38  0  0  1  0            999 V2000
   41.6170  -13.6140   -9.4600 P   0  0  2  0  0  0
   41.4090  -12.8270   -8.0640 O   0  5  0  0  0  0
   41.9040  -12.2580  -11.0280 S   0  0  0  0  0  0
   40.5770  -14.5270   -9.9130 O   0  0  0  0  0  0
   42.9490  -14.4400   -9.3670 O   0  0  0  0  0  0
   44.1510  -13.8320   -8.9810 C   0  0  0  0  0  0
   45.3090  -14.6790   -9.3970 C   0  0  1  0  0  0
   46.4480  -13.8340   -9.6240 O   0  0  0  0  0  0
   45.7920  -15.6980   -8.3760 C   0  0  1  0  0  0
   45.0320  -16.8970   -8.3840 O   0  0  0  0  0  0
   47.2430  -15.9010   -8.7790 C   0  0  2  0  0  0
   47.6220  -14.4970   -9.2310 C   0  0  2  0  0  0
   48.2510  -13.7200   -8.1650 N   0  0  0  0  0  0
   48.1970  -13.8670   -6.7690 C   0  0  0  0  0  0
   49.0050  -12.8930   -6.2450 N   0  0  0  0  0  0
   49.5590  -12.1360   -7.3540 C   0  0  0  0  0  0
   50.4680  -11.0380   -7.4200 C   0  0  0  0  0  0
   51.0420  -10.5260   -6.2010 N   0  0  0  0  0  0
   50.8140  -10.5170   -8.6550 N   0  0  0  0  0  0
   50.3030  -11.0490   -9.8470 C   0  0  0  0  0  0
   49.4440  -12.1220   -9.7940 N   0  0  0  0  0  0
   49.0880  -12.6430   -8.4960 C   0  0  0  0  0  0
   47.3370  -16.7580   -9.9030 O   0  0  0  0  0  0
   41.1039  -11.5536  -11.2994 H   0  0  0  0  0  0
   44.2335  -12.8456   -9.4607 H   0  0  0  0  0  0
   44.1659  -13.7105   -7.8878 H   0  0  0  0  0  0
   44.9595  -15.1860  -10.3085 H   0  0  0  0  0  0
   45.6391  -15.4165   -7.3237 H   0  0  0  0  0  0
   43.9670  -16.8750   -8.1095 H   0  0  0  0  0  0
   47.8753  -16.3859   -8.0206 H   0  0  0  0  0  0
   48.3200  -14.5242  -10.0808 H   0  0  0  0  0  0
   47.6250  -14.6096   -6.2126 H   0  0  0  0  0  0
   50.7503  -10.9574   -5.2321 H   0  0  0  0  0  0
   51.7717   -9.7038   -6.2396 H   0  0  0  0  0  0
   50.5838  -10.6163  -10.8072 H   0  0  0  0  0  0
   47.1042  -17.8281   -9.7997 H   0  0  0  0  0  0
  1  2  1  0  0  0
  1  3  1  0  0  0
  1  4  2  0  0  0
  1  5  1  0  0  0
  3 24  1  0  0  0
  5  6  1  0  0  0
  6  7  1  0  0  0
  6 25  1  0  0  0
  6 26  1  0  0  0
  7  8  1  0  0  0
  7  9  1  0  0  0
  7 27  1  0  0  0
  8 12  1  0  0  0
  9 10  1  0  0  0
  9 11  1  0  0  0
  9 28  1  0  0  0
 10 29  1  0  0  0
 11 12  1  0  0  0
 11 23  1  0  0  0
 11 30  1  0  0  0
 12 13  1  0  0  0
 12 31  1  0  0  0
 13 14  1  0  0  0
 13 22  1  0  0  0
 14 15  2  0  0  0
 14 32  1  0  0  0
 15 16  1  0  0  0
 16 17  2  0  0  0
 16 22  1  0  0  0
 17 18  1  0  0  0
 17 19  1  0  0  0
 18 33  1  0  0  0
 18 34  1  0  0  0
 19 20  2  0  0  0
 20 21  1  0  0  0
 20 35  1  0  0  0
 21 22  2  0  0  0
 23 36  1  0  0  0
M  CHG  1   2  -1
M  END
> <s_m_source_file>
../3ocz_ligand.sdf

> <i_m_source_file_index>
1

> <s_epik_input>
W09IXVtQQEBdKD1PKShbU0hdKU9bQ0gyXVtDQEhdMU9bQ0BIXShbQ0BIXShbT0hdKVtDQEBIXTFbT0hdKW4oW2NIXW4yKWMoYzIzKW5bY0hdbmMzW05IMl0=

> <s_epik_cmdline>
J2VwaWtfYXBwJywgJy1pbWFlJywgJ2xpZ2FuZF9wcm8ubWFlJywgJy1vbWFlJywgJ2xpZ2FuZF9wcmVwLm1hZScsICctbXMnLCAnMScsICctcGgnLCAnNycsICctcGh0JywgJzAuNScsICctbnQn

> <r_lp_tautomer_probability>
1

> <r_epik_Ionization_Penalty>
  0.0070

> <r_epik_Ionization_Penalty_Charging>
  0.0000

> <r_epik_Ionization_Penalty_Neutral>
  0.0070

> <r_epik_State_Penalty>
 -0.0000

> <r_epik_Charging_Adjusted_Penalty>
5.43235429059607e-07

> <i_epik_Tot_Q>
-1

> <i_epik_Tot_abs_Q>
1

> <s_epik_Chemistry_Notes>
This compound contains an acetal/aminal-like group ( X-CH(R)-Y where X, Y are N, S, or O) that may be acid/base labile, releasing an aldehyde.

$$$$
