3od0_ligand
                    3D
 Schrodinger Suite 2020-3.
 34 37  0  0  1  0            999 V2000
    3.0270  -34.2670   27.3260 P   0  0  2  0  0  0
    4.3660  -33.6020   27.1110 O   0  5  0  0  0  0
    1.7570  -33.4760   27.4790 O   0  0  0  0  0  0
    3.1190  -35.0840   28.7010 O   0  0  0  0  0  0
    2.2030  -36.1400   28.9620 C   0  0  0  0  0  0
    2.2780  -37.0550   27.7620 C   0  0  1  0  0  0
    1.4170  -38.1800   27.8410 O   0  0  0  0  0  0
    1.7890  -36.3570   26.5200 C   0  0  1  0  0  0
    2.7620  -35.3780   26.1890 O   0  0  0  0  0  0
    1.5860  -37.5250   25.5690 C   0  0  1  0  0  0
    2.7740  -37.7880   24.8250 O   0  0  0  0  0  0
    1.2820  -38.6880   26.5090 C   0  0  2  0  0  0
   -0.0960  -39.2000   26.3080 N   0  0  0  0  0  0
   -0.4950  -40.4330   25.9170 C   0  0  0  0  0  0
   -1.8520  -40.5430   25.8510 N   0  0  0  0  0  0
   -2.3390  -39.3410   26.2130 C   0  0  0  0  0  0
   -3.6820  -38.7300   26.3590 C   0  0  0  0  0  0
   -4.7050  -39.4110   26.1170 O   0  0  0  0  0  0
   -3.7460  -37.4450   26.7610 N   0  3  0  0  0  0
   -2.6390  -36.6990   27.0290 C   0  0  0  0  0  0
   -2.7520  -35.4040   27.4310 N   0  0  0  0  0  0
   -1.3830  -37.1950   26.9180 N   0  0  0  0  0  0
   -1.1830  -38.4750   26.5270 C   0  0  0  0  0  0
    2.4999  -36.6637   29.8826 H   0  0  0  0  0  0
    1.1915  -35.7258   29.0857 H   0  0  0  0  0  0
    3.3184  -37.4113   27.7350 H   0  0  0  0  0  0
    0.8901  -35.7237   26.5486 H   0  0  0  0  0  0
    0.8392  -37.3478   24.7810 H   0  0  0  0  0  0
    3.1411  -37.0504   24.0962 H   0  0  0  0  0  0
    1.9688  -39.5358   26.3693 H   0  0  0  0  0  0
    0.1915  -41.2462   25.6815 H   0  0  0  0  0  0
   -3.7465  -34.9465   27.5392 H   0  0  0  0  0  0
   -1.8489  -34.8146   27.6478 H   0  0  0  0  0  0
   -4.7233  -36.9556   26.8853 H   0  0  0  0  0  0
  1  2  1  0  0  0
  1  3  2  0  0  0
  1  4  1  0  0  0
  1  9  1  0  0  0
  4  5  1  0  0  0
  5  6  1  0  0  0
  5 24  1  0  0  0
  5 25  1  0  0  0
  6  7  1  0  0  0
  6  8  1  0  0  0
  6 26  1  0  0  0
  7 12  1  0  0  0
  8  9  1  0  0  0
  8 10  1  0  0  0
  8 27  1  0  0  0
 10 11  1  0  0  0
 10 12  1  0  0  0
 10 28  1  0  0  0
 11 29  1  0  0  0
 12 13  1  0  0  0
 12 30  1  0  0  0
 13 14  1  0  0  0
 13 23  1  0  0  0
 14 15  2  0  0  0
 14 31  1  0  0  0
 15 16  1  0  0  0
 16 17  1  0  0  0
 16 23  2  0  0  0
 17 18  2  0  0  0
 17 19  1  0  0  0
 19 20  1  0  0  0
 19 34  1  0  0  0
 20 21  1  0  0  0
 20 22  2  0  0  0
 21 32  1  0  0  0
 21 33  1  0  0  0
 22 23  1  0  0  0
M  CHG  2   2  -1  19   1
M  END
> <s_m_source_file>
../3od0_ligand.sdf

> <i_m_source_file_index>
1

> <s_epik_input>
W0NIMl0xT1tQQEBdKD1PKShbT0hdKU9bQ0BIXShbQ0BASF0xMilbQ0BASF0oW09IXSlbQ0BASF0oTzIpbihbY0hdbjMpYyhjMzQpW25IXWMoPU5cW0hdKVxbbkhdYzQ9Tw==

> <s_epik_cmdline>
J2VwaWtfYXBwJywgJy1pbWFlJywgJ2xpZ2FuZF9wcm8ubWFlJywgJy1vbWFlJywgJ2xpZ2FuZF9wcmVwLm1hZScsICctbXMnLCAnMScsICctcGgnLCAnNycsICctcGh0JywgJzAuNScsICctbnQn

> <r_epik_Ionization_Penalty>
  2.3888

> <r_epik_Ionization_Penalty_Charging>
  2.3887

> <r_epik_Ionization_Penalty_Neutral>
  0.0001

> <r_epik_State_Penalty>
  0.2212

> <r_epik_Charging_Adjusted_Penalty>
2.60994165546953

> <i_epik_Tot_Q>
0

> <i_epik_Tot_abs_Q>
2

> <s_epik_Chemistry_Notes>
This compound has an imine and may undergo hydrolysis. This compound contains an acetal/aminal-like group ( X-CH(R)-Y where X, Y are N, S, or O) that may be acid/base labile, releasing an aldehyde.

$$$$
