3odi_ligand
                    3D
 Schrodinger Suite 2020-3.
197197  0  0  1  0            999 V2000
   -0.8760  -14.4940   69.4560 N   0  0  0  0  0  0
   -1.8110  -13.5360   68.8420 C   0  0  2  0  0  0
   -2.1160  -12.3950   69.8130 C   0  0  0  0  0  0
   -3.0750  -14.2250   68.4100 C   0  0  0  0  0  0
   -3.6170  -15.0900   69.1000 O   0  0  0  0  0  0
   -3.6350  -13.8730   67.2020 N   0  0  0  0  0  0
   -3.0080  -12.9610   66.2700 C   0  0  0  0  0  0
   -4.8410  -14.5090   66.6950 C   0  0  1  0  0  0
   -6.0980  -13.6180   66.7300 C   0  0  0  0  0  0
   -6.5610  -13.1840   68.1230 C   0  0  0  0  0  0
   -7.6550  -12.1270   68.0000 C   0  0  0  0  0  0
   -7.0620  -14.3680   68.9520 C   0  0  0  0  0  0
   -4.6690  -15.0930   65.3050 C   0  0  0  0  0  0
   -5.3330  -14.5120   64.2100 O   0  0  0  0  0  0
   -3.8900  -16.1660   65.1730 N   0  0  0  0  0  0
   -3.4510  -16.9120   66.3440 C   0  0  0  0  0  0
   -3.6690  -16.7420   63.8530 C   0  0  1  0  0  0
   -2.1630  -16.9570   63.6030 C   0  0  0  0  0  0
   -1.3380  -15.6660   63.6960 C   0  0  0  0  0  0
    0.1310  -15.9460   63.4110 C   0  0  0  0  0  0
   -1.8470  -14.5410   62.7930 C   0  0  0  0  0  0
   -4.5080  -17.9900   63.6390 C   0  0  0  0  0  0
   -5.1040  -18.6110   64.7560 O   0  0  0  0  0  0
   -4.6770  -18.4450   62.3940 N   0  0  0  0  0  0
   -4.2930  -17.6340   61.2400 C   0  0  0  0  0  0
   -5.2850  -19.7580   62.1650 C   0  0  1  0  0  0
   -6.6610  -19.7440   61.4660 C   0  0  0  0  0  0
   -7.3880  -21.0660   61.6880 C   0  0  0  0  0  0
   -7.5920  -18.6130   61.8980 C   0  0  0  0  0  0
   -4.3180  -20.6650   61.4340 C   0  0  0  0  0  0
   -4.4550  -20.8650   60.0510 O   0  0  0  0  0  0
   -2.4060  -23.4870   61.5230 C   0  0  0  0  0  0
   -3.3420  -21.2450   62.1290 N   0  0  0  0  0  0
   -3.1700  -24.0020   62.3340 O   0  0  0  0  0  0
   -2.3110  -21.9860   61.3930 C   0  0  1  0  0  0
   -0.8700  -21.4740   61.6070 C   0  0  2  0  0  0
    1.6780  -19.9040   60.5490 C   0  0  0  0  0  0
    3.6630  -21.0280   59.7220 C   0  0  0  0  0  0
   -3.3120  -21.2300   63.5920 C   0  0  0  0  0  0
    4.7560  -21.7410   59.9900 C   0  0  0  0  0  0
    2.7690  -20.6210   60.8130 C   0  0  0  0  0  0
   -1.1930  -19.4450   60.0710 C   0  0  0  0  0  0
    0.7480  -19.4830   61.6690 C   0  0  0  0  0  0
   -0.4180  -21.8880   62.8800 O   0  0  0  0  0  0
   -0.6940  -19.9530   61.4260 C   0  0  2  0  0  0
   -1.6360  -24.1940   60.7010 N   0  0  0  0  0  0
   -1.6950  -25.6500   60.6370 C   0  0  2  0  0  0
   -0.3530  -26.2960   60.9890 C   0  0  0  0  0  0
    0.4210  -26.6220   60.0910 O   0  0  0  0  0  0
   -2.1480  -26.1020   59.2430 C   0  0  0  0  0  0
   -3.4990  -25.5150   58.8410 C   0  0  0  0  0  0
   -0.0640  -26.4700   62.2850 N   0  0  0  0  0  0
    1.2020  -27.0810   62.6790 C   0  0  0  0  0  0
    1.9860  -26.2970   63.7180 C   0  0  0  0  0  0
    2.1040  -26.8060   65.0340 O   0  0  0  0  0  0
   -0.9920  -26.1960   63.3720 C   0  0  0  0  0  0
    2.5480  -25.1490   63.3380 N   0  0  0  0  0  0
    2.4680  -24.6270   61.9720 C   0  0  0  0  0  0
    3.2210  -24.3170   64.3240 C   0  0  1  0  0  0
    4.6110  -23.8860   63.8380 C   0  0  0  0  0  0
    5.3850  -22.9960   64.8130 C   0  0  0  0  0  0
    5.6400  -23.6910   66.1460 C   0  0  0  0  0  0
    6.7100  -22.5630   64.1980 C   0  0  0  0  0  0
    2.3190  -23.1670   64.6940 C   0  0  0  0  0  0
    2.2330  -22.0210   63.8850 O   0  0  0  0  0  0
    1.6030  -23.3210   65.8020 N   0  0  0  0  0  0
    0.6680  -22.3010   66.2540 C   0  0  2  0  0  0
    1.4640  -21.1720   66.9160 C   0  0  0  0  0  0
    2.2620  -21.4320   67.8240 O   0  0  0  0  0  0
   -0.4080  -22.8880   67.2090 C   0  0  0  0  0  0
   -1.3890  -21.8060   67.6840 C   0  0  0  0  0  0
   -1.1680  -24.0390   66.5290 C   0  0  0  0  0  0
    1.2730  -19.9330   66.4500 N   0  0  0  0  0  0
    0.3040  -19.6640   65.3780 C   0  0  0  0  0  0
    2.0150  -18.8020   67.0220 C   0  0  1  0  0  0
    2.8510  -18.0420   65.9800 C   0  0  0  0  0  0
    3.8650  -18.9700   65.3090 C   0  0  0  0  0  0
    4.2210  -18.4750   63.9090 C   0  0  0  0  0  0
    5.1070  -19.1880   66.1660 C   0  0  0  0  0  0
    1.1550  -17.8750   67.8410 C   0  0  0  0  0  0
   -0.2310  -18.0830   67.9480 O   0  0  0  0  0  0
    1.7750  -16.8720   68.4550 N   0  0  0  0  0  0
    1.0680  -16.0080   69.3960 C   0  0  2  0  0  0
    0.1290  -15.0600   68.7110 C   0  0  0  0  0  0
    0.2250  -14.7660   67.5220 O   0  0  0  0  0  0
    2.0560  -15.2740   70.2770 C   0  0  0  0  0  0
   -0.9802  -14.7604   70.5182 H   0  0  0  0  0  0
   -1.3163  -13.1412   67.9423 H   0  0  0  0  0  0
   -1.1765  -11.9081   70.1133 H   0  0  0  0  0  0
   -2.6218  -12.7966   70.7034 H   0  0  0  0  0  0
   -2.7692  -11.6594   69.3208 H   0  0  0  0  0  0
   -2.1085  -12.5268   66.7308 H   0  0  0  0  0  0
   -3.7132  -12.1567   66.0134 H   0  0  0  0  0  0
   -2.7257  -13.5062   65.3573 H   0  0  0  0  0  0
   -4.9455  -15.3232   67.4272 H   0  0  0  0  0  0
   -5.9080  -12.6936   66.1648 H   0  0  0  0  0  0
   -6.9427  -14.1577   66.2770 H   0  0  0  0  0  0
   -5.6951  -12.7549   68.6485 H   0  0  0  0  0  0
   -7.2827  -11.2819   67.4024 H   0  0  0  0  0  0
   -7.9359  -11.7717   69.0024 H   0  0  0  0  0  0
   -8.5348  -12.5657   67.5065 H   0  0  0  0  0  0
   -6.2652  -15.1220   69.0332 H   0  0  0  0  0  0
   -7.9400  -14.8136   68.4615 H   0  0  0  0  0  0
   -7.3411  -14.0197   69.9574 H   0  0  0  0  0  0
   -3.6910  -16.3415   67.2534 H   0  0  0  0  0  0
   -2.3644  -17.0744   66.2891 H   0  0  0  0  0  0
   -3.9660  -17.8836   66.3740 H   0  0  0  0  0  0
   -4.0433  -15.9977   63.1347 H   0  0  0  0  0  0
   -1.7637  -17.6582   64.3506 H   0  0  0  0  0  0
   -2.0141  -17.3717   62.5951 H   0  0  0  0  0  0
   -1.4469  -15.3061   64.7297 H   0  0  0  0  0  0
    0.4837  -16.7560   64.0664 H   0  0  0  0  0  0
    0.7210  -15.0373   63.6011 H   0  0  0  0  0  0
    0.2496  -16.2470   62.3597 H   0  0  0  0  0  0
   -2.9084  -14.3492   63.0091 H   0  0  0  0  0  0
   -1.7350  -14.8373   61.7396 H   0  0  0  0  0  0
   -1.2636  -13.6276   62.9810 H   0  0  0  0  0  0
   -3.8554  -16.6864   61.5871 H   0  0  0  0  0  0
   -5.1820  -17.4245   60.6270 H   0  0  0  0  0  0
   -3.5527  -18.1809   60.6376 H   0  0  0  0  0  0
   -5.4550  -20.1168   63.1909 H   0  0  0  0  0  0
   -6.4390  -19.5826   60.4008 H   0  0  0  0  0  0
   -6.7365  -21.8984   61.3835 H   0  0  0  0  0  0
   -8.3095  -21.0830   61.0875 H   0  0  0  0  0  0
   -7.6424  -21.1702   62.7531 H   0  0  0  0  0  0
   -7.0892  -17.6464   61.7472 H   0  0  0  0  0  0
   -7.8452  -18.7326   62.9618 H   0  0  0  0  0  0
   -8.5122  -18.6455   61.2962 H   0  0  0  0  0  0
   -2.6118  -21.7492   60.3618 H   0  0  0  0  0  0
   -0.2008  -21.9638   60.8843 H   0  0  0  0  0  0
    1.4477  -19.6141   59.5132 H   0  0  0  0  0  0
    3.4315  -20.7451   58.6845 H   0  0  0  0  0  0
   -4.1535  -20.6307   63.9699 H   0  0  0  0  0  0
   -2.3645  -20.7888   63.9348 H   0  0  0  0  0  0
   -3.3955  -22.2593   63.9710 H   0  0  0  0  0  0
    4.9875  -22.0239   61.0275 H   0  0  0  0  0  0
    5.4270  -22.0468   59.1738 H   0  0  0  0  0  0
    3.0007  -20.9086   61.8491 H   0  0  0  0  0  0
   -2.2256  -19.7877   59.9086 H   0  0  0  0  0  0
   -0.5466  -19.8369   59.2719 H   0  0  0  0  0  0
   -1.1654  -18.3454   60.0589 H   0  0  0  0  0  0
    1.0960  -19.9179   62.6175 H   0  0  0  0  0  0
    0.7431  -18.3859   61.7487 H   0  0  0  0  0  0
   -0.4755  -22.9486   63.1659 H   0  0  0  0  0  0
   -1.3318  -19.5015   62.2002 H   0  0  0  0  0  0
   -0.9368  -23.6430   60.0549 H   0  0  0  0  0  0
   -2.4355  -25.9296   61.4009 H   0  0  0  0  0  0
   -1.4070  -25.7828   58.4953 H   0  0  0  0  0  0
   -2.2389  -27.1981   59.2245 H   0  0  0  0  0  0
   -3.7701  -25.8730   57.8369 H   0  0  0  0  0  0
   -3.4341  -24.4169   58.8337 H   0  0  0  0  0  0
   -4.2660  -25.8322   59.5629 H   0  0  0  0  0  0
    1.0113  -28.0761   63.1073 H   0  0  0  0  0  0
    1.8517  -27.1799   61.7969 H   0  0  0  0  0  0
   -1.9069  -25.7392   62.9667 H   0  0  0  0  0  0
   -0.5237  -25.5052   64.0885 H   0  0  0  0  0  0
   -1.2468  -27.1365   63.8824 H   0  0  0  0  0  0
    1.9386  -25.3497   61.3337 H   0  0  0  0  0  0
    3.4835  -24.4670   61.5806 H   0  0  0  0  0  0
    1.9218  -23.6722   61.9758 H   0  0  0  0  0  0
    3.3723  -24.9295   65.2251 H   0  0  0  0  0  0
    5.2309  -24.7776   63.6627 H   0  0  0  0  0  0
    4.5121  -23.3182   62.9011 H   0  0  0  0  0  0
    4.7647  -22.1094   65.0108 H   0  0  0  0  0  0
    4.6813  -24.0020   66.5867 H   0  0  0  0  0  0
    6.1498  -22.9965   66.8299 H   0  0  0  0  0  0
    6.2728  -24.5758   65.9830 H   0  0  0  0  0  0
    6.5218  -22.0622   63.2369 H   0  0  0  0  0  0
    7.3439  -23.4468   64.0331 H   0  0  0  0  0  0
    7.2209  -21.8674   64.8801 H   0  0  0  0  0  0
    1.7298  -24.2468   66.3823 H   0  0  0  0  0  0
    0.1604  -21.9306   65.3512 H   0  0  0  0  0  0
    0.1021  -23.2854   68.0989 H   0  0  0  0  0  0
   -0.8302  -20.9911   68.1674 H   0  0  0  0  0  0
   -2.0964  -22.2431   68.4041 H   0  0  0  0  0  0
   -1.9430  -21.4089   66.8207 H   0  0  0  0  0  0
   -0.4520  -24.8044   66.1951 H   0  0  0  0  0  0
   -1.7211  -23.6508   65.6610 H   0  0  0  0  0  0
   -1.8745  -24.4850   67.2445 H   0  0  0  0  0  0
   -0.1633  -20.6079   65.0608 H   0  0  0  0  0  0
    0.8216  -19.2055   64.5225 H   0  0  0  0  0  0
   -0.4714  -18.9773   65.7485 H   0  0  0  0  0  0
    2.6967  -19.2968   67.7295 H   0  0  0  0  0  0
    2.1861  -17.6283   65.2075 H   0  0  0  0  0  0
    3.3947  -17.2226   66.4730 H   0  0  0  0  0  0
    3.3874  -19.9554   65.2043 H   0  0  0  0  0  0
    3.2996  -18.3310   63.3257 H   0  0  0  0  0  0
    4.8594  -19.2181   63.4087 H   0  0  0  0  0  0
    4.7605  -17.5193   63.9842 H   0  0  0  0  0  0
    4.8069  -19.5432   67.1629 H   0  0  0  0  0  0
    5.6556  -18.2397   66.2644 H   0  0  0  0  0  0
    5.7545  -19.9384   65.6890 H   0  0  0  0  0  0
    2.8404  -16.6987   68.2429 H   0  0  0  0  0  0
    0.4474  -16.6795   70.0076 H   0  0  0  0  0  0
    2.7257  -16.0002   70.7609 H   0  0  0  0  0  0
    1.5109  -14.7082   71.0469 H   0  0  0  0  0  0
    2.6494  -14.5802   69.6634 H   0  0  0  0  0  0
  1  2  1  0  0  0
  1 84  1  0  0  0
  1 87  1  0  0  0
  2  3  1  0  0  0
  2  4  1  0  0  0
  2 88  1  0  0  0
  3 89  1  0  0  0
  3 90  1  0  0  0
  3 91  1  0  0  0
  4  5  2  0  0  0
  4  6  1  0  0  0
  6  7  1  0  0  0
  6  8  1  0  0  0
  7 92  1  0  0  0
  7 93  1  0  0  0
  7 94  1  0  0  0
  8  9  1  0  0  0
  8 13  1  0  0  0
  8 95  1  0  0  0
  9 10  1  0  0  0
  9 96  1  0  0  0
  9 97  1  0  0  0
 10 11  1  0  0  0
 10 12  1  0  0  0
 10 98  1  0  0  0
 11 99  1  0  0  0
 11100  1  0  0  0
 11101  1  0  0  0
 12102  1  0  0  0
 12103  1  0  0  0
 12104  1  0  0  0
 13 14  2  0  0  0
 13 15  1  0  0  0
 15 16  1  0  0  0
 15 17  1  0  0  0
 16105  1  0  0  0
 16106  1  0  0  0
 16107  1  0  0  0
 17 18  1  0  0  0
 17 22  1  0  0  0
 17108  1  0  0  0
 18 19  1  0  0  0
 18109  1  0  0  0
 18110  1  0  0  0
 19 20  1  0  0  0
 19 21  1  0  0  0
 19111  1  0  0  0
 20112  1  0  0  0
 20113  1  0  0  0
 20114  1  0  0  0
 21115  1  0  0  0
 21116  1  0  0  0
 21117  1  0  0  0
 22 23  2  0  0  0
 22 24  1  0  0  0
 24 25  1  0  0  0
 24 26  1  0  0  0
 25118  1  0  0  0
 25119  1  0  0  0
 25120  1  0  0  0
 26 27  1  0  0  0
 26 30  1  0  0  0
 26121  1  0  0  0
 27 28  1  0  0  0
 27 29  1  0  0  0
 27122  1  0  0  0
 28123  1  0  0  0
 28124  1  0  0  0
 28125  1  0  0  0
 29126  1  0  0  0
 29127  1  0  0  0
 29128  1  0  0  0
 30 31  2  0  0  0
 30 33  1  0  0  0
 32 34  2  0  0  0
 32 35  1  0  0  0
 32 46  1  0  0  0
 33 35  1  0  0  0
 33 39  1  0  0  0
 35 36  1  0  0  0
 35129  1  0  0  0
 36 44  1  0  0  0
 36 45  1  0  0  0
 36130  1  0  0  0
 37 41  2  0  0  0
 37 43  1  0  0  0
 37131  1  0  0  0
 38 40  2  0  0  0
 38 41  1  0  0  0
 38132  1  0  0  0
 39133  1  0  0  0
 39134  1  0  0  0
 39135  1  0  0  0
 40136  1  0  0  0
 40137  1  0  0  0
 41138  1  0  0  0
 42 45  1  0  0  0
 42139  1  0  0  0
 42140  1  0  0  0
 42141  1  0  0  0
 43 45  1  0  0  0
 43142  1  0  0  0
 43143  1  0  0  0
 44144  1  0  0  0
 45145  1  0  0  0
 46 47  1  0  0  0
 46146  1  0  0  0
 47 48  1  0  0  0
 47 50  1  0  0  0
 47147  1  0  0  0
 48 49  2  0  0  0
 48 52  1  0  0  0
 50 51  1  0  0  0
 50148  1  0  0  0
 50149  1  0  0  0
 51150  1  0  0  0
 51151  1  0  0  0
 51152  1  0  0  0
 52 53  1  0  0  0
 52 56  1  0  0  0
 53 54  1  0  0  0
 53153  1  0  0  0
 53154  1  0  0  0
 54 55  2  0  0  0
 54 57  1  0  0  0
 56155  1  0  0  0
 56156  1  0  0  0
 56157  1  0  0  0
 57 58  1  0  0  0
 57 59  1  0  0  0
 58158  1  0  0  0
 58159  1  0  0  0
 58160  1  0  0  0
 59 60  1  0  0  0
 59 64  1  0  0  0
 59161  1  0  0  0
 60 61  1  0  0  0
 60162  1  0  0  0
 60163  1  0  0  0
 61 62  1  0  0  0
 61 63  1  0  0  0
 61164  1  0  0  0
 62165  1  0  0  0
 62166  1  0  0  0
 62167  1  0  0  0
 63168  1  0  0  0
 63169  1  0  0  0
 63170  1  0  0  0
 64 65  2  0  0  0
 64 66  1  0  0  0
 66 67  1  0  0  0
 66171  1  0  0  0
 67 68  1  0  0  0
 67 70  1  0  0  0
 67172  1  0  0  0
 68 69  2  0  0  0
 68 73  1  0  0  0
 70 71  1  0  0  0
 70 72  1  0  0  0
 70173  1  0  0  0
 71174  1  0  0  0
 71175  1  0  0  0
 71176  1  0  0  0
 72177  1  0  0  0
 72178  1  0  0  0
 72179  1  0  0  0
 73 74  1  0  0  0
 73 75  1  0  0  0
 74180  1  0  0  0
 74181  1  0  0  0
 74182  1  0  0  0
 75 76  1  0  0  0
 75 80  1  0  0  0
 75183  1  0  0  0
 76 77  1  0  0  0
 76184  1  0  0  0
 76185  1  0  0  0
 77 78  1  0  0  0
 77 79  1  0  0  0
 77186  1  0  0  0
 78187  1  0  0  0
 78188  1  0  0  0
 78189  1  0  0  0
 79190  1  0  0  0
 79191  1  0  0  0
 79192  1  0  0  0
 80 81  2  0  0  0
 80 82  1  0  0  0
 82 83  1  0  0  0
 82193  1  0  0  0
 83 84  1  0  0  0
 83 86  1  0  0  0
 83194  1  0  0  0
 84 85  2  0  0  0
 86195  1  0  0  0
 86196  1  0  0  0
 86197  1  0  0  0
M  END
> <s_m_source_file>
../3odi_ligand.sdf

> <i_m_source_file_index>
1

> <s_epik_input>
W0NIM11bQ0BIXTFbTkhdQyg9TylbQ0BIXShbQ0gzXSlbTkhdQyg9TylbQ0BIXShbQ0gyXVtDSF0oW0NIM10pW0NIM10pTihbQ0gzXSlDKD1PKVtDQEhdKFtDSF0oW0NIM10pW0NIM10pW05IXUMoPU8pW0NASF0oW0NIMl1bQ0hdKFtDSDNdKVtDSDNdKU4oW0NIM10pQyg9TylbQ0gyXU4oW0NIM10pQyg9TylbQ0BIXShbQ0gyXVtDSDNdKVtOSF1DKD1PKVtDQEhdKFtDQEhdKFtPSF0pW0NASF0oW0NIM10pW0NIMl0vW0NIXT1bQ0hdL1tDSF09W0NIMl0pTihbQ0gzXSlDKD1PKVtDQEhdKFtDSF0oW0NIM10pW0NIM10pTihbQ0gzXSlDKD1PKVtDQEhdKFtDSDJdW0NIXShbQ0gzXSlbQ0gzXSlOKFtDSDNdKUMoPU8pW0NAQEhdKE4oQzE9TylbQ0gzXSlbQ0gyXVtDSF0oW0NIM10pW0NIM10=

> <s_epik_cmdline>
J2VwaWtfYXBwJywgJy1pbWFlJywgJ2xpZ2FuZF9wcm8ubWFlJywgJy1vbWFlJywgJ2xpZ2FuZF9wcmVwLm1hZScsICctbXMnLCAnMScsICctcGgnLCAnNycsICctcGh0JywgJzAuNScsICctbnQn

> <s_epik_pKa_notes>
Molecule size exceeds maximum supported for generating protonation states

$$$$
