3odl_ligand
                    3D
 Schrodinger Suite 2020-3.
197197  0  0  1  0            999 V2000
   17.1710   33.1120   52.6440 N   0  0  0  0  0  0
   17.7170   33.2670   51.2920 C   0  0  2  0  0  0
   17.9010   34.7410   50.9810 C   0  0  0  0  0  0
   16.7720   32.6260   50.2650 C   0  0  0  0  0  0
   15.5580   32.8090   50.3710 O   0  0  0  0  0  0
   17.2950   31.8870   49.2780 N   0  0  0  0  0  0
   18.7220   31.5810   49.1670 C   0  0  0  0  0  0
   16.4020   31.2460   48.3010 C   0  0  1  0  0  0
   16.4070   31.9260   46.9160 C   0  0  0  0  0  0
   15.9290   33.3810   46.9170 C   0  0  0  0  0  0
   16.1790   34.0430   45.5680 C   0  0  0  0  0  0
   14.4540   33.5190   47.2890 C   0  0  0  0  0  0
   16.6650   29.7610   48.1650 C   0  0  0  0  0  0
   17.3070   29.2700   47.0140 O   0  0  0  0  0  0
   16.2740   28.9620   49.1590 N   0  0  0  0  0  0
   15.4490   29.4480   50.2670 C   0  0  0  0  0  0
   16.5620   27.5310   49.0860 C   0  0  1  0  0  0
   17.2480   27.0180   50.3630 C   0  0  0  0  0  0
   18.6250   27.6480   50.6030 C   0  0  0  0  0  0
   19.2980   27.0180   51.8190 C   0  0  0  0  0  0
   19.5400   27.5670   49.3810 C   0  0  0  0  0  0
   15.3380   26.7200   48.7380 C   0  0  0  0  0  0
   14.0650   27.3110   48.8170 O   0  0  0  0  0  0
   15.5030   25.4600   48.3420 N   0  0  0  0  0  0
   16.7960   24.9720   47.8740 C   0  0  0  0  0  0
   14.3240   24.6030   48.1990 C   0  0  1  0  0  0
   13.9750   24.2050   46.7520 C   0  0  0  0  0  0
   12.5610   23.6340   46.6680 C   0  0  0  0  0  0
   14.1290   25.3400   45.7400 C   0  0  0  0  0  0
   14.4330   23.4100   49.1160 C   0  0  0  0  0  0
   14.8080   22.1650   48.5880 O   0  0  0  0  0  0
   13.0870   21.7520   51.7180 C   0  0  0  0  0  0
   14.1670   23.5860   50.4120 N   0  0  0  0  0  0
   11.9950   22.2480   51.4590 O   0  0  0  0  0  0
   14.3580   22.4640   51.3370 C   0  0  1  0  0  0
   15.2360   22.7580   52.5760 C   0  0  2  0  0  0
   18.1100   22.0380   53.6970 C   0  0  0  0  0  0
   18.2020   22.2560   56.1500 C   0  0  0  0  0  0
   13.4220   24.7660   50.8590 C   0  0  0  0  0  0
   18.5530   21.6630   57.2880 C   0  0  0  0  0  0
   18.4170   21.5330   54.8910 C   0  0  0  0  0  0
   17.3210   22.7840   51.0550 C   0  0  0  0  0  0
   17.5030   23.4120   53.4940 C   0  0  0  0  0  0
   14.5130   23.5160   53.5250 O   0  0  0  0  0  0
   16.5980   23.4080   52.2600 C   0  0  2  0  0  0
   13.2300   20.5790   52.3290 N   0  0  0  0  0  0
   12.0900   19.7720   52.7560 C   0  0  2  0  0  0
   12.0240   19.6190   54.2810 C   0  0  0  0  0  0
   12.4660   18.6040   54.8120 O   0  0  0  0  0  0
   12.1390   18.3820   52.1010 C   0  0  0  0  0  0
   12.1750   18.4470   50.5810 C   0  0  0  0  0  0
   11.4800   20.6090   54.9950 N   0  0  0  0  0  0
   11.3800   20.4740   56.4450 C   0  0  0  0  0  0
   11.9330   21.6530   57.2240 C   0  0  0  0  0  0
   11.0410   22.4650   57.9380 O   0  0  0  0  0  0
   10.8960   21.8260   54.4470 C   0  0  0  0  0  0
   13.2480   21.8640   57.2140 N   0  0  0  0  0  0
   14.1840   20.9030   56.6390 C   0  0  0  0  0  0
   13.7950   23.0840   57.8050 C   0  0  1  0  0  0
   15.0000   22.7950   58.7150 C   0  0  0  0  0  0
   15.3150   23.9190   59.7070 C   0  0  0  0  0  0
   14.2020   24.1160   60.7380 C   0  0  0  0  0  0
   16.6410   23.6540   60.4160 C   0  0  0  0  0  0
   14.1230   24.0880   56.7300 C   0  0  0  0  0  0
   15.3450   24.0300   56.0410 O   0  0  0  0  0  0
   13.1950   25.0020   56.4700 N   0  0  0  0  0  0
   13.3860   26.0340   55.4530 C   0  0  2  0  0  0
   14.3170   27.1040   56.0160 C   0  0  0  0  0  0
   14.0840   27.5960   57.1180 O   0  0  0  0  0  0
   12.0350   26.6660   55.0090 C   0  0  0  0  0  0
   12.2380   27.7080   53.9000 C   0  0  0  0  0  0
   11.0590   25.5910   54.5530 C   0  0  0  0  0  0
   15.3830   27.4450   55.2890 N   0  0  0  0  0  0
   15.6830   26.7610   54.0300 C   0  0  0  0  0  0
   16.3150   28.4560   55.7920 C   0  0  1  0  0  0
   17.7630   27.9520   55.9080 C   0  0  0  0  0  0
   17.8790   26.6790   56.7540 C   0  0  0  0  0  0
   19.1640   25.9200   56.4280 C   0  0  0  0  0  0
   17.7700   26.9500   58.2560 C   0  0  0  0  0  0
   16.2170   29.7340   55.0060 C   0  0  0  0  0  0
   15.4310   29.7850   53.8410 O   0  0  0  0  0  0
   16.8880   30.7840   55.4710 N   0  0  0  0  0  0
   16.8050   32.0910   54.8230 C   0  0  2  0  0  0
   17.5440   32.1450   53.4800 C   0  0  0  0  0  0
   18.4230   31.3270   53.2160 O   0  0  0  0  0  0
   17.3020   33.1810   55.7650 C   0  0  0  0  0  0
   16.4119   33.8165   53.0147 H   0  0  0  0  0  0
   18.6934   32.7605   51.2815 H   0  0  0  0  0  0
   18.5789   35.1902   51.7217 H   0  0  0  0  0  0
   16.9260   35.2486   51.0210 H   0  0  0  0  0  0
   18.3315   34.8525   49.9749 H   0  0  0  0  0  0
   19.2746   32.1201   49.9506 H   0  0  0  0  0  0
   19.0884   31.8944   48.1783 H   0  0  0  0  0  0
   18.8754   30.4986   49.2887 H   0  0  0  0  0  0
   15.4140   31.3856   48.7640 H   0  0  0  0  0  0
   17.4301   31.9273   46.5119 H   0  0  0  0  0  0
   15.7440   31.3736   46.2339 H   0  0  0  0  0  0
   16.5184   33.8978   47.6887 H   0  0  0  0  0  0
   17.2415   33.9427   45.3017 H   0  0  0  0  0  0
   15.9151   35.1092   45.6283 H   0  0  0  0  0  0
   15.5608   33.5551   44.8000 H   0  0  0  0  0  0
   14.2753   33.0405   48.2632 H   0  0  0  0  0  0
   13.8351   33.0309   46.5217 H   0  0  0  0  0  0
   14.1894   34.5850   47.3500 H   0  0  0  0  0  0
   15.3247   30.5376   50.1811 H   0  0  0  0  0  0
   15.9400   29.2091   51.2219 H   0  0  0  0  0  0
   14.4627   28.9624   50.2302 H   0  0  0  0  0  0
   17.2593   27.4407   48.2401 H   0  0  0  0  0  0
   16.6196   27.2503   51.2354 H   0  0  0  0  0  0
   17.3884   25.9293   50.2918 H   0  0  0  0  0  0
   18.4568   28.7172   50.7991 H   0  0  0  0  0  0
   18.6252   27.0859   52.6866 H   0  0  0  0  0  0
   20.2340   27.5527   52.0381 H   0  0  0  0  0  0
   19.5199   25.9613   51.6088 H   0  0  0  0  0  0
   19.0382   28.0255   48.5162 H   0  0  0  0  0  0
   19.7630   26.5129   49.1592 H   0  0  0  0  0  0
   20.4772   28.1043   49.5884 H   0  0  0  0  0  0
   17.5649   25.7370   48.0574 H   0  0  0  0  0  0
   16.7396   24.7599   46.7961 H   0  0  0  0  0  0
   17.0583   24.0512   48.4156 H   0  0  0  0  0  0
   13.4997   25.2473   48.5387 H   0  0  0  0  0  0
   14.7061   23.4329   46.4703 H   0  0  0  0  0  0
   12.4515   22.8173   47.3967 H   0  0  0  0  0  0
   12.3814   23.2472   45.6540 H   0  0  0  0  0  0
   11.8317   24.4262   46.8927 H   0  0  0  0  0  0
   15.1477   25.7504   45.8015 H   0  0  0  0  0  0
   13.4002   26.1328   45.9645 H   0  0  0  0  0  0
   13.9499   24.9537   44.7258 H   0  0  0  0  0  0
   14.9172   21.7899   50.6715 H   0  0  0  0  0  0
   15.4397   21.8084   53.0926 H   0  0  0  0  0  0
   18.2954   21.4491   52.7866 H   0  0  0  0  0  0
   17.7624   23.2642   56.1680 H   0  0  0  0  0  0
   13.3769   25.5021   50.0428 H   0  0  0  0  0  0
   13.9286   25.2121   51.7275 H   0  0  0  0  0  0
   12.4013   24.4696   51.1422 H   0  0  0  0  0  0
   18.9926   20.6548   57.2700 H   0  0  0  0  0  0
   18.4036   22.1809   58.2469 H   0  0  0  0  0  0
   18.8545   20.5266   54.9665 H   0  0  0  0  0  0
   16.6522   22.7921   50.1817 H   0  0  0  0  0  0
   17.6016   21.7472   51.2924 H   0  0  0  0  0  0
   18.2264   23.3663   50.8289 H   0  0  0  0  0  0
   16.9078   23.6841   54.3781 H   0  0  0  0  0  0
   18.3060   24.1502   53.3512 H   0  0  0  0  0  0
   13.5185   23.1806   53.8544 H   0  0  0  0  0  0
   16.3801   24.4485   51.9773 H   0  0  0  0  0  0
   14.2548   20.2223   52.5095 H   0  0  0  0  0  0
   11.2163   20.3446   52.4113 H   0  0  0  0  0  0
   13.0420   17.8505   52.4359 H   0  0  0  0  0  0
   11.2467   17.8081   52.3916 H   0  0  0  0  0  0
   12.2092   17.4268   50.1711 H   0  0  0  0  0  0
   13.0685   19.0018   50.2588 H   0  0  0  0  0  0
   11.2733   18.9594   50.2145 H   0  0  0  0  0  0
   10.3233   20.3676   56.7313 H   0  0  0  0  0  0
   11.9392   19.5842   56.7699 H   0  0  0  0  0  0
   11.0218   21.8332   53.3542 H   0  0  0  0  0  0
   11.4009   22.7021   54.8800 H   0  0  0  0  0  0
    9.8245   21.8615   54.6930 H   0  0  0  0  0  0
   13.6268   20.0441   56.2367 H   0  0  0  0  0  0
   14.8790   20.5568   57.4182 H   0  0  0  0  0  0
   14.7517   21.3839   55.8287 H   0  0  0  0  0  0
   12.9863   23.4982   58.4251 H   0  0  0  0  0  0
   14.8049   21.8870   59.3044 H   0  0  0  0  0  0
   15.8981   22.6455   58.0977 H   0  0  0  0  0  0
   15.3945   24.8483   59.1238 H   0  0  0  0  0  0
   13.2510   24.3062   60.2190 H   0  0  0  0  0  0
   14.4463   24.9737   61.3819 H   0  0  0  0  0  0
   14.1085   23.2097   61.3543 H   0  0  0  0  0  0
   17.4351   23.5136   59.6679 H   0  0  0  0  0  0
   16.5527   22.7467   61.0316 H   0  0  0  0  0  0
   16.8905   24.5108   61.0592 H   0  0  0  0  0  0
   12.2598   24.9658   57.0479 H   0  0  0  0  0  0
   13.8484   25.5270   54.5933 H   0  0  0  0  0  0
   11.5891   27.1790   55.8738 H   0  0  0  0  0  0
   12.9450   28.4771   54.2445 H   0  0  0  0  0  0
   11.2736   28.1785   53.6580 H   0  0  0  0  0  0
   12.6408   27.2150   53.0030 H   0  0  0  0  0  0
   10.9243   24.8530   55.3575 H   0  0  0  0  0  0
   11.4573   25.0898   53.6585 H   0  0  0  0  0  0
   10.0900   26.0533   54.3135 H   0  0  0  0  0  0
   14.8833   26.0401   53.8048 H   0  0  0  0  0  0
   16.6414   26.2288   54.1212 H   0  0  0  0  0  0
   15.7498   27.5001   53.2181 H   0  0  0  0  0  0
   15.9523   28.6617   56.8099 H   0  0  0  0  0  0
   18.1545   27.7272   54.9049 H   0  0  0  0  0  0
   18.3847   28.7278   56.3788 H   0  0  0  0  0  0
   17.0214   26.0439   56.4870 H   0  0  0  0  0  0
   19.2177   25.7384   55.3444 H   0  0  0  0  0  0
   19.1671   24.9581   56.9617 H   0  0  0  0  0  0
   20.0325   26.5170   56.7432 H   0  0  0  0  0  0
   16.8381   27.4964   58.4633 H   0  0  0  0  0  0
   18.6295   27.5537   58.5830 H   0  0  0  0  0  0
   17.7641   25.9948   58.8014 H   0  0  0  0  0  0
   17.5160   30.6519   56.3644 H   0  0  0  0  0  0
   15.7317   32.2236   54.6220 H   0  0  0  0  0  0
   16.7562   33.1189   56.7180 H   0  0  0  0  0  0
   17.1307   34.1668   55.3079 H   0  0  0  0  0  0
   18.3778   33.0441   55.9490 H   0  0  0  0  0  0
  1  2  1  0  0  0
  1 84  1  0  0  0
  1 87  1  0  0  0
  2  3  1  0  0  0
  2  4  1  0  0  0
  2 88  1  0  0  0
  3 89  1  0  0  0
  3 90  1  0  0  0
  3 91  1  0  0  0
  4  5  2  0  0  0
  4  6  1  0  0  0
  6  7  1  0  0  0
  6  8  1  0  0  0
  7 92  1  0  0  0
  7 93  1  0  0  0
  7 94  1  0  0  0
  8  9  1  0  0  0
  8 13  1  0  0  0
  8 95  1  0  0  0
  9 10  1  0  0  0
  9 96  1  0  0  0
  9 97  1  0  0  0
 10 11  1  0  0  0
 10 12  1  0  0  0
 10 98  1  0  0  0
 11 99  1  0  0  0
 11100  1  0  0  0
 11101  1  0  0  0
 12102  1  0  0  0
 12103  1  0  0  0
 12104  1  0  0  0
 13 14  2  0  0  0
 13 15  1  0  0  0
 15 16  1  0  0  0
 15 17  1  0  0  0
 16105  1  0  0  0
 16106  1  0  0  0
 16107  1  0  0  0
 17 18  1  0  0  0
 17 22  1  0  0  0
 17108  1  0  0  0
 18 19  1  0  0  0
 18109  1  0  0  0
 18110  1  0  0  0
 19 20  1  0  0  0
 19 21  1  0  0  0
 19111  1  0  0  0
 20112  1  0  0  0
 20113  1  0  0  0
 20114  1  0  0  0
 21115  1  0  0  0
 21116  1  0  0  0
 21117  1  0  0  0
 22 23  2  0  0  0
 22 24  1  0  0  0
 24 25  1  0  0  0
 24 26  1  0  0  0
 25118  1  0  0  0
 25119  1  0  0  0
 25120  1  0  0  0
 26 27  1  0  0  0
 26 30  1  0  0  0
 26121  1  0  0  0
 27 28  1  0  0  0
 27 29  1  0  0  0
 27122  1  0  0  0
 28123  1  0  0  0
 28124  1  0  0  0
 28125  1  0  0  0
 29126  1  0  0  0
 29127  1  0  0  0
 29128  1  0  0  0
 30 31  2  0  0  0
 30 33  1  0  0  0
 32 34  2  0  0  0
 32 35  1  0  0  0
 32 46  1  0  0  0
 33 35  1  0  0  0
 33 39  1  0  0  0
 35 36  1  0  0  0
 35129  1  0  0  0
 36 44  1  0  0  0
 36 45  1  0  0  0
 36130  1  0  0  0
 37 41  2  0  0  0
 37 43  1  0  0  0
 37131  1  0  0  0
 38 40  2  0  0  0
 38 41  1  0  0  0
 38132  1  0  0  0
 39133  1  0  0  0
 39134  1  0  0  0
 39135  1  0  0  0
 40136  1  0  0  0
 40137  1  0  0  0
 41138  1  0  0  0
 42 45  1  0  0  0
 42139  1  0  0  0
 42140  1  0  0  0
 42141  1  0  0  0
 43 45  1  0  0  0
 43142  1  0  0  0
 43143  1  0  0  0
 44144  1  0  0  0
 45145  1  0  0  0
 46 47  1  0  0  0
 46146  1  0  0  0
 47 48  1  0  0  0
 47 50  1  0  0  0
 47147  1  0  0  0
 48 49  2  0  0  0
 48 52  1  0  0  0
 50 51  1  0  0  0
 50148  1  0  0  0
 50149  1  0  0  0
 51150  1  0  0  0
 51151  1  0  0  0
 51152  1  0  0  0
 52 53  1  0  0  0
 52 56  1  0  0  0
 53 54  1  0  0  0
 53153  1  0  0  0
 53154  1  0  0  0
 54 55  2  0  0  0
 54 57  1  0  0  0
 56155  1  0  0  0
 56156  1  0  0  0
 56157  1  0  0  0
 57 58  1  0  0  0
 57 59  1  0  0  0
 58158  1  0  0  0
 58159  1  0  0  0
 58160  1  0  0  0
 59 60  1  0  0  0
 59 64  1  0  0  0
 59161  1  0  0  0
 60 61  1  0  0  0
 60162  1  0  0  0
 60163  1  0  0  0
 61 62  1  0  0  0
 61 63  1  0  0  0
 61164  1  0  0  0
 62165  1  0  0  0
 62166  1  0  0  0
 62167  1  0  0  0
 63168  1  0  0  0
 63169  1  0  0  0
 63170  1  0  0  0
 64 65  2  0  0  0
 64 66  1  0  0  0
 66 67  1  0  0  0
 66171  1  0  0  0
 67 68  1  0  0  0
 67 70  1  0  0  0
 67172  1  0  0  0
 68 69  2  0  0  0
 68 73  1  0  0  0
 70 71  1  0  0  0
 70 72  1  0  0  0
 70173  1  0  0  0
 71174  1  0  0  0
 71175  1  0  0  0
 71176  1  0  0  0
 72177  1  0  0  0
 72178  1  0  0  0
 72179  1  0  0  0
 73 74  1  0  0  0
 73 75  1  0  0  0
 74180  1  0  0  0
 74181  1  0  0  0
 74182  1  0  0  0
 75 76  1  0  0  0
 75 80  1  0  0  0
 75183  1  0  0  0
 76 77  1  0  0  0
 76184  1  0  0  0
 76185  1  0  0  0
 77 78  1  0  0  0
 77 79  1  0  0  0
 77186  1  0  0  0
 78187  1  0  0  0
 78188  1  0  0  0
 78189  1  0  0  0
 79190  1  0  0  0
 79191  1  0  0  0
 79192  1  0  0  0
 80 81  2  0  0  0
 80 82  1  0  0  0
 82 83  1  0  0  0
 82193  1  0  0  0
 83 84  1  0  0  0
 83 86  1  0  0  0
 83194  1  0  0  0
 84 85  2  0  0  0
 86195  1  0  0  0
 86196  1  0  0  0
 86197  1  0  0  0
M  END
> <s_m_source_file>
../3odl_ligand.sdf

> <i_m_source_file_index>
1

> <s_epik_input>
W0NIM11bQ0BIXTFbTkhdQyg9TylbQ0BIXShbQ0gzXSlbTkhdQyg9TylbQ0BIXShbQ0gyXVtDSF0oW0NIM10pW0NIM10pTihbQ0gzXSlDKD1PKVtDQEhdKFtDSF0oW0NIM10pW0NIM10pW05IXUMoPU8pW0NASF0oW0NIMl1bQ0hdKFtDSDNdKVtDSDNdKU4oW0NIM10pQyg9TylbQ0gyXU4oW0NIM10pQyg9TylbQ0BIXShbQ0gyXVtDSDNdKVtOSF1DKD1PKVtDQEhdKFtDQEhdKFtPSF0pW0NASF0oW0NIM10pW0NIMl0vW0NIXT1bQ0hdXFtDSF09W0NIMl0pTihbQ0gzXSlDKD1PKVtDQEhdKFtDSF0oW0NIM10pW0NIM10pTihbQ0gzXSlDKD1PKVtDQEhdKFtDSDJdW0NIXShbQ0gzXSlbQ0gzXSlOKFtDSDNdKUMoPU8pW0NAQEhdKE4oQzE9TylbQ0gzXSlbQ0gyXVtDSF0oW0NIM10pW0NIM10=

> <s_epik_cmdline>
J2VwaWtfYXBwJywgJy1pbWFlJywgJ2xpZ2FuZF9wcm8ubWFlJywgJy1vbWFlJywgJ2xpZ2FuZF9wcmVwLm1hZScsICctbXMnLCAnMScsICctcGgnLCAnNycsICctcGh0JywgJzAuNScsICctbnQn

> <s_epik_pKa_notes>
Molecule size exceeds maximum supported for generating protonation states

$$$$
