3odu_ligand
                    3D
 Schrodinger Suite 2020-3.
 63 66  0  0  1  0            999 V2000
   16.2630   -6.2800   67.1020 C   0  0  0  0  0  0
   17.9260   -7.9840   67.6150 N   0  0  0  0  0  0
   18.8530   -9.8430   69.4940 S   0  0  0  0  0  0
   17.6610   -6.5460   67.6430 C   0  0  0  0  0  0
   18.2090   -7.3820   69.7010 N   0  3  0  0  0  0
   20.2660   -6.1330   72.2410 S   0  0  0  0  0  0
   18.7290   -5.8120   66.8360 C   0  0  0  0  0  0
   20.7210   -8.1890   73.6900 N   0  3  0  0  0  0
   18.2290   -8.3790   68.8590 C   0  0  0  0  0  0
   22.5090   -7.4970   72.3240 N   0  0  0  0  0  0
   18.9810   -9.0930   71.0610 C   0  0  0  0  0  0
   17.7520   -6.1320   69.1200 C   0  0  0  0  0  0
   18.5880   -7.7370   70.9550 C   0  0  0  0  0  0
   18.6210   -6.7600   72.1050 C   0  0  0  0  0  0
   21.2550   -7.3690   72.7790 C   0  0  0  0  0  0
   21.3010   -9.3400   74.3660 C   0  0  0  0  0  0
   22.1470   -9.0060   75.5860 C   0  0  0  0  0  0
   22.2680  -10.2460   76.4700 C   0  0  0  0  0  0
   22.8210  -11.4530   75.7100 C   0  0  0  0  0  0
   22.1440  -11.6820   74.3500 C   0  0  0  0  0  0
   21.9670  -10.4100   73.5160 C   0  0  0  0  0  0
   22.9540   -7.4320   70.9310 C   0  0  0  0  0  0
   21.8950   -7.6050   69.8450 C   0  0  0  0  0  0
   22.5520   -7.7520   68.4730 C   0  0  0  0  0  0
   23.5120   -6.6030   68.1570 C   0  0  0  0  0  0
   24.5160   -6.3620   69.2800 C   0  0  0  0  0  0
   23.8280   -6.2180   70.6370 C   0  0  0  0  0  0
   16.2153   -6.5815   66.0452 H   0  0  0  0  0  0
   16.0345   -5.2074   67.1879 H   0  0  0  0  0  0
   15.5291   -6.8589   67.6820 H   0  0  0  0  0  0
   17.8557   -8.5379   66.6672 H   0  0  0  0  0  0
   18.6604   -6.1111   65.7797 H   0  0  0  0  0  0
   19.7248   -6.0694   67.2261 H   0  0  0  0  0  0
   18.5713   -4.7267   66.9208 H   0  0  0  0  0  0
   23.2405   -7.6675   73.1277 H   0  0  0  0  0  0
   19.3103   -9.5875   71.9749 H   0  0  0  0  0  0
   18.4659   -5.3017   69.2247 H   0  0  0  0  0  0
   16.7609   -5.8100   69.4723 H   0  0  0  0  0  0
   18.3428   -7.2658   73.0414 H   0  0  0  0  0  0
   17.9260   -5.9284   71.9171 H   0  0  0  0  0  0
   20.3385   -9.7686   74.6820 H   0  0  0  0  0  0
   23.1480   -8.6856   75.2615 H   0  0  0  0  0  0
   21.6681   -8.1942   76.1532 H   0  0  0  0  0  0
   22.9467  -10.0333   77.3091 H   0  0  0  0  0  0
   21.2758  -10.5163   76.8604 H   0  0  0  0  0  0
   23.8953  -11.3079   75.5233 H   0  0  0  0  0  0
   22.6727  -12.3632   76.3096 H   0  0  0  0  0  0
   22.7494  -12.3789   73.7518 H   0  0  0  0  0  0
   21.1419  -12.1079   74.5063 H   0  0  0  0  0  0
   21.3369  -10.6282   72.6412 H   0  0  0  0  0  0
   22.9506  -10.0510   73.1790 H   0  0  0  0  0  0
   23.5505   -8.3561   70.9187 H   0  0  0  0  0  0
   21.2996   -8.5060   70.0537 H   0  0  0  0  0  0
   21.2356   -6.7246   69.8322 H   0  0  0  0  0  0
   23.1245   -8.6907   68.4393 H   0  0  0  0  0  0
   21.7752   -7.7682   67.6943 H   0  0  0  0  0  0
   24.0748   -6.8368   67.2413 H   0  0  0  0  0  0
   22.9384   -5.6763   68.0083 H   0  0  0  0  0  0
   25.2143   -7.2101   69.3357 H   0  0  0  0  0  0
   25.0771   -5.4377   69.0781 H   0  0  0  0  0  0
   23.2046   -5.3118   70.6246 H   0  0  0  0  0  0
   24.5978   -6.1228   71.4170 H   0  0  0  0  0  0
   19.6870   -8.0330   74.0315 H   0  0  0  0  0  0
  1  4  1  0  0  0
  1 28  1  0  0  0
  1 29  1  0  0  0
  1 30  1  0  0  0
  2  4  1  0  0  0
  2  9  1  0  0  0
  2 31  1  0  0  0
  3  9  1  0  0  0
  3 11  1  0  0  0
  4  7  1  0  0  0
  4 12  1  0  0  0
  5  9  2  0  0  0
  5 12  1  0  0  0
  5 13  1  0  0  0
  6 14  1  0  0  0
  6 15  1  0  0  0
  7 32  1  0  0  0
  7 33  1  0  0  0
  7 34  1  0  0  0
  8 15  2  0  0  0
  8 16  1  0  0  0
  8 63  1  0  0  0
 10 15  1  0  0  0
 10 22  1  0  0  0
 10 35  1  0  0  0
 11 13  2  0  0  0
 11 36  1  0  0  0
 12 37  1  0  0  0
 12 38  1  0  0  0
 13 14  1  0  0  0
 14 39  1  0  0  0
 14 40  1  0  0  0
 16 17  1  0  0  0
 16 21  1  0  0  0
 16 41  1  0  0  0
 17 18  1  0  0  0
 17 42  1  0  0  0
 17 43  1  0  0  0
 18 19  1  0  0  0
 18 44  1  0  0  0
 18 45  1  0  0  0
 19 20  1  0  0  0
 19 46  1  0  0  0
 19 47  1  0  0  0
 20 21  1  0  0  0
 20 48  1  0  0  0
 20 49  1  0  0  0
 21 50  1  0  0  0
 21 51  1  0  0  0
 22 23  1  0  0  0
 22 27  1  0  0  0
 22 52  1  0  0  0
 23 24  1  0  0  0
 23 53  1  0  0  0
 23 54  1  0  0  0
 24 25  1  0  0  0
 24 55  1  0  0  0
 24 56  1  0  0  0
 25 26  1  0  0  0
 25 57  1  0  0  0
 25 58  1  0  0  0
 26 27  1  0  0  0
 26 59  1  0  0  0
 26 60  1  0  0  0
 27 61  1  0  0  0
 27 62  1  0  0  0
M  CHG  2   5   1   8   1
M  END
> <s_m_source_file>
../3odu_ligand.sdf

> <i_m_source_file_index>
1

> <s_epik_input>
W0NIM11DKFtDSDNdKShbQ0gyXTEpW05IXWMoW24rXTEyKXNbY0hdYzJbQ0gyXVNcQyg9TlxbQ0hdM1tDSDJdW0NIMl1bQ0gyXVtDSDJdW0NIMl0zKVtOSF1bQ0hdNFtDSDJdW0NIMl1bQ0gyXVtDSDJdW0NIMl00

> <s_epik_cmdline>
J2VwaWtfYXBwJywgJy1pbWFlJywgJ2xpZ2FuZF9wcm8ubWFlJywgJy1vbWFlJywgJ2xpZ2FuZF9wcmVwLm1hZScsICctbXMnLCAnMScsICctcGgnLCAnNycsICctcGh0JywgJzAuNScsICctbnQn

> <r_lp_tautomer_probability>
1

> <r_epik_Ionization_Penalty>
  0.0104

> <r_epik_Ionization_Penalty_Charging>
  0.0088

> <r_epik_Ionization_Penalty_Neutral>
  0.0016

> <r_epik_State_Penalty>
 -0.0000

> <r_epik_Charging_Adjusted_Penalty>
0.00883458191739538

> <i_epik_Tot_Q>
2

> <i_epik_Tot_abs_Q>
2

> <s_epik_Chemistry_Notes>
This compound has an imine and may undergo hydrolysis.

$$$$
