3oe0_ligand
                    3D
 Schrodinger Suite 2020-3.
294301  0  0  1  0            999 V2000
   59.4750   30.3240    8.4230 N   0  3  0  0  0  0
   58.0180   30.4560    8.6730 C   0  0  2  0  0  0
   57.2900   30.0510    7.4180 C   0  0  0  0  0  0
   57.5170   30.6360    6.3650 O   0  0  0  0  0  0
   57.6540   31.8920    9.0490 C   0  0  0  0  0  0
   57.4620   32.1170   10.5580 C   0  0  0  0  0  0
   56.9870   33.5390   10.8840 C   0  0  0  0  0  0
   57.5970   34.5380    9.9850 N   0  0  0  0  0  0
   57.9640   35.7760   10.3310 C   0  0  0  0  0  0
   58.5070   36.5780    9.4190 N   0  0  0  0  0  0
   57.8010   36.2240   11.5730 N   0  0  0  0  0  0
   56.4020   29.0650    7.5320 N   0  0  0  0  0  0
   55.7560   28.4620    6.3620 C   0  0  2  0  0  0
   54.5520   29.2370    5.8490 C   0  0  0  0  0  0
   54.1180   28.9900    4.7270 O   0  0  0  0  0  0
   55.3510   27.0200    6.6660 C   0  0  0  0  0  0
   56.5450   26.0830    6.6960 C   0  0  0  0  0  0
   56.1560   24.6230    6.8710 C   0  0  0  0  0  0
   55.8200   23.9210    5.6340 N   0  0  0  0  0  0
   56.6780   23.6510    4.6500 C   0  0  0  0  0  0
   57.9530   24.0410    4.7040 N   0  0  0  0  0  0
   56.2500   22.9960    3.5800 N   0  0  0  0  0  0
   53.8030   30.2350    6.3330 N   0  0  0  0  0  0
   52.5750   30.6520    5.6750 C   0  0  2  0  0  0
   52.6130   32.1420    5.5460 C   0  0  0  0  0  0
   51.7360   32.8200    6.1170 O   0  0  0  0  0  0
   51.3520   30.2180    6.4780 C   0  0  0  0  0  0
   51.2570   28.7230    6.6950 C   0  0  0  0  0  0
   51.4820   28.1970    7.9600 C   0  0  0  0  0  0
   51.4060   26.8320    8.2320 C   0  0  0  0  0  0
   50.9100   27.7810    5.6130 C   0  0  0  0  0  0
   50.8420   26.3420    5.9500 C   0  0  0  0  0  0
   51.0860   25.9140    7.2420 C   0  0  0  0  0  0
   50.6530   28.1910    4.3100 C   0  0  0  0  0  0
   50.3450   27.2470    3.3410 C   0  0  0  0  0  0
   50.2830   25.8920    3.6670 C   0  0  0  0  0  0
   50.5280   25.4340    4.9620 C   0  0  0  0  0  0
   53.5940   32.7330    4.8670 N   0  0  0  0  0  0
   53.5970   34.1930    4.7530 C   0  0  2  0  0  0
   52.8830   34.6360    3.4950 C   0  0  0  0  0  0
   52.6490   33.8380    2.6010 O   0  0  0  0  0  0
   55.0250   34.7380    4.7640 C   0  0  0  0  0  0
   55.9210   34.2760    6.2510 S   0  0  0  0  0  0
   52.5290   35.9130    3.4320 N   0  0  0  0  0  0
   51.7860   36.4200    2.2960 C   0  0  2  0  0  0
   51.6430   37.9320    2.3010 C   0  0  0  0  0  0
   51.9920   38.5860    3.2780 O   0  0  0  0  0  0
   50.4040   35.7690    2.2490 C   0  0  0  0  0  0
   49.5110   36.0490    3.4370 C   0  0  0  0  0  0
   49.7260   35.4380    4.6630 C   0  0  0  0  0  0
   48.4180   36.8970    3.3090 C   0  0  0  0  0  0
   48.8870   35.6850    5.7380 C   0  0  0  0  0  0
   47.5740   37.1490    4.3710 C   0  0  0  0  0  0
   47.8040   36.5410    5.5820 C   0  0  0  0  0  0
   46.9420   36.8070    6.6290 O   0  0  0  0  0  0
   51.1220   38.4600    1.1930 N   0  0  0  0  0  0
   50.9150   39.8940    1.0030 C   0  0  2  0  0  0
   49.4510   40.2620    1.2340 C   0  0  0  0  0  0
   48.5780   39.7690    0.5250 O   0  0  0  0  0  0
   51.3170   40.2890   -0.4270 C   0  0  0  0  0  0
   51.3090   41.7900   -0.7180 C   0  0  0  0  0  0
   52.3940   42.5330    0.0360 C   0  0  0  0  0  0
   53.5800   42.2460   -0.1200 O   0  0  0  0  0  0
   51.9930   43.4980    0.8550 N   0  0  0  0  0  0
   49.1920   41.1210    2.2220 N   0  0  0  0  0  0
   47.8570   41.6960    2.4380 C   0  0  2  0  0  0
   47.9080   43.2050    2.1980 C   0  0  0  0  0  0
   48.3460   43.9540    3.0770 O   0  0  0  0  0  0
   47.3520   41.4000    3.8550 C   0  0  0  0  0  0
   45.8800   41.7920    4.1250 C   0  0  0  0  0  0
   44.8790   40.8690    3.4200 C   0  0  0  0  0  0
   43.4540   41.1010    3.9420 C   0  0  0  0  0  0
   42.3910   40.4320    3.1110 N   0  3  0  0  0  0
   47.4800   43.6590    0.9990 N   0  0  0  0  0  0
   47.6190   45.0760    0.6500 C   0  0  2  0  0  0
   47.1270   45.1260   -0.8030 C   0  0  0  0  0  0
   47.3130   43.7420   -1.3180 C   0  0  0  0  0  0
   46.9820   42.8740   -0.1480 C   0  0  0  0  0  0
   49.0800   45.5270    0.7170 C   0  0  0  0  0  0
   49.9320   44.9130    0.0720 O   0  0  0  0  0  0
   49.3740   46.5810    1.4980 N   0  0  0  0  0  0
   50.7620   47.0040    1.6480 C   0  0  2  0  0  0
   51.5360   46.1580    2.6620 C   0  0  0  0  0  0
   52.7580   46.3040    2.7590 O   0  0  0  0  0  0
   50.6280   48.4410    2.1530 C   0  0  0  0  0  0
   49.3900   48.4120    2.9680 C   0  0  0  0  0  0
   48.4620   47.4220    2.2950 C   0  0  0  0  0  0
   50.8340   45.2740    3.3830 N   0  0  0  0  0  0
   51.4190   44.4880    4.4790 C   0  0  2  0  0  0
   51.9860   43.1350    4.0470 C   0  0  0  0  0  0
   51.4860   42.5090    3.1190 O   0  0  0  0  0  0
   50.3690   44.2690    5.5760 C   0  0  0  0  0  0
   49.8110   45.5680    6.1040 C   0  0  0  0  0  0
   50.4660   46.2660    7.1210 C   0  0  0  0  0  0
   48.6500   46.1220    5.5690 C   0  0  0  0  0  0
   49.9750   47.4640    7.5970 C   0  0  0  0  0  0
   48.1520   47.3250    6.0410 C   0  0  0  0  0  0
   48.8200   47.9880    7.0520 C   0  0  0  0  0  0
   48.3370   49.1800    7.5240 O   0  0  0  0  0  0
   53.0510   42.7110    4.7190 N   0  0  0  0  0  0
   53.4920   41.3220    4.6850 C   0  0  2  0  0  0
   52.9320   40.6550    5.9280 C   0  0  0  0  0  0
   52.8910   41.2760    6.9920 O   0  0  0  0  0  0
   55.0190   41.1930    4.6900 C   0  0  0  0  0  0
   55.6610   41.4030    3.3340 C   0  0  0  0  0  0
   57.0360   40.7440    3.2380 C   0  0  0  0  0  0
   57.4800   40.6450    1.8410 N   0  0  0  0  0  0
   58.4330   39.8230    1.3940 C   0  0  0  0  0  0
   58.7390   39.8180    0.1010 N   0  0  0  0  0  0
   59.0800   39.0010    2.2180 N   0  0  0  0  0  0
   52.3740   37.4070    7.2000 C   0  0  0  0  0  0
   52.7100   36.9470    6.0910 O   0  0  0  0  0  0
   51.7200   38.7460    7.1800 C   0  0  1  0  0  0
   52.2740   39.5020    6.0770 N   0  0  0  0  0  0
   50.2400   38.5590    6.9340 C   0  0  0  0  0  0
   49.4810   39.8500    7.1640 C   0  0  0  0  0  0
   48.5320   39.7010    8.3450 C   0  0  0  0  0  0
   47.2000   40.1890    8.0390 N   0  0  0  0  0  0
   46.2080   40.0450    8.9170 C   0  0  0  0  0  0
   46.3950   39.4720    9.9880 O   0  0  0  0  0  0
   45.0080   40.5530    8.6070 N   0  0  0  0  0  0
   52.4720   36.7710    8.3610 N   0  0  0  0  0  0
   52.4550   35.3150    8.2720 C   0  0  2  0  0  0
   51.4170   34.7220    9.2250 C   0  0  0  0  0  0
   51.0640   35.3270   10.2370 O   0  0  0  0  0  0
   53.8530   34.7440    8.5540 C   0  0  0  0  0  0
   55.2370   35.6010    7.6660 S   0  0  0  0  0  0
   50.9300   33.5320    8.8880 N   0  0  0  0  0  0
   49.8700   32.8860    9.6520 C   0  0  2  0  0  0
   50.3630   32.2410   10.9500 C   0  0  0  0  0  0
   49.5520   31.8060   11.7850 O   0  0  0  0  0  0
   49.1610   31.8500    8.7880 C   0  0  0  0  0  0
   47.9970   32.3900    8.0150 C   0  0  0  0  0  0
   46.8600   32.7900    8.9360 C   0  0  0  0  0  0
   46.7000   34.2370    9.0290 N   0  0  0  0  0  0
   45.8280   34.8400    9.8290 C   0  0  0  0  0  0
   45.7490   36.1640    9.8450 N   0  0  0  0  0  0
   45.0420   34.1290   10.6260 N   0  0  0  0  0  0
   51.6760   32.1760   11.1340 N   0  0  0  0  0  0
   52.2220   31.7430   12.4180 C   0  0  0  0  0  0
   52.3900   30.2400   12.4620 C   0  0  0  0  0  0
   51.4190   29.4940   12.3290 O   0  0  0  0  0  0
   53.6280   29.7940   12.6970 N   0  0  0  0  0  0
   54.0890   28.5130   12.2040 C   0  0  2  0  0  0
   55.1280   28.0840   13.2480 C   0  0  0  0  0  0
   55.2090   29.2100   14.2400 C   0  0  0  0  0  0
   54.6100   30.3970   13.6080 C   0  0  0  0  0  0
   54.7350   28.7350   10.8330 C   0  0  0  0  0  0
   55.5060   27.9150   10.3210 O   0  0  0  0  0  0
   54.5020   29.7720   10.1970 O   0  0  0  0  0  0
   59.7082   29.2829    8.1551 H   0  0  0  0  0  0
   60.0295   30.6018    9.3315 H   0  0  0  0  0  0
   59.7671   30.9894    7.5972 H   0  0  0  0  0  0
   57.7483   29.7917    9.5072 H   0  0  0  0  0  0
   58.4542   32.5712    8.7199 H   0  0  0  0  0  0
   56.7105   32.1718    8.5576 H   0  0  0  0  0  0
   56.7092   31.4123   10.9409 H   0  0  0  0  0  0
   58.4171   31.9514   11.0779 H   0  0  0  0  0  0
   55.8941   33.5950   10.7728 H   0  0  0  0  0  0
   57.2636   33.7898   11.9187 H   0  0  0  0  0  0
   57.7848   34.2870    8.9306 H   0  0  0  0  0  0
   58.6483   36.2220    8.3878 H   0  0  0  0  0  0
   57.3535   35.5728   12.3383 H   0  0  0  0  0  0
   58.1137   37.2456   11.8347 H   0  0  0  0  0  0
   56.1576   28.7044    8.5421 H   0  0  0  0  0  0
   56.5338   28.5137    5.5858 H   0  0  0  0  0  0
   54.8583   26.9769    7.6485 H   0  0  0  0  0  0
   54.6562   26.6632    5.8914 H   0  0  0  0  0  0
   57.1014   26.1678    5.7509 H   0  0  0  0  0  0
   57.2032   26.3544    7.5345 H   0  0  0  0  0  0
   56.9918   24.0732    7.3283 H   0  0  0  0  0  0
   55.2721   24.5545    7.5222 H   0  0  0  0  0  0
   54.7913   23.5716    5.4619 H   0  0  0  0  0  0
   58.3248   24.5856    5.5845 H   0  0  0  0  0  0
   58.6323   23.8179    3.8680 H   0  0  0  0  0  0
   55.2021   22.6672    3.5191 H   0  0  0  0  0  0
   54.1353   30.7431    7.2503 H   0  0  0  0  0  0
   52.5430   30.1764    4.6836 H   0  0  0  0  0  0
   51.3797   30.6892    7.4716 H   0  0  0  0  0  0
   50.4380   30.5282    5.9504 H   0  0  0  0  0  0
   51.7281   28.8793    8.7737 H   0  0  0  0  0  0
   51.6022   26.4782    9.2441 H   0  0  0  0  0  0
   51.0268   24.8527    7.4834 H   0  0  0  0  0  0
   50.6932   29.2490    4.0507 H   0  0  0  0  0  0
   50.1500   27.5665    2.3173 H   0  0  0  0  0  0
   50.0362   25.1707    2.8880 H   0  0  0  0  0  0
   50.4717   24.3696    5.1898 H   0  0  0  0  0  0
   54.3938   32.1429    4.3957 H   0  0  0  0  0  0
   53.0456   34.5590    5.6316 H   0  0  0  0  0  0
   55.5755   34.3415    3.8981 H   0  0  0  0  0  0
   54.9987   35.8364    4.7101 H   0  0  0  0  0  0
   52.8056   36.5891    4.2544 H   0  0  0  0  0  0
   52.4046   36.1400    1.4306 H   0  0  0  0  0  0
   49.8605   36.1260    1.3618 H   0  0  0  0  0  0
   50.5152   34.6759    2.1956 H   0  0  0  0  0  0
   50.5663   34.7542    4.7829 H   0  0  0  0  0  0
   48.2229   37.3738    2.3484 H   0  0  0  0  0  0
   49.0758   35.2102    6.7008 H   0  0  0  0  0  0
   46.7290   37.8269    4.2502 H   0  0  0  0  0  0
   47.1038   36.3333    7.6085 H   0  0  0  0  0  0
   50.8428   37.7538    0.3972 H   0  0  0  0  0  0
   51.5492   40.3917    1.7514 H   0  0  0  0  0  0
   52.3392   39.9374   -0.6309 H   0  0  0  0  0  0
   50.6211   39.8288   -1.1439 H   0  0  0  0  0  0
   51.4696   41.9558   -1.7935 H   0  0  0  0  0  0
   50.3388   42.2157   -0.4223 H   0  0  0  0  0  0
   50.9206   43.7186    0.9617 H   0  0  0  0  0  0
   52.7331   44.0769    1.4269 H   0  0  0  0  0  0
   50.0234   41.3954    2.8880 H   0  0  0  0  0  0
   47.1893   41.2125    1.7097 H   0  0  0  0  0  0
   47.4302   40.3210    4.0542 H   0  0  0  0  0  0
   47.9621   41.9527    4.5846 H   0  0  0  0  0  0
   45.6794   41.7416    5.2054 H   0  0  0  0  0  0
   45.7017   42.8165    3.7664 H   0  0  0  0  0  0
   44.8951   41.0686    2.3384 H   0  0  0  0  0  0
   45.1552   39.8202    3.6034 H   0  0  0  0  0  0
   43.3691   40.7048    4.9646 H   0  0  0  0  0  0
   43.2364   42.1793    3.9473 H   0  0  0  0  0  0
   41.4016   40.6415    3.5436 H   0  0  0  0  0  0
   42.5639   39.3457    3.0999 H   0  0  0  0  0  0
   42.4312   40.8202    2.0826 H   0  0  0  0  0  0
   47.0531   45.7005    1.3570 H   0  0  0  0  0  0
   46.0695   45.4284   -0.8218 H   0  0  0  0  0  0
   47.7268   45.8545   -1.3684 H   0  0  0  0  0  0
   46.6332   43.5719   -2.1659 H   0  0  0  0  0  0
   48.3534   43.6111   -1.6502 H   0  0  0  0  0  0
   47.4999   41.9041   -0.1810 H   0  0  0  0  0  0
   45.9002   42.7084   -0.0370 H   0  0  0  0  0  0
   51.2864   46.8862    0.6882 H   0  0  0  0  0  0
   51.5140   48.7042    2.7494 H   0  0  0  0  0  0
   50.5470   49.1250    1.2954 H   0  0  0  0  0  0
   49.6327   48.0926    3.9923 H   0  0  0  0  0  0
   48.9440   49.4172    2.9934 H   0  0  0  0  0  0
   47.7390   47.9135    1.6274 H   0  0  0  0  0  0
   47.9235   46.7939    3.0199 H   0  0  0  0  0  0
   49.7726   45.1494    3.1225 H   0  0  0  0  0  0
   52.2615   45.1081    4.8190 H   0  0  0  0  0  0
   49.5333   43.6794    5.1711 H   0  0  0  0  0  0
   50.8256   43.7278    6.4178 H   0  0  0  0  0  0
   51.3822   45.8565    7.5465 H   0  0  0  0  0  0
   48.1261   45.6012    4.7675 H   0  0  0  0  0  0
   50.4945   47.9923    8.3965 H   0  0  0  0  0  0
   47.2397   47.7455    5.6178 H   0  0  0  0  0  0
   48.8684   49.7086    8.3291 H   0  0  0  0  0  0
   53.6058   43.4497    5.3160 H   0  0  0  0  0  0
   53.1081   40.8892    3.7494 H   0  0  0  0  0  0
   55.4480   41.9426    5.3712 H   0  0  0  0  0  0
   55.3008   40.1853    5.0293 H   0  0  0  0  0  0
   55.0190   40.9691    2.5532 H   0  0  0  0  0  0
   55.7850   42.4804    3.1499 H   0  0  0  0  0  0
   57.7694   41.3426    3.7982 H   0  0  0  0  0  0
   56.9876   39.7310    3.6639 H   0  0  0  0  0  0
   57.0176   41.2796    1.0706 H   0  0  0  0  0  0
   58.2128   40.4916   -0.5913 H   0  0  0  0  0  0
   58.8372   38.9943    3.2908 H   0  0  0  0  0  0
   59.8573   38.3287    1.8258 H   0  0  0  0  0  0
   51.9118   39.2890    8.1172 H   0  0  0  0  0  0
   52.1870   39.1194    5.0493 H   0  0  0  0  0  0
   50.0789   38.2368    5.8947 H   0  0  0  0  0  0
   49.8481   37.7937    7.6201 H   0  0  0  0  0  0
   50.1931   40.6613    7.3754 H   0  0  0  0  0  0
   48.8988   40.0983    6.2644 H   0  0  0  0  0  0
   48.4532   38.6389    8.6203 H   0  0  0  0  0  0
   48.9188   40.2738    9.2007 H   0  0  0  0  0  0
   47.0028   40.6824    7.0758 H   0  0  0  0  0  0
   44.8587   41.0627    7.6437 H   0  0  0  0  0  0
   44.1718   40.4605    9.3157 H   0  0  0  0  0  0
   52.5613   37.2611    9.3417 H   0  0  0  0  0  0
   52.1603   35.0868    7.2371 H   0  0  0  0  0  0
   54.0706   34.8214    9.6295 H   0  0  0  0  0  0
   53.8862   33.6879    8.2483 H   0  0  0  0  0  0
   51.3516   33.0339    8.0025 H   0  0  0  0  0  0
   49.1951   33.7136    9.9159 H   0  0  0  0  0  0
   49.8703   31.4352    8.0566 H   0  0  0  0  0  0
   48.7774   31.0406    9.4265 H   0  0  0  0  0  0
   48.3142   33.2764    7.4461 H   0  0  0  0  0  0
   47.6296   31.6205    7.3201 H   0  0  0  0  0  0
   45.9168   32.3683    8.5586 H   0  0  0  0  0  0
   47.0549   32.4049    9.9478 H   0  0  0  0  0  0
   47.3243   34.9002    8.4122 H   0  0  0  0  0  0
   46.3972   36.7616    9.1872 H   0  0  0  0  0  0
   45.0353   36.6643   10.5160 H   0  0  0  0  0  0
   45.1008   33.0306   10.6193 H   0  0  0  0  0  0
   52.3540   32.4506   10.3125 H   0  0  0  0  0  0
   53.2052   32.2108   12.5748 H   0  0  0  0  0  0
   51.5397   32.0437   13.2267 H   0  0  0  0  0  0
   53.2664   27.7912   12.0924 H   0  0  0  0  0  0
   54.7992   27.1521   13.7311 H   0  0  0  0  0  0
   56.0972   27.9190   12.7545 H   0  0  0  0  0  0
   54.6550   28.9372   15.1503 H   0  0  0  0  0  0
   56.2622   29.3993   14.4947 H   0  0  0  0  0  0
   55.3337   30.9882   13.0277 H   0  0  0  0  0  0
   54.0920   31.0518   14.3242 H   0  0  0  0  0  0
   54.9669   29.9296    9.2126 H   0  0  0  0  0  0
  1  2  1  0  0  0
  1151  1  0  0  0
  1152  1  0  0  0
  1153  1  0  0  0
  2  3  1  0  0  0
  2  5  1  0  0  0
  2154  1  0  0  0
  3  4  2  0  0  0
  3 12  1  0  0  0
  5  6  1  0  0  0
  5155  1  0  0  0
  5156  1  0  0  0
  6  7  1  0  0  0
  6157  1  0  0  0
  6158  1  0  0  0
  7  8  1  0  0  0
  7159  1  0  0  0
  7160  1  0  0  0
  8  9  1  0  0  0
  8161  1  0  0  0
  9 10  2  0  0  0
  9 11  1  0  0  0
 10162  1  0  0  0
 11163  1  0  0  0
 11164  1  0  0  0
 12 13  1  0  0  0
 12165  1  0  0  0
 13 14  1  0  0  0
 13 16  1  0  0  0
 13166  1  0  0  0
 14 15  2  0  0  0
 14 23  1  0  0  0
 16 17  1  0  0  0
 16167  1  0  0  0
 16168  1  0  0  0
 17 18  1  0  0  0
 17169  1  0  0  0
 17170  1  0  0  0
 18 19  1  0  0  0
 18171  1  0  0  0
 18172  1  0  0  0
 19 20  1  0  0  0
 19173  1  0  0  0
 20 21  1  0  0  0
 20 22  2  0  0  0
 21174  1  0  0  0
 21175  1  0  0  0
 22176  1  0  0  0
 23 24  1  0  0  0
 23177  1  0  0  0
 24 25  1  0  0  0
 24 27  1  0  0  0
 24178  1  0  0  0
 25 26  2  0  0  0
 25 38  1  0  0  0
 27 28  1  0  0  0
 27179  1  0  0  0
 27180  1  0  0  0
 28 29  2  0  0  0
 28 31  1  0  0  0
 29 30  1  0  0  0
 29181  1  0  0  0
 30 33  2  0  0  0
 30182  1  0  0  0
 31 32  2  0  0  0
 31 34  1  0  0  0
 32 33  1  0  0  0
 32 37  1  0  0  0
 33183  1  0  0  0
 34 35  2  0  0  0
 34184  1  0  0  0
 35 36  1  0  0  0
 35185  1  0  0  0
 36 37  2  0  0  0
 36186  1  0  0  0
 37187  1  0  0  0
 38 39  1  0  0  0
 38188  1  0  0  0
 39 40  1  0  0  0
 39 42  1  0  0  0
 39189  1  0  0  0
 40 41  2  0  0  0
 40 44  1  0  0  0
 42 43  1  0  0  0
 42190  1  0  0  0
 42191  1  0  0  0
 43127  1  0  0  0
 44 45  1  0  0  0
 44192  1  0  0  0
 45 46  1  0  0  0
 45 48  1  0  0  0
 45193  1  0  0  0
 46 47  2  0  0  0
 46 56  1  0  0  0
 48 49  1  0  0  0
 48194  1  0  0  0
 48195  1  0  0  0
 49 50  2  0  0  0
 49 51  1  0  0  0
 50 52  1  0  0  0
 50196  1  0  0  0
 51 53  2  0  0  0
 51197  1  0  0  0
 52 54  2  0  0  0
 52198  1  0  0  0
 53 54  1  0  0  0
 53199  1  0  0  0
 54 55  1  0  0  0
 55200  1  0  0  0
 56 57  1  0  0  0
 56201  1  0  0  0
 57 58  1  0  0  0
 57 60  1  0  0  0
 57202  1  0  0  0
 58 59  2  0  0  0
 58 65  1  0  0  0
 60 61  1  0  0  0
 60203  1  0  0  0
 60204  1  0  0  0
 61 62  1  0  0  0
 61205  1  0  0  0
 61206  1  0  0  0
 62 63  2  0  0  0
 62 64  1  0  0  0
 64207  1  0  0  0
 64208  1  0  0  0
 65 66  1  0  0  0
 65209  1  0  0  0
 66 67  1  0  0  0
 66 69  1  0  0  0
 66210  1  0  0  0
 67 68  2  0  0  0
 67 74  1  0  0  0
 69 70  1  0  0  0
 69211  1  0  0  0
 69212  1  0  0  0
 70 71  1  0  0  0
 70213  1  0  0  0
 70214  1  0  0  0
 71 72  1  0  0  0
 71215  1  0  0  0
 71216  1  0  0  0
 72 73  1  0  0  0
 72217  1  0  0  0
 72218  1  0  0  0
 73219  1  0  0  0
 73220  1  0  0  0
 73221  1  0  0  0
 74 75  1  0  0  0
 74 78  1  0  0  0
 75 76  1  0  0  0
 75 79  1  0  0  0
 75222  1  0  0  0
 76 77  1  0  0  0
 76223  1  0  0  0
 76224  1  0  0  0
 77 78  1  0  0  0
 77225  1  0  0  0
 77226  1  0  0  0
 78227  1  0  0  0
 78228  1  0  0  0
 79 80  2  0  0  0
 79 81  1  0  0  0
 81 82  1  0  0  0
 81 87  1  0  0  0
 82 83  1  0  0  0
 82 85  1  0  0  0
 82229  1  0  0  0
 83 84  2  0  0  0
 83 88  1  0  0  0
 85 86  1  0  0  0
 85230  1  0  0  0
 85231  1  0  0  0
 86 87  1  0  0  0
 86232  1  0  0  0
 86233  1  0  0  0
 87234  1  0  0  0
 87235  1  0  0  0
 88 89  1  0  0  0
 88236  1  0  0  0
 89 90  1  0  0  0
 89 92  1  0  0  0
 89237  1  0  0  0
 90 91  2  0  0  0
 90100  1  0  0  0
 92 93  1  0  0  0
 92238  1  0  0  0
 92239  1  0  0  0
 93 94  2  0  0  0
 93 95  1  0  0  0
 94 96  1  0  0  0
 94240  1  0  0  0
 95 97  2  0  0  0
 95241  1  0  0  0
 96 98  2  0  0  0
 96242  1  0  0  0
 97 98  1  0  0  0
 97243  1  0  0  0
 98 99  1  0  0  0
 99244  1  0  0  0
100101  1  0  0  0
100245  1  0  0  0
101102  1  0  0  0
101104  1  0  0  0
101246  1  0  0  0
102103  2  0  0  0
102114  1  0  0  0
104105  1  0  0  0
104247  1  0  0  0
104248  1  0  0  0
105106  1  0  0  0
105249  1  0  0  0
105250  1  0  0  0
106107  1  0  0  0
106251  1  0  0  0
106252  1  0  0  0
107108  1  0  0  0
107253  1  0  0  0
108109  2  0  0  0
108110  1  0  0  0
109254  1  0  0  0
110255  1  0  0  0
110256  1  0  0  0
111112  2  0  0  0
111113  1  0  0  0
111122  1  0  0  0
113114  1  0  0  0
113115  1  0  0  0
113257  1  0  0  0
114258  1  0  0  0
115116  1  0  0  0
115259  1  0  0  0
115260  1  0  0  0
116117  1  0  0  0
116261  1  0  0  0
116262  1  0  0  0
117118  1  0  0  0
117263  1  0  0  0
117264  1  0  0  0
118119  1  0  0  0
118265  1  0  0  0
119120  2  0  0  0
119121  1  0  0  0
121266  1  0  0  0
121267  1  0  0  0
122123  1  0  0  0
122268  1  0  0  0
123124  1  0  0  0
123126  1  0  0  0
123269  1  0  0  0
124125  2  0  0  0
124128  1  0  0  0
126127  1  0  0  0
126270  1  0  0  0
126271  1  0  0  0
128129  1  0  0  0
128272  1  0  0  0
129130  1  0  0  0
129132  1  0  0  0
129273  1  0  0  0
130131  2  0  0  0
130139  1  0  0  0
132133  1  0  0  0
132274  1  0  0  0
132275  1  0  0  0
133134  1  0  0  0
133276  1  0  0  0
133277  1  0  0  0
134135  1  0  0  0
134278  1  0  0  0
134279  1  0  0  0
135136  1  0  0  0
135280  1  0  0  0
136137  1  0  0  0
136138  2  0  0  0
137281  1  0  0  0
137282  1  0  0  0
138283  1  0  0  0
139140  1  0  0  0
139284  1  0  0  0
140141  1  0  0  0
140285  1  0  0  0
140286  1  0  0  0
141142  2  0  0  0
141143  1  0  0  0
143144  1  0  0  0
143147  1  0  0  0
144145  1  0  0  0
144148  1  0  0  0
144287  1  0  0  0
145146  1  0  0  0
145288  1  0  0  0
145289  1  0  0  0
146147  1  0  0  0
146290  1  0  0  0
146291  1  0  0  0
147292  1  0  0  0
147293  1  0  0  0
148149  2  0  0  0
148150  1  0  0  0
150294  1  0  0  0
M  CHG  2   1   1  73   1
M  END
> <s_m_source_file>
../3oe0_ligand.sdf

> <i_m_source_file_index>
1

> <s_epik_input>
W0hdL049QyhbTkgyXSlcW05IXVtDSDJdW0NIMl1bQ0gyXVtDQEhdKFtOSDMrXSlDKD1PKVtOSF1bQ0BASF0oW0NIMl1bQ0gyXVtDSDJdW05IXS9DKFtOSDJdKT1OXFtIXSlDKD1PKVtOSF1bQ0BASF0oW0NIMl1jMVtjSF1bY0hdW2NIXWMoYzEyKVtjSF1bY0hdW2NIXVtjSF0yKUMoPU8pW05IXVtDQEhdKEMoPU8pW05IXVtDQEBIXShbQ0gyXWMzW2NIXVtjSF1jKFtPSF0pW2NIXVtjSF0zKUMoPU8pW05IXVtDQEBIXShbQ0gyXVtDSDJdQyg9TylbTkgyXSlDKD1PKVtOSF1bQ0BIXShDND1PKVtDSDJdW0NIMl1bQ0gyXVtDSDJdW05IMytdKVtDSDJdU1NbQ0gyXVtDQEBIXShDKD1PKVtOSF1bQ0BASF0oW0NIMl1bQ0gyXVtDSDJdW05IXS9DKFtOSDJdKT1OXFtIXSlDKD1PKVtOSF1bQ0gyXUMoPU8pTjVbQ0BASF0oQyg9TylbT0hdKVtDSDJdW0NIMl1bQ0gyXTUpW05IXUMoPU8pW0NASF0oW0NIMl1bQ0gyXVtDSDJdW05IXUMoPU8pW05IMl0pW05IXUMoPU8pW0NASF0oW0NIMl1bQ0gyXVtDSDJdW05IXS9DKD1OXFtIXSlbTkgyXSlbTkhdQyg9TylbQ0BIXShbQ0gyXWM2W2NIXVtjSF1jKFtPSF0pW2NIXVtjSF02KVtOSF1DKD1PKVtDQEhdKFtDSDJdW0NIMl1bQ0gyXTcpTjdDKD1PKVtDQEhdKE40OClbQ0gyXVtDSDJdW0NIMl04

> <s_epik_cmdline>
J2VwaWtfYXBwJywgJy1pbWFlJywgJ2xpZ2FuZF9wcm8ubWFlJywgJy1vbWFlJywgJ2xpZ2FuZF9wcmVwLm1hZScsICctbXMnLCAnMScsICctcGgnLCAnNycsICctcGh0JywgJzAuNScsICctbnQn

> <s_epik_pKa_notes>
Molecule size exceeds maximum supported for generating protonation states

> <s_epik_Chemistry_Notes>
This compound has an imine and may undergo hydrolysis.

$$$$
