3oe6_ligand
                    3D
 Schrodinger Suite 2020-3.
 63 66  0  0  1  0            999 V2000
   13.7920   30.6020   69.1190 C   0  0  0  0  0  0
   15.4380   28.8860   69.7020 N   0  0  0  0  0  0
   16.0400   26.8940   71.5840 S   0  0  0  0  0  0
   15.1350   30.3160   69.7800 C   0  0  0  0  0  0
   15.4290   29.3590   71.8440 N   0  3  0  0  0  0
   17.0500   30.5020   74.6250 S   0  0  0  0  0  0
   16.2560   31.1020   69.1070 C   0  0  0  0  0  0
   17.5210   28.4980   76.1390 N   0  3  0  0  0  0
   15.6050   28.4240   70.9500 C   0  0  0  0  0  0
   19.3480   29.2780   74.8850 N   0  0  0  0  0  0
   15.9610   27.5460   73.1930 C   0  0  0  0  0  0
   15.0790   30.6540   71.2810 C   0  0  0  0  0  0
   15.6010   28.9110   73.1130 C   0  0  0  0  0  0
   15.4650   29.8020   74.3200 C   0  0  0  0  0  0
   18.0600   29.3360   75.2480 C   0  0  0  0  0  0
   18.1750   27.4110   76.8490 C   0  0  0  0  0  0
   19.1000   27.9120   77.9540 C   0  0  0  0  0  0
   19.5320   26.7280   78.8170 C   0  0  0  0  0  0
   20.2310   25.6580   77.9780 C   0  0  0  0  0  0
   19.4090   25.2180   76.7640 C   0  0  0  0  0  0
   18.8830   26.4000   75.9480 C   0  0  0  0  0  0
   19.8810   29.3700   73.5250 C   0  0  0  0  0  0
   18.9180   28.9640   72.4090 C   0  0  0  0  0  0
   19.5730   29.0850   71.0350 C   0  0  0  0  0  0
   20.1580   30.4740   70.7900 C   0  0  0  0  0  0
   21.1680   30.8250   71.8760 C   0  0  0  0  0  0
   20.5260   30.7280   73.2570 C   0  0  0  0  0  0
   13.8502   30.3552   68.0486 H   0  0  0  0  0  0
   13.5449   31.6674   69.2367 H   0  0  0  0  0  0
   13.0115   29.9899   69.5946 H   0  0  0  0  0  0
   15.4919   28.3878   68.7228 H   0  0  0  0  0  0
   16.2867   30.8529   68.0360 H   0  0  0  0  0  0
   17.2178   30.8401   69.5721 H   0  0  0  0  0  0
   16.0718   32.1797   69.2277 H   0  0  0  0  0  0
   20.0323   29.1471   75.7362 H   0  0  0  0  0  0
   16.1567   26.9938   74.1122 H   0  0  0  0  0  0
   15.8045   31.4499   71.5049 H   0  0  0  0  0  0
   14.0668   30.9965   71.5422 H   0  0  0  0  0  0
   15.1458   29.2209   75.1977 H   0  0  0  0  0  0
   14.7394   30.6064   74.1292 H   0  0  0  0  0  0
   17.3093   26.9008   77.2964 H   0  0  0  0  0  0
   19.9853   28.3855   77.5045 H   0  0  0  0  0  0
   18.5660   28.6472   78.5740 H   0  0  0  0  0  0
   20.2290   27.0755   79.5938 H   0  0  0  0  0  0
   18.6476   26.2787   79.2924 H   0  0  0  0  0  0
   21.1895   26.0506   77.6078 H   0  0  0  0  0  0
   20.4142   24.7678   78.5977 H   0  0  0  0  0  0
   20.0349   24.6026   76.1010 H   0  0  0  0  0  0
   18.5431   24.6294   77.1013 H   0  0  0  0  0  0
   18.1764   26.0231   75.1939 H   0  0  0  0  0  0
   19.7307   26.8879   75.4447 H   0  0  0  0  0  0
   20.6546   28.5883   73.5468 H   0  0  0  0  0  0
   18.6062   27.9194   72.5558 H   0  0  0  0  0  0
   18.0334   29.6174   72.4323 H   0  0  0  0  0  0
   20.3898   28.3528   70.9524 H   0  0  0  0  0  0
   18.8243   28.8888   70.2533 H   0  0  0  0  0  0
   20.6624   30.4922   69.8127 H   0  0  0  0  0  0
   19.3491   31.2194   70.7991 H   0  0  0  0  0  0
   22.0164   30.1265   71.8273 H   0  0  0  0  0  0
   21.5296   31.8524   71.7222 H   0  0  0  0  0  0
   19.7621   31.5165   73.3249 H   0  0  0  0  0  0
   21.3124   30.9141   74.0033 H   0  0  0  0  0  0
   16.4588   28.5914   76.4094 H   0  0  0  0  0  0
  1  4  1  0  0  0
  1 28  1  0  0  0
  1 29  1  0  0  0
  1 30  1  0  0  0
  2  4  1  0  0  0
  2  9  1  0  0  0
  2 31  1  0  0  0
  3  9  1  0  0  0
  3 11  1  0  0  0
  4  7  1  0  0  0
  4 12  1  0  0  0
  5  9  2  0  0  0
  5 12  1  0  0  0
  5 13  1  0  0  0
  6 14  1  0  0  0
  6 15  1  0  0  0
  7 32  1  0  0  0
  7 33  1  0  0  0
  7 34  1  0  0  0
  8 15  2  0  0  0
  8 16  1  0  0  0
  8 63  1  0  0  0
 10 15  1  0  0  0
 10 22  1  0  0  0
 10 35  1  0  0  0
 11 13  2  0  0  0
 11 36  1  0  0  0
 12 37  1  0  0  0
 12 38  1  0  0  0
 13 14  1  0  0  0
 14 39  1  0  0  0
 14 40  1  0  0  0
 16 17  1  0  0  0
 16 21  1  0  0  0
 16 41  1  0  0  0
 17 18  1  0  0  0
 17 42  1  0  0  0
 17 43  1  0  0  0
 18 19  1  0  0  0
 18 44  1  0  0  0
 18 45  1  0  0  0
 19 20  1  0  0  0
 19 46  1  0  0  0
 19 47  1  0  0  0
 20 21  1  0  0  0
 20 48  1  0  0  0
 20 49  1  0  0  0
 21 50  1  0  0  0
 21 51  1  0  0  0
 22 23  1  0  0  0
 22 27  1  0  0  0
 22 52  1  0  0  0
 23 24  1  0  0  0
 23 53  1  0  0  0
 23 54  1  0  0  0
 24 25  1  0  0  0
 24 55  1  0  0  0
 24 56  1  0  0  0
 25 26  1  0  0  0
 25 57  1  0  0  0
 25 58  1  0  0  0
 26 27  1  0  0  0
 26 59  1  0  0  0
 26 60  1  0  0  0
 27 61  1  0  0  0
 27 62  1  0  0  0
M  CHG  2   5   1   8   1
M  END
> <s_m_source_file>
../3oe6_ligand.sdf

> <i_m_source_file_index>
1

> <s_epik_input>
W0NIM11DKFtDSDNdKShbQ0gyXTEpW05IXWMoW24rXTEyKXNbY0hdYzJbQ0gyXVNcQyg9TlxbQ0hdM1tDSDJdW0NIMl1bQ0gyXVtDSDJdW0NIMl0zKVtOSF1bQ0hdNFtDSDJdW0NIMl1bQ0gyXVtDSDJdW0NIMl00

> <s_epik_cmdline>
J2VwaWtfYXBwJywgJy1pbWFlJywgJ2xpZ2FuZF9wcm8ubWFlJywgJy1vbWFlJywgJ2xpZ2FuZF9wcmVwLm1hZScsICctbXMnLCAnMScsICctcGgnLCAnNycsICctcGh0JywgJzAuNScsICctbnQn

> <r_lp_tautomer_probability>
1

> <r_epik_Ionization_Penalty>
  0.0104

> <r_epik_Ionization_Penalty_Charging>
  0.0088

> <r_epik_Ionization_Penalty_Neutral>
  0.0016

> <r_epik_State_Penalty>
 -0.0000

> <r_epik_Charging_Adjusted_Penalty>
0.00883458191739538

> <i_epik_Tot_Q>
2

> <i_epik_Tot_abs_Q>
2

> <s_epik_Chemistry_Notes>
This compound has an imine and may undergo hydrolysis.

$$$$
