3oe8_ligand
                    3D
 Schrodinger Suite 2020-3.
 63 66  0  0  1  0            999 V2000
  -28.4030   -0.0800   23.0350 C   0  0  0  0  0  0
  -30.6410    0.8180   22.7810 N   0  0  0  0  0  0
  -32.9030    0.5340   21.1600 S   0  0  0  0  0  0
  -29.2290    1.1000   22.5450 C   0  0  0  0  0  0
  -30.4550    1.0100   20.6090 N   0  3  0  0  0  0
  -30.2720    2.9830   17.9270 S   0  0  0  0  0  0
  -28.8590    2.3960   23.2650 C   0  0  0  0  0  0
  -32.5320    2.8220   16.7830 N   0  3  0  0  0  0
  -31.2680    0.7780   21.6010 C   0  0  0  0  0  0
  -32.1350    4.8330   17.9800 N   0  0  0  0  0  0
  -32.4700    0.7230   19.4860 C   0  0  0  0  0  0
  -29.0790    1.2410   21.0200 C   0  0  0  0  0  0
  -31.0810    0.9710   19.4040 C   0  0  0  0  0  0
  -30.3680    1.2330   18.1040 C   0  0  0  0  0  0
  -31.7730    3.6090   17.5580 C   0  0  0  0  0  0
  -33.8540    3.0080   16.2050 C   0  0  0  0  0  0
  -33.8180    3.7500   14.8760 C   0  0  0  0  0  0
  -35.1480    3.5720   14.1490 C   0  0  0  0  0  0
  -36.3100    4.0640   15.0090 C   0  0  0  0  0  0
  -36.3300    3.3800   16.3760 C   0  0  0  0  0  0
  -34.9860    3.4890   17.1060 C   0  0  0  0  0  0
  -32.2160    5.3240   19.3630 C   0  0  0  0  0  0
  -31.2600    4.6830   20.3710 C   0  0  0  0  0  0
  -31.4810    5.2140   21.7900 C   0  0  0  0  0  0
  -31.3770    6.7380   21.8770 C   0  0  0  0  0  0
  -32.2450    7.4090   20.8120 C   0  0  0  0  0  0
  -32.0100    6.8380   19.4110 C   0  0  0  0  0  0
  -28.5131   -0.1771   24.1252 H   0  0  0  0  0  0
  -27.3442    0.0853   22.7866 H   0  0  0  0  0  0
  -28.7545   -1.0013   22.5475 H   0  0  0  0  0  0
  -31.0102    0.6802   23.8080 H   0  0  0  0  0  0
  -28.9775    2.2593   24.3500 H   0  0  0  0  0  0
  -29.5193    3.2067   22.9233 H   0  0  0  0  0  0
  -27.8138    2.6549   23.0400 H   0  0  0  0  0  0
  -32.3889    5.5007   17.1435 H   0  0  0  0  0  0
  -33.1557    0.6606   18.6410 H   0  0  0  0  0  0
  -28.7034    2.2466   20.7800 H   0  0  0  0  0  0
  -28.3691    0.4865   20.6501 H   0  0  0  0  0  0
  -30.9276    0.8090   17.2572 H   0  0  0  0  0  0
  -29.3528    0.8099   18.1212 H   0  0  0  0  0  0
  -34.0859    1.9438   16.0511 H   0  0  0  0  0  0
  -33.6434    4.8206   15.0584 H   0  0  0  0  0  0
  -33.0059    3.3471   14.2529 H   0  0  0  0  0  0
  -35.1335    4.1478   13.2118 H   0  0  0  0  0  0
  -35.3024    2.5067   13.9225 H   0  0  0  0  0  0
  -36.2165    5.1488   15.1657 H   0  0  0  0  0  0
  -37.2606    3.8477   14.4995 H   0  0  0  0  0  0
  -37.0984    3.8480   17.0089 H   0  0  0  0  0  0
  -36.5607    2.3121   16.2483 H   0  0  0  0  0  0
  -35.0196    2.8699   18.0146 H   0  0  0  0  0  0
  -34.8125    4.5391   17.3840 H   0  0  0  0  0  0
  -33.2357    5.0106   19.6313 H   0  0  0  0  0  0
  -31.4166    3.5943   20.3837 H   0  0  0  0  0  0
  -30.2215    4.9006   20.0810 H   0  0  0  0  0  0
  -32.4842    4.9258   22.1372 H   0  0  0  0  0  0
  -30.7233    4.7870   22.4634 H   0  0  0  0  0  0
  -31.7148    7.0725   22.8690 H   0  0  0  0  0  0
  -30.3315    7.0436   21.7234 H   0  0  0  0  0  0
  -33.3069    7.2650   21.0603 H   0  0  0  0  0  0
  -32.0188    8.4850   20.7791 H   0  0  0  0  0  0
  -30.9786    7.0773   19.1129 H   0  0  0  0  0  0
  -32.7137    7.3259   18.7206 H   0  0  0  0  0  0
  -32.1644    1.8311   16.4781 H   0  0  0  0  0  0
  1  4  1  0  0  0
  1 28  1  0  0  0
  1 29  1  0  0  0
  1 30  1  0  0  0
  2  4  1  0  0  0
  2  9  1  0  0  0
  2 31  1  0  0  0
  3  9  1  0  0  0
  3 11  1  0  0  0
  4  7  1  0  0  0
  4 12  1  0  0  0
  5  9  2  0  0  0
  5 12  1  0  0  0
  5 13  1  0  0  0
  6 14  1  0  0  0
  6 15  1  0  0  0
  7 32  1  0  0  0
  7 33  1  0  0  0
  7 34  1  0  0  0
  8 15  2  0  0  0
  8 16  1  0  0  0
  8 63  1  0  0  0
 10 15  1  0  0  0
 10 22  1  0  0  0
 10 35  1  0  0  0
 11 13  2  0  0  0
 11 36  1  0  0  0
 12 37  1  0  0  0
 12 38  1  0  0  0
 13 14  1  0  0  0
 14 39  1  0  0  0
 14 40  1  0  0  0
 16 17  1  0  0  0
 16 21  1  0  0  0
 16 41  1  0  0  0
 17 18  1  0  0  0
 17 42  1  0  0  0
 17 43  1  0  0  0
 18 19  1  0  0  0
 18 44  1  0  0  0
 18 45  1  0  0  0
 19 20  1  0  0  0
 19 46  1  0  0  0
 19 47  1  0  0  0
 20 21  1  0  0  0
 20 48  1  0  0  0
 20 49  1  0  0  0
 21 50  1  0  0  0
 21 51  1  0  0  0
 22 23  1  0  0  0
 22 27  1  0  0  0
 22 52  1  0  0  0
 23 24  1  0  0  0
 23 53  1  0  0  0
 23 54  1  0  0  0
 24 25  1  0  0  0
 24 55  1  0  0  0
 24 56  1  0  0  0
 25 26  1  0  0  0
 25 57  1  0  0  0
 25 58  1  0  0  0
 26 27  1  0  0  0
 26 59  1  0  0  0
 26 60  1  0  0  0
 27 61  1  0  0  0
 27 62  1  0  0  0
M  CHG  2   5   1   8   1
M  END
> <s_m_source_file>
../3oe8_ligand.sdf

> <i_m_source_file_index>
1

> <s_epik_input>
W0NIM11DKFtDSDNdKShbQ0gyXTEpW05IXWMoW24rXTEyKXNbY0hdYzJbQ0gyXVNcQyg9TlxbQ0hdM1tDSDJdW0NIMl1bQ0gyXVtDSDJdW0NIMl0zKVtOSF1bQ0hdNFtDSDJdW0NIMl1bQ0gyXVtDSDJdW0NIMl00

> <s_epik_cmdline>
J2VwaWtfYXBwJywgJy1pbWFlJywgJ2xpZ2FuZF9wcm8ubWFlJywgJy1vbWFlJywgJ2xpZ2FuZF9wcmVwLm1hZScsICctbXMnLCAnMScsICctcGgnLCAnNycsICctcGh0JywgJzAuNScsICctbnQn

> <r_lp_tautomer_probability>
1

> <r_epik_Ionization_Penalty>
  0.0104

> <r_epik_Ionization_Penalty_Charging>
  0.0088

> <r_epik_Ionization_Penalty_Neutral>
  0.0016

> <r_epik_State_Penalty>
 -0.0000

> <r_epik_Charging_Adjusted_Penalty>
0.00883458191739538

> <i_epik_Tot_Q>
2

> <i_epik_Tot_abs_Q>
2

> <s_epik_Chemistry_Notes>
This compound has an imine and may undergo hydrolysis.

$$$$
