3oe9_ligand
                    3D
 Schrodinger Suite 2020-3.
 63 66  0  0  1  0            999 V2000
   15.4470    3.7400   25.0570 C   0  0  0  0  0  0
   17.8200    3.5740   25.5060 N   0  0  0  0  0  0
   19.8440    2.5750   27.2060 S   0  0  0  0  0  0
   16.6390    4.4110   25.7180 C   0  0  0  0  0  0
   17.6740    3.8620   27.6490 N   0  3  0  0  0  0
   18.0640    5.8780   30.1620 S   0  0  0  0  0  0
   16.8760    5.8240   25.2110 C   0  0  0  0  0  0
   19.8390    5.1220   31.6620 N   0  3  0  0  0  0
   18.3950    3.3540   26.6930 C   0  0  0  0  0  0
   20.6590    6.5190   29.9210 N   0  0  0  0  0  0
   19.4500    2.9640   28.8520 C   0  0  0  0  0  0
   16.4470    4.5190   27.2270 C   0  0  0  0  0  0
   18.2190    3.6700   28.8670 C   0  0  0  0  0  0
   17.5260    4.1960   30.0940 C   0  0  0  0  0  0
   19.6620    5.8710   30.5760 C   0  0  0  0  0  0
   21.0200    4.7950   32.3930 C   0  0  0  0  0  0
   21.6780    6.0250   33.0100 C   0  0  0  0  0  0
   22.8820    5.6050   33.8660 C   0  0  0  0  0  0
   23.8390    4.6660   33.1050 C   0  0  0  0  0  0
   23.1340    3.4560   32.4840 C   0  0  0  0  0  0
   21.9820    3.9110   31.5880 C   0  0  0  0  0  0
   20.7760    7.1080   28.5660 C   0  0  0  0  0  0
   19.9820    6.4790   27.4020 C   0  0  0  0  0  0
   20.0200    7.2670   26.0770 C   0  0  0  0  0  0
   20.0080    8.7960   26.2050 C   0  0  0  0  0  0
   21.0450    9.2870   27.2120 C   0  0  0  0  0  0
   20.8000    8.6470   28.5810 C   0  0  0  0  0  0
   15.6165    3.6777   23.9719 H   0  0  0  0  0  0
   14.5392    4.3294   25.2531 H   0  0  0  0  0  0
   15.3223    2.7271   25.4674 H   0  0  0  0  0  0
   18.0858    3.2450   24.4906 H   0  0  0  0  0  0
   17.0215    5.8028   24.1209 H   0  0  0  0  0  0
   17.7729    6.2407   25.6926 H   0  0  0  0  0  0
   16.0052    6.4511   25.4526 H   0  0  0  0  0  0
   21.5092    6.5680   30.6173 H   0  0  0  0  0  0
   20.0479    2.7087   29.7269 H   0  0  0  0  0  0
   16.3733    5.5788   27.5123 H   0  0  0  0  0  0
   15.5239    3.9960   27.5176 H   0  0  0  0  0  0
   17.8361    3.6745   31.0115 H   0  0  0  0  0  0
   16.4299    4.1648   30.0071 H   0  0  0  0  0  0
   20.6244    4.1886   33.2211 H   0  0  0  0  0  0
   22.0206    6.6977   32.2100 H   0  0  0  0  0  0
   20.9496    6.5511   33.6445 H   0  0  0  0  0  0
   23.4481    6.4991   34.1663 H   0  0  0  0  0  0
   22.5275    5.0769   34.7635 H   0  0  0  0  0  0
   24.3252    5.2208   32.2891 H   0  0  0  0  0  0
   24.6049    4.2844   33.7962 H   0  0  0  0  0  0
   23.8527    2.8833   31.8795 H   0  0  0  0  0  0
   22.7339    2.8147   33.2832 H   0  0  0  0  0  0
   21.4421    3.0295   31.2118 H   0  0  0  0  0  0
   22.3839    4.4844   30.7397 H   0  0  0  0  0  0
   21.7865    6.7423   28.3313 H   0  0  0  0  0  0
   20.3840    5.4790   27.1822 H   0  0  0  0  0  0
   18.9223    6.3942   27.6846 H   0  0  0  0  0  0
   20.9374    7.0133   25.5257 H   0  0  0  0  0  0
   19.1421    7.0040   25.4686 H   0  0  0  0  0  0
   20.2339    9.2475   25.2277 H   0  0  0  0  0  0
   19.0147    9.1280   26.5415 H   0  0  0  0  0  0
   22.0522    9.0150   26.8633 H   0  0  0  0  0  0
   20.9733   10.3804   27.3086 H   0  0  0  0  0  0
   19.8331    9.0252   28.9444 H   0  0  0  0  0  0
   21.6035    8.9947   29.2470 H   0  0  0  0  0  0
   18.9767    4.6349   32.1407 H   0  0  0  0  0  0
  1  4  1  0  0  0
  1 28  1  0  0  0
  1 29  1  0  0  0
  1 30  1  0  0  0
  2  4  1  0  0  0
  2  9  1  0  0  0
  2 31  1  0  0  0
  3  9  1  0  0  0
  3 11  1  0  0  0
  4  7  1  0  0  0
  4 12  1  0  0  0
  5  9  2  0  0  0
  5 12  1  0  0  0
  5 13  1  0  0  0
  6 14  1  0  0  0
  6 15  1  0  0  0
  7 32  1  0  0  0
  7 33  1  0  0  0
  7 34  1  0  0  0
  8 15  2  0  0  0
  8 16  1  0  0  0
  8 63  1  0  0  0
 10 15  1  0  0  0
 10 22  1  0  0  0
 10 35  1  0  0  0
 11 13  2  0  0  0
 11 36  1  0  0  0
 12 37  1  0  0  0
 12 38  1  0  0  0
 13 14  1  0  0  0
 14 39  1  0  0  0
 14 40  1  0  0  0
 16 17  1  0  0  0
 16 21  1  0  0  0
 16 41  1  0  0  0
 17 18  1  0  0  0
 17 42  1  0  0  0
 17 43  1  0  0  0
 18 19  1  0  0  0
 18 44  1  0  0  0
 18 45  1  0  0  0
 19 20  1  0  0  0
 19 46  1  0  0  0
 19 47  1  0  0  0
 20 21  1  0  0  0
 20 48  1  0  0  0
 20 49  1  0  0  0
 21 50  1  0  0  0
 21 51  1  0  0  0
 22 23  1  0  0  0
 22 27  1  0  0  0
 22 52  1  0  0  0
 23 24  1  0  0  0
 23 53  1  0  0  0
 23 54  1  0  0  0
 24 25  1  0  0  0
 24 55  1  0  0  0
 24 56  1  0  0  0
 25 26  1  0  0  0
 25 57  1  0  0  0
 25 58  1  0  0  0
 26 27  1  0  0  0
 26 59  1  0  0  0
 26 60  1  0  0  0
 27 61  1  0  0  0
 27 62  1  0  0  0
M  CHG  2   5   1   8   1
M  END
> <s_m_source_file>
../3oe9_ligand.sdf

> <i_m_source_file_index>
1

> <s_epik_input>
W0NIM11DKFtDSDNdKShbQ0gyXTEpW05IXWMoW24rXTEyKXNbY0hdYzJbQ0gyXVNcQyg9TlxbQ0hdM1tDSDJdW0NIMl1bQ0gyXVtDSDJdW0NIMl0zKVtOSF1bQ0hdNFtDSDJdW0NIMl1bQ0gyXVtDSDJdW0NIMl00

> <s_epik_cmdline>
J2VwaWtfYXBwJywgJy1pbWFlJywgJ2xpZ2FuZF9wcm8ubWFlJywgJy1vbWFlJywgJ2xpZ2FuZF9wcmVwLm1hZScsICctbXMnLCAnMScsICctcGgnLCAnNycsICctcGh0JywgJzAuNScsICctbnQn

> <r_lp_tautomer_probability>
1

> <r_epik_Ionization_Penalty>
  0.0104

> <r_epik_Ionization_Penalty_Charging>
  0.0088

> <r_epik_Ionization_Penalty_Neutral>
  0.0016

> <r_epik_State_Penalty>
 -0.0000

> <r_epik_Charging_Adjusted_Penalty>
0.00883458191739538

> <i_epik_Tot_Q>
2

> <i_epik_Tot_abs_Q>
2

> <s_epik_Chemistry_Notes>
This compound has an imine and may undergo hydrolysis.

$$$$
