3oeu_ligand
                    3D
 Schrodinger Suite 2020-3.
 75 77  0  0  1  0            999 V2000
   11.6420 -136.8850   21.3510 C   0  0  0  0  0  0
   15.8950 -134.3790   23.1400 C   0  0  0  0  0  0
   15.0850 -134.8660   24.3600 C   0  0  0  0  0  0
   15.4280 -134.4140   25.6330 C   0  0  0  0  0  0
   14.7070 -134.8440   26.7490 C   0  0  0  0  0  0
   13.6410 -135.7280   26.6050 C   0  0  0  0  0  0
   13.2950 -136.1820   25.3350 C   0  0  0  0  0  0
   14.0080 -135.7540   24.2040 C   0  0  0  0  0  0
   13.5660 -136.3080   22.8430 C   0  0  0  0  0  0
   12.0650 -136.1630   22.6240 C   0  0  0  0  0  0
   12.2270 -137.8970   20.9610 O   0  0  0  0  0  0
   10.6200 -136.3220   20.7230 N   0  0  0  0  0  0
   10.0650 -136.8820   19.4920 C   0  0  2  0  0  0
   10.9800 -136.6220   18.2780 C   0  0  0  0  0  0
   11.6230 -135.5800   18.1430 O   0  0  0  0  0  0
    8.6930 -136.2370   19.3180 C   0  0  2  0  0  0
    7.8760 -136.6100   20.4320 O   0  0  0  0  0  0
    8.0210 -136.6450   18.0120 C   0  0  0  0  0  0
   10.9810 -137.6020   17.3870 N   0  0  0  0  0  0
   11.7250 -137.5160   16.1250 C   0  0  2  0  0  0
   10.7370 -137.2090   14.9860 C   0  0  0  0  0  0
    9.6140 -137.7090   14.9600 O   0  0  0  0  0  0
   12.4420 -138.8260   15.8370 C   0  0  0  0  0  0
   13.3350 -139.2240   17.0020 C   0  0  0  0  0  0
   14.5300 -138.2850   17.1670 C   0  0  0  0  0  0
   15.4900 -138.1750   16.1520 C   0  0  0  0  0  0
   14.6630 -137.5560   18.3500 C   0  0  0  0  0  0
   16.5890 -137.3240   16.3180 C   0  0  0  0  0  0
   15.7570 -136.7080   18.5080 C   0  0  0  0  0  0
   16.7160 -136.5920   17.4990 C   0  0  0  0  0  0
    8.3780 -132.1880   13.4660 C   0  0  0  0  0  0
    9.6910 -132.1930   13.0070 C   0  0  0  0  0  0
   10.3600 -133.4030   12.8240 C   0  0  0  0  0  0
   10.3610 -135.9930   12.9150 C   0  0  0  0  0  0
   11.1830 -136.3650   14.0650 N   0  0  0  0  0  0
    9.7210 -134.6160   13.0990 C   0  0  0  0  0  0
    8.4090 -134.5980   13.5540 C   0  0  0  0  0  0
    7.7420 -133.3920   13.7450 C   0  0  0  0  0  0
   12.0000 -133.3740   12.2580 Cl  0  0  0  0  0  0
   16.6883 -133.6950   23.4759 H   0  0  0  0  0  0
   15.2269 -133.8516   22.4432 H   0  0  0  0  0  0
   16.3471 -135.2432   22.6314 H   0  0  0  0  0  0
   16.2615 -133.7228   25.7579 H   0  0  0  0  0  0
   14.9810 -134.4846   27.7409 H   0  0  0  0  0  0
   13.0820 -136.0619   27.4792 H   0  0  0  0  0  0
   12.4628 -136.8762   25.2179 H   0  0  0  0  0  0
   14.0832 -135.7628   22.0397 H   0  0  0  0  0  0
   13.8189 -137.3768   22.7825 H   0  0  0  0  0  0
   11.8169 -135.0947   22.5393 H   0  0  0  0  0  0
   11.5339 -136.5957   23.4847 H   0  0  0  0  0  0
   10.1885 -135.4067   21.1543 H   0  0  0  0  0  0
    9.9920 -137.9733   19.6090 H   0  0  0  0  0  0
    8.7829 -135.1408   19.3318 H   0  0  0  0  0  0
    8.2098 -136.3902   21.4568 H   0  0  0  0  0  0
    8.6587 -136.3528   17.1647 H   0  0  0  0  0  0
    7.0465 -136.1416   17.9282 H   0  0  0  0  0  0
    7.8729 -137.7349   18.0008 H   0  0  0  0  0  0
   10.3968 -138.5043   17.6206 H   0  0  0  0  0  0
   12.4704 -136.7162   16.2462 H   0  0  0  0  0  0
   11.7003 -139.6215   15.6724 H   0  0  0  0  0  0
   13.0644 -138.7132   14.9371 H   0  0  0  0  0  0
   12.7528 -139.2002   17.9350 H   0  0  0  0  0  0
   13.7218 -140.2404   16.8370 H   0  0  0  0  0  0
   15.3810 -138.7519   15.2336 H   0  0  0  0  0  0
   13.9192 -137.6492   19.1413 H   0  0  0  0  0  0
   17.3386 -137.2340   15.5318 H   0  0  0  0  0  0
   15.8655 -136.1306   19.4261 H   0  0  0  0  0  0
   17.5681 -135.9260   17.6350 H   0  0  0  0  0  0
    7.8504 -131.2445   13.6062 H   0  0  0  0  0  0
   10.1967 -131.2520   12.7905 H   0  0  0  0  0  0
   10.9865 -135.9660   12.0106 H   0  0  0  0  0  0
    9.5580 -136.7332   12.7834 H   0  0  0  0  0  0
   12.1924 -135.9430   14.1790 H   0  0  0  0  0  0
    7.8971 -135.5373   13.7634 H   0  0  0  0  0  0
    6.7167 -133.3914   14.1149 H   0  0  0  0  0  0
  1 10  1  0  0  0
  1 11  2  0  0  0
  1 12  1  0  0  0
  2  3  1  0  0  0
  2 40  1  0  0  0
  2 41  1  0  0  0
  2 42  1  0  0  0
  3  4  2  0  0  0
  3  8  1  0  0  0
  4  5  1  0  0  0
  4 43  1  0  0  0
  5  6  2  0  0  0
  5 44  1  0  0  0
  6  7  1  0  0  0
  6 45  1  0  0  0
  7  8  2  0  0  0
  7 46  1  0  0  0
  8  9  1  0  0  0
  9 10  1  0  0  0
  9 47  1  0  0  0
  9 48  1  0  0  0
 10 49  1  0  0  0
 10 50  1  0  0  0
 12 13  1  0  0  0
 12 51  1  0  0  0
 13 14  1  0  0  0
 13 16  1  0  0  0
 13 52  1  0  0  0
 14 15  2  0  0  0
 14 19  1  0  0  0
 16 17  1  0  0  0
 16 18  1  0  0  0
 16 53  1  0  0  0
 17 54  1  0  0  0
 18 55  1  0  0  0
 18 56  1  0  0  0
 18 57  1  0  0  0
 19 20  1  0  0  0
 19 58  1  0  0  0
 20 21  1  0  0  0
 20 23  1  0  0  0
 20 59  1  0  0  0
 21 22  2  0  0  0
 21 35  1  0  0  0
 23 24  1  0  0  0
 23 60  1  0  0  0
 23 61  1  0  0  0
 24 25  1  0  0  0
 24 62  1  0  0  0
 24 63  1  0  0  0
 25 26  2  0  0  0
 25 27  1  0  0  0
 26 28  1  0  0  0
 26 64  1  0  0  0
 27 29  2  0  0  0
 27 65  1  0  0  0
 28 30  2  0  0  0
 28 66  1  0  0  0
 29 30  1  0  0  0
 29 67  1  0  0  0
 30 68  1  0  0  0
 31 32  2  0  0  0
 31 38  1  0  0  0
 31 69  1  0  0  0
 32 33  1  0  0  0
 32 70  1  0  0  0
 33 36  2  0  0  0
 33 39  1  0  0  0
 34 35  1  0  0  0
 34 36  1  0  0  0
 34 71  1  0  0  0
 34 72  1  0  0  0
 35 73  1  0  0  0
 36 37  1  0  0  0
 37 38  2  0  0  0
 37 74  1  0  0  0
 38 75  1  0  0  0
M  END
> <s_m_source_file>
../3oeu_ligand.sdf

> <i_m_source_file_index>
1

> <s_epik_input>
W0NIM11jMVtjSF1bY0hdW2NIXVtjSF1jMVtDSDJdW0NIMl1DKD1PKVtOSF1bQ0BASF0oW0NASF0oW09IXSlbQ0gzXSlDKD1PKVtOSF1bQ0BASF0oW0NIMl1bQ0gyXWMyW2NIXVtjSF1bY0hdW2NIXVtjSF0yKUMoPU8pW05IXVtDSDJdYzNbY0hdW2NIXVtjSF1bY0hdYzNDbA==

> <s_epik_cmdline>
J2VwaWtfYXBwJywgJy1pbWFlJywgJ2xpZ2FuZF9wcm8ubWFlJywgJy1vbWFlJywgJ2xpZ2FuZF9wcmVwLm1hZScsICctbXMnLCAnMScsICctcGgnLCAnNycsICctcGh0JywgJzAuNScsICctbnQn

> <r_lp_tautomer_probability>
1

> <r_epik_Ionization_Penalty>
  0.0000

> <r_epik_Ionization_Penalty_Charging>
  0.0000

> <r_epik_Ionization_Penalty_Neutral>
  0.0000

> <r_epik_State_Penalty>
 -0.0000

> <r_epik_Charging_Adjusted_Penalty>
0

> <i_epik_Tot_Q>
0

> <i_epik_Tot_abs_Q>
0

$$$$
