3of8_ligand
                    3D
 Schrodinger Suite 2020-3.
 75 77  0  0  1  0            999 V2000
   29.7440    7.2640    2.7920 C   0  0  0  0  0  0
   29.0320    6.3230    3.2300 O   0  0  0  0  0  0
   31.0110    7.2620    2.9150 O   0  0  0  0  0  0
   31.7700    6.1040    2.9920 C   0  0  0  0  0  0
   32.7450    5.9770    1.8510 C   0  0  0  0  0  0
   34.0910    6.2750    2.0400 C   0  0  0  0  0  0
   34.9670    6.1740    0.9560 C   0  0  0  0  0  0
   34.4850    5.7990   -0.3050 C   0  0  0  0  0  0
   33.1280    5.5220   -0.4900 C   0  0  0  0  0  0
   32.2550    5.6130    0.5940 C   0  0  0  0  0  0
   29.1060    8.5020    2.4730 N   0  0  0  0  0  0
   27.8040    8.4900    3.2750 C   0  0  2  0  0  0
   26.6160    7.8170    2.4500 C   0  0  0  0  0  0
   26.5740    7.6560    1.2410 O   0  0  0  0  0  0
   27.3530    9.7980    4.1020 C   0  0  0  0  0  0
   28.3070   10.9650    4.1130 C   0  0  0  0  0  0
   28.4660   11.6270    2.9180 C   0  0  0  0  0  0
   29.0100   11.3510    5.2420 C   0  0  0  0  0  0
   29.3420   12.6940    2.8370 C   0  0  0  0  0  0
   29.8850   12.4310    5.1610 C   0  0  0  0  0  0
   30.0510   13.0960    3.9580 C   0  0  0  0  0  0
   25.5160    7.5410    3.3300 N   0  0  0  0  0  0
   22.4050    7.6110    3.7610 O   0  0  0  0  0  0
   19.0540    3.8460    4.0430 O   0  0  0  0  0  0
   21.4570    7.9950    1.5490 O   0  0  0  0  0  0
   24.4250    5.5500    4.1360 C   0  0  0  0  0  0
   24.4730    6.5980    3.0110 C   0  0  1  0  0  0
   23.2170    7.4300    2.8550 C   0  0  0  0  0  0
   22.8360    7.9570    1.6550 C   0  0  0  0  0  0
   23.0570    5.0010    4.3120 C   0  0  0  0  0  0
   20.4140    4.2320    4.2280 C   0  0  0  0  0  0
   17.9670    5.9730    4.1120 C   0  0  0  0  0  0
   18.1400    4.6960    3.3320 C   0  0  0  0  0  0
   22.3540    4.9160    5.5220 C   0  0  0  0  0  0
   22.4760    4.7370    3.0990 C   0  0  0  0  0  0
   21.0050    4.5170    5.4790 C   0  0  0  0  0  0
   21.1510    4.3450    3.0630 C   0  0  0  0  0  0
   18.6100    5.0490    1.9450 C   0  0  0  0  0  0
   16.7890    4.0160    3.1420 C   0  0  0  0  0  0
   32.3444    6.1038    3.9301 H   0  0  0  0  0  0
   31.1054    5.2278    2.9689 H   0  0  0  0  0  0
   34.4568    6.5828    3.0196 H   0  0  0  0  0  0
   36.0273    6.3873    1.0917 H   0  0  0  0  0  0
   35.1730    5.7229   -1.1470 H   0  0  0  0  0  0
   32.7546    5.2371   -1.4736 H   0  0  0  0  0  0
   31.1941    5.4009    0.4611 H   0  0  0  0  0  0
   29.3493    9.3622    1.8320 H   0  0  0  0  0  0
   28.1464    7.8326    4.0878 H   0  0  0  0  0  0
   26.4131   10.1892    3.6853 H   0  0  0  0  0  0
   27.2024    9.5301    5.1582 H   0  0  0  0  0  0
   27.9041   11.3121    2.0387 H   0  0  0  0  0  0
   28.8799   10.8158    6.1826 H   0  0  0  0  0  0
   29.4749   13.2191    1.8911 H   0  0  0  0  0  0
   30.4385   12.7525    6.0433 H   0  0  0  0  0  0
   30.7407   13.9375    3.8924 H   0  0  0  0  0  0
   25.4909    8.0868    4.2847 H   0  0  0  0  0  0
   20.9862    8.3938    0.6383 H   0  0  0  0  0  0
   25.1041    4.7196    3.8927 H   0  0  0  0  0  0
   24.7378    6.0140    5.0830 H   0  0  0  0  0  0
   24.6642    6.0655    2.0676 H   0  0  0  0  0  0
   23.2487    7.3341    0.8478 H   0  0  0  0  0  0
   23.2383    8.9775    1.5728 H   0  0  0  0  0  0
   18.9458    6.4571    4.2446 H   0  0  0  0  0  0
   17.5342    5.7451    5.0972 H   0  0  0  0  0  0
   17.2947    6.6493    3.5637 H   0  0  0  0  0  0
   22.8385    5.1523    6.4694 H   0  0  0  0  0  0
   23.0497    4.8346    2.1774 H   0  0  0  0  0  0
   20.4248    4.4292    6.3975 H   0  0  0  0  0  0
   20.6813    4.1222    2.1050 H   0  0  0  0  0  0
   19.5886    5.5477    2.0053 H   0  0  0  0  0  0
   17.8824    5.7251    1.4723 H   0  0  0  0  0  0
   18.7022    4.1319    1.3446 H   0  0  0  0  0  0
   16.3823    3.7281    4.1227 H   0  0  0  0  0  0
   16.9149    3.1180    2.5193 H   0  0  0  0  0  0
   16.0950    4.7112    2.6469 H   0  0  0  0  0  0
  1  2  2  0  0  0
  1  3  1  0  0  0
  1 11  1  0  0  0
  3  4  1  0  0  0
  4  5  1  0  0  0
  4 40  1  0  0  0
  4 41  1  0  0  0
  5  6  2  0  0  0
  5 10  1  0  0  0
  6  7  1  0  0  0
  6 42  1  0  0  0
  7  8  2  0  0  0
  7 43  1  0  0  0
  8  9  1  0  0  0
  8 44  1  0  0  0
  9 10  2  0  0  0
  9 45  1  0  0  0
 10 46  1  0  0  0
 11 12  1  0  0  0
 11 47  1  0  0  0
 12 13  1  0  0  0
 12 15  1  0  0  0
 12 48  1  0  0  0
 13 14  2  0  0  0
 13 22  1  0  0  0
 15 16  1  0  0  0
 15 49  1  0  0  0
 15 50  1  0  0  0
 16 17  2  0  0  0
 16 18  1  0  0  0
 17 19  1  0  0  0
 17 51  1  0  0  0
 18 20  2  0  0  0
 18 52  1  0  0  0
 19 21  2  0  0  0
 19 53  1  0  0  0
 20 21  1  0  0  0
 20 54  1  0  0  0
 21 55  1  0  0  0
 22 27  1  0  0  0
 22 56  1  0  0  0
 23 28  2  0  0  0
 24 31  1  0  0  0
 24 33  1  0  0  0
 25 29  1  0  0  0
 25 57  1  0  0  0
 26 27  1  0  0  0
 26 30  1  0  0  0
 26 58  1  0  0  0
 26 59  1  0  0  0
 27 28  1  0  0  0
 27 60  1  0  0  0
 28 29  1  0  0  0
 29 61  1  0  0  0
 29 62  1  0  0  0
 30 34  2  0  0  0
 30 35  1  0  0  0
 31 36  2  0  0  0
 31 37  1  0  0  0
 32 33  1  0  0  0
 32 63  1  0  0  0
 32 64  1  0  0  0
 32 65  1  0  0  0
 33 38  1  0  0  0
 33 39  1  0  0  0
 34 36  1  0  0  0
 34 66  1  0  0  0
 35 37  2  0  0  0
 35 67  1  0  0  0
 36 68  1  0  0  0
 37 69  1  0  0  0
 38 70  1  0  0  0
 38 71  1  0  0  0
 38 72  1  0  0  0
 39 73  1  0  0  0
 39 74  1  0  0  0
 39 75  1  0  0  0
M  END
> <s_m_source_file>
../3of8_ligand.sdf

> <i_m_source_file_index>
1

> <s_epik_input>
W2NIXTFbY0hdW2NIXVtjSF1bY0hdYzFbQ0gyXU9DKD1PKVtOSF1bQ0BASF0oW0NIMl1jMltjSF1bY0hdW2NIXVtjSF1bY0hdMilDKD1PKVtOSF1bQ0BIXShDKD1PKVtDSDJdW09IXSlbQ0gyXWMzW2NIXVtjSF1jKFtjSF1bY0hdMylPQyhbQ0gzXSkoW0NIM10pW0NIM10=

> <s_epik_cmdline>
J2VwaWtfYXBwJywgJy1pbWFlJywgJ2xpZ2FuZF9wcm8ubWFlJywgJy1vbWFlJywgJ2xpZ2FuZF9wcmVwLm1hZScsICctbXMnLCAnMScsICctcGgnLCAnNycsICctcGh0JywgJzAuNScsICctbnQn

> <r_lp_tautomer_probability>
1

> <r_epik_Ionization_Penalty>
  0.0000

> <r_epik_Ionization_Penalty_Charging>
  0.0000

> <r_epik_Ionization_Penalty_Neutral>
  0.0000

> <r_epik_State_Penalty>
 -0.0000

> <r_epik_Charging_Adjusted_Penalty>
0

> <i_epik_Tot_Q>
0

> <i_epik_Tot_abs_Q>
0

> <s_epik_Chemistry_Notes>
This compound has an ester and may undergo hydrolysis at high or low pH.

$$$$
