3ogm_ligand
                    3D
 Schrodinger Suite 2020-3.
 49 51  0  0  1  0            999 V2000
   -3.5790    7.3310   43.6610 C   0  0  0  0  0  0
   -2.3670    6.5560   44.2080 C   0  0  0  0  0  0
   -2.3270    6.2740   45.7250 C   0  0  1  0  0  0
   -1.5730    4.9860   45.9360 C   0  0  0  0  0  0
   -0.6310    4.8770   47.1230 C   0  0  2  0  0  0
    0.1380    3.5490   47.3190 C   0  0  0  0  0  0
   -0.3280    2.5840   46.8120 O   0  0  0  0  0  0
    1.1990    3.4440   48.3600 N   0  0  0  0  0  0
    1.9040    2.1520   48.6640 C   0  0  1  0  0  0
    1.2620    1.3440   49.1640 C   0  0  0  0  0  0
    0.3850    1.6720   49.9290 O   0  0  0  0  0  0
    1.2300    0.0320   48.5950 O   0  5  0  0  0  0
    2.7350    1.7870   47.7620 C   0  0  0  0  0  0
    3.2120    2.3740   48.8360 C   0  0  2  0  0  0
    3.4470    1.5000   50.0800 C   0  0  0  0  0  0
    4.7470    1.8000   50.8270 C   0  0  0  0  0  0
   -0.7500    5.8430   48.3270 C   0  0  1  0  0  0
    0.6420    6.1770   48.5190 C   0  0  0  0  0  0
    0.6800    7.6060   49.0960 C   0  0  0  0  0  0
   -0.6550    8.2010   48.7260 C   0  0  0  0  0  0
   -1.0520    9.2600   49.0820 O   0  0  0  0  0  0
   -1.4630    7.1330   48.0240 C   0  0  1  0  0  0
   -1.6220    7.4140   46.4730 C   0  0  0  0  0  0
   -3.4729    7.4574   42.5734 H   0  0  0  0  0  0
   -3.6298    8.3191   44.1418 H   0  0  0  0  0  0
   -4.5005    6.7704   43.8768 H   0  0  0  0  0  0
   -2.3162    5.5679   43.7272 H   0  0  0  0  0  0
   -1.4455    7.1166   43.9921 H   0  0  0  0  0  0
   -3.3468    6.1777   46.1260 H   0  0  0  0  0  0
   -2.2876    4.1607   46.0710 H   0  0  0  0  0  0
   -0.9405    4.7835   45.0591 H   0  0  0  0  0  0
    0.0970    5.5078   46.5919 H   0  0  0  0  0  0
    1.4608    4.3571   48.9147 H   0  0  0  0  0  0
    2.6648    0.6988   47.6176 H   0  0  0  0  0  0
    2.4986    2.2983   46.8171 H   0  0  0  0  0  0
    3.9572    3.1831   48.8370 H   0  0  0  0  0  0
    2.6245    1.6507   50.7947 H   0  0  0  0  0  0
    3.4850    0.4416   49.7827 H   0  0  0  0  0  0
    4.8323    1.1324   51.6971 H   0  0  0  0  0  0
    4.7416    2.8462   51.1667 H   0  0  0  0  0  0
    5.6022    1.6371   50.1546 H   0  0  0  0  0  0
   -1.2747    5.4104   49.1916 H   0  0  0  0  0  0
    1.0979    5.4607   49.2183 H   0  0  0  0  0  0
    1.1667    6.1311   47.5533 H   0  0  0  0  0  0
    0.8186    7.5577   50.1862 H   0  0  0  0  0  0
    1.5151    8.1617   48.6445 H   0  0  0  0  0  0
   -2.4832    7.0888   48.4330 H   0  0  0  0  0  0
   -0.6148    7.5589   46.0552 H   0  0  0  0  0  0
   -2.2028    8.3413   46.3597 H   0  0  0  0  0  0
  1  2  1  0  0  0
  1 24  1  0  0  0
  1 25  1  0  0  0
  1 26  1  0  0  0
  2  3  1  0  0  0
  2 27  1  0  0  0
  2 28  1  0  0  0
  3  4  1  0  0  0
  3 23  1  0  0  0
  3 29  1  0  0  0
  4  5  1  0  0  0
  4 30  1  0  0  0
  4 31  1  0  0  0
  5  6  1  0  0  0
  5 17  1  0  0  0
  5 32  1  0  0  0
  6  7  2  0  0  0
  6  8  1  0  0  0
  8  9  1  0  0  0
  8 33  1  0  0  0
  9 10  1  0  0  0
  9 13  1  0  0  0
  9 14  1  0  0  0
 10 11  2  0  0  0
 10 12  1  0  0  0
 13 14  1  0  0  0
 13 34  1  0  0  0
 13 35  1  0  0  0
 14 15  1  0  0  0
 14 36  1  0  0  0
 15 16  1  0  0  0
 15 37  1  0  0  0
 15 38  1  0  0  0
 16 39  1  0  0  0
 16 40  1  0  0  0
 16 41  1  0  0  0
 17 18  1  0  0  0
 17 22  1  0  0  0
 17 42  1  0  0  0
 18 19  1  0  0  0
 18 43  1  0  0  0
 18 44  1  0  0  0
 19 20  1  0  0  0
 19 45  1  0  0  0
 19 46  1  0  0  0
 20 21  2  0  0  0
 20 22  1  0  0  0
 22 23  1  0  0  0
 22 47  1  0  0  0
 23 48  1  0  0  0
 23 49  1  0  0  0
M  CHG  1  12  -1
M  END
> <s_m_source_file>
../3ogm_ligand.sdf

> <i_m_source_file_index>
1

> <s_epik_input>
W0NIMl0xW0NIMl1DKD1PKVtDQEhdKFtDQEhdMTIpW0NIMl1bQ0BASF0oW0NIMl1bQ0gzXSlbQ0gyXVtDQEBIXTJDKD1PKVtOSF1bQ0BAXTMoQyg9TylbT0hdKVtDSDJdW0NAQEhdM1tDSDJdW0NIM10=

> <s_epik_cmdline>
J2VwaWtfYXBwJywgJy1pbWFlJywgJ2xpZ2FuZF9wcm8ubWFlJywgJy1vbWFlJywgJ2xpZ2FuZF9wcmVwLm1hZScsICctbXMnLCAnMScsICctcGgnLCAnNycsICctcGh0JywgJzAuNScsICctbnQn

> <r_lp_tautomer_probability>
1

> <r_epik_Ionization_Penalty>
  0.0005

> <r_epik_Ionization_Penalty_Charging>
  0.0005

> <r_epik_Ionization_Penalty_Neutral>
  0.0000

> <r_epik_State_Penalty>
 -0.0000

> <r_epik_Charging_Adjusted_Penalty>
0.000475945039964657

> <i_epik_Tot_Q>
-1

> <i_epik_Tot_abs_Q>
1

$$$$
