3ogx_ligand
                    3D
 Schrodinger Suite 2020-3.
 50 51  0  0  1  0            999 V2000
  -17.7750  -20.0250  -22.9800 C   0  0  1  0  0  0
  -19.1990  -19.4920  -23.0300 C   0  0  2  0  0  0
  -16.8150  -19.0170  -23.3170 O   0  0  0  0  0  0
  -17.4570  -20.6270  -21.6150 C   0  0  1  0  0  0
  -20.0680  -20.6030  -22.7900 O   0  0  0  0  0  0
  -19.5660  -18.8170  -24.3600 C   0  0  0  0  0  0
  -15.9740  -19.4750  -24.3940 C   0  0  1  0  0  0
  -18.5960  -21.4990  -21.0630 C   0  0  2  0  0  0
  -16.3080  -21.4820  -21.7930 O   0  0  0  0  0  0
  -20.0190  -21.0410  -21.4180 C   0  0  1  0  0  0
  -20.8040  -18.0850  -24.1210 O   0  0  0  0  0  0
  -16.0610  -18.5080  -25.5760 C   0  0  1  0  0  0
  -14.6150  -19.6840  -23.9610 O   0  0  0  0  0  0
  -18.4660  -21.7140  -19.6280 N   0  0  3  0  0  0
  -20.4730  -20.0110  -20.5090 O   0  0  0  0  0  0
  -21.4060  -17.0490  -25.1460 S   0  0  0  0  0  0
  -14.7390  -18.3660  -26.3170 C   0  0  2  0  0  0
  -17.0770  -18.9430  -26.4960 O   0  0  0  0  0  0
  -13.6940  -20.1360  -25.0140 C   0  0  0  0  0  0
  -17.0310  -21.5910  -18.8920 S   0  0  0  0  0  0
  -22.4170  -17.6950  -26.0570 O   0  5  0  0  0  0
  -22.0560  -15.9370  -24.3910 O   0  0  0  0  0  0
  -20.3090  -16.4150  -25.9420 O   0  0  0  0  0  0
  -13.9510  -19.6610  -26.2340 C   0  0  0  0  0  0
  -14.0100  -17.2740  -25.7380 O   0  0  0  0  0  0
  -16.7150  -19.8270  -27.7220 S   0  0  0  0  0  0
  -12.5300  -21.0270  -24.7610 C   0  0  0  0  0  0
  -16.4900  -20.2310  -19.1290 O   0  0  0  0  0  0
  -17.1750  -21.7200  -17.4140 O   0  0  0  0  0  0
  -16.0820  -22.5800  -19.5020 O   0  5  0  0  0  0
  -16.0710  -18.7640  -28.5440 O   0  5  0  0  0  0
  -15.9940  -21.0940  -28.0190 O   0  0  0  0  0  0
  -18.1410  -19.8840  -28.1170 O   0  0  0  0  0  0
  -12.3930  -21.6170  -23.6590 O   0  5  0  0  0  0
  -11.6640  -21.1930  -25.6510 O   0  0  0  0  0  0
  -17.6572  -20.7825  -23.7689 H   0  0  0  0  0  0
  -19.3432  -18.7486  -22.2321 H   0  0  0  0  0  0
  -17.2356  -19.8185  -20.9028 H   0  0  0  0  0  0
  -18.7567  -18.1354  -24.6608 H   0  0  0  0  0  0
  -19.7054  -19.5852  -25.1349 H   0  0  0  0  0  0
  -16.3302  -20.4798  -24.6650 H   0  0  0  0  0  0
  -18.4597  -22.4855  -21.5302 H   0  0  0  0  0  0
  -15.3675  -21.0653  -22.1826 H   0  0  0  0  0  0
  -20.7574  -21.8517  -21.3313 H   0  0  0  0  0  0
  -16.3689  -17.5209  -25.2007 H   0  0  0  0  0  0
  -19.3657  -21.8010  -19.0012 H   0  0  0  0  0  0
  -21.4759  -19.5751  -20.6284 H   0  0  0  0  0  0
  -14.8861  -18.1057  -27.3756 H   0  0  0  0  0  0
  -13.5955  -20.2044  -27.1219 H   0  0  0  0  0  0
  -14.4501  -16.2660  -25.7219 H   0  0  0  0  0  0
  1  2  1  0  0  0
  1  3  1  0  0  0
  1  4  1  0  0  0
  1 36  1  0  0  0
  2  5  1  0  0  0
  2  6  1  0  0  0
  2 37  1  0  0  0
  3  7  1  0  0  0
  4  8  1  0  0  0
  4  9  1  0  0  0
  4 38  1  0  0  0
  5 10  1  0  0  0
  6 11  1  0  0  0
  6 39  1  0  0  0
  6 40  1  0  0  0
  7 12  1  0  0  0
  7 13  1  0  0  0
  7 41  1  0  0  0
  8 10  1  0  0  0
  8 14  1  0  0  0
  8 42  1  0  0  0
  9 43  1  0  0  0
 10 15  1  0  0  0
 10 44  1  0  0  0
 11 16  1  0  0  0
 12 17  1  0  0  0
 12 18  1  0  0  0
 12 45  1  0  0  0
 13 19  1  0  0  0
 14 20  1  0  0  0
 14 46  1  0  0  0
 15 47  1  0  0  0
 16 21  1  0  0  0
 16 22  2  0  0  0
 16 23  2  0  0  0
 17 24  1  0  0  0
 17 25  1  0  0  0
 17 48  1  0  0  0
 18 26  1  0  0  0
 19 24  2  0  0  0
 19 27  1  0  0  0
 20 28  2  0  0  0
 20 29  2  0  0  0
 20 30  1  0  0  0
 24 49  1  0  0  0
 25 50  1  0  0  0
 26 31  1  0  0  0
 26 32  2  0  0  0
 26 33  2  0  0  0
 27 34  1  0  0  0
 27 35  2  0  0  0
M  CHG  4  21  -1  30  -1  31  -1  34  -1
M  END
> <s_m_source_file>
../3ogx_ligand.sdf

> <i_m_source_file_index>
1

> <s_epik_input>
Tz1TKD1PKShbT0hdKVtOSF1bQ0BIXShbQ0BIXTFbT0hdKVtDQEBIXShbT0hdKU9bQ0BIXShbQ0gyXU9TKD1PKSg9TylbT0hdKVtDQEhdMU9bQ0BIXTJbQ0BIXShPUyg9TykoPU8pW09IXSlbQ0BASF0oW09IXSlbQ0hdPUMoTzIpQyg9TylbT0hd

> <s_epik_cmdline>
J2VwaWtfYXBwJywgJy1pbWFlJywgJ2xpZ2FuZF9wcm8ubWFlJywgJy1vbWFlJywgJ2xpZ2FuZF9wcmVwLm1hZScsICctbXMnLCAnMScsICctcGgnLCAnNycsICctcGh0JywgJzAuNScsICctbnQn

> <r_epik_Ionization_Penalty>
  0.0185

> <r_epik_Ionization_Penalty_Charging>
  0.0002

> <r_epik_Ionization_Penalty_Neutral>
  0.0183

> <r_epik_State_Penalty>
  0.0145

> <r_epik_Charging_Adjusted_Penalty>
0.0146539931501748

> <i_epik_Tot_Q>
-4

> <i_epik_Tot_abs_Q>
4

> <s_epik_Chemistry_Notes>
This compound contains an acetal/aminal-like group ( X-CH(R)-Y where X, Y are N, S, or O) that may be acid/base labile, releasing an aldehyde.

$$$$
