3ohf_ligand
                    3D
 Schrodinger Suite 2020-3.
 91 94  0  0  1  0            999 V2000
   77.6040   65.9270   82.9510 C   0  0  0  0  0  0
   82.8170   58.9930   82.9930 C   0  0  0  0  0  0
   78.2630   65.4710   84.0920 C   0  0  0  0  0  0
   76.3730   65.3780   82.5730 C   0  0  0  0  0  0
   83.0230   59.2690   81.6410 C   0  0  0  0  0  0
   79.0030   59.3280   91.2470 C   0  0  0  0  0  0
   81.7100   59.5210   83.6610 C   0  0  0  0  0  0
   77.6750   64.4550   84.8630 C   0  0  0  0  0  0
   75.8000   64.3690   83.3450 C   0  0  0  0  0  0
   78.6690   58.4940   90.1740 C   0  0  0  0  0  0
   82.1260   60.0820   80.9400 C   0  0  0  0  0  0
   78.0100   60.0620   91.8990 C   0  0  0  0  0  0
   76.3530   59.1210   90.4300 C   0  0  0  0  0  0
   79.1860   61.6680   82.2120 C   0  0  0  0  0  0
   80.8100   60.3370   82.9740 C   0  0  0  0  0  0
   79.6400   61.0030   83.3380 C   0  0  0  0  0  0
   76.4450   63.9020   84.4940 C   0  0  0  0  0  0
   77.3410   58.3890   89.7680 C   0  0  0  0  0  0
   81.0250   60.6100   81.6210 C   0  0  0  0  0  0
   76.6800   59.9620   91.4870 C   0  0  0  0  0  0
   78.9430   61.1160   84.6490 C   0  0  0  0  0  0
   79.8960   61.8320   79.9120 C   0  0  0  0  0  0
   83.4480   64.7600   78.9940 C   0  0  0  0  0  0
   74.9590   62.7920   79.3280 C   0  0  0  0  0  0
   76.0050   61.9600   92.5850 C   0  0  0  0  0  0
   75.8030   62.8000   85.3190 C   0  0  0  0  0  0
   76.9590   57.5020   88.6070 C   0  0  0  0  0  0
   82.2990   64.1000   79.7590 C   0  0  0  0  0  0
   76.2870   62.4170   78.6780 C   0  0  0  0  0  0
   81.0490   64.9820   79.7260 C   0  0  0  0  0  0
   77.2110   63.6290   78.6620 C   0  0  0  0  0  0
   79.8270   64.3020   80.3640 C   0  0  0  0  0  0
   78.6770   63.2600   78.4270 C   0  0  0  0  0  0
   76.9550   59.4070   86.9900 C   0  0  0  0  0  0
   76.7320   61.6360   85.7390 C   0  0  1  0  0  0
   76.0160   60.3800   86.2630 C   0  0  2  0  0  0
   80.0330   61.4330   81.1840 N   0  0  0  0  0  0
   77.6260   61.3980   84.6060 N   0  0  0  0  0  0
   76.1900   58.2540   87.5530 N   0  3  0  0  0  0
   79.4130   63.0670   79.6750 N   0  0  0  0  0  0
   79.5550   60.9960   85.6970 O   0  0  0  0  0  0
   79.7340   60.8730   79.1700 O   0  0  0  0  0  0
   75.0000   60.8010   87.1730 O   0  0  0  0  0  0
   75.7010   60.6390   92.0890 O   0  0  0  0  0  0
   78.0511   66.7176   82.3483 H   0  0  0  0  0  0
   83.5241   58.3616   83.5310 H   0  0  0  0  0  0
   79.2230   65.8979   84.3821 H   0  0  0  0  0  0
   75.8647   65.7382   81.6786 H   0  0  0  0  0  0
   83.8880   58.8487   81.1279 H   0  0  0  0  0  0
   80.0399   59.4048   91.5743 H   0  0  0  0  0  0
   81.5494   59.2965   84.7155 H   0  0  0  0  0  0
   78.1824   64.0941   85.7576 H   0  0  0  0  0  0
   74.8418   63.9408   83.0507 H   0  0  0  0  0  0
   79.4452   57.9288   89.6581 H   0  0  0  0  0  0
   82.2824   60.2996   79.8835 H   0  0  0  0  0  0
   78.2739   60.7144   92.7314 H   0  0  0  0  0  0
   75.3136   59.0317   90.1141 H   0  0  0  0  0  0
   78.2879   62.2837   82.1618 H   0  0  0  0  0  0
   84.3344   64.1096   79.0309 H   0  0  0  0  0  0
   83.6856   65.7302   79.4547 H   0  0  0  0  0  0
   83.1500   64.9146   77.9465 H   0  0  0  0  0  0
   74.2950   61.9151   79.3377 H   0  0  0  0  0  0
   74.4865   63.6034   78.7549 H   0  0  0  0  0  0
   75.1379   63.1280   80.3601 H   0  0  0  0  0  0
   75.1077   62.3916   93.0525 H   0  0  0  0  0  0
   76.3274   62.5998   91.7503 H   0  0  0  0  0  0
   76.8116   61.8952   93.3301 H   0  0  0  0  0  0
   75.4059   63.2250   86.2526 H   0  0  0  0  0  0
   74.9826   62.3434   84.7459 H   0  0  0  0  0  0
   77.8688   57.0934   88.1429 H   0  0  0  0  0  0
   76.3290   56.6759   88.9685 H   0  0  0  0  0  0
   82.0614   63.1298   79.2983 H   0  0  0  0  0  0
   82.5970   63.9453   80.8065 H   0  0  0  0  0  0
   76.7595   61.6056   79.2511 H   0  0  0  0  0  0
   76.1082   62.0810   77.6460 H   0  0  0  0  0  0
   81.2429   65.9135   80.2780 H   0  0  0  0  0  0
   80.7957   65.2201   78.6824 H   0  0  0  0  0  0
   76.9053   64.3125   77.8562 H   0  0  0  0  0  0
   77.1486   64.1505   79.6285 H   0  0  0  0  0  0
   80.0582   64.0353   81.4058 H   0  0  0  0  0  0
   78.9709   64.9924   80.3436 H   0  0  0  0  0  0
   78.7318   62.3230   77.8534 H   0  0  0  0  0  0
   79.1718   64.0646   77.8632 H   0  0  0  0  0  0
   77.7051   59.0238   86.2825 H   0  0  0  0  0  0
   77.4619   59.9324   87.8129 H   0  0  0  0  0  0
   77.3598   61.9118   86.5991 H   0  0  0  0  0  0
   75.5358   59.8510   85.4266 H   0  0  0  0  0  0
   77.2353   61.4410   83.5786 H   0  0  0  0  0  0
   75.9463   57.5751   86.7225 H   0  0  0  0  0  0
   75.2603   58.6486   87.9889 H   0  0  0  0  0  0
   74.3617   60.0546   87.6684 H   0  0  0  0  0  0
  1  3  2  0  0  0
  1  4  1  0  0  0
  1 45  1  0  0  0
  2  5  2  0  0  0
  2  7  1  0  0  0
  2 46  1  0  0  0
  3  8  1  0  0  0
  3 47  1  0  0  0
  4  9  2  0  0  0
  4 48  1  0  0  0
  5 11  1  0  0  0
  5 49  1  0  0  0
  6 10  2  0  0  0
  6 12  1  0  0  0
  6 50  1  0  0  0
  7 15  2  0  0  0
  7 51  1  0  0  0
  8 17  2  0  0  0
  8 52  1  0  0  0
  9 17  1  0  0  0
  9 53  1  0  0  0
 10 18  1  0  0  0
 10 54  1  0  0  0
 11 19  2  0  0  0
 11 55  1  0  0  0
 12 20  2  0  0  0
 12 56  1  0  0  0
 13 18  2  0  0  0
 13 20  1  0  0  0
 13 57  1  0  0  0
 14 16  2  0  0  0
 14 37  1  0  0  0
 14 58  1  0  0  0
 15 16  1  0  0  0
 15 19  1  0  0  0
 16 21  1  0  0  0
 17 26  1  0  0  0
 18 27  1  0  0  0
 19 37  1  0  0  0
 20 44  1  0  0  0
 21 38  1  0  0  0
 21 41  2  0  0  0
 22 37  1  0  0  0
 22 40  1  0  0  0
 22 42  2  0  0  0
 23 28  1  0  0  0
 23 59  1  0  0  0
 23 60  1  0  0  0
 23 61  1  0  0  0
 24 29  1  0  0  0
 24 62  1  0  0  0
 24 63  1  0  0  0
 24 64  1  0  0  0
 25 44  1  0  0  0
 25 65  1  0  0  0
 25 66  1  0  0  0
 25 67  1  0  0  0
 26 35  1  0  0  0
 26 68  1  0  0  0
 26 69  1  0  0  0
 27 39  1  0  0  0
 27 70  1  0  0  0
 27 71  1  0  0  0
 28 30  1  0  0  0
 28 72  1  0  0  0
 28 73  1  0  0  0
 29 31  1  0  0  0
 29 74  1  0  0  0
 29 75  1  0  0  0
 30 32  1  0  0  0
 30 76  1  0  0  0
 30 77  1  0  0  0
 31 33  1  0  0  0
 31 78  1  0  0  0
 31 79  1  0  0  0
 32 40  1  0  0  0
 32 80  1  0  0  0
 32 81  1  0  0  0
 33 40  1  0  0  0
 33 82  1  0  0  0
 33 83  1  0  0  0
 34 36  1  0  0  0
 34 39  1  0  0  0
 34 84  1  0  0  0
 34 85  1  0  0  0
 35 36  1  0  0  0
 35 38  1  0  0  0
 35 86  1  0  0  0
 36 43  1  0  0  0
 36 87  1  0  0  0
 38 88  1  0  0  0
 39 89  1  0  0  0
 39 90  1  0  0  0
 43 91  1  0  0  0
M  CHG  1  39   1
M  END
> <s_m_source_file>
../3ohf_ligand.sdf

> <i_m_source_file_index>
1

> <s_epik_input>
W0NIM11PYyhbY0hdMSlbY0hdW2NIXVtjSF1jMVtDSDJdW05IMitdW0NIMl1bQ0BASF0oW09IXSlbQ0BIXShbQ0gyXWMyW2NIXVtjSF1bY0hdW2NIXVtjSF0yKVtOSF1DKD1PKWMzW2NIXW4oYyhjMzQpW2NIXVtjSF1bY0hdW2NIXTQpQyg9TylOKFtDSDJdW0NIMl1bQ0gyXVtDSDNdKVtDSDJdW0NIMl1bQ0gyXVtDSDNd

> <s_epik_cmdline>
J2VwaWtfYXBwJywgJy1pbWFlJywgJ2xpZ2FuZF9wcm8ubWFlJywgJy1vbWFlJywgJ2xpZ2FuZF9wcmVwLm1hZScsICctbXMnLCAnMScsICctcGgnLCAnNycsICctcGh0JywgJzAuNScsICctbnQn

> <r_lp_tautomer_probability>
1

> <r_epik_Ionization_Penalty>
  0.0213

> <r_epik_Ionization_Penalty_Charging>
  0.0213

> <r_epik_Ionization_Penalty_Neutral>
  0.0000

> <r_epik_State_Penalty>
  0.0171

> <r_epik_Charging_Adjusted_Penalty>
0.0384558816958752

> <i_epik_Tot_Q>
1

> <i_epik_Tot_abs_Q>
1

$$$$
