3ohh_ligand
                    3D
 Schrodinger Suite 2020-3.
 83 86  0  0  1  0            999 V2000
   43.4590   58.1040   52.0970 C   0  0  0  0  0  0
   44.5690   59.5430   58.8290 F   0  0  0  0  0  0
   44.8800   55.5880   54.0730 N   0  0  0  0  0  0
   45.6930   56.5830   54.4530 C   0  0  0  0  0  0
   47.4290   55.8250   58.8680 F   0  0  0  0  0  0
   41.1600   58.8240   49.6620 N   0  0  0  0  0  0
   45.3230   57.7380   53.7970 C   0  0  0  0  0  0
   44.2480   57.3720   52.9900 C   0  0  0  0  0  0
   42.9260   55.3680   52.4700 C   0  0  0  0  0  0
   43.9600   56.0070   53.1630 C   0  0  0  0  0  0
   41.6560   58.2580   50.5230 C   0  0  0  0  0  0
   49.2980   52.7990   55.4170 C   0  0  0  0  0  0
   42.1440   56.1040   51.5870 C   0  0  0  0  0  0
   42.4230   57.4580   51.4210 C   0  0  0  0  0  0
   45.0220   54.3240   54.5340 C   0  0  0  0  0  0
   45.1650   53.9100   55.8110 N   0  0  0  0  0  0
   44.6550   54.6930   56.9470 C   0  0  0  0  0  0
   45.7960   52.6400   56.1880 C   0  0  0  0  0  0
   47.1780   52.7230   56.8480 C   0  0  0  0  0  0
   48.1690   53.5940   56.0700 C   0  0  0  0  0  0
   45.0530   53.5010   53.6190 O   0  0  0  0  0  0
   46.0090   59.0450   53.9810 C   0  0  0  0  0  0
   47.2310   58.9450   54.3730 N   0  0  0  0  0  0
   48.0690   60.0420   54.8630 C   0  0  2  0  0  0
   49.0740   60.4930   53.7920 C   0  0  1  0  0  0
   48.3190   61.0720   52.5870 C   0  0  0  0  0  0
   49.2160   61.7520   51.6120 N   0  3  0  0  0  0
   48.5760   62.8140   50.7780 C   0  0  0  0  0  0
   47.9700   63.9320   51.5940 C   0  0  0  0  0  0
   45.3740   60.1910   53.7330 O   0  0  0  0  0  0
   48.7360   59.6690   56.2010 C   0  0  0  0  0  0
   47.7520   59.0110   57.1390 C   0  0  0  0  0  0
   48.0430   57.7180   57.5690 C   0  0  0  0  0  0
   47.1650   57.0610   58.4320 C   0  0  0  0  0  0
   45.9840   57.6640   58.8680 C   0  0  0  0  0  0
   45.6960   58.9520   58.4230 C   0  0  0  0  0  0
   46.5690   59.6150   57.5700 C   0  0  0  0  0  0
   49.9050   61.4920   54.3880 O   0  0  0  0  0  0
   48.8070   64.6690   52.4200 C   0  0  0  0  0  0
   48.2500   65.6920   53.1800 C   0  0  0  0  0  0
   46.8780   65.9550   53.1050 C   0  0  0  0  0  0
   46.0170   65.2200   52.2870 C   0  0  0  0  0  0
   46.6010   64.2010   51.5300 C   0  0  0  0  0  0
   49.1870   66.2980   53.9060 O   0  0  0  0  0  0
   48.8800   66.6480   55.2810 C   0  0  0  0  0  0
   43.6505   59.1642   51.9313 H   0  0  0  0  0  0
   46.5135   56.4939   55.1650 H   0  0  0  0  0  0
   42.7358   54.3054   52.6207 H   0  0  0  0  0  0
   49.9670   53.4866   54.8788 H   0  0  0  0  0  0
   48.8728   52.0721   54.7093 H   0  0  0  0  0  0
   49.8672   52.2658   56.1927 H   0  0  0  0  0  0
   41.3304   55.6314   51.0367 H   0  0  0  0  0  0
   44.2009   55.6238   56.5763 H   0  0  0  0  0  0
   45.4848   54.9354   57.6272 H   0  0  0  0  0  0
   43.8980   54.1053   57.4869 H   0  0  0  0  0  0
   45.1540   52.1111   56.9078 H   0  0  0  0  0  0
   45.9317   52.0175   55.2913 H   0  0  0  0  0  0
   47.0780   53.1536   57.8553 H   0  0  0  0  0  0
   47.6103   51.7142   56.9218 H   0  0  0  0  0  0
   48.5942   54.3209   56.7777 H   0  0  0  0  0  0
   47.5998   54.1273   55.2944 H   0  0  0  0  0  0
   47.6383   57.9247   54.3164 H   0  0  0  0  0  0
   47.3821   60.8813   55.0467 H   0  0  0  0  0  0
   49.7411   59.6837   53.4602 H   0  0  0  0  0  0
   47.8003   60.2608   52.0551 H   0  0  0  0  0  0
   47.5828   61.8110   52.9361 H   0  0  0  0  0  0
   50.0423   62.2382   52.1513 H   0  0  0  0  0  0
   49.6232   61.0102   50.9092 H   0  0  0  0  0  0
   49.3291   63.2609   50.1123 H   0  0  0  0  0  0
   47.7702   62.3705   50.1746 H   0  0  0  0  0  0
   49.5643   58.9694   56.0153 H   0  0  0  0  0  0
   49.1249   60.5781   56.6828 H   0  0  0  0  0  0
   48.9531   57.2215   57.2325 H   0  0  0  0  0  0
   45.3042   57.1400   59.5399 H   0  0  0  0  0  0
   46.3269   60.6225   57.2317 H   0  0  0  0  0  0
   50.5181   61.2446   55.2671 H   0  0  0  0  0  0
   49.8738   64.4516   52.4718 H   0  0  0  0  0  0
   46.4654   66.7641   53.7077 H   0  0  0  0  0  0
   44.9483   65.4297   52.2416 H   0  0  0  0  0  0
   45.9720   63.6007   50.8727 H   0  0  0  0  0  0
   49.7524   67.1378   55.7382 H   0  0  0  0  0  0
   48.6338   65.7364   55.8452 H   0  0  0  0  0  0
   48.0212   67.3350   55.3015 H   0  0  0  0  0  0
  1  8  2  0  0  0
  1 14  1  0  0  0
  1 46  1  0  0  0
  2 36  1  0  0  0
  3  4  1  0  0  0
  3 10  1  0  0  0
  3 15  1  0  0  0
  4  7  2  0  0  0
  4 47  1  0  0  0
  5 34  1  0  0  0
  6 11  3  0  0  0
  7  8  1  0  0  0
  7 22  1  0  0  0
  8 10  1  0  0  0
  9 10  2  0  0  0
  9 13  1  0  0  0
  9 48  1  0  0  0
 11 14  1  0  0  0
 12 20  1  0  0  0
 12 49  1  0  0  0
 12 50  1  0  0  0
 12 51  1  0  0  0
 13 14  2  0  0  0
 13 52  1  0  0  0
 15 16  1  0  0  0
 15 21  2  0  0  0
 16 17  1  0  0  0
 16 18  1  0  0  0
 17 53  1  0  0  0
 17 54  1  0  0  0
 17 55  1  0  0  0
 18 19  1  0  0  0
 18 56  1  0  0  0
 18 57  1  0  0  0
 19 20  1  0  0  0
 19 58  1  0  0  0
 19 59  1  0  0  0
 20 60  1  0  0  0
 20 61  1  0  0  0
 22 23  1  0  0  0
 22 30  2  0  0  0
 23 24  1  0  0  0
 23 62  1  0  0  0
 24 25  1  0  0  0
 24 31  1  0  0  0
 24 63  1  0  0  0
 25 26  1  0  0  0
 25 38  1  0  0  0
 25 64  1  0  0  0
 26 27  1  0  0  0
 26 65  1  0  0  0
 26 66  1  0  0  0
 27 28  1  0  0  0
 27 67  1  0  0  0
 27 68  1  0  0  0
 28 29  1  0  0  0
 28 69  1  0  0  0
 28 70  1  0  0  0
 29 39  2  0  0  0
 29 43  1  0  0  0
 31 32  1  0  0  0
 31 71  1  0  0  0
 31 72  1  0  0  0
 32 33  2  0  0  0
 32 37  1  0  0  0
 33 34  1  0  0  0
 33 73  1  0  0  0
 34 35  2  0  0  0
 35 36  1  0  0  0
 35 74  1  0  0  0
 36 37  2  0  0  0
 37 75  1  0  0  0
 38 76  1  0  0  0
 39 40  1  0  0  0
 39 77  1  0  0  0
 40 41  2  0  0  0
 40 44  1  0  0  0
 41 42  1  0  0  0
 41 78  1  0  0  0
 42 43  2  0  0  0
 42 79  1  0  0  0
 43 80  1  0  0  0
 44 45  1  0  0  0
 45 81  1  0  0  0
 45 82  1  0  0  0
 45 83  1  0  0  0
M  CHG  1  27   1
M  END
> <s_m_source_file>
../3ohh_ligand.sdf

> <i_m_source_file_index>
1

> <s_epik_input>
TiNDYyhbY0hdMSlbY0hdW2NIXWMoYzEyKW4oQyg9TylOKFtDSDNdKVtDSDJdW0NIMl1bQ0gyXVtDSDNdKVtjSF1jMkMoPU8pW05IXVtDQEBIXShbQ0gyXWMzW2NIXWMoRilbY0hdYyhGKVtjSF0zKVtDQEhdKFtPSF0pW0NIMl1bTkgyK11bQ0gyXWM0W2NIXWMoT1tDSDNdKVtjSF1bY0hdW2NIXTQ=

> <s_epik_cmdline>
J2VwaWtfYXBwJywgJy1pbWFlJywgJ2xpZ2FuZF9wcm8ubWFlJywgJy1vbWFlJywgJ2xpZ2FuZF9wcmVwLm1hZScsICctbXMnLCAnMScsICctcGgnLCAnNycsICctcGh0JywgJzAuNScsICctbnQn

> <r_lp_tautomer_probability>
1

> <r_epik_Ionization_Penalty>
  0.0213

> <r_epik_Ionization_Penalty_Charging>
  0.0213

> <r_epik_Ionization_Penalty_Neutral>
  0.0000

> <r_epik_State_Penalty>
  0.0171

> <r_epik_Charging_Adjusted_Penalty>
0.0384558816958752

> <i_epik_Tot_Q>
1

> <i_epik_Tot_abs_Q>
1

$$$$
