3oik_ligand
                    3D
 Schrodinger Suite 2020-3.
 60 63  0  0  1  0            999 V2000
   -7.3890    0.7140   16.9970 O   0  0  0  0  0  0
   -5.9750    0.6370   16.7130 S   0  0  0  0  0  0
   -5.0740    1.1280   17.7710 O   0  0  0  0  0  0
   -5.5220   -0.8530   16.3190 N   0  0  0  0  0  0
   -5.9240    1.5580   15.4790 O   0  0  0  0  0  0
   -4.6220    1.7440   14.8050 C   0  0  1  0  0  0
   -4.2300    0.7350   13.6970 C   0  0  0  0  0  0
   -3.5730    1.6930   12.6230 C   0  0  0  0  0  0
   -4.2710    3.1230   14.3280 C   0  0  1  0  0  0
   -3.1730    2.9160   13.4730 C   0  0  2  0  0  0
   -5.5130    3.5050   13.4330 C   0  0  0  0  0  0
   -4.1510    4.2500   15.2970 C   0  0  0  0  0  0
   -3.7500    5.5020   14.5780 C   0  0  0  0  0  0
   -2.3720    5.2210   13.8810 C   0  0  1  0  0  0
   -2.5200    4.1360   12.7910 C   0  0  1  0  0  0
   -1.2080    3.8620   12.0890 C   0  0  0  0  0  0
   -0.9260    5.1310   11.2240 C   0  0  0  0  0  0
   -0.8420    6.3550   12.1630 C   0  0  0  0  0  0
   -0.0790    7.4630   11.7640 C   0  0  0  0  0  0
   -1.5170    6.4140   13.3860 C   0  0  0  0  0  0
   -1.4210    7.5270   14.2010 C   0  0  0  0  0  0
   -0.6420    8.6190   13.8000 C   0  0  0  0  0  0
   -0.5800    9.8230   14.7480 C   0  0  0  0  0  0
   -1.6580   10.8040   14.2930 C   0  0  0  0  0  0
    0.0300    8.5900   12.5720 C   0  0  0  0  0  0
    0.7840    9.7020   12.2040 O   0  0  0  0  0  0
    2.2670    9.5960   12.2900 S   0  0  0  0  0  0
    2.7570    8.7160   11.1710 O   0  0  0  0  0  0
    2.7670    9.0780   13.6100 O   0  0  0  0  0  0
    2.8990   11.0900   12.0620 N   0  0  0  0  0  0
   -5.5640   -1.4967   17.2100 H   0  0  0  0  0  0
   -4.4934   -0.8326   15.9296 H   0  0  0  0  0  0
   -4.0550    1.5574   15.7290 H   0  0  0  0  0  0
   -3.5288   -0.0064   14.1077 H   0  0  0  0  0  0
   -5.1323    0.2230   13.3314 H   0  0  0  0  0  0
   -2.7095    1.1904   12.1629 H   0  0  0  0  0  0
   -4.3131    1.9351   11.8461 H   0  0  0  0  0  0
   -2.3294    2.7123   14.1489 H   0  0  0  0  0  0
   -5.6779    2.7199   12.6804 H   0  0  0  0  0  0
   -5.3200    4.4627   12.9276 H   0  0  0  0  0  0
   -6.4069    3.5987   14.0671 H   0  0  0  0  0  0
   -5.1193    4.4115   15.7933 H   0  0  0  0  0  0
   -3.3887    4.0054   16.0513 H   0  0  0  0  0  0
   -4.5155    5.7565   13.8301 H   0  0  0  0  0  0
   -3.6555    6.3257   15.3009 H   0  0  0  0  0  0
   -1.7460    4.8581   14.7095 H   0  0  0  0  0  0
   -3.1535    4.4571   11.9510 H   0  0  0  0  0  0
   -0.4181    3.7020   12.8376 H   0  0  0  0  0  0
   -1.3077    2.9628   11.4632 H   0  0  0  0  0  0
    0.0252    5.0042   10.6862 H   0  0  0  0  0  0
   -1.7416    5.2692   10.4989 H   0  0  0  0  0  0
    0.4372    7.4402   10.8043 H   0  0  0  0  0  0
   -1.9506    7.5541   15.1533 H   0  0  0  0  0  0
   -0.7686    9.4882   15.7787 H   0  0  0  0  0  0
    0.4165   10.2851   14.6891 H   0  0  0  0  0  0
   -1.6498   11.6876   14.9482 H   0  0  0  0  0  0
   -2.6429   10.3171   14.3463 H   0  0  0  0  0  0
   -1.4578   11.1140   13.2567 H   0  0  0  0  0  0
    3.9961   11.0369   12.1213 H   0  0  0  0  0  0
    2.5222   11.7701   12.8401 H   0  0  0  0  0  0
  1  2  2  0  0  0
  2  3  2  0  0  0
  2  4  1  0  0  0
  2  5  1  0  0  0
  4 31  1  0  0  0
  4 32  1  0  0  0
  5  6  1  0  0  0
  6  7  1  0  0  0
  6  9  1  0  0  0
  6 33  1  0  0  0
  7  8  1  0  0  0
  7 34  1  0  0  0
  7 35  1  0  0  0
  8 10  1  0  0  0
  8 36  1  0  0  0
  8 37  1  0  0  0
  9 10  1  0  0  0
  9 11  1  0  0  0
  9 12  1  0  0  0
 10 15  1  0  0  0
 10 38  1  0  0  0
 11 39  1  0  0  0
 11 40  1  0  0  0
 11 41  1  0  0  0
 12 13  1  0  0  0
 12 42  1  0  0  0
 12 43  1  0  0  0
 13 14  1  0  0  0
 13 44  1  0  0  0
 13 45  1  0  0  0
 14 15  1  0  0  0
 14 20  1  0  0  0
 14 46  1  0  0  0
 15 16  1  0  0  0
 15 47  1  0  0  0
 16 17  1  0  0  0
 16 48  1  0  0  0
 16 49  1  0  0  0
 17 18  1  0  0  0
 17 50  1  0  0  0
 17 51  1  0  0  0
 18 19  2  0  0  0
 18 20  1  0  0  0
 19 25  1  0  0  0
 19 52  1  0  0  0
 20 21  2  0  0  0
 21 22  1  0  0  0
 21 53  1  0  0  0
 22 23  1  0  0  0
 22 25  2  0  0  0
 23 24  1  0  0  0
 23 54  1  0  0  0
 23 55  1  0  0  0
 24 56  1  0  0  0
 24 57  1  0  0  0
 24 58  1  0  0  0
 25 26  1  0  0  0
 26 27  1  0  0  0
 27 28  2  0  0  0
 27 29  2  0  0  0
 27 30  1  0  0  0
 30 59  1  0  0  0
 30 60  1  0  0  0
M  END
> <s_m_source_file>
../3oik_ligand.sdf

> <i_m_source_file_index>
1

> <s_epik_input>
Tz1TKD1PKShbTkgyXSlPW0NASF0xW0NIMl1bQ0gyXVtDQEhdKFtDQEBdMTJbQ0gzXSlbQ0BIXTNbQ0BIXShbQ0gyXVtDSDJdMiljNGMoW0NIMl1bQ0gyXTMpW2NIXWMoYyhbY0hdNClbQ0gyXVtDSDNdKU9TKD1PKSg9TylbTkgyXQ==

> <s_epik_cmdline>
J2VwaWtfYXBwJywgJy1pbWFlJywgJ2xpZ2FuZF9wcm8ubWFlJywgJy1vbWFlJywgJ2xpZ2FuZF9wcmVwLm1hZScsICctbXMnLCAnMScsICctcGgnLCAnNycsICctcGh0JywgJzAuNScsICctbnQn

> <r_epik_Ionization_Penalty>
  0.0212

> <r_epik_Ionization_Penalty_Charging>
  0.0000

> <r_epik_Ionization_Penalty_Neutral>
  0.0212

> <r_epik_State_Penalty>
  0.0155

> <r_epik_Charging_Adjusted_Penalty>
0.0154800641039723

> <i_epik_Tot_Q>
0

> <i_epik_Tot_abs_Q>
0

$$$$
