3oil_ligand
                    3D
 Schrodinger Suite 2020-3.
 55 58  0  0  1  0            999 V2000
   -3.5860    1.2630   13.8100 C   0  0  0  0  0  0
   -5.1030   -0.8310   15.9800 N   0  0  0  0  0  0
   -5.2400    0.6650   17.9910 O   0  0  0  0  0  0
   -5.4820    0.6300   16.5590 S   0  0  0  0  0  0
   -4.4280    1.9930   14.6510 C   0  0  0  0  0  0
   -6.8600    1.0740   16.2980 O   0  0  0  0  0  0
   -5.1300    3.1210   14.1520 C   0  0  0  0  0  0
   -4.5310    1.6200   15.9960 O   0  0  0  0  0  0
   -4.9990    3.4470   12.7880 C   0  0  0  0  0  0
   -4.1180    2.7290   11.9370 C   0  0  0  0  0  0
   -3.4270    1.6270   12.4360 C   0  0  0  0  0  0
   -2.4460    0.8470   11.5860 C   0  0  0  0  0  0
   -2.2280    1.3260   10.1770 C   0  0  0  0  0  0
   -2.4980    2.7930   10.0750 C   0  0  2  0  0  0
   -3.9200    3.1390   10.5040 C   0  0  2  0  0  0
   -4.3650    4.5450   10.1120 C   0  0  0  0  0  0
   -3.3120    5.4570    9.6020 C   0  0  0  0  0  0
   -2.3030    4.8260    8.6000 C   0  0  1  0  0  0
   -2.2560    3.3520    8.6650 C   0  0  1  0  0  0
   -0.9540    3.0600    7.9920 C   0  0  0  0  0  0
   -0.9480    4.0730    6.8700 C   0  0  0  0  0  0
   -2.1380    5.0120    7.1580 C   0  0  2  0  0  0
   -1.8300    6.2900    6.7770 O   0  0  0  0  0  0
   -1.1170    5.4390    9.2000 C   0  0  0  0  0  0
   -6.0520    3.9110   15.0080 C   0  0  0  0  0  0
   -5.7630    5.3810   15.0740 C   0  0  0  0  0  0
   -3.0429    0.4047   14.2056 H   0  0  0  0  0  0
   -5.7991   -1.5788   16.3877 H   0  0  0  0  0  0
   -4.0750   -1.0873   16.2758 H   0  0  0  0  0  0
   -5.5865    4.2680   12.3770 H   0  0  0  0  0  0
   -1.4537    0.8661   12.0604 H   0  0  0  0  0  0
   -2.7881   -0.1943   11.4934 H   0  0  0  0  0  0
   -1.1862    1.1330    9.8812 H   0  0  0  0  0  0
   -2.9073    0.7896    9.4981 H   0  0  0  0  0  0
   -1.7749    3.2395   10.7734 H   0  0  0  0  0  0
   -4.6432    2.5356    9.9358 H   0  0  0  0  0  0
   -5.1189    4.4817    9.3134 H   0  0  0  0  0  0
   -4.7998    5.0495   10.9875 H   0  0  0  0  0  0
   -3.7815    6.3019    9.0769 H   0  0  0  0  0  0
   -2.7149    5.8353   10.4448 H   0  0  0  0  0  0
   -3.0718    2.8503    8.1238 H   0  0  0  0  0  0
   -0.1310    3.2038    8.7076 H   0  0  0  0  0  0
   -0.9513    2.0198    7.6343 H   0  0  0  0  0  0
    0.0064    4.6200    6.8750 H   0  0  0  0  0  0
   -1.0685    3.5546    5.9073 H   0  0  0  0  0  0
   -3.0849    4.9033    6.6089 H   0  0  0  0  0  0
   -2.5665    7.0962    6.9099 H   0  0  0  0  0  0
   -1.1667    5.3394   10.2944 H   0  0  0  0  0  0
   -1.0788    6.5047    8.9301 H   0  0  0  0  0  0
   -0.2143    4.9335    8.8264 H   0  0  0  0  0  0
   -7.0799    3.8115   14.6290 H   0  0  0  0  0  0
   -6.0043    3.5366   16.0412 H   0  0  0  0  0  0
   -6.4986    5.8702   15.7295 H   0  0  0  0  0  0
   -5.8270    5.8129   14.0644 H   0  0  0  0  0  0
   -4.7514    5.5381   15.4766 H   0  0  0  0  0  0
  1  5  2  0  0  0
  1 11  1  0  0  0
  1 27  1  0  0  0
  2  4  1  0  0  0
  2 28  1  0  0  0
  2 29  1  0  0  0
  3  4  2  0  0  0
  4  6  2  0  0  0
  4  8  1  0  0  0
  5  7  1  0  0  0
  5  8  1  0  0  0
  7  9  2  0  0  0
  7 25  1  0  0  0
  9 10  1  0  0  0
  9 30  1  0  0  0
 10 11  2  0  0  0
 10 15  1  0  0  0
 11 12  1  0  0  0
 12 13  1  0  0  0
 12 31  1  0  0  0
 12 32  1  0  0  0
 13 14  1  0  0  0
 13 33  1  0  0  0
 13 34  1  0  0  0
 14 15  1  0  0  0
 14 19  1  0  0  0
 14 35  1  0  0  0
 15 16  1  0  0  0
 15 36  1  0  0  0
 16 17  1  0  0  0
 16 37  1  0  0  0
 16 38  1  0  0  0
 17 18  1  0  0  0
 17 39  1  0  0  0
 17 40  1  0  0  0
 18 19  1  0  0  0
 18 22  1  0  0  0
 18 24  1  0  0  0
 19 20  1  0  0  0
 19 41  1  0  0  0
 20 21  1  0  0  0
 20 42  1  0  0  0
 20 43  1  0  0  0
 21 22  1  0  0  0
 21 44  1  0  0  0
 21 45  1  0  0  0
 22 23  1  0  0  0
 22 46  1  0  0  0
 23 47  1  0  0  0
 24 48  1  0  0  0
 24 49  1  0  0  0
 24 50  1  0  0  0
 25 26  1  0  0  0
 25 51  1  0  0  0
 25 52  1  0  0  0
 26 53  1  0  0  0
 26 54  1  0  0  0
 26 55  1  0  0  0
M  END
> <s_m_source_file>
../3oil_ligand.sdf

> <i_m_source_file_index>
1

> <s_epik_input>
W05IMl1TKD1PKSg9TylPYyhjKFtjSF0xKVtDSDJdW0NIM10pW2NIXWMoW0NIMl1bQ0gyXTIpYzFbQ0BASF0oW0NIMl1bQ0gyXTMpW0NAQEhdMltDQEBIXShbQ0BdMzRbQ0gzXSlbQ0gyXVtDSDJdW0NAQEhdNFtPSF0=

> <s_epik_cmdline>
J2VwaWtfYXBwJywgJy1pbWFlJywgJ2xpZ2FuZF9wcm8ubWFlJywgJy1vbWFlJywgJ2xpZ2FuZF9wcmVwLm1hZScsICctbXMnLCAnMScsICctcGgnLCAnNycsICctcGh0JywgJzAuNScsICctbnQn

> <r_epik_Ionization_Penalty>
  0.0188

> <r_epik_Ionization_Penalty_Charging>
  0.0000

> <r_epik_Ionization_Penalty_Neutral>
  0.0188

> <r_epik_State_Penalty>
  0.0150

> <r_epik_Charging_Adjusted_Penalty>
0.0149891537703227

> <i_epik_Tot_Q>
0

> <i_epik_Tot_abs_Q>
0

$$$$
