3oim_ligand
                    3D
 Schrodinger Suite 2020-3.
 55 58  0  0  1  0            999 V2000
   -3.0620    2.7340   14.1670 C   0  0  0  0  0  0
   -5.1170   -0.7390   15.9480 N   0  0  0  0  0  0
   -4.4020    1.2790   17.1310 O   0  0  0  0  0  0
   -5.2740    0.7810   16.1110 S   0  0  0  0  0  0
   -4.4670    2.5980   14.3770 C   0  0  0  0  0  0
   -6.6830    1.1870   16.1950 O   0  0  0  0  0  0
   -5.0080    3.8360   14.5630 C   0  0  0  0  0  0
   -4.6540    1.3080   14.8050 O   0  0  0  0  0  0
   -4.3750    5.0280   14.1670 C   0  0  0  0  0  0
   -3.0060    5.1270   13.8860 C   0  0  0  0  0  0
   -2.3470    3.9150   13.8370 C   0  0  0  0  0  0
   -0.8530    3.8840   13.5160 C   0  0  0  0  0  0
   -0.4460    5.0250   12.5850 C   0  0  0  0  0  0
   -0.8010    6.3280   13.2820 C   0  0  2  0  0  0
   -2.3530    6.3670   13.5500 C   0  0  2  0  0  0
   -2.7200    7.6610   14.2930 C   0  0  0  0  0  0
   -2.2710    8.9680   13.5560 C   0  0  0  0  0  0
   -0.7460    8.8660   13.4180 C   0  0  1  0  0  0
   -0.3170    7.6450   12.6140 C   0  0  1  0  0  0
    1.2060    7.8570   12.5910 C   0  0  0  0  0  0
    1.3530    9.4210   12.7070 C   0  0  0  0  0  0
   -0.0670    9.9350   12.5770 C   0  0  2  0  0  0
   -0.0540   11.2270   13.2360 O   0  0  0  0  0  0
   -0.1600    8.8810   14.8380 C   0  0  0  0  0  0
   -6.4730    3.8660   14.8490 C   0  0  0  0  0  0
   -6.6690    4.2120   16.3070 C   0  0  0  0  0  0
   -2.4691    1.8255   14.2722 H   0  0  0  0  0  0
   -5.5292   -1.2471   16.8323 H   0  0  0  0  0  0
   -4.0506   -0.9886   15.8456 H   0  0  0  0  0  0
   -4.9848    5.9266   14.0733 H   0  0  0  0  0  0
   -0.2758    3.9774   14.4477 H   0  0  0  0  0  0
   -0.6034    2.9324   13.0239 H   0  0  0  0  0  0
    0.6358    4.9731   12.3926 H   0  0  0  0  0  0
   -0.9921    4.9352   11.6344 H   0  0  0  0  0  0
   -0.2020    6.2835   14.2036 H   0  0  0  0  0  0
   -2.9563    6.3500   12.6303 H   0  0  0  0  0  0
   -3.8117    7.7163   14.4157 H   0  0  0  0  0  0
   -2.2392    7.6647   15.2823 H   0  0  0  0  0  0
   -2.7586    9.0196   12.5713 H   0  0  0  0  0  0
   -2.5601    9.8443   14.1547 H   0  0  0  0  0  0
   -0.7426    7.5641   11.6029 H   0  0  0  0  0  0
    1.6628    7.3269   13.4397 H   0  0  0  0  0  0
    1.6167    7.4640   11.6493 H   0  0  0  0  0  0
    1.7982    9.6763   13.6800 H   0  0  0  0  0  0
    2.0021    9.7892   11.8989 H   0  0  0  0  0  0
   -0.5229   10.1109   11.5915 H   0  0  0  0  0  0
   -0.9742   11.8275   13.2874 H   0  0  0  0  0  0
   -0.6518    8.1073   15.4458 H   0  0  0  0  0  0
   -0.3288    9.8677   15.2939 H   0  0  0  0  0  0
    0.9202    8.6787   14.7910 H   0  0  0  0  0  0
   -6.9549    4.6246   14.2147 H   0  0  0  0  0  0
   -6.9086    2.8788   14.6352 H   0  0  0  0  0  0
   -7.7445    4.2386   16.5361 H   0  0  0  0  0  0
   -6.2257    5.1975   16.5128 H   0  0  0  0  0  0
   -6.1794    3.4517   16.9333 H   0  0  0  0  0  0
  1  5  2  0  0  0
  1 11  1  0  0  0
  1 27  1  0  0  0
  2  4  1  0  0  0
  2 28  1  0  0  0
  2 29  1  0  0  0
  3  4  2  0  0  0
  4  6  2  0  0  0
  4  8  1  0  0  0
  5  7  1  0  0  0
  5  8  1  0  0  0
  7  9  2  0  0  0
  7 25  1  0  0  0
  9 10  1  0  0  0
  9 30  1  0  0  0
 10 11  2  0  0  0
 10 15  1  0  0  0
 11 12  1  0  0  0
 12 13  1  0  0  0
 12 31  1  0  0  0
 12 32  1  0  0  0
 13 14  1  0  0  0
 13 33  1  0  0  0
 13 34  1  0  0  0
 14 15  1  0  0  0
 14 19  1  0  0  0
 14 35  1  0  0  0
 15 16  1  0  0  0
 15 36  1  0  0  0
 16 17  1  0  0  0
 16 37  1  0  0  0
 16 38  1  0  0  0
 17 18  1  0  0  0
 17 39  1  0  0  0
 17 40  1  0  0  0
 18 19  1  0  0  0
 18 22  1  0  0  0
 18 24  1  0  0  0
 19 20  1  0  0  0
 19 41  1  0  0  0
 20 21  1  0  0  0
 20 42  1  0  0  0
 20 43  1  0  0  0
 21 22  1  0  0  0
 21 44  1  0  0  0
 21 45  1  0  0  0
 22 23  1  0  0  0
 22 46  1  0  0  0
 23 47  1  0  0  0
 24 48  1  0  0  0
 24 49  1  0  0  0
 24 50  1  0  0  0
 25 26  1  0  0  0
 25 51  1  0  0  0
 25 52  1  0  0  0
 26 53  1  0  0  0
 26 54  1  0  0  0
 26 55  1  0  0  0
M  END
> <s_m_source_file>
../3oim_ligand.sdf

> <i_m_source_file_index>
1

> <s_epik_input>
W05IMl1TKD1PKSg9TylPYyhjKFtjSF0xKVtDSDJdW0NIM10pW2NIXWMoW0NIMl1bQ0gyXTIpYzFbQ0BASF0oW0NIMl1bQ0gyXTMpW0NAQEhdMltDQEBIXShbQ0BdMzRbQ0gzXSlbQ0gyXVtDSDJdW0NAQEhdNFtPSF0=

> <s_epik_cmdline>
J2VwaWtfYXBwJywgJy1pbWFlJywgJ2xpZ2FuZF9wcm8ubWFlJywgJy1vbWFlJywgJ2xpZ2FuZF9wcmVwLm1hZScsICctbXMnLCAnMScsICctcGgnLCAnNycsICctcGh0JywgJzAuNScsICctbnQn

> <r_epik_Ionization_Penalty>
  0.0188

> <r_epik_Ionization_Penalty_Charging>
  0.0000

> <r_epik_Ionization_Penalty_Neutral>
  0.0188

> <r_epik_State_Penalty>
  0.0150

> <r_epik_Charging_Adjusted_Penalty>
0.0149891537703226

> <i_epik_Tot_Q>
0

> <i_epik_Tot_abs_Q>
0

$$$$
