3oj8_ligand
                    3D
 Schrodinger Suite 2020-3.
 52 56  0  0  1  0            999 V2000
   39.8600  -39.6760    6.2200 C   0  0  1  0  0  0
   38.8620  -38.5690    6.5670 C   0  0  2  0  0  0
   39.2370  -37.9220    7.7770 O   0  0  0  0  0  0
   37.3650  -39.0080    6.7810 C   0  0  0  0  0  0
   45.3940  -47.1990    9.5190 C   0  0  0  0  0  0
   33.4400  -42.6120   10.1630 C   0  0  0  0  0  0
   45.2090  -45.8180    9.8370 C   0  0  0  0  0  0
   45.1410  -47.7480    8.2350 C   0  0  0  0  0  0
   34.8310  -42.8420   10.0220 C   0  0  0  0  0  0
   32.8350  -41.5410    9.4540 C   0  0  0  0  0  0
   44.7160  -44.9850    8.7840 C   0  0  0  0  0  0
   44.6610  -46.8980    7.2240 C   0  0  0  0  0  0
   35.6220  -42.0080    9.1610 C   0  0  0  0  0  0
   41.8560  -44.0010    7.4960 C   0  0  0  0  0  0
   40.8020  -43.0470    7.7010 C   0  0  0  0  0  0
   35.1990  -39.2060    6.7100 C   0  0  0  0  0  0
   43.1540  -42.4130    6.1140 C   0  0  0  0  0  0
   42.3000  -40.1100    5.6350 C   0  0  0  0  0  0
   41.3070  -39.0850    6.2000 C   0  0  0  0  0  0
   39.8510  -40.7490    7.2830 C   0  0  0  0  0  0
   33.6120  -40.7500    8.6440 N   0  0  0  0  0  0
   36.2950  -38.5830    6.1880 N   0  0  0  0  0  0
   44.0110  -44.6530    6.5270 O   0  0  0  0  0  0
   36.9930  -39.8930    7.7190 O   0  0  0  0  0  0
   44.4640  -45.5060    7.4870 C   0  0  0  0  0  0
   42.9960  -43.6970    6.6890 C   0  0  0  0  0  0
   40.9510  -41.7680    7.0970 C   0  0  0  0  0  0
   42.1200  -41.4600    6.2940 C   0  0  0  0  0  0
   34.9670  -40.9230    8.4870 C   0  0  0  0  0  0
   35.6460  -40.0450    7.6700 C   0  0  0  0  0  0
   39.5549  -40.1094    5.2561 H   0  0  0  0  0  0
   38.9588  -37.8668    5.7258 H   0  0  0  0  0  0
   40.2523  -37.5142    7.8909 H   0  0  0  0  0  0
   45.7484  -47.8663   10.3047 H   0  0  0  0  0  0
   32.8397  -43.2516   10.8100 H   0  0  0  0  0  0
   45.4314  -45.4213   10.8276 H   0  0  0  0  0  0
   45.3151  -48.8057    8.0373 H   0  0  0  0  0  0
   35.3036  -43.6569   10.5704 H   0  0  0  0  0  0
   31.7665  -41.3490    9.5515 H   0  0  0  0  0  0
   44.5300  -43.9292    8.9809 H   0  0  0  0  0  0
   44.4381  -47.3010    6.2361 H   0  0  0  0  0  0
   36.6873  -42.1933    9.0235 H   0  0  0  0  0  0
   41.7848  -44.9811    7.9675 H   0  0  0  0  0  0
   39.9226  -43.2935    8.2960 H   0  0  0  0  0  0
   34.1619  -39.0556    6.4101 H   0  0  0  0  0  0
   44.0500  -42.1629    5.5460 H   0  0  0  0  0  0
   42.1363  -40.2212    4.5529 H   0  0  0  0  0  0
   43.3280  -39.7633    5.8166 H   0  0  0  0  0  0
   41.3264  -38.1841    5.5691 H   0  0  0  0  0  0
   41.6098  -38.8219    7.2242 H   0  0  0  0  0  0
   39.9857  -40.2865    8.2719 H   0  0  0  0  0  0
   38.8901  -41.2838    7.2561 H   0  0  0  0  0  0
  1  2  1  0  0  0
  1 19  1  0  0  0
  1 20  1  0  0  0
  1 31  1  0  0  0
  2  3  1  0  0  0
  2  4  1  0  0  0
  2 32  1  0  0  0
  3 33  1  0  0  0
  4 22  2  0  0  0
  4 24  1  0  0  0
  5  7  2  0  0  0
  5  8  1  0  0  0
  5 34  1  0  0  0
  6  9  2  0  0  0
  6 10  1  0  0  0
  6 35  1  0  0  0
  7 11  1  0  0  0
  7 36  1  0  0  0
  8 12  2  0  0  0
  8 37  1  0  0  0
  9 13  1  0  0  0
  9 38  1  0  0  0
 10 21  2  0  0  0
 10 39  1  0  0  0
 11 25  2  0  0  0
 11 40  1  0  0  0
 12 25  1  0  0  0
 12 41  1  0  0  0
 13 29  2  0  0  0
 13 42  1  0  0  0
 14 15  2  0  0  0
 14 26  1  0  0  0
 14 43  1  0  0  0
 15 27  1  0  0  0
 15 44  1  0  0  0
 16 22  1  0  0  0
 16 30  2  0  0  0
 16 45  1  0  0  0
 17 26  2  0  0  0
 17 28  1  0  0  0
 17 46  1  0  0  0
 18 19  1  0  0  0
 18 28  1  0  0  0
 18 47  1  0  0  0
 18 48  1  0  0  0
 19 49  1  0  0  0
 19 50  1  0  0  0
 20 27  1  0  0  0
 20 51  1  0  0  0
 20 52  1  0  0  0
 21 29  1  0  0  0
 23 25  1  0  0  0
 23 26  1  0  0  0
 24 30  1  0  0  0
 27 28  2  0  0  0
 29 30  1  0  0  0
M  END
> <s_m_source_file>
../3oj8_ligand.sdf

> <i_m_source_file_index>
1

> <s_epik_input>
bjFbY0hdW2NIXVtjSF1bY0hdYzEtYyhvMilbY0hdbmMyW0NAQEhdKFtPSF0pW0NASF0oW0NIMl0zKVtDSDJdW0NIMl1jKGMzNClbY0hdYyhbY0hdW2NIXTQpT2M1W2NIXVtjSF1bY0hdW2NIXVtjSF01

> <s_epik_cmdline>
J2VwaWtfYXBwJywgJy1pbWFlJywgJ2xpZ2FuZF9wcm8ubWFlJywgJy1vbWFlJywgJ2xpZ2FuZF9wcmVwLm1hZScsICctbXMnLCAnMScsICctcGgnLCAnNycsICctcGh0JywgJzAuNScsICctbnQn

> <r_lp_tautomer_probability>
1

> <r_epik_Ionization_Penalty>
  0.0022

> <r_epik_Ionization_Penalty_Charging>
  0.0000

> <r_epik_Ionization_Penalty_Neutral>
  0.0022

> <r_epik_State_Penalty>
 -0.0000

> <r_epik_Charging_Adjusted_Penalty>
0

> <i_epik_Tot_Q>
0

> <i_epik_Tot_abs_Q>
0

$$$$
