3ok9_ligand
                    3D
 Schrodinger Suite 2020-3.
 82 86  0  0  1  0            999 V2000
   21.0010   27.7160   14.7810 C   0  0  0  0  0  0
   19.6640   27.6990   14.3900 C   0  0  0  0  0  0
   18.8690   26.5780   14.5980 C   0  0  0  0  0  0
   19.3900   25.4810   15.2810 C   0  0  0  0  0  0
   20.7370   25.4790   15.5860 C   0  0  0  0  0  0
   21.5740   26.5580   15.3090 C   0  0  0  0  0  0
   18.4030   24.0840   15.6940 S   0  0  0  0  0  0
   17.3220   24.0040   14.6670 O   0  0  0  0  0  0
   19.3150   22.9220   15.8240 O   0  0  0  0  0  0
   17.7090   24.2840   17.1750 N   0  0  1  0  0  0
   18.6590   24.5440   18.2440 C   0  0  0  0  0  0
   18.3170   23.8950   19.5820 C   0  0  0  0  0  0
   18.2110   22.3730   19.5590 C   0  0  0  0  0  0
   19.3940   24.2920   20.6110 C   0  0  0  0  0  0
   16.4650   25.0450   17.2430 C   0  0  0  0  0  0
   15.3120   24.1680   17.7060 C   0  0  1  0  0  0
   14.1680   24.9750   17.9920 O   0  0  0  0  0  0
   14.9500   23.0320   16.7540 C   0  0  1  0  0  0
   14.0210   22.0980   17.3780 N   0  0  0  0  0  0
   14.2710   20.8360   17.7170 C   0  0  0  0  0  0
   15.3900   20.3290   17.5120 O   0  0  0  0  0  0
   13.2150   20.2220   18.3140 O   0  0  0  0  0  0
   13.4080   18.8380   18.5870 C   0  0  1  0  0  0
   12.8870   18.5800   19.9910 C   0  0  0  0  0  0
   11.4590   18.4980   19.8750 O   0  0  0  0  0  0
   11.1310   18.1540   18.5520 C   0  0  1  0  0  0
   10.3990   19.2410   17.9550 O   0  0  0  0  0  0
   10.9390   19.6190   16.7160 C   0  0  1  0  0  0
   12.0780   18.6490   16.4060 C   0  0  1  0  0  0
   12.4080   18.0150   17.7440 C   0  0  1  0  0  0
   14.2820   23.5310   15.4880 C   0  0  0  0  0  0
   12.6610   21.9310   14.3700 C   0  0  0  0  0  0
   12.3280   20.8610   13.5350 C   0  0  0  0  0  0
   13.3570   20.2640   12.8100 C   0  0  0  0  0  0
   14.6700   20.6690   13.0050 C   0  0  0  0  0  0
   14.9890   21.7310   13.8520 C   0  0  0  0  0  0
   13.9700   22.3600   14.5340 C   0  0  0  0  0  0
   21.7130   28.8620   14.5770 O   0  0  0  0  0  0
   23.0460   28.7540   15.0250 C   0  0  0  0  0  0
    9.9220   19.3920   15.7030 O   0  0  0  0  0  0
    9.9500   17.9520   15.5140 C   0  0  0  0  0  0
   11.4540   17.6810   15.4100 C   0  0  0  0  0  0
   19.2341   28.5797   13.9129 H   0  0  0  0  0  0
   17.8436   26.5572   14.2288 H   0  0  0  0  0  0
   21.1631   24.5966   16.0633 H   0  0  0  0  0  0
   22.6457   26.4994   15.4992 H   0  0  0  0  0  0
   19.6501   24.1650   17.9540 H   0  0  0  0  0  0
   18.7194   25.6273   18.4254 H   0  0  0  0  0  0
   17.3109   24.2597   19.8364 H   0  0  0  0  0  0
   17.4459   22.0697   18.8291 H   0  0  0  0  0  0
   17.9288   22.0100   20.5583 H   0  0  0  0  0  0
   19.1818   21.9421   19.2730 H   0  0  0  0  0  0
   19.4852   25.3878   20.6421 H   0  0  0  0  0  0
   20.3592   23.8518   20.3199 H   0  0  0  0  0  0
   19.1061   23.9197   21.6052 H   0  0  0  0  0  0
   16.5822   25.8765   17.9536 H   0  0  0  0  0  0
   16.2250   25.4451   16.2468 H   0  0  0  0  0  0
   15.6099   23.7056   18.6586 H   0  0  0  0  0  0
   14.2595   25.8399   18.6655 H   0  0  0  0  0  0
   15.8846   22.5015   16.5194 H   0  0  0  0  0  0
   12.9954   22.4177   17.6144 H   0  0  0  0  0  0
   14.4767   18.6491   18.4074 H   0  0  0  0  0  0
   13.3093   17.6382   20.3715 H   0  0  0  0  0  0
   13.1849   19.4083   20.6507 H   0  0  0  0  0  0
   10.5160   17.2438   18.6098 H   0  0  0  0  0  0
   11.2208   20.6808   16.7726 H   0  0  0  0  0  0
   13.0072   19.0588   15.9832 H   0  0  0  0  0  0
   12.7926   17.0037   17.5457 H   0  0  0  0  0  0
   13.3406   24.0384   15.7457 H   0  0  0  0  0  0
   14.9507   24.2376   14.9746 H   0  0  0  0  0  0
   11.8661   22.4453   14.9101 H   0  0  0  0  0  0
   11.3005   20.5064   13.4539 H   0  0  0  0  0  0
   13.1307   19.4783   12.0892 H   0  0  0  0  0  0
   15.4713   20.1449   12.4840 H   0  0  0  0  0  0
   16.0224   22.0562   13.9717 H   0  0  0  0  0  0
   23.5736   29.7009   14.8378 H   0  0  0  0  0  0
   23.5501   27.9401   14.4832 H   0  0  0  0  0  0
   23.0539   28.5367   16.1033 H   0  0  0  0  0  0
    9.4798   17.4596   16.3780 H   0  0  0  0  0  0
    9.3985   17.6915   14.5986 H   0  0  0  0  0  0
   11.8424   17.8906   14.4024 H   0  0  0  0  0  0
   11.7079   16.6489   15.6934 H   0  0  0  0  0  0
  1  2  2  0  0  0
  1  6  1  0  0  0
  1 38  1  0  0  0
  2  3  1  0  0  0
  2 43  1  0  0  0
  3  4  2  0  0  0
  3 44  1  0  0  0
  4  5  1  0  0  0
  4  7  1  0  0  0
  5  6  2  0  0  0
  5 45  1  0  0  0
  6 46  1  0  0  0
  7  8  2  0  0  0
  7  9  2  0  0  0
  7 10  1  0  0  0
 10 11  1  0  0  0
 10 15  1  0  0  0
 11 12  1  0  0  0
 11 47  1  0  0  0
 11 48  1  0  0  0
 12 13  1  0  0  0
 12 14  1  0  0  0
 12 49  1  0  0  0
 13 50  1  0  0  0
 13 51  1  0  0  0
 13 52  1  0  0  0
 14 53  1  0  0  0
 14 54  1  0  0  0
 14 55  1  0  0  0
 15 16  1  0  0  0
 15 56  1  0  0  0
 15 57  1  0  0  0
 16 17  1  0  0  0
 16 18  1  0  0  0
 16 58  1  0  0  0
 17 59  1  0  0  0
 18 19  1  0  0  0
 18 31  1  0  0  0
 18 60  1  0  0  0
 19 20  1  0  0  0
 19 61  1  0  0  0
 20 21  2  0  0  0
 20 22  1  0  0  0
 22 23  1  0  0  0
 23 24  1  0  0  0
 23 30  1  0  0  0
 23 62  1  0  0  0
 24 25  1  0  0  0
 24 63  1  0  0  0
 24 64  1  0  0  0
 25 26  1  0  0  0
 26 27  1  0  0  0
 26 30  1  0  0  0
 26 65  1  0  0  0
 27 28  1  0  0  0
 28 29  1  0  0  0
 28 40  1  0  0  0
 28 66  1  0  0  0
 29 30  1  0  0  0
 29 42  1  0  0  0
 29 67  1  0  0  0
 30 68  1  0  0  0
 31 37  1  0  0  0
 31 69  1  0  0  0
 31 70  1  0  0  0
 32 33  2  0  0  0
 32 37  1  0  0  0
 32 71  1  0  0  0
 33 34  1  0  0  0
 33 72  1  0  0  0
 34 35  2  0  0  0
 34 73  1  0  0  0
 35 36  1  0  0  0
 35 74  1  0  0  0
 36 37  2  0  0  0
 36 75  1  0  0  0
 38 39  1  0  0  0
 39 76  1  0  0  0
 39 77  1  0  0  0
 39 78  1  0  0  0
 40 41  1  0  0  0
 41 42  1  0  0  0
 41 79  1  0  0  0
 41 80  1  0  0  0
 42 81  1  0  0  0
 42 82  1  0  0  0
M  END
> <s_m_source_file>
../3ok9_ligand.sdf

> <i_m_source_file_index>
1

> <s_epik_input>
W0NIM11PYzFbY0hdW2NIXWMoW2NIXVtjSF0xKVMoPU8pKD1PKU4oW0NIMl1bQ0hdKFtDSDNdKVtDSDNdKVtDSDJdW0NAQEhdKFtPSF0pW0NASF0oW0NIMl1jMltjSF1bY0hdW2NIXVtjSF1bY0hdMilbTkhdQyg9TylPW0NAQEhdKFtDSDJdTzMpW0NAQEhdKFtDQEBIXTM0KVtDQEBIXTVbQ0BIXShPNClPW0NIMl1bQ0gyXTU=

> <s_epik_cmdline>
J2VwaWtfYXBwJywgJy1pbWFlJywgJ2xpZ2FuZF9wcm8ubWFlJywgJy1vbWFlJywgJ2xpZ2FuZF9wcmVwLm1hZScsICctbXMnLCAnMScsICctcGgnLCAnNycsICctcGh0JywgJzAuNScsICctbnQn

> <r_lp_tautomer_probability>
1

> <r_epik_Ionization_Penalty>
  0.0000

> <r_epik_Ionization_Penalty_Charging>
  0.0000

> <r_epik_Ionization_Penalty_Neutral>
  0.0000

> <r_epik_State_Penalty>
 -0.0000

> <r_epik_Charging_Adjusted_Penalty>
0

> <i_epik_Tot_Q>
0

> <i_epik_Tot_abs_Q>
0

> <s_epik_Chemistry_Notes>
This compound has an ester and may undergo hydrolysis at high or low pH. This compound contains an acetal/aminal-like group ( X-CH(R)-Y where X, Y are N, S, or O) that may be acid/base labile, releasing an aldehyde.

$$$$
