3oka_ligand
                    3D
 Schrodinger Suite 2020-3.
 40 42  0  0  1  0            999 V2000
   23.7730    9.8250   83.3470 N   0  0  0  0  0  0
   22.4610    9.6460   83.6370 C   0  0  0  0  0  0
   21.5320    9.7430   82.6500 N   0  3  0  0  0  0
   22.0870    9.3730   84.9120 N   0  0  0  0  0  0
   20.7740    9.1890   85.2210 C   0  0  0  0  0  0
   19.8110    9.2840   84.2230 C   0  0  0  0  0  0
   20.2150    9.5660   82.9200 C   0  0  0  0  0  0
   19.3720    9.6570   82.0040 O   0  0  0  0  0  0
   18.6070    9.0610   84.7980 N   0  0  0  0  0  0
   18.8220    8.8340   86.1160 C   0  0  0  0  0  0
   20.1420    8.9130   86.3680 N   0  0  0  0  0  0
   20.8100    8.7350   87.6860 C   0  0  1  0  0  0
   20.4950    9.9020   88.6140 C   0  0  2  0  0  0
   21.4720   10.9420   88.5240 O   0  0  0  0  0  0
   20.4720    9.2710   89.9900 C   0  0  2  0  0  0
   21.7760    9.3180   90.5780 O   0  0  0  0  0  0
   20.0980    7.8180   89.7430 C   0  0  2  0  0  0
   20.3490    7.5540   88.3540 O   0  0  0  0  0  0
   18.6400    7.5690   90.1270 C   0  0  0  0  0  0
   17.9170    6.9480   89.0570 O   0  0  0  0  0  0
   16.8540    6.0040   89.3220 P   0  0  1  0  0  0
   15.7970    6.4560   88.8280 O   0  5  0  0  0  0
   17.1560    4.9290   88.7670 O   0  0  0  0  0  0
   16.6970    5.8170   90.7640 O   0  0  0  0  0  0
   16.0970    4.6700   91.4310 P   0  0  0  0  0  0
   14.9930    4.3850   90.9200 O   0  5  0  0  0  0
   16.8570    3.6820   91.3540 O   0  0  0  0  0  0
   15.8970    4.9750   92.8260 O   0  5  0  0  0  0
   24.0829   10.0466   82.3151 H   0  0  0  0  0  0
   18.0493    8.6213   86.8548 H   0  0  0  0  0  0
   21.8835    8.6131   87.4793 H   0  0  0  0  0  0
   19.5772   10.4502   88.3551 H   0  0  0  0  0  0
   21.6035   11.4930   87.5811 H   0  0  0  0  0  0
   19.8194    9.8017   90.6988 H   0  0  0  0  0  0
   22.2292   10.2870   90.8342 H   0  0  0  0  0  0
   20.7226    7.1132   90.3114 H   0  0  0  0  0  0
   18.5999    6.9081   91.0054 H   0  0  0  0  0  0
   18.1551    8.5269   90.3665 H   0  0  0  0  0  0
   24.5277    9.7486   84.1436 H   0  0  0  0  0  0
   21.8455    9.9671   81.6197 H   0  0  0  0  0  0
  1  2  1  0  0  0
  1 29  1  0  0  0
  1 39  1  0  0  0
  2  3  1  0  0  0
  2  4  2  0  0  0
  3  7  1  0  0  0
  3 40  1  0  0  0
  4  5  1  0  0  0
  5  6  2  0  0  0
  5 11  1  0  0  0
  6  7  1  0  0  0
  6  9  1  0  0  0
  7  8  2  0  0  0
  9 10  2  0  0  0
 10 11  1  0  0  0
 10 30  1  0  0  0
 11 12  1  0  0  0
 12 13  1  0  0  0
 12 18  1  0  0  0
 12 31  1  0  0  0
 13 14  1  0  0  0
 13 15  1  0  0  0
 13 32  1  0  0  0
 14 33  1  0  0  0
 15 16  1  0  0  0
 15 17  1  0  0  0
 15 34  1  0  0  0
 16 35  1  0  0  0
 17 18  1  0  0  0
 17 19  1  0  0  0
 17 36  1  0  0  0
 19 20  1  0  0  0
 19 37  1  0  0  0
 19 38  1  0  0  0
 20 21  1  0  0  0
 21 22  1  0  0  0
 21 23  2  0  0  0
 21 24  1  0  0  0
 24 25  1  0  0  0
 25 26  1  0  0  0
 25 27  2  0  0  0
 25 28  1  0  0  0
M  CHG  4   3   1  22  -1  26  -1  28  -1
M  END
> <s_m_source_file>
../3oka_ligand.sdf

> <i_m_source_file_index>
1

> <s_epik_input>
W0hdL049YyhbbkhdMSlcW25IXWMoPU8pYyhjMTIpbltjSF1uMltDQEhdM1tDQEhdKFtPSF0pW0NASF0oW09IXSlbQ0BIXShPMylbQ0gyXU9bUEBdKD1PKShbT0hdKU9QKD1PKShbT0hdKVtPSF0=

> <s_epik_cmdline>
J2VwaWtfYXBwJywgJy1pbWFlJywgJ2xpZ2FuZF9wcm8ubWFlJywgJy1vbWFlJywgJ2xpZ2FuZF9wcmVwLm1hZScsICctbXMnLCAnMScsICctcGgnLCAnNycsICctcGh0JywgJzAuNScsICctbnQn

> <r_epik_Ionization_Penalty>
  2.4918

> <r_epik_Ionization_Penalty_Charging>
  2.4918

> <r_epik_Ionization_Penalty_Neutral>
  0.0000

> <r_epik_State_Penalty>
  0.1258

> <r_epik_Charging_Adjusted_Penalty>
2.61757522707748

> <i_epik_Tot_Q>
-2

> <i_epik_Tot_abs_Q>
4

> <s_epik_Chemistry_Notes>
This compound has an imine and may undergo hydrolysis. This compound contains an acetal/aminal-like group ( X-CH(R)-Y where X, Y are N, S, or O) that may be acid/base labile, releasing an aldehyde.

$$$$
