3okc_ligand
                    3D
 Schrodinger Suite 2020-3.
 40 42  0  0  1  0            999 V2000
    4.4720    6.0800   26.3160 P   0  0  0  0  0  0
    5.2130    5.3030   25.3300 O   0  5  0  0  0  0
    4.9650    5.9140   27.4490 O   0  0  0  0  0  0
    3.2960    5.6580   26.3400 O   0  5  0  0  0  0
    4.4680    7.4900   25.9540 O   0  0  0  0  0  0
    5.5870    8.4250   26.0470 P   0  0  2  0  0  0
    5.8790    8.6360   27.2460 O   0  0  0  0  0  0
    5.2380    9.5190   25.5310 O   0  5  0  0  0  0
    6.7640    7.9160   25.3600 O   0  0  0  0  0  0
    6.7950    7.7700   23.9380 C   0  0  0  0  0  0
    8.2280    7.8240   23.4180 C   0  0  1  0  0  0
    8.3330    7.0940   22.1820 O   0  0  0  0  0  0
    8.6410    9.2640   23.1390 C   0  0  1  0  0  0
    9.9510    9.5080   23.6610 O   0  0  0  0  0  0
    8.6560    9.3750   21.6280 C   0  0  1  0  0  0
    9.6910   10.2560   21.1840 O   0  0  0  0  0  0
    8.8760    7.9400   21.1580 C   0  0  2  0  0  0
    8.2580    7.7210   19.8200 N   0  0  0  0  0  0
    6.9470    7.6610   19.5200 C   0  0  0  0  0  0
    6.8060    7.4550   18.1870 N   0  0  0  0  0  0
    8.0460    7.3880   17.6510 C   0  0  0  0  0  0
    8.5300    7.1960   16.3580 C   0  0  0  0  0  0
    7.7390    7.0430   15.4020 O   0  0  0  0  0  0
    9.8670    7.1770   16.1390 N   0  3  0  0  0  0
   10.7400    7.3410   17.1650 C   0  0  0  0  0  0
   12.0740    7.3210   16.9320 N   0  0  0  0  0  0
   10.2900    7.5310   18.4280 N   0  0  0  0  0  0
    8.9550    7.5580   18.6880 C   0  0  0  0  0  0
    6.3533    6.8020   23.6591 H   0  0  0  0  0  0
    6.2187    8.5835   23.4732 H   0  0  0  0  0  0
    8.8979    7.3437   24.1464 H   0  0  0  0  0  0
    8.0082   10.0169   23.6317 H   0  0  0  0  0  0
   10.1268    9.4683   24.7461 H   0  0  0  0  0  0
    7.7636    9.8536   21.1984 H   0  0  0  0  0  0
    9.6579   11.3224   21.4516 H   0  0  0  0  0  0
    9.9323    7.6570   21.0387 H   0  0  0  0  0  0
    6.1297    7.7618   20.2341 H   0  0  0  0  0  0
   12.4516    7.1675   15.9103 H   0  0  0  0  0  0
   12.7798    7.4583   17.7644 H   0  0  0  0  0  0
   10.2555    7.0274   15.1208 H   0  0  0  0  0  0
  1  2  1  0  0  0
  1  3  2  0  0  0
  1  4  1  0  0  0
  1  5  1  0  0  0
  5  6  1  0  0  0
  6  7  2  0  0  0
  6  8  1  0  0  0
  6  9  1  0  0  0
  9 10  1  0  0  0
 10 11  1  0  0  0
 10 29  1  0  0  0
 10 30  1  0  0  0
 11 12  1  0  0  0
 11 13  1  0  0  0
 11 31  1  0  0  0
 12 17  1  0  0  0
 13 14  1  0  0  0
 13 15  1  0  0  0
 13 32  1  0  0  0
 14 33  1  0  0  0
 15 16  1  0  0  0
 15 17  1  0  0  0
 15 34  1  0  0  0
 16 35  1  0  0  0
 17 18  1  0  0  0
 17 36  1  0  0  0
 18 19  1  0  0  0
 18 28  1  0  0  0
 19 20  2  0  0  0
 19 37  1  0  0  0
 20 21  1  0  0  0
 21 22  1  0  0  0
 21 28  2  0  0  0
 22 23  2  0  0  0
 22 24  1  0  0  0
 24 25  1  0  0  0
 24 40  1  0  0  0
 25 26  1  0  0  0
 25 27  2  0  0  0
 26 38  1  0  0  0
 26 39  1  0  0  0
 27 28  1  0  0  0
M  CHG  4   2  -1   4  -1   8  -1  24   1
M  END
> <s_m_source_file>
../3okc_ligand.sdf

> <i_m_source_file_index>
1

> <s_epik_input>
W09IXVAoPU8pKFtPSF0pT1tQQF0oPU8pKFtPSF0pT1tDSDJdW0NASF0xT1tDQEhdKFtDQEhdKFtPSF0pW0NAQEhdMVtPSF0pbihbY0hdbjIpYyhjMjMpW25IXWMoPU5cW0hdKVxbbkhdYzM9Tw==

> <s_epik_cmdline>
J2VwaWtfYXBwJywgJy1pbWFlJywgJ2xpZ2FuZF9wcm8ubWFlJywgJy1vbWFlJywgJ2xpZ2FuZF9wcmVwLm1hZScsICctbXMnLCAnMScsICctcGgnLCAnNycsICctcGh0JywgJzAuNScsICctbnQn

> <r_epik_Ionization_Penalty>
  2.4918

> <r_epik_Ionization_Penalty_Charging>
  2.4918

> <r_epik_Ionization_Penalty_Neutral>
  0.0000

> <r_epik_State_Penalty>
  0.1302

> <r_epik_Charging_Adjusted_Penalty>
2.62193179535438

> <i_epik_Tot_Q>
-2

> <i_epik_Tot_abs_Q>
4

> <s_epik_Chemistry_Notes>
This compound has an imine and may undergo hydrolysis. This compound contains an acetal/aminal-like group ( X-CH(R)-Y where X, Y are N, S, or O) that may be acid/base labile, releasing an aldehyde.

$$$$
