3okh_ligand
                    3D
 Schrodinger Suite 2020-3.
 66 70  0  0  1  0            999 V2000
   19.6920   64.2510   11.7340 C   0  0  0  0  0  0
   21.0740   64.5030   11.6130 C   0  0  0  0  0  0
   21.9210   64.4820   12.7150 C   0  0  0  0  0  0
   19.1220   64.0120   12.9750 C   0  0  0  0  0  0
   19.9440   64.0120   14.1130 C   0  0  0  0  0  0
   21.3530   64.2800   13.9710 C   0  0  0  0  0  0
   21.9030   64.1930   15.2530 N   0  0  0  0  0  0
   20.8290   63.9860   16.1400 C   0  0  0  0  0  0
   19.6740   63.7790   15.4620 N   0  0  0  0  0  0
   21.0600   63.7900   17.5880 C   0  0  0  0  0  0
   23.2900   64.2470   15.6100 C   0  0  2  0  0  0
   23.8360   65.6920   15.4950 C   0  0  0  0  0  0
   24.2500   63.3920   14.7620 C   0  0  0  0  0  0
   23.8170   66.2970   14.3980 O   0  0  0  0  0  0
   24.3960   66.2250   16.6230 N   0  0  0  0  0  0
   25.1190   67.4730   16.5390 C   0  0  0  0  0  0
   21.6890   64.8370   10.3170 C   0  0  0  0  0  0
   21.3140   64.0880    9.2580 O   0  5  0  0  0  0
   22.5060   65.7390   10.0440 O   0  0  0  0  0  0
   20.6760   62.5760   18.2170 C   0  0  0  0  0  0
   20.9350   62.3680   19.5830 C   0  0  0  0  0  0
   21.6360   63.3420   20.3240 C   0  0  0  0  0  0
   22.0410   64.5420   19.6930 C   0  0  0  0  0  0
   21.7680   64.7540   18.3330 C   0  0  0  0  0  0
   25.6960   63.8380   15.0630 C   0  0  0  0  0  0
   26.7400   62.9070   14.5010 C   0  0  0  0  0  0
   26.4560   61.4820   14.9060 C   0  0  0  0  0  0
   25.0690   61.0650   14.4360 C   0  0  0  0  0  0
   23.9680   61.9230   15.0450 C   0  0  0  0  0  0
   26.6250   67.3300   16.2240 C   0  0  0  0  0  0
   27.1560   68.7000   15.8620 C   0  0  0  0  0  0
   26.9260   69.7050   16.9850 C   0  0  0  0  0  0
   25.4700   69.7610   17.4220 C   0  0  0  0  0  0
   24.8760   68.4010   17.7370 C   0  0  0  0  0  0
   21.9770   63.0450   21.9840 Cl  0  0  0  0  0  0
   19.0651   64.2440   10.8423 H   0  0  0  0  0  0
   22.9962   64.6193   12.6000 H   0  0  0  0  0  0
   18.0517   63.8269   13.0657 H   0  0  0  0  0  0
   23.1984   63.8346   16.6256 H   0  0  0  0  0  0
   24.0959   63.5189   13.6803 H   0  0  0  0  0  0
   24.2987   65.7097   17.5900 H   0  0  0  0  0  0
   24.6242   67.8973   15.6529 H   0  0  0  0  0  0
   20.1769   61.8000   17.6365 H   0  0  0  0  0  0
   20.5941   61.4541   20.0694 H   0  0  0  0  0  0
   22.5675   65.3053   20.2660 H   0  0  0  0  0  0
   22.1059   65.6706   17.8496 H   0  0  0  0  0  0
   25.8714   64.8323   14.6265 H   0  0  0  0  0  0
   25.8465   63.8838   16.1517 H   0  0  0  0  0  0
   26.7365   62.9722   13.4029 H   0  0  0  0  0  0
   27.7310   63.1944   14.8822 H   0  0  0  0  0  0
   27.2042   60.8157   14.4519 H   0  0  0  0  0  0
   26.5048   61.3955   16.0015 H   0  0  0  0  0  0
   25.0085   61.1607   13.3418 H   0  0  0  0  0  0
   24.8834   60.0196   14.7234 H   0  0  0  0  0  0
   23.9357   61.7587   16.1322 H   0  0  0  0  0  0
   23.0002   61.6436   14.6030 H   0  0  0  0  0  0
   27.1492   66.9398   17.1088 H   0  0  0  0  0  0
   26.7591   66.6348   15.3822 H   0  0  0  0  0  0
   28.2371   68.6352   15.6698 H   0  0  0  0  0  0
   26.6444   69.0648   14.9591 H   0  0  0  0  0  0
   27.5327   69.4240   17.8585 H   0  0  0  0  0  0
   27.2176   70.7093   16.6438 H   0  0  0  0  0  0
   25.3833   70.3750   18.3306 H   0  0  0  0  0  0
   24.8632   70.2058   16.6196 H   0  0  0  0  0  0
   23.7945   68.4959   17.9138 H   0  0  0  0  0  0
   25.3580   67.9792   18.6313 H   0  0  0  0  0  0
  1  2  2  0  0  0
  1  4  1  0  0  0
  1 36  1  0  0  0
  2  3  1  0  0  0
  2 17  1  0  0  0
  3  6  2  0  0  0
  3 37  1  0  0  0
  4  5  2  0  0  0
  4 38  1  0  0  0
  5  6  1  0  0  0
  5  9  1  0  0  0
  6  7  1  0  0  0
  7  8  1  0  0  0
  7 11  1  0  0  0
  8  9  2  0  0  0
  8 10  1  0  0  0
 10 20  2  0  0  0
 10 24  1  0  0  0
 11 12  1  0  0  0
 11 13  1  0  0  0
 11 39  1  0  0  0
 12 14  2  0  0  0
 12 15  1  0  0  0
 13 25  1  0  0  0
 13 29  1  0  0  0
 13 40  1  0  0  0
 15 16  1  0  0  0
 15 41  1  0  0  0
 16 30  1  0  0  0
 16 34  1  0  0  0
 16 42  1  0  0  0
 17 18  1  0  0  0
 17 19  2  0  0  0
 20 21  1  0  0  0
 20 43  1  0  0  0
 21 22  2  0  0  0
 21 44  1  0  0  0
 22 23  1  0  0  0
 22 35  1  0  0  0
 23 24  2  0  0  0
 23 45  1  0  0  0
 24 46  1  0  0  0
 25 26  1  0  0  0
 25 47  1  0  0  0
 25 48  1  0  0  0
 26 27  1  0  0  0
 26 49  1  0  0  0
 26 50  1  0  0  0
 27 28  1  0  0  0
 27 51  1  0  0  0
 27 52  1  0  0  0
 28 29  1  0  0  0
 28 53  1  0  0  0
 28 54  1  0  0  0
 29 55  1  0  0  0
 29 56  1  0  0  0
 30 31  1  0  0  0
 30 57  1  0  0  0
 30 58  1  0  0  0
 31 32  1  0  0  0
 31 59  1  0  0  0
 31 60  1  0  0  0
 32 33  1  0  0  0
 32 61  1  0  0  0
 32 62  1  0  0  0
 33 34  1  0  0  0
 33 63  1  0  0  0
 33 64  1  0  0  0
 34 65  1  0  0  0
 34 66  1  0  0  0
M  CHG  1  18  -1
M  END
> <s_m_source_file>
../3okh_ligand.sdf

> <i_m_source_file_index>
1

> <s_epik_input>
W2NIXTFbY0hdYyhDbClbY0hdW2NIXWMxLWMobjIpbihjKGMyMylbY0hdYyhbY0hdW2NIXTMpQyg9TylbT0hdKVtDQEBIXShbQ0hdNFtDSDJdW0NIMl1bQ0gyXVtDSDJdW0NIMl00KUMoPU8pW05IXVtDSF01W0NIMl1bQ0gyXVtDSDJdW0NIMl1bQ0gyXTU=

> <s_epik_cmdline>
J2VwaWtfYXBwJywgJy1pbWFlJywgJ2xpZ2FuZF9wcm8ubWFlJywgJy1vbWFlJywgJ2xpZ2FuZF9wcmVwLm1hZScsICctbXMnLCAnMScsICctcGgnLCAnNycsICctcGh0JywgJzAuNScsICctbnQn

> <r_epik_Ionization_Penalty>
  0.2941

> <r_epik_Ionization_Penalty_Charging>
  0.0003

> <r_epik_Ionization_Penalty_Neutral>
  0.2938

> <r_epik_State_Penalty>
  0.2869

> <r_epik_Charging_Adjusted_Penalty>
0.28725131021453

> <i_epik_Tot_Q>
-1

> <i_epik_Tot_abs_Q>
1

$$$$
