3oki_ligand
                    3D
 Schrodinger Suite 2020-3.
 64 68  0  0  1  0            999 V2000
   13.6490   24.9950    2.8130 C   0  0  0  0  0  0
   12.8180   24.3330    3.7600 N   0  0  0  0  0  0
   12.9820   25.9140    2.0870 N   0  0  0  0  0  0
   12.5150   21.9900    4.3880 C   0  0  0  0  0  0
   13.2440   23.3330    4.6950 C   0  0  2  0  0  0
   11.5370   24.8890    3.6120 C   0  0  0  0  0  0
   11.6570   25.8850    2.5620 C   0  0  0  0  0  0
   12.5400   21.6090    3.0750 N   0  0  0  0  0  0
   15.0680   24.6570    2.6540 C   0  0  0  0  0  0
   11.9680   21.3130    5.2750 O   0  0  0  0  0  0
   13.0930   23.7080    6.1910 C   0  0  0  0  0  0
   15.4310   23.5830    1.8340 C   0  0  0  0  0  0
   16.0590   25.3850    3.3270 C   0  0  0  0  0  0
   17.7510   23.9630    2.3380 C   0  0  0  0  0  0
   11.8750   20.4420    2.5460 C   0  0  0  0  0  0
   16.7660   23.2320    1.6690 C   0  0  0  0  0  0
   17.4020   25.0390    3.1650 C   0  0  0  0  0  0
   19.3820   23.5320    2.1340 Cl  0  0  0  0  0  0
   10.3130   24.6580    4.2580 C   0  0  0  0  0  0
   10.5280   26.6290    2.1830 C   0  0  0  0  0  0
   13.2280   25.2090    6.4020 C   0  0  0  0  0  0
   14.1360   22.9560    7.0090 C   0  0  0  0  0  0
   12.7620   19.7120    1.5200 C   0  0  0  0  0  0
   10.5540   20.8400    1.8700 C   0  0  0  0  0  0
    9.2230   25.4140    3.8550 C   0  0  0  0  0  0
    9.3310   26.3790    2.8360 C   0  0  0  0  0  0
   14.0580   23.3370    8.4720 C   0  0  0  0  0  0
   13.2550   25.5990    7.8690 C   0  0  0  0  0  0
    9.8540   19.6150    1.3280 C   0  0  0  0  0  0
   12.0570   18.5060    0.9420 C   0  0  0  0  0  0
   14.2880   24.8190    8.6530 C   0  0  0  0  0  0
   10.7420   18.9180    0.3180 C   0  0  0  0  0  0
   14.3235   23.3066    4.4851 H   0  0  0  0  0  0
   13.1179   22.2634    2.4058 H   0  0  0  0  0  0
   12.0900   23.4257    6.5435 H   0  0  0  0  0  0
   14.6573   23.0144    1.3181 H   0  0  0  0  0  0
   15.7824   26.2175    3.9739 H   0  0  0  0  0  0
   11.7008   19.8121    3.4308 H   0  0  0  0  0  0
   17.0410   22.3964    1.0254 H   0  0  0  0  0  0
   18.1776   25.6049    3.6810 H   0  0  0  0  0  0
   10.2225   23.9118    5.0474 H   0  0  0  0  0  0
   10.5910   27.3820    1.3974 H   0  0  0  0  0  0
   14.1644   25.5608    5.9444 H   0  0  0  0  0  0
   12.3755   25.7232    5.9342 H   0  0  0  0  0  0
   13.9632   21.8735    6.9173 H   0  0  0  0  0  0
   15.1412   23.1999    6.6347 H   0  0  0  0  0  0
   13.0119   20.3982    0.6974 H   0  0  0  0  0  0
   13.6873   19.3744    2.0097 H   0  0  0  0  0  0
    9.9000   21.3324    2.6047 H   0  0  0  0  0  0
   10.7606   21.5326    1.0408 H   0  0  0  0  0  0
    8.2590   25.2573    4.3390 H   0  0  0  0  0  0
    8.4456   26.9476    2.5514 H   0  0  0  0  0  0
   13.0626   23.0820    8.8647 H   0  0  0  0  0  0
   14.8264   22.7874    9.0355 H   0  0  0  0  0  0
   13.4955   26.6686    7.9597 H   0  0  0  0  0  0
   12.2697   25.4054    8.3181 H   0  0  0  0  0  0
    9.6325   18.9236    2.1544 H   0  0  0  0  0  0
    8.9153   19.9152    0.8395 H   0  0  0  0  0  0
   12.6920   18.0445    0.1714 H   0  0  0  0  0  0
   11.8627   17.7765    1.7420 H   0  0  0  0  0  0
   14.2044   25.0755    9.7194 H   0  0  0  0  0  0
   15.2930   25.0811    8.2906 H   0  0  0  0  0  0
   10.2335   18.0179   -0.0577 H   0  0  0  0  0  0
   10.9486   19.5994   -0.5205 H   0  0  0  0  0  0
  1  2  1  0  0  0
  1  3  2  0  0  0
  1  9  1  0  0  0
  2  5  1  0  0  0
  2  6  1  0  0  0
  3  7  1  0  0  0
  4  5  1  0  0  0
  4  8  1  0  0  0
  4 10  2  0  0  0
  5 11  1  0  0  0
  5 33  1  0  0  0
  6  7  2  0  0  0
  6 19  1  0  0  0
  7 20  1  0  0  0
  8 15  1  0  0  0
  8 34  1  0  0  0
  9 12  2  0  0  0
  9 13  1  0  0  0
 11 21  1  0  0  0
 11 22  1  0  0  0
 11 35  1  0  0  0
 12 16  1  0  0  0
 12 36  1  0  0  0
 13 17  2  0  0  0
 13 37  1  0  0  0
 14 16  2  0  0  0
 14 17  1  0  0  0
 14 18  1  0  0  0
 15 23  1  0  0  0
 15 24  1  0  0  0
 15 38  1  0  0  0
 16 39  1  0  0  0
 17 40  1  0  0  0
 19 25  2  0  0  0
 19 41  1  0  0  0
 20 26  2  0  0  0
 20 42  1  0  0  0
 21 28  1  0  0  0
 21 43  1  0  0  0
 21 44  1  0  0  0
 22 27  1  0  0  0
 22 45  1  0  0  0
 22 46  1  0  0  0
 23 30  1  0  0  0
 23 47  1  0  0  0
 23 48  1  0  0  0
 24 29  1  0  0  0
 24 49  1  0  0  0
 24 50  1  0  0  0
 25 26  1  0  0  0
 25 51  1  0  0  0
 26 52  1  0  0  0
 27 31  1  0  0  0
 27 53  1  0  0  0
 27 54  1  0  0  0
 28 31  1  0  0  0
 28 55  1  0  0  0
 28 56  1  0  0  0
 29 32  1  0  0  0
 29 57  1  0  0  0
 29 58  1  0  0  0
 30 32  1  0  0  0
 30 59  1  0  0  0
 30 60  1  0  0  0
 31 61  1  0  0  0
 31 62  1  0  0  0
 32 63  1  0  0  0
 32 64  1  0  0  0
M  END
> <s_m_source_file>
../3oki_ligand.sdf

> <i_m_source_file_index>
1

> <s_epik_input>
W2NIXTFbY0hdYyhDbClbY0hdW2NIXWMxLWMobmMoYzIzKVtjSF1bY0hdW2NIXVtjSF0zKW4yW0NAQEhdKFtDSF00W0NIMl1bQ0gyXVtDSDJdW0NIMl1bQ0gyXTQpQyg9TylbTkhdW0NIXTVbQ0gyXVtDSDJdW0NIMl1bQ0gyXVtDSDJdNQ==

> <s_epik_cmdline>
J2VwaWtfYXBwJywgJy1pbWFlJywgJ2xpZ2FuZF9wcm8ubWFlJywgJy1vbWFlJywgJ2xpZ2FuZF9wcmVwLm1hZScsICctbXMnLCAnMScsICctcGgnLCAnNycsICctcGh0JywgJzAuNScsICctbnQn

> <r_epik_Ionization_Penalty>
  0.2607

> <r_epik_Ionization_Penalty_Charging>
  0.0000

> <r_epik_Ionization_Penalty_Neutral>
  0.2607

> <r_epik_State_Penalty>
  0.2524

> <r_epik_Charging_Adjusted_Penalty>
0.252390132580018

> <i_epik_Tot_Q>
0

> <i_epik_Tot_abs_Q>
0

$$$$
