3okp_ligand
                    3D
 Schrodinger Suite 2020-3.
 40 42  0  0  1  0            999 V2000
   11.8370    7.0740   16.7210 N   0  0  0  0  0  0
   10.4970    7.1680   16.9030 C   0  0  0  0  0  0
    9.6630    7.0400   15.8430 N   0  3  0  0  0  0
   10.0030    7.3910   18.1430 N   0  0  0  0  0  0
    8.6620    7.4900   18.3420 C   0  0  0  0  0  0
    7.7940    7.3590   17.2690 C   0  0  0  0  0  0
    8.3200    7.1310   16.0020 C   0  0  0  0  0  0
    7.5640    7.0080   15.0160 O   0  0  0  0  0  0
    6.5400    7.4950   17.7460 N   0  0  0  0  0  0
    6.6290    7.7030   19.0800 C   0  0  0  0  0  0
    7.9230    7.6970   19.4370 N   0  0  0  0  0  0
    8.4810    7.8940   20.8000 C   0  0  1  0  0  0
    8.3080    9.3370   21.2470 C   0  0  2  0  0  0
    9.3640   10.1720   20.7650 O   0  0  0  0  0  0
    8.2970    9.2220   22.7580 C   0  0  2  0  0  0
    9.6240    9.3690   23.2770 O   0  0  0  0  0  0
    7.7840    7.8130   23.0410 C   0  0  2  0  0  0
    7.8250    7.1030   21.7960 O   0  0  0  0  0  0
    6.3550    7.8270   23.5810 C   0  0  0  0  0  0
    6.3480    7.8130   25.0110 O   0  0  0  0  0  0
    5.2290    8.3180   25.7850 P   0  0  1  0  0  0
    5.5670    8.3970   26.9870 O   0  0  0  0  0  0
    4.9060    9.4650   25.3870 O   0  5  0  0  0  0
    4.0730    7.4490   25.6640 O   0  0  0  0  0  0
    4.0820    6.0160   25.9070 P   0  0  0  0  0  0
    4.8450    5.7210   26.8520 O   0  5  0  0  0  0
    2.9220    5.6450   26.1870 O   0  0  0  0  0  0
    4.4980    5.3200   24.7140 O   0  5  0  0  0  0
   12.2441    6.8928   15.7153 H   0  0  0  0  0  0
    5.7864    7.8514   19.7554 H   0  0  0  0  0  0
    9.5246    7.5516   20.7398 H   0  0  0  0  0  0
    7.4331    9.8564   20.8289 H   0  0  0  0  0  0
    9.4835   10.3389   19.6843 H   0  0  0  0  0  0
    7.7229   10.0201   23.2514 H   0  0  0  0  0  0
   10.1559   10.3252   23.1641 H   0  0  0  0  0  0
    8.4256    7.2901   23.7655 H   0  0  0  0  0  0
    5.8410    8.7356   23.2344 H   0  0  0  0  0  0
    5.8166    6.9396   23.2167 H   0  0  0  0  0  0
   12.5173    7.1789   17.5790 H   0  0  0  0  0  0
   10.0738    6.8600   14.8386 H   0  0  0  0  0  0
  1  2  1  0  0  0
  1 29  1  0  0  0
  1 39  1  0  0  0
  2  3  1  0  0  0
  2  4  2  0  0  0
  3  7  1  0  0  0
  3 40  1  0  0  0
  4  5  1  0  0  0
  5  6  2  0  0  0
  5 11  1  0  0  0
  6  7  1  0  0  0
  6  9  1  0  0  0
  7  8  2  0  0  0
  9 10  2  0  0  0
 10 11  1  0  0  0
 10 30  1  0  0  0
 11 12  1  0  0  0
 12 13  1  0  0  0
 12 18  1  0  0  0
 12 31  1  0  0  0
 13 14  1  0  0  0
 13 15  1  0  0  0
 13 32  1  0  0  0
 14 33  1  0  0  0
 15 16  1  0  0  0
 15 17  1  0  0  0
 15 34  1  0  0  0
 16 35  1  0  0  0
 17 18  1  0  0  0
 17 19  1  0  0  0
 17 36  1  0  0  0
 19 20  1  0  0  0
 19 37  1  0  0  0
 19 38  1  0  0  0
 20 21  1  0  0  0
 21 22  2  0  0  0
 21 23  1  0  0  0
 21 24  1  0  0  0
 24 25  1  0  0  0
 25 26  1  0  0  0
 25 27  2  0  0  0
 25 28  1  0  0  0
M  CHG  4   3   1  23  -1  26  -1  28  -1
M  END
> <s_m_source_file>
../3okp_ligand.sdf

> <i_m_source_file_index>
1

> <s_epik_input>
W0hdL049YyhbbkhdMSlcW25IXWMoPU8pYyhjMTIpbltjSF1uMltDQEhdM1tDQEhdKFtPSF0pW0NASF0oW09IXSlbQ0BIXShPMylbQ0gyXU9bUEBAXSg9TykoW09IXSlPUCg9TykoW09IXSlbT0hd

> <s_epik_cmdline>
J2VwaWtfYXBwJywgJy1pbWFlJywgJ2xpZ2FuZF9wcm8ubWFlJywgJy1vbWFlJywgJ2xpZ2FuZF9wcmVwLm1hZScsICctbXMnLCAnMScsICctcGgnLCAnNycsICctcGh0JywgJzAuNScsICctbnQn

> <r_epik_Ionization_Penalty>
  2.4918

> <r_epik_Ionization_Penalty_Charging>
  2.4918

> <r_epik_Ionization_Penalty_Neutral>
  0.0000

> <r_epik_State_Penalty>
  0.1258

> <r_epik_Charging_Adjusted_Penalty>
2.61757522707748

> <i_epik_Tot_Q>
-2

> <i_epik_Tot_abs_Q>
4

> <s_epik_Chemistry_Notes>
This compound has an imine and may undergo hydrolysis. This compound contains an acetal/aminal-like group ( X-CH(R)-Y where X, Y are N, S, or O) that may be acid/base labile, releasing an aldehyde.

$$$$
