3oku_ligand
                    3D
 Schrodinger Suite 2020-3.
 53 56  0  0  1  0            999 V2000
   -6.7240    4.1750   16.4140 C   0  0  0  0  0  0
   -0.2850    8.9990   15.1130 C   0  0  0  0  0  0
   -5.2380   -0.7320   16.1660 N   0  0  0  0  0  0
   -0.4820   11.3020   12.9780 O   0  0  0  0  0  0
   -4.5650    1.4860   17.2250 O   0  0  0  0  0  0
   -6.8030    1.2810   16.2330 O   0  0  0  0  0  0
   -3.0300    2.8160   14.2230 C   0  0  0  0  0  0
   -4.5470    5.1080   14.2470 C   0  0  0  0  0  0
   -6.5800    3.9380   14.9060 C   0  0  0  0  0  0
    1.0360    9.5030   12.2250 C   0  0  0  0  0  0
   -0.9480    3.9950   13.5660 C   0  0  0  0  0  0
    1.0410    8.0560   12.7670 C   0  0  0  0  0  0
   -0.5400    5.2410   12.7690 C   0  0  0  0  0  0
   -3.0080    7.7990   14.4070 C   0  0  0  0  0  0
   -2.4230    9.1140   13.8130 C   0  0  0  0  0  0
   -4.8470    1.3800   14.8310 O   0  0  0  0  0  0
   -0.1720   10.1120   12.9560 C   0  0  0  0  0  0
   -5.1200    3.8690   14.5660 C   0  0  0  0  0  0
   -2.4390    4.0490   13.9100 C   0  0  0  0  0  0
   -4.3710    2.6790   14.5630 C   0  0  0  0  0  0
   -3.1870    5.2270   13.9430 C   0  0  0  0  0  0
   -2.5400    6.5710   13.5700 C   0  0  2  0  0  0
   -0.9870    6.4970   13.5250 C   0  0  2  0  0  0
   -0.4780    7.7990   12.8700 C   0  0  1  0  0  0
   -0.8970    9.0000   13.7150 C   0  0  1  0  0  0
   -5.3660    0.8870   16.1510 S   0  0  0  0  0  0
   -7.7909    4.2276   16.6766 H   0  0  0  0  0  0
   -6.2325    5.1210   16.6850 H   0  0  0  0  0  0
   -6.2519    3.3463   16.9621 H   0  0  0  0  0  0
   -0.6275    9.8875   15.6638 H   0  0  0  0  0  0
    0.8119    9.0174   15.0330 H   0  0  0  0  0  0
   -0.5984    8.0914   15.6498 H   0  0  0  0  0  0
   -5.6124   -1.1205   17.1246 H   0  0  0  0  0  0
   -4.1830   -1.0176   16.0415 H   0  0  0  0  0  0
   -2.4074    1.9216   14.1984 H   0  0  0  0  0  0
   -5.1754    5.9985   14.2356 H   0  0  0  0  0  0
   -7.0715    2.9920   14.6350 H   0  0  0  0  0  0
   -7.0521    4.7666   14.3578 H   0  0  0  0  0  0
    1.9870    9.9934   12.4802 H   0  0  0  0  0  0
    0.9147    9.4847   11.1319 H   0  0  0  0  0  0
   -0.7504    3.0947   12.9656 H   0  0  0  0  0  0
   -0.3658    3.9491   14.4982 H   0  0  0  0  0  0
    1.5570    7.3984   12.0519 H   0  0  0  0  0  0
    1.5645    8.0285   13.7341 H   0  0  0  0  0  0
    0.5530    5.2557   12.6457 H   0  0  0  0  0  0
   -1.0203    5.2170   11.7797 H   0  0  0  0  0  0
   -2.6615    7.6792   15.4441 H   0  0  0  0  0  0
   -4.1069    7.8463   14.3907 H   0  0  0  0  0  0
   -2.8422    9.2815   12.8099 H   0  0  0  0  0  0
   -2.6852    9.9597   14.4658 H   0  0  0  0  0  0
   -2.9227    6.7370   12.5522 H   0  0  0  0  0  0
   -0.5479    6.4087   14.5297 H   0  0  0  0  0  0
   -0.9043    7.6865   11.8622 H   0  0  0  0  0  0
  1  9  1  0  0  0
  1 27  1  0  0  0
  1 28  1  0  0  0
  1 29  1  0  0  0
  2 25  1  0  0  0
  2 30  1  0  0  0
  2 31  1  0  0  0
  2 32  1  0  0  0
  3 26  1  0  0  0
  3 33  1  0  0  0
  3 34  1  0  0  0
  4 17  2  0  0  0
  5 26  2  0  0  0
  6 26  2  0  0  0
  7 19  2  0  0  0
  7 20  1  0  0  0
  7 35  1  0  0  0
  8 18  1  0  0  0
  8 21  2  0  0  0
  8 36  1  0  0  0
  9 18  1  0  0  0
  9 37  1  0  0  0
  9 38  1  0  0  0
 10 12  1  0  0  0
 10 17  1  0  0  0
 10 39  1  0  0  0
 10 40  1  0  0  0
 11 13  1  0  0  0
 11 19  1  0  0  0
 11 41  1  0  0  0
 11 42  1  0  0  0
 12 24  1  0  0  0
 12 43  1  0  0  0
 12 44  1  0  0  0
 13 23  1  0  0  0
 13 45  1  0  0  0
 13 46  1  0  0  0
 14 15  1  0  0  0
 14 22  1  0  0  0
 14 47  1  0  0  0
 14 48  1  0  0  0
 15 25  1  0  0  0
 15 49  1  0  0  0
 15 50  1  0  0  0
 16 20  1  0  0  0
 16 26  1  0  0  0
 17 25  1  0  0  0
 18 20  2  0  0  0
 19 21  1  0  0  0
 21 22  1  0  0  0
 22 23  1  0  0  0
 22 51  1  0  0  0
 23 24  1  0  0  0
 23 52  1  0  0  0
 24 25  1  0  0  0
 24 53  1  0  0  0
M  END
> <s_m_source_file>
../3oku_ligand.sdf

> <i_m_source_file_index>
1

> <s_epik_input>
W0NIM11bQ0gyXWMoW2NIXTEpYyhPUyg9TykoPU8pW05IMl0pW2NIXWMoW0NIMl1bQ0gyXTIpYzFbQ0BASF0oW0NIMl1bQ0gyXTMpW0NAQEhdMltDQEBIXShbQ0BdMzRbQ0gzXSlbQ0gyXVtDSDJdQzQ9Tw==

> <s_epik_cmdline>
J2VwaWtfYXBwJywgJy1pbWFlJywgJ2xpZ2FuZF9wcm8ubWFlJywgJy1vbWFlJywgJ2xpZ2FuZF9wcmVwLm1hZScsICctbXMnLCAnMScsICctcGgnLCAnNycsICctcGh0JywgJzAuNScsICctbnQn

> <r_lp_tautomer_probability>
0.99995

> <r_epik_Ionization_Penalty>
  0.0198

> <r_epik_Ionization_Penalty_Charging>
  0.0000

> <r_epik_Ionization_Penalty_Neutral>
  0.0198

> <r_epik_State_Penalty>
  0.0158

> <r_epik_Charging_Adjusted_Penalty>
0.015816498950318

> <i_epik_Tot_Q>
0

> <i_epik_Tot_abs_Q>
0

$$$$
