3okv_ligand
                    3D
 Schrodinger Suite 2020-3.
 53 56  0  0  1  0            999 V2000
   -5.2380    5.8260   15.0670 C   0  0  0  0  0  0
   -1.2650    4.9030   10.2280 C   0  0  0  0  0  0
   -5.4230   -0.3350   16.4610 N   0  0  0  0  0  0
   -1.2530    5.0900    6.9310 O   0  0  0  0  0  0
   -5.4680    1.2950   18.3910 O   0  0  0  0  0  0
   -7.1130    1.6020   16.6270 O   0  0  0  0  0  0
   -4.0990    1.2730   14.2150 C   0  0  0  0  0  0
   -5.0260    3.5870   12.9930 C   0  0  0  0  0  0
   -5.9500    4.4720   15.1510 C   0  0  0  0  0  0
   -0.1020    3.1340    7.8800 C   0  0  0  0  0  0
   -3.1590    0.3170   12.1470 C   0  0  0  0  0  0
   -0.5010    2.3540    9.1530 C   0  0  0  0  0  0
   -2.5880    0.7560   10.8010 C   0  0  0  0  0  0
   -4.1630    4.2820   10.3470 C   0  0  0  0  0  0
   -3.4600    4.6200    9.0060 C   0  0  0  0  0  0
   -4.8710    2.0370   16.3160 O   0  0  0  0  0  0
   -1.1430    4.2610    7.8320 C   0  0  0  0  0  0
   -5.2030    3.4020   14.3680 C   0  0  0  0  0  0
   -3.8940    1.4600   12.8530 C   0  0  0  0  0  0
   -4.7770    2.2170   14.9520 C   0  0  0  0  0  0
   -4.3650    2.6170   12.2390 C   0  0  0  0  0  0
   -4.0750    2.7930   10.7490 C   0  0  2  0  0  0
   -2.6330    2.2690   10.6100 C   0  0  2  0  0  0
   -1.9950    2.6630    9.2790 C   0  0  1  0  0  0
   -2.0030    4.1600    9.0970 C   0  0  1  0  0  0
   -5.7530    1.1560   16.9260 S   0  0  0  0  0  0
   -5.8034    6.5739   15.6423 H   0  0  0  0  0  0
   -5.1756    6.1428   14.0155 H   0  0  0  0  0  0
   -4.2239    5.7334   15.4829 H   0  0  0  0  0  0
   -1.3041    5.9864   10.0415 H   0  0  0  0  0  0
   -0.2158    4.5739   10.2593 H   0  0  0  0  0  0
   -1.7484    4.6789   11.1903 H   0  0  0  0  0  0
   -6.1222   -1.0331   16.9446 H   0  0  0  0  0  0
   -4.3925   -0.5894   16.7495 H   0  0  0  0  0  0
   -3.7208    0.3741   14.7018 H   0  0  0  0  0  0
   -5.4042    4.4884   12.5108 H   0  0  0  0  0  0
   -6.0124    4.1552   16.2025 H   0  0  0  0  0  0
   -6.9641    4.5646   14.7351 H   0  0  0  0  0  0
    0.9261    3.5100    7.9875 H   0  0  0  0  0  0
   -0.1588    2.4661    7.0078 H   0  0  0  0  0  0
   -3.8705   -0.5075   11.9921 H   0  0  0  0  0  0
   -2.3409   -0.0224   12.7993 H   0  0  0  0  0  0
   -0.2983    1.2830    9.0054 H   0  0  0  0  0  0
    0.0842    2.7235   10.0080 H   0  0  0  0  0  0
   -1.5378    0.4373   10.7268 H   0  0  0  0  0  0
   -3.1692    0.2956    9.9884 H   0  0  0  0  0  0
   -3.7026    4.8638   11.1592 H   0  0  0  0  0  0
   -5.2312    4.5347   10.2749 H   0  0  0  0  0  0
   -3.9695    4.0975    8.1830 H   0  0  0  0  0  0
   -3.5025    5.7055    8.8331 H   0  0  0  0  0  0
   -4.7933    2.2604   10.1084 H   0  0  0  0  0  0
   -2.0324    2.7399   11.4022 H   0  0  0  0  0  0
   -2.5976    2.0988    8.5520 H   0  0  0  0  0  0
  1  9  1  0  0  0
  1 27  1  0  0  0
  1 28  1  0  0  0
  1 29  1  0  0  0
  2 25  1  0  0  0
  2 30  1  0  0  0
  2 31  1  0  0  0
  2 32  1  0  0  0
  3 26  1  0  0  0
  3 33  1  0  0  0
  3 34  1  0  0  0
  4 17  2  0  0  0
  5 26  2  0  0  0
  6 26  2  0  0  0
  7 19  2  0  0  0
  7 20  1  0  0  0
  7 35  1  0  0  0
  8 18  1  0  0  0
  8 21  2  0  0  0
  8 36  1  0  0  0
  9 18  1  0  0  0
  9 37  1  0  0  0
  9 38  1  0  0  0
 10 12  1  0  0  0
 10 17  1  0  0  0
 10 39  1  0  0  0
 10 40  1  0  0  0
 11 13  1  0  0  0
 11 19  1  0  0  0
 11 41  1  0  0  0
 11 42  1  0  0  0
 12 24  1  0  0  0
 12 43  1  0  0  0
 12 44  1  0  0  0
 13 23  1  0  0  0
 13 45  1  0  0  0
 13 46  1  0  0  0
 14 15  1  0  0  0
 14 22  1  0  0  0
 14 47  1  0  0  0
 14 48  1  0  0  0
 15 25  1  0  0  0
 15 49  1  0  0  0
 15 50  1  0  0  0
 16 20  1  0  0  0
 16 26  1  0  0  0
 17 25  1  0  0  0
 18 20  2  0  0  0
 19 21  1  0  0  0
 21 22  1  0  0  0
 22 23  1  0  0  0
 22 51  1  0  0  0
 23 24  1  0  0  0
 23 52  1  0  0  0
 24 25  1  0  0  0
 24 53  1  0  0  0
M  END
> <s_m_source_file>
../3okv_ligand.sdf

> <i_m_source_file_index>
1

> <s_epik_input>
W0NIM11bQ0gyXWMoW2NIXTEpYyhPUyg9TykoPU8pW05IMl0pW2NIXWMoW0NIMl1bQ0gyXTIpYzFbQ0BASF0oW0NIMl1bQ0gyXTMpW0NAQEhdMltDQEBIXShbQ0BdMzRbQ0gzXSlbQ0gyXVtDSDJdQzQ9Tw==

> <s_epik_cmdline>
J2VwaWtfYXBwJywgJy1pbWFlJywgJ2xpZ2FuZF9wcm8ubWFlJywgJy1vbWFlJywgJ2xpZ2FuZF9wcmVwLm1hZScsICctbXMnLCAnMScsICctcGgnLCAnNycsICctcGh0JywgJzAuNScsICctbnQn

> <r_lp_tautomer_probability>
0.99995

> <r_epik_Ionization_Penalty>
  0.0198

> <r_epik_Ionization_Penalty_Charging>
  0.0000

> <r_epik_Ionization_Penalty_Neutral>
  0.0198

> <r_epik_State_Penalty>
  0.0158

> <r_epik_Charging_Adjusted_Penalty>
0.015816498950318

> <i_epik_Tot_Q>
0

> <i_epik_Tot_abs_Q>
0

$$$$
