3old_ligand
                    3D
 Schrodinger Suite 2020-3.
130135  0  0  1  0            999 V2000
   15.8690  -19.1300  -28.5520 C   0  0  2  0  0  0
   15.4630  -19.1880  -30.0120 C   0  0  1  0  0  0
   14.8560  -20.5520  -30.3360 C   0  0  2  0  0  0
   15.7780  -21.6670  -29.8450 C   0  0  1  0  0  0
   16.0920  -21.4890  -28.3630 C   0  0  1  0  0  0
   17.0110  -22.5370  -27.7990 C   0  0  0  0  0  0
   14.5250  -18.1650  -30.2690 O   0  0  0  0  0  0
   14.6930  -20.6650  -31.7340 O   0  0  0  0  0  0
   15.1530  -22.9210  -30.0490 O   0  0  0  0  0  0
   16.7130  -20.2180  -28.1790 O   0  0  0  0  0  0
   17.9960  -22.8820  -28.7550 O   0  0  0  0  0  0
   13.6310  -16.2360  -24.9020 C   0  0  2  0  0  0
   13.1140  -16.0620  -26.3140 C   0  0  1  0  0  0
   13.2270  -17.3300  -27.1540 C   0  0  2  0  0  0
   14.6100  -17.8980  -27.0030 C   0  0  1  0  0  0
   14.9460  -18.1510  -25.5330 C   0  0  1  0  0  0
   16.2880  -18.8360  -25.3040 C   0  0  0  0  0  0
   11.7590  -15.6510  -26.2770 O   0  0  0  0  0  0
   12.9550  -17.0780  -28.5170 O   0  0  0  0  0  0
   14.7360  -19.1130  -27.7530 O   0  0  0  0  0  0
   14.9230  -16.8850  -24.8260 O   0  0  0  0  0  0
   17.3490  -18.1470  -25.9100 O   0  0  0  0  0  0
   10.2100  -16.4850  -21.2740 C   0  0  3  0  0  0
   11.0920  -15.2570  -21.1570 C   0  0  1  0  0  0
   11.7930  -15.2330  -22.5030 C   0  0  2  0  0  0
   12.6210  -16.5250  -22.6690 C   0  0  1  0  0  0
   12.1660  -17.7570  -21.8520 C   0  0  0  0  0  0
   13.0860  -18.9890  -21.8400 C   0  0  0  0  0  0
   10.9720  -17.7940  -21.1540 C   0  0  0  0  0  0
    8.7550  -16.4280  -21.5640 N   0  3  0  0  0  0
   10.4270  -14.1020  -20.6140 O   0  0  0  0  0  0
   12.5600  -14.0400  -22.6870 O   0  0  0  0  0  0
   12.6380  -16.8360  -24.0570 O   0  0  0  0  0  0
   13.9270  -18.9390  -20.6870 O   0  0  0  0  0  0
    6.5200  -19.2690  -23.8420 C   0  0  2  0  0  0
    5.6230  -20.0020  -21.7310 O   0  0  0  0  0  0
    6.8250  -19.5690  -22.3710 C   0  0  2  0  0  0
    7.3410  -18.3360  -21.6210 C   0  0  1  0  0  0
    7.7990  -18.6970  -20.3120 O   0  0  0  0  0  0
    8.4330  -17.5970  -22.3740 C   0  0  1  0  0  0
    7.8350  -17.2640  -23.7450 C   0  0  2  0  0  0
    7.5960  -18.5110  -24.4190 O   0  0  0  0  0  0
    8.6650  -16.3430  -24.6370 C   0  0  0  0  0  0
    1.5510  -19.4150  -25.8950 C   0  0  2  0  0  0
    1.7090  -19.9500  -24.4780 C   0  0  1  0  0  0
    2.9780  -19.3460  -23.7420 C   0  0  2  0  0  0
    4.2430  -19.3680  -24.6470 C   0  0  1  0  0  0
    3.8030  -18.6730  -25.9550 C   0  0  1  0  0  0
    4.8500  -18.4280  -26.9960 C   0  0  0  0  0  0
    0.5730  -19.7770  -23.6630 O   0  0  0  0  0  0
    3.1900  -20.0530  -22.5330 O   0  0  0  0  0  0
    5.2730  -18.5820  -24.0220 O   0  0  0  0  0  0
    2.7480  -19.4340  -26.6000 O   0  0  0  0  0  0
    5.6300  -19.5740  -27.1760 O   0  0  0  0  0  0
   -2.3990  -16.7330  -27.7930 C   0  0  1  0  0  0
   -2.5620  -17.5220  -26.4780 C   0  0  1  0  0  0
   -1.2600  -17.4760  -25.7110 C   0  0  2  0  0  0
   -0.1720  -18.0310  -26.5850 C   0  0  1  0  0  0
   -0.0500  -17.2400  -27.9120 C   0  0  1  0  0  0
    0.9880  -17.7950  -28.8720 C   0  0  0  0  0  0
   -2.0890  -15.4080  -27.5180 O   0  0  0  0  0  0
   -3.5520  -16.9170  -25.6720 O   0  0  0  0  0  0
   -1.3450  -18.2560  -24.5280 O   0  0  0  0  0  0
    1.0620  -18.1150  -25.8800 O   0  0  0  0  0  0
   -1.3340  -17.2860  -28.5930 O   0  0  0  0  0  0
    2.2510  -17.1930  -28.6300 O   0  0  0  0  0  0
   16.4325  -18.2146  -28.3185 H   0  0  0  0  0  0
   16.3175  -18.9757  -30.6714 H   0  0  0  0  0  0
   13.8485  -20.6523  -29.9060 H   0  0  0  0  0  0
   16.7049  -21.6963  -30.4366 H   0  0  0  0  0  0
   15.1487  -21.5236  -27.7982 H   0  0  0  0  0  0
   17.5037  -22.1455  -26.8968 H   0  0  0  0  0  0
   16.4291  -23.4336  -27.5392 H   0  0  0  0  0  0
   14.7949  -17.1137  -30.0903 H   0  0  0  0  0  0
   14.0590  -19.9461  -32.2737 H   0  0  0  0  0  0
   14.8513  -23.2269  -31.0616 H   0  0  0  0  0  0
   18.7571  -23.6381  -28.5122 H   0  0  0  0  0  0
   13.8305  -15.2520  -24.4526 H   0  0  0  0  0  0
   13.6837  -15.2518  -26.7926 H   0  0  0  0  0  0
   12.4585  -18.0631  -26.8676 H   0  0  0  0  0  0
   15.3296  -17.1948  -27.4476 H   0  0  0  0  0  0
   14.1711  -18.8085  -25.1120 H   0  0  0  0  0  0
   16.4915  -18.8922  -24.2244 H   0  0  0  0  0  0
   16.2577  -19.8519  -25.7248 H   0  0  0  0  0  0
   11.4730  -14.7490  -25.7161 H   0  0  0  0  0  0
   11.9829  -16.6585  -28.8154 H   0  0  0  0  0  0
   18.3757  -18.5323  -25.8236 H   0  0  0  0  0  0
    9.1587  -16.3515  -20.9792 H   0  0  0  0  0  0
   11.8360  -15.2139  -20.3479 H   0  0  0  0  0  0
   11.0613  -15.1323  -23.3182 H   0  0  0  0  0  0
   13.6505  -16.3209  -22.3397 H   0  0  0  0  0  0
   12.4746  -19.9029  -21.8104 H   0  0  0  0  0  0
   13.7064  -18.9922  -22.7484 H   0  0  0  0  0  0
   10.6843  -18.7022  -20.6042 H   0  0  0  0  0  0
    8.1919  -16.4439  -20.6192 H   0  0  0  0  0  0
    8.5263  -15.5018  -22.1116 H   0  0  0  0  0  0
    9.9309  -14.1630  -19.6341 H   0  0  0  0  0  0
   12.0775  -13.0560  -22.5932 H   0  0  0  0  0  0
   14.6583  -19.7402  -20.5045 H   0  0  0  0  0  0
    6.4113  -20.1978  -24.4212 H   0  0  0  0  0  0
    5.0825  -20.8808  -22.1126 H   0  0  0  0  0  0
    7.5602  -20.3850  -22.3109 H   0  0  0  0  0  0
    6.5020  -17.6422  -21.4636 H   0  0  0  0  0  0
    7.1325  -19.2412  -19.6268 H   0  0  0  0  0  0
    9.3865  -18.1288  -22.5078 H   0  0  0  0  0  0
    6.8826  -16.7362  -23.5888 H   0  0  0  0  0  0
    8.8441  -15.3912  -24.1154 H   0  0  0  0  0  0
    8.1206  -16.1512  -25.5734 H   0  0  0  0  0  0
    9.6281  -16.8233  -24.8646 H   0  0  0  0  0  0
    0.8478  -20.0208  -26.4853 H   0  0  0  0  0  0
    1.7298  -21.0441  -24.5897 H   0  0  0  0  0  0
    2.8165  -18.3109  -23.4066 H   0  0  0  0  0  0
    4.6896  -20.3625  -24.7939 H   0  0  0  0  0  0
    3.4484  -17.6790  -25.6447 H   0  0  0  0  0  0
    4.3658  -18.1689  -27.9491 H   0  0  0  0  0  0
    5.4978  -17.5984  -26.6764 H   0  0  0  0  0  0
   -0.4093  -20.1345  -24.0055 H   0  0  0  0  0  0
    2.3828  -20.1250  -21.7892 H   0  0  0  0  0  0
    6.4513  -19.5710  -27.9078 H   0  0  0  0  0  0
   -3.3205  -16.7201  -28.3936 H   0  0  0  0  0  0
   -2.9017  -18.5518  -26.6625 H   0  0  0  0  0  0
   -1.0386  -16.4533  -25.3718 H   0  0  0  0  0  0
   -0.3963  -19.0870  -26.7959 H   0  0  0  0  0  0
    0.2247  -16.2010  -27.6776 H   0  0  0  0  0  0
    1.0743  -18.8824  -28.7301 H   0  0  0  0  0  0
    0.6806  -17.5835  -29.9068 H   0  0  0  0  0  0
   -2.7759  -14.7962  -26.9148 H   0  0  0  0  0  0
   -4.5870  -16.8406  -26.0366 H   0  0  0  0  0  0
   -2.0881  -18.0059  -23.7565 H   0  0  0  0  0  0
    3.1222  -17.4793  -29.2375 H   0  0  0  0  0  0
  1  2  1  0  0  0
  1 10  1  0  0  0
  1 20  1  0  0  0
  1 67  1  0  0  0
  2  3  1  0  0  0
  2  7  1  0  0  0
  2 68  1  0  0  0
  3  4  1  0  0  0
  3  8  1  0  0  0
  3 69  1  0  0  0
  4  5  1  0  0  0
  4  9  1  0  0  0
  4 70  1  0  0  0
  5  6  1  0  0  0
  5 10  1  0  0  0
  5 71  1  0  0  0
  6 11  1  0  0  0
  6 72  1  0  0  0
  6 73  1  0  0  0
  7 74  1  0  0  0
  8 75  1  0  0  0
  9 76  1  0  0  0
 11 77  1  0  0  0
 12 13  1  0  0  0
 12 21  1  0  0  0
 12 33  1  0  0  0
 12 78  1  0  0  0
 13 14  1  0  0  0
 13 18  1  0  0  0
 13 79  1  0  0  0
 14 15  1  0  0  0
 14 19  1  0  0  0
 14 80  1  0  0  0
 15 16  1  0  0  0
 15 20  1  0  0  0
 15 81  1  0  0  0
 16 17  1  0  0  0
 16 21  1  0  0  0
 16 82  1  0  0  0
 17 22  1  0  0  0
 17 83  1  0  0  0
 17 84  1  0  0  0
 18 85  1  0  0  0
 19 86  1  0  0  0
 22 87  1  0  0  0
 23 24  1  0  0  0
 23 29  1  0  0  0
 23 30  1  0  0  0
 23 88  1  0  0  0
 24 25  1  0  0  0
 24 31  1  0  0  0
 24 89  1  0  0  0
 25 26  1  0  0  0
 25 32  1  0  0  0
 25 90  1  0  0  0
 26 27  1  0  0  0
 26 33  1  0  0  0
 26 91  1  0  0  0
 27 28  1  0  0  0
 27 29  2  0  0  0
 28 34  1  0  0  0
 28 92  1  0  0  0
 28 93  1  0  0  0
 29 94  1  0  0  0
 30 40  1  0  0  0
 30 95  1  0  0  0
 30 96  1  0  0  0
 31 97  1  0  0  0
 32 98  1  0  0  0
 34 99  1  0  0  0
 35 37  1  0  0  0
 35 42  1  0  0  0
 35 52  1  0  0  0
 35100  1  0  0  0
 36 37  1  0  0  0
 36101  1  0  0  0
 37 38  1  0  0  0
 37102  1  0  0  0
 38 39  1  0  0  0
 38 40  1  0  0  0
 38103  1  0  0  0
 39104  1  0  0  0
 40 41  1  0  0  0
 40105  1  0  0  0
 41 42  1  0  0  0
 41 43  1  0  0  0
 41106  1  0  0  0
 43107  1  0  0  0
 43108  1  0  0  0
 43109  1  0  0  0
 44 45  1  0  0  0
 44 53  1  0  0  0
 44 64  1  0  0  0
 44110  1  0  0  0
 45 46  1  0  0  0
 45 50  1  0  0  0
 45111  1  0  0  0
 46 47  1  0  0  0
 46 51  1  0  0  0
 46112  1  0  0  0
 47 48  1  0  0  0
 47 52  1  0  0  0
 47113  1  0  0  0
 48 49  1  0  0  0
 48 53  1  0  0  0
 48114  1  0  0  0
 49 54  1  0  0  0
 49115  1  0  0  0
 49116  1  0  0  0
 50117  1  0  0  0
 51118  1  0  0  0
 54119  1  0  0  0
 55 56  1  0  0  0
 55 61  1  0  0  0
 55 65  1  0  0  0
 55120  1  0  0  0
 56 57  1  0  0  0
 56 62  1  0  0  0
 56121  1  0  0  0
 57 58  1  0  0  0
 57 63  1  0  0  0
 57122  1  0  0  0
 58 59  1  0  0  0
 58 64  1  0  0  0
 58123  1  0  0  0
 59 60  1  0  0  0
 59 65  1  0  0  0
 59124  1  0  0  0
 60 66  1  0  0  0
 60125  1  0  0  0
 60126  1  0  0  0
 61127  1  0  0  0
 62128  1  0  0  0
 63129  1  0  0  0
 66130  1  0  0  0
M  CHG  1  30   1
M  END
> <s_m_source_file>
../3old_ligand.sdf

> <i_m_source_file_index>
1

> <s_epik_input>
W09IXVtDSDJdW0NAQEhdKE8xKVtDQEBIXShbT0hdKVtDQEhdKFtPSF0pW0NAQEhdKFtPSF0pW0NASF0xT1tDQEhdKFtDQEhdKE8yKVtDSDJdW09IXSlbQ0BIXShbT0hdKVtDQEBIXShbT0hdKVtDQEhdMk9bQ0BIXShDKD1bQ0hdMylbQ0gyXVtPSF0pW0NASF0oW09IXSlbQ0BASF0oW09IXSlbQ0hdM1tOSDIrXVtDQEhdKFtDQEhdKE80KVtDSDNdKVtDQEhdKFtPSF0pW0NAQEhdKFtPSF0pW0NASF00T1tDQEhdKFtDQEhdKE81KVtDSDJdW09IXSlbQ0BIXShbT0hdKVtDQEBIXShbT0hdKVtDQEhdNU9bQ0BIXShbQ0BIXShPNilbQ0gyXVtPSF0pW0NASF0oW09IXSlbQ0BASF0oW09IXSlbQ0BIXTZbT0hd

> <s_epik_cmdline>
J2VwaWtfYXBwJywgJy1pbWFlJywgJ2xpZ2FuZF9wcm8ubWFlJywgJy1vbWFlJywgJ2xpZ2FuZF9wcmVwLm1hZScsICctbXMnLCAnMScsICctcGgnLCAnNycsICctcGh0JywgJzAuNScsICctbnQn

> <r_epik_Ionization_Penalty>
  0.1167

> <r_epik_Ionization_Penalty_Charging>
  0.1166

> <r_epik_Ionization_Penalty_Neutral>
  0.0001

> <r_epik_State_Penalty>
  0.1063

> <r_epik_Charging_Adjusted_Penalty>
0.222906648275155

> <i_epik_Tot_Q>
1

> <i_epik_Tot_abs_Q>
1

> <s_epik_Chemistry_Notes>
This compound contains an acetal/aminal-like group ( X-CH(R)-Y where X, Y are N, S, or O) that may be acid/base labile, releasing an aldehyde.

$$$$
