3ole_ligand
                    3D
 Schrodinger Suite 2020-3.
152158  0  0  1  0            999 V2000
   15.5080  -23.8490  -31.0090 C   0  0  1  0  0  0
   14.4640  -24.8290  -31.5130 C   0  0  1  0  0  0
   15.0790  -26.2070  -31.3020 C   0  0  2  0  0  0
   16.3080  -26.3420  -32.2080 C   0  0  1  0  0  0
   17.1060  -25.0450  -32.4600 C   0  0  0  0  0  0
   18.3190  -25.1300  -33.3950 C   0  0  0  0  0  0
   16.7270  -23.8190  -31.9360 C   0  0  0  0  0  0
   15.0380  -22.7610  -30.1470 N   0  3  0  0  0  0
   13.1900  -24.5230  -30.9390 O   0  0  0  0  0  0
   14.0910  -27.2210  -31.5010 O   0  0  0  0  0  0
   17.1580  -27.3680  -31.6950 O   0  0  0  0  0  0
   19.2300  -24.0330  -33.2890 O   0  0  0  0  0  0
   15.8550  -19.0600  -28.5940 C   0  0  2  0  0  0
   14.4490  -18.1460  -30.3510 O   0  0  0  0  0  0
   15.4670  -19.1120  -30.0750 C   0  0  2  0  0  0
   14.9150  -20.4920  -30.4230 C   0  0  1  0  0  0
   14.6330  -20.6130  -31.8190 O   0  0  0  0  0  0
   15.8830  -21.5940  -30.0010 C   0  0  1  0  0  0
   16.2200  -21.4020  -28.5190 C   0  0  2  0  0  0
   16.7870  -20.1060  -28.2730 O   0  0  0  0  0  0
   17.1750  -22.4840  -28.0120 C   0  0  0  0  0  0
   13.5960  -16.2490  -24.8620 C   0  0  2  0  0  0
   13.0690  -16.0710  -26.2870 C   0  0  1  0  0  0
   13.1700  -17.3660  -27.0980 C   0  0  2  0  0  0
   14.5770  -17.9310  -26.9800 C   0  0  1  0  0  0
   14.8510  -18.1860  -25.5000 C   0  0  1  0  0  0
   16.1870  -18.8550  -25.2530 C   0  0  0  0  0  0
   11.7130  -15.6400  -26.2400 O   0  0  0  0  0  0
   12.8840  -17.0950  -28.4610 O   0  0  0  0  0  0
   14.7070  -19.1300  -27.7420 O   0  0  0  0  0  0
   14.8590  -16.9250  -24.7960 O   0  0  0  0  0  0
   17.2550  -18.0480  -25.7210 O   0  0  0  0  0  0
   10.1500  -16.4920  -21.4240 C   0  0  1  0  0  0
   11.0440  -15.2950  -21.1750 C   0  0  1  0  0  0
   11.8430  -15.2600  -22.4760 C   0  0  2  0  0  0
   12.6580  -16.5510  -22.6280 C   0  0  1  0  0  0
   12.1670  -17.7650  -21.8190 C   0  0  0  0  0  0
   13.0580  -19.0040  -21.6970 C   0  0  0  0  0  0
   10.9120  -17.7950  -21.2290 C   0  0  0  0  0  0
    8.6820  -16.4620  -21.5180 N   0  3  0  0  0  0
   10.3510  -14.1530  -20.6630 O   0  0  0  0  0  0
   12.6200  -14.0750  -22.6410 O   0  0  0  0  0  0
   12.6250  -16.8700  -24.0180 O   0  0  0  0  0  0
   14.0330  -18.8740  -20.6580 O   0  0  0  0  0  0
    6.4420  -19.1320  -23.8470 C   0  0  2  0  0  0
    5.6090  -19.9990  -21.7440 O   0  0  0  0  0  0
    6.7850  -19.5280  -22.4060 C   0  0  2  0  0  0
    7.2690  -18.3170  -21.6150 C   0  0  1  0  0  0
    7.7690  -18.6860  -20.3270 O   0  0  0  0  0  0
    8.3550  -17.5770  -22.3820 C   0  0  1  0  0  0
    7.8310  -17.1850  -23.7650 C   0  0  2  0  0  0
    7.5090  -18.3950  -24.4720 O   0  0  0  0  0  0
    8.8540  -16.4100  -24.6010 C   0  0  0  0  0  0
    1.6430  -19.4780  -26.0110 C   0  0  2  0  0  0
    1.8240  -20.0340  -24.5740 C   0  0  1  0  0  0
    2.8930  -19.2550  -23.8360 C   0  0  2  0  0  0
    4.1970  -19.1710  -24.6410 C   0  0  1  0  0  0
    3.8960  -18.5630  -26.0180 C   0  0  1  0  0  0
    5.1330  -18.5330  -26.9130 C   0  0  0  0  0  0
    0.5820  -19.8990  -23.8740 O   0  0  0  0  0  0
    3.1590  -19.8800  -22.5780 O   0  0  0  0  0  0
    5.2010  -18.4220  -23.9390 O   0  0  0  0  0  0
    2.9260  -19.3810  -26.7120 O   0  0  0  0  0  0
    5.5170  -19.8580  -27.2930 O   0  0  0  0  0  0
   -2.4140  -16.7750  -27.8020 C   0  0  1  0  0  0
   -2.5460  -17.5560  -26.4820 C   0  0  1  0  0  0
   -1.2230  -17.5270  -25.7220 C   0  0  2  0  0  0
   -0.1630  -18.1050  -26.6460 C   0  0  1  0  0  0
   -0.0610  -17.2540  -27.9160 C   0  0  1  0  0  0
    0.9920  -17.7840  -28.8780 C   0  0  0  0  0  0
   -2.1380  -15.4480  -27.5210 O   0  0  0  0  0  0
   -3.5750  -16.9890  -25.6880 O   0  0  0  0  0  0
   -1.3350  -18.3200  -24.5480 O   0  0  0  0  0  0
    1.1000  -18.2220  -25.9680 O   0  0  0  0  0  0
   -1.3290  -17.2920  -28.6030 O   0  0  0  0  0  0
    2.2590  -17.2020  -28.6220 O   0  0  0  0  0  0
   16.0030  -24.0805  -30.0543 H   0  0  0  0  0  0
   14.1499  -24.7539  -32.5645 H   0  0  0  0  0  0
   15.3756  -26.3886  -30.2584 H   0  0  0  0  0  0
   15.9547  -26.6843  -33.1919 H   0  0  0  0  0  0
   18.8911  -26.0425  -33.1713 H   0  0  0  0  0  0
   17.9755  -25.1595  -34.4396 H   0  0  0  0  0  0
   17.2922  -22.9116  -32.1953 H   0  0  0  0  0  0
   14.0826  -22.3749  -30.5319 H   0  0  0  0  0  0
   14.8951  -23.1393  -29.1240 H   0  0  0  0  0  0
   12.7434  -23.5291  -31.0895 H   0  0  0  0  0  0
   13.1691  -27.2160  -30.9009 H   0  0  0  0  0  0
   16.7435  -28.3597  -31.4609 H   0  0  0  0  0  0
   20.1311  -24.0036  -33.9191 H   0  0  0  0  0  0
   16.3470  -18.1087  -28.3431 H   0  0  0  0  0  0
   14.6402  -17.0781  -30.1690 H   0  0  0  0  0  0
   16.3314  -18.8473  -30.7017 H   0  0  0  0  0  0
   13.9396  -20.6157  -29.9298 H   0  0  0  0  0  0
   13.9501  -19.9012  -32.3059 H   0  0  0  0  0  0
   16.8157  -21.6743  -30.5786 H   0  0  0  0  0  0
   15.2832  -21.4194  -27.9427 H   0  0  0  0  0  0
   16.7389  -23.4760  -28.2013 H   0  0  0  0  0  0
   17.3357  -22.3542  -26.9316 H   0  0  0  0  0  0
   18.1371  -22.3998  -28.5385 H   0  0  0  0  0  0
   13.8021  -15.2675  -24.4103 H   0  0  0  0  0  0
   13.6279  -15.2710  -26.7945 H   0  0  0  0  0  0
   12.4188  -18.1032  -26.7784 H   0  0  0  0  0  0
   15.3283  -17.2651  -27.4295 H   0  0  0  0  0  0
   14.0468  -18.8226  -25.1024 H   0  0  0  0  0  0
   16.3190  -19.0229  -24.1739 H   0  0  0  0  0  0
   16.2171  -19.8198  -25.7806 H   0  0  0  0  0  0
   11.4465  -14.7210  -25.6973 H   0  0  0  0  0  0
   11.9064  -16.6788  -28.7456 H   0  0  0  0  0  0
   18.2936  -18.3946  -25.6150 H   0  0  0  0  0  0
    9.6388  -16.2853  -22.3758 H   0  0  0  0  0  0
   11.7090  -15.2781  -20.2990 H   0  0  0  0  0  0
   11.1570  -15.1380  -23.3272 H   0  0  0  0  0  0
   13.6904  -16.3644  -22.2972 H   0  0  0  0  0  0
   12.4356  -19.8824  -21.4709 H   0  0  0  0  0  0
   13.5915  -19.1668  -22.6451 H   0  0  0  0  0  0
   10.5759  -18.6970  -20.6967 H   0  0  0  0  0  0
    8.2479  -16.5782  -20.5140 H   0  0  0  0  0  0
    8.3616  -15.5011  -21.9470 H   0  0  0  0  0  0
    9.7885  -14.2278  -19.7207 H   0  0  0  0  0  0
   12.1427  -13.0878  -22.5539 H   0  0  0  0  0  0
   14.7400  -19.6935  -20.4615 H   0  0  0  0  0  0
    6.2976  -20.0300  -24.4656 H   0  0  0  0  0  0
    5.0722  -20.8762  -22.1342 H   0  0  0  0  0  0
    7.5258  -20.3411  -22.4146 H   0  0  0  0  0  0
    6.4103  -17.6625  -21.4046 H   0  0  0  0  0  0
    7.1246  -19.2328  -19.6228 H   0  0  0  0  0  0
    9.2864  -18.1338  -22.5620 H   0  0  0  0  0  0
    6.9246  -16.5731  -23.6466 H   0  0  0  0  0  0
    9.1195  -15.4768  -24.0827 H   0  0  0  0  0  0
    8.4204  -16.1731  -25.5838 H   0  0  0  0  0  0
    9.7568  -17.0236  -24.7368 H   0  0  0  0  0  0
    0.9423  -20.0844  -26.6037 H   0  0  0  0  0  0
    2.0815  -21.1034  -24.5747 H   0  0  0  0  0  0
    2.5104  -18.2469  -23.6183 H   0  0  0  0  0  0
    4.6646  -20.1615  -24.7422 H   0  0  0  0  0  0
    3.4855  -17.5540  -25.8648 H   0  0  0  0  0  0
    4.9142  -17.9528  -27.8216 H   0  0  0  0  0  0
    5.9669  -18.0639  -26.3703 H   0  0  0  0  0  0
   -0.3217  -20.3962  -24.2563 H   0  0  0  0  0  0
    2.3433  -20.0313  -21.8557 H   0  0  0  0  0  0
    6.3929  -20.0125  -27.9402 H   0  0  0  0  0  0
   -3.3357  -16.7967  -28.4020 H   0  0  0  0  0  0
   -2.8669  -18.5933  -26.6583 H   0  0  0  0  0  0
   -0.9545  -16.5247  -25.3569 H   0  0  0  0  0  0
   -0.4048  -19.1453  -26.9092 H   0  0  0  0  0  0
    0.1711  -16.2152  -27.6385 H   0  0  0  0  0  0
    1.0772  -18.8747  -28.7637 H   0  0  0  0  0  0
    0.6983  -17.5454  -29.9109 H   0  0  0  0  0  0
   -2.8410  -14.8560  -26.9166 H   0  0  0  0  0  0
   -4.6011  -16.9273  -26.0796 H   0  0  0  0  0  0
   -2.0584  -18.0458  -23.7660 H   0  0  0  0  0  0
    3.1277  -17.4836  -29.2353 H   0  0  0  0  0  0
  1  2  1  0  0  0
  1  7  1  0  0  0
  1  8  1  0  0  0
  1 77  1  0  0  0
  2  3  1  0  0  0
  2  9  1  0  0  0
  2 78  1  0  0  0
  3  4  1  0  0  0
  3 10  1  0  0  0
  3 79  1  0  0  0
  4  5  1  0  0  0
  4 11  1  0  0  0
  4 80  1  0  0  0
  5  6  1  0  0  0
  5  7  2  0  0  0
  6 12  1  0  0  0
  6 81  1  0  0  0
  6 82  1  0  0  0
  7 83  1  0  0  0
  8 18  1  0  0  0
  8 84  1  0  0  0
  8 85  1  0  0  0
  9 86  1  0  0  0
 10 87  1  0  0  0
 11 88  1  0  0  0
 12 89  1  0  0  0
 13 15  1  0  0  0
 13 20  1  0  0  0
 13 30  1  0  0  0
 13 90  1  0  0  0
 14 15  1  0  0  0
 14 91  1  0  0  0
 15 16  1  0  0  0
 15 92  1  0  0  0
 16 17  1  0  0  0
 16 18  1  0  0  0
 16 93  1  0  0  0
 17 94  1  0  0  0
 18 19  1  0  0  0
 18 95  1  0  0  0
 19 20  1  0  0  0
 19 21  1  0  0  0
 19 96  1  0  0  0
 21 97  1  0  0  0
 21 98  1  0  0  0
 21 99  1  0  0  0
 22 23  1  0  0  0
 22 31  1  0  0  0
 22 43  1  0  0  0
 22100  1  0  0  0
 23 24  1  0  0  0
 23 28  1  0  0  0
 23101  1  0  0  0
 24 25  1  0  0  0
 24 29  1  0  0  0
 24102  1  0  0  0
 25 26  1  0  0  0
 25 30  1  0  0  0
 25103  1  0  0  0
 26 27  1  0  0  0
 26 31  1  0  0  0
 26104  1  0  0  0
 27 32  1  0  0  0
 27105  1  0  0  0
 27106  1  0  0  0
 28107  1  0  0  0
 29108  1  0  0  0
 32109  1  0  0  0
 33 34  1  0  0  0
 33 39  1  0  0  0
 33 40  1  0  0  0
 33110  1  0  0  0
 34 35  1  0  0  0
 34 41  1  0  0  0
 34111  1  0  0  0
 35 36  1  0  0  0
 35 42  1  0  0  0
 35112  1  0  0  0
 36 37  1  0  0  0
 36 43  1  0  0  0
 36113  1  0  0  0
 37 38  1  0  0  0
 37 39  2  0  0  0
 38 44  1  0  0  0
 38114  1  0  0  0
 38115  1  0  0  0
 39116  1  0  0  0
 40 50  1  0  0  0
 40117  1  0  0  0
 40118  1  0  0  0
 41119  1  0  0  0
 42120  1  0  0  0
 44121  1  0  0  0
 45 47  1  0  0  0
 45 52  1  0  0  0
 45 62  1  0  0  0
 45122  1  0  0  0
 46 47  1  0  0  0
 46123  1  0  0  0
 47 48  1  0  0  0
 47124  1  0  0  0
 48 49  1  0  0  0
 48 50  1  0  0  0
 48125  1  0  0  0
 49126  1  0  0  0
 50 51  1  0  0  0
 50127  1  0  0  0
 51 52  1  0  0  0
 51 53  1  0  0  0
 51128  1  0  0  0
 53129  1  0  0  0
 53130  1  0  0  0
 53131  1  0  0  0
 54 55  1  0  0  0
 54 63  1  0  0  0
 54 74  1  0  0  0
 54132  1  0  0  0
 55 56  1  0  0  0
 55 60  1  0  0  0
 55133  1  0  0  0
 56 57  1  0  0  0
 56 61  1  0  0  0
 56134  1  0  0  0
 57 58  1  0  0  0
 57 62  1  0  0  0
 57135  1  0  0  0
 58 59  1  0  0  0
 58 63  1  0  0  0
 58136  1  0  0  0
 59 64  1  0  0  0
 59137  1  0  0  0
 59138  1  0  0  0
 60139  1  0  0  0
 61140  1  0  0  0
 64141  1  0  0  0
 65 66  1  0  0  0
 65 71  1  0  0  0
 65 75  1  0  0  0
 65142  1  0  0  0
 66 67  1  0  0  0
 66 72  1  0  0  0
 66143  1  0  0  0
 67 68  1  0  0  0
 67 73  1  0  0  0
 67144  1  0  0  0
 68 69  1  0  0  0
 68 74  1  0  0  0
 68145  1  0  0  0
 69 70  1  0  0  0
 69 75  1  0  0  0
 69146  1  0  0  0
 70 76  1  0  0  0
 70147  1  0  0  0
 70148  1  0  0  0
 71149  1  0  0  0
 72150  1  0  0  0
 73151  1  0  0  0
 76152  1  0  0  0
M  CHG  2   8   1  40   1
M  END
> <s_m_source_file>
../3ole_ligand.sdf

> <i_m_source_file_index>
1

> <s_epik_input>
W09IXVtDSDJdQyg9W0NIXTEpW0NAQEhdKFtPSF0pW0NASF0oW09IXSlbQ0BASF0oW09IXSlbQ0BASF0xW05IMitdW0NASF0oW0NASF0oTzIpW0NIM10pW0NASF0oW09IXSlbQ0BASF0oW09IXSlbQ0BIXTJPW0NASF0oW0NASF0oTzMpW0NIMl1bT0hdKVtDQEhdKFtPSF0pW0NAQEhdKFtPSF0pW0NASF0zT1tDQEhdKEMoPVtDSF00KVtDSDJdW09IXSlbQ0BIXShbT0hdKVtDQEBIXShbT0hdKVtDQEBIXTRbTkgyK11bQ0BIXShbQ0BIXShPNSlbQ0gzXSlbQ0BIXShbT0hdKVtDQEBIXShbT0hdKVtDQEhdNU9bQ0BIXShbQ0BIXShPNilbQ0gyXVtPSF0pW0NASF0oW09IXSlbQ0BASF0oW09IXSlbQ0BIXTZPW0NASF0oW0NASF0oTzcpW0NIMl1bT0hdKVtDQEhdKFtPSF0pW0NAQEhdKFtPSF0pW0NASF03W09IXQ==

> <s_epik_cmdline>
J2VwaWtfYXBwJywgJy1pbWFlJywgJ2xpZ2FuZF9wcm8ubWFlJywgJy1vbWFlJywgJ2xpZ2FuZF9wcmVwLm1hZScsICctbXMnLCAnMScsICctcGgnLCAnNycsICctcGh0JywgJzAuNScsICctbnQn

> <s_epik_pKa_notes>
Molecule size exceeds maximum supported for generating protonation states

> <s_epik_Chemistry_Notes>
This compound contains an acetal/aminal-like group ( X-CH(R)-Y where X, Y are N, S, or O) that may be acid/base labile, releasing an aldehyde.

$$$$
