3olf_ligand
                    3D
 Schrodinger Suite 2020-3.
 63 67  0  0  1  0            999 V2000
   12.9230   24.3670    3.4290 N   0  0  0  0  0  0
   13.7900   25.0590    2.6300 C   0  0  0  0  0  0
   13.1910   26.0640    2.0560 N   0  0  0  0  0  0
   11.7050   24.9700    3.3190 C   0  0  0  0  0  0
   11.8950   26.0530    2.4330 C   0  0  0  0  0  0
   12.3470   22.0100    3.8910 C   0  0  0  0  0  0
   13.2630   23.1670    4.2090 C   0  0  2  0  0  0
   10.4640   24.6980    3.8690 C   0  0  0  0  0  0
   11.9950   21.8630    2.5860 N   0  0  0  0  0  0
   10.8110   26.8770    2.1230 C   0  0  0  0  0  0
    9.4090   25.5340    3.5580 C   0  0  0  0  0  0
   11.1630   20.8480    2.0970 C   0  0  0  0  0  0
    8.5610   17.8150    0.5560 C   0  0  0  0  0  0
   15.1950   24.6850    2.4710 C   0  0  0  0  0  0
    9.5880   26.5960    2.6900 C   0  0  0  0  0  0
    9.4560   18.8690    1.0970 C   0  0  0  0  0  0
   10.7970   18.5690    1.3860 C   0  0  0  0  0  0
   11.6600   19.5590    1.8620 C   0  0  0  0  0  0
   11.9280   21.2550    4.7520 O   0  0  0  0  0  0
    7.4490   18.0720    0.1490 O   0  0  0  0  0  0
    9.8230   21.1500    1.8070 C   0  0  0  0  0  0
    8.9800   20.1680    1.3160 C   0  0  0  0  0  0
   13.7030   23.4560    5.6570 C   0  0  0  0  0  0
   16.1930   25.4720    3.0540 C   0  0  0  0  0  0
   15.5260   23.4990    1.8030 C   0  0  0  0  0  0
    8.1920   25.3390    4.1000 F   0  0  0  0  0  0
    8.5280   27.3520    2.4190 F   0  0  0  0  0  0
    8.9820   16.5380    0.5130 O   0  5  0  0  0  0
   17.8530   23.9350    2.2420 C   0  0  0  0  0  0
   17.5150   25.0980    2.9190 C   0  0  0  0  0  0
   16.8550   23.1240    1.6980 C   0  0  0  0  0  0
   19.5310   23.4810    2.1060 Cl  0  0  0  0  0  0
   13.1080   19.2060    2.1710 C   0  0  0  0  0  0
   13.6490   24.9290    6.0680 C   0  0  0  0  0  0
   13.1480   22.5420    6.7450 C   0  0  0  0  0  0
   13.9190   22.7440    8.0570 C   0  0  0  0  0  0
   14.4600   25.1350    7.3620 C   0  0  0  0  0  0
   13.9590   24.2160    8.4780 C   0  0  0  0  0  0
   14.2099   22.7817    3.8029 H   0  0  0  0  0  0
   10.3226   23.8443    4.5318 H   0  0  0  0  0  0
   12.3699   22.5709    1.8321 H   0  0  0  0  0  0
   10.9303   27.7238    1.4472 H   0  0  0  0  0  0
   11.1678   17.5548    1.2376 H   0  0  0  0  0  0
    9.4457   22.1597    1.9688 H   0  0  0  0  0  0
    7.9391   20.4071    1.0984 H   0  0  0  0  0  0
   14.7671   23.1821    5.6053 H   0  0  0  0  0  0
   15.9297   26.3720    3.6096 H   0  0  0  0  0  0
   14.7436   22.8762    1.3693 H   0  0  0  0  0  0
   18.2996   25.7214    3.3477 H   0  0  0  0  0  0
   17.1217   22.1966    1.1912 H   0  0  0  0  0  0
   13.6346   20.1016    2.5323 H   0  0  0  0  0  0
   13.5979   18.8358    1.2584 H   0  0  0  0  0  0
   13.1378   18.4256    2.9456 H   0  0  0  0  0  0
   14.0763   25.5492    5.2663 H   0  0  0  0  0  0
   12.6034   25.2232    6.2414 H   0  0  0  0  0  0
   12.0863   22.7753    6.9135 H   0  0  0  0  0  0
   13.2472   21.4932    6.4286 H   0  0  0  0  0  0
   13.4331   22.1702    8.8599 H   0  0  0  0  0  0
   14.9544   22.3944    7.9314 H   0  0  0  0  0  0
   15.5196   24.9103    7.1703 H   0  0  0  0  0  0
   14.3609   26.1788    7.6946 H   0  0  0  0  0  0
   12.9472   24.5451    8.7571 H   0  0  0  0  0  0
   14.6332   24.3329    9.3393 H   0  0  0  0  0  0
  1  2  1  0  0  0
  1  4  1  0  0  0
  1  7  1  0  0  0
  2  3  2  0  0  0
  2 14  1  0  0  0
  3  5  1  0  0  0
  4  5  2  0  0  0
  4  8  1  0  0  0
  5 10  1  0  0  0
  6  7  1  0  0  0
  6  9  1  0  0  0
  6 19  2  0  0  0
  7 23  1  0  0  0
  7 39  1  0  0  0
  8 11  2  0  0  0
  8 40  1  0  0  0
  9 12  1  0  0  0
  9 41  1  0  0  0
 10 15  2  0  0  0
 10 42  1  0  0  0
 11 15  1  0  0  0
 11 26  1  0  0  0
 12 18  2  0  0  0
 12 21  1  0  0  0
 13 16  1  0  0  0
 13 20  2  0  0  0
 13 28  1  0  0  0
 14 24  2  0  0  0
 14 25  1  0  0  0
 15 27  1  0  0  0
 16 17  2  0  0  0
 16 22  1  0  0  0
 17 18  1  0  0  0
 17 43  1  0  0  0
 18 33  1  0  0  0
 21 22  2  0  0  0
 21 44  1  0  0  0
 22 45  1  0  0  0
 23 34  1  0  0  0
 23 35  1  0  0  0
 23 46  1  0  0  0
 24 30  1  0  0  0
 24 47  1  0  0  0
 25 31  2  0  0  0
 25 48  1  0  0  0
 29 30  2  0  0  0
 29 31  1  0  0  0
 29 32  1  0  0  0
 30 49  1  0  0  0
 31 50  1  0  0  0
 33 51  1  0  0  0
 33 52  1  0  0  0
 33 53  1  0  0  0
 34 37  1  0  0  0
 34 54  1  0  0  0
 34 55  1  0  0  0
 35 36  1  0  0  0
 35 56  1  0  0  0
 35 57  1  0  0  0
 36 38  1  0  0  0
 36 58  1  0  0  0
 36 59  1  0  0  0
 37 38  1  0  0  0
 37 60  1  0  0  0
 37 61  1  0  0  0
 38 62  1  0  0  0
 38 63  1  0  0  0
M  CHG  1  28  -1
M  END
> <s_m_source_file>
../3olf_ligand.sdf

> <i_m_source_file_index>
1

> <s_epik_input>
W2NIXTFjKEYpYyhGKVtjSF1jKGMxMiluYygtYzNbY0hdW2NIXWMoQ2wpW2NIXVtjSF0zKW4yW0NAQEhdKFtDSF00W0NIMl1bQ0gyXVtDSDJdW0NIMl1bQ0gyXTQpQyg9TylbTkhdYzVjKFtDSDNdKVtjSF1jKEMoPU8pW09IXSlbY0hdW2NIXTU=

> <s_epik_cmdline>
J2VwaWtfYXBwJywgJy1pbWFlJywgJ2xpZ2FuZF9wcm8ubWFlJywgJy1vbWFlJywgJ2xpZ2FuZF9wcmVwLm1hZScsICctbXMnLCAnMScsICctcGgnLCAnNycsICctcGh0JywgJzAuNScsICctbnQn

> <r_epik_Ionization_Penalty>
  0.1405

> <r_epik_Ionization_Penalty_Charging>
  0.0010

> <r_epik_Ionization_Penalty_Neutral>
  0.1395

> <r_epik_State_Penalty>
  0.1288

> <r_epik_Charging_Adjusted_Penalty>
0.129858062339705

> <i_epik_Tot_Q>
-1

> <i_epik_Tot_abs_Q>
1

$$$$
