3olg_ligand
                    3D
 Schrodinger Suite 2020-3.
152158  0  0  1  0            999 V2000
   -3.7590    0.4700   23.7530 N   0  3  0  0  0  0
   -3.1730    1.7890   24.0330 C   0  0  2  0  0  0
   -2.1140    1.9560   25.1090 C   0  0  0  0  0  0
   -1.4260    3.1680   25.1500 C   0  0  0  0  0  0
   -0.3660    3.3630   26.2310 C   0  0  0  0  0  0
    0.8560    3.9980   25.8370 O   0  0  0  0  0  0
   -1.7840    4.4230   24.3560 C   0  0  1  0  0  0
   -0.5380    4.8610   23.8170 O   0  0  0  0  0  0
   -2.8920    4.1680   23.3240 C   0  0  2  0  0  0
   -3.5980    5.3310   22.8730 O   0  0  0  0  0  0
   -3.8440    3.1480   23.9270 C   0  0  1  0  0  0
   -5.2360    3.0590   23.6050 O   0  0  0  0  0  0
   -1.6860   -3.1480   23.8850 C   0  0  2  0  0  0
   -2.6060   -3.6990   26.0070 O   0  0  0  0  0  0
   -2.0520   -2.6110   25.2690 C   0  0  2  0  0  0
   -3.0760   -1.4790   25.1990 C   0  0  1  0  0  0
   -2.9240   -0.7930   26.4470 O   0  0  0  0  0  0
   -2.7490   -0.5210   24.0560 C   0  0  1  0  0  0
   -2.0570   -1.0920   22.8020 C   0  0  2  0  0  0
   -1.0710   -2.0560   23.1900 O   0  0  0  0  0  0
   -1.2490    0.0400   22.1760 C   0  0  0  0  0  0
   -3.8300   -7.4690   22.0230 C   0  0  2  0  0  0
   -4.2800   -7.0100   23.4200 C   0  0  1  0  0  0
   -4.3120   -5.4860   23.5470 C   0  0  2  0  0  0
   -2.9710   -4.9430   23.0730 C   0  0  1  0  0  0
   -2.7820   -5.3530   21.5930 C   0  0  1  0  0  0
   -1.5400   -4.7820   20.9200 C   0  0  0  0  0  0
   -5.5740   -7.5250   23.6780 O   0  0  0  0  0  0
   -4.5200   -5.1410   24.9100 O   0  0  0  0  0  0
   -2.8980   -3.5310   23.2300 O   0  0  0  0  0  0
   -2.6660   -6.7920   21.5280 O   0  0  0  0  0  0
   -0.3680   -5.1170   21.6490 O   0  0  0  0  0  0
   -9.0610   -9.2370   19.2060 N   0  3  0  0  0  0
   -7.6010   -9.0880   19.1810 C   0  0  2  0  0  0
   -6.9680   -7.9470   18.3900 C   0  0  0  0  0  0
   -5.6930   -7.5980   18.8210 C   0  0  0  0  0  0
   -4.9830   -6.4590   18.0900 C   0  0  0  0  0  0
   -3.8770   -6.9760   17.3460 O   0  0  0  0  0  0
   -4.9800   -8.2950   19.9910 C   0  0  1  0  0  0
   -4.9210   -7.3990   21.1040 O   0  0  0  0  0  0
   -5.6290   -9.5960   20.4870 C   0  0  2  0  0  0
   -4.6690  -10.5620   20.9200 O   0  0  0  0  0  0
   -6.5730  -10.1820   19.4390 C   0  0  1  0  0  0
   -7.1650  -11.4680   19.6500 O   0  0  0  0  0  0
  -11.3670   -5.8580   20.3000 C   0  0  2  0  0  0
  -12.4130   -5.8600   18.1170 O   0  0  0  0  0  0
  -11.1850   -6.1210   18.8030 C   0  0  2  0  0  0
  -10.7620   -7.5690   18.5480 C   0  0  1  0  0  0
  -10.3630   -7.7360   17.1850 O   0  0  0  0  0  0
   -9.5790   -7.9050   19.4540 C   0  0  1  0  0  0
   -9.8910   -7.6190   20.9250 C   0  0  2  0  0  0
  -10.1880   -6.2180   21.0380 O   0  0  0  0  0  0
   -8.6810   -7.9250   21.8090 C   0  0  0  0  0  0
  -16.1270   -5.0130   22.3380 C   0  0  2  0  0  0
  -16.0500   -5.2680   20.8190 C   0  0  1  0  0  0
  -14.8480   -6.1440   20.4180 C   0  0  2  0  0  0
  -13.5670   -5.6760   21.1060 C   0  0  1  0  0  0
  -13.8300   -5.6350   22.6100 C   0  0  1  0  0  0
  -12.6250   -5.2790   23.4520 C   0  0  0  0  0  0
  -17.2510   -5.9080   20.4020 O   0  0  0  0  0  0
  -14.6710   -6.0820   19.0130 O   0  0  0  0  0  0
  -12.4970   -6.5690   20.8130 O   0  0  0  0  0  0
  -14.8480   -4.6590   22.8890 O   0  0  0  0  0  0
  -12.1830   -3.9630   23.1720 O   0  0  0  0  0  0
  -19.7690   -7.2680   24.6000 C   0  0  2  0  0  0
  -18.7980   -6.9830   23.4630 C   0  0  2  0  0  0
  -17.7020   -5.9720   23.8810 C   0  0  1  0  0  0
  -17.1710   -6.1530   25.3370 C   0  0  1  0  0  0
  -16.6400   -4.8510   25.9050 C   0  0  0  0  0  0
  -18.9160   -7.7340   25.7630 C   0  0  2  0  0  0
  -19.7000   -8.2540   26.7810 O   0  0  0  0  0  0
  -20.7020   -8.2750   24.2310 O   0  0  0  0  0  0
  -19.5050   -6.4920   22.3320 O   0  0  0  0  0  0
  -16.5870   -6.1400   22.9860 O   0  0  0  0  0  0
  -18.1980   -6.6030   26.2550 O   0  0  0  0  0  0
  -15.4550   -5.0640   26.6560 O   0  0  0  0  0  0
   -4.6475    0.3220   24.3844 H   0  0  0  0  0  0
   -4.0489    0.4150   22.6933 H   0  0  0  0  0  0
   -2.8815    1.4842   23.0171 H   0  0  0  0  0  0
   -1.8810    1.1664   25.8385 H   0  0  0  0  0  0
   -0.7763    3.9872   27.0385 H   0  0  0  0  0  0
   -0.0724    2.3840   26.6376 H   0  0  0  0  0  0
    1.6534    4.1631   26.5766 H   0  0  0  0  0  0
   -2.1699    5.2570   24.9605 H   0  0  0  0  0  0
    0.3094    5.0666   24.4875 H   0  0  0  0  0  0
   -2.4487    3.8472   22.3697 H   0  0  0  0  0  0
   -3.0476    6.1637   22.4107 H   0  0  0  0  0  0
   -4.1108    3.6423   24.8728 H   0  0  0  0  0  0
   -5.8633    2.2924   24.0834 H   0  0  0  0  0  0
   -1.0135   -4.0181   23.8613 H   0  0  0  0  0  0
   -2.0151   -4.6130   26.1664 H   0  0  0  0  0  0
   -1.1582   -2.2474   25.7970 H   0  0  0  0  0  0
   -4.1110   -1.8316   25.0785 H   0  0  0  0  0  0
   -3.1169   -1.3215   27.3922 H   0  0  0  0  0  0
   -1.9913    0.1110   24.5423 H   0  0  0  0  0  0
   -2.7824   -1.5784   22.1332 H   0  0  0  0  0  0
   -1.9307    0.8368   21.8437 H   0  0  0  0  0  0
   -0.6865   -0.3450   21.3127 H   0  0  0  0  0  0
   -0.5471    0.4445   22.9201 H   0  0  0  0  0  0
   -3.5018   -8.5188   22.0378 H   0  0  0  0  0  0
   -3.6141   -7.4281   24.1893 H   0  0  0  0  0  0
   -5.1493   -5.0289   22.9993 H   0  0  0  0  0  0
   -2.1511   -5.2918   23.7181 H   0  0  0  0  0  0
   -3.6637   -5.0076   21.0333 H   0  0  0  0  0  0
   -1.4527   -5.1921   19.9031 H   0  0  0  0  0  0
   -1.6223   -3.6863   20.8676 H   0  0  0  0  0  0
   -5.7532   -8.6094   23.6342 H   0  0  0  0  0  0
   -5.4425   -5.4528   25.4217 H   0  0  0  0  0  0
    0.6164   -4.7784   21.2935 H   0  0  0  0  0  0
   -9.4061   -9.6298   18.2382 H   0  0  0  0  0  0
   -9.3447   -9.9352   20.0072 H   0  0  0  0  0  0
   -7.9988   -8.8861   20.1865 H   0  0  0  0  0  0
   -7.4293   -7.4117   17.5470 H   0  0  0  0  0  0
   -5.6876   -5.9697   17.4014 H   0  0  0  0  0  0
   -4.6170   -5.7248   18.8228 H   0  0  0  0  0  0
   -3.2465   -6.2963   16.7540 H   0  0  0  0  0  0
   -3.9603   -8.5235   19.6475 H   0  0  0  0  0  0
   -6.1836   -9.3867   21.4136 H   0  0  0  0  0  0
   -3.9173  -10.2900   21.6756 H   0  0  0  0  0  0
   -5.9877  -10.5231   18.5723 H   0  0  0  0  0  0
   -7.8450  -11.8909   18.8958 H   0  0  0  0  0  0
  -11.5517   -4.7916   20.4967 H   0  0  0  0  0  0
  -12.8782   -4.8653   18.1812 H   0  0  0  0  0  0
  -10.4423   -5.4257   18.3846 H   0  0  0  0  0  0
  -11.6069   -8.2579   18.6952 H   0  0  0  0  0  0
  -11.0802   -7.5407   16.3741 H   0  0  0  0  0  0
   -8.7183   -7.2795   19.1747 H   0  0  0  0  0  0
  -10.7645   -8.1959   21.2630 H   0  0  0  0  0  0
   -8.4358   -8.9949   21.7373 H   0  0  0  0  0  0
   -8.9165   -7.6719   22.8533 H   0  0  0  0  0  0
   -7.8205   -7.3282   21.4722 H   0  0  0  0  0  0
  -16.8306   -4.2057   22.5893 H   0  0  0  0  0  0
  -15.9921   -4.3079   20.2853 H   0  0  0  0  0  0
  -15.0404   -7.2007   20.6555 H   0  0  0  0  0  0
  -13.2187   -4.7060   20.7217 H   0  0  0  0  0  0
  -14.1786   -6.6352   22.9067 H   0  0  0  0  0  0
  -12.8903   -5.3434   24.5176 H   0  0  0  0  0  0
  -11.8059   -5.9805   23.2351 H   0  0  0  0  0  0
  -18.2239   -5.4342   20.5996 H   0  0  0  0  0  0
  -15.4894   -6.3814   18.3418 H   0  0  0  0  0  0
  -11.3125   -3.5505   23.7031 H   0  0  0  0  0  0
  -20.4121   -6.4106   24.8476 H   0  0  0  0  0  0
  -18.3453   -7.9297   23.1332 H   0  0  0  0  0  0
  -18.1125   -4.9570   23.7743 H   0  0  0  0  0  0
  -16.3956   -6.9329   25.3144 H   0  0  0  0  0  0
  -16.4137   -4.1572   25.0820 H   0  0  0  0  0  0
  -17.3976   -4.4027   26.5647 H   0  0  0  0  0  0
  -18.2225   -8.5467   25.5011 H   0  0  0  0  0  0
  -20.3310   -9.1353   26.5937 H   0  0  0  0  0  0
  -21.4013   -8.0991   23.4003 H   0  0  0  0  0  0
  -20.3238   -7.0832   21.8960 H   0  0  0  0  0  0
  -14.9466   -4.2138   27.1342 H   0  0  0  0  0  0
  1  2  1  0  0  0
  1 18  1  0  0  0
  1 77  1  0  0  0
  1 78  1  0  0  0
  2  3  1  0  0  0
  2 11  1  0  0  0
  2 79  1  0  0  0
  3  4  2  0  0  0
  3 80  1  0  0  0
  4  5  1  0  0  0
  4  7  1  0  0  0
  5  6  1  0  0  0
  5 81  1  0  0  0
  5 82  1  0  0  0
  6 83  1  0  0  0
  7  8  1  0  0  0
  7  9  1  0  0  0
  7 84  1  0  0  0
  8 85  1  0  0  0
  9 10  1  0  0  0
  9 11  1  0  0  0
  9 86  1  0  0  0
 10 87  1  0  0  0
 11 12  1  0  0  0
 11 88  1  0  0  0
 12 89  1  0  0  0
 13 15  1  0  0  0
 13 20  1  0  0  0
 13 30  1  0  0  0
 13 90  1  0  0  0
 14 15  1  0  0  0
 14 91  1  0  0  0
 15 16  1  0  0  0
 15 92  1  0  0  0
 16 17  1  0  0  0
 16 18  1  0  0  0
 16 93  1  0  0  0
 17 94  1  0  0  0
 18 19  1  0  0  0
 18 95  1  0  0  0
 19 20  1  0  0  0
 19 21  1  0  0  0
 19 96  1  0  0  0
 21 97  1  0  0  0
 21 98  1  0  0  0
 21 99  1  0  0  0
 22 23  1  0  0  0
 22 31  1  0  0  0
 22 40  1  0  0  0
 22100  1  0  0  0
 23 24  1  0  0  0
 23 28  1  0  0  0
 23101  1  0  0  0
 24 25  1  0  0  0
 24 29  1  0  0  0
 24102  1  0  0  0
 25 26  1  0  0  0
 25 30  1  0  0  0
 25103  1  0  0  0
 26 27  1  0  0  0
 26 31  1  0  0  0
 26104  1  0  0  0
 27 32  1  0  0  0
 27105  1  0  0  0
 27106  1  0  0  0
 28107  1  0  0  0
 29108  1  0  0  0
 32109  1  0  0  0
 33 34  1  0  0  0
 33 50  1  0  0  0
 33110  1  0  0  0
 33111  1  0  0  0
 34 35  1  0  0  0
 34 43  1  0  0  0
 34112  1  0  0  0
 35 36  2  0  0  0
 35113  1  0  0  0
 36 37  1  0  0  0
 36 39  1  0  0  0
 37 38  1  0  0  0
 37114  1  0  0  0
 37115  1  0  0  0
 38116  1  0  0  0
 39 40  1  0  0  0
 39 41  1  0  0  0
 39117  1  0  0  0
 41 42  1  0  0  0
 41 43  1  0  0  0
 41118  1  0  0  0
 42119  1  0  0  0
 43 44  1  0  0  0
 43120  1  0  0  0
 44121  1  0  0  0
 45 47  1  0  0  0
 45 52  1  0  0  0
 45 62  1  0  0  0
 45122  1  0  0  0
 46 47  1  0  0  0
 46123  1  0  0  0
 47 48  1  0  0  0
 47124  1  0  0  0
 48 49  1  0  0  0
 48 50  1  0  0  0
 48125  1  0  0  0
 49126  1  0  0  0
 50 51  1  0  0  0
 50127  1  0  0  0
 51 52  1  0  0  0
 51 53  1  0  0  0
 51128  1  0  0  0
 53129  1  0  0  0
 53130  1  0  0  0
 53131  1  0  0  0
 54 55  1  0  0  0
 54 63  1  0  0  0
 54 74  1  0  0  0
 54132  1  0  0  0
 55 56  1  0  0  0
 55 60  1  0  0  0
 55133  1  0  0  0
 56 57  1  0  0  0
 56 61  1  0  0  0
 56134  1  0  0  0
 57 58  1  0  0  0
 57 62  1  0  0  0
 57135  1  0  0  0
 58 59  1  0  0  0
 58 63  1  0  0  0
 58136  1  0  0  0
 59 64  1  0  0  0
 59137  1  0  0  0
 59138  1  0  0  0
 60139  1  0  0  0
 61140  1  0  0  0
 64141  1  0  0  0
 65 66  1  0  0  0
 65 70  1  0  0  0
 65 72  1  0  0  0
 65142  1  0  0  0
 66 67  1  0  0  0
 66 73  1  0  0  0
 66143  1  0  0  0
 67 68  1  0  0  0
 67 74  1  0  0  0
 67144  1  0  0  0
 68 69  1  0  0  0
 68 75  1  0  0  0
 68145  1  0  0  0
 69 76  1  0  0  0
 69146  1  0  0  0
 69147  1  0  0  0
 70 71  1  0  0  0
 70 75  1  0  0  0
 70148  1  0  0  0
 71149  1  0  0  0
 72150  1  0  0  0
 73151  1  0  0  0
 76152  1  0  0  0
M  CHG  2   1   1  33   1
M  END
> <s_m_source_file>
../3olg_ligand.sdf

> <i_m_source_file_index>
1

> <s_epik_input>
W09IXVtDQEBIXTFbQ0BASF0oW09IXSlbQ0BIXShbT0hdKUMoW0NIMl1bT0hdKT1bQ0hdW0NASF0xW05IMitdW0NASF0oW0NASF0oTzIpW0NIM10pW0NASF0oW09IXSlbQ0BASF0oW09IXSlbQ0BIXTJPW0NASF0oW0NASF0oTzMpW0NIMl1bT0hdKVtDQEhdKFtPSF0pW0NAQEhdKFtPSF0pW0NASF0zT1tDQEBIXShbQ0BIXShbT0hdKVtDQEhdNFtPSF0pQyhbQ0gyXVtPSF0pPVtDSF1bQ0BIXTRbTkgyK11bQ0BIXShbQ0BIXShPNSlbQ0gzXSlbQ0BIXShbT0hdKVtDQEBIXShbT0hdKVtDQEhdNU9bQ0BIXShbQ0BIXShPNilbQ0gyXVtPSF0pW0NASF0oW09IXSlbQ0BASF0oW09IXSlbQ0BIXTZPW0NAQEhdKFtDQEhdKFtPSF0pW0NASF03W09IXSlbQ0BASF0oW0NIMl1bT0hdKU9bQ0BIXTdbT0hd

> <s_epik_cmdline>
J2VwaWtfYXBwJywgJy1pbWFlJywgJ2xpZ2FuZF9wcm8ubWFlJywgJy1vbWFlJywgJ2xpZ2FuZF9wcmVwLm1hZScsICctbXMnLCAnMScsICctcGgnLCAnNycsICctcGh0JywgJzAuNScsICctbnQn

> <s_epik_pKa_notes>
Molecule size exceeds maximum supported for generating protonation states

> <s_epik_Chemistry_Notes>
This compound contains an acetal/aminal-like group ( X-CH(R)-Y where X, Y are N, S, or O) that may be acid/base labile, releasing an aldehyde.

$$$$
