3oli_ligand
                    3D
 Schrodinger Suite 2020-3.
150156  0  0  1  0            999 V2000
   -3.3140    0.3750   24.0700 N   0  3  0  0  0  0
   -3.1200    1.7530   24.5280 C   0  0  2  0  0  0
   -1.7510    2.3360   24.8970 C   0  0  0  0  0  0
   -1.7030    3.7180   24.8920 C   0  0  0  0  0  0
   -0.3810    4.4250   25.2190 C   0  0  0  0  0  0
    0.7310    3.5460   25.0240 O   0  0  0  0  0  0
   -2.9430    4.5890   24.6130 C   0  0  1  0  0  0
   -2.7340    5.4130   23.4650 O   0  0  0  0  0  0
   -4.2720    3.8470   24.4410 C   0  0  2  0  0  0
   -5.3910    4.6510   24.8230 O   0  0  0  0  0  0
   -4.2610    2.5170   25.1870 C   0  0  1  0  0  0
   -5.4570    1.7300   25.1590 O   0  0  0  0  0  0
   -1.8460   -3.4120   23.9630 C   0  0  2  0  0  0
   -2.9050   -3.8560   26.1320 O   0  0  0  0  0  0
   -2.1590   -2.8930   25.3670 C   0  0  2  0  0  0
   -2.9450   -1.5900   25.2490 C   0  0  1  0  0  0
   -3.1230   -1.0190   26.5470 O   0  0  0  0  0  0
   -2.2560   -0.5790   24.3290 C   0  0  1  0  0  0
   -1.9520   -1.2770   23.0040 C   0  0  2  0  0  0
   -1.1330   -2.4450   23.1700 O   0  0  0  0  0  0
   -1.2800   -0.3080   22.0290 C   0  0  0  0  0  0
   -4.0570   -7.6550   22.0060 C   0  0  2  0  0  0
   -4.5070   -7.2530   23.4290 C   0  0  1  0  0  0
   -4.5350   -5.7350   23.5710 C   0  0  2  0  0  0
   -3.1820   -5.1720   23.1350 C   0  0  1  0  0  0
   -3.0050   -5.5540   21.6760 C   0  0  1  0  0  0
   -1.7760   -4.9290   21.0570 C   0  0  0  0  0  0
   -5.8090   -7.7610   23.6780 O   0  0  0  0  0  0
   -4.8060   -5.3620   24.9100 O   0  0  0  0  0  0
   -3.0700   -3.7580   23.3090 O   0  0  0  0  0  0
   -2.8880   -6.9720   21.5420 O   0  0  0  0  0  0
   -0.5730   -5.3910   21.6620 O   0  0  0  0  0  0
   -9.2250   -9.2580   19.3940 N   0  3  0  0  0  0
   -7.7750   -9.1700   19.1870 C   0  0  2  0  0  0
   -7.1520   -8.0270   18.3850 C   0  0  0  0  0  0
   -5.8530   -7.7680   18.7960 C   0  0  0  0  0  0
   -5.0830   -6.6550   18.0750 C   0  0  0  0  0  0
   -4.1960   -7.1420   17.0600 O   0  0  0  0  0  0
   -5.1910   -8.4650   20.0030 C   0  0  1  0  0  0
   -5.1400   -7.5360   21.0810 O   0  0  0  0  0  0
   -5.9120   -9.7270   20.4940 C   0  0  2  0  0  0
   -5.0070  -10.6860   21.0530 O   0  0  0  0  0  0
   -6.7590  -10.2980   19.3650 C   0  0  1  0  0  0
   -7.3950  -11.5750   19.4960 O   0  0  0  0  0  0
  -11.6900   -6.0280   20.4760 C   0  0  2  0  0  0
  -12.7500   -6.2810   18.3110 O   0  0  0  0  0  0
  -11.4840   -6.2950   18.9800 C   0  0  2  0  0  0
  -10.8750   -7.6810   18.7600 C   0  0  1  0  0  0
  -10.4740   -7.8720   17.3990 O   0  0  0  0  0  0
   -9.6810   -7.9120   19.6860 C   0  0  1  0  0  0
  -10.0770   -7.6530   21.1480 C   0  0  2  0  0  0
  -10.5150   -6.2870   21.2690 O   0  0  0  0  0  0
   -8.9070   -7.8460   22.1170 C   0  0  0  0  0  0
  -16.3070   -5.1790   22.7270 C   0  0  2  0  0  0
  -16.2710   -5.2750   21.1690 C   0  0  1  0  0  0
  -15.1430   -6.2210   20.7090 C   0  0  2  0  0  0
  -13.8290   -5.8340   21.3680 C   0  0  1  0  0  0
  -13.9890   -5.7500   22.8990 C   0  0  1  0  0  0
  -12.7100   -5.3180   23.5590 C   0  0  0  0  0  0
  -17.5100   -5.8070   20.7140 O   0  0  0  0  0  0
  -15.0100   -6.1080   19.3050 O   0  0  0  0  0  0
  -12.8080   -6.7500   21.0070 O   0  0  0  0  0  0
  -14.9860   -4.7590   23.2170 O   0  0  0  0  0  0
  -12.4890   -3.9260   23.3540 O   0  0  0  0  0  0
  -19.7580   -7.4100   25.8880 C   0  0  0  0  0  0
  -20.1360   -7.1200   24.4290 C   0  0  1  0  0  0
  -18.8740   -7.3060   23.6070 C   0  0  2  0  0  0
  -17.9240   -6.2100   24.1150 C   0  0  1  0  0  0
  -17.5350   -6.4920   25.5140 C   0  0  1  0  0  0
  -16.5280   -5.5450   26.2310 C   0  0  0  0  0  0
  -20.0030   -8.6820   26.4060 O   0  0  0  0  0  0
  -21.2280   -7.9430   24.0910 O   0  0  0  0  0  0
  -19.1730   -7.0530   22.2560 O   0  0  0  0  0  0
  -16.7540   -6.3270   23.2990 O   0  0  0  0  0  0
  -18.6430   -6.6620   26.4370 O   0  0  0  0  0  0
  -15.1800   -5.8190   25.8810 O   0  0  0  0  0  0
   -4.2074   -0.0491   24.5516 H   0  0  0  0  0  0
   -3.4472    0.3668   22.9781 H   0  0  0  0  0  0
   -3.1854    1.8126   23.4316 H   0  0  0  0  0  0
   -0.8522    1.7554   25.1520 H   0  0  0  0  0  0
   -0.2601    5.2987   24.5617 H   0  0  0  0  0  0
   -0.3911    4.7543   26.2685 H   0  0  0  0  0  0
    1.7539    3.9021   25.2161 H   0  0  0  0  0  0
   -3.0436    5.2507   25.4860 H   0  0  0  0  0  0
   -1.8288    6.0336   23.3908 H   0  0  0  0  0  0
   -4.4539    3.6692   23.3708 H   0  0  0  0  0  0
   -5.5362    5.6426   24.3694 H   0  0  0  0  0  0
   -4.2110    2.6845   26.2730 H   0  0  0  0  0  0
   -5.4922    0.7640   25.6840 H   0  0  0  0  0  0
   -1.2019   -4.3031   23.9966 H   0  0  0  0  0  0
   -2.4855   -4.8560   26.3164 H   0  0  0  0  0  0
   -1.2317   -2.7568   25.9428 H   0  0  0  0  0  0
   -3.9523   -1.8067   24.8638 H   0  0  0  0  0  0
   -3.6045   -1.6045   27.3441 H   0  0  0  0  0  0
   -1.3535   -0.1068   24.7443 H   0  0  0  0  0  0
   -2.8933   -1.6727   22.5948 H   0  0  0  0  0  0
   -1.9112    0.5844   21.9055 H   0  0  0  0  0  0
   -1.1476   -0.8012   21.0547 H   0  0  0  0  0  0
   -0.2981   -0.0106   22.4259 H   0  0  0  0  0  0
   -3.7388   -8.7075   21.9763 H   0  0  0  0  0  0
   -3.8557   -7.7030   24.1928 H   0  0  0  0  0  0
   -5.3677   -5.2984   23.0001 H   0  0  0  0  0  0
   -2.3691   -5.5303   23.7837 H   0  0  0  0  0  0
   -3.9067   -5.2370   21.1315 H   0  0  0  0  0  0
   -1.7371   -5.1790   19.9865 H   0  0  0  0  0  0
   -1.8202   -3.8365   21.1770 H   0  0  0  0  0  0
   -5.9967   -8.8435   23.6237 H   0  0  0  0  0  0
   -5.7420   -5.6817   25.3913 H   0  0  0  0  0  0
    0.3992   -5.0172   21.3084 H   0  0  0  0  0  0
   -9.7026   -9.6461   18.4823 H   0  0  0  0  0  0
   -9.4349   -9.9356   20.2347 H   0  0  0  0  0  0
   -8.2234   -8.9968   20.1764 H   0  0  0  0  0  0
   -7.6008   -7.4345   17.5741 H   0  0  0  0  0  0
   -5.7953   -5.9708   17.5907 H   0  0  0  0  0  0
   -4.4765   -6.0972   18.8038 H   0  0  0  0  0  0
   -3.5895   -6.4355   16.4744 H   0  0  0  0  0  0
   -4.1646   -8.7455   19.7241 H   0  0  0  0  0  0
   -6.5499   -9.5075   21.3628 H   0  0  0  0  0  0
   -4.3388  -10.3963   21.8774 H   0  0  0  0  0  0
   -6.1324  -10.6265   18.5227 H   0  0  0  0  0  0
   -8.0037  -11.9735   18.6710 H   0  0  0  0  0  0
  -11.9148   -4.9613   20.6230 H   0  0  0  0  0  0
  -13.3743   -5.3756   18.3341 H   0  0  0  0  0  0
  -10.8627   -5.4994   18.5430 H   0  0  0  0  0  0
  -11.6522   -8.4408   18.9295 H   0  0  0  0  0  0
  -11.2058   -7.7470   16.5873 H   0  0  0  0  0  0
   -8.8157   -7.2588   19.4998 H   0  0  0  0  0  0
  -10.9049   -8.3238   21.4210 H   0  0  0  0  0  0
   -8.5444   -8.8825   22.0521 H   0  0  0  0  0  0
   -9.2432   -7.6387   23.1436 H   0  0  0  0  0  0
   -8.0931   -7.1554   21.8512 H   0  0  0  0  0  0
  -17.0630   -4.4944   23.1391 H   0  0  0  0  0  0
  -16.1654   -4.2823   20.7071 H   0  0  0  0  0  0
  -15.3757   -7.2758   20.9169 H   0  0  0  0  0  0
  -13.4724   -4.8743   20.9657 H   0  0  0  0  0  0
  -14.3100   -6.7225   23.3006 H   0  0  0  0  0  0
  -12.7702   -5.5151   24.6395 H   0  0  0  0  0  0
  -11.8678   -5.8807   23.1300 H   0  0  0  0  0  0
  -18.4497   -5.2806   20.9373 H   0  0  0  0  0  0
  -15.8614   -6.3473   18.6509 H   0  0  0  0  0  0
  -11.5933   -3.4438   23.7727 H   0  0  0  0  0  0
  -20.5543   -6.1285   24.2008 H   0  0  0  0  0  0
  -18.4672   -8.3279   23.6210 H   0  0  0  0  0  0
  -18.3385   -5.1924   24.0639 H   0  0  0  0  0  0
  -17.0826   -7.4697   25.2915 H   0  0  0  0  0  0
  -16.7443   -4.5026   25.9543 H   0  0  0  0  0  0
  -16.6256   -5.6630   27.3203 H   0  0  0  0  0  0
  -22.1730   -7.8590   24.6476 H   0  0  0  0  0  0
  -19.8431   -7.7293   21.7050 H   0  0  0  0  0  0
  -14.3661   -5.2217   26.3177 H   0  0  0  0  0  0
  1  2  1  0  0  0
  1 18  1  0  0  0
  1 77  1  0  0  0
  1 78  1  0  0  0
  2  3  1  0  0  0
  2 11  1  0  0  0
  2 79  1  0  0  0
  3  4  2  0  0  0
  3 80  1  0  0  0
  4  5  1  0  0  0
  4  7  1  0  0  0
  5  6  1  0  0  0
  5 81  1  0  0  0
  5 82  1  0  0  0
  6 83  1  0  0  0
  7  8  1  0  0  0
  7  9  1  0  0  0
  7 84  1  0  0  0
  8 85  1  0  0  0
  9 10  1  0  0  0
  9 11  1  0  0  0
  9 86  1  0  0  0
 10 87  1  0  0  0
 11 12  1  0  0  0
 11 88  1  0  0  0
 12 89  1  0  0  0
 13 15  1  0  0  0
 13 20  1  0  0  0
 13 30  1  0  0  0
 13 90  1  0  0  0
 14 15  1  0  0  0
 14 91  1  0  0  0
 15 16  1  0  0  0
 15 92  1  0  0  0
 16 17  1  0  0  0
 16 18  1  0  0  0
 16 93  1  0  0  0
 17 94  1  0  0  0
 18 19  1  0  0  0
 18 95  1  0  0  0
 19 20  1  0  0  0
 19 21  1  0  0  0
 19 96  1  0  0  0
 21 97  1  0  0  0
 21 98  1  0  0  0
 21 99  1  0  0  0
 22 23  1  0  0  0
 22 31  1  0  0  0
 22 40  1  0  0  0
 22100  1  0  0  0
 23 24  1  0  0  0
 23 28  1  0  0  0
 23101  1  0  0  0
 24 25  1  0  0  0
 24 29  1  0  0  0
 24102  1  0  0  0
 25 26  1  0  0  0
 25 30  1  0  0  0
 25103  1  0  0  0
 26 27  1  0  0  0
 26 31  1  0  0  0
 26104  1  0  0  0
 27 32  1  0  0  0
 27105  1  0  0  0
 27106  1  0  0  0
 28107  1  0  0  0
 29108  1  0  0  0
 32109  1  0  0  0
 33 34  1  0  0  0
 33 50  1  0  0  0
 33110  1  0  0  0
 33111  1  0  0  0
 34 35  1  0  0  0
 34 43  1  0  0  0
 34112  1  0  0  0
 35 36  2  0  0  0
 35113  1  0  0  0
 36 37  1  0  0  0
 36 39  1  0  0  0
 37 38  1  0  0  0
 37114  1  0  0  0
 37115  1  0  0  0
 38116  1  0  0  0
 39 40  1  0  0  0
 39 41  1  0  0  0
 39117  1  0  0  0
 41 42  1  0  0  0
 41 43  1  0  0  0
 41118  1  0  0  0
 42119  1  0  0  0
 43 44  1  0  0  0
 43120  1  0  0  0
 44121  1  0  0  0
 45 47  1  0  0  0
 45 52  1  0  0  0
 45 62  1  0  0  0
 45122  1  0  0  0
 46 47  1  0  0  0
 46123  1  0  0  0
 47 48  1  0  0  0
 47124  1  0  0  0
 48 49  1  0  0  0
 48 50  1  0  0  0
 48125  1  0  0  0
 49126  1  0  0  0
 50 51  1  0  0  0
 50127  1  0  0  0
 51 52  1  0  0  0
 51 53  1  0  0  0
 51128  1  0  0  0
 53129  1  0  0  0
 53130  1  0  0  0
 53131  1  0  0  0
 54 55  1  0  0  0
 54 63  1  0  0  0
 54 74  1  0  0  0
 54132  1  0  0  0
 55 56  1  0  0  0
 55 60  1  0  0  0
 55133  1  0  0  0
 56 57  1  0  0  0
 56 61  1  0  0  0
 56134  1  0  0  0
 57 58  1  0  0  0
 57 62  1  0  0  0
 57135  1  0  0  0
 58 59  1  0  0  0
 58 63  1  0  0  0
 58136  1  0  0  0
 59 64  1  0  0  0
 59137  1  0  0  0
 59138  1  0  0  0
 60139  1  0  0  0
 61140  1  0  0  0
 64141  1  0  0  0
 65 66  1  0  0  0
 65 71  2  0  0  0
 65 75  1  0  0  0
 66 67  1  0  0  0
 66 72  1  0  0  0
 66142  1  0  0  0
 67 68  1  0  0  0
 67 73  1  0  0  0
 67143  1  0  0  0
 68 69  1  0  0  0
 68 74  1  0  0  0
 68144  1  0  0  0
 69 70  1  0  0  0
 69 75  1  0  0  0
 69145  1  0  0  0
 70 76  1  0  0  0
 70146  1  0  0  0
 70147  1  0  0  0
 72148  1  0  0  0
 73149  1  0  0  0
 76150  1  0  0  0
M  CHG  2   1   1  33   1
M  END
> <s_m_source_file>
../3oli_ligand.sdf

> <i_m_source_file_index>
1

> <s_epik_input>
W09IXVtDQEBIXTFbQ0BASF0oW09IXSlbQ0BIXShbT0hdKUMoW0NIMl1bT0hdKT1bQ0hdW0NASF0xW05IMitdW0NASF0oW0NASF0oTzIpW0NIM10pW0NASF0oW09IXSlbQ0BASF0oW09IXSlbQ0BIXTJPW0NASF0oW0NASF0oTzMpW0NIMl1bT0hdKVtDQEhdKFtPSF0pW0NAQEhdKFtPSF0pW0NASF0zT1tDQEBIXShbQ0BIXShbT0hdKVtDQEhdNFtPSF0pQyhbQ0gyXVtPSF0pPVtDSF1bQ0BIXTRbTkgyK11bQ0BIXShbQ0BIXShPNSlbQ0gzXSlbQ0BIXShbT0hdKVtDQEBIXShbT0hdKVtDQEhdNU9bQ0BIXShbQ0BIXShPNilbQ0gyXVtPSF0pW0NASF0oW09IXSlbQ0BASF0oW09IXSlbQ0BIXTZPW0NAQEhdKFtDQEhdKFtPSF0pW0NASF0oQzc9TylbT0hdKVtDQEhdKE83KVtDSDJdW09IXQ==

> <s_epik_cmdline>
J2VwaWtfYXBwJywgJy1pbWFlJywgJ2xpZ2FuZF9wcm8ubWFlJywgJy1vbWFlJywgJ2xpZ2FuZF9wcmVwLm1hZScsICctbXMnLCAnMScsICctcGgnLCAnNycsICctcGh0JywgJzAuNScsICctbnQn

> <r_lp_tautomer_probability>
1

> <r_epik_Ionization_Penalty>
  0.2340

> <r_epik_Ionization_Penalty_Charging>
  0.2333

> <r_epik_Ionization_Penalty_Neutral>
  0.0007

> <r_epik_State_Penalty>
 -0.0000

> <r_epik_Charging_Adjusted_Penalty>
0.233319522477701

> <i_epik_Tot_Q>
2

> <i_epik_Tot_abs_Q>
2

> <s_epik_Chemistry_Notes>
This compound has an ester and may undergo hydrolysis at high or low pH. This compound contains an acetal/aminal-like group ( X-CH(R)-Y where X, Y are N, S, or O) that may be acid/base labile, releasing an aldehyde.

$$$$
