3omc_ligand
                    3D
 Schrodinger Suite 2020-3.
120119  0  0  1  0            999 V2000
   19.0700  -12.0980    6.4110 N   0  3  0  0  0  0
   18.0710  -12.1270    7.5210 C   0  0  0  0  0  0
   16.8490  -11.2940    7.1850 C   0  0  0  0  0  0
   16.6640  -10.8840    6.0300 O   0  0  0  0  0  0
   16.0120  -11.0450    8.1920 N   0  0  0  0  0  0
   14.7700  -10.2770    8.0130 C   0  0  1  0  0  0
   14.0720  -10.1830    9.3730 C   0  0  0  0  0  0
   12.6970   -9.5190    9.2400 C   0  0  0  0  0  0
   12.0420   -9.2900   10.5830 C   0  0  0  0  0  0
   10.6400   -8.8940   10.4140 N   0  0  2  0  0  0
    9.7380   -8.9090   11.4040 C   0  0  3  0  0  0
   10.0480   -9.2960   12.5820 N   0  3  2  0  0  0
    9.1450   -9.3780   13.7220 C   0  0  0  0  0  0
    8.4690   -8.5230   11.1320 N   0  0  2  0  0  0
    8.0650   -8.1020    9.7840 C   0  0  0  0  0  0
   15.0300   -8.8890    7.4700 C   0  0  0  0  0  0
   15.9590   -8.1980    7.9160 O   0  0  0  0  0  0
   14.2060   -8.4680    6.5060 N   0  0  0  0  0  0
   14.2950   -7.1130    5.9430 C   0  0  2  0  0  0
   14.0950   -6.0710    7.0310 C   0  0  0  0  0  0
   13.1440   -6.1360    7.8230 O   0  0  0  0  0  0
   13.2790   -6.9230    4.8530 C   0  0  0  0  0  0
   15.0130   -5.1160    7.0660 N   0  0  0  0  0  0
   15.0380   -4.1170    8.1280 C   0  0  2  0  0  0
   15.9820   -3.0020    7.7140 C   0  0  0  0  0  0
   16.7670   -3.1630    6.7750 O   0  0  0  0  0  0
   15.4960   -4.7400    9.4580 C   0  0  0  0  0  0
   16.9230   -5.2660    9.4450 C   0  0  0  0  0  0
   17.2380   -6.0050   10.7250 C   0  0  0  0  0  0
   18.5680   -6.6020   10.6460 N   0  0  0  0  0  0
   19.7080   -5.9310   10.8200 C   0  0  0  0  0  0
   19.7010   -4.6260   11.1050 N   0  0  0  0  0  0
   20.8650   -6.5670   10.7140 N   0  3  0  0  0  0
   15.9250   -1.8840    8.4300 N   0  0  0  0  0  0
   16.8020   -0.7590    8.1470 C   0  0  2  0  0  0
   18.2660   -1.1760    8.1820 C   0  0  0  0  0  0
   18.6710   -2.0080    9.0030 O   0  0  0  0  0  0
   16.5480    0.3920    9.1250 C   0  0  0  0  0  0
   19.0360   -0.5990    7.2630 N   0  0  0  0  0  0
   20.4840   -0.7650    7.2360 C   0  0  2  0  0  0
   21.1160    0.5940    7.5200 C   0  0  0  0  0  0
   21.3840    1.3780    6.6060 O   0  0  0  0  0  0
   20.9500   -1.3320    5.8940 C   0  0  0  0  0  0
   22.4440   -1.5670    5.8520 C   0  0  0  0  0  0
   22.8290   -2.5960    4.8310 C   0  0  0  0  0  0
   24.2770   -2.8020    4.8450 N   0  0  0  0  0  0
   24.8840   -3.9000    5.2890 C   0  0  0  0  0  0
   24.1760   -4.9220    5.7550 N   0  0  0  0  0  0
   26.2080   -3.9790    5.2580 N   0  3  0  0  0  0
   21.3400    0.8630    8.8030 N   0  0  0  0  0  0
   21.6660    2.2090    9.2700 C   0  0  2  0  0  0
   23.0560    2.6970    8.8780 C   0  0  0  0  0  0
   23.3060    3.9040    8.9120 O   0  0  0  0  0  0
   21.4850    2.2940   10.7550 C   0  0  0  0  0  0
   23.9470    1.9190    8.5260 O   0  5  0  0  0  0
   19.9415  -12.7102    6.6860 H   0  0  0  0  0  0
   19.3915  -11.0610    6.2341 H   0  0  0  0  0  0
   18.6127  -12.5014    5.4955 H   0  0  0  0  0  0
   17.7495  -13.1640    7.6979 H   0  0  0  0  0  0
   18.5283  -11.7236    8.4365 H   0  0  0  0  0  0
   16.2781  -11.4369    9.1848 H   0  0  0  0  0  0
   14.1666  -10.8129    7.2655 H   0  0  0  0  0  0
   13.9372  -11.1933    9.7866 H   0  0  0  0  0  0
   14.6877   -9.5845   10.0606 H   0  0  0  0  0  0
   12.8072   -8.5441    8.7427 H   0  0  0  0  0  0
   12.0352  -10.1628    8.6421 H   0  0  0  0  0  0
   12.0812  -10.2176   11.1730 H   0  0  0  0  0  0
   12.5752   -8.4914   11.1196 H   0  0  0  0  0  0
   10.5925   -7.8474   10.0788 H   0  0  0  0  0  0
    9.4628   -9.9402   11.1377 H   0  0  0  0  0  0
   10.4203  -10.3303   12.5420 H   0  0  0  0  0  0
    9.6961   -9.7444   14.6006 H   0  0  0  0  0  0
    8.3230  -10.0710   13.4895 H   0  0  0  0  0  0
    8.7340   -8.3805   13.9367 H   0  0  0  0  0  0
    7.7788   -9.3507   11.3524 H   0  0  0  0  0  0
    6.9985   -7.8326    9.7882 H   0  0  0  0  0  0
    8.2318   -8.9277    9.0766 H   0  0  0  0  0  0
    8.6621   -7.2304    9.4777 H   0  0  0  0  0  0
   13.4443   -9.1691    6.1342 H   0  0  0  0  0  0
   15.3018   -7.0181    5.5102 H   0  0  0  0  0  0
   13.4331   -7.6819    4.0718 H   0  0  0  0  0  0
   13.3924   -5.9195    4.4169 H   0  0  0  0  0  0
   12.2675   -7.0285    5.2722 H   0  0  0  0  0  0
   15.7688   -5.0886    6.2672 H   0  0  0  0  0  0
   14.0108   -3.7388    8.2369 H   0  0  0  0  0  0
   15.4391   -3.9846   10.2556 H   0  0  0  0  0  0
   14.8429   -5.5886    9.7095 H   0  0  0  0  0  0
   17.0518   -5.9559    8.5980 H   0  0  0  0  0  0
   17.6233   -4.4240    9.3418 H   0  0  0  0  0  0
   17.2075   -5.3025   11.5709 H   0  0  0  0  0  0
   16.4943   -6.8002   10.8818 H   0  0  0  0  0  0
   18.6773   -7.6751   10.4302 H   0  0  0  0  0  0
   18.7459   -4.0879   11.1954 H   0  0  0  0  0  0
   20.6504   -4.0895   11.2493 H   0  0  0  0  0  0
   20.8825   -7.6416   10.4796 H   0  0  0  0  0  0
   15.1956   -1.8199    9.2509 H   0  0  0  0  0  0
   16.5392   -0.4505    7.1244 H   0  0  0  0  0  0
   15.4868    0.6791    9.0858 H   0  0  0  0  0  0
   17.1717    1.2542    8.8464 H   0  0  0  0  0  0
   16.8031    0.0693   10.1452 H   0  0  0  0  0  0
   18.5395    0.0231    6.5038 H   0  0  0  0  0  0
   20.7495   -1.4916    8.0180 H   0  0  0  0  0  0
   20.4504   -2.2944    5.7093 H   0  0  0  0  0  0
   20.6954   -0.6263    5.0895 H   0  0  0  0  0  0
   22.9560   -0.6270    5.5986 H   0  0  0  0  0  0
   22.7878   -1.9180    6.8362 H   0  0  0  0  0  0
   22.3271   -3.5472    5.0619 H   0  0  0  0  0  0
   22.5231   -2.2532    3.8315 H   0  0  0  0  0  0
   24.9481   -2.0155    4.4695 H   0  0  0  0  0  0
   23.0780   -4.8629    5.7834 H   0  0  0  0  0  0
   24.6875   -5.8278    6.1126 H   0  0  0  0  0  0
   26.8004   -3.1358    4.8731 H   0  0  0  0  0  0
   21.2733    0.0327    9.5214 H   0  0  0  0  0  0
   20.9357    2.8483    8.7523 H   0  0  0  0  0  0
   20.4788    1.9391   11.0226 H   0  0  0  0  0  0
   21.6039    3.3382   11.0797 H   0  0  0  0  0  0
   22.2394    1.6671   11.2528 H   0  0  0  0  0  0
   10.8313   -8.6399   12.9893 H   0  0  0  0  0  0
   21.8084   -6.0206   10.8603 H   0  0  0  0  0  0
   26.7133   -4.8877    5.6172 H   0  0  0  0  0  0
  1  2  1  0  0  0
  1 56  1  0  0  0
  1 57  1  0  0  0
  1 58  1  0  0  0
  2  3  1  0  0  0
  2 59  1  0  0  0
  2 60  1  0  0  0
  3  4  2  0  0  0
  3  5  1  0  0  0
  5  6  1  0  0  0
  5 61  1  0  0  0
  6  7  1  0  0  0
  6 16  1  0  0  0
  6 62  1  0  0  0
  7  8  1  0  0  0
  7 63  1  0  0  0
  7 64  1  0  0  0
  8  9  1  0  0  0
  8 65  1  0  0  0
  8 66  1  0  0  0
  9 10  1  0  0  0
  9 67  1  0  0  0
  9 68  1  0  0  0
 10 11  1  0  0  0
 10 69  1  0  0  0
 11 12  1  0  0  0
 11 14  1  0  0  0
 11 70  1  0  0  0
 12 13  1  0  0  0
 12 71  1  0  0  0
 12118  1  0  0  0
 13 72  1  0  0  0
 13 73  1  0  0  0
 13 74  1  0  0  0
 14 15  1  0  0  0
 14 75  1  0  0  0
 15 76  1  0  0  0
 15 77  1  0  0  0
 15 78  1  0  0  0
 16 17  2  0  0  0
 16 18  1  0  0  0
 18 19  1  0  0  0
 18 79  1  0  0  0
 19 20  1  0  0  0
 19 22  1  0  0  0
 19 80  1  0  0  0
 20 21  2  0  0  0
 20 23  1  0  0  0
 22 81  1  0  0  0
 22 82  1  0  0  0
 22 83  1  0  0  0
 23 24  1  0  0  0
 23 84  1  0  0  0
 24 25  1  0  0  0
 24 27  1  0  0  0
 24 85  1  0  0  0
 25 26  2  0  0  0
 25 34  1  0  0  0
 27 28  1  0  0  0
 27 86  1  0  0  0
 27 87  1  0  0  0
 28 29  1  0  0  0
 28 88  1  0  0  0
 28 89  1  0  0  0
 29 30  1  0  0  0
 29 90  1  0  0  0
 29 91  1  0  0  0
 30 31  1  0  0  0
 30 92  1  0  0  0
 31 32  1  0  0  0
 31 33  2  0  0  0
 32 93  1  0  0  0
 32 94  1  0  0  0
 33 95  1  0  0  0
 33119  1  0  0  0
 34 35  1  0  0  0
 34 96  1  0  0  0
 35 36  1  0  0  0
 35 38  1  0  0  0
 35 97  1  0  0  0
 36 37  2  0  0  0
 36 39  1  0  0  0
 38 98  1  0  0  0
 38 99  1  0  0  0
 38100  1  0  0  0
 39 40  1  0  0  0
 39101  1  0  0  0
 40 41  1  0  0  0
 40 43  1  0  0  0
 40102  1  0  0  0
 41 42  2  0  0  0
 41 50  1  0  0  0
 43 44  1  0  0  0
 43103  1  0  0  0
 43104  1  0  0  0
 44 45  1  0  0  0
 44105  1  0  0  0
 44106  1  0  0  0
 45 46  1  0  0  0
 45107  1  0  0  0
 45108  1  0  0  0
 46 47  1  0  0  0
 46109  1  0  0  0
 47 48  1  0  0  0
 47 49  2  0  0  0
 48110  1  0  0  0
 48111  1  0  0  0
 49112  1  0  0  0
 49120  1  0  0  0
 50 51  1  0  0  0
 50113  1  0  0  0
 51 52  1  0  0  0
 51 54  1  0  0  0
 51114  1  0  0  0
 52 53  2  0  0  0
 52 55  1  0  0  0
 54115  1  0  0  0
 54116  1  0  0  0
 54117  1  0  0  0
M  CHG  5   1   1  12   1  33   1  49   1  55  -1
M  END
> <s_m_source_file>
../3omc_ligand.sdf

> <i_m_source_file_index>
1

> <s_epik_input>
W0NIM11bTkhdW0NIXShbTkhdW0NIM10pW05IXVtDSDJdW0NIMl1bQ0gyXVtDQEhdKFtOSF1DKD1PKVtDSDJdW05IMytdKUMoPU8pW05IXVtDQEBIXShbQ0gzXSlDKD1PKVtOSF1bQ0BASF0oW0NIMl1bQ0gyXVtDSDJdW05IXS9DKFtOSDJdKT1OXFtIXSlDKD1PKVtOSF1bQ0BASF0oW0NIM10pQyg9TylbTkhdW0NASF0oQyg9TylbTkhdW0NAQEhdKFtDSDNdKUMoPU8pW09IXSlbQ0gyXVtDSDJdW0NIMl1bTkhdL0MoW05IMl0pPU5cW0hd

> <s_epik_cmdline>
J2VwaWtfYXBwJywgJy1pbWFlJywgJ2xpZ2FuZF9wcm8ubWFlJywgJy1vbWFlJywgJ2xpZ2FuZF9wcmVwLm1hZScsICctbXMnLCAnMScsICctcGgnLCAnNycsICctcGh0JywgJzAuNScsICctbnQn

> <r_epik_Ionization_Penalty>
  0.1204

> <r_epik_Ionization_Penalty_Charging>
  0.1204

> <r_epik_Ionization_Penalty_Neutral>
  0.0000

> <r_epik_State_Penalty>
  0.1867

> <r_epik_Charging_Adjusted_Penalty>
0.307067842751629

> <i_epik_Tot_Q>
3

> <i_epik_Tot_abs_Q>
5

> <s_epik_Chemistry_Notes>
This compound has an imine and may undergo hydrolysis. This compound contains an acetal/aminal-like group ( X-CH(R)-Y where X, Y are N, S, or O) that may be acid/base labile, releasing an aldehyde.

$$$$
