3omg_ligand
                    3D
 Schrodinger Suite 2020-3.
100 99  0  0  1  0            999 V2000
   19.3580   -8.7980    5.5130 N   0  3  0  0  0  0
   18.5770   -9.5870    6.5190 C   0  0  0  0  0  0
   17.4270   -8.8120    7.1600 C   0  0  0  0  0  0
   16.7490   -9.3240    8.0600 O   0  0  0  0  0  0
   17.1960   -7.5800    6.7040 N   0  0  0  0  0  0
   16.1100   -6.7650    7.2720 C   0  0  2  0  0  0
   14.7050   -7.3090    6.9500 C   0  0  0  0  0  0
   13.7680   -7.1160    7.7450 O   0  0  0  0  0  0
   16.2550   -5.2800    6.9210 C   0  0  0  0  0  0
   17.2590   -4.5530    7.8290 C   0  0  0  0  0  0
   17.4060   -3.0840    7.4630 C   0  0  0  0  0  0
   17.7160   -2.9190    6.0470 N   0  0  0  0  0  0
   17.8060   -1.7570    5.4030 C   0  0  0  0  0  0
   17.6330   -0.5980    6.0310 N   0  0  0  0  0  0
   18.0840   -1.7560    4.1080 N   0  3  0  0  0  0
   14.5940   -8.0080    5.8150 N   0  0  0  0  0  0
   13.3730   -8.7180    5.3960 C   0  0  2  0  0  0
   13.1000  -10.0430    6.1560 C   0  0  0  0  0  0
   12.0700  -10.6940    5.9430 O   0  0  0  0  0  0
   13.4110   -8.9620    3.8850 C   0  0  0  0  0  0
   14.0240  -10.4370    7.0350 N   0  0  0  0  0  0
   13.9110  -11.6650    7.8550 C   0  0  1  0  0  0
   12.8410  -11.4970    8.9390 C   0  0  0  0  0  0
   13.2040  -10.3790    9.9010 C   0  0  0  0  0  0
   12.2320  -10.3890   11.0770 C   0  0  0  0  0  0
   10.8840   -9.9920   10.6850 N   0  0  2  0  0  0
    9.8430  -10.0440   11.5390 C   0  0  3  0  0  0
   10.0670  -10.4610   12.7230 N   0  3  2  0  0  0
    9.1580  -10.6360   13.8530 C   0  0  0  0  0  0
    8.6100   -9.6750   11.1370 N   0  0  2  0  0  0
    8.2890   -9.1920    9.7940 C   0  0  0  0  0  0
   13.6720  -12.9300    7.0600 C   0  0  0  0  0  0
   12.8940  -13.8020    7.4760 O   0  0  0  0  0  0
   14.3570  -13.0420    5.9210 N   0  0  0  0  0  0
   14.2310  -14.1960    5.0190 C   0  0  0  0  0  0
   12.9240  -14.1930    4.2440 C   0  0  0  0  0  0
   12.6980  -15.0540    3.3890 O   0  0  0  0  0  0
   12.0620  -13.2200    4.5510 N   0  0  0  0  0  0
   10.7420  -13.1010    3.9320 C   0  0  2  0  0  0
   10.8110  -12.1470    2.7400 C   0  0  0  0  0  0
   10.0585  -12.3071    1.7421 O   0  5  0  0  0  0
    9.6900  -12.6130    4.9520 C   0  0  0  0  0  0
    9.8150  -13.1730    6.3910 C   0  0  0  0  0  0
    9.5720  -14.6840    6.5050 C   0  0  0  0  0  0
    8.5630  -15.2060    6.0320 O   0  0  0  0  0  0
   10.4970  -15.3840    7.1560 N   0  0  0  0  0  0
   11.6298  -11.1894    2.7553 O   0  0  0  0  0  0
   20.1629   -9.4242    5.1007 H   0  0  0  0  0  0
   19.7945   -7.9133    5.9997 H   0  0  0  0  0  0
   18.6900   -8.4772    4.7000 H   0  0  0  0  0  0
   18.1405  -10.4717    6.0323 H   0  0  0  0  0  0
   19.2449   -9.9079    7.3320 H   0  0  0  0  0  0
   17.8242   -7.1741    5.8974 H   0  0  0  0  0  0
   16.2620   -6.8750    8.3559 H   0  0  0  0  0  0
   16.6056   -5.1811    5.8831 H   0  0  0  0  0  0
   15.2805   -4.7811    7.0279 H   0  0  0  0  0  0
   16.9186   -4.6124    8.8733 H   0  0  0  0  0  0
   18.2468   -5.0282    7.7377 H   0  0  0  0  0  0
   16.4653   -2.5564    7.6790 H   0  0  0  0  0  0
   18.2201   -2.6386    8.0536 H   0  0  0  0  0  0
   17.8987   -3.8023    5.4174 H   0  0  0  0  0  0
   17.4017   -0.5843    7.1063 H   0  0  0  0  0  0
   17.7212    0.3472    5.4753 H   0  0  0  0  0  0
   18.2296   -2.7077    3.5760 H   0  0  0  0  0  0
   15.4906   -8.0329    5.1782 H   0  0  0  0  0  0
   12.5691   -8.0177    5.6667 H   0  0  0  0  0  0
   13.6053   -8.0123    3.3650 H   0  0  0  0  0  0
   12.4441   -9.3696    3.5550 H   0  0  0  0  0  0
   14.2109   -9.6794    3.6495 H   0  0  0  0  0  0
   14.9084   -9.7902    7.1322 H   0  0  0  0  0  0
   14.9114  -11.7746    8.2991 H   0  0  0  0  0  0
   11.8768  -11.2552    8.4680 H   0  0  0  0  0  0
   12.7462  -12.4331    9.5089 H   0  0  0  0  0  0
   14.2292  -10.5310   10.2697 H   0  0  0  0  0  0
   13.1413   -9.4122    9.3801 H   0  0  0  0  0  0
   12.1788  -11.4030   11.5001 H   0  0  0  0  0  0
   12.5826   -9.6877   11.8485 H   0  0  0  0  0  0
   10.8889   -8.9377   10.3713 H   0  0  0  0  0  0
    9.6299  -11.0739   11.2166 H   0  0  0  0  0  0
   10.4655  -11.4854   12.6817 H   0  0  0  0  0  0
    9.7184  -11.0196   14.7184 H   0  0  0  0  0  0
    8.3684  -11.3519   13.5809 H   0  0  0  0  0  0
    8.7027   -9.6683   14.1106 H   0  0  0  0  0  0
    7.9218  -10.5275   11.2355 H   0  0  0  0  0  0
    7.2151   -8.9614    9.7343 H   0  0  0  0  0  0
    8.5390   -9.9682    9.0557 H   0  0  0  0  0  0
    8.8716   -8.2833    9.5822 H   0  0  0  0  0  0
   15.0412  -12.2186    5.6684 H   0  0  0  0  0  0
   15.0552  -14.1837    4.2906 H   0  0  0  0  0  0
   14.2735  -15.1259    5.6051 H   0  0  0  0  0  0
   12.3833  -12.4878    5.3064 H   0  0  0  0  0  0
   10.4840  -14.1140    3.5897 H   0  0  0  0  0  0
    9.7520  -11.5189    5.0476 H   0  0  0  0  0  0
    8.6848  -12.8944    4.6051 H   0  0  0  0  0  0
   10.8287  -12.9809    6.7724 H   0  0  0  0  0  0
    9.0786  -12.6791    7.0419 H   0  0  0  0  0  0
   11.3845  -14.8776    7.5633 H   0  0  0  0  0  0
   10.3744  -16.4693    7.2870 H   0  0  0  0  0  0
   10.7999   -9.8019   13.2114 H   0  0  0  0  0  0
   18.1693   -0.8035    3.5645 H   0  0  0  0  0  0
  1  2  1  0  0  0
  1 48  1  0  0  0
  1 49  1  0  0  0
  1 50  1  0  0  0
  2  3  1  0  0  0
  2 51  1  0  0  0
  2 52  1  0  0  0
  3  4  2  0  0  0
  3  5  1  0  0  0
  5  6  1  0  0  0
  5 53  1  0  0  0
  6  7  1  0  0  0
  6  9  1  0  0  0
  6 54  1  0  0  0
  7  8  2  0  0  0
  7 16  1  0  0  0
  9 10  1  0  0  0
  9 55  1  0  0  0
  9 56  1  0  0  0
 10 11  1  0  0  0
 10 57  1  0  0  0
 10 58  1  0  0  0
 11 12  1  0  0  0
 11 59  1  0  0  0
 11 60  1  0  0  0
 12 13  1  0  0  0
 12 61  1  0  0  0
 13 14  1  0  0  0
 13 15  2  0  0  0
 14 62  1  0  0  0
 14 63  1  0  0  0
 15 64  1  0  0  0
 15100  1  0  0  0
 16 17  1  0  0  0
 16 65  1  0  0  0
 17 18  1  0  0  0
 17 20  1  0  0  0
 17 66  1  0  0  0
 18 19  2  0  0  0
 18 21  1  0  0  0
 20 67  1  0  0  0
 20 68  1  0  0  0
 20 69  1  0  0  0
 21 22  1  0  0  0
 21 70  1  0  0  0
 22 23  1  0  0  0
 22 32  1  0  0  0
 22 71  1  0  0  0
 23 24  1  0  0  0
 23 72  1  0  0  0
 23 73  1  0  0  0
 24 25  1  0  0  0
 24 74  1  0  0  0
 24 75  1  0  0  0
 25 26  1  0  0  0
 25 76  1  0  0  0
 25 77  1  0  0  0
 26 27  1  0  0  0
 26 78  1  0  0  0
 27 28  1  0  0  0
 27 30  1  0  0  0
 27 79  1  0  0  0
 28 29  1  0  0  0
 28 80  1  0  0  0
 28 99  1  0  0  0
 29 81  1  0  0  0
 29 82  1  0  0  0
 29 83  1  0  0  0
 30 31  1  0  0  0
 30 84  1  0  0  0
 31 85  1  0  0  0
 31 86  1  0  0  0
 31 87  1  0  0  0
 32 33  2  0  0  0
 32 34  1  0  0  0
 34 35  1  0  0  0
 34 88  1  0  0  0
 35 36  1  0  0  0
 35 89  1  0  0  0
 35 90  1  0  0  0
 36 37  2  0  0  0
 36 38  1  0  0  0
 38 39  1  0  0  0
 38 91  1  0  0  0
 39 40  1  0  0  0
 39 42  1  0  0  0
 39 92  1  0  0  0
 40 41  1  0  0  0
 40 47  2  0  0  0
 42 43  1  0  0  0
 42 93  1  0  0  0
 42 94  1  0  0  0
 43 44  1  0  0  0
 43 95  1  0  0  0
 43 96  1  0  0  0
 44 45  2  0  0  0
 44 46  1  0  0  0
 46 97  1  0  0  0
 46 98  1  0  0  0
M  CHG  4   1   1  15   1  28   1  41  -1
M  END
> <s_m_source_file>
../3omg_ligand.sdf

> <i_m_source_file_index>
1

> <s_epik_input>
W0hdL049QyhbTkgyXSlcW05IXVtDSDJdW0NIMl1bQ0gyXVtDQEhdKFtOSF1DKD1PKVtDSDJdW05IMytdKUMoPU8pW05IXVtDQEBIXShbQ0gzXSlDKD1PKVtOSF1bQ0BASF0oW0NIMl1bQ0gyXVtDSDJdW05IXVtDSF0oW05IXVtDSDNdKVtOSF1bQ0gzXSlDKD1PKVtOSF1bQ0gyXUMoPU8pW05IXVtDQEhdKEMoPU8pW09IXSlbQ0gyXVtDSDJdQyg9TylbTkgyXQ==

> <s_epik_cmdline>
J2VwaWtfYXBwJywgJy1pbWFlJywgJ2xpZ2FuZF9wcm8ubWFlJywgJy1vbWFlJywgJ2xpZ2FuZF9wcmVwLm1hZScsICctbXMnLCAnMScsICctcGgnLCAnNycsICctcGh0JywgJzAuNScsICctbnQn

> <r_lp_tautomer_probability>
1

> <r_epik_Ionization_Penalty>
  0.1252

> <r_epik_Ionization_Penalty_Charging>
  0.1252

> <r_epik_Ionization_Penalty_Neutral>
  0.0000

> <r_epik_State_Penalty>
 -0.0000

> <r_epik_Charging_Adjusted_Penalty>
0.125181864777532

> <i_epik_Tot_Q>
2

> <i_epik_Tot_abs_Q>
4

> <s_epik_Chemistry_Notes>
This compound has an imine and may undergo hydrolysis. This compound contains an acetal/aminal-like group ( X-CH(R)-Y where X, Y are N, S, or O) that may be acid/base labile, releasing an aldehyde.

$$$$
