3oob_ligand
                    3D
 Schrodinger Suite 2020-3.
 51 54  0  0  1  0            999 V2000
   28.6200   36.4380   21.2270 O   0  0  0  0  0  0
   29.1040   35.4690   20.3880 C   0  0  0  0  0  0
   30.2600   34.7520   20.6970 C   0  0  0  0  0  0
   30.9390   35.0010   21.8510 O   0  0  0  0  0  0
   30.7300   33.7710   19.8290 C   0  0  0  0  0  0
   31.8620   33.0740   20.1240 O   0  0  0  0  0  0
   30.0480   33.5020   18.6440 C   0  0  0  0  0  0
   28.8890   34.2160   18.3280 C   0  0  0  0  0  0
   28.1390   33.9500   17.0740 C   0  0  2  0  0  0
   28.4660   32.6350   15.0300 C   0  0  0  0  0  0
   29.3080   32.2150   14.0000 C   0  0  0  0  0  0
   28.7890   31.4790   12.9330 C   0  0  0  0  0  0
   27.4330   31.1660   12.8960 C   0  0  0  0  0  0
   26.5900   31.5830   13.9250 C   0  0  0  0  0  0
   27.1090   32.3120   14.9910 C   0  0  0  0  0  0
   26.9820   33.0060   17.3740 C   0  0  1  0  0  0
   26.7200   30.9140   18.6630 C   0  0  0  0  0  0
   27.4540   29.8390   19.4020 C   0  0  0  0  0  0
   26.8070   28.8170   20.1010 C   0  0  0  0  0  0
   28.8370   29.9000   19.3610 C   0  0  0  0  0  0
   26.1830   32.7510   16.0990 C   0  0  0  0  0  0
   28.9910   33.3610   16.0780 O   0  0  0  0  0  0
   29.6040   31.0630   11.9250 O   0  0  0  0  0  0
   25.2620   31.2680   13.8860 O   0  0  0  0  0  0
   28.4220   35.1990   19.2030 C   0  0  0  0  0  0
   27.5480   31.7770   17.8340 O   0  0  0  0  0  0
   25.5120   31.0490   18.7500 O   0  0  0  0  0  0
   29.5980   28.9540   20.0150 C   0  0  0  0  0  0
   30.9550   29.0290   19.9600 O   0  0  0  0  0  0
   28.9750   27.9310   20.7200 C   0  0  0  0  0  0
   29.7440   26.9970   21.3530 O   0  0  0  0  0  0
   27.5880   27.8540   20.7630 C   0  0  0  0  0  0
   26.9880   26.8420   21.4350 O   0  0  0  0  0  0
   29.1453   36.6645   22.1666 H   0  0  0  0  0  0
   30.5781   35.7738   22.5457 H   0  0  0  0  0  0
   32.4070   33.2795   21.0571 H   0  0  0  0  0  0
   30.4184   32.7350   17.9638 H   0  0  0  0  0  0
   27.8024   34.9084   16.6519 H   0  0  0  0  0  0
   30.3695   32.4611   14.0282 H   0  0  0  0  0  0
   27.0296   30.5937   12.0607 H   0  0  0  0  0  0
   26.3244   33.3903   18.1676 H   0  0  0  0  0  0
   25.7186   28.7674   20.1324 H   0  0  0  0  0  0
   29.3273   30.7012   18.8080 H   0  0  0  0  0  0
   25.6689   33.6770   15.8019 H   0  0  0  0  0  0
   25.4390   31.9633   16.2888 H   0  0  0  0  0  0
   30.6763   31.3071   11.9484 H   0  0  0  0  0  0
   24.8581   30.6916   13.0407 H   0  0  0  0  0  0
   27.5191   35.7582   18.9578 H   0  0  0  0  0  0
   31.4386   29.8425   19.3994 H   0  0  0  0  0  0
   30.8409   27.0683   21.3120 H   0  0  0  0  0  0
   25.8903   26.7797   21.4700 H   0  0  0  0  0  0
  1  2  1  0  0  0
  1 34  1  0  0  0
  2  3  2  0  0  0
  2 25  1  0  0  0
  3  4  1  0  0  0
  3  5  1  0  0  0
  4 35  1  0  0  0
  5  6  1  0  0  0
  5  7  2  0  0  0
  6 36  1  0  0  0
  7  8  1  0  0  0
  7 37  1  0  0  0
  8  9  1  0  0  0
  8 25  2  0  0  0
  9 16  1  0  0  0
  9 22  1  0  0  0
  9 38  1  0  0  0
 10 11  2  0  0  0
 10 15  1  0  0  0
 10 22  1  0  0  0
 11 12  1  0  0  0
 11 39  1  0  0  0
 12 13  2  0  0  0
 12 23  1  0  0  0
 13 14  1  0  0  0
 13 40  1  0  0  0
 14 15  2  0  0  0
 14 24  1  0  0  0
 15 21  1  0  0  0
 16 21  1  0  0  0
 16 26  1  0  0  0
 16 41  1  0  0  0
 17 18  1  0  0  0
 17 26  1  0  0  0
 17 27  2  0  0  0
 18 19  2  0  0  0
 18 20  1  0  0  0
 19 32  1  0  0  0
 19 42  1  0  0  0
 20 28  2  0  0  0
 20 43  1  0  0  0
 21 44  1  0  0  0
 21 45  1  0  0  0
 23 46  1  0  0  0
 24 47  1  0  0  0
 25 48  1  0  0  0
 28 29  1  0  0  0
 28 30  1  0  0  0
 29 49  1  0  0  0
 30 31  1  0  0  0
 30 32  2  0  0  0
 31 50  1  0  0  0
 32 33  1  0  0  0
 33 51  1  0  0  0
M  END
> <s_m_source_file>
../3oob_ligand.sdf

> <i_m_source_file_index>
1

> <s_epik_input>
W09IXWMxYyhbT0hdKWMoW09IXSlbY0hdYyhbY0hdMSlbQ0BASF0oTzIpW0NAQEhdKFtDSDJdYyhjMjMpYyhbT0hdKVtjSF1jKFtjSF0zKVtPSF0pT0MoPU8pYzRbY0hdYyhbT0hdKWMoW09IXSljKFtjSF00KVtPSF0=

> <s_epik_cmdline>
J2VwaWtfYXBwJywgJy1pbWFlJywgJ2xpZ2FuZF9wcm8ubWFlJywgJy1vbWFlJywgJ2xpZ2FuZF9wcmVwLm1hZScsICctbXMnLCAnMScsICctcGgnLCAnNycsICctcGh0JywgJzAuNScsICctbnQn

> <r_lp_tautomer_probability>
0.999999999957461

> <r_epik_Ionization_Penalty>
  0.1009

> <r_epik_Ionization_Penalty_Charging>
  0.0000

> <r_epik_Ionization_Penalty_Neutral>
  0.1009

> <r_epik_State_Penalty>
  0.0725

> <r_epik_Charging_Adjusted_Penalty>
0.0725101144005983

> <i_epik_Tot_Q>
0

> <i_epik_Tot_abs_Q>
0

> <s_epik_Chemistry_Notes>
This compound has an ester and may undergo hydrolysis at high or low pH.

$$$$
