3oof_ligand
                    3D
 Schrodinger Suite 2020-3.
 60 64  0  0  1  0            999 V2000
   22.7090   11.0990   52.2500 N   0  0  0  0  0  0
   23.2350   11.8720   53.3320 C   0  0  0  0  0  0
   23.9980   11.1550   54.1430 N   0  0  0  0  0  0
   23.1190    9.7900   52.4530 C   0  0  0  0  0  0
   23.9120    9.8260   53.6590 C   0  0  0  0  0  0
   20.6490   10.7520   50.9510 C   0  0  0  0  0  0
   21.9730   11.5760   51.1060 C   0  0  2  0  0  0
   22.8970    8.6180   51.7310 C   0  0  0  0  0  0
   24.4390    8.6320   54.1800 C   0  0  0  0  0  0
   19.9250   10.5460   52.1210 N   0  0  0  0  0  0
   23.4790    7.4490   52.2330 C   0  0  0  0  0  0
   23.0210   13.3100   53.4270 C   0  0  0  0  0  0
   24.1950    7.4600   53.4640 C   0  0  0  0  0  0
   14.9520    7.7890   52.5180 C   0  0  0  0  0  0
   20.3030   10.3030   49.8470 O   0  0  0  0  0  0
   16.2170    8.5390   52.4880 C   0  0  0  0  0  0
   14.1300    7.6380   51.6140 O   0  0  0  0  0  0
   22.7980   11.5070   49.7860 C   0  0  0  0  0  0
   24.1170   14.1900   53.3660 C   0  0  0  0  0  0
   21.7340   13.8120   53.5660 C   0  0  0  0  0  0
   18.6900    9.8850   52.2810 C   0  0  0  0  0  0
   16.7080    9.2730   53.5720 C   0  0  0  0  0  0
   16.9540    8.4980   51.2990 C   0  0  0  0  0  0
   23.3280    6.2520   51.6160 F   0  0  0  0  0  0
   24.7460    6.2900   53.8320 F   0  0  0  0  0  0
   14.6540    7.1190   53.6640 O   0  5  0  0  0  0
   22.5810   16.0550   53.5150 C   0  0  0  0  0  0
   17.9320    9.9280   53.4740 C   0  0  0  0  0  0
   18.1710    9.1400   51.1950 C   0  0  0  0  0  0
   23.8940   15.5730   53.4190 C   0  0  0  0  0  0
   21.4950   15.1790   53.5930 C   0  0  0  0  0  0
   22.2810   17.7160   53.5200 Cl  0  0  0  0  0  0
   22.1720   12.4180   48.7310 C   0  0  0  0  0  0
   24.2830   11.8530   49.9860 C   0  0  0  0  0  0
   25.0630   11.8220   48.6830 C   0  0  0  0  0  0
   22.9620   12.3550   47.4350 C   0  0  0  0  0  0
   24.4160   12.7310   47.6480 C   0  0  0  0  0  0
   21.7906   12.6304   51.3608 H   0  0  0  0  0  0
   22.2990    8.6128   50.8197 H   0  0  0  0  0  0
   25.0147    8.6221   55.1055 H   0  0  0  0  0  0
   20.3106   10.9225   53.0799 H   0  0  0  0  0  0
   22.7714   10.4693   49.4221 H   0  0  0  0  0  0
   25.1310   13.7998   53.2783 H   0  0  0  0  0  0
   20.8964   13.1203   53.6555 H   0  0  0  0  0  0
   16.1313    9.3323   54.4951 H   0  0  0  0  0  0
   16.5608    7.9507   50.4423 H   0  0  0  0  0  0
   18.3127   10.4834   54.3311 H   0  0  0  0  0  0
   18.7386    9.0728   50.2669 H   0  0  0  0  0  0
   24.7337   16.2672   53.3859 H   0  0  0  0  0  0
   20.4779   15.5626   53.6736 H   0  0  0  0  0  0
   21.1387   12.0958   48.5349 H   0  0  0  0  0  0
   22.1694   13.4553   49.0971 H   0  0  0  0  0  0
   24.3699   12.8639   50.4109 H   0  0  0  0  0  0
   24.7396   11.1258   50.6735 H   0  0  0  0  0  0
   26.0925   12.1648   48.8637 H   0  0  0  0  0  0
   25.0822   10.7942   48.2915 H   0  0  0  0  0  0
   22.9236   11.3324   47.0315 H   0  0  0  0  0  0
   22.5262   13.0536   46.7056 H   0  0  0  0  0  0
   24.4656   13.7740   47.9939 H   0  0  0  0  0  0
   24.9506   12.6362   46.6913 H   0  0  0  0  0  0
  1  2  1  0  0  0
  1  4  1  0  0  0
  1  7  1  0  0  0
  2  3  2  0  0  0
  2 12  1  0  0  0
  3  5  1  0  0  0
  4  5  2  0  0  0
  4  8  1  0  0  0
  5  9  1  0  0  0
  6  7  1  0  0  0
  6 10  1  0  0  0
  6 15  2  0  0  0
  7 18  1  0  0  0
  7 38  1  0  0  0
  8 11  2  0  0  0
  8 39  1  0  0  0
  9 13  2  0  0  0
  9 40  1  0  0  0
 10 21  1  0  0  0
 10 41  1  0  0  0
 11 13  1  0  0  0
 11 24  1  0  0  0
 12 19  2  0  0  0
 12 20  1  0  0  0
 13 25  1  0  0  0
 14 16  1  0  0  0
 14 17  2  0  0  0
 14 26  1  0  0  0
 16 22  2  0  0  0
 16 23  1  0  0  0
 18 33  1  0  0  0
 18 34  1  0  0  0
 18 42  1  0  0  0
 19 30  1  0  0  0
 19 43  1  0  0  0
 20 31  2  0  0  0
 20 44  1  0  0  0
 21 28  2  0  0  0
 21 29  1  0  0  0
 22 28  1  0  0  0
 22 45  1  0  0  0
 23 29  2  0  0  0
 23 46  1  0  0  0
 27 30  2  0  0  0
 27 31  1  0  0  0
 27 32  1  0  0  0
 28 47  1  0  0  0
 29 48  1  0  0  0
 30 49  1  0  0  0
 31 50  1  0  0  0
 33 36  1  0  0  0
 33 51  1  0  0  0
 33 52  1  0  0  0
 34 35  1  0  0  0
 34 53  1  0  0  0
 34 54  1  0  0  0
 35 37  1  0  0  0
 35 55  1  0  0  0
 35 56  1  0  0  0
 36 37  1  0  0  0
 36 57  1  0  0  0
 36 58  1  0  0  0
 37 59  1  0  0  0
 37 60  1  0  0  0
M  CHG  1  26  -1
M  END
> <s_m_source_file>
../3oof_ligand.sdf

> <i_m_source_file_index>
1

> <s_epik_input>
W2NIXTFjKEYpYyhGKVtjSF1jKGMxMiluYygtYzNbY0hdW2NIXWMoQ2wpW2NIXVtjSF0zKW4yW0NAQEhdKFtDSF00W0NIMl1bQ0gyXVtDSDJdW0NIMl1bQ0gyXTQpQyg9TylbTkhdYyhbY0hdW2NIXTUpW2NIXVtjSF1jNUMoPU8pW09IXQ==

> <s_epik_cmdline>
J2VwaWtfYXBwJywgJy1pbWFlJywgJ2xpZ2FuZF9wcm8ubWFlJywgJy1vbWFlJywgJ2xpZ2FuZF9wcmVwLm1hZScsICctbXMnLCAnMScsICctcGgnLCAnNycsICctcGh0JywgJzAuNScsICctbnQn

> <r_epik_Ionization_Penalty>
  0.1404

> <r_epik_Ionization_Penalty_Charging>
  0.0009

> <r_epik_Ionization_Penalty_Neutral>
  0.1395

> <r_epik_State_Penalty>
  0.1288

> <r_epik_Charging_Adjusted_Penalty>
0.129723460106082

> <i_epik_Tot_Q>
-1

> <i_epik_Tot_abs_Q>
1

$$$$
