3ook_ligand
                    3D
 Schrodinger Suite 2020-3.
 60 64  0  0  1  0            999 V2000
   23.4380   17.7780    3.4490 N   0  0  0  0  0  0
   22.5910   17.0860    2.6230 C   0  0  0  0  0  0
   23.2210   16.1010    2.0480 N   0  0  0  0  0  0
   24.6660   17.1810    3.3450 C   0  0  0  0  0  0
   24.5080   16.1040    2.4500 C   0  0  0  0  0  0
   23.9840   20.0800    3.9250 C   0  0  0  0  0  0
   24.2200   20.2790    2.6050 N   0  0  0  0  0  0
   25.0320   21.3030    2.1230 C   0  0  0  0  0  0
   23.0970   18.9150    4.3110 C   0  0  2  0  0  0
   25.8960   17.4370    3.9330 C   0  0  0  0  0  0
   24.5290   22.6000    1.9610 C   0  0  0  0  0  0
   26.3870   21.0220    1.8610 C   0  0  0  0  0  0
   26.7320   23.3130    1.2330 C   0  0  0  0  0  0
   25.6130   15.3210    2.1050 C   0  0  0  0  0  0
   27.6600   24.3830    0.7890 C   0  0  0  0  0  0
   26.9640   16.6330    3.6250 C   0  0  0  0  0  0
   21.1560   17.3880    2.4650 C   0  0  0  0  0  0
   26.8210   15.6010    2.6950 C   0  0  0  0  0  0
   27.2220   22.0190    1.4080 C   0  0  0  0  0  0
   25.3790   23.6030    1.5200 C   0  0  0  0  0  0
   24.4480   20.8220    4.7580 O   0  0  0  0  0  0
   28.8040   24.1430    0.4560 O   0  0  0  0  0  0
   23.1710   18.4730    5.7910 C   0  0  0  0  0  0
   20.7860   18.6440    1.9850 C   0  0  0  0  0  0
   20.1930   16.4700    2.9040 C   0  0  0  0  0  0
   26.9030   19.7930    2.0700 F   0  0  0  0  0  0
   23.2290   22.8740    2.2280 F   0  0  0  0  0  0
   28.1590   16.8710    4.1960 F   0  0  0  0  0  0
   27.8620   14.7940    2.4670 F   0  0  0  0  0  0
   27.2470   25.6510    0.8020 O   0  5  0  0  0  0
   18.4940   18.0240    2.2360 C   0  0  0  0  0  0
   18.8560   16.7850    2.7540 C   0  0  0  0  0  0
   19.4590   18.9390    1.8480 C   0  0  0  0  0  0
   16.8290   18.4710    2.0700 Cl  0  0  0  0  0  0
   22.4620   19.5060    6.6800 C   0  0  0  0  0  0
   22.5100   17.0840    5.9650 C   0  0  0  0  0  0
   22.4290   19.0510    8.1470 C   0  0  0  0  0  0
   22.5790   16.6150    7.4310 C   0  0  0  0  0  0
   21.8130   17.6350    8.2920 C   0  0  0  0  0  0
   23.7609   19.6148    1.8579 H   0  0  0  0  0  0
   22.0635   19.2436    4.1268 H   0  0  0  0  0  0
   26.0124   18.2663    4.6307 H   0  0  0  0  0  0
   25.5183   14.5080    1.3852 H   0  0  0  0  0  0
   28.2658   21.7968    1.1862 H   0  0  0  0  0  0
   25.0024   24.6181    1.3943 H   0  0  0  0  0  0
   24.2261   18.4102    6.0957 H   0  0  0  0  0  0
   21.5454   19.3806    1.7226 H   0  0  0  0  0  0
   20.4930   15.5244    3.3557 H   0  0  0  0  0  0
   18.0886   16.0658    3.0403 H   0  0  0  0  0  0
   19.1579   19.9000    1.4309 H   0  0  0  0  0  0
   22.9956   20.4662    6.6234 H   0  0  0  0  0  0
   21.4272   19.6406    6.3320 H   0  0  0  0  0  0
   21.4536   17.1403    5.6636 H   0  0  0  0  0  0
   23.0321   16.3481    5.3358 H   0  0  0  0  0  0
   23.4536   19.0264    8.5464 H   0  0  0  0  0  0
   21.8228   19.7552    8.7358 H   0  0  0  0  0  0
   22.1181   15.6202    7.5198 H   0  0  0  0  0  0
   23.6304   16.5617    7.7498 H   0  0  0  0  0  0
   21.8633   17.3193    9.3445 H   0  0  0  0  0  0
   20.7628   17.6568    7.9656 H   0  0  0  0  0  0
  1  2  1  0  0  0
  1  4  1  0  0  0
  1  9  1  0  0  0
  2  3  2  0  0  0
  2 17  1  0  0  0
  3  5  1  0  0  0
  4  5  2  0  0  0
  4 10  1  0  0  0
  5 14  1  0  0  0
  6  7  1  0  0  0
  6  9  1  0  0  0
  6 21  2  0  0  0
  7  8  1  0  0  0
  7 40  1  0  0  0
  8 11  2  0  0  0
  8 12  1  0  0  0
  9 23  1  0  0  0
  9 41  1  0  0  0
 10 16  2  0  0  0
 10 42  1  0  0  0
 11 20  1  0  0  0
 11 27  1  0  0  0
 12 19  2  0  0  0
 12 26  1  0  0  0
 13 15  1  0  0  0
 13 19  1  0  0  0
 13 20  2  0  0  0
 14 18  2  0  0  0
 14 43  1  0  0  0
 15 22  2  0  0  0
 15 30  1  0  0  0
 16 18  1  0  0  0
 16 28  1  0  0  0
 17 24  2  0  0  0
 17 25  1  0  0  0
 18 29  1  0  0  0
 19 44  1  0  0  0
 20 45  1  0  0  0
 23 35  1  0  0  0
 23 36  1  0  0  0
 23 46  1  0  0  0
 24 33  1  0  0  0
 24 47  1  0  0  0
 25 32  2  0  0  0
 25 48  1  0  0  0
 31 32  1  0  0  0
 31 33  2  0  0  0
 31 34  1  0  0  0
 32 49  1  0  0  0
 33 50  1  0  0  0
 35 37  1  0  0  0
 35 51  1  0  0  0
 35 52  1  0  0  0
 36 38  1  0  0  0
 36 53  1  0  0  0
 36 54  1  0  0  0
 37 39  1  0  0  0
 37 55  1  0  0  0
 37 56  1  0  0  0
 38 39  1  0  0  0
 38 57  1  0  0  0
 38 58  1  0  0  0
 39 59  1  0  0  0
 39 60  1  0  0  0
M  CHG  1  30  -1
M  END
> <s_m_source_file>
../3ook_ligand.sdf

> <i_m_source_file_index>
1

> <s_epik_input>
W2NIXTFjKEYpYyhGKVtjSF1jKGMxMiluYygtYzNbY0hdW2NIXWMoQ2wpW2NIXVtjSF0zKW4yW0NAQEhdKFtDSF00W0NIMl1bQ0gyXVtDSDJdW0NIMl1bQ0gyXTQpQyg9TylbTkhdYzVjKEYpW2NIXWMoQyg9TylbT0hdKVtjSF1jNUY=

> <s_epik_cmdline>
J2VwaWtfYXBwJywgJy1pbWFlJywgJ2xpZ2FuZF9wcm8ubWFlJywgJy1vbWFlJywgJ2xpZ2FuZF9wcmVwLm1hZScsICctbXMnLCAnMScsICctcGgnLCAnNycsICctcGh0JywgJzAuNScsICctbnQn

> <r_epik_Ionization_Penalty>
  0.1397

> <r_epik_Ionization_Penalty_Charging>
  0.0002

> <r_epik_Ionization_Penalty_Neutral>
  0.1395

> <r_epik_State_Penalty>
  0.1288

> <r_epik_Charging_Adjusted_Penalty>
0.129004229718976

> <i_epik_Tot_Q>
-1

> <i_epik_Tot_abs_Q>
1

$$$$
