3ooz_ligand
                    3D
 Schrodinger Suite 2020-3.
 51 53  0  0  1  0            999 V2000
   15.9290   -4.1890   17.8560 C   0  0  0  0  0  0
   17.9220  -14.2740   16.7700 F   0  0  0  0  0  0
   15.4130   -5.3580   17.1410 N   0  0  0  0  0  0
   14.4670   -6.4710   18.9600 O   0  0  0  0  0  0
   14.7540   -6.3850   17.7700 C   0  0  0  0  0  0
   16.1050  -14.0330   15.5840 F   0  0  0  0  0  0
   14.9450   -6.7540   15.4550 N   0  3  0  0  0  0
   16.4020  -12.7320   17.3670 O   0  0  0  0  0  0
   14.3690   -7.3970   16.6730 C   0  0  1  0  0  0
   10.4870   -2.2670   12.8620 F   0  0  0  0  0  0
   16.1290   -4.8280   14.9070 N   0  0  0  0  0  0
   15.5010   -5.6370   15.8100 C   0  0  0  0  0  0
    8.6900   -7.4760   16.6500 F   0  0  0  0  0  0
   14.9330   -8.8190   16.8930 C   0  0  0  0  0  0
   15.3700   -9.3200   18.1340 C   0  0  0  0  0  0
   15.8530  -10.6310   18.2420 C   0  0  0  0  0  0
   15.9110  -11.4680   17.1280 C   0  0  0  0  0  0
   15.4820  -10.9800   15.8890 C   0  0  0  0  0  0
   15.0040   -9.6670   15.7760 C   0  0  0  0  0  0
   17.0590  -13.3640   16.2820 C   0  0  0  0  0  0
   12.8390   -7.4460   16.6410 C   0  0  0  0  0  0
   12.1120   -8.4730   17.2900 C   0  0  0  0  0  0
   10.7140   -8.4860   17.2900 C   0  0  0  0  0  0
   10.0320   -7.4600   16.6440 C   0  0  0  0  0  0
   10.7270   -6.4200   16.0030 C   0  0  0  0  0  0
   12.1200   -6.4080   16.0010 C   0  0  0  0  0  0
   10.0130   -5.3800   15.3460 C   0  0  0  0  0  0
    9.3920   -4.5170   14.7960 C   0  0  0  0  0  0
    8.6400   -3.4480   14.1320 C   0  0  0  0  0  0
    9.0380   -2.0710   14.6770 C   0  0  0  0  0  0
   10.3510   -1.6130   14.0590 C   0  0  0  0  0  0
   15.6861   -4.2765   18.9253 H   0  0  0  0  0  0
   15.4680   -3.2771   17.4487 H   0  0  0  0  0  0
   17.0206   -4.1352   17.7312 H   0  0  0  0  0  0
   16.5909   -3.8868   15.2398 H   0  0  0  0  0  0
   15.3323   -8.6831   19.0178 H   0  0  0  0  0  0
   16.1882  -11.0019   19.2106 H   0  0  0  0  0  0
   15.5195  -11.6224   15.0092 H   0  0  0  0  0  0
   14.6813   -9.2973   14.8027 H   0  0  0  0  0  0
   17.6110  -12.6652   15.6363 H   0  0  0  0  0  0
   12.6533   -9.2698   17.8001 H   0  0  0  0  0  0
   10.1674   -9.2869   17.7880 H   0  0  0  0  0  0
   12.6568   -5.5986   15.5062 H   0  0  0  0  0  0
    8.8460   -3.4713   13.0517 H   0  0  0  0  0  0
    7.5635   -3.5960   14.3033 H   0  0  0  0  0  0
    8.2536   -1.3394   14.4330 H   0  0  0  0  0  0
    9.1580   -2.1295   15.7689 H   0  0  0  0  0  0
   11.1966   -1.8685   14.7145 H   0  0  0  0  0  0
   10.3378   -0.5271   13.8841 H   0  0  0  0  0  0
   16.1730   -5.1174   13.8467 H   0  0  0  0  0  0
   14.9617   -7.0659   14.4003 H   0  0  0  0  0  0
  1  3  1  0  0  0
  1 32  1  0  0  0
  1 33  1  0  0  0
  1 34  1  0  0  0
  2 20  1  0  0  0
  3  5  1  0  0  0
  3 12  1  0  0  0
  4  5  2  0  0  0
  5  9  1  0  0  0
  6 20  1  0  0  0
  7  9  1  0  0  0
  7 12  2  0  0  0
  7 51  1  0  0  0
  8 17  1  0  0  0
  8 20  1  0  0  0
  9 14  1  0  0  0
  9 21  1  0  0  0
 10 31  1  0  0  0
 11 12  1  0  0  0
 11 35  1  0  0  0
 11 50  1  0  0  0
 13 24  1  0  0  0
 14 15  2  0  0  0
 14 19  1  0  0  0
 15 16  1  0  0  0
 15 36  1  0  0  0
 16 17  2  0  0  0
 16 37  1  0  0  0
 17 18  1  0  0  0
 18 19  2  0  0  0
 18 38  1  0  0  0
 19 39  1  0  0  0
 20 40  1  0  0  0
 21 22  2  0  0  0
 21 26  1  0  0  0
 22 23  1  0  0  0
 22 41  1  0  0  0
 23 24  2  0  0  0
 23 42  1  0  0  0
 24 25  1  0  0  0
 25 26  2  0  0  0
 25 27  1  0  0  0
 26 43  1  0  0  0
 27 28  3  0  0  0
 28 29  1  0  0  0
 29 30  1  0  0  0
 29 44  1  0  0  0
 29 45  1  0  0  0
 30 31  1  0  0  0
 30 46  1  0  0  0
 30 47  1  0  0  0
 31 48  1  0  0  0
 31 49  1  0  0  0
M  CHG  1   7   1
M  END
> <s_m_source_file>
../3ooz_ligand.sdf

> <i_m_source_file_index>
1

> <s_epik_input>
RltDSF0oRilPYyhbY0hdW2NIXTEpW2NIXVtjSF1jMVtDQF0yKEMoPU8pTihbQ0gzXSkvQyhbTkhdMik9TlxbSF0pYzNbY0hdW2NIXWMoRiljKFtjSF0zKUMjQ1tDSDJdW0NIMl1bQ0gyXUY=

> <s_epik_cmdline>
J2VwaWtfYXBwJywgJy1pbWFlJywgJ2xpZ2FuZF9wcm8ubWFlJywgJy1vbWFlJywgJ2xpZ2FuZF9wcmVwLm1hZScsICctbXMnLCAnMScsICctcGgnLCAnNycsICctcGh0JywgJzAuNScsICctbnQn

> <r_lp_tautomer_probability>
1

> <r_epik_Ionization_Penalty>
  0.5554

> <r_epik_Ionization_Penalty_Charging>
  0.5554

> <r_epik_Ionization_Penalty_Neutral>
  0.0000

> <r_epik_State_Penalty>
  0.0031

> <r_epik_Charging_Adjusted_Penalty>
0.558456556482503

> <i_epik_Tot_Q>
1

> <i_epik_Tot_abs_Q>
1

> <s_epik_Chemistry_Notes>
This compound has an imine and may undergo hydrolysis.

$$$$
