3opm_ligand
                    3D
 Schrodinger Suite 2020-3.
 54 56  0  0  1  0            999 V2000
   18.3500  -32.8510   13.6900 C   0  0  0  0  0  0
   17.7940  -31.6790   13.1880 C   0  0  0  0  0  0
   16.6670  -31.1300   13.8180 C   0  0  0  0  0  0
   16.1030  -33.6310   16.6280 C   0  0  0  0  0  0
   18.3430  -34.7130   15.3530 C   0  0  0  0  0  0
   21.9730  -35.3770   14.8280 C   0  0  0  0  0  0
   20.7560  -36.6580   13.1920 C   0  0  0  0  0  0
   18.3450  -36.5980   17.0620 C   0  0  0  0  0  0
   14.6300  -36.0250   17.9110 C   0  0  0  0  0  0
   14.2800  -37.1710   18.8440 C   0  0  0  0  0  0
   14.6120  -36.5640   16.4910 C   0  0  0  0  0  0
   18.2630  -29.9640    9.9490 C   0  0  0  0  0  0
   17.7190  -29.1570    9.1940 O   0  0  0  0  0  0
   19.4270  -30.5810    9.7230 N   0  0  0  0  0  0
   17.5750  -30.2850   11.2390 C   0  0  0  0  0  0
   18.3800  -31.1050   12.0830 O   0  0  0  0  0  0
   16.1120  -31.7600   14.9310 C   0  0  0  0  0  0
   17.7820  -33.4660   14.8090 C   0  0  0  0  0  0
   17.7180  -35.3250   16.5490 C   0  0  0  0  0  0
   19.4800  -36.2540   17.8830 N   0  3  0  0  0  0
   16.6320  -34.7610   17.1180 N   0  0  0  0  0  0
   15.9640  -35.3520   18.2920 C   0  0  0  0  0  0
   15.1040  -33.1420   17.1930 O   0  0  0  0  0  0
   16.6700  -32.9340   15.4340 C   0  0  0  0  0  0
   19.5600  -35.2890   14.7420 C   0  0  0  0  0  0
   19.5480  -36.1680   13.6760 C   0  0  0  0  0  0
   21.9630  -36.2640   13.7630 C   0  0  0  0  0  0
   20.7690  -34.8900   15.3100 C   0  0  0  0  0  0
   19.2264  -33.2886   13.2119 H   0  0  0  0  0  0
   16.2247  -30.2096   13.4367 H   0  0  0  0  0  0
   22.9151  -35.0669   15.2800 H   0  0  0  0  0  0
   20.7579  -37.3581   12.3566 H   0  0  0  0  0  0
   17.6074  -37.1558   17.6577 H   0  0  0  0  0  0
   18.6713  -37.2146   16.2115 H   0  0  0  0  0  0
   13.8726  -35.2316   17.9941 H   0  0  0  0  0  0
   13.3241  -37.6179   18.5333 H   0  0  0  0  0  0
   14.1904  -36.7920   19.8727 H   0  0  0  0  0  0
   15.0720  -37.9332   18.8017 H   0  0  0  0  0  0
   13.6358  -37.0283   16.2874 H   0  0  0  0  0  0
   15.4069  -37.3152   16.3739 H   0  0  0  0  0  0
   14.7802  -35.7388   15.7834 H   0  0  0  0  0  0
   19.9809  -30.3868    8.7927 H   0  0  0  0  0  0
   19.8310  -31.2830   10.4673 H   0  0  0  0  0  0
   17.3517  -29.3522   11.7775 H   0  0  0  0  0  0
   16.6376  -30.8216   11.0310 H   0  0  0  0  0  0
   15.2334  -31.3304   15.4123 H   0  0  0  0  0  0
   19.9483  -37.1732   18.2649 H   0  0  0  0  0  0
   19.1466  -35.6339   18.7282 H   0  0  0  0  0  0
   20.2105  -35.6926   17.2820 H   0  0  0  0  0  0
   15.7753  -34.5513   19.0222 H   0  0  0  0  0  0
   16.6388  -36.0998   18.7341 H   0  0  0  0  0  0
   18.6055  -36.4728   13.2212 H   0  0  0  0  0  0
   22.9025  -36.6541   13.3715 H   0  0  0  0  0  0
   20.7669  -34.1868   16.1429 H   0  0  0  0  0  0
  1  2  2  0  0  0
  1 18  1  0  0  0
  1 29  1  0  0  0
  2  3  1  0  0  0
  2 16  1  0  0  0
  3 17  2  0  0  0
  3 30  1  0  0  0
  4 21  1  0  0  0
  4 23  2  0  0  0
  4 24  1  0  0  0
  5 18  1  0  0  0
  5 19  2  0  0  0
  5 25  1  0  0  0
  6 27  2  0  0  0
  6 28  1  0  0  0
  6 31  1  0  0  0
  7 26  2  0  0  0
  7 27  1  0  0  0
  7 32  1  0  0  0
  8 19  1  0  0  0
  8 20  1  0  0  0
  8 33  1  0  0  0
  8 34  1  0  0  0
  9 10  1  0  0  0
  9 11  1  0  0  0
  9 22  1  0  0  0
  9 35  1  0  0  0
 10 36  1  0  0  0
 10 37  1  0  0  0
 10 38  1  0  0  0
 11 39  1  0  0  0
 11 40  1  0  0  0
 11 41  1  0  0  0
 12 13  2  0  0  0
 12 14  1  0  0  0
 12 15  1  0  0  0
 14 42  1  0  0  0
 14 43  1  0  0  0
 15 16  1  0  0  0
 15 44  1  0  0  0
 15 45  1  0  0  0
 17 24  1  0  0  0
 17 46  1  0  0  0
 18 24  2  0  0  0
 19 21  1  0  0  0
 20 47  1  0  0  0
 20 48  1  0  0  0
 20 49  1  0  0  0
 21 22  1  0  0  0
 22 50  1  0  0  0
 22 51  1  0  0  0
 25 26  1  0  0  0
 25 28  2  0  0  0
 26 52  1  0  0  0
 27 53  1  0  0  0
 28 54  1  0  0  0
M  CHG  1  20   1
M  END
> <s_m_source_file>
../3opm_ligand.sdf

> <i_m_source_file_index>
1

> <s_epik_input>
Tz1DKFtOSDJdKVtDSDJdT2MoW2NIXTEpW2NIXVtjSF1jKGMxMiljKD1PKW4oW0NIMl1bQ0hdKFtDSDNdKVtDSDNdKWMoW0NIMl1bTkgzK10pYzItYzNbY0hdW2NIXVtjSF1bY0hdW2NIXTM=

> <s_epik_cmdline>
J2VwaWtfYXBwJywgJy1pbWFlJywgJ2xpZ2FuZF9wcm8ubWFlJywgJy1vbWFlJywgJ2xpZ2FuZF9wcmVwLm1hZScsICctbXMnLCAnMScsICctcGgnLCAnNycsICctcGh0JywgJzAuNScsICctbnQn

> <r_epik_Ionization_Penalty>
  0.0761

> <r_epik_Ionization_Penalty_Charging>
  0.0761

> <r_epik_Ionization_Penalty_Neutral>
  0.0000

> <r_epik_State_Penalty>
  0.0672

> <r_epik_Charging_Adjusted_Penalty>
0.143310776557637

> <i_epik_Tot_Q>
1

> <i_epik_Tot_abs_Q>
1

$$$$
