3opp_ligand
                    3D
 Schrodinger Suite 2020-3.
 40 39  0  0  1  0            999 V2000
   34.8670   59.6410    3.8500 O   0  5  0  0  0  0
   35.5410   60.5830    3.3800 C   0  0  0  0  0  0
   36.7680   60.7070    3.5580 O   0  0  0  0  0  0
   34.8180   61.6370    2.5660 C   0  0  0  0  0  0
   35.0860   61.4070    1.0820 C   0  0  0  0  0  0
   34.0350   62.0680    0.1970 C   0  0  0  0  0  0
   34.0720   63.5580    0.4390 C   0  0  0  0  0  0
   34.9950   64.2290   -0.0040 O   0  0  0  0  0  0
   33.0160   64.1740    1.2170 O   0  0  0  0  0  0
   33.0580   65.5680    1.5320 C   0  0  0  0  0  0
   31.8050   66.0000    2.2690 C   0  0  1  0  0  0
   31.9820   67.5950    2.7880 S   0  0  0  0  0  0
   33.0580   67.6480    3.7500 O   0  0  0  0  0  0
   32.4380   68.3830    1.6810 O   0  0  0  0  0  0
   30.6390   65.9090    1.2890 C   0  0  0  0  0  0
   31.6140   65.0320    3.4610 C   0  0  2  0  0  0
   30.4290   65.3380    4.3470 C   0  0  0  0  0  0
   30.5260   66.1630    5.2800 O   0  5  0  0  0  0
   29.3740   64.7160    4.1570 O   0  0  0  0  0  0
   32.8530   64.9270    4.2350 N   0  0  0  0  0  0
   33.2090   63.8400    4.9260 C   0  0  0  0  0  0
   32.4110   62.7870    5.1400 C   0  0  0  0  0  0
   32.9190   61.6620    5.9130 C   0  0  0  0  0  0
   33.9140   61.8160    6.6100 O   0  0  0  0  0  0
   33.7369   61.5705    2.7577 H   0  0  0  0  0  0
   35.1806   62.6349    2.8534 H   0  0  0  0  0  0
   36.0678   61.8265    0.8174 H   0  0  0  0  0  0
   35.0797   60.3274    0.8713 H   0  0  0  0  0  0
   34.2574   61.8538   -0.8588 H   0  0  0  0  0  0
   33.0406   61.6715    0.4500 H   0  0  0  0  0  0
   33.9298   65.7735    2.1705 H   0  0  0  0  0  0
   33.1382   66.1516    0.6030 H   0  0  0  0  0  0
   30.8051   66.6076    0.4557 H   0  0  0  0  0  0
   29.7041   66.1708    1.8062 H   0  0  0  0  0  0
   30.5673   64.8831    0.8987 H   0  0  0  0  0  0
   31.4039   64.0296    3.0597 H   0  0  0  0  0  0
   34.2319   63.8461    5.3305 H   0  0  0  0  0  0
   31.3886   62.7803    4.7343 H   0  0  0  0  0  0
   32.4197   60.6826    5.8759 H   0  0  0  0  0  0
   33.5531   65.7747    4.2701 H   0  0  0  0  0  0
  1  2  1  0  0  0
  2  3  2  0  0  0
  2  4  1  0  0  0
  4  5  1  0  0  0
  4 25  1  0  0  0
  4 26  1  0  0  0
  5  6  1  0  0  0
  5 27  1  0  0  0
  5 28  1  0  0  0
  6  7  1  0  0  0
  6 29  1  0  0  0
  6 30  1  0  0  0
  7  8  2  0  0  0
  7  9  1  0  0  0
  9 10  1  0  0  0
 10 11  1  0  0  0
 10 31  1  0  0  0
 10 32  1  0  0  0
 11 12  1  0  0  0
 11 15  1  0  0  0
 11 16  1  0  0  0
 12 13  1  0  0  0
 12 14  1  0  0  0
 15 33  1  0  0  0
 15 34  1  0  0  0
 15 35  1  0  0  0
 16 17  1  0  0  0
 16 20  1  0  0  0
 16 36  1  0  0  0
 17 18  1  0  0  0
 17 19  2  0  0  0
 20 21  1  0  0  0
 20 40  1  0  0  0
 21 22  2  0  0  0
 21 37  1  0  0  0
 22 23  1  0  0  0
 22 38  1  0  0  0
 23 24  2  0  0  0
 23 39  1  0  0  0
M  CHG  2   1  -1  18  -1
M  END
> <s_m_source_file>
../3opp_ligand.sdf

> <i_m_source_file_index>
1

> <s_epik_input>
W09IXUMoPU8pW0NIMl1bQ0gyXVtDSDJdQyg9TylPW0NIMl1bQ0BdKFtDSDNdKShbU0hdKFtPSF0pW09IXSlbQ0BIXShDKD1PKVtPSF0pL049W0NIXVxbQ0gyXVtDSF09Tw==

> <s_epik_cmdline>
J2VwaWtfYXBwJywgJy1pbWFlJywgJ2xpZ2FuZF9wcm8ubWFlJywgJy1vbWFlJywgJ2xpZ2FuZF9wcmVwLm1hZScsICctbXMnLCAnMScsICctcGgnLCAnNycsICctcGh0JywgJzAuNScsICctbnQn

> <r_lp_tautomer_probability>
1

> <r_epik_Ionization_Penalty>
  0.0032

> <r_epik_Ionization_Penalty_Charging>
  0.0032

> <r_epik_Ionization_Penalty_Neutral>
  0.0001

> <r_epik_State_Penalty>
 -0.0000

> <r_epik_Charging_Adjusted_Penalty>
0.00315174213244358

> <i_epik_Tot_Q>
-2

> <i_epik_Tot_abs_Q>
2

> <s_epik_Chemistry_Notes>
This compound has an ester and may undergo hydrolysis at high or low pH. This compound has an imine and may undergo hydrolysis.

$$$$
