3opr_ligand
                    3D
 Schrodinger Suite 2020-3.
 40 39  0  0  1  0            999 V2000
   34.8600   59.8770    3.7490 O   0  5  0  0  0  0
   35.5130   60.8500    3.3170 C   0  0  0  0  0  0
   36.7470   60.9900    3.4470 O   0  0  0  0  0  0
   34.7560   61.9250    2.5800 C   0  0  0  0  0  0
   35.0110   61.6570    1.0960 C   0  0  0  0  0  0
   33.9440   62.2840    0.2130 C   0  0  0  0  0  0
   33.9920   63.7840    0.3680 C   0  0  0  0  0  0
   34.9310   64.4430   -0.0590 O   0  0  0  0  0  0
   32.9090   64.4450    1.0510 O   0  0  0  0  0  0
   32.9830   65.8370    1.3660 C   0  0  0  0  0  0
   31.7520   66.2670    2.1490 C   0  0  1  0  0  0
   31.9860   67.8570    2.6580 S   0  0  0  0  0  0
   33.0780   67.9040    3.6040 O   0  0  0  0  0  0
   32.3460   68.6550    1.5190 O   0  0  0  0  0  0
   30.5530   66.1820    1.2080 C   0  0  0  0  0  0
   31.5340   65.3000    3.3350 C   0  0  2  0  0  0
   30.3720   65.6630    4.2210 C   0  0  0  0  0  0
   30.5330   66.4910    5.1380 O   0  5  0  0  0  0
   29.2770   65.1070    4.0250 O   0  0  0  0  0  0
   32.7380   65.1560    4.1480 N   0  0  0  0  0  0
   33.0540   64.0670    4.8390 C   0  0  0  0  0  0
   32.2560   63.0190    5.0560 C   0  0  0  0  0  0
   32.7940   61.9110    5.8350 C   0  0  0  0  0  0
   33.8380   62.0580    6.4500 O   0  0  0  0  0  0
   33.6858   61.8527    2.8240 H   0  0  0  0  0  0
   35.1349   62.9127    2.8815 H   0  0  0  0  0  0
   35.9856   62.0788    0.8094 H   0  0  0  0  0  0
   35.0134   60.5721    0.9144 H   0  0  0  0  0  0
   34.1321   62.0147   -0.8368 H   0  0  0  0  0  0
   32.9535   61.9128    0.5149 H   0  0  0  0  0  0
   33.8799   66.0283    1.9734 H   0  0  0  0  0  0
   33.0389   66.4210    0.4355 H   0  0  0  0  0  0
   30.7020   66.8682    0.3613 H   0  0  0  0  0  0
   29.6393   66.4637    1.7519 H   0  0  0  0  0  0
   30.4537   65.1528    0.8327 H   0  0  0  0  0  0
   31.3170   64.3102    2.9069 H   0  0  0  0  0  0
   34.0745   64.0755    5.2494 H   0  0  0  0  0  0
   31.2330   63.0137    4.6518 H   0  0  0  0  0  0
   32.2655   60.9469    5.8710 H   0  0  0  0  0  0
   33.4571   65.9855    4.2176 H   0  0  0  0  0  0
  1  2  1  0  0  0
  2  3  2  0  0  0
  2  4  1  0  0  0
  4  5  1  0  0  0
  4 25  1  0  0  0
  4 26  1  0  0  0
  5  6  1  0  0  0
  5 27  1  0  0  0
  5 28  1  0  0  0
  6  7  1  0  0  0
  6 29  1  0  0  0
  6 30  1  0  0  0
  7  8  2  0  0  0
  7  9  1  0  0  0
  9 10  1  0  0  0
 10 11  1  0  0  0
 10 31  1  0  0  0
 10 32  1  0  0  0
 11 12  1  0  0  0
 11 15  1  0  0  0
 11 16  1  0  0  0
 12 13  1  0  0  0
 12 14  1  0  0  0
 15 33  1  0  0  0
 15 34  1  0  0  0
 15 35  1  0  0  0
 16 17  1  0  0  0
 16 20  1  0  0  0
 16 36  1  0  0  0
 17 18  1  0  0  0
 17 19  2  0  0  0
 20 21  1  0  0  0
 20 40  1  0  0  0
 21 22  2  0  0  0
 21 37  1  0  0  0
 22 23  1  0  0  0
 22 38  1  0  0  0
 23 24  2  0  0  0
 23 39  1  0  0  0
M  CHG  2   1  -1  18  -1
M  END
> <s_m_source_file>
../3opr_ligand.sdf

> <i_m_source_file_index>
1

> <s_epik_input>
W09IXUMoPU8pW0NIMl1bQ0gyXVtDSDJdQyg9TylPW0NIMl1bQ0BdKFtDSDNdKShbU0hdKFtPSF0pW09IXSlbQ0BIXShDKD1PKVtPSF0pL049W0NIXVxbQ0gyXVtDSF09Tw==

> <s_epik_cmdline>
J2VwaWtfYXBwJywgJy1pbWFlJywgJ2xpZ2FuZF9wcm8ubWFlJywgJy1vbWFlJywgJ2xpZ2FuZF9wcmVwLm1hZScsICctbXMnLCAnMScsICctcGgnLCAnNycsICctcGh0JywgJzAuNScsICctbnQn

> <r_lp_tautomer_probability>
1

> <r_epik_Ionization_Penalty>
  0.0032

> <r_epik_Ionization_Penalty_Charging>
  0.0032

> <r_epik_Ionization_Penalty_Neutral>
  0.0001

> <r_epik_State_Penalty>
 -0.0000

> <r_epik_Charging_Adjusted_Penalty>
0.00315174213244358

> <i_epik_Tot_Q>
-2

> <i_epik_Tot_abs_Q>
2

> <s_epik_Chemistry_Notes>
This compound has an ester and may undergo hydrolysis at high or low pH. This compound has an imine and may undergo hydrolysis.

$$$$
