3oq5_ligand
                    3D
 Schrodinger Suite 2020-3.
 28 27  0  0  1  0            999 V2000
   27.8520   11.8810   26.0450 N   0  3  0  0  0  0
   29.1470   11.5920   26.7280 C   0  0  1  0  0  0
   29.2980   10.0880   26.9250 C   0  0  0  0  0  0
   28.0680    9.3690   26.3860 C   0  0  0  0  0  0
   28.2450    7.8570   26.4850 C   0  0  0  0  0  0
   26.9020    7.1370   26.5050 C   0  0  0  0  0  0
   27.0470    5.6970   26.5740 N   0  3  0  0  0  0
   25.8770    4.8780   26.8260 C   0  0  0  0  0  0
   30.3100   12.1610   25.9630 C   0  0  0  0  0  0
   31.4090   11.6090   25.9360 O   0  0  0  0  0  0
   30.1536   13.2385   25.3288 O   0  5  0  0  0  0
   27.0252   11.4518   26.6299 H   0  0  0  0  0  0
   27.8602   11.4348   25.0396 H   0  0  0  0  0  0
   27.7161   12.9694   25.9620 H   0  0  0  0  0  0
   29.1322   12.0967   27.7053 H   0  0  0  0  0  0
   30.1898    9.7354   26.3862 H   0  0  0  0  0  0
   29.4065    9.8677   27.9972 H   0  0  0  0  0  0
   27.1849    9.6639   26.9717 H   0  0  0  0  0  0
   27.9164    9.6422   25.3313 H   0  0  0  0  0  0
   28.8195    7.4976   25.6185 H   0  0  0  0  0  0
   28.7855    7.6109   27.4109 H   0  0  0  0  0  0
   26.3247    7.4622   27.3830 H   0  0  0  0  0  0
   26.3430    7.3781   25.5888 H   0  0  0  0  0  0
   27.4422    5.3221   25.6184 H   0  0  0  0  0  0
   27.7424    5.4370   27.3856 H   0  0  0  0  0  0
   26.1690    3.8176   26.8454 H   0  0  0  0  0  0
   25.1372    5.0401   26.0282 H   0  0  0  0  0  0
   25.4374    5.1551   27.7955 H   0  0  0  0  0  0
  1  2  1  0  0  0
  1 12  1  0  0  0
  1 13  1  0  0  0
  1 14  1  0  0  0
  2  3  1  0  0  0
  2  9  1  0  0  0
  2 15  1  0  0  0
  3  4  1  0  0  0
  3 16  1  0  0  0
  3 17  1  0  0  0
  4  5  1  0  0  0
  4 18  1  0  0  0
  4 19  1  0  0  0
  5  6  1  0  0  0
  5 20  1  0  0  0
  5 21  1  0  0  0
  6  7  1  0  0  0
  6 22  1  0  0  0
  6 23  1  0  0  0
  7  8  1  0  0  0
  7 24  1  0  0  0
  7 25  1  0  0  0
  8 26  1  0  0  0
  8 27  1  0  0  0
  8 28  1  0  0  0
  9 10  2  0  0  0
  9 11  1  0  0  0
M  CHG  3   1   1   7   1  11  -1
M  END
> <s_m_source_file>
../3oq5_ligand.sdf

> <i_m_source_file_index>
1

> <s_epik_input>
Tz1DKFtPSF0pW0NAQEhdKFtOSDMrXSlbQ0gyXVtDSDJdW0NIMl1bQ0gyXVtOSDIrXVtDSDNd

> <s_epik_cmdline>
J2VwaWtfYXBwJywgJy1pbWFlJywgJ2xpZ2FuZF9wcm8ubWFlJywgJy1vbWFlJywgJ2xpZ2FuZF9wcmVwLm1hZScsICctbXMnLCAnMScsICctcGgnLCAnNycsICctcGh0JywgJzAuNScsICctbnQn

> <r_lp_tautomer_probability>
1

> <r_epik_Ionization_Penalty>
  0.0016

> <r_epik_Ionization_Penalty_Charging>
  0.0016

> <r_epik_Ionization_Penalty_Neutral>
  0.0000

> <r_epik_State_Penalty>
 -0.0000

> <r_epik_Charging_Adjusted_Penalty>
0.00156520728045857

> <i_epik_Tot_Q>
1

> <i_epik_Tot_abs_Q>
3

$$$$
