3oqf_ligand
                    3D
 Schrodinger Suite 2020-3.
 56 60  0  0  1  0            999 V2000
  -14.0100  -20.9970   -3.4290 C   0  0  0  0  0  0
  -14.3230  -22.2560   -2.9180 C   0  0  0  0  0  0
  -13.3080  -23.0620   -2.3930 C   0  0  0  0  0  0
  -11.9460  -22.6930   -2.3780 C   0  0  0  0  0  0
  -11.6870  -21.4160   -2.9250 C   0  0  0  0  0  0
  -12.6820  -20.5730   -3.4280 C   0  0  0  0  0  0
  -10.9880  -23.5190   -1.8630 N   0  0  0  0  0  0
  -10.5860  -24.6160   -2.5460 C   0  0  0  0  0  0
   -9.3880  -25.0210   -1.9440 C   0  0  0  0  0  0
   -9.1460  -24.1290   -0.8980 C   0  0  0  0  0  0
  -10.0560  -23.0620   -0.9880 C   0  0  0  0  0  0
  -11.1540  -25.4340   -3.5380 C   0  0  0  0  0  0
  -10.4960  -26.6000   -3.9520 C   0  0  0  0  0  0
   -9.2870  -26.9790   -3.3580 C   0  0  0  0  0  0
   -8.7250  -26.1910   -2.3460 C   0  0  0  0  0  0
  -10.1430  -22.2540    1.3540 C   0  0  0  0  0  0
   -9.1280  -21.7680    2.1720 C   0  0  0  0  0  0
   -9.0790  -22.2000    3.4990 C   0  0  0  0  0  0
  -10.0300  -23.1090    3.9790 C   0  0  0  0  0  0
  -11.0410  -23.6050    3.1480 C   0  0  0  0  0  0
  -11.0950  -23.1710    1.8260 C   0  0  0  0  0  0
   -7.8200  -24.1770   -0.1650 C   0  0  0  0  0  0
   -7.4560  -25.1750    0.6780 N   0  0  0  0  0  0
   -7.0630  -23.2280   -0.3400 O   0  0  0  0  0  0
   -8.2680  -26.3600    0.9650 C   0  0  0  0  0  0
   -8.4540  -26.4300    2.4800 C   0  0  0  0  0  0
   -7.1950  -26.3650    3.1960 N   0  3  0  0  0  0
   -6.3000  -25.2770    2.8500 C   0  0  0  0  0  0
   -6.1310  -25.1660    1.3330 C   0  0  0  0  0  0
  -10.1630  -21.8320   -0.0830 C   0  0  0  0  0  0
  -14.7945  -20.3519   -3.8246 H   0  0  0  0  0  0
  -15.3538  -22.6102   -2.9277 H   0  0  0  0  0  0
  -13.5841  -24.0288   -1.9721 H   0  0  0  0  0  0
  -10.6541  -21.0692   -2.9564 H   0  0  0  0  0  0
  -12.4209  -19.5890   -3.8175 H   0  0  0  0  0  0
  -12.1091  -25.1606   -3.9866 H   0  0  0  0  0  0
  -10.9284  -27.2152   -4.7411 H   0  0  0  0  0  0
   -8.7822  -27.8886   -3.6834 H   0  0  0  0  0  0
   -7.7853  -26.4823   -1.8768 H   0  0  0  0  0  0
   -8.3884  -21.0665    1.7861 H   0  0  0  0  0  0
   -8.2984  -21.8287    4.1630 H   0  0  0  0  0  0
   -9.9820  -23.4359    5.0177 H   0  0  0  0  0  0
  -11.7726  -24.3178    3.5286 H   0  0  0  0  0  0
  -11.8739  -23.5422    1.1600 H   0  0  0  0  0  0
   -9.2415  -26.2682    0.4611 H   0  0  0  0  0  0
   -7.7487  -27.2579    0.5987 H   0  0  0  0  0  0
   -9.0771  -25.5866    2.8123 H   0  0  0  0  0  0
   -8.9468  -27.3769    2.7456 H   0  0  0  0  0  0
   -7.3909  -26.2575    4.2731 H   0  0  0  0  0  0
   -6.6236  -27.2879    3.0176 H   0  0  0  0  0  0
   -6.7108  -24.3296    3.2291 H   0  0  0  0  0  0
   -5.3134  -25.4558    3.3023 H   0  0  0  0  0  0
   -5.5370  -26.0179    0.9705 H   0  0  0  0  0  0
   -5.6099  -24.2274    1.0934 H   0  0  0  0  0  0
   -9.3138  -21.1599   -0.2759 H   0  0  0  0  0  0
  -11.1043  -21.3030   -0.2930 H   0  0  0  0  0  0
  1  2  2  0  0  0
  1  6  1  0  0  0
  1 31  1  0  0  0
  2  3  1  0  0  0
  2 32  1  0  0  0
  3  4  2  0  0  0
  3 33  1  0  0  0
  4  5  1  0  0  0
  4  7  1  0  0  0
  5  6  2  0  0  0
  5 34  1  0  0  0
  6 35  1  0  0  0
  7  8  1  0  0  0
  7 11  1  0  0  0
  8  9  2  0  0  0
  8 12  1  0  0  0
  9 10  1  0  0  0
  9 15  1  0  0  0
 10 11  2  0  0  0
 10 22  1  0  0  0
 11 30  1  0  0  0
 12 13  2  0  0  0
 12 36  1  0  0  0
 13 14  1  0  0  0
 13 37  1  0  0  0
 14 15  2  0  0  0
 14 38  1  0  0  0
 15 39  1  0  0  0
 16 17  2  0  0  0
 16 21  1  0  0  0
 16 30  1  0  0  0
 17 18  1  0  0  0
 17 40  1  0  0  0
 18 19  2  0  0  0
 18 41  1  0  0  0
 19 20  1  0  0  0
 19 42  1  0  0  0
 20 21  2  0  0  0
 20 43  1  0  0  0
 21 44  1  0  0  0
 22 23  1  0  0  0
 22 24  2  0  0  0
 23 25  1  0  0  0
 23 29  1  0  0  0
 25 26  1  0  0  0
 25 45  1  0  0  0
 25 46  1  0  0  0
 26 27  1  0  0  0
 26 47  1  0  0  0
 26 48  1  0  0  0
 27 28  1  0  0  0
 27 49  1  0  0  0
 27 50  1  0  0  0
 28 29  1  0  0  0
 28 51  1  0  0  0
 28 52  1  0  0  0
 29 53  1  0  0  0
 29 54  1  0  0  0
 30 55  1  0  0  0
 30 56  1  0  0  0
M  CHG  1  27   1
M  END
> <s_m_source_file>
../3oqf_ligand.sdf

> <i_m_source_file_index>
1

> <s_epik_input>
W2NIXTFbY0hdW2NIXVtjSF1bY0hdYzEtbjJjKFtDSDJdYzNbY0hdW2NIXVtjSF1bY0hdW2NIXTMpYyhjKGMyNClbY0hdW2NIXVtjSF1bY0hdNClDKD1PKU41W0NIMl1bQ0gyXVtOSDIrXVtDSDJdW0NIMl01

> <s_epik_cmdline>
J2VwaWtfYXBwJywgJy1pbWFlJywgJ2xpZ2FuZF9wcm8ubWFlJywgJy1vbWFlJywgJ2xpZ2FuZF9wcmVwLm1hZScsICctbXMnLCAnMScsICctcGgnLCAnNycsICctcGh0JywgJzAuNScsICctbnQn

> <r_epik_Ionization_Penalty>
  0.1008

> <r_epik_Ionization_Penalty_Charging>
  0.1008

> <r_epik_Ionization_Penalty_Neutral>
  0.0000

> <r_epik_State_Penalty>
  0.0908

> <r_epik_Charging_Adjusted_Penalty>
0.191584448808095

> <i_epik_Tot_Q>
1

> <i_epik_Tot_abs_Q>
1

$$$$
