3oqk_ligand
                    3D
 Schrodinger Suite 2020-3.
 54 58  0  0  1  0            999 V2000
  -13.5620  -20.8620   -2.8560 C   0  0  0  0  0  0
   -9.6150  -21.9180    0.1330 O   0  0  0  0  0  0
  -13.7190  -22.2560   -2.9000 C   0  0  0  0  0  0
  -12.6670  -23.0820   -2.4690 C   0  0  0  0  0  0
  -11.4240  -22.5600   -2.0040 C   0  0  0  0  0  0
  -11.3210  -21.1370   -2.0160 C   0  0  0  0  0  0
  -12.3590  -20.2990   -2.4110 C   0  0  0  0  0  0
  -10.3430  -23.3090   -1.6350 N   0  0  0  0  0  0
   -9.8820  -24.3720   -2.3460 C   0  0  0  0  0  0
   -8.6550  -24.7560   -1.7310 C   0  0  0  0  0  0
   -8.4260  -23.8700   -0.6780 C   0  0  0  0  0  0
   -9.4510  -22.9570   -0.7190 C   0  0  0  0  0  0
  -10.3900  -25.1190   -3.4180 C   0  0  0  0  0  0
   -9.6650  -26.2290   -3.8680 C   0  0  0  0  0  0
   -8.4580  -26.6010   -3.2470 C   0  0  0  0  0  0
   -7.9390  -25.8640   -2.1780 C   0  0  0  0  0  0
   -9.3580  -22.0380    1.4670 C   0  0  0  0  0  0
   -8.5240  -21.0750    2.0650 C   0  0  0  0  0  0
   -8.2510  -21.1990    3.4350 C   0  0  0  0  0  0
   -8.7810  -22.2610    4.1920 C   0  0  0  0  0  0
   -9.5950  -23.2000    3.5660 C   0  0  0  0  0  0
   -9.8940  -23.1010    2.2040 C   0  0  0  0  0  0
   -7.1890  -23.8150    0.1810 C   0  0  0  0  0  0
   -6.7020  -24.8170    0.9520 N   0  0  0  0  0  0
   -6.6030  -22.7020    0.1160 O   0  0  0  0  0  0
   -7.2860  -26.1540    1.1000 C   0  0  0  0  0  0
   -7.5970  -26.3810    2.5760 C   0  0  0  0  0  0
   -6.5550  -25.9060    3.4560 N   0  3  0  0  0  0
   -5.9190  -24.6280    3.1800 C   0  0  0  0  0  0
   -5.4770  -24.5800    1.7220 C   0  0  0  0  0  0
  -14.3805  -20.2141   -3.1697 H   0  0  0  0  0  0
  -14.6481  -22.6938   -3.2650 H   0  0  0  0  0  0
  -12.8064  -24.1628   -2.4909 H   0  0  0  0  0  0
  -10.3816  -20.6835   -1.6997 H   0  0  0  0  0  0
  -12.2375  -19.2164   -2.3746 H   0  0  0  0  0  0
  -11.3313  -24.8410   -3.8921 H   0  0  0  0  0  0
  -10.0398  -26.8120   -4.7093 H   0  0  0  0  0  0
   -7.9189  -27.4780   -3.6052 H   0  0  0  0  0  0
   -6.9985  -26.1492   -1.7067 H   0  0  0  0  0  0
   -8.1027  -20.2570    1.4807 H   0  0  0  0  0  0
   -7.6165  -20.4591    3.9229 H   0  0  0  0  0  0
   -8.5565  -22.3467    5.2552 H   0  0  0  0  0  0
  -10.0060  -24.0258    4.1468 H   0  0  0  0  0  0
  -10.5347  -23.8401    1.7231 H   0  0  0  0  0  0
   -8.2096  -26.2185    0.5060 H   0  0  0  0  0  0
   -6.5686  -26.9088    0.7455 H   0  0  0  0  0  0
   -8.5235  -25.8507    2.8413 H   0  0  0  0  0  0
   -7.7245  -27.4575    2.7625 H   0  0  0  0  0  0
   -6.9565  -25.7969    4.4743 H   0  0  0  0  0  0
   -5.7250  -26.6278    3.4646 H   0  0  0  0  0  0
   -6.6334  -23.8139    3.3720 H   0  0  0  0  0  0
   -5.0413  -24.5069    3.8318 H   0  0  0  0  0  0
   -4.7419  -25.3655    1.4925 H   0  0  0  0  0  0
   -5.0598  -23.5980    1.4543 H   0  0  0  0  0  0
  1  3  2  0  0  0
  1  7  1  0  0  0
  1 31  1  0  0  0
  2 12  1  0  0  0
  2 17  1  0  0  0
  3  4  1  0  0  0
  3 32  1  0  0  0
  4  5  2  0  0  0
  4 33  1  0  0  0
  5  6  1  0  0  0
  5  8  1  0  0  0
  6  7  2  0  0  0
  6 34  1  0  0  0
  7 35  1  0  0  0
  8  9  1  0  0  0
  8 12  1  0  0  0
  9 10  2  0  0  0
  9 13  1  0  0  0
 10 11  1  0  0  0
 10 16  1  0  0  0
 11 12  2  0  0  0
 11 23  1  0  0  0
 13 14  2  0  0  0
 13 36  1  0  0  0
 14 15  1  0  0  0
 14 37  1  0  0  0
 15 16  2  0  0  0
 15 38  1  0  0  0
 16 39  1  0  0  0
 17 18  2  0  0  0
 17 22  1  0  0  0
 18 19  1  0  0  0
 18 40  1  0  0  0
 19 20  2  0  0  0
 19 41  1  0  0  0
 20 21  1  0  0  0
 20 42  1  0  0  0
 21 22  2  0  0  0
 21 43  1  0  0  0
 22 44  1  0  0  0
 23 24  1  0  0  0
 23 25  2  0  0  0
 24 26  1  0  0  0
 24 30  1  0  0  0
 26 27  1  0  0  0
 26 45  1  0  0  0
 26 46  1  0  0  0
 27 28  1  0  0  0
 27 47  1  0  0  0
 27 48  1  0  0  0
 28 29  1  0  0  0
 28 49  1  0  0  0
 28 50  1  0  0  0
 29 30  1  0  0  0
 29 51  1  0  0  0
 29 52  1  0  0  0
 30 53  1  0  0  0
 30 54  1  0  0  0
M  CHG  1  28   1
M  END
> <s_m_source_file>
../3oqk_ligand.sdf

> <i_m_source_file_index>
1

> <s_epik_input>
W2NIXTFbY0hdW2NIXVtjSF1bY0hdYzEtbjJjKE9jM1tjSF1bY0hdW2NIXVtjSF1bY0hdMyljKGMoYzI0KVtjSF1bY0hdW2NIXVtjSF00KUMoPU8pTjVbQ0gyXVtDSDJdW05IMitdW0NIMl1bQ0gyXTU=

> <s_epik_cmdline>
J2VwaWtfYXBwJywgJy1pbWFlJywgJ2xpZ2FuZF9wcm8ubWFlJywgJy1vbWFlJywgJ2xpZ2FuZF9wcmVwLm1hZScsICctbXMnLCAnMScsICctcGgnLCAnNycsICctcGh0JywgJzAuNScsICctbnQn

> <r_lp_tautomer_probability>
1

> <r_epik_Ionization_Penalty>
  0.1008

> <r_epik_Ionization_Penalty_Charging>
  0.1008

> <r_epik_Ionization_Penalty_Neutral>
  0.0000

> <r_epik_State_Penalty>
  0.0908

> <r_epik_Charging_Adjusted_Penalty>
0.191584448808095

> <i_epik_Tot_Q>
1

> <i_epik_Tot_abs_Q>
1

$$$$
