3orn_ligand
                    3D
 Schrodinger Suite 2020-3.
 51 53  0  0  1  0            999 V2000
   63.2020  -10.3750   12.1980 C   0  0  0  0  0  0
   62.7070   -9.2750   12.9850 C   0  0  0  0  0  0
   63.5440   -8.6020   13.9300 C   0  0  0  0  0  0
   63.0220   -7.4480   14.7550 C   0  0  0  0  0  0
   66.2710  -13.4810   13.1570 C   0  0  0  0  0  0
   66.9860  -15.6560   12.3360 C   0  0  0  0  0  0
   66.4540  -15.3600   11.0560 C   0  0  0  0  0  0
   60.6750   -7.3690   15.6480 C   0  0  0  0  0  0
   59.7150   -7.8790   16.7060 C   0  0  0  0  0  0
   61.4480   -9.5670   17.2880 C   0  0  0  0  0  0
   62.2880  -11.0650   11.2070 C   0  0  0  0  0  0
   64.5840  -10.8160   12.3620 C   0  0  0  0  0  0
   65.0870  -11.9010   11.5980 N   0  0  0  0  0  0
   65.7210  -13.1330   11.8830 C   0  0  0  0  0  0
   61.9780   -7.8370   15.6940 N   0  0  0  0  0  0
   64.8810   -9.0390   14.0760 C   0  0  0  0  0  0
   65.6960   -8.4330   14.9530 F   0  0  0  0  0  0
   65.3850  -10.1090   13.3150 C   0  0  0  0  0  0
   66.6600  -10.4470   13.5200 F   0  0  0  0  0  0
   66.8960  -14.7220   13.3860 C   0  0  0  0  0  0
   67.9160  -17.4640   12.6920 I   0  0  0  0  0  0
   65.8290  -14.1020   10.8500 C   0  0  0  0  0  0
   65.3270  -13.8240    9.6360 F   0  0  0  0  0  0
   60.2670   -6.5740   14.8050 O   0  0  0  0  0  0
   60.3800   -8.6290   17.8460 C   0  0  0  0  0  0
   62.4770   -8.7610   16.6730 O   0  0  0  0  0  0
   62.7720  -11.6680   10.2430 O   0  0  0  0  0  0
   60.9300  -10.9680   11.4230 N   0  0  0  0  0  0
   60.0980  -11.4020   10.3500 O   0  0  0  0  0  0
   59.3170  -10.3010    9.8520 C   0  0  0  0  0  0
   59.7110  -10.0420    8.4060 C   0  0  0  0  0  0
   59.2250  -11.0970    7.5950 O   0  0  0  0  0  0
   61.6747   -8.9490   12.8581 H   0  0  0  0  0  0
   63.8464   -7.0117   15.3382 H   0  0  0  0  0  0
   62.5992   -6.6822   14.0881 H   0  0  0  0  0  0
   66.2043  -12.7639   13.9752 H   0  0  0  0  0  0
   66.5234  -16.0848   10.2448 H   0  0  0  0  0  0
   59.1757   -7.0301   17.1516 H   0  0  0  0  0  0
   58.9941   -8.5699   16.2446 H   0  0  0  0  0  0
   61.8743  -10.1655   18.1066 H   0  0  0  0  0  0
   60.9947  -10.2363   16.5420 H   0  0  0  0  0  0
   65.0167  -11.8801   10.5004 H   0  0  0  0  0  0
   67.3067  -14.9576   14.3678 H   0  0  0  0  0  0
   60.8485   -7.9099   18.5340 H   0  0  0  0  0  0
   59.6246   -9.2166   18.3883 H   0  0  0  0  0  0
   60.4775  -10.5857   12.3499 H   0  0  0  0  0  0
   58.2481  -10.5541    9.9094 H   0  0  0  0  0  0
   59.5151   -9.4062   10.4603 H   0  0  0  0  0  0
   59.2751   -9.0888    8.0723 H   0  0  0  0  0  0
   60.8071   -9.9911    8.3281 H   0  0  0  0  0  0
   59.4113  -11.0880    6.5109 H   0  0  0  0  0  0
  1  2  2  0  0  0
  1 11  1  0  0  0
  1 12  1  0  0  0
  2  3  1  0  0  0
  2 33  1  0  0  0
  3  4  1  0  0  0
  3 16  2  0  0  0
  4 15  1  0  0  0
  4 34  1  0  0  0
  4 35  1  0  0  0
  5 14  2  0  0  0
  5 20  1  0  0  0
  5 36  1  0  0  0
  6  7  1  0  0  0
  6 20  2  0  0  0
  6 21  1  0  0  0
  7 22  2  0  0  0
  7 37  1  0  0  0
  8  9  1  0  0  0
  8 15  1  0  0  0
  8 24  2  0  0  0
  9 25  1  0  0  0
  9 38  1  0  0  0
  9 39  1  0  0  0
 10 25  1  0  0  0
 10 26  1  0  0  0
 10 40  1  0  0  0
 10 41  1  0  0  0
 11 27  2  0  0  0
 11 28  1  0  0  0
 12 13  1  0  0  0
 12 18  2  0  0  0
 13 14  1  0  0  0
 13 42  1  0  0  0
 14 22  1  0  0  0
 15 26  1  0  0  0
 16 17  1  0  0  0
 16 18  1  0  0  0
 18 19  1  0  0  0
 20 43  1  0  0  0
 22 23  1  0  0  0
 25 44  1  0  0  0
 25 45  1  0  0  0
 28 29  1  0  0  0
 28 46  1  0  0  0
 29 30  1  0  0  0
 30 31  1  0  0  0
 30 47  1  0  0  0
 30 48  1  0  0  0
 31 32  1  0  0  0
 31 49  1  0  0  0
 31 50  1  0  0  0
 32 51  1  0  0  0
M  END
> <s_m_source_file>
../3orn_ligand.sdf

> <i_m_source_file_index>
1

> <s_epik_input>
Tz1DMVtDSDJdW0NIMl1bQ0gyXU9OMVtDSDJdYyhbY0hdYzJDKD1PKVtOSF1PW0NIMl1bQ0gyXVtPSF0pYyhGKWMoRiljMltOSF1jKFtjSF1bY0hdMyljKEYpW2NIXWMzSQ==

> <s_epik_cmdline>
J2VwaWtfYXBwJywgJy1pbWFlJywgJ2xpZ2FuZF9wcm8ubWFlJywgJy1vbWFlJywgJ2xpZ2FuZF9wcmVwLm1hZScsICctbXMnLCAnMScsICctcGgnLCAnNycsICctcGh0JywgJzAuNScsICctbnQn

> <r_lp_tautomer_probability>
1

> <r_epik_Ionization_Penalty>
  0.0001

> <r_epik_Ionization_Penalty_Charging>
  0.0000

> <r_epik_Ionization_Penalty_Neutral>
  0.0001

> <r_epik_State_Penalty>
 -0.0000

> <r_epik_Charging_Adjusted_Penalty>
0

> <i_epik_Tot_Q>
0

> <i_epik_Tot_abs_Q>
0

> <s_epik_Chemistry_Notes>
This compound has a N-S or N-O group and may undergo hydrolysis at high or low pH.

$$$$
