3os3_ligand
                    3D
 Schrodinger Suite 2020-3.
 50 51  0  0  1  0            999 V2000
   10.3520   39.9670   -4.0330 C   0  0  0  0  0  0
   10.8010   39.1920   -2.9090 C   0  0  0  0  0  0
   10.0600   38.0610   -2.4880 C   0  0  0  0  0  0
    8.8900   37.7030   -3.1790 C   0  0  0  0  0  0
    5.0930   42.2850   -7.0380 C   0  0  0  0  0  0
    2.8890   43.4460   -7.7720 C   0  0  0  0  0  0
    7.4540   41.8220   -7.3590 C   0  0  0  0  0  0
   12.4970   38.3300    1.0000 C   0  0  0  0  0  0
    9.1590   39.6080   -4.7480 C   0  0  0  0  0  0
    8.7350   40.3840   -5.8700 N   0  0  0  0  0  0
    7.4930   40.9880   -6.2110 C   0  0  0  0  0  0
    8.1760   36.6490   -2.8080 F   0  0  0  0  0  0
    8.4520   38.4590   -4.2820 C   0  0  0  0  0  0
    7.3500   38.0690   -4.9010 F   0  0  0  0  0  0
    6.2770   40.8330   -5.4800 C   0  0  0  0  0  0
    5.0890   41.4690   -5.8910 C   0  0  0  0  0  0
    3.9030   42.9180   -7.4400 C   0  0  0  0  0  0
    6.2710   42.4630   -7.7850 C   0  0  0  0  0  0
    8.5650   41.9960   -8.0690 F   0  0  0  0  0  0
   10.4980   37.2420   -1.3530 C   0  0  0  0  0  0
   10.5830   37.6750   -0.1340 N   0  0  1  0  0  0
   11.7960   37.1980    0.4310 O   0  0  0  0  0  0
   11.7930   38.7880    2.2640 C   0  0  0  0  0  0
   12.3240   38.0480    3.3640 O   0  0  0  0  0  0
   11.1690   41.1330   -4.4430 C   0  0  0  0  0  0
   11.0330   41.5480   -5.5920 O   0  0  0  0  0  0
   12.0730   41.6930   -3.5450 N   0  0  0  0  0  0
   13.0530   42.6130   -4.0400 O   0  0  0  0  0  0
   14.2940   41.9210   -4.0560 C   0  0  0  0  0  0
   14.6330   41.6270   -5.4900 C   0  0  0  0  0  0
   15.6180   42.5490   -5.8890 O   0  0  0  0  0  0
   11.7116   39.4747   -2.3808 H   0  0  0  0  0  0
   13.5289   38.0373    1.2441 H   0  0  0  0  0  0
   12.5122   39.1552    0.2728 H   0  0  0  0  0  0
    9.4425   40.6098   -6.6815 H   0  0  0  0  0  0
    6.2673   40.2100   -4.5857 H   0  0  0  0  0  0
    4.1695   41.3296   -5.3225 H   0  0  0  0  0  0
    6.2705   43.0864   -8.6792 H   0  0  0  0  0  0
    9.8213   36.3824   -1.2384 H   0  0  0  0  0  0
   11.5213   36.8815   -1.5342 H   0  0  0  0  0  0
   10.5727   38.6949   -0.1255 H   0  0  0  0  0  0
   11.9686   39.8637    2.4122 H   0  0  0  0  0  0
   10.7129   38.6024    2.1699 H   0  0  0  0  0  0
   11.9467   38.2282    4.3814 H   0  0  0  0  0  0
   12.0455   41.4420   -2.4744 H   0  0  0  0  0  0
   15.0714   42.5518   -3.6002 H   0  0  0  0  0  0
   14.1996   40.9855   -3.4852 H   0  0  0  0  0  0
   15.0131   40.5981   -5.5734 H   0  0  0  0  0  0
   13.7308   41.7359   -6.1098 H   0  0  0  0  0  0
   16.0184   42.5174   -6.9131 H   0  0  0  0  0  0
  1  2  2  0  0  0
  1  9  1  0  0  0
  1 25  1  0  0  0
  2  3  1  0  0  0
  2 32  1  0  0  0
  3  4  2  0  0  0
  3 20  1  0  0  0
  4 12  1  0  0  0
  4 13  1  0  0  0
  5 16  2  0  0  0
  5 17  1  0  0  0
  5 18  1  0  0  0
  6 17  3  0  0  0
  7 11  1  0  0  0
  7 18  2  0  0  0
  7 19  1  0  0  0
  8 22  1  0  0  0
  8 23  1  0  0  0
  8 33  1  0  0  0
  8 34  1  0  0  0
  9 10  1  0  0  0
  9 13  2  0  0  0
 10 11  1  0  0  0
 10 35  1  0  0  0
 11 15  2  0  0  0
 13 14  1  0  0  0
 15 16  1  0  0  0
 15 36  1  0  0  0
 16 37  1  0  0  0
 18 38  1  0  0  0
 20 21  1  0  0  0
 20 39  1  0  0  0
 20 40  1  0  0  0
 21 22  1  0  0  0
 21 41  1  0  0  0
 23 24  1  0  0  0
 23 42  1  0  0  0
 23 43  1  0  0  0
 24 44  1  0  0  0
 25 26  2  0  0  0
 25 27  1  0  0  0
 27 28  1  0  0  0
 27 45  1  0  0  0
 28 29  1  0  0  0
 29 30  1  0  0  0
 29 46  1  0  0  0
 29 47  1  0  0  0
 30 31  1  0  0  0
 30 48  1  0  0  0
 30 49  1  0  0  0
 31 50  1  0  0  0
M  END
> <s_m_source_file>
../3os3_ligand.sdf

> <i_m_source_file_index>
1

> <s_epik_input>
W09IXVtDSDJdW0NIMl1PW05IXUMoPU8pYzFbY0hdYyhbQ0gyXVtOSDIrXU9bQ0gyXVtDSDJdW09IXSljKEYpYyhGKWMxW05IXWMoYyhGKVtjSF0yKVtjSF1bY0hdYzJDI1tDSF0=

> <s_epik_cmdline>
J2VwaWtfYXBwJywgJy1pbWFlJywgJ2xpZ2FuZF9wcm8ubWFlJywgJy1vbWFlJywgJ2xpZ2FuZF9wcmVwLm1hZScsICctbXMnLCAnMScsICctcGgnLCAnNycsICctcGh0JywgJzAuNScsICctbnQn

> <r_lp_tautomer_probability>
1

> <r_epik_Ionization_Penalty>
  0.0012

> <r_epik_Ionization_Penalty_Charging>
  0.0000

> <r_epik_Ionization_Penalty_Neutral>
  0.0012

> <r_epik_State_Penalty>
 -0.0000

> <r_epik_Charging_Adjusted_Penalty>
0

> <i_epik_Tot_Q>
0

> <i_epik_Tot_abs_Q>
0

> <s_epik_Chemistry_Notes>
This compound has a N-S or N-O group and may undergo hydrolysis at high or low pH.

$$$$
