3osi_ligand
                    3D
 Schrodinger Suite 2020-3.
 32 33  0  0  1  0            999 V2000
   15.7440   16.3290    9.8580 C   0  0  0  0  0  0
   17.2780   18.1900    9.8520 C   0  0  0  0  0  0
   16.7510   17.1800   16.0150 O   0  5  0  0  0  0
   11.7550   21.1770    9.1510 O   0  0  0  0  0  0
   13.9280   17.3240   15.2000 Cl  0  0  0  0  0  0
   19.2610   17.2560   14.4820 Cl  0  0  0  0  0  0
   14.3810   22.4880    9.6950 Cl  0  0  0  0  0  0
   10.9410   18.3880    9.1160 Cl  0  0  0  0  0  0
   15.1050   17.4980   12.7630 C   0  0  0  0  0  0
   17.4920   17.4770   12.4400 C   0  0  0  0  0  0
   15.0890   19.9400   10.0670 C   0  0  0  0  0  0
   13.5960   18.0690    9.8140 C   0  0  0  0  0  0
   16.5740   17.3060   14.6560 C   0  0  0  0  0  0
   12.7890   20.3160    9.4580 C   0  0  0  0  0  0
   15.2900   17.3810   14.1340 C   0  0  0  0  0  0
   17.6750   17.3530   13.8120 C   0  0  0  0  0  0
   14.0580   20.8020    9.7440 C   0  0  0  0  0  0
   12.5500   18.9480    9.4900 C   0  0  0  0  0  0
   16.2060   17.5500   11.9160 C   0  0  0  0  0  0
   14.8640   18.5720   10.1050 C   0  0  0  0  0  0
   16.0100   17.6710   10.4420 C   0  0  0  0  0  0
   16.5784   15.6532   10.0969 H   0  0  0  0  0  0
   15.6449   16.4174    8.7660 H   0  0  0  0  0  0
   14.8120   15.9240   10.2792 H   0  0  0  0  0  0
   18.1065   17.5143   10.1111 H   0  0  0  0  0  0
   17.4846   19.1937   10.2519 H   0  0  0  0  0  0
   17.1779   18.2447    8.7579 H   0  0  0  0  0  0
   11.9329   22.2622    9.1228 H   0  0  0  0  0  0
   14.0971   17.5490   12.3511 H   0  0  0  0  0  0
   18.3552   17.5170   11.7756 H   0  0  0  0  0  0
   16.0795   20.3356   10.2920 H   0  0  0  0  0  0
   13.4171   16.9940    9.8381 H   0  0  0  0  0  0
  1 21  1  0  0  0
  1 22  1  0  0  0
  1 23  1  0  0  0
  1 24  1  0  0  0
  2 21  1  0  0  0
  2 25  1  0  0  0
  2 26  1  0  0  0
  2 27  1  0  0  0
  3 13  1  0  0  0
  4 14  1  0  0  0
  4 28  1  0  0  0
  5 15  1  0  0  0
  6 16  1  0  0  0
  7 17  1  0  0  0
  8 18  1  0  0  0
  9 15  2  0  0  0
  9 19  1  0  0  0
  9 29  1  0  0  0
 10 16  1  0  0  0
 10 19  2  0  0  0
 10 30  1  0  0  0
 11 17  2  0  0  0
 11 20  1  0  0  0
 11 31  1  0  0  0
 12 18  1  0  0  0
 12 20  2  0  0  0
 12 32  1  0  0  0
 13 15  1  0  0  0
 13 16  2  0  0  0
 14 17  1  0  0  0
 14 18  2  0  0  0
 19 21  1  0  0  0
 20 21  1  0  0  0
M  CHG  1   3  -1
M  END
> <s_m_source_file>
../3osi_ligand.sdf

> <i_m_source_file_index>
1

> <s_epik_input>
W09IXWMxYyhDbClbY0hdYyhbY0hdYzFDbClDKFtDSDNdKShbQ0gzXSljKFtjSF1jMkNsKVtjSF1jKENsKWMyW09IXQ==

> <s_epik_cmdline>
J2VwaWtfYXBwJywgJy1pbWFlJywgJ2xpZ2FuZF9wcm8ubWFlJywgJy1vbWFlJywgJ2xpZ2FuZF9wcmVwLm1hZScsICctbXMnLCAnMScsICctcGgnLCAnNycsICctcGh0JywgJzAuNScsICctbnQn

> <r_lp_tautomer_probability>
0.999999999997365

> <r_epik_Ionization_Penalty>
  0.2206

> <r_epik_Ionization_Penalty_Charging>
  0.0065

> <r_epik_Ionization_Penalty_Neutral>
  0.2141

> <r_epik_State_Penalty>
  0.2043

> <r_epik_Charging_Adjusted_Penalty>
0.210804260906395

> <i_epik_Tot_Q>
-1

> <i_epik_Tot_abs_Q>
1

$$$$
