3osw_ligand
                    3D
 Schrodinger Suite 2020-3.
 32 33  0  0  1  0            999 V2000
   15.9390   16.5120    9.9090 C   0  0  0  0  0  0
   17.4180   18.4230    9.7330 C   0  0  0  0  0  0
   16.8920   17.3990   16.0080 O   0  5  0  0  0  0
   11.6980   21.1340    9.1540 O   0  0  0  0  0  0
   19.6530   17.1920   14.6440 Br  0  0  0  0  0  0
   13.9940   17.7720   15.3430 Br  0  0  0  0  0  0
   14.2170   22.7850    9.5690 Br  0  0  0  0  0  0
   10.8320   18.1990    9.1840 Br  0  0  0  0  0  0
   17.7210   17.5750   12.4340 C   0  0  0  0  0  0
   15.3340   17.8140   12.7500 C   0  0  0  0  0  0
   15.1030   20.0780    9.9870 C   0  0  0  0  0  0
   13.7160   18.1140    9.8380 C   0  0  0  0  0  0
   16.7710   17.5130   14.6490 C   0  0  0  0  0  0
   12.7690   20.3070    9.4530 C   0  0  0  0  0  0
   17.8940   17.4490   13.8230 C   0  0  0  0  0  0
   15.5040   17.6940   14.1250 C   0  0  0  0  0  0
   14.0110   20.8690    9.6800 C   0  0  0  0  0  0
   12.6130   18.9240    9.5310 C   0  0  0  0  0  0
   16.4350   17.7660   11.8960 C   0  0  0  0  0  0
   14.9690   18.7000   10.0750 C   0  0  0  0  0  0
   16.1940   17.8850   10.4110 C   0  0  0  0  0  0
   16.8071   15.8737   10.1301 H   0  0  0  0  0  0
   15.7746   16.5438    8.8218 H   0  0  0  0  0  0
   15.0463   16.1009   10.4030 H   0  0  0  0  0  0
   18.2874   17.8048   10.0013 H   0  0  0  0  0  0
   17.5911   19.4597   10.0575 H   0  0  0  0  0  0
   17.2736   18.3992    8.6428 H   0  0  0  0  0  0
   11.8430   22.2229    9.0974 H   0  0  0  0  0  0
   18.5853   17.5246   11.7718 H   0  0  0  0  0  0
   14.3338   17.9464   12.3374 H   0  0  0  0  0  0
   16.0748   20.5400   10.1609 H   0  0  0  0  0  0
   13.6003   17.0315    9.8924 H   0  0  0  0  0  0
  1 21  1  0  0  0
  1 22  1  0  0  0
  1 23  1  0  0  0
  1 24  1  0  0  0
  2 21  1  0  0  0
  2 25  1  0  0  0
  2 26  1  0  0  0
  2 27  1  0  0  0
  3 13  1  0  0  0
  4 14  1  0  0  0
  4 28  1  0  0  0
  5 15  1  0  0  0
  6 16  1  0  0  0
  7 17  1  0  0  0
  8 18  1  0  0  0
  9 15  2  0  0  0
  9 19  1  0  0  0
  9 29  1  0  0  0
 10 16  1  0  0  0
 10 19  2  0  0  0
 10 30  1  0  0  0
 11 17  2  0  0  0
 11 20  1  0  0  0
 11 31  1  0  0  0
 12 18  1  0  0  0
 12 20  2  0  0  0
 12 32  1  0  0  0
 13 15  1  0  0  0
 13 16  2  0  0  0
 14 17  1  0  0  0
 14 18  2  0  0  0
 19 21  1  0  0  0
 20 21  1  0  0  0
M  CHG  1   3  -1
M  END
> <s_m_source_file>
../3osw_ligand.sdf

> <i_m_source_file_index>
1

> <s_epik_input>
W09IXWMxYyhCcilbY0hdYyhbY0hdYzFCcilDKFtDSDNdKShbQ0gzXSljKFtjSF1jMkJyKVtjSF1jKEJyKWMyW09IXQ==

> <s_epik_cmdline>
J2VwaWtfYXBwJywgJy1pbWFlJywgJ2xpZ2FuZF9wcm8ubWFlJywgJy1vbWFlJywgJ2xpZ2FuZF9wcmVwLm1hZScsICctbXMnLCAnMScsICctcGgnLCAnNycsICctcGh0JywgJzAuNScsICctbnQn

> <r_lp_tautomer_probability>
0.999999999997365

> <r_epik_Ionization_Penalty>
  0.2206

> <r_epik_Ionization_Penalty_Charging>
  0.0065

> <r_epik_Ionization_Penalty_Neutral>
  0.2141

> <r_epik_State_Penalty>
  0.2043

> <r_epik_Charging_Adjusted_Penalty>
0.210804260906395

> <i_epik_Tot_Q>
-1

> <i_epik_Tot_abs_Q>
1

$$$$
