3ot3_ligand
                    3D
 Schrodinger Suite 2020-3.
 45 48  0  0  1  0            999 V2000
   14.5990   -1.0590   10.0490 C   0  0  0  0  0  0
   15.7060   -1.7940   10.2340 C   0  0  0  0  0  0
   16.7320   -1.1520    9.5530 N   0  0  0  0  0  0
   16.2760    0.0090    9.0040 N   0  0  0  0  0  0
   14.9820    0.0340    9.3260 C   0  0  0  0  0  0
   15.8910   -2.9520   10.9110 N   0  0  0  0  0  0
   17.0860   -3.4190   10.9130 C   0  0  0  0  0  0
   18.2730   -2.7730   10.2290 C   0  0  0  0  0  0
   18.0460   -1.6350    9.5390 C   0  0  0  0  0  0
   20.0270   -3.4330   10.4170 Br  0  0  0  0  0  0
   19.0380   -0.9170    8.8840 N   0  0  0  0  0  0
   13.3320   -1.2610   10.7110 C   0  0  0  0  0  0
   12.3310   -0.2700   10.9200 C   0  0  0  0  0  0
   11.3310   -0.7350   11.7010 N   0  0  0  0  0  0
   11.7300   -2.0250   12.0540 N   0  0  0  0  0  0
   12.9480   -2.3490   11.5270 C   0  0  0  0  0  0
   10.9220   -2.8870   12.9420 C   0  0  0  0  0  0
   17.3200   -4.6950   11.7000 C   0  0  1  0  0  0
   17.2380   -4.3010   13.2040 C   0  0  0  0  0  0
   17.3590   -5.5160   14.0930 C   0  0  2  0  0  0
   16.2360   -6.5150   13.8300 C   0  0  0  0  0  0
   16.2690   -6.9320   12.3420 C   0  0  0  0  0  0
   16.1610   -5.7080   11.4250 C   0  0  0  0  0  0
   17.1430   -5.0330   15.5060 N   0  3  0  0  0  0
   14.3041    0.8392    9.0428 H   0  0  0  0  0  0
   18.7820    0.0039    8.3396 H   0  0  0  0  0  0
   20.0798   -1.2692    8.9096 H   0  0  0  0  0  0
   12.3668    0.7364   10.5028 H   0  0  0  0  0  0
   13.5120   -3.2653   11.7014 H   0  0  0  0  0  0
    9.9902   -2.3670   13.2091 H   0  0  0  0  0  0
   11.4927   -3.1094   13.8557 H   0  0  0  0  0  0
   10.6818   -3.8261   12.4220 H   0  0  0  0  0  0
   18.2892   -5.1267   11.4096 H   0  0  0  0  0  0
   18.0554   -3.6058   13.4460 H   0  0  0  0  0  0
   16.2718   -3.8145   13.4035 H   0  0  0  0  0  0
   18.3385   -5.9850   13.9179 H   0  0  0  0  0  0
   16.3773   -7.4013   14.4661 H   0  0  0  0  0  0
   15.2677   -6.0477   14.0621 H   0  0  0  0  0  0
   17.2150   -7.4507   12.1275 H   0  0  0  0  0  0
   15.4254   -7.6058   12.1312 H   0  0  0  0  0  0
   15.1938   -5.2166   11.6065 H   0  0  0  0  0  0
   16.2100   -6.0462   10.3794 H   0  0  0  0  0  0
   17.9231   -4.3028   15.7672 H   0  0  0  0  0  0
   17.1940   -5.8871   16.1973 H   0  0  0  0  0  0
   16.1544   -4.5569   15.5837 H   0  0  0  0  0  0
  1  2  2  0  0  0
  1  5  1  0  0  0
  1 12  1  0  0  0
  2  3  1  0  0  0
  2  6  1  0  0  0
  3  4  1  0  0  0
  3  9  1  0  0  0
  4  5  2  0  0  0
  5 25  1  0  0  0
  6  7  2  0  0  0
  7  8  1  0  0  0
  7 18  1  0  0  0
  8  9  2  0  0  0
  8 10  1  0  0  0
  9 11  1  0  0  0
 11 26  1  0  0  0
 11 27  1  0  0  0
 12 13  1  0  0  0
 12 16  2  0  0  0
 13 14  2  0  0  0
 13 28  1  0  0  0
 14 15  1  0  0  0
 15 16  1  0  0  0
 15 17  1  0  0  0
 16 29  1  0  0  0
 17 30  1  0  0  0
 17 31  1  0  0  0
 17 32  1  0  0  0
 18 19  1  0  0  0
 18 23  1  0  0  0
 18 33  1  0  0  0
 19 20  1  0  0  0
 19 34  1  0  0  0
 19 35  1  0  0  0
 20 21  1  0  0  0
 20 24  1  0  0  0
 20 36  1  0  0  0
 21 22  1  0  0  0
 21 37  1  0  0  0
 21 38  1  0  0  0
 22 23  1  0  0  0
 22 39  1  0  0  0
 22 40  1  0  0  0
 23 41  1  0  0  0
 23 42  1  0  0  0
 24 43  1  0  0  0
 24 44  1  0  0  0
 24 45  1  0  0  0
M  CHG  1  24   1
M  END
> <s_m_source_file>
../3ot3_ligand.sdf

> <i_m_source_file_index>
1

> <s_epik_input>
W2NIXTFuKFtDSDNdKW5bY0hdYzEtYzJbY0hdbm4oYzIzKWMoW05IMl0pYyhCciljKG4zKVtDQEhdNFtDSDJdW0NAQEhdKFtOSDMrXSlbQ0gyXVtDSDJdW0NIMl00

> <s_epik_cmdline>
J2VwaWtfYXBwJywgJy1pbWFlJywgJ2xpZ2FuZF9wcm8ubWFlJywgJy1vbWFlJywgJ2xpZ2FuZF9wcmVwLm1hZScsICctbXMnLCAnMScsICctcGgnLCAnNycsICctcGh0JywgJzAuNScsICctbnQn

> <r_lp_tautomer_probability>
1

> <r_epik_Ionization_Penalty>
  0.0005

> <r_epik_Ionization_Penalty_Charging>
  0.0004

> <r_epik_Ionization_Penalty_Neutral>
  0.0001

> <r_epik_State_Penalty>
 -0.0000

> <r_epik_Charging_Adjusted_Penalty>
0.000372556235569091

> <i_epik_Tot_Q>
1

> <i_epik_Tot_abs_Q>
1

$$$$
