3ot8_ligand
                    3D
 Schrodinger Suite 2020-3.
 51 55  0  0  1  0            999 V2000
   14.4620   -0.5520   10.0620 C   0  0  0  0  0  0
   15.6050   -1.2240   10.3080 C   0  0  0  0  0  0
   16.5910   -0.6580    9.5290 N   0  0  0  0  0  0
   16.1020    0.4220    8.7980 N   0  0  0  0  0  0
   14.8370    0.4600    9.1330 C   0  0  0  0  0  0
   15.8630   -2.2990   11.1330 N   0  0  0  0  0  0
   17.0770   -2.7250   11.1370 C   0  0  0  0  0  0
   18.1960   -2.1600   10.3700 C   0  0  0  0  0  0
   17.9150   -1.1530    9.5380 C   0  0  0  0  0  0
   18.8000   -0.5130    8.7420 N   0  0  0  0  0  0
   17.4190   -3.8620   12.1030 C   0  0  1  0  0  0
   13.1820   -0.7320   10.7320 C   0  0  0  0  0  0
   16.9290   -3.4360   13.5220 C   0  0  0  0  0  0
   17.2820   -4.4480   14.5500 N   0  3  0  0  0  0
   16.5790   -5.6820   14.2390 C   0  0  0  0  0  0
   17.0870   -6.2140   12.8900 C   0  0  0  0  0  0
   16.8020   -5.1860   11.7570 C   0  0  0  0  0  0
   12.1450    0.1900   10.8280 C   0  0  0  0  0  0
   11.1210   -0.2460   11.5410 N   0  0  0  0  0  0
   11.5210   -1.4660   11.9640 N   0  0  0  0  0  0
   12.7690   -1.7940   11.5180 C   0  0  0  0  0  0
   10.6180   -2.2810   12.8230 C   0  0  0  0  0  0
   20.0260   -0.8910    8.3230 C   0  0  0  0  0  0
   20.7970   -2.3580    8.6970 S   0  0  0  0  0  0
   22.1890   -2.0680    7.8390 N   0  0  0  0  0  0
   22.0850   -0.8580    7.2670 C   0  0  0  0  0  0
   20.8800   -0.1530    7.5180 C   0  0  0  0  0  0
   23.2110   -0.3600    6.4390 C   0  0  0  0  0  0
   14.1371    1.1965    8.7382 H   0  0  0  0  0  0
   19.2102   -2.5453   10.4752 H   0  0  0  0  0  0
   18.5543    0.4775    8.3314 H   0  0  0  0  0  0
   18.5015   -4.0405   12.0231 H   0  0  0  0  0  0
   17.3980   -2.4807   13.8004 H   0  0  0  0  0  0
   15.8353   -3.3184   13.5123 H   0  0  0  0  0  0
   18.3684   -4.6201   14.5372 H   0  0  0  0  0  0
   16.9803   -4.0828   15.5428 H   0  0  0  0  0  0
   16.7721   -6.4230   15.0287 H   0  0  0  0  0  0
   15.4988   -5.4834   14.1787 H   0  0  0  0  0  0
   18.1714   -6.3887   12.9497 H   0  0  0  0  0  0
   16.5759   -7.1586   12.6524 H   0  0  0  0  0  0
   15.7148   -5.0649   11.6415 H   0  0  0  0  0  0
   17.2319   -5.5558   10.8144 H   0  0  0  0  0  0
   12.1739    1.1747   10.3614 H   0  0  0  0  0  0
   13.3259   -2.7052   11.7361 H   0  0  0  0  0  0
    9.6836   -1.7285   13.0005 H   0  0  0  0  0  0
   11.1119   -2.4847   13.7846 H   0  0  0  0  0  0
   10.3916   -3.2319   12.3184 H   0  0  0  0  0  0
   20.6548    0.8398    7.1286 H   0  0  0  0  0  0
   24.0121   -1.1135    6.4182 H   0  0  0  0  0  0
   23.5980    0.5749    6.8706 H   0  0  0  0  0  0
   22.8576   -0.1722    5.4144 H   0  0  0  0  0  0
  1  2  2  0  0  0
  1  5  1  0  0  0
  1 12  1  0  0  0
  2  3  1  0  0  0
  2  6  1  0  0  0
  3  4  1  0  0  0
  3  9  1  0  0  0
  4  5  2  0  0  0
  5 29  1  0  0  0
  6  7  2  0  0  0
  7  8  1  0  0  0
  7 11  1  0  0  0
  8  9  2  0  0  0
  8 30  1  0  0  0
  9 10  1  0  0  0
 10 23  1  0  0  0
 10 31  1  0  0  0
 11 13  1  0  0  0
 11 17  1  0  0  0
 11 32  1  0  0  0
 12 18  1  0  0  0
 12 21  2  0  0  0
 13 14  1  0  0  0
 13 33  1  0  0  0
 13 34  1  0  0  0
 14 15  1  0  0  0
 14 35  1  0  0  0
 14 36  1  0  0  0
 15 16  1  0  0  0
 15 37  1  0  0  0
 15 38  1  0  0  0
 16 17  1  0  0  0
 16 39  1  0  0  0
 16 40  1  0  0  0
 17 41  1  0  0  0
 17 42  1  0  0  0
 18 19  2  0  0  0
 18 43  1  0  0  0
 19 20  1  0  0  0
 20 21  1  0  0  0
 20 22  1  0  0  0
 21 44  1  0  0  0
 22 45  1  0  0  0
 22 46  1  0  0  0
 22 47  1  0  0  0
 23 24  1  0  0  0
 23 27  2  0  0  0
 24 25  1  0  0  0
 25 26  2  0  0  0
 26 27  1  0  0  0
 26 28  1  0  0  0
 27 48  1  0  0  0
 28 49  1  0  0  0
 28 50  1  0  0  0
 28 51  1  0  0  0
M  CHG  1  14   1
M  END
> <s_m_source_file>
../3ot8_ligand.sdf

> <i_m_source_file_index>
1

> <s_epik_input>
W2NIXTFuKFtDSDNdKW5bY0hdYzEtYzJbY0hdbm4oYzIzKWMoW05IXWM0c25jKFtjSF00KVtDSDNdKVtjSF1jKG4zKVtDQEhdNVtDSDJdW05IMitdW0NIMl1bQ0gyXVtDSDJdNQ==

> <s_epik_cmdline>
J2VwaWtfYXBwJywgJy1pbWFlJywgJ2xpZ2FuZF9wcm8ubWFlJywgJy1vbWFlJywgJ2xpZ2FuZF9wcmVwLm1hZScsICctbXMnLCAnMScsICctcGgnLCAnNycsICctcGh0JywgJzAuNScsICctbnQn

> <r_lp_tautomer_probability>
1

> <r_epik_Ionization_Penalty>
  0.0002

> <r_epik_Ionization_Penalty_Charging>
  0.0001

> <r_epik_Ionization_Penalty_Neutral>
  0.0001

> <r_epik_State_Penalty>
 -0.0000

> <r_epik_Charging_Adjusted_Penalty>
0.000140678057269258

> <i_epik_Tot_Q>
1

> <i_epik_Tot_abs_Q>
1

$$$$
