3otf_ligand
                    3D
 Schrodinger Suite 2020-3.
 33 36  0  0  1  0            999 V2000
  -20.0210  -17.1830   13.4290 P   0  0  1  0  0  0
  -20.8030  -16.9690   12.1580 O   0  0  0  0  0  0
  -18.7120  -16.4340   13.3810 O   0  5  0  0  0  0
  -20.9740  -16.7660   14.6380 O   0  0  0  0  0  0
  -22.1280  -17.5550   14.9150 C   0  0  0  0  0  0
  -21.5840  -18.9570   15.1040 C   0  0  1  0  0  0
  -22.5290  -19.9610   15.4140 O   0  0  0  0  0  0
  -20.9650  -19.4840   13.8440 C   0  0  1  0  0  0
  -19.7820  -18.7420   13.6620 O   0  0  0  0  0  0
  -20.7750  -20.9580   14.1530 C   0  0  1  0  0  0
  -19.5420  -21.2420   14.8310 O   0  0  0  0  0  0
  -21.9380  -21.2230   15.0890 C   0  0  2  0  0  0
  -22.9350  -21.9520   14.3010 N   0  0  0  0  0  0
  -23.6240  -21.4600   13.2530 C   0  0  0  0  0  0
  -24.4660  -22.4030   12.7600 N   0  0  0  0  0  0
  -24.3180  -23.5170   13.5090 C   0  0  0  0  0  0
  -24.8890  -24.8860   13.5410 C   0  0  0  0  0  0
  -25.8330  -25.2710   12.6520 N   0  0  0  0  0  0
  -24.4660  -25.7380   14.5010 N   0  0  0  0  0  0
  -23.5400  -25.3700   15.4020 C   0  0  0  0  0  0
  -22.9740  -24.1520   15.4270 N   0  0  0  0  0  0
  -23.3100  -23.2050   14.5260 C   0  0  0  0  0  0
  -22.6207  -17.1777   15.8232 H   0  0  0  0  0  0
  -22.8260  -17.4941   14.0670 H   0  0  0  0  0  0
  -20.9190  -18.8584   15.9746 H   0  0  0  0  0  0
  -21.4860  -19.3423   12.8856 H   0  0  0  0  0  0
  -20.6927  -21.5923   13.2581 H   0  0  0  0  0  0
  -18.5834  -21.1078   14.3084 H   0  0  0  0  0  0
  -21.6573  -21.7500   16.0129 H   0  0  0  0  0  0
  -23.5200  -20.4495   12.8578 H   0  0  0  0  0  0
  -26.1726  -24.5723   11.8732 H   0  0  0  0  0  0
  -26.2610  -26.2828   12.7078 H   0  0  0  0  0  0
  -23.2317  -26.0981   16.1523 H   0  0  0  0  0  0
  1  2  2  0  0  0
  1  3  1  0  0  0
  1  4  1  0  0  0
  1  9  1  0  0  0
  4  5  1  0  0  0
  5  6  1  0  0  0
  5 23  1  0  0  0
  5 24  1  0  0  0
  6  7  1  0  0  0
  6  8  1  0  0  0
  6 25  1  0  0  0
  7 12  1  0  0  0
  8  9  1  0  0  0
  8 10  1  0  0  0
  8 26  1  0  0  0
 10 11  1  0  0  0
 10 12  1  0  0  0
 10 27  1  0  0  0
 11 28  1  0  0  0
 12 13  1  0  0  0
 12 29  1  0  0  0
 13 14  1  0  0  0
 13 22  1  0  0  0
 14 15  2  0  0  0
 14 30  1  0  0  0
 15 16  1  0  0  0
 16 17  2  0  0  0
 16 22  1  0  0  0
 17 18  1  0  0  0
 17 19  1  0  0  0
 18 31  1  0  0  0
 18 32  1  0  0  0
 19 20  2  0  0  0
 20 21  1  0  0  0
 20 33  1  0  0  0
 21 22  2  0  0  0
M  CHG  1   3  -1
M  END
> <s_m_source_file>
../3otf_ligand.sdf

> <i_m_source_file_index>
1

> <s_epik_input>
W0NIMl0xT1tQQEBdKD1PKShbT0hdKU9bQ0BIXShbQ0BASF0xMilbQ0BASF0oW09IXSlbQ0BASF0oTzIpbihbY0hdbjMpYyhjMzQpbltjSF1uYzRbTkgyXQ==

> <s_epik_cmdline>
J2VwaWtfYXBwJywgJy1pbWFlJywgJ2xpZ2FuZF9wcm8ubWFlJywgJy1vbWFlJywgJ2xpZ2FuZF9wcmVwLm1hZScsICctbXMnLCAnMScsICctcGgnLCAnNycsICctcGh0JywgJzAuNScsICctbnQn

> <r_lp_tautomer_probability>
1

> <r_epik_Ionization_Penalty>
  0.0008

> <r_epik_Ionization_Penalty_Charging>
  0.0002

> <r_epik_Ionization_Penalty_Neutral>
  0.0005

> <r_epik_State_Penalty>
 -0.0000

> <r_epik_Charging_Adjusted_Penalty>
0.000248221998699987

> <i_epik_Tot_Q>
-1

> <i_epik_Tot_abs_Q>
1

> <s_epik_Chemistry_Notes>
This compound contains an acetal/aminal-like group ( X-CH(R)-Y where X, Y are N, S, or O) that may be acid/base labile, releasing an aldehyde.

$$$$
