3otq_ligand
                    3D
 Schrodinger Suite 2020-3.
 47 50  0  0  1  0            999 V2000
   75.3920  -11.2400   70.1760 N   0  0  0  0  0  0
   75.1440  -10.4490   68.9140 C   0  0  0  0  0  0
   75.6020  -12.7050   70.3170 C   0  0  0  0  0  0
   75.4830  -10.6950   71.4610 N   0  0  0  0  0  0
   74.0720  -10.6970   68.1100 C   0  0  0  0  0  0
   76.1070   -9.3760   68.4970 C   0  0  0  0  0  0
   75.7910  -12.9570   71.6060 C   0  0  0  0  0  0
   75.6150  -13.7550   69.1790 C   0  0  0  0  0  0
   75.7100  -11.6530   72.2840 C   0  0  0  0  0  0
   73.9010   -9.8940   66.8410 C   0  0  0  0  0  0
   75.9510   -8.6660   67.3760 C   0  0  0  0  0  0
   76.2060  -15.1540   69.5250 C   0  0  0  0  0  0
   75.9080  -11.5130   73.7590 C   0  0  0  0  0  0
   74.8150   -8.9310   66.4980 C   0  0  0  0  0  0
   75.9260  -12.6330   74.5720 C   0  0  0  0  0  0
   76.1150  -10.2000   74.3830 C   0  0  0  0  0  0
   74.7250   -8.1450   65.3150 N   0  0  0  0  0  0
   76.1470  -12.5150   76.0410 C   0  0  0  0  0  0
   76.3060  -10.1250   75.6720 N   0  0  0  0  0  0
   75.4870   -8.3520   64.1300 C   0  0  0  0  0  0
   76.3300  -11.2950   76.5520 C   0  0  0  0  0  0
   75.3030   -7.4160   62.9870 C   0  0  0  0  0  0
   76.3090   -9.2820   64.0670 O   0  0  0  0  0  0
   76.0270   -7.5630   61.8570 C   0  0  0  0  0  0
   74.3320   -6.2900   63.0520 C   0  0  0  0  0  0
   75.8480   -6.6300   60.7240 C   0  0  0  0  0  0
   74.1960   -5.4780   62.0310 N   0  0  0  0  0  0
   74.9470   -5.6280   60.8400 C   0  0  0  0  0  0
   73.3468  -11.4650   68.3788 H   0  0  0  0  0  0
   76.9671   -9.1679   69.1334 H   0  0  0  0  0  0
   75.9693  -13.9284   72.0672 H   0  0  0  0  0  0
   74.5852  -13.9412   68.8402 H   0  0  0  0  0  0
   76.2149  -13.3769   68.3381 H   0  0  0  0  0  0
   73.0445  -10.0818   66.1935 H   0  0  0  0  0  0
   76.6711   -7.8897   67.1172 H   0  0  0  0  0  0
   76.1571  -15.8023   68.6377 H   0  0  0  0  0  0
   75.6242  -15.6060   70.3419 H   0  0  0  0  0  0
   77.2540  -15.0416   69.8398 H   0  0  0  0  0  0
   75.7760  -13.6181   74.1302 H   0  0  0  0  0  0
   76.1092   -9.2955   73.7748 H   0  0  0  0  0  0
   74.0231   -7.2993   65.2686 H   0  0  0  0  0  0
   76.1589  -13.3984   76.6794 H   0  0  0  0  0  0
   76.4969  -11.1704   77.6219 H   0  0  0  0  0  0
   76.7491   -8.3758   61.7793 H   0  0  0  0  0  0
   73.7326   -6.1398   63.9499 H   0  0  0  0  0  0
   76.4320   -6.7477   59.8112 H   0  0  0  0  0  0
   74.7984   -4.9332   60.0134 H   0  0  0  0  0  0
  1  2  1  0  0  0
  1  3  1  0  0  0
  1  4  1  0  0  0
  2  5  2  0  0  0
  2  6  1  0  0  0
  3  7  2  0  0  0
  3  8  1  0  0  0
  4  9  2  0  0  0
  5 10  1  0  0  0
  5 29  1  0  0  0
  6 11  2  0  0  0
  6 30  1  0  0  0
  7  9  1  0  0  0
  7 31  1  0  0  0
  8 12  1  0  0  0
  8 32  1  0  0  0
  8 33  1  0  0  0
  9 13  1  0  0  0
 10 14  2  0  0  0
 10 34  1  0  0  0
 11 14  1  0  0  0
 11 35  1  0  0  0
 12 36  1  0  0  0
 12 37  1  0  0  0
 12 38  1  0  0  0
 13 15  2  0  0  0
 13 16  1  0  0  0
 14 17  1  0  0  0
 15 18  1  0  0  0
 15 39  1  0  0  0
 16 19  2  0  0  0
 16 40  1  0  0  0
 17 20  1  0  0  0
 17 41  1  0  0  0
 18 21  2  0  0  0
 18 42  1  0  0  0
 19 21  1  0  0  0
 20 22  1  0  0  0
 20 23  2  0  0  0
 21 43  1  0  0  0
 22 24  2  0  0  0
 22 25  1  0  0  0
 24 26  1  0  0  0
 24 44  1  0  0  0
 25 27  2  0  0  0
 25 45  1  0  0  0
 26 28  2  0  0  0
 26 46  1  0  0  0
 27 28  1  0  0  0
 28 47  1  0  0  0
M  END
> <s_m_source_file>
../3otq_ligand.sdf

> <i_m_source_file_index>
1

> <s_epik_input>
W2NIXTFuW2NIXVtjSF1bY0hdYzEtYyhuMilbY0hdYyhbQ0gyXVtDSDNdKW4yLWMzW2NIXVtjSF1jKFtjSF1bY0hdMylbTkhdQyg9TyljNFtjSF1bY0hdW2NIXW5bY0hdNA==

> <s_epik_cmdline>
J2VwaWtfYXBwJywgJy1pbWFlJywgJ2xpZ2FuZF9wcm8ubWFlJywgJy1vbWFlJywgJ2xpZ2FuZF9wcmVwLm1hZScsICctbXMnLCAnMScsICctcGgnLCAnNycsICctcGh0JywgJzAuNScsICctbnQn

> <r_lp_tautomer_probability>
1

> <r_epik_Ionization_Penalty>
  0.0037

> <r_epik_Ionization_Penalty_Charging>
  0.0000

> <r_epik_Ionization_Penalty_Neutral>
  0.0037

> <r_epik_State_Penalty>
 -0.0000

> <r_epik_Charging_Adjusted_Penalty>
0

> <i_epik_Tot_Q>
0

> <i_epik_Tot_abs_Q>
0

$$$$
