3otx_ligand
                    3D
 Schrodinger Suite 2020-3.
 81 86  0  0  1  0            999 V2000
   24.2220    2.1670   20.8420 P   0  0  1  0  0  0
   24.7170    3.5500   20.4310 O   0  5  0  0  0  0
   25.3280    1.1950   21.2000 O   0  0  0  0  0  0
   23.2190    2.1960   22.1010 O   0  0  0  0  0  0
   23.3180    3.1530   23.3970 P   0  0  2  0  0  0
   24.6840    3.7380   23.5800 O   0  5  0  0  0  0
   22.7390    2.3830   24.5330 O   0  0  0  0  0  0
   22.3090    4.2910   22.9250 O   0  0  0  0  0  0
   22.0750    5.7990   23.3790 P   0  0  0  0  0  0
   21.4580    6.5080   22.2130 O   0  0  0  0  0  0
   23.3290    6.5450   23.7780 O   0  5  0  0  0  0
   21.0100    5.5790   24.4860 O   0  0  0  0  0  0
   20.2560    6.6420   25.4430 P   0  0  2  0  0  0
   20.6680    8.0840   25.2090 O   0  5  0  0  0  0
   20.3810    6.0740   26.8290 O   0  0  0  0  0  0
   18.7510    6.5240   24.8840 O   0  0  0  0  0  0
   17.6470    5.4440   25.3520 P   0  0  2  0  0  0
   18.3030    4.1070   25.5520 O   0  0  0  0  0  0
   16.4520    5.5160   24.4040 O   0  5  0  0  0  0
   23.2610    1.6360   19.6730 O   0  0  0  0  0  0
   22.5010    0.4390   19.8390 C   0  0  0  0  0  0
   22.1650   -0.1180   18.4770 C   0  0  1  0  0  0
   21.5140    0.8850   17.6850 O   0  0  0  0  0  0
   23.3740   -0.4980   17.6270 C   0  0  1  0  0  0
   23.7640   -1.8180   17.9170 O   0  0  0  0  0  0
   22.8930   -0.2780   16.2220 C   0  0  1  0  0  0
   22.1320   -1.3820   15.8000 O   0  0  0  0  0  0
   21.9370    0.9090   16.3770 C   0  0  2  0  0  0
   22.5870    2.2310   16.1460 N   0  0  0  0  0  0
   22.8870    3.1970   17.1110 C   0  0  0  0  0  0
   23.4510    4.2580   16.4710 N   0  0  0  0  0  0
   23.4970    3.9930   15.1440 C   0  0  0  0  0  0
   23.9160    4.7100   14.0450 C   0  0  0  0  0  0
   24.3150    5.9810   14.1420 N   0  0  0  0  0  0
   23.8060    4.1400   12.8000 N   0  0  0  0  0  0
   23.2640    2.8780   12.6150 C   0  0  0  0  0  0
   22.8370    2.1760   13.7220 N   0  0  0  0  0  0
   22.9280    2.7250   14.9490 C   0  0  0  0  0  0
   17.1990    5.9760   26.8200 O   0  0  0  0  0  0
   16.5960    7.2520   26.9510 C   0  0  0  0  0  0
   15.6270    7.1050   28.1120 C   0  0  1  0  0  0
   16.3380    7.0080   29.3570 O   0  0  0  0  0  0
   14.7270    8.3270   28.3220 C   0  0  1  0  0  0
   13.4250    7.9930   27.8400 O   0  0  0  0  0  0
   14.7690    8.5900   29.8360 C   0  0  1  0  0  0
   13.4850    8.7860   30.4170 O   0  0  0  0  0  0
   15.4040    7.3240   30.3570 C   0  0  2  0  0  0
   16.0610    7.4880   31.6620 N   0  0  0  0  0  0
   17.0700    8.3720   31.9330 C   0  0  0  0  0  0
   17.3640    8.2430   33.2530 N   0  0  0  0  0  0
   16.5510    7.2860   33.8010 C   0  0  0  0  0  0
   16.4370    6.7560   35.0920 C   0  0  0  0  0  0
   17.1330    7.2050   36.1490 N   0  0  0  0  0  0
   15.4620    5.8130   35.2690 N   0  0  0  0  0  0
   14.6870    5.2950   34.2570 C   0  0  0  0  0  0
   14.7690    5.8490   32.9960 N   0  0  0  0  0  0
   15.7230    6.8050   32.7850 C   0  0  0  0  0  0
   23.0923   -0.2951   20.4059 H   0  0  0  0  0  0
   21.5748    0.6658   20.3874 H   0  0  0  0  0  0
   21.5123   -0.9795   18.6814 H   0  0  0  0  0  0
   24.3213    0.0267   17.8201 H   0  0  0  0  0  0
   24.1307   -2.0750   18.9217 H   0  0  0  0  0  0
   23.6996   -0.1886   15.4794 H   0  0  0  0  0  0
   22.6205   -2.3518   15.6241 H   0  0  0  0  0  0
   21.0718    0.8278   15.7026 H   0  0  0  0  0  0
   22.7027    3.1154   18.1822 H   0  0  0  0  0  0
   24.4089    6.4541   15.1306 H   0  0  0  0  0  0
   24.5497    6.5547   13.2333 H   0  0  0  0  0  0
   23.1772    2.4499   11.6163 H   0  0  0  0  0  0
   17.3711    8.0042   27.1593 H   0  0  0  0  0  0
   16.0766    7.5098   26.0162 H   0  0  0  0  0  0
   15.0628    6.1850   27.8993 H   0  0  0  0  0  0
   14.9786    9.2307   27.7475 H   0  0  0  0  0  0
   13.2713    7.7832   26.7712 H   0  0  0  0  0  0
   15.2572    9.5318   30.1271 H   0  0  0  0  0  0
   12.8857    9.6666   30.1425 H   0  0  0  0  0  0
   14.6953    6.4981   30.5171 H   0  0  0  0  0  0
   17.5466    9.0500   31.2250 H   0  0  0  0  0  0
   17.9175    7.9633   36.0091 H   0  0  0  0  0  0
   16.9186    6.8145   37.1548 H   0  0  0  0  0  0
   14.0165    4.4573   34.4491 H   0  0  0  0  0  0
  1  2  1  0  0  0
  1  3  2  0  0  0
  1  4  1  0  0  0
  1 20  1  0  0  0
  4  5  1  0  0  0
  5  6  1  0  0  0
  5  7  2  0  0  0
  5  8  1  0  0  0
  8  9  1  0  0  0
  9 10  2  0  0  0
  9 11  1  0  0  0
  9 12  1  0  0  0
 12 13  1  0  0  0
 13 14  1  0  0  0
 13 15  2  0  0  0
 13 16  1  0  0  0
 16 17  1  0  0  0
 17 18  2  0  0  0
 17 19  1  0  0  0
 17 39  1  0  0  0
 20 21  1  0  0  0
 21 22  1  0  0  0
 21 58  1  0  0  0
 21 59  1  0  0  0
 22 23  1  0  0  0
 22 24  1  0  0  0
 22 60  1  0  0  0
 23 28  1  0  0  0
 24 25  1  0  0  0
 24 26  1  0  0  0
 24 61  1  0  0  0
 25 62  1  0  0  0
 26 27  1  0  0  0
 26 28  1  0  0  0
 26 63  1  0  0  0
 27 64  1  0  0  0
 28 29  1  0  0  0
 28 65  1  0  0  0
 29 30  1  0  0  0
 29 38  1  0  0  0
 30 31  2  0  0  0
 30 66  1  0  0  0
 31 32  1  0  0  0
 32 33  2  0  0  0
 32 38  1  0  0  0
 33 34  1  0  0  0
 33 35  1  0  0  0
 34 67  1  0  0  0
 34 68  1  0  0  0
 35 36  2  0  0  0
 36 37  1  0  0  0
 36 69  1  0  0  0
 37 38  2  0  0  0
 39 40  1  0  0  0
 40 41  1  0  0  0
 40 70  1  0  0  0
 40 71  1  0  0  0
 41 42  1  0  0  0
 41 43  1  0  0  0
 41 72  1  0  0  0
 42 47  1  0  0  0
 43 44  1  0  0  0
 43 45  1  0  0  0
 43 73  1  0  0  0
 44 74  1  0  0  0
 45 46  1  0  0  0
 45 47  1  0  0  0
 45 75  1  0  0  0
 46 76  1  0  0  0
 47 48  1  0  0  0
 47 77  1  0  0  0
 48 49  1  0  0  0
 48 57  1  0  0  0
 49 50  2  0  0  0
 49 78  1  0  0  0
 50 51  1  0  0  0
 51 52  2  0  0  0
 51 57  1  0  0  0
 52 53  1  0  0  0
 52 54  1  0  0  0
 53 79  1  0  0  0
 53 80  1  0  0  0
 54 55  2  0  0  0
 55 56  1  0  0  0
 55 81  1  0  0  0
 56 57  2  0  0  0
M  CHG  5   2  -1   6  -1  11  -1  14  -1  19  -1
M  END
> <s_m_source_file>
../3otx_ligand.sdf

> <i_m_source_file_index>
1

> <s_epik_input>
W05IMl1jMW5bY0hdbmMoYzEyKW4oW2NIXW4yKVtDQEBIXShbQ0BIXShbT0hdKVtDQEBIXTNbT0hdKU9bQ0BASF0zW0NIMl1PW1BAQF0oPU8pKFtPSF0pT1tQQEBdKD1PKShbT0hdKU9QKD1PKShbT0hdKU9bUEBAXSg9TykoW09IXSlPW1BAXSg9TykoW09IXSlPW0NIMl1bQ0BIXTRPW0NASF0oW0NASF0oW09IXSlbQ0BASF00W09IXSluKFtjSF1uNSljKGM1NiluW2NIXW5jNltOSDJd

> <s_epik_cmdline>
J2VwaWtfYXBwJywgJy1pbWFlJywgJ2xpZ2FuZF9wcm8ubWFlJywgJy1vbWFlJywgJ2xpZ2FuZF9wcmVwLm1hZScsICctbXMnLCAnMScsICctcGgnLCAnNycsICctcGh0JywgJzAuNScsICctbnQn

> <r_lp_tautomer_probability>
1

> <r_epik_Ionization_Penalty>
  0.0019

> <r_epik_Ionization_Penalty_Charging>
  0.0011

> <r_epik_Ionization_Penalty_Neutral>
  0.0009

> <r_epik_State_Penalty>
 -0.0000

> <r_epik_Charging_Adjusted_Penalty>
0.00105270901682818

> <i_epik_Tot_Q>
-5

> <i_epik_Tot_abs_Q>
5

> <s_epik_Chemistry_Notes>
This compound contains an acetal/aminal-like group ( X-CH(R)-Y where X, Y are N, S, or O) that may be acid/base labile, releasing an aldehyde.

$$$$
