3ouj_ligand
                    3D
 Schrodinger Suite 2020-3.
 14 13  0  0  1  0            999 V2000
   14.2120   24.7980   -5.4660 C   0  0  0  0  0  0
   13.6390   24.3690   -6.5140 O   0  5  0  0  0  0
   15.0900   24.1210   -4.8870 O   0  0  0  0  0  0
   13.8490   26.1120   -4.8990 C   0  0  0  0  0  0
   13.1970   26.9100   -5.5590 O   0  0  0  0  0  0
   14.2630   26.4810   -3.4840 C   0  0  0  0  0  0
   13.2770   27.5000   -2.9140 C   0  0  0  0  0  0
   13.6190   27.9000   -1.4970 C   0  0  0  0  0  0
   14.4110   27.2000   -0.8280 O   0  5  0  0  0  0
   13.0820   28.9310   -1.0380 O   0  0  0  0  0  0
   14.2625   25.5787   -2.8548 H   0  0  0  0  0  0
   15.2729   26.9168   -3.4993 H   0  0  0  0  0  0
   13.2872   28.4075   -3.5356 H   0  0  0  0  0  0
   12.2650   27.0690   -2.9110 H   0  0  0  0  0  0
  1  2  1  0  0  0
  1  3  2  0  0  0
  1  4  1  0  0  0
  4  5  2  0  0  0
  4  6  1  0  0  0
  6  7  1  0  0  0
  6 11  1  0  0  0
  6 12  1  0  0  0
  7  8  1  0  0  0
  7 13  1  0  0  0
  7 14  1  0  0  0
  8  9  1  0  0  0
  8 10  2  0  0  0
M  CHG  2   2  -1   9  -1
M  END
> <s_m_source_file>
../3ouj_ligand.sdf

> <i_m_source_file_index>
1

> <s_epik_input>
W09IXUMoPU8pQyg9TylbQ0gyXVtDSDJdQyg9TylbT0hd

> <s_epik_cmdline>
J2VwaWtfYXBwJywgJy1pbWFlJywgJ2xpZ2FuZF9wcm8ubWFlJywgJy1vbWFlJywgJ2xpZ2FuZF9wcmVwLm1hZScsICctbXMnLCAnMScsICctcGgnLCAnNycsICctcGh0JywgJzAuNScsICctbnQn

> <r_lp_tautomer_probability>
1

> <r_epik_Ionization_Penalty>
  0.0013

> <r_epik_Ionization_Penalty_Charging>
  0.0013

> <r_epik_Ionization_Penalty_Neutral>
  0.0000

> <r_epik_State_Penalty>
 -0.0000

> <r_epik_Charging_Adjusted_Penalty>
0.00129329390835398

> <i_epik_Tot_Q>
-2

> <i_epik_Tot_abs_Q>
2

$$$$
