3ovx_ligand
                    3D
 Schrodinger Suite 2020-3.
 32 32  0  0  1  0            999 V2000
   28.8940   33.9020   20.4670 C   0  0  0  0  0  0
   30.0390   33.4370   21.1190 C   0  0  0  0  0  0
   30.5670   34.1440   22.1980 C   0  0  0  0  0  0
   29.9540   35.3180   22.6260 C   0  0  0  0  0  0
   28.8160   35.7860   21.9730 C   0  0  0  0  0  0
   28.2870   35.0710   20.9080 C   0  0  0  0  0  0
   26.8200   35.6600   20.0660 Cl  0  0  0  0  0  0
   28.1630   37.0440   22.4750 C   0  0  0  0  0  0
   28.7850   38.2320   22.3940 N   0  0  0  0  0  0
   27.0650   36.9140   22.9820 O   0  0  0  0  0  0
   28.2110   39.4860   22.8900 C   0  0  2  0  0  0
   27.9780   40.4220   21.6990 C   0  0  0  0  0  0
   27.0500   41.4590   22.0610 O   0  0  0  0  0  0
   29.2590   40.0990   23.8190 C   0  0  0  0  0  0
   29.4550   39.2760   25.0740 C   0  0  0  0  0  0
   28.2950   33.1500   19.3040 C   0  0  0  0  0  0
   28.2420   33.9270   18.2420 F   0  0  0  0  0  0
   27.0690   32.7540   19.6060 F   0  0  0  0  0  0
   29.0040   32.0740   19.0270 F   0  0  0  0  0  0
   30.5207   32.5188   20.7829 H   0  0  0  0  0  0
   31.4591   33.7778   22.7061 H   0  0  0  0  0  0
   30.3640   35.8707   23.4713 H   0  0  0  0  0  0
   29.7794   38.2304   21.9238 H   0  0  0  0  0  0
   27.2618   39.2844   23.4080 H   0  0  0  0  0  0
   28.9326   40.8795   21.4000 H   0  0  0  0  0  0
   27.5669   39.8473   20.8559 H   0  0  0  0  0  0
   26.7653   42.2242   21.3238 H   0  0  0  0  0  0
   30.2237   40.1597   23.2940 H   0  0  0  0  0  0
   28.9394   41.1086   24.1168 H   0  0  0  0  0  0
   30.2150   39.7530   25.7103 H   0  0  0  0  0  0
   29.7884   38.2640   24.8005 H   0  0  0  0  0  0
   28.5040   39.2129   25.6233 H   0  0  0  0  0  0
  1  2  2  0  0  0
  1  6  1  0  0  0
  1 16  1  0  0  0
  2  3  1  0  0  0
  2 20  1  0  0  0
  3  4  2  0  0  0
  3 21  1  0  0  0
  4  5  1  0  0  0
  4 22  1  0  0  0
  5  6  2  0  0  0
  5  8  1  0  0  0
  6  7  1  0  0  0
  8  9  1  0  0  0
  8 10  2  0  0  0
  9 11  1  0  0  0
  9 23  1  0  0  0
 11 12  1  0  0  0
 11 14  1  0  0  0
 11 24  1  0  0  0
 12 13  1  0  0  0
 12 25  1  0  0  0
 12 26  1  0  0  0
 13 27  1  0  0  0
 14 15  1  0  0  0
 14 28  1  0  0  0
 14 29  1  0  0  0
 15 30  1  0  0  0
 15 31  1  0  0  0
 15 32  1  0  0  0
 16 17  1  0  0  0
 16 18  1  0  0  0
 16 19  1  0  0  0
M  END
> <s_m_source_file>
../3ovx_ligand.sdf

> <i_m_source_file_index>
1

> <s_epik_input>
RkMoRikoRiljMVtjSF1bY0hdW2NIXWMoYzFDbClDKD1PKVtOSF1bQ0BIXShbQ0gyXVtPSF0pW0NIMl1bQ0gzXQ==

> <s_epik_cmdline>
J2VwaWtfYXBwJywgJy1pbWFlJywgJ2xpZ2FuZF9wcm8ubWFlJywgJy1vbWFlJywgJ2xpZ2FuZF9wcmVwLm1hZScsICctbXMnLCAnMScsICctcGgnLCAnNycsICctcGh0JywgJzAuNScsICctbnQn

> <r_lp_tautomer_probability>
1

> <r_epik_Ionization_Penalty>
  0.0000

> <r_epik_Ionization_Penalty_Charging>
  0.0000

> <r_epik_Ionization_Penalty_Neutral>
  0.0000

> <r_epik_State_Penalty>
 -0.0000

> <r_epik_Charging_Adjusted_Penalty>
0

> <i_epik_Tot_Q>
0

> <i_epik_Tot_abs_Q>
0

$$$$
