3ovz_ligand
                    3D
 Schrodinger Suite 2020-3.
 49 50  0  0  1  0            999 V2000
   11.3270  -20.5380   -2.9200 N   0  0  0  0  0  0
   10.0600  -20.1520   -2.5870 C   0  0  0  0  0  0
    9.5600  -19.0050   -3.4960 C   0  0  2  0  0  0
   10.4580  -17.7460   -3.4680 C   0  0  1  0  0  0
    9.9360  -16.6540   -4.3050 N   0  0  0  0  0  0
   10.6330  -16.0130   -5.3140 C   0  0  0  0  0  0
    9.8690  -14.9270   -5.9270 C   0  0  0  0  0  0
    9.9860  -13.6810   -5.3200 C   0  0  0  0  0  0
    9.2600  -12.6060   -5.8180 C   0  0  0  0  0  0
    8.3990  -12.7630   -6.9300 C   0  0  0  0  0  0
    8.2720  -14.0040   -7.5500 C   0  0  0  0  0  0
    9.0040  -15.0710   -7.0110 C   0  0  0  0  0  0
    8.8620  -16.6070   -7.7160 Cl  0  0  0  0  0  0
    7.3160  -14.1660   -8.7090 C   0  0  0  0  0  0
    7.7720  -14.4740   -9.9440 F   0  0  0  0  0  0
    6.4910  -15.1760   -8.4100 F   0  0  0  0  0  0
    6.4700  -13.1290   -8.9570 F   0  0  0  0  0  0
    7.6500  -11.7900   -7.5130 O   0  0  0  0  0  0
    7.7670  -10.4650   -7.0030 C   0  0  0  0  0  0
    7.0890   -9.4690   -7.8930 C   0  0  0  0  0  0
    7.2600   -8.1810   -7.5390 N   0  0  0  0  0  0
    6.6720   -7.2470   -8.3240 C   0  0  0  0  0  0
    5.9250   -7.5500   -9.4460 C   0  0  0  0  0  0
    5.7880   -8.8640   -9.8040 C   0  0  0  0  0  0
    6.3630   -9.8380   -9.0090 C   0  0  0  0  0  0
   11.7590  -16.3050   -5.7010 O   0  0  0  0  0  0
   10.6090  -17.2390   -2.0130 C   0  0  0  0  0  0
   11.7430  -16.2360   -1.8720 C   0  0  0  0  0  0
    8.1830  -18.7590   -3.2180 O   0  0  0  0  0  0
    9.4240  -20.7000   -1.7010 O   0  0  0  0  0  0
   11.8667  -20.0179   -3.7252 H   0  0  0  0  0  0
   11.8078  -21.3690   -2.3830 H   0  0  0  0  0  0
    9.5418  -19.3159   -4.5510 H   0  0  0  0  0  0
   11.4273  -18.0057   -3.9186 H   0  0  0  0  0  0
    8.9115  -16.2844   -4.1509 H   0  0  0  0  0  0
   10.6424  -13.5488   -4.4599 H   0  0  0  0  0  0
    9.3550  -11.6283   -5.3456 H   0  0  0  0  0  0
    7.3026  -10.4131   -6.0072 H   0  0  0  0  0  0
    8.8304  -10.1942   -6.9262 H   0  0  0  0  0  0
    6.7950   -6.1978   -8.0556 H   0  0  0  0  0  0
    5.4554   -6.7606  -10.0328 H   0  0  0  0  0  0
    5.2342   -9.1382  -10.7019 H   0  0  0  0  0  0
    6.2442  -10.8917   -9.2614 H   0  0  0  0  0  0
    9.6765  -16.7486   -1.6970 H   0  0  0  0  0  0
   10.8194  -18.0898   -1.3482 H   0  0  0  0  0  0
   11.8118  -15.9052   -0.8252 H   0  0  0  0  0  0
   11.5473  -15.3680   -2.5188 H   0  0  0  0  0  0
   12.6902  -16.7092   -2.1700 H   0  0  0  0  0  0
    7.4651  -19.5924   -3.2149 H   0  0  0  0  0  0
  1  2  1  0  0  0
  1 31  1  0  0  0
  1 32  1  0  0  0
  2  3  1  0  0  0
  2 30  2  0  0  0
  3  4  1  0  0  0
  3 29  1  0  0  0
  3 33  1  0  0  0
  4  5  1  0  0  0
  4 27  1  0  0  0
  4 34  1  0  0  0
  5  6  1  0  0  0
  5 35  1  0  0  0
  6  7  1  0  0  0
  6 26  2  0  0  0
  7  8  2  0  0  0
  7 12  1  0  0  0
  8  9  1  0  0  0
  8 36  1  0  0  0
  9 10  2  0  0  0
  9 37  1  0  0  0
 10 11  1  0  0  0
 10 18  1  0  0  0
 11 12  2  0  0  0
 11 14  1  0  0  0
 12 13  1  0  0  0
 14 15  1  0  0  0
 14 16  1  0  0  0
 14 17  1  0  0  0
 18 19  1  0  0  0
 19 20  1  0  0  0
 19 38  1  0  0  0
 19 39  1  0  0  0
 20 21  2  0  0  0
 20 25  1  0  0  0
 21 22  1  0  0  0
 22 23  2  0  0  0
 22 40  1  0  0  0
 23 24  1  0  0  0
 23 41  1  0  0  0
 24 25  2  0  0  0
 24 42  1  0  0  0
 25 43  1  0  0  0
 27 28  1  0  0  0
 27 44  1  0  0  0
 27 45  1  0  0  0
 28 46  1  0  0  0
 28 47  1  0  0  0
 28 48  1  0  0  0
 29 49  1  0  0  0
M  END
> <s_m_source_file>
../3ovz_ligand.sdf

> <i_m_source_file_index>
1

> <s_epik_input>
W05IMl1DKD1PKVtDQEBIXShbT0hdKVtDQEhdKFtDSDJdW0NIM10pW05IXUMoPU8pYzFbY0hdW2NIXWMoYyhjMUNsKUMoRikoRilGKU9bQ0gyXWMybltjSF1bY0hdW2NIXVtjSF0y

> <s_epik_cmdline>
J2VwaWtfYXBwJywgJy1pbWFlJywgJ2xpZ2FuZF9wcm8ubWFlJywgJy1vbWFlJywgJ2xpZ2FuZF9wcmVwLm1hZScsICctbXMnLCAnMScsICctcGgnLCAnNycsICctcGh0JywgJzAuNScsICctbnQn

> <r_lp_tautomer_probability>
1

> <r_epik_Ionization_Penalty>
  0.0029

> <r_epik_Ionization_Penalty_Charging>
  0.0000

> <r_epik_Ionization_Penalty_Neutral>
  0.0029

> <r_epik_State_Penalty>
 -0.0000

> <r_epik_Charging_Adjusted_Penalty>
0

> <i_epik_Tot_Q>
0

> <i_epik_Tot_abs_Q>
0

$$$$
