3ow3_ligand
                    3D
 Schrodinger Suite 2020-3.
 57 61  0  0  1  0            999 V2000
   11.1820   34.7530   36.8670 N   0  0  0  0  0  0
   12.5280   34.7370   37.0060 C   0  0  0  0  0  0
   13.3080   33.6550   36.9970 N   0  0  0  0  0  0
   12.6840   32.4930   36.7520 C   0  0  0  0  0  0
   11.2740   32.4060   36.6120 C   0  0  0  0  0  0
   10.5370   33.6060   36.6420 C   0  0  0  0  0  0
   13.4410   31.2100   36.6910 C   0  0  0  0  0  0
   12.0440   30.0140   36.5100 S   0  0  0  0  0  0
   10.5960   31.0650   36.3230 C   0  0  1  0  0  0
    9.5300   30.4410   37.3110 C   0  0  0  0  0  0
    9.1770   33.6140   36.4220 N   0  0  0  0  0  0
    8.2040   33.9320   37.4140 C   0  0  0  0  0  0
    7.0290   34.5900   36.7170 C   0  0  0  0  0  0
    6.3570   33.8360   35.6400 N   0  0  0  0  0  0
    7.2220   32.9550   34.8370 C   0  0  0  0  0  0
    8.6780   32.8090   35.2940 C   0  0  0  0  0  0
    5.0120   34.0590   35.3900 C   0  0  0  0  0  0
    4.3660   34.8540   36.0780 O   0  0  0  0  0  0
    4.1210   33.4490   34.2950 C   0  0  1  0  0  0
    3.0950   32.4720   34.9260 C   0  0  0  0  0  0
    3.5140   31.1160   35.5470 C   0  0  0  0  0  0
    2.7250   30.3540   36.3700 C   0  0  0  0  0  0
    3.3040   29.1480   36.7880 N   0  3  0  0  0  0
    4.5380   29.1270   36.2120 C   0  0  0  0  0  0
    4.7210   30.2770   35.4630 C   0  0  0  0  0  0
    5.5740   28.1660   36.2820 C   0  0  0  0  0  0
    6.8150   28.3140   35.6180 C   0  0  0  0  0  0
    6.9990   29.4830   34.8510 C   0  0  0  0  0  0
    5.9530   30.4420   34.7800 C   0  0  0  0  0  0
    3.5340   34.6350   33.5480 N   0  3  0  0  0  0
   13.0217   35.6998   37.1378 H   0  0  0  0  0  0
   14.1256   31.2288   35.8302 H   0  0  0  0  0  0
   14.0201   31.0815   37.6173 H   0  0  0  0  0  0
    9.9616   31.2649   35.4469 H   0  0  0  0  0  0
    8.5996   31.0260   37.2636 H   0  0  0  0  0  0
    9.9248   30.4625   38.3375 H   0  0  0  0  0  0
    9.3243   29.4006   37.0190 H   0  0  0  0  0  0
    7.8805   33.0099   37.9191 H   0  0  0  0  0  0
    8.6436   34.6193   38.1518 H   0  0  0  0  0  0
    6.2402   34.8056   37.4527 H   0  0  0  0  0  0
    7.3595   35.5286   36.2481 H   0  0  0  0  0  0
    6.8077   31.9360   34.8362 H   0  0  0  0  0  0
    7.2714   33.3315   33.8046 H   0  0  0  0  0  0
    9.2651   33.0377   34.3923 H   0  0  0  0  0  0
    8.7765   31.7401   35.5344 H   0  0  0  0  0  0
    4.6626   32.8347   33.5606 H   0  0  0  0  0  0
    2.5790   32.9704   35.7599 H   0  0  0  0  0  0
    2.3586   32.1723   34.1658 H   0  0  0  0  0  0
    1.7218   30.7068   36.6513 H   0  0  0  0  0  0
    5.4082   27.2676   36.8765 H   0  0  0  0  0  0
    7.5952   27.5568   35.6961 H   0  0  0  0  0  0
    7.9349   29.6493   34.3176 H   0  0  0  0  0  0
    6.1030   31.3382   34.1780 H   0  0  0  0  0  0
    4.3489   35.2549   33.1459 H   0  0  0  0  0  0
    2.9219   35.2357   34.2369 H   0  0  0  0  0  0
    2.9062   34.2729   32.7205 H   0  0  0  0  0  0
    2.7436   28.4679   37.4464 H   0  0  0  0  0  0
  1  2  2  0  0  0
  1  6  1  0  0  0
  2  3  1  0  0  0
  2 31  1  0  0  0
  3  4  2  0  0  0
  4  5  1  0  0  0
  4  7  1  0  0  0
  5  6  2  0  0  0
  5  9  1  0  0  0
  6 11  1  0  0  0
  7  8  1  0  0  0
  7 32  1  0  0  0
  7 33  1  0  0  0
  8  9  1  0  0  0
  9 10  1  0  0  0
  9 34  1  0  0  0
 10 35  1  0  0  0
 10 36  1  0  0  0
 10 37  1  0  0  0
 11 12  1  0  0  0
 11 16  1  0  0  0
 12 13  1  0  0  0
 12 38  1  0  0  0
 12 39  1  0  0  0
 13 14  1  0  0  0
 13 40  1  0  0  0
 13 41  1  0  0  0
 14 15  1  0  0  0
 14 17  1  0  0  0
 15 16  1  0  0  0
 15 42  1  0  0  0
 15 43  1  0  0  0
 16 44  1  0  0  0
 16 45  1  0  0  0
 17 18  2  0  0  0
 17 19  1  0  0  0
 19 20  1  0  0  0
 19 30  1  0  0  0
 19 46  1  0  0  0
 20 21  1  0  0  0
 20 47  1  0  0  0
 20 48  1  0  0  0
 21 22  2  0  0  0
 21 25  1  0  0  0
 22 23  1  0  0  0
 22 49  1  0  0  0
 23 24  1  0  0  0
 23 57  1  0  0  0
 24 25  2  0  0  0
 24 26  1  0  0  0
 25 29  1  0  0  0
 26 27  2  0  0  0
 26 50  1  0  0  0
 27 28  1  0  0  0
 27 51  1  0  0  0
 28 29  2  0  0  0
 28 52  1  0  0  0
 29 53  1  0  0  0
 30 54  1  0  0  0
 30 55  1  0  0  0
 30 56  1  0  0  0
M  CHG  2  23   1  30   1
M  END
> <s_m_source_file>
../3ow3_ligand.sdf

> <i_m_source_file_index>
1

> <s_epik_input>
W0NIMl0xU1tDQEBIXShbQ0gzXSljKGMxMiljKG5bY0hdbjIpTjNbQ0gyXVtDSDJdTihbQ0gyXVtDSDJdMylDKD1PKVtDQEhdKFtOSDMrXSlbQ0gyXWMoW2NIXVtuSF00KWMoYzQ1KVtjSF1bY0hdW2NIXVtjSF01

> <s_epik_cmdline>
J2VwaWtfYXBwJywgJy1pbWFlJywgJ2xpZ2FuZF9wcm8ubWFlJywgJy1vbWFlJywgJ2xpZ2FuZF9wcmVwLm1hZScsICctbXMnLCAnMScsICctcGgnLCAnNycsICctcGh0JywgJzAuNScsICctbnQn

> <r_lp_tautomer_probability>
1

> <r_epik_Ionization_Penalty>
  0.1696

> <r_epik_Ionization_Penalty_Charging>
  0.1627

> <r_epik_Ionization_Penalty_Neutral>
  0.0069

> <r_epik_State_Penalty>
  0.1520

> <r_epik_Charging_Adjusted_Penalty>
0.314712865312787

> <i_epik_Tot_Q>
2

> <i_epik_Tot_abs_Q>
2

$$$$
