3ow4_ligand
                    3D
 Schrodinger Suite 2020-3.
 57 61  0  0  1  0            999 V2000
   14.8750   -3.9170   15.3650 N   0  0  0  0  0  0
   16.1030   -4.3250   15.0060 C   0  0  0  0  0  0
   17.2190   -3.5850   14.9670 N   0  0  0  0  0  0
   17.1050   -2.2990   15.3210 C   0  0  0  0  0  0
   15.8650   -1.7680   15.7050 C   0  0  0  0  0  0
   14.7310   -2.6270   15.7100 C   0  0  0  0  0  0
   18.2720   -1.3470   15.3170 C   0  0  0  0  0  0
   17.5300    0.2820   15.6260 S   0  0  0  0  0  0
   15.8530   -0.2920   16.0540 C   0  0  1  0  0  0
   14.9140    0.4890   15.1300 C   0  0  0  0  0  0
   13.4590   -2.2330   16.1130 N   0  0  0  0  0  0
   13.3480   -1.5350   17.4150 C   0  0  0  0  0  0
   12.0200   -0.8080   17.6360 C   0  0  0  0  0  0
   10.9520   -1.8130   17.4960 N   0  0  0  0  0  0
   10.9780   -2.5500   16.2190 C   0  0  0  0  0  0
   12.3480   -3.1770   15.9280 C   0  0  0  0  0  0
    9.7980   -1.6830   18.1930 C   0  0  0  0  0  0
    8.8550   -2.4760   18.0590 O   0  0  0  0  0  0
    9.8580   -1.0000   19.5320 C   0  0  1  0  0  0
    8.9970    0.2740   19.6090 C   0  0  0  0  0  0
    9.3350    1.4750   18.7340 C   0  0  0  0  0  0
   10.0790    2.5850   19.0550 C   0  0  0  0  0  0
   10.1780    3.5360   18.0070 N   0  3  0  0  0  0
    9.4530    3.0010   16.9810 C   0  0  0  0  0  0
    8.9230    1.7660   17.3700 C   0  0  0  0  0  0
    9.2100    3.5180   15.6870 C   0  0  0  0  0  0
    8.4090    2.7490   14.8060 C   0  0  0  0  0  0
    7.8700    1.4970   15.2040 C   0  0  0  0  0  0
    8.1250    0.9920   16.4970 C   0  0  0  0  0  0
    9.4970   -2.0290   20.5450 N   0  3  0  0  0  0
   16.2024   -5.3707   14.7150 H   0  0  0  0  0  0
   18.9805   -1.6322   16.1086 H   0  0  0  0  0  0
   18.7767   -1.3896   14.3405 H   0  0  0  0  0  0
   15.4102   -0.2206   17.0584 H   0  0  0  0  0  0
   13.8734    0.1943   15.3307 H   0  0  0  0  0  0
   15.1625    0.2665   14.0818 H   0  0  0  0  0  0
   15.0318    1.5671   15.3139 H   0  0  0  0  0  0
   13.4525   -2.2641   18.2320 H   0  0  0  0  0  0
   14.1429   -0.7788   17.4946 H   0  0  0  0  0  0
   12.0078   -0.3647   18.6426 H   0  0  0  0  0  0
   11.9075   -0.0132   16.8840 H   0  0  0  0  0  0
   10.2348   -3.3604   16.2482 H   0  0  0  0  0  0
   10.7388   -1.8628   15.3941 H   0  0  0  0  0  0
   12.3393   -3.5337   14.8875 H   0  0  0  0  0  0
   12.4765   -4.0323   16.6077 H   0  0  0  0  0  0
   10.8818   -0.6502   19.7308 H   0  0  0  0  0  0
    7.9586    0.0316   19.3388 H   0  0  0  0  0  0
    9.0254    0.6744   20.6331 H   0  0  0  0  0  0
   10.5336    2.6727   20.0528 H   0  0  0  0  0  0
    9.6254    4.4770   15.3773 H   0  0  0  0  0  0
    8.2029    3.1258   13.8042 H   0  0  0  0  0  0
    7.2571    0.9239   14.5083 H   0  0  0  0  0  0
    7.7179    0.0317   16.8136 H   0  0  0  0  0  0
   10.1522   -2.9048   20.4276 H   0  0  0  0  0  0
    8.4495   -2.3329   20.4018 H   0  0  0  0  0  0
    9.6225   -1.6098   21.5542 H   0  0  0  0  0  0
   10.7571    4.4594   18.1551 H   0  0  0  0  0  0
  1  2  2  0  0  0
  1  6  1  0  0  0
  2  3  1  0  0  0
  2 31  1  0  0  0
  3  4  2  0  0  0
  4  5  1  0  0  0
  4  7  1  0  0  0
  5  6  2  0  0  0
  5  9  1  0  0  0
  6 11  1  0  0  0
  7  8  1  0  0  0
  7 32  1  0  0  0
  7 33  1  0  0  0
  8  9  1  0  0  0
  9 10  1  0  0  0
  9 34  1  0  0  0
 10 35  1  0  0  0
 10 36  1  0  0  0
 10 37  1  0  0  0
 11 12  1  0  0  0
 11 16  1  0  0  0
 12 13  1  0  0  0
 12 38  1  0  0  0
 12 39  1  0  0  0
 13 14  1  0  0  0
 13 40  1  0  0  0
 13 41  1  0  0  0
 14 15  1  0  0  0
 14 17  1  0  0  0
 15 16  1  0  0  0
 15 42  1  0  0  0
 15 43  1  0  0  0
 16 44  1  0  0  0
 16 45  1  0  0  0
 17 18  2  0  0  0
 17 19  1  0  0  0
 19 20  1  0  0  0
 19 30  1  0  0  0
 19 46  1  0  0  0
 20 21  1  0  0  0
 20 47  1  0  0  0
 20 48  1  0  0  0
 21 22  2  0  0  0
 21 25  1  0  0  0
 22 23  1  0  0  0
 22 49  1  0  0  0
 23 24  1  0  0  0
 23 57  1  0  0  0
 24 25  2  0  0  0
 24 26  1  0  0  0
 25 29  1  0  0  0
 26 27  2  0  0  0
 26 50  1  0  0  0
 27 28  1  0  0  0
 27 51  1  0  0  0
 28 29  2  0  0  0
 28 52  1  0  0  0
 29 53  1  0  0  0
 30 54  1  0  0  0
 30 55  1  0  0  0
 30 56  1  0  0  0
M  CHG  2  23   1  30   1
M  END
> <s_m_source_file>
../3ow4_ligand.sdf

> <i_m_source_file_index>
1

> <s_epik_input>
W0NIMl0xU1tDQEBIXShbQ0gzXSljKGMxMiljKG5bY0hdbjIpTjNbQ0gyXVtDSDJdTihbQ0gyXVtDSDJdMylDKD1PKVtDQEhdKFtOSDMrXSlbQ0gyXWMoW2NIXVtuSF00KWMoYzQ1KVtjSF1bY0hdW2NIXVtjSF01

> <s_epik_cmdline>
J2VwaWtfYXBwJywgJy1pbWFlJywgJ2xpZ2FuZF9wcm8ubWFlJywgJy1vbWFlJywgJ2xpZ2FuZF9wcmVwLm1hZScsICctbXMnLCAnMScsICctcGgnLCAnNycsICctcGh0JywgJzAuNScsICctbnQn

> <r_lp_tautomer_probability>
1

> <r_epik_Ionization_Penalty>
  0.1696

> <r_epik_Ionization_Penalty_Charging>
  0.1627

> <r_epik_Ionization_Penalty_Neutral>
  0.0069

> <r_epik_State_Penalty>
  0.1520

> <r_epik_Charging_Adjusted_Penalty>
0.314712865312787

> <i_epik_Tot_Q>
2

> <i_epik_Tot_abs_Q>
2

$$$$
