3owb_ligand
                    3D
 Schrodinger Suite 2020-3.
 44 46  0  0  1  0            999 V2000
   -2.3020    5.6650   28.2240 C   0  0  0  0  0  0
   -2.7530    6.2040   26.9840 O   0  0  0  0  0  0
   -1.7220    6.7420   26.2210 C   0  0  0  0  0  0
   -2.0730    7.2370   24.9860 C   0  0  0  0  0  0
   -1.1180    7.7730   24.1530 C   0  0  0  0  0  0
   -0.4000    6.7690   26.6130 C   0  0  0  0  0  0
    0.5500    7.3460   25.7720 C   0  0  0  0  0  0
    0.2080    7.8470   24.5370 C   0  0  0  0  0  0
    1.1500    8.5410   23.6610 C   0  0  0  0  0  0
    1.4450    8.1640   22.3670 C   0  0  0  0  0  0
    0.9770    7.0700   21.5930 C   0  0  0  0  0  0
    0.4040    6.1250   22.0980 O   0  0  0  0  0  0
    1.1500    7.2530   20.2360 N   0  0  0  0  0  0
    0.8800    6.1460   19.3390 C   0  0  0  0  0  0
   -0.2920    6.4240   18.4370 C   0  0  0  0  0  0
    2.3310    9.0790   21.8850 N   0  0  0  0  0  0
    2.6150   10.0560   22.7730 N   0  3  0  0  0  0
    1.9010    9.7390   23.8590 C   0  0  0  0  0  0
    1.9370   10.5780   25.0230 C   0  0  0  0  0  0
    0.7410   11.0650   25.5290 C   0  0  0  0  0  0
    0.7320   11.8310   26.6740 C   0  0  0  0  0  0
   -0.7600   12.4830   27.3490 Cl  0  0  0  0  0  0
    1.9290   12.0540   27.3090 C   0  0  0  0  0  0
    1.9270   12.7630   28.4930 O   0  0  0  0  0  0
    3.1360   11.5880   26.8220 C   0  0  0  0  0  0
    3.1370   10.8700   25.6490 C   0  0  0  0  0  0
    4.3550   10.4290   25.1420 O   0  5  0  0  0  0
   -3.1590    5.2565   28.7796 H   0  0  0  0  0  0
   -1.8253    6.4592   28.8173 H   0  0  0  0  0  0
   -1.5736    4.8633   28.0321 H   0  0  0  0  0  0
   -3.1143    7.2043   24.6655 H   0  0  0  0  0  0
   -1.4124    8.1462   23.1721 H   0  0  0  0  0  0
   -0.1011    6.3434   27.5709 H   0  0  0  0  0  0
    1.5879    7.4016   26.1003 H   0  0  0  0  0  0
    1.4868    8.2190   19.8317 H   0  0  0  0  0  0
    1.7623    5.9614   18.7085 H   0  0  0  0  0  0
    0.6544    5.2442   19.9271 H   0  0  0  0  0  0
   -0.4593    5.5604   17.7766 H   0  0  0  0  0  0
   -0.0827    7.3160   17.8283 H   0  0  0  0  0  0
   -1.1906    6.5988   19.0468 H   0  0  0  0  0  0
   -0.1957   10.8407   25.0186 H   0  0  0  0  0  0
    0.9808   13.1455   28.9034 H   0  0  0  0  0  0
    4.0658   11.7852   27.3556 H   0  0  0  0  0  0
    3.3075   10.8651   22.4978 H   0  0  0  0  0  0
  1  2  1  0  0  0
  1 28  1  0  0  0
  1 29  1  0  0  0
  1 30  1  0  0  0
  2  3  1  0  0  0
  3  4  2  0  0  0
  3  6  1  0  0  0
  4  5  1  0  0  0
  4 31  1  0  0  0
  5  8  2  0  0  0
  5 32  1  0  0  0
  6  7  2  0  0  0
  6 33  1  0  0  0
  7  8  1  0  0  0
  7 34  1  0  0  0
  8  9  1  0  0  0
  9 10  2  0  0  0
  9 18  1  0  0  0
 10 11  1  0  0  0
 10 16  1  0  0  0
 11 12  2  0  0  0
 11 13  1  0  0  0
 13 14  1  0  0  0
 13 35  1  0  0  0
 14 15  1  0  0  0
 14 36  1  0  0  0
 14 37  1  0  0  0
 15 38  1  0  0  0
 15 39  1  0  0  0
 15 40  1  0  0  0
 16 17  1  0  0  0
 17 18  2  0  0  0
 17 44  1  0  0  0
 18 19  1  0  0  0
 19 20  2  0  0  0
 19 26  1  0  0  0
 20 21  1  0  0  0
 20 41  1  0  0  0
 21 22  1  0  0  0
 21 23  2  0  0  0
 23 24  1  0  0  0
 23 25  1  0  0  0
 24 42  1  0  0  0
 25 26  2  0  0  0
 25 43  1  0  0  0
 26 27  1  0  0  0
M  CHG  2  17   1  27  -1
M  END
> <s_m_source_file>
../3owb_ligand.sdf

> <i_m_source_file_index>
1

> <s_epik_input>
W0NIM11PYzFbY0hdW2NIXWMoW2NIXVtjSF0xKS1jMmMoQyg9TylbTkhdW0NIMl1bQ0gzXSlbbkhdbmMyLWMzW2NIXWMoQ2wpYyhbT0hdKVtjSF1jM1tPSF0=

> <s_epik_cmdline>
J2VwaWtfYXBwJywgJy1pbWFlJywgJ2xpZ2FuZF9wcm8ubWFlJywgJy1vbWFlJywgJ2xpZ2FuZF9wcmVwLm1hZScsICctbXMnLCAnMScsICctcGgnLCAnNycsICctcGh0JywgJzAuNScsICctbnQn

> <r_lp_tautomer_probability>
1

> <r_epik_Ionization_Penalty>
  0.0007

> <r_epik_Ionization_Penalty_Charging>
  0.0001

> <r_epik_Ionization_Penalty_Neutral>
  0.0007

> <r_epik_State_Penalty>
 -0.0000

> <r_epik_Charging_Adjusted_Penalty>
5.82928508031292e-05

> <i_epik_Tot_Q>
0

> <i_epik_Tot_abs_Q>
2

$$$$
