3owl_ligand
                    3D
 Schrodinger Suite 2020-3.
 31 34  0  0  1  0            999 V2000
   23.4930    7.4440   10.8380 C   0  0  0  0  0  0
   23.7050    7.7690    9.5310 O   0  0  0  0  0  0
   23.3250    8.4660   11.7630 C   0  0  0  0  0  0
   23.1020    8.1710   13.1000 C   0  0  0  0  0  0
   23.0580    6.8340   13.5280 C   0  0  0  0  0  0
   23.2310    5.8110   12.5910 C   0  0  0  0  0  0
   23.4480    6.1100   11.2480 C   0  0  0  0  0  0
   22.9360    9.2320   13.9950 C   0  0  0  0  0  0
   22.7200    8.9730   15.3410 C   0  0  0  0  0  0
   22.6750    7.6500   15.7760 C   0  0  0  0  0  0
   22.8420    6.5950   14.8920 C   0  0  0  0  0  0
   22.4790    7.0970   17.0120 N   0  3  0  0  0  0
   22.5100    5.7360   16.9940 C   0  0  0  0  0  0
   22.7290    5.3460   15.6830 C   0  0  0  0  0  0
   22.3650    4.7780   17.9910 C   0  0  0  0  0  0
   22.1200    5.1740   19.4280 C   0  0  0  0  0  0
   22.4410    3.4390   17.6360 C   0  0  0  0  0  0
   22.6570    3.0840   16.3610 N   0  0  0  0  0  0
   22.8070    3.9750   15.3640 C   0  0  0  0  0  0
   23.0730    3.2850   13.7560 Cl  0  0  0  0  0  0
   23.7375    8.8251    9.2252 H   0  0  0  0  0  0
   23.3686    9.5052   11.4369 H   0  0  0  0  0  0
   23.1958    4.7706   12.9141 H   0  0  0  0  0  0
   23.5818    5.3080   10.5220 H   0  0  0  0  0  0
   22.9762   10.2605   13.6363 H   0  0  0  0  0  0
   22.5875    9.7923   16.0476 H   0  0  0  0  0  0
   22.0932    6.2709   19.5066 H   0  0  0  0  0  0
   22.9300    4.7808   20.0599 H   0  0  0  0  0  0
   21.1584    4.7587   19.7639 H   0  0  0  0  0  0
   22.3242    2.6697   18.3993 H   0  0  0  0  0  0
   22.3191    7.7458   17.8858 H   0  0  0  0  0  0
  1  2  1  0  0  0
  1  3  2  0  0  0
  1  7  1  0  0  0
  2 21  1  0  0  0
  3  4  1  0  0  0
  3 22  1  0  0  0
  4  5  2  0  0  0
  4  8  1  0  0  0
  5  6  1  0  0  0
  5 11  1  0  0  0
  6  7  2  0  0  0
  6 23  1  0  0  0
  7 24  1  0  0  0
  8  9  2  0  0  0
  8 25  1  0  0  0
  9 10  1  0  0  0
  9 26  1  0  0  0
 10 11  2  0  0  0
 10 12  1  0  0  0
 11 14  1  0  0  0
 12 13  2  0  0  0
 12 31  1  0  0  0
 13 14  1  0  0  0
 13 15  1  0  0  0
 14 19  2  0  0  0
 15 16  1  0  0  0
 15 17  2  0  0  0
 16 27  1  0  0  0
 16 28  1  0  0  0
 16 29  1  0  0  0
 17 18  1  0  0  0
 17 30  1  0  0  0
 18 19  1  0  0  0
 19 20  1  0  0  0
M  CHG  1  12   1
M  END
> <s_m_source_file>
../3owl_ligand.sdf

> <i_m_source_file_index>
1

> <s_epik_input>
W09IXWMoW2NIXTEpW2NIXVtjSF1jKGMxMiljM2MoW2NIXVtjSF0yKW5jNGMzYyhDbClbbkhdW2NIXWM0W0NIM10=

> <s_epik_cmdline>
J2VwaWtfYXBwJywgJy1pbWFlJywgJ2xpZ2FuZF9wcm8ubWFlJywgJy1vbWFlJywgJ2xpZ2FuZF9wcmVwLm1hZScsICctbXMnLCAnMScsICctcGgnLCAnNycsICctcGh0JywgJzAuNScsICctbnQn

> <r_epik_Ionization_Penalty>
  0.0585

> <r_epik_Ionization_Penalty_Charging>
  0.0000

> <r_epik_Ionization_Penalty_Neutral>
  0.0585

> <r_epik_State_Penalty>
  0.0506

> <r_epik_Charging_Adjusted_Penalty>
0.0506193968037258

> <i_epik_Tot_Q>
1

> <i_epik_Tot_abs_Q>
1

$$$$
