3oxc_ligand
                    3D
 Schrodinger Suite 2020-3.
100104  0  0  1  0            999 V2000
    6.1770   -6.4120   18.3710 C   0  0  0  0  0  0
    6.7550   -5.9360   19.3950 O   0  0  0  0  0  0
    4.9600   -8.2310   17.1490 N   0  0  0  0  0  0
    5.1600   -7.5720   18.3300 C   0  0  0  0  0  0
    4.4570   -7.9930   19.4390 C   0  0  0  0  0  0
    3.4980   -9.0230   19.3430 C   0  0  0  0  0  0
    2.4130  -10.7300   18.0240 C   0  0  0  0  0  0
    2.3200  -11.4040   16.8280 C   0  0  0  0  0  0
    3.0110  -10.9320   15.7240 C   0  0  0  0  0  0
    3.9420   -9.9240   15.8020 C   0  0  0  0  0  0
    3.3460   -9.6790   18.1210 C   0  0  0  0  0  0
    4.0940   -9.2390   17.0270 C   0  0  0  0  0  0
    6.4880   -5.9480   17.1620 N   0  0  0  0  0  0
    7.2860   -4.7110   16.9570 C   0  0  2  0  0  0
    6.5450   -3.7840   15.9510 C   0  0  0  0  0  0
    6.5510   -3.9780   14.7190 O   0  0  0  0  0  0
    8.6740   -5.0780   16.4420 C   0  0  0  0  0  0
    9.4610   -5.8910   17.4900 C   0  0  0  0  0  0
    9.8230   -5.3730   18.5300 O   0  0  0  0  0  0
    9.6760   -7.1570   17.2010 N   0  0  0  0  0  0
    5.6350   -0.3890   16.1730 C   0  0  1  0  0  0
    5.3610    0.0030   17.5450 O   0  0  0  0  0  0
    5.0990   -1.7890   15.8360 C   0  0  1  0  0  0
    5.8840   -2.7870   16.5750 N   0  0  0  0  0  0
    3.6060   -1.9610   16.0990 C   0  0  0  0  0  0
    3.0680   -3.3780   16.1940 C   0  0  0  0  0  0
    2.6420   -4.0520   15.0640 C   0  0  0  0  0  0
    2.9570   -4.0030   17.4320 C   0  0  0  0  0  0
    2.1460   -5.3490   15.1660 C   0  0  0  0  0  0
    2.4840   -5.3150   17.5500 C   0  0  0  0  0  0
    2.1210   -6.0060   16.3870 C   0  0  0  0  0  0
    5.9060    0.6920   13.9550 N   0  3  1  0  0  0
    5.1910    0.7120   15.2220 C   0  0  0  0  0  0
    5.1690    1.2770   12.8350 C   0  0  2  0  0  0
    3.8210    0.6310   12.5220 C   0  0  0  0  0  0
    3.8210   -0.5980   12.3830 O   0  0  0  0  0  0
    5.9850    1.1910   11.5490 C   0  0  0  0  0  0
    7.3300    1.9030   11.6680 C   0  0  2  0  0  0
    8.1840    1.8200   10.3990 C   0  0  0  0  0  0
    8.5800    0.3350   10.1580 C   0  0  0  0  0  0
    9.4840   -0.0220   11.3390 C   0  0  0  0  0  0
    8.5130   -0.0840   12.5620 C   0  0  0  0  0  0
    8.0800    1.3620   12.8860 C   0  0  2  0  0  0
    7.2120    1.4010   14.1400 C   0  0  0  0  0  0
    2.7730    1.4410   12.3490 N   0  0  0  0  0  0
    1.3960    1.0040   12.0530 C   0  0  0  0  0  0
    0.5600    2.2900   11.9480 C   0  0  0  0  0  0
    0.8740    0.1950   13.2370 C   0  0  0  0  0  0
    1.3740    0.1330   10.7970 C   0  0  0  0  0  0
    4.6451   -7.5229   20.4042 H   0  0  0  0  0  0
    2.8896   -9.3001   20.2039 H   0  0  0  0  0  0
    1.7833  -11.0013   18.8714 H   0  0  0  0  0  0
    1.7075  -12.3022   16.7499 H   0  0  0  0  0  0
    2.8075  -11.3795   14.7512 H   0  0  0  0  0  0
    4.5498   -9.6592   14.9368 H   0  0  0  0  0  0
    6.1285   -6.5207   16.2944 H   0  0  0  0  0  0
    7.3977   -4.2104   17.9301 H   0  0  0  0  0  0
    8.5779   -5.6831   15.5284 H   0  0  0  0  0  0
    9.2359   -4.1597   16.2161 H   0  0  0  0  0  0
    9.3249   -7.5700   16.2438 H   0  0  0  0  0  0
   10.2068   -7.8021   17.9167 H   0  0  0  0  0  0
    6.7295   -0.4702   16.0997 H   0  0  0  0  0  0
    5.6179   -0.6748   18.3724 H   0  0  0  0  0  0
    5.2372   -1.9737   14.7605 H   0  0  0  0  0  0
    5.9461   -2.7354   17.6720 H   0  0  0  0  0  0
    3.3454   -1.4869   17.0568 H   0  0  0  0  0  0
    3.0338   -1.4872   15.2878 H   0  0  0  0  0  0
    2.6947   -3.5660   14.0898 H   0  0  0  0  0  0
    3.2451   -3.4582   18.3310 H   0  0  0  0  0  0
    1.7728   -5.8542   14.2752 H   0  0  0  0  0  0
    2.3998   -5.7896   18.5276 H   0  0  0  0  0  0
    1.8210   -7.0525   16.4413 H   0  0  0  0  0  0
    6.0238   -0.3684   13.6871 H   0  0  0  0  0  0
    4.1193    0.5967   15.0025 H   0  0  0  0  0  0
    5.3662    1.6925   15.6888 H   0  0  0  0  0  0
    5.0098    2.2999   13.2070 H   0  0  0  0  0  0
    6.1785    0.1354   11.3074 H   0  0  0  0  0  0
    5.4236    1.6584   10.7266 H   0  0  0  0  0  0
    7.1223    2.9746   11.8044 H   0  0  0  0  0  0
    7.6051    2.1953    9.5423 H   0  0  0  0  0  0
    9.0895    2.4315   10.5257 H   0  0  0  0  0  0
    7.6732   -0.2872   10.1349 H   0  0  0  0  0  0
    9.1090    0.2478    9.1975 H   0  0  0  0  0  0
    9.9701   -0.9903   11.1490 H   0  0  0  0  0  0
   10.2519    0.7560   11.4613 H   0  0  0  0  0  0
    7.6377   -0.6983   12.3044 H   0  0  0  0  0  0
    9.0341   -0.5305   13.4217 H   0  0  0  0  0  0
    8.9515    1.9989   13.0978 H   0  0  0  0  0  0
    7.0244    2.4558   14.3896 H   0  0  0  0  0  0
    7.7749    0.9255   14.9567 H   0  0  0  0  0  0
    3.0015    2.5128   12.4438 H   0  0  0  0  0  0
    0.6325    2.8524   12.8906 H   0  0  0  0  0  0
   -0.4914    2.0292   11.7565 H   0  0  0  0  0  0
    0.9407    2.9084   11.1218 H   0  0  0  0  0  0
    0.8886    0.8193   14.1426 H   0  0  0  0  0  0
    1.5138   -0.6868   13.3891 H   0  0  0  0  0  0
   -0.1567   -0.1306   13.0327 H   0  0  0  0  0  0
    1.7498    0.7136    9.9416 H   0  0  0  0  0  0
    0.3430   -0.1926   10.5946 H   0  0  0  0  0  0
    2.0134   -0.7487   10.9510 H   0  0  0  0  0  0
  1  2  2  0  0  0
  1  4  1  0  0  0
  1 13  1  0  0  0
  3  4  2  0  0  0
  3 12  1  0  0  0
  4  5  1  0  0  0
  5  6  2  0  0  0
  5 50  1  0  0  0
  6 11  1  0  0  0
  6 51  1  0  0  0
  7  8  1  0  0  0
  7 11  2  0  0  0
  7 52  1  0  0  0
  8  9  2  0  0  0
  8 53  1  0  0  0
  9 10  1  0  0  0
  9 54  1  0  0  0
 10 12  2  0  0  0
 10 55  1  0  0  0
 11 12  1  0  0  0
 13 14  1  0  0  0
 13 56  1  0  0  0
 14 15  1  0  0  0
 14 17  1  0  0  0
 14 57  1  0  0  0
 15 16  2  0  0  0
 15 24  1  0  0  0
 17 18  1  0  0  0
 17 58  1  0  0  0
 17 59  1  0  0  0
 18 19  2  0  0  0
 18 20  1  0  0  0
 20 60  1  0  0  0
 20 61  1  0  0  0
 21 22  1  0  0  0
 21 23  1  0  0  0
 21 33  1  0  0  0
 21 62  1  0  0  0
 22 63  1  0  0  0
 23 24  1  0  0  0
 23 25  1  0  0  0
 23 64  1  0  0  0
 24 65  1  0  0  0
 25 26  1  0  0  0
 25 66  1  0  0  0
 25 67  1  0  0  0
 26 27  2  0  0  0
 26 28  1  0  0  0
 27 29  1  0  0  0
 27 68  1  0  0  0
 28 30  2  0  0  0
 28 69  1  0  0  0
 29 31  2  0  0  0
 29 70  1  0  0  0
 30 31  1  0  0  0
 30 71  1  0  0  0
 31 72  1  0  0  0
 32 33  1  0  0  0
 32 34  1  0  0  0
 32 44  1  0  0  0
 32 73  1  0  0  0
 33 74  1  0  0  0
 33 75  1  0  0  0
 34 35  1  0  0  0
 34 37  1  0  0  0
 34 76  1  0  0  0
 35 36  2  0  0  0
 35 45  1  0  0  0
 37 38  1  0  0  0
 37 77  1  0  0  0
 37 78  1  0  0  0
 38 39  1  0  0  0
 38 43  1  0  0  0
 38 79  1  0  0  0
 39 40  1  0  0  0
 39 80  1  0  0  0
 39 81  1  0  0  0
 40 41  1  0  0  0
 40 82  1  0  0  0
 40 83  1  0  0  0
 41 42  1  0  0  0
 41 84  1  0  0  0
 41 85  1  0  0  0
 42 43  1  0  0  0
 42 86  1  0  0  0
 42 87  1  0  0  0
 43 44  1  0  0  0
 43 88  1  0  0  0
 44 89  1  0  0  0
 44 90  1  0  0  0
 45 46  1  0  0  0
 45 91  1  0  0  0
 46 47  1  0  0  0
 46 48  1  0  0  0
 46 49  1  0  0  0
 47 92  1  0  0  0
 47 93  1  0  0  0
 47 94  1  0  0  0
 48 95  1  0  0  0
 48 96  1  0  0  0
 48 97  1  0  0  0
 49 98  1  0  0  0
 49 99  1  0  0  0
 49100  1  0  0  0
M  CHG  1  32   1
M  END
> <s_m_source_file>
../3oxc_ligand.sdf

> <i_m_source_file_index>
1

> <s_epik_input>
W2NIXTFbY0hdW2NIXVtjSF1jKGMxMiluYyhbY0hdW2NIXTIpQyg9TylbTkhdW0NAQEhdKFtDSDJdQyg9TylbTkgyXSlDKD1PKVtOSF1bQ0BASF0oW0NIMl1jM1tjSF1bY0hdW2NIXVtjSF1bY0hdMylbQ0BIXShbT0hdKVtDSDJdW05AQEgrXShbQ0BASF0oW0NIMl00KUMoPU8pW05IXUMoW0NIM10pKFtDSDNdKVtDSDNdKVtDSDJdW0NASF0oW0NASF00NSlbQ0gyXVtDSDJdW0NIMl1bQ0gyXTU=

> <s_epik_cmdline>
J2VwaWtfYXBwJywgJy1pbWFlJywgJ2xpZ2FuZF9wcm8ubWFlJywgJy1vbWFlJywgJ2xpZ2FuZF9wcmVwLm1hZScsICctbXMnLCAnMScsICctcGgnLCAnNycsICctcGh0JywgJzAuNScsICctbnQn

> <r_epik_Ionization_Penalty>
  0.0170

> <r_epik_Ionization_Penalty_Charging>
  0.0167

> <r_epik_Ionization_Penalty_Neutral>
  0.0002

> <r_epik_State_Penalty>
  0.0132

> <r_epik_Charging_Adjusted_Penalty>
0.0299262088794582

> <i_epik_Tot_Q>
1

> <i_epik_Tot_abs_Q>
1

$$$$
