3oxi_ligand
                    3D
 Schrodinger Suite 2020-3.
 29 30  0  0  1  0            999 V2000
    1.8160   -1.6330  -29.3460 S   0  0  0  0  0  0
    1.0620   -2.8060  -31.5600 C   0  0  0  0  0  0
   -0.9070   -1.3110  -32.0950 N   0  0  0  0  0  0
   -1.3960    0.5210  -30.0000 O   0  0  0  0  0  0
    0.1590   -1.7480  -31.3770 C   0  0  0  0  0  0
    0.2060    1.0350  -28.5700 O   0  0  0  0  0  0
   -2.6190    1.2370  -34.2240 S   0  0  0  0  0  0
    0.4330   -0.9710  -30.1370 C   0  0  0  0  0  0
   -0.6620   -2.9490  -33.6310 O   0  0  0  0  0  0
    2.0100   -2.8640  -30.5450 C   0  0  0  0  0  0
   -0.3010    0.2010  -29.5950 C   0  0  0  0  0  0
   -0.5830    2.2240  -28.3940 C   0  0  0  0  0  0
   -1.2560   -1.9560  -33.2110 C   0  0  0  0  0  0
   -2.4540   -1.4610  -33.9770 C   0  0  0  0  0  0
   -3.0560   -0.2110  -33.4020 C   0  0  0  0  0  0
   -3.9130    0.0820  -32.3230 C   0  0  0  0  0  0
   -4.1860    1.4540  -32.1980 C   0  0  0  0  0  0
   -3.5620    2.2280  -33.1660 C   0  0  0  0  0  0
    1.0246   -3.5006  -32.3992 H   0  0  0  0  0  0
   -1.4754   -0.4323  -31.7561 H   0  0  0  0  0  0
    2.8002   -3.6138  -30.5083 H   0  0  0  0  0  0
   -0.1493    2.8360  -27.5894 H   0  0  0  0  0  0
   -1.6130    1.9444  -28.1275 H   0  0  0  0  0  0
   -0.5903    2.8011  -29.3304 H   0  0  0  0  0  0
   -2.1603   -1.2391  -35.0136 H   0  0  0  0  0  0
   -3.2358   -2.2348  -33.9751 H   0  0  0  0  0  0
   -4.3214   -0.6765  -31.6552 H   0  0  0  0  0  0
   -4.8244    1.8694  -31.4183 H   0  0  0  0  0  0
   -3.6536    3.3110  -33.2482 H   0  0  0  0  0  0
  1  8  1  0  0  0
  1 10  1  0  0  0
  2  5  1  0  0  0
  2 10  2  0  0  0
  2 19  1  0  0  0
  3  5  1  0  0  0
  3 13  1  0  0  0
  3 20  1  0  0  0
  4 11  2  0  0  0
  5  8  2  0  0  0
  6 11  1  0  0  0
  6 12  1  0  0  0
  7 15  1  0  0  0
  7 18  1  0  0  0
  8 11  1  0  0  0
  9 13  2  0  0  0
 10 21  1  0  0  0
 12 22  1  0  0  0
 12 23  1  0  0  0
 12 24  1  0  0  0
 13 14  1  0  0  0
 14 15  1  0  0  0
 14 25  1  0  0  0
 14 26  1  0  0  0
 15 16  2  0  0  0
 16 17  1  0  0  0
 16 27  1  0  0  0
 17 18  2  0  0  0
 17 28  1  0  0  0
 18 29  1  0  0  0
M  END
> <s_m_source_file>
../3oxi_ligand.sdf

> <i_m_source_file_index>
1

> <s_epik_input>
W0NIM11PQyg9TyljMXNbY0hdW2NIXWMxW05IXUMoPU8pW0NIMl1jMnNbY0hdW2NIXVtjSF0y

> <s_epik_cmdline>
J2VwaWtfYXBwJywgJy1pbWFlJywgJ2xpZ2FuZF9wcm8ubWFlJywgJy1vbWFlJywgJ2xpZ2FuZF9wcmVwLm1hZScsICctbXMnLCAnMScsICctcGgnLCAnNycsICctcGh0JywgJzAuNScsICctbnQn

> <r_lp_tautomer_probability>
1

> <r_epik_Ionization_Penalty>
  0.0000

> <r_epik_Ionization_Penalty_Charging>
  0.0000

> <r_epik_Ionization_Penalty_Neutral>
  0.0000

> <r_epik_State_Penalty>
 -0.0000

> <r_epik_Charging_Adjusted_Penalty>
0

> <i_epik_Tot_Q>
0

> <i_epik_Tot_abs_Q>
0

> <s_epik_Chemistry_Notes>
This compound has an ester and may undergo hydrolysis at high or low pH.

$$$$
