3oxz_ligand
                    3D
 Schrodinger Suite 2020-3.
 67 71  0  0  1  0            999 V2000
   16.2310   -9.9090    7.9150 N   0  0  0  0  0  0
   12.9000   -5.1270   23.2000 N   0  3  1  0  0  0
   17.3260   -9.9860   12.5720 C   0  0  0  0  0  0
   17.2980  -10.2030   14.0150 C   0  0  0  0  0  0
   17.8810  -11.3660   14.6810 C   0  0  0  0  0  0
   17.7750  -11.4770   16.1130 C   0  0  0  0  0  0
   17.1060  -10.4650   16.8650 C   0  0  0  0  0  0
   16.6420   -9.2130   14.7850 C   0  0  0  0  0  0
   14.7600   -7.7420   19.1280 C   0  0  0  0  0  0
   14.1970   -7.0990   21.4420 C   0  0  0  0  0  0
   12.6950   -6.3770   19.5660 C   0  0  0  0  0  0
   12.1430   -5.7110   22.0850 C   0  0  0  0  0  0
   13.8140   -4.0230   22.7780 C   0  0  0  0  0  0
   14.6900   -3.5660   23.9660 C   0  0  0  0  0  0
   12.0190   -4.6430   24.2810 C   0  0  0  0  0  0
   17.8810   -8.3560    6.7910 C   0  0  0  0  0  0
   18.9680   -7.5460    7.0730 C   0  0  0  0  0  0
   19.4380   -7.4590    8.4160 C   0  0  0  0  0  0
   18.9160   -8.1000    9.4720 N   0  0  0  0  0  0
   17.8350   -8.8910    9.1390 N   0  0  0  0  0  0
   17.2570   -9.0790    7.8570 C   0  0  0  0  0  0
   16.1200  -10.2720    9.2430 C   0  0  0  0  0  0
   17.0820   -9.6650    9.9810 C   0  0  0  0  0  0
   17.2530   -9.8180   11.3670 C   0  0  0  0  0  0
   16.5350   -9.3160   16.1960 C   0  0  0  0  0  0
   18.6010  -12.4810   13.9240 C   0  0  0  0  0  0
   15.8260   -8.2210   16.9350 C   0  0  0  0  0  0
   15.4400   -7.2170   16.3280 O   0  0  0  0  0  0
   15.6540   -8.4150   18.2560 N   0  0  0  0  0  0
   15.0600   -7.7600   20.5120 C   0  0  0  0  0  0
   13.0080   -6.3980   21.0010 C   0  0  0  0  0  0
   13.5810   -7.0510   18.6710 C   0  0  0  0  0  0
   11.4650   -5.6670   18.9560 C   0  0  0  0  0  0
   11.6320   -4.3580   19.0130 F   0  0  0  0  0  0
   11.2790   -5.9720   17.6740 F   0  0  0  0  0  0
   10.3470   -6.0030   19.6050 F   0  0  0  0  0  0
   12.8390   -4.0700   25.4790 C   0  0  0  0  0  0
   14.6190   -2.5080   26.1490 C   0  0  0  0  0  0
   13.8310   -3.0380   25.0450 N   0  0  1  0  0  0
   13.5037   -5.9642   23.5802 H   0  0  0  0  0  0
   18.2073  -12.3371   16.6244 H   0  0  0  0  0  0
   17.0249  -10.5581   17.9480 H   0  0  0  0  0  0
   16.2079   -8.3494   14.2811 H   0  0  0  0  0  0
   14.4389   -7.1232   22.5045 H   0  0  0  0  0  0
   11.4530   -6.4758   22.4710 H   0  0  0  0  0  0
   11.5688   -4.9214   21.5783 H   0  0  0  0  0  0
   14.4669   -4.3774   21.9667 H   0  0  0  0  0  0
   13.2182   -3.1693   22.4227 H   0  0  0  0  0  0
   15.2677   -4.4215   24.3460 H   0  0  0  0  0  0
   15.3799   -2.7775   23.6309 H   0  0  0  0  0  0
   11.3676   -3.8456   23.8938 H   0  0  0  0  0  0
   11.4008   -5.4746   24.6502 H   0  0  0  0  0  0
   17.5057   -8.4418    5.7713 H   0  0  0  0  0  0
   19.4577   -6.9825    6.2788 H   0  0  0  0  0  0
   20.2975   -6.8146    8.6009 H   0  0  0  0  0  0
   15.3657  -10.9505    9.6414 H   0  0  0  0  0  0
   18.5993  -12.2538   12.8477 H   0  0  0  0  0  0
   18.0833  -13.4359   14.0980 H   0  0  0  0  0  0
   19.6386  -12.5560   14.2813 H   0  0  0  0  0  0
   16.3148   -9.2028   18.6467 H   0  0  0  0  0  0
   15.9499   -8.2783   20.8692 H   0  0  0  0  0  0
   13.3573   -7.0423   17.6042 H   0  0  0  0  0  0
   12.1542   -3.6020   26.2015 H   0  0  0  0  0  0
   13.3890   -4.8860   25.9706 H   0  0  0  0  0  0
   15.3266   -1.7574   25.7672 H   0  0  0  0  0  0
   15.1759   -3.3267   26.6281 H   0  0  0  0  0  0
   13.9496   -2.0396   26.8856 H   0  0  0  0  0  0
  1 21  2  0  0  0
  1 22  1  0  0  0
  2 12  1  0  0  0
  2 13  1  0  0  0
  2 15  1  0  0  0
  2 40  1  0  0  0
  3  4  1  0  0  0
  3 24  3  0  0  0
  4  5  2  0  0  0
  4  8  1  0  0  0
  5  6  1  0  0  0
  5 26  1  0  0  0
  6  7  2  0  0  0
  6 41  1  0  0  0
  7 25  1  0  0  0
  7 42  1  0  0  0
  8 25  2  0  0  0
  8 43  1  0  0  0
  9 29  1  0  0  0
  9 30  2  0  0  0
  9 32  1  0  0  0
 10 30  1  0  0  0
 10 31  2  0  0  0
 10 44  1  0  0  0
 11 31  1  0  0  0
 11 32  2  0  0  0
 11 33  1  0  0  0
 12 31  1  0  0  0
 12 45  1  0  0  0
 12 46  1  0  0  0
 13 14  1  0  0  0
 13 47  1  0  0  0
 13 48  1  0  0  0
 14 39  1  0  0  0
 14 49  1  0  0  0
 14 50  1  0  0  0
 15 37  1  0  0  0
 15 51  1  0  0  0
 15 52  1  0  0  0
 16 17  2  0  0  0
 16 21  1  0  0  0
 16 53  1  0  0  0
 17 18  1  0  0  0
 17 54  1  0  0  0
 18 19  2  0  0  0
 18 55  1  0  0  0
 19 20  1  0  0  0
 20 21  1  0  0  0
 20 23  1  0  0  0
 22 23  2  0  0  0
 22 56  1  0  0  0
 23 24  1  0  0  0
 25 27  1  0  0  0
 26 57  1  0  0  0
 26 58  1  0  0  0
 26 59  1  0  0  0
 27 28  2  0  0  0
 27 29  1  0  0  0
 29 60  1  0  0  0
 30 61  1  0  0  0
 32 62  1  0  0  0
 33 34  1  0  0  0
 33 35  1  0  0  0
 33 36  1  0  0  0
 37 39  1  0  0  0
 37 63  1  0  0  0
 37 64  1  0  0  0
 38 39  1  0  0  0
 38 65  1  0  0  0
 38 66  1  0  0  0
 38 67  1  0  0  0
M  CHG  1   2   1
M  END
> <s_m_source_file>
../3oxz_ligand.sdf

> <i_m_source_file_index>
1

> <s_epik_input>
bjFbY0hdW2NIXVtjSF1jKG4xMiluW2NIXWMyQyNDYzNjKFtDSDNdKVtjSF1bY0hdYyhbY0hdMylDKD1PKVtOSF1jNFtjSF1bY0hdYyhjKFtjSF00KUMoRikoRilGKVtDSDJdW05ASCtdNVtDSDJdW0NIMl1bTkBIK10oW0NIM10pW0NIMl1bQ0gyXTU=

> <s_epik_cmdline>
J2VwaWtfYXBwJywgJy1pbWFlJywgJ2xpZ2FuZF9wcm8ubWFlJywgJy1vbWFlJywgJ2xpZ2FuZF9wcmVwLm1hZScsICctbXMnLCAnMScsICctcGgnLCAnNycsICctcGh0JywgJzAuNScsICctbnQn

> <r_lp_tautomer_probability>
1

> <r_epik_Ionization_Penalty>
  0.0174

> <r_epik_Ionization_Penalty_Charging>
  0.0155

> <r_epik_Ionization_Penalty_Neutral>
  0.0020

> <r_epik_State_Penalty>
 -0.0000

> <r_epik_Charging_Adjusted_Penalty>
0.0154526225118262

> <i_epik_Tot_Q>
1

> <i_epik_Tot_abs_Q>
1

$$$$
