3oy0_ligand
                    3D
 Schrodinger Suite 2020-3.
 45 45  0  0  1  0            999 V2000
   -0.7630    9.2030   14.8930 C   0  0  0  0  0  0
   -0.9660    6.4220   10.6070 C   0  0  0  0  0  0
   -2.4710    8.1060    9.7820 C   0  0  0  0  0  0
   -3.3330    5.8950   10.2970 C   0  0  0  0  0  0
   -5.3370   -0.4290   16.1280 N   0  0  0  0  0  0
   -4.6840    6.6930   13.0190 O   0  0  0  0  0  0
   -7.3160    1.2060   16.6320 O   0  0  0  0  0  0
   -5.3820    1.2190   18.1210 O   0  0  0  0  0  0
   -3.0910    3.2550   14.8580 C   0  0  0  0  0  0
   -5.1380    4.4490   14.5580 C   0  0  0  0  0  0
   -3.7510    2.2800   15.5990 C   0  0  0  0  0  0
   -5.8180    3.4470   15.2740 C   0  0  0  0  0  0
   -1.6300    8.1190   14.3540 C   0  0  0  0  0  0
   -1.4350    7.7540   12.9180 C   0  0  0  0  0  0
   -2.9380    5.3070   13.6040 N   0  0  0  0  0  0
   -3.4910    6.4630   12.9350 C   0  0  0  0  0  0
   -3.7530    4.3630   14.3540 C   0  0  0  0  0  0
   -5.1150    2.3410   15.8070 C   0  0  0  0  0  0
   -2.6560    7.4230   12.1320 C   0  0  2  0  0  0
   -2.3540    6.9510   10.7230 C   0  0  0  0  0  0
   -5.8580    1.0130   16.7430 S   0  0  0  0  0  0
   -1.0050    9.3734   15.9524 H   0  0  0  0  0  0
   -0.9363   10.1282   14.3238 H   0  0  0  0  0  0
    0.2927    8.9081   14.8009 H   0  0  0  0  0  0
   -0.7851    6.0905    9.5739 H   0  0  0  0  0  0
   -0.8394    5.5712   11.2926 H   0  0  0  0  0  0
   -0.2488    7.2138   10.8689 H   0  0  0  0  0  0
   -2.2527    7.7683    8.7581 H   0  0  0  0  0  0
   -1.7537    8.8884   10.0709 H   0  0  0  0  0  0
   -3.4927    8.5114    9.8244 H   0  0  0  0  0  0
   -3.0965    5.5670    9.2740 H   0  0  0  0  0  0
   -4.3522    6.3079   10.3233 H   0  0  0  0  0  0
   -3.2674    5.0366   10.9817 H   0  0  0  0  0  0
   -5.7885   -1.2549   16.6972 H   0  0  0  0  0  0
   -4.2412   -0.4862   16.2056 H   0  0  0  0  0  0
   -2.0233    3.1442   14.6686 H   0  0  0  0  0  0
   -5.6917    5.2987   14.1587 H   0  0  0  0  0  0
   -3.1814    1.4531   16.0231 H   0  0  0  0  0  0
   -6.8956    3.5234   15.4193 H   0  0  0  0  0  0
   -1.4567    7.1938   14.9232 H   0  0  0  0  0  0
   -2.6857    8.4139   14.4461 H   0  0  0  0  0  0
   -0.9608    8.5929   12.3876 H   0  0  0  0  0  0
   -0.7900    6.8655   12.8498 H   0  0  0  0  0  0
   -1.8566    5.1105   13.5590 H   0  0  0  0  0  0
   -3.2334    8.3470   11.9809 H   0  0  0  0  0  0
  1 13  1  0  0  0
  1 22  1  0  0  0
  1 23  1  0  0  0
  1 24  1  0  0  0
  2 20  1  0  0  0
  2 25  1  0  0  0
  2 26  1  0  0  0
  2 27  1  0  0  0
  3 20  1  0  0  0
  3 28  1  0  0  0
  3 29  1  0  0  0
  3 30  1  0  0  0
  4 20  1  0  0  0
  4 31  1  0  0  0
  4 32  1  0  0  0
  4 33  1  0  0  0
  5 21  1  0  0  0
  5 34  1  0  0  0
  5 35  1  0  0  0
  6 16  2  0  0  0
  7 21  2  0  0  0
  8 21  2  0  0  0
  9 11  2  0  0  0
  9 17  1  0  0  0
  9 36  1  0  0  0
 10 12  1  0  0  0
 10 17  2  0  0  0
 10 37  1  0  0  0
 11 18  1  0  0  0
 11 38  1  0  0  0
 12 18  2  0  0  0
 12 39  1  0  0  0
 13 14  1  0  0  0
 13 40  1  0  0  0
 13 41  1  0  0  0
 14 19  1  0  0  0
 14 42  1  0  0  0
 14 43  1  0  0  0
 15 16  1  0  0  0
 15 17  1  0  0  0
 15 44  1  0  0  0
 16 19  1  0  0  0
 18 21  1  0  0  0
 19 20  1  0  0  0
 19 45  1  0  0  0
M  END
> <s_m_source_file>
../3oy0_ligand.sdf

> <i_m_source_file_index>
1

> <s_epik_input>
W0NIM11bQ0gyXVtDSDJdW0NAQEhdKEMoW0NIM10pKFtDSDNdKVtDSDNdKUMoPU8pW05IXWMxW2NIXVtjSF1jKFtjSF1bY0hdMSlTKD1PKSg9TylbTkgyXQ==

> <s_epik_cmdline>
J2VwaWtfYXBwJywgJy1pbWFlJywgJ2xpZ2FuZF9wcm8ubWFlJywgJy1vbWFlJywgJ2xpZ2FuZF9wcmVwLm1hZScsICctbXMnLCAnMScsICctcGgnLCAnNycsICctcGh0JywgJzAuNScsICctbnQn

> <r_lp_tautomer_probability>
1

> <r_epik_Ionization_Penalty>
  0.0005

> <r_epik_Ionization_Penalty_Charging>
  0.0000

> <r_epik_Ionization_Penalty_Neutral>
  0.0005

> <r_epik_State_Penalty>
 -0.0000

> <r_epik_Charging_Adjusted_Penalty>
0

> <i_epik_Tot_Q>
0

> <i_epik_Tot_abs_Q>
0

$$$$
