3oy1_ligand
                    3D
 Schrodinger Suite 2020-3.
 66 71  0  0  1  0            999 V2000
  -17.3960   11.9000  -36.4350 C   0  0  0  0  0  0
  -18.3760   11.6940  -35.5180 C   0  0  0  0  0  0
  -18.3450   12.3980  -34.2390 C   0  0  0  0  0  0
  -17.3080   13.2680  -33.9990 C   0  0  0  0  0  0
  -16.3320   13.4410  -34.9370 C   0  0  0  0  0  0
  -16.3880   12.7750  -36.1330 C   0  0  0  0  0  0
  -19.3440   12.1770  -33.3190 C   0  0  0  0  0  0
  -20.3880   11.3190  -33.5110 C   0  0  0  0  0  0
  -20.3640   10.6910  -34.7470 C   0  0  0  0  0  0
  -19.4020   10.8450  -35.7290 C   0  0  0  0  0  0
  -21.3340   11.1230  -32.6040 N   0  0  0  0  0  0
  -21.7130    9.9670  -32.0810 C   0  0  0  0  0  0
  -22.7020   10.2500  -31.2490 N   0  0  0  0  0  0
  -22.8720   11.5740  -31.2630 N   0  0  0  0  0  0
  -22.0140   12.0740  -32.0940 C   0  0  0  0  0  0
  -21.8700   13.2810  -32.3970 O   0  0  0  0  0  0
  -23.9180   11.9890  -30.3460 C   0  0  0  0  0  0
  -25.1120   12.5780  -30.9870 C   0  0  0  0  0  0
  -26.1970   12.5140  -29.9740 C   0  0  0  0  0  0
  -25.8880   13.3920  -28.9400 O   0  0  0  0  0  0
  -24.6230   13.2110  -28.3240 C   0  0  0  0  0  0
  -23.4830   12.9380  -29.2810 C   0  0  0  0  0  0
  -21.2980    8.5610  -32.2970 C   0  0  0  0  0  0
  -20.0340    8.2450  -32.6630 C   0  0  0  0  0  0
  -19.6930    6.9450  -32.8320 C   0  0  0  0  0  0
  -20.5390    5.9800  -32.6720 N   0  0  0  0  0  0
  -21.7910    6.2200  -32.3010 C   0  0  0  0  0  0
  -22.1760    7.5250  -32.1070 C   0  0  0  0  0  0
  -22.6050    5.1780  -32.1550 N   0  0  0  0  0  0
  -23.8990    5.2040  -31.5690 C   0  0  0  0  0  0
  -24.6320    3.9500  -31.9480 C   0  0  0  0  0  0
  -25.9780    3.8970  -31.2740 C   0  0  0  0  0  0
  -25.8950    3.9370  -29.7770 C   0  0  0  0  0  0
  -25.1140    5.1560  -29.3770 C   0  0  0  0  0  0
  -23.7730    5.2590  -30.0680 C   0  0  0  0  0  0
  -17.4118   11.3790  -37.3923 H   0  0  0  0  0  0
  -17.2653   13.8195  -33.0598 H   0  0  0  0  0  0
  -15.5002   14.1152  -34.7328 H   0  0  0  0  0  0
  -15.6029   12.9480  -36.8691 H   0  0  0  0  0  0
  -19.2987   12.7222  -32.3762 H   0  0  0  0  0  0
  -21.1847   10.0081  -34.9666 H   0  0  0  0  0  0
  -19.4726   10.2866  -36.6624 H   0  0  0  0  0  0
  -24.1686   11.0083  -29.9155 H   0  0  0  0  0  0
  -24.8984   13.6181  -31.2743 H   0  0  0  0  0  0
  -25.3716   11.9959  -31.8836 H   0  0  0  0  0  0
  -27.1508   12.8031  -30.4395 H   0  0  0  0  0  0
  -26.2751   11.4882  -29.5847 H   0  0  0  0  0  0
  -24.3550   14.1186  -27.7632 H   0  0  0  0  0  0
  -24.6698   12.3548  -27.6350 H   0  0  0  0  0  0
  -22.6417   12.5018  -28.7225 H   0  0  0  0  0  0
  -23.1656   13.8853  -29.7413 H   0  0  0  0  0  0
  -19.2955    9.0311  -32.8207 H   0  0  0  0  0  0
  -18.6680    6.7034  -33.1132 H   0  0  0  0  0  0
  -23.1983    7.7405  -31.7963 H   0  0  0  0  0  0
  -22.1937    4.2325  -32.5384 H   0  0  0  0  0  0
  -24.4017    6.1004  -31.9612 H   0  0  0  0  0  0
  -24.7786    3.9262  -33.0379 H   0  0  0  0  0  0
  -24.0440    3.0736  -31.6379 H   0  0  0  0  0  0
  -26.5829    4.7579  -31.5949 H   0  0  0  0  0  0
  -26.4909    2.9645  -31.5521 H   0  0  0  0  0  0
  -26.9096    3.9852  -29.3547 H   0  0  0  0  0  0
  -25.3892    3.0304  -29.4134 H   0  0  0  0  0  0
  -25.6883    6.0591  -29.6311 H   0  0  0  0  0  0
  -24.9277    5.1328  -28.2931 H   0  0  0  0  0  0
  -23.1458    4.4242  -29.7219 H   0  0  0  0  0  0
  -23.3098    6.2123  -29.7736 H   0  0  0  0  0  0
  1  2  2  0  0  0
  1  6  1  0  0  0
  1 36  1  0  0  0
  2  3  1  0  0  0
  2 10  1  0  0  0
  3  4  2  0  0  0
  3  7  1  0  0  0
  4  5  1  0  0  0
  4 37  1  0  0  0
  5  6  2  0  0  0
  5 38  1  0  0  0
  6 39  1  0  0  0
  7  8  2  0  0  0
  7 40  1  0  0  0
  8  9  1  0  0  0
  8 11  1  0  0  0
  9 10  2  0  0  0
  9 41  1  0  0  0
 10 42  1  0  0  0
 11 12  1  0  0  0
 11 15  1  0  0  0
 12 13  2  0  0  0
 12 23  1  0  0  0
 13 14  1  0  0  0
 14 15  1  0  0  0
 14 17  1  0  0  0
 15 16  2  0  0  0
 17 18  1  0  0  0
 17 22  1  0  0  0
 17 43  1  0  0  0
 18 19  1  0  0  0
 18 44  1  0  0  0
 18 45  1  0  0  0
 19 20  1  0  0  0
 19 46  1  0  0  0
 19 47  1  0  0  0
 20 21  1  0  0  0
 21 22  1  0  0  0
 21 48  1  0  0  0
 21 49  1  0  0  0
 22 50  1  0  0  0
 22 51  1  0  0  0
 23 24  2  0  0  0
 23 28  1  0  0  0
 24 25  1  0  0  0
 24 52  1  0  0  0
 25 26  2  0  0  0
 25 53  1  0  0  0
 26 27  1  0  0  0
 27 28  2  0  0  0
 27 29  1  0  0  0
 28 54  1  0  0  0
 29 30  1  0  0  0
 29 55  1  0  0  0
 30 31  1  0  0  0
 30 35  1  0  0  0
 30 56  1  0  0  0
 31 32  1  0  0  0
 31 57  1  0  0  0
 31 58  1  0  0  0
 32 33  1  0  0  0
 32 59  1  0  0  0
 32 60  1  0  0  0
 33 34  1  0  0  0
 33 61  1  0  0  0
 33 62  1  0  0  0
 34 35  1  0  0  0
 34 63  1  0  0  0
 34 64  1  0  0  0
 35 65  1  0  0  0
 35 66  1  0  0  0
M  END
> <s_m_source_file>
../3oy1_ligand.sdf

> <i_m_source_file_index>
1

> <s_epik_input>
W2NIXTFbY0hdW2NIXVtjSF1jKGMxMilbY0hdYyhbY0hdW2NIXTIpLW4zYyhubihjMz1PKVtDSF00W0NIMl1bQ0gyXU9bQ0gyXVtDSDJdNCktYzVbY0hdW2NIXW5jKFtjSF01KVtOSF1bQ0hdNltDSDJdW0NIMl1bQ0gyXVtDSDJdW0NIMl02

> <s_epik_cmdline>
J2VwaWtfYXBwJywgJy1pbWFlJywgJ2xpZ2FuZF9wcm8ubWFlJywgJy1vbWFlJywgJ2xpZ2FuZF9wcmVwLm1hZScsICctbXMnLCAnMScsICctcGgnLCAnNycsICctcGh0JywgJzAuNScsICctbnQn

> <r_lp_tautomer_probability>
0.999999772200052

> <r_epik_Ionization_Penalty>
  0.1015

> <r_epik_Ionization_Penalty_Charging>
  0.0000

> <r_epik_Ionization_Penalty_Neutral>
  0.1015

> <r_epik_State_Penalty>
  0.0915

> <r_epik_Charging_Adjusted_Penalty>
0.091452739491237

> <i_epik_Tot_Q>
0

> <i_epik_Tot_abs_Q>
0

$$$$
