3oy3_ligand
                    3D
 Schrodinger Suite 2020-3.
 73 76  0  0  1  0            999 V2000
   24.8300    9.5410    3.7640 N   0  0  0  0  0  0
    9.2620    4.9440    5.3110 N   0  3  1  0  0  0
   20.3560    9.8190    2.3720 C   0  0  0  0  0  0
   18.9550   10.0990    2.2990 C   0  0  0  0  0  0
   18.4510   11.2980    1.6760 C   0  0  0  0  0  0
   17.0520   11.5210    1.6480 C   0  0  0  0  0  0
   16.1480   10.5620    2.2220 C   0  0  0  0  0  0
   18.0830    9.1540    2.8590 C   0  0  0  0  0  0
   13.4560    7.6850    4.0430 C   0  0  0  0  0  0
   11.0810    7.0100    4.2800 C   0  0  0  0  0  0
   12.7320    6.2390    5.9830 C   0  0  0  0  0  0
   10.2130    5.5360    6.2040 C   0  0  0  0  0  0
    9.8130    3.9040    4.3850 C   0  0  0  0  0  0
    8.7300    3.5040    3.3360 C   0  0  0  0  0  0
    8.0450    4.4480    6.0100 C   0  0  0  0  0  0
   23.4610    8.4620    0.5800 C   0  0  0  0  0  0
   26.2290    8.4960    1.9470 C   0  0  0  0  0  0
   26.2580    8.1960    0.6080 O   0  0  0  0  0  0
   23.7740    9.0310    1.8000 N   0  0  0  0  0  0
   25.0210    9.0120    2.5520 C   0  0  0  0  0  0
   23.4850    9.7220    3.8910 C   0  0  0  0  0  0
   22.8630    9.4620    2.7170 C   0  0  0  0  0  0
   21.5140    9.6270    2.5040 C   0  0  0  0  0  0
   16.6700    9.3530    2.8380 C   0  0  0  0  0  0
   19.3940   12.3320    1.0510 C   0  0  0  0  0  0
   15.8070    8.2880    3.4620 C   0  0  0  0  0  0
   16.3510    7.3650    4.1180 O   0  0  0  0  0  0
   14.4590    8.3940    3.2930 N   0  0  0  0  0  0
   12.1160    7.7070    3.5720 C   0  0  0  0  0  0
   11.3770    6.2720    5.4910 C   0  0  0  0  0  0
   13.7530    6.9410    5.2560 C   0  0  0  0  0  0
   13.1210    5.4700    7.2590 C   0  0  0  0  0  0
   13.0280    4.1700    7.0270 F   0  0  0  0  0  0
   14.3550    5.6860    7.6580 F   0  0  0  0  0  0
   12.3230    5.8250    8.2610 F   0  0  0  0  0  0
    6.9510    4.0860    4.9680 C   0  0  0  0  0  0
    6.4400    2.6170    2.9750 C   0  0  0  0  0  0
    7.4550    3.0520    3.9930 N   0  0  1  0  0  0
   27.1300    8.3730    2.5860 N   0  0  0  0  0  0
    5.3990    2.3950    3.4020 C   0  0  0  0  0  0
    5.3430    0.9830    4.0450 O   0  0  0  0  0  0
    8.9985    5.8167    4.6953 H   0  0  0  0  0  0
   16.6581   12.4270    1.1875 H   0  0  0  0  0  0
   15.0731   10.7409    2.1955 H   0  0  0  0  0  0
   18.4910    8.2532    3.3176 H   0  0  0  0  0  0
   10.0590    7.0360    3.9020 H   0  0  0  0  0  0
    9.7060    6.2741    6.8428 H   0  0  0  0  0  0
   10.6618    4.7533    6.8333 H   0  0  0  0  0  0
   10.6935    4.3071    3.8633 H   0  0  0  0  0  0
   10.1047    3.0152    4.9638 H   0  0  0  0  0  0
    8.5009    4.3697    2.6972 H   0  0  0  0  0  0
    9.1087    2.6795    2.7141 H   0  0  0  0  0  0
    8.2986    3.5531    6.5972 H   0  0  0  0  0  0
    7.6630    5.2311    6.6815 H   0  0  0  0  0  0
   24.3881    8.2092    0.0447 H   0  0  0  0  0  0
   22.8752    9.1757   -0.0179 H   0  0  0  0  0  0
   22.8705    7.5482    0.7423 H   0  0  0  0  0  0
   22.9820   10.0318    4.8070 H   0  0  0  0  0  0
   20.4349   11.9950    1.1648 H   0  0  0  0  0  0
   19.2644   13.2998    1.5575 H   0  0  0  0  0  0
   19.1594   12.4433   -0.0179 H   0  0  0  0  0  0
   14.1596    9.0963    2.5011 H   0  0  0  0  0  0
   11.8718    8.2586    2.6641 H   0  0  0  0  0  0
   14.7786    6.9150    5.6241 H   0  0  0  0  0  0
    6.0697    3.6814    5.4872 H   0  0  0  0  0  0
    6.6646    4.9887    4.4084 H   0  0  0  0  0  0
    6.3131    3.4090    2.2222 H   0  0  0  0  0  0
    6.7855    1.6957    2.4832 H   0  0  0  0  0  0
   28.0626    7.9827    2.1525 H   0  0  0  0  0  0
   27.0891    8.6416    3.6519 H   0  0  0  0  0  0
    5.1520    3.1405    4.1722 H   0  0  0  0  0  0
    4.6538    2.4417    2.5943 H   0  0  0  0  0  0
    4.4086    0.6224    4.4997 H   0  0  0  0  0  0
  1 20  2  0  0  0
  1 21  1  0  0  0
  2 12  1  0  0  0
  2 13  1  0  0  0
  2 15  1  0  0  0
  2 42  1  0  0  0
  3  4  1  0  0  0
  3 23  3  0  0  0
  4  5  2  0  0  0
  4  8  1  0  0  0
  5  6  1  0  0  0
  5 25  1  0  0  0
  6  7  2  0  0  0
  6 43  1  0  0  0
  7 24  1  0  0  0
  7 44  1  0  0  0
  8 24  2  0  0  0
  8 45  1  0  0  0
  9 28  1  0  0  0
  9 29  2  0  0  0
  9 31  1  0  0  0
 10 29  1  0  0  0
 10 30  2  0  0  0
 10 46  1  0  0  0
 11 30  1  0  0  0
 11 31  2  0  0  0
 11 32  1  0  0  0
 12 30  1  0  0  0
 12 47  1  0  0  0
 12 48  1  0  0  0
 13 14  1  0  0  0
 13 49  1  0  0  0
 13 50  1  0  0  0
 14 38  1  0  0  0
 14 51  1  0  0  0
 14 52  1  0  0  0
 15 36  1  0  0  0
 15 53  1  0  0  0
 15 54  1  0  0  0
 16 19  1  0  0  0
 16 55  1  0  0  0
 16 56  1  0  0  0
 16 57  1  0  0  0
 17 18  2  0  0  0
 17 20  1  0  0  0
 17 39  1  0  0  0
 19 20  1  0  0  0
 19 22  1  0  0  0
 21 22  2  0  0  0
 21 58  1  0  0  0
 22 23  1  0  0  0
 24 26  1  0  0  0
 25 59  1  0  0  0
 25 60  1  0  0  0
 25 61  1  0  0  0
 26 27  2  0  0  0
 26 28  1  0  0  0
 28 62  1  0  0  0
 29 63  1  0  0  0
 31 64  1  0  0  0
 32 33  1  0  0  0
 32 34  1  0  0  0
 32 35  1  0  0  0
 36 38  1  0  0  0
 36 65  1  0  0  0
 36 66  1  0  0  0
 37 38  1  0  0  0
 37 40  1  0  0  0
 37 67  1  0  0  0
 37 68  1  0  0  0
 39 69  1  0  0  0
 39 70  1  0  0  0
 40 41  1  0  0  0
 40 71  1  0  0  0
 40 72  1  0  0  0
 41 73  1  0  0  0
M  CHG  1   2   1
M  END
> <s_m_source_file>
../3oy3_ligand.sdf

> <i_m_source_file_index>
1

> <s_epik_input>
W0NIM11uMWMoQyg9TylbTkgyXSluW2NIXWMxQyNDYzJjKFtDSDNdKVtjSF1bY0hdYyhbY0hdMilDKD1PKVtOSF1jM1tjSF1bY0hdYyhjKFtjSF0zKUMoRikoRilGKVtDSDJdW05ASCtdNFtDSDJdW0NIMl1bTkBASCtdKFtDSDJdW0NIMl00KVtDSDJdW0NIMl1bT0hd

> <s_epik_cmdline>
J2VwaWtfYXBwJywgJy1pbWFlJywgJ2xpZ2FuZF9wcm8ubWFlJywgJy1vbWFlJywgJ2xpZ2FuZF9wcmVwLm1hZScsICctbXMnLCAnMScsICctcGgnLCAnNycsICctcGh0JywgJzAuNScsICctbnQn

> <r_epik_Ionization_Penalty>
  0.0591

> <r_epik_Ionization_Penalty_Charging>
  0.0184

> <r_epik_Ionization_Penalty_Neutral>
  0.0407

> <r_epik_State_Penalty>
  0.3556

> <r_epik_Charging_Adjusted_Penalty>
0.373936378459865

> <i_epik_Tot_Q>
1

> <i_epik_Tot_abs_Q>
1

$$$$
