3oy8_ligand
                    3D
 Schrodinger Suite 2020-3.
 45 45  0  0  1  0            999 V2000
   23.3490    0.1910   17.9290 C   0  0  1  0  0  0
   23.9110    1.4600   17.2830 C   0  0  1  0  0  0
   23.1930    2.6990   17.8260 C   0  0  2  0  0  0
   21.6770    2.5290   17.7030 C   0  0  2  0  0  0
   21.2560    1.2360   18.4100 C   0  0  1  0  0  0
   19.7530    1.0050   18.3310 C   0  0  0  0  0  0
   25.2960    1.5570   17.5260 O   0  0  0  0  0  0
   23.6200    3.8570   17.1440 O   0  0  0  0  0  0
   21.3080    2.4860   16.3340 O   0  0  0  0  0  0
   21.9300    0.1400   17.8240 O   0  0  0  0  0  0
   19.4270   -0.1960   18.9850 O   0  0  0  0  0  0
   23.2520   -5.6550   16.3750 C   0  0  0  0  0  0
   23.4320   -4.6380   17.4670 C   0  0  1  0  0  0
   23.6630   -3.2390   16.8770 C   0  0  2  0  0  0
   23.9880   -2.1900   17.9510 C   0  0  1  0  0  0
   25.3480   -2.4370   18.6270 C   0  0  1  0  0  0
   26.5430   -2.0210   17.7670 C   0  0  0  0  0  0
   22.2350   -6.3810   16.4100 O   0  0  0  0  0  0
   24.1120   -5.7400   15.4680 O   0  5  0  0  0  0
   22.2740   -4.6320   18.3100 O   0  0  0  0  0  0
   22.5140   -2.8330   16.1230 O   0  0  0  0  0  0
   23.9340   -0.8740   17.3790 O   0  0  0  0  0  0
   25.3960   -1.7370   19.8780 O   0  0  0  0  0  0
   27.7520   -2.2400   18.5040 O   0  0  0  0  0  0
   23.5726    0.0652   18.9987 H   0  0  0  0  0  0
   23.8306    1.4087   16.1871 H   0  0  0  0  0  0
   23.4803    2.8934   18.8699 H   0  0  0  0  0  0
   21.1358    3.3983   18.1048 H   0  0  0  0  0  0
   21.5695    1.2621   19.4641 H   0  0  0  0  0  0
   19.2276    1.8406   18.8166 H   0  0  0  0  0  0
   19.4465    0.9425   17.2764 H   0  0  0  0  0  0
   25.9693    0.7501   17.2010 H   0  0  0  0  0  0
   24.6862    4.1272   17.1332 H   0  0  0  0  0  0
   21.5361    3.3374   15.6759 H   0  0  0  0  0  0
   18.3801   -0.5305   19.0312 H   0  0  0  0  0  0
   24.2763   -4.9339   18.1069 H   0  0  0  0  0  0
   24.4953   -3.2832   16.1591 H   0  0  0  0  0  0
   23.2059   -2.2059   18.7243 H   0  0  0  0  0  0
   25.4401   -3.5099   18.8513 H   0  0  0  0  0  0
   26.5582   -2.6215   16.8455 H   0  0  0  0  0  0
   26.4557   -0.9553   17.5088 H   0  0  0  0  0  0
   21.9588   -5.5553   18.8181 H   0  0  0  0  0  0
   22.1382   -3.4689   15.3079 H   0  0  0  0  0  0
   24.6146   -1.9064   20.6334 H   0  0  0  0  0  0
   28.7244   -1.9992   18.0496 H   0  0  0  0  0  0
  1  2  1  0  0  0
  1 10  1  0  0  0
  1 22  1  0  0  0
  1 25  1  0  0  0
  2  3  1  0  0  0
  2  7  1  0  0  0
  2 26  1  0  0  0
  3  4  1  0  0  0
  3  8  1  0  0  0
  3 27  1  0  0  0
  4  5  1  0  0  0
  4  9  1  0  0  0
  4 28  1  0  0  0
  5  6  1  0  0  0
  5 10  1  0  0  0
  5 29  1  0  0  0
  6 11  1  0  0  0
  6 30  1  0  0  0
  6 31  1  0  0  0
  7 32  1  0  0  0
  8 33  1  0  0  0
  9 34  1  0  0  0
 11 35  1  0  0  0
 12 13  1  0  0  0
 12 18  2  0  0  0
 12 19  1  0  0  0
 13 14  1  0  0  0
 13 20  1  0  0  0
 13 36  1  0  0  0
 14 15  1  0  0  0
 14 21  1  0  0  0
 14 37  1  0  0  0
 15 16  1  0  0  0
 15 22  1  0  0  0
 15 38  1  0  0  0
 16 17  1  0  0  0
 16 23  1  0  0  0
 16 39  1  0  0  0
 17 24  1  0  0  0
 17 40  1  0  0  0
 17 41  1  0  0  0
 20 42  1  0  0  0
 21 43  1  0  0  0
 23 44  1  0  0  0
 24 45  1  0  0  0
M  CHG  1  19  -1
M  END
> <s_m_source_file>
../3oy8_ligand.sdf

> <i_m_source_file_index>
1

> <s_epik_input>
Tz1DKFtPSF0pW0NASF0oW09IXSlbQ0BASF0oW09IXSlbQ0BASF0oW0NASF0oW09IXSlbQ0gyXVtPSF0pT1tDQEhdMVtDQEhdKFtPSF0pW0NAQEhdKFtPSF0pW0NAQEhdKFtPSF0pW0NASF0oTzEpW0NIMl1bT0hd

> <s_epik_cmdline>
J2VwaWtfYXBwJywgJy1pbWFlJywgJ2xpZ2FuZF9wcm8ubWFlJywgJy1vbWFlJywgJ2xpZ2FuZF9wcmVwLm1hZScsICctbXMnLCAnMScsICctcGgnLCAnNycsICctcGh0JywgJzAuNScsICctbnQn

> <r_lp_tautomer_probability>
1

> <r_epik_Ionization_Penalty>
  0.0002

> <r_epik_Ionization_Penalty_Charging>
  0.0002

> <r_epik_Ionization_Penalty_Neutral>
  0.0000

> <r_epik_State_Penalty>
 -0.0000

> <r_epik_Charging_Adjusted_Penalty>
0.000210725963817883

> <i_epik_Tot_Q>
-1

> <i_epik_Tot_abs_Q>
1

> <s_epik_Chemistry_Notes>
This compound contains an acetal/aminal-like group ( X-CH(R)-Y where X, Y are N, S, or O) that may be acid/base labile, releasing an aldehyde.

$$$$
