3oyl_ligand
                    3D
 Schrodinger Suite 2020-3.
 52 55  0  0  1  0            999 V2000
  -37.4750   25.8350  -19.2040 C   0  0  0  0  0  0
  -39.5630   31.5660  -25.5030 C   0  0  0  0  0  0
  -37.8110   28.8740  -21.8570 C   0  0  0  0  0  0
  -40.4400   31.3380  -22.8720 O   0  0  0  0  0  0
  -37.0620   28.9420  -17.4880 O   0  0  0  0  0  0
  -36.8060   34.5820  -19.0190 O   0  0  0  0  0  0
  -36.7970   31.9980  -17.5200 O   0  5  0  0  0  0
  -42.1640   38.9480  -21.6640 F   0  0  0  0  0  0
  -41.2420   38.5860  -19.0300 Cl  0  0  0  0  0  0
  -40.4760   37.7330  -22.8330 C   0  0  0  0  0  0
  -39.3080   36.9760  -22.7430 C   0  0  0  0  0  0
  -39.3150   37.2330  -20.3220 C   0  0  0  0  0  0
  -38.5090   26.6820  -18.4540 C   0  0  0  0  0  0
  -37.4770   35.9480  -21.3300 C   0  0  0  0  0  0
  -39.5020   28.3300  -20.1170 C   0  0  0  0  0  0
  -38.3090   33.8870  -21.9940 N   0  0  0  0  0  0
  -38.8560   32.1300  -24.3240 N   0  0  0  0  0  0
  -39.3590   31.9060  -23.0940 C   0  0  0  0  0  0
  -37.8630   29.1550  -18.4080 C   0  0  0  0  0  0
  -41.0450   38.2150  -21.6640 C   0  0  0  0  0  0
  -38.7510   36.7320  -21.4900 C   0  0  0  0  0  0
  -40.4740   37.9670  -20.4330 C   0  0  0  0  0  0
  -37.4000   31.6730  -18.7000 C   0  0  0  0  0  0
  -38.6100   32.5710  -21.9070 C   0  0  0  0  0  0
  -37.8920   30.4120  -19.0340 C   0  0  0  0  0  0
  -37.3640   33.9300  -19.8990 C   0  0  0  0  0  0
  -37.6420   32.5750  -19.7250 C   0  0  0  0  0  0
  -38.2790   31.8820  -20.7420 C   0  0  0  0  0  0
  -38.9900   29.4120  -21.0430 C   0  0  1  0  0  0
  -38.5630   28.0730  -19.0050 N   0  0  0  0  0  0
  -37.7410   34.5350  -21.1030 N   0  0  0  0  0  0
  -38.4330   30.5560  -20.3270 N   0  0  0  0  0  0
  -37.4556   24.8201  -18.7803 H   0  0  0  0  0  0
  -36.4808   26.2943  -19.1013 H   0  0  0  0  0  0
  -37.7466   25.7828  -20.2687 H   0  0  0  0  0  0
  -39.0227   31.8412  -26.4208 H   0  0  0  0  0  0
  -40.5856   31.9691  -25.5447 H   0  0  0  0  0  0
  -39.6041   30.4702  -25.4163 H   0  0  0  0  0  0
  -38.1360   27.9986  -22.4384 H   0  0  0  0  0  0
  -36.9986   28.5808  -21.1758 H   0  0  0  0  0  0
  -37.4510   29.6560  -22.5418 H   0  0  0  0  0  0
  -40.9315   37.9411  -23.8011 H   0  0  0  0  0  0
  -38.8367   36.5801  -23.6426 H   0  0  0  0  0  0
  -38.8547   37.0506  -19.3510 H   0  0  0  0  0  0
  -39.5032   26.2227  -18.5567 H   0  0  0  0  0  0
  -38.2375   26.7342  -17.3893 H   0  0  0  0  0  0
  -36.8698   36.0451  -22.2420 H   0  0  0  0  0  0
  -36.9122   36.3376  -20.4703 H   0  0  0  0  0  0
  -40.4676   28.6392  -19.6903 H   0  0  0  0  0  0
  -39.6333   27.3955  -20.6822 H   0  0  0  0  0  0
  -37.9377   32.7194  -24.4634 H   0  0  0  0  0  0
  -39.8572   29.7493  -21.6297 H   0  0  0  0  0  0
  1 13  1  0  0  0
  1 33  1  0  0  0
  1 34  1  0  0  0
  1 35  1  0  0  0
  2 17  1  0  0  0
  2 36  1  0  0  0
  2 37  1  0  0  0
  2 38  1  0  0  0
  3 29  1  0  0  0
  3 39  1  0  0  0
  3 40  1  0  0  0
  3 41  1  0  0  0
  4 18  2  0  0  0
  5 19  2  0  0  0
  6 26  2  0  0  0
  7 23  1  0  0  0
  8 20  1  0  0  0
  9 22  1  0  0  0
 10 11  2  0  0  0
 10 20  1  0  0  0
 10 42  1  0  0  0
 11 21  1  0  0  0
 11 43  1  0  0  0
 12 21  2  0  0  0
 12 22  1  0  0  0
 12 44  1  0  0  0
 13 30  1  0  0  0
 13 45  1  0  0  0
 13 46  1  0  0  0
 14 21  1  0  0  0
 14 31  1  0  0  0
 14 47  1  0  0  0
 14 48  1  0  0  0
 15 29  1  0  0  0
 15 30  1  0  0  0
 15 49  1  0  0  0
 15 50  1  0  0  0
 16 24  2  0  0  0
 16 31  1  0  0  0
 17 18  1  0  0  0
 17 51  1  0  0  0
 18 24  1  0  0  0
 19 25  1  0  0  0
 19 30  1  0  0  0
 20 22  2  0  0  0
 23 25  2  0  0  0
 23 27  1  0  0  0
 24 28  1  0  0  0
 25 32  1  0  0  0
 26 27  1  0  0  0
 26 31  1  0  0  0
 27 28  2  0  0  0
 28 32  1  0  0  0
 29 32  1  0  0  0
 29 52  1  0  0  0
M  CHG  1   7  -1
M  END
> <s_m_source_file>
../3oyl_ligand.sdf

> <i_m_source_file_index>
1

> <s_epik_input>
W0NIM11bQ0gyXU4oQzE9TylbQ0gyXVtDQEhdKFtDSDNdKW4oYzEyKWMzYyhjMltPSF0pYyg9TyluKFtDSDJdYyhbY0hdYzRDbClbY0hdW2NIXWM0RiluYzNDKD1PKVtOSF1bQ0gzXQ==

> <s_epik_cmdline>
J2VwaWtfYXBwJywgJy1pbWFlJywgJ2xpZ2FuZF9wcm8ubWFlJywgJy1vbWFlJywgJ2xpZ2FuZF9wcmVwLm1hZScsICctbXMnLCAnMScsICctcGgnLCAnNycsICctcGh0JywgJzAuNScsICctbnQn

> <r_lp_tautomer_probability>
1

> <r_epik_Ionization_Penalty>
  0.0025

> <r_epik_Ionization_Penalty_Charging>
  0.0025

> <r_epik_Ionization_Penalty_Neutral>
  0.0000

> <r_epik_State_Penalty>
 -0.0000

> <r_epik_Charging_Adjusted_Penalty>
0.00250415435875263

> <i_epik_Tot_Q>
-1

> <i_epik_Tot_abs_Q>
1

$$$$
