3oyn_ligand
                    3D
 Schrodinger Suite 2020-3.
 52 55  0  0  1  0            999 V2000
  -38.0170   26.2650  -19.2350 C   0  0  0  0  0  0
  -40.0170   31.8150  -25.3950 C   0  0  0  0  0  0
  -38.2740   29.2170  -21.7880 C   0  0  0  0  0  0
  -40.7590   31.7220  -22.7680 O   0  0  0  0  0  0
  -37.5360   29.4100  -17.3540 O   0  0  0  0  0  0
  -37.1280   34.9100  -18.9660 O   0  0  0  0  0  0
  -37.2160   32.3940  -17.4180 O   0  5  0  0  0  0
  -42.3340   39.3920  -21.5090 F   0  0  0  0  0  0
  -41.2820   38.9450  -18.9520 Cl  0  0  0  0  0  0
  -40.7550   38.1430  -22.7760 C   0  0  0  0  0  0
  -39.5980   37.3630  -22.7290 C   0  0  0  0  0  0
  -39.4820   37.5820  -20.3130 C   0  0  0  0  0  0
  -38.8740   27.1540  -18.3250 C   0  0  0  0  0  0
  -37.7420   36.2640  -21.3910 C   0  0  0  0  0  0
  -39.8960   28.7090  -20.0420 C   0  0  0  0  0  0
  -38.6110   34.2350  -21.9900 N   0  0  0  0  0  0
  -39.2490   32.4250  -24.2830 N   0  0  0  0  0  0
  -39.6840   32.2520  -23.0330 C   0  0  0  0  0  0
  -38.3240   29.6000  -18.2930 C   0  0  0  0  0  0
  -41.2500   38.6200  -21.5770 C   0  0  0  0  0  0
  -38.9840   37.0820  -21.5060 C   0  0  0  0  0  0
  -40.6290   38.3360  -20.3890 C   0  0  0  0  0  0
  -37.8080   32.0710  -18.6170 C   0  0  0  0  0  0
  -38.9240   32.9320  -21.8830 C   0  0  0  0  0  0
  -38.3300   30.8230  -18.9440 C   0  0  0  0  0  0
  -37.6890   34.2860  -19.8670 C   0  0  0  0  0  0
  -37.9960   32.9510  -19.6730 C   0  0  0  0  0  0
  -38.6300   32.2570  -20.6930 C   0  0  0  0  0  0
  -39.4240   29.7940  -20.9660 C   0  0  1  0  0  0
  -38.9770   28.5100  -18.9000 N   0  0  0  0  0  0
  -38.0440   34.8760  -21.0990 N   0  0  0  0  0  0
  -38.8410   30.9330  -20.2510 N   0  0  0  0  0  0
  -37.9449   25.2571  -18.8004 H   0  0  0  0  0  0
  -37.0098   26.6976  -19.3271 H   0  0  0  0  0  0
  -38.4818   26.2029  -20.2300 H   0  0  0  0  0  0
  -39.5275   32.0510  -26.3514 H   0  0  0  0  0  0
  -41.0406   32.2177  -25.3978 H   0  0  0  0  0  0
  -40.0526   30.7238  -25.2607 H   0  0  0  0  0  0
  -38.6321   28.3487  -22.3605 H   0  0  0  0  0  0
  -37.4632   28.9029  -21.1142 H   0  0  0  0  0  0
  -37.8982   29.9838  -22.4814 H   0  0  0  0  0  0
  -41.2487   38.3671  -23.7216 H   0  0  0  0  0  0
  -39.1712   36.9709  -23.6521 H   0  0  0  0  0  0
  -38.9883   37.3869  -19.3610 H   0  0  0  0  0  0
  -39.8812   26.7214  -18.2329 H   0  0  0  0  0  0
  -38.4093   27.2161  -17.3299 H   0  0  0  0  0  0
  -37.1856   36.3069  -22.3390 H   0  0  0  0  0  0
  -37.1149   36.6617  -20.5795 H   0  0  0  0  0  0
  -40.8862   28.9729  -19.6422 H   0  0  0  0  0  0
  -39.9647   27.7606  -20.5950 H   0  0  0  0  0  0
  -38.3400   33.0066  -24.4964 H   0  0  0  0  0  0
  -40.2959   30.1556  -21.5309 H   0  0  0  0  0  0
  1 13  1  0  0  0
  1 33  1  0  0  0
  1 34  1  0  0  0
  1 35  1  0  0  0
  2 17  1  0  0  0
  2 36  1  0  0  0
  2 37  1  0  0  0
  2 38  1  0  0  0
  3 29  1  0  0  0
  3 39  1  0  0  0
  3 40  1  0  0  0
  3 41  1  0  0  0
  4 18  2  0  0  0
  5 19  2  0  0  0
  6 26  2  0  0  0
  7 23  1  0  0  0
  8 20  1  0  0  0
  9 22  1  0  0  0
 10 11  2  0  0  0
 10 20  1  0  0  0
 10 42  1  0  0  0
 11 21  1  0  0  0
 11 43  1  0  0  0
 12 21  2  0  0  0
 12 22  1  0  0  0
 12 44  1  0  0  0
 13 30  1  0  0  0
 13 45  1  0  0  0
 13 46  1  0  0  0
 14 21  1  0  0  0
 14 31  1  0  0  0
 14 47  1  0  0  0
 14 48  1  0  0  0
 15 29  1  0  0  0
 15 30  1  0  0  0
 15 49  1  0  0  0
 15 50  1  0  0  0
 16 24  2  0  0  0
 16 31  1  0  0  0
 17 18  1  0  0  0
 17 51  1  0  0  0
 18 24  1  0  0  0
 19 25  1  0  0  0
 19 30  1  0  0  0
 20 22  2  0  0  0
 23 25  2  0  0  0
 23 27  1  0  0  0
 24 28  1  0  0  0
 25 32  1  0  0  0
 26 27  1  0  0  0
 26 31  1  0  0  0
 27 28  2  0  0  0
 28 32  1  0  0  0
 29 32  1  0  0  0
 29 52  1  0  0  0
M  CHG  1   7  -1
M  END
> <s_m_source_file>
../3oyn_ligand.sdf

> <i_m_source_file_index>
1

> <s_epik_input>
W0NIM11bQ0gyXU4oQzE9TylbQ0gyXVtDQEhdKFtDSDNdKW4oYzEyKWMzYyhjMltPSF0pYyg9TyluKFtDSDJdYyhbY0hdYzRDbClbY0hdW2NIXWM0RiluYzNDKD1PKVtOSF1bQ0gzXQ==

> <s_epik_cmdline>
J2VwaWtfYXBwJywgJy1pbWFlJywgJ2xpZ2FuZF9wcm8ubWFlJywgJy1vbWFlJywgJ2xpZ2FuZF9wcmVwLm1hZScsICctbXMnLCAnMScsICctcGgnLCAnNycsICctcGh0JywgJzAuNScsICctbnQn

> <r_lp_tautomer_probability>
1

> <r_epik_Ionization_Penalty>
  0.0025

> <r_epik_Ionization_Penalty_Charging>
  0.0025

> <r_epik_Ionization_Penalty_Neutral>
  0.0000

> <r_epik_State_Penalty>
 -0.0000

> <r_epik_Charging_Adjusted_Penalty>
0.00250415435875263

> <i_epik_Tot_Q>
-1

> <i_epik_Tot_abs_Q>
1

$$$$
