3oyp_ligand
                    3D
 Schrodinger Suite 2020-3.
 76 80  0  0  1  0            999 V2000
   15.1570  -30.7430   -3.6010 C   0  0  0  0  0  0
   14.5860  -31.0600   -4.8260 N   0  0  0  0  0  0
   15.2720  -31.7180   -2.6220 C   0  0  0  0  0  0
   14.1320  -32.3460   -5.0810 C   0  0  0  0  0  0
   14.8210  -33.0040   -2.8730 C   0  0  0  0  0  0
   14.2490  -33.3260   -4.1020 C   0  0  0  0  0  0
   13.9330  -35.5860   -3.3340 C   0  0  0  0  0  0
   13.8050  -34.6240   -4.3290 C   0  0  0  0  0  0
   14.5030  -35.2670   -2.1120 C   0  0  0  0  0  0
   14.9490  -33.9730   -1.8840 C   0  0  0  0  0  0
   13.3350  -37.3390   -3.6410 Br  0  0  0  0  0  0
   13.5730  -32.6560   -6.2890 O   0  0  0  0  0  0
   13.1930  -31.7620   -7.3310 C   0  0  2  0  0  0
   11.7740  -31.2630   -7.1690 C   0  0  0  0  0  0
   11.0130  -32.5430   -7.4880 C   0  0  2  0  0  0
   11.8430  -33.3410   -8.4510 N   0  0  0  0  0  0
   13.1290  -32.6250   -8.5850 C   0  0  0  0  0  0
    9.6300  -32.3930   -8.1000 C   0  0  0  0  0  0
    9.5210  -32.0720   -9.2660 O   0  0  0  0  0  0
    8.4980  -32.6670   -7.3420 N   0  0  0  0  0  0
    7.1290  -32.7000   -7.8930 C   0  0  1  0  0  0
    6.8660  -33.6580   -9.0710 C   0  0  1  0  0  0
    6.2040  -33.9080   -7.7130 C   0  0  0  0  0  0
    6.0860  -33.2430  -10.2800 C   0  0  0  0  0  0
    6.6610  -33.4360  -11.4630 C   0  0  0  0  0  0
    6.5990  -31.2880   -7.8350 C   0  0  0  0  0  0
    5.4420  -31.1120   -8.1460 O   0  5  0  0  0  0
    7.3200  -30.1840   -7.4370 N   0  0  0  0  0  0
    6.7070  -28.6600   -7.3720 S   0  0  0  0  0  0
    6.5210  -28.1330   -8.7000 O   0  0  0  0  0  0
    5.4270  -28.6960   -6.7150 O   0  0  0  0  0  0
    7.8130  -27.6210   -6.4010 C   0  0  0  0  0  0
    7.5630  -27.4520   -4.8840 C   0  0  0  0  0  0
    7.3990  -26.2950   -5.8210 C   0  0  0  0  0  0
   11.4450  -34.5260   -9.0940 C   0  0  0  0  0  0
   10.3400  -34.9660   -8.8690 O   0  0  0  0  0  0
   12.3190  -35.3140  -10.0860 C   0  0  2  0  0  0
   11.5600  -35.7740  -11.2630 N   0  0  0  0  0  0
   12.9560  -36.5220   -9.3860 C   0  0  0  0  0  0
   11.1980  -34.9210  -12.2920 C   0  0  0  0  0  0
   11.4970  -33.7480  -12.2310 O   0  0  0  0  0  0
   10.4400  -35.3950  -13.5050 C   0  0  0  0  0  0
    9.7290  -36.7340  -13.3050 C   0  0  0  0  0  0
   15.5137  -29.7310   -3.4095 H   0  0  0  0  0  0
   15.7162  -31.4735   -1.6571 H   0  0  0  0  0  0
   13.3567  -34.8870   -5.2871 H   0  0  0  0  0  0
   14.6002  -36.0264   -1.3361 H   0  0  0  0  0  0
   15.4012  -33.7152   -0.9263 H   0  0  0  0  0  0
   13.9179  -30.9353   -7.2981 H   0  0  0  0  0  0
   11.6286  -30.8983   -6.1414 H   0  0  0  0  0  0
   11.5905  -30.4427   -7.8786 H   0  0  0  0  0  0
   10.8520  -33.0321   -6.5160 H   0  0  0  0  0  0
   13.1566  -31.9801   -9.4757 H   0  0  0  0  0  0
   13.9887  -33.3111   -8.6023 H   0  0  0  0  0  0
    8.6657  -32.8665   -6.2733 H   0  0  0  0  0  0
    7.4834  -34.2461   -9.7659 H   0  0  0  0  0  0
    6.6051  -34.5628   -6.9254 H   0  0  0  0  0  0
    5.2002  -33.5616   -7.4259 H   0  0  0  0  0  0
    5.0822  -32.7968  -10.2226 H   0  0  0  0  0  0
    7.6648  -33.8822  -11.5204 H   0  0  0  0  0  0
    6.1330  -33.1495  -12.3845 H   0  0  0  0  0  0
    8.7199  -27.8547   -6.9780 H   0  0  0  0  0  0
    6.7564  -28.1297   -4.5676 H   0  0  0  0  0  0
    8.4830  -27.6939   -4.3316 H   0  0  0  0  0  0
    8.1730  -25.5433   -6.0354 H   0  0  0  0  0  0
    6.4464  -25.9791   -6.2714 H   0  0  0  0  0  0
   13.0877  -34.6349  -10.4834 H   0  0  0  0  0  0
   11.2606  -36.8292  -11.3464 H   0  0  0  0  0  0
   13.5227  -36.1799   -8.5075 H   0  0  0  0  0  0
   13.6350  -37.0340  -10.0837 H   0  0  0  0  0  0
   12.1669  -37.2179   -9.0651 H   0  0  0  0  0  0
    9.6714  -34.6539  -13.7698 H   0  0  0  0  0  0
   11.1364  -35.5181  -14.3476 H   0  0  0  0  0  0
    9.2012  -37.0106  -14.2296 H   0  0  0  0  0  0
    9.0047  -36.6452  -12.4819 H   0  0  0  0  0  0
   10.4697  -37.5094  -13.0596 H   0  0  0  0  0  0
  1  2  2  0  0  0
  1  3  1  0  0  0
  1 44  1  0  0  0
  2  4  1  0  0  0
  3  5  2  0  0  0
  3 45  1  0  0  0
  4  6  2  0  0  0
  4 12  1  0  0  0
  5  6  1  0  0  0
  5 10  1  0  0  0
  6  8  1  0  0  0
  7  8  2  0  0  0
  7  9  1  0  0  0
  7 11  1  0  0  0
  8 46  1  0  0  0
  9 10  2  0  0  0
  9 47  1  0  0  0
 10 48  1  0  0  0
 12 13  1  0  0  0
 13 14  1  0  0  0
 13 17  1  0  0  0
 13 49  1  0  0  0
 14 15  1  0  0  0
 14 50  1  0  0  0
 14 51  1  0  0  0
 15 16  1  0  0  0
 15 18  1  0  0  0
 15 52  1  0  0  0
 16 17  1  0  0  0
 16 35  1  0  0  0
 17 53  1  0  0  0
 17 54  1  0  0  0
 18 19  2  0  0  0
 18 20  1  0  0  0
 20 21  1  0  0  0
 20 55  1  0  0  0
 21 22  1  0  0  0
 21 23  1  0  0  0
 21 26  1  0  0  0
 22 23  1  0  0  0
 22 24  1  0  0  0
 22 56  1  0  0  0
 23 57  1  0  0  0
 23 58  1  0  0  0
 24 25  2  0  0  0
 24 59  1  0  0  0
 25 60  1  0  0  0
 25 61  1  0  0  0
 26 27  1  0  0  0
 26 28  2  0  0  0
 28 29  1  0  0  0
 29 30  2  0  0  0
 29 31  2  0  0  0
 29 32  1  0  0  0
 32 33  1  0  0  0
 32 34  1  0  0  0
 32 62  1  0  0  0
 33 34  1  0  0  0
 33 63  1  0  0  0
 33 64  1  0  0  0
 34 65  1  0  0  0
 34 66  1  0  0  0
 35 36  2  0  0  0
 35 37  1  0  0  0
 37 38  1  0  0  0
 37 39  1  0  0  0
 37 67  1  0  0  0
 38 40  1  0  0  0
 38 68  1  0  0  0
 39 69  1  0  0  0
 39 70  1  0  0  0
 39 71  1  0  0  0
 40 41  2  0  0  0
 40 42  1  0  0  0
 42 43  1  0  0  0
 42 72  1  0  0  0
 42 73  1  0  0  0
 43 74  1  0  0  0
 43 75  1  0  0  0
 43 76  1  0  0  0
M  CHG  1  27  -1
M  END
> <s_m_source_file>
../3oyp_ligand.sdf

> <i_m_source_file_index>
1

> <s_epik_input>
W2NIXTFbY0hdYyhCcilbY0hdYyhjMTIpYyhuW2NIXVtjSF0yKU9bQ0BASF0zW0NIMl1bQ0BIXShOKFtDSDJdMylDKD1PKVtDQEBIXShbQ0gzXSlbTkhdQyg9TylbQ0gyXVtDSDNdKUMoPU8pW05IXVtDQF00KFtDQEBIXShbQ0gyXTQpW0NIXT1bQ0gyXSlDKD1PKVtOSF1TKD1PKSg9TylbQ0hdNVtDSDJdW0NIMl01

> <s_epik_cmdline>
J2VwaWtfYXBwJywgJy1pbWFlJywgJ2xpZ2FuZF9wcm8ubWFlJywgJy1vbWFlJywgJ2xpZ2FuZF9wcmVwLm1hZScsICctbXMnLCAnMScsICctcGgnLCAnNycsICctcGh0JywgJzAuNScsICctbnQn

> <r_lp_tautomer_probability>
1

> <r_epik_Ionization_Penalty>
  0.0081

> <r_epik_Ionization_Penalty_Charging>
  0.0081

> <r_epik_Ionization_Penalty_Neutral>
  0.0000

> <r_epik_State_Penalty>
 -0.0000

> <r_epik_Charging_Adjusted_Penalty>
0.00806433787134458

> <i_epik_Tot_Q>
-1

> <i_epik_Tot_abs_Q>
1

$$$$
