3oyq_ligand
                    3D
 Schrodinger Suite 2020-3.
 39 39  0  0  1  0            999 V2000
   -0.2910   10.2450   14.9080 C   0  0  0  0  0  0
    0.3270    8.1210   13.1670 C   0  0  0  0  0  0
   -5.3460   -0.4520   16.0600 N   0  0  0  0  0  0
   -4.7630    6.7140   13.0320 O   0  0  0  0  0  0
   -5.3770    1.2400   18.0450 O   0  0  0  0  0  0
   -7.3160    1.1810   16.5400 O   0  0  0  0  0  0
   -5.1920    4.4030   14.5200 C   0  0  0  0  0  0
   -3.1020    3.2280   14.7680 C   0  0  0  0  0  0
   -5.8370    3.3890   15.2430 C   0  0  0  0  0  0
   -3.7260    2.2440   15.4980 C   0  0  0  0  0  0
   -0.9520    8.9190   15.0920 C   0  0  0  0  0  0
   -2.6310    7.3190   12.2220 C   0  0  0  0  0  0
   -2.0520    8.4300   13.0060 C   0  0  0  0  0  0
   -3.0400    5.2590   13.5640 N   0  0  0  0  0  0
   -3.5750    6.4350   12.9590 C   0  0  0  0  0  0
   -3.8170    4.3070   14.2930 C   0  0  0  0  0  0
   -5.0920    2.2980   15.7430 C   0  0  0  0  0  0
   -0.9620    8.0160   13.9160 C   0  0  1  0  0  0
   -5.8440    0.9830   16.6910 S   0  0  0  0  0  0
   -0.3497   10.8172   15.8456 H   0  0  0  0  0  0
   -0.8004   10.8006   14.1068 H   0  0  0  0  0  0
    0.7641   10.0941   14.6360 H   0  0  0  0  0  0
    1.1573    7.8181   13.8219 H   0  0  0  0  0  0
    0.4778    9.1606   12.8407 H   0  0  0  0  0  0
    0.2946    7.4616   12.2872 H   0  0  0  0  0  0
   -5.7970   -1.2787   16.6285 H   0  0  0  0  0  0
   -4.2498   -0.5192   16.1223 H   0  0  0  0  0  0
   -5.7562    5.2548   14.1402 H   0  0  0  0  0  0
   -2.0339    3.1545   14.5632 H   0  0  0  0  0  0
   -6.9114    3.4427   15.4188 H   0  0  0  0  0  0
   -3.1414    1.4113   15.8892 H   0  0  0  0  0  0
   -0.4426    8.3634   15.8932 H   0  0  0  0  0  0
   -2.0071    9.0698   15.3640 H   0  0  0  0  0  0
   -3.1918    7.7263   11.3678 H   0  0  0  0  0  0
   -1.8229    6.6698   11.8540 H   0  0  0  0  0  0
   -1.6362    9.1841   12.3215 H   0  0  0  0  0  0
   -2.8364    8.8897   13.6252 H   0  0  0  0  0  0
   -1.9651    5.0397   13.4840 H   0  0  0  0  0  0
   -1.1136    6.9844   14.2664 H   0  0  0  0  0  0
  1 11  1  0  0  0
  1 20  1  0  0  0
  1 21  1  0  0  0
  1 22  1  0  0  0
  2 18  1  0  0  0
  2 23  1  0  0  0
  2 24  1  0  0  0
  2 25  1  0  0  0
  3 19  1  0  0  0
  3 26  1  0  0  0
  3 27  1  0  0  0
  4 15  2  0  0  0
  5 19  2  0  0  0
  6 19  2  0  0  0
  7  9  2  0  0  0
  7 16  1  0  0  0
  7 28  1  0  0  0
  8 10  1  0  0  0
  8 16  2  0  0  0
  8 29  1  0  0  0
  9 17  1  0  0  0
  9 30  1  0  0  0
 10 17  2  0  0  0
 10 31  1  0  0  0
 11 18  1  0  0  0
 11 32  1  0  0  0
 11 33  1  0  0  0
 12 13  1  0  0  0
 12 15  1  0  0  0
 12 34  1  0  0  0
 12 35  1  0  0  0
 13 18  1  0  0  0
 13 36  1  0  0  0
 13 37  1  0  0  0
 14 15  1  0  0  0
 14 16  1  0  0  0
 14 38  1  0  0  0
 17 19  1  0  0  0
 18 39  1  0  0  0
M  END
> <s_m_source_file>
../3oyq_ligand.sdf

> <i_m_source_file_index>
1

> <s_epik_input>
W0NIM11bQ0gyXVtDQEhdKFtDSDNdKVtDSDJdW0NIMl1DKD1PKVtOSF1jMVtjSF1bY0hdYyhbY0hdW2NIXTEpUyg9TykoPU8pW05IMl0=

> <s_epik_cmdline>
J2VwaWtfYXBwJywgJy1pbWFlJywgJ2xpZ2FuZF9wcm8ubWFlJywgJy1vbWFlJywgJ2xpZ2FuZF9wcmVwLm1hZScsICctbXMnLCAnMScsICctcGgnLCAnNycsICctcGh0JywgJzAuNScsICctbnQn

> <r_lp_tautomer_probability>
1

> <r_epik_Ionization_Penalty>
  0.0005

> <r_epik_Ionization_Penalty_Charging>
  0.0000

> <r_epik_Ionization_Penalty_Neutral>
  0.0005

> <r_epik_State_Penalty>
 -0.0000

> <r_epik_Charging_Adjusted_Penalty>
0

> <i_epik_Tot_Q>
0

> <i_epik_Tot_abs_Q>
0

$$$$
