3oys_ligand
                    3D
 Schrodinger Suite 2020-3.
 34 35  0  0  1  0            999 V2000
   -5.3280   -0.4210   16.1140 N   0  0  0  0  0  0
   -4.6990    6.6580   12.9200 O   0  0  0  0  0  0
   -7.2340    1.2280   16.5590 O   0  0  0  0  0  0
   -5.3090    1.1810   18.0700 O   0  0  0  0  0  0
   -1.3100   10.6070   14.3680 C   0  0  0  0  0  0
   -1.9380   10.7840   13.1400 C   0  0  0  0  0  0
   -1.0770    9.3270   14.9110 C   0  0  0  0  0  0
   -2.3170    9.6520   12.4220 C   0  0  0  0  0  0
   -1.4820    8.2050   14.1740 C   0  0  0  0  0  0
   -3.0610    3.1890   14.7390 C   0  0  0  0  0  0
   -5.1640    4.3450   14.4710 C   0  0  0  0  0  0
   -3.6880    2.1960   15.4730 C   0  0  0  0  0  0
   -5.7890    3.3400   15.2160 C   0  0  0  0  0  0
   -2.4880    7.1780   12.1710 C   0  0  0  0  0  0
   -3.0180    5.2010   13.5170 N   0  0  0  0  0  0
   -3.5140    6.3590   12.8850 C   0  0  0  0  0  0
   -2.0550    8.3730   12.9390 C   0  0  0  0  0  0
   -3.7840    4.2610   14.2440 C   0  0  0  0  0  0
   -5.0580    2.2690   15.7380 C   0  0  0  0  0  0
   -5.8120    0.9960   16.7060 S   0  0  0  0  0  0
   -5.7816   -1.2361   16.6970 H   0  0  0  0  0  0
   -4.2321   -0.4901   16.1782 H   0  0  0  0  0  0
   -0.9880   11.4850   14.9280 H   0  0  0  0  0  0
   -2.1289   11.7834   12.7490 H   0  0  0  0  0  0
   -0.5933    9.2122   15.8811 H   0  0  0  0  0  0
   -2.8167    9.7590   11.4592 H   0  0  0  0  0  0
   -1.3421    7.2034   14.5807 H   0  0  0  0  0  0
   -1.9895    3.1261   14.5494 H   0  0  0  0  0  0
   -5.7410    5.1800   14.0735 H   0  0  0  0  0  0
   -3.1087    1.3516   15.8466 H   0  0  0  0  0  0
   -6.8633    3.3927   15.3924 H   0  0  0  0  0  0
   -1.5954    6.5637   11.9815 H   0  0  0  0  0  0
   -2.9008    7.5299   11.2140 H   0  0  0  0  0  0
   -1.9448    4.9646   13.4681 H   0  0  0  0  0  0
  1 20  1  0  0  0
  1 21  1  0  0  0
  1 22  1  0  0  0
  2 16  2  0  0  0
  3 20  2  0  0  0
  4 20  2  0  0  0
  5  6  2  0  0  0
  5  7  1  0  0  0
  5 23  1  0  0  0
  6  8  1  0  0  0
  6 24  1  0  0  0
  7  9  2  0  0  0
  7 25  1  0  0  0
  8 17  2  0  0  0
  8 26  1  0  0  0
  9 17  1  0  0  0
  9 27  1  0  0  0
 10 12  2  0  0  0
 10 18  1  0  0  0
 10 28  1  0  0  0
 11 13  1  0  0  0
 11 18  2  0  0  0
 11 29  1  0  0  0
 12 19  1  0  0  0
 12 30  1  0  0  0
 13 19  2  0  0  0
 13 31  1  0  0  0
 14 16  1  0  0  0
 14 17  1  0  0  0
 14 32  1  0  0  0
 14 33  1  0  0  0
 15 16  1  0  0  0
 15 18  1  0  0  0
 15 34  1  0  0  0
 19 20  1  0  0  0
M  END
> <s_m_source_file>
../3oys_ligand.sdf

> <i_m_source_file_index>
1

> <s_epik_input>
W05IMl1TKD1PKSg9TyljKFtjSF1bY0hdMSlbY0hdW2NIXWMxW05IXUMoPU8pW0NIMl1jMltjSF1bY0hdW2NIXVtjSF1bY0hdMg==

> <s_epik_cmdline>
J2VwaWtfYXBwJywgJy1pbWFlJywgJ2xpZ2FuZF9wcm8ubWFlJywgJy1vbWFlJywgJ2xpZ2FuZF9wcmVwLm1hZScsICctbXMnLCAnMScsICctcGgnLCAnNycsICctcGh0JywgJzAuNScsICctbnQn

> <r_lp_tautomer_probability>
1

> <r_epik_Ionization_Penalty>
  0.0005

> <r_epik_Ionization_Penalty_Charging>
  0.0000

> <r_epik_Ionization_Penalty_Neutral>
  0.0005

> <r_epik_State_Penalty>
 -0.0000

> <r_epik_Charging_Adjusted_Penalty>
0

> <i_epik_Tot_Q>
0

> <i_epik_Tot_abs_Q>
0

$$$$
