3oz1_ligand
                    3D
 Schrodinger Suite 2020-3.
 94 98  0  0  1  0            999 V2000
  -16.8850  -30.0740   -9.4590 C   0  0  0  0  0  0
  -14.7320  -29.0990   -9.9240 N   0  3  0  0  0  0
  -17.0450  -29.8990   -8.2450 O   0  0  0  0  0  0
  -15.5080  -30.3450  -10.0310 C   0  0  1  0  0  0
  -14.8390  -31.5230   -9.2880 C   0  0  0  0  0  0
  -15.7880  -32.7150   -9.1350 C   0  0  0  0  0  0
  -14.3400  -28.7890   -8.5300 C   0  0  0  0  0  0
  -22.6810  -31.8650  -11.5930 O   0  0  0  0  0  0
  -19.5850  -32.1690  -10.5790 O   0  0  0  0  0  0
  -14.7170  -23.7300   -8.5040 C   0  0  0  0  0  0
  -22.4880  -38.3340  -13.6650 C   0  0  0  0  0  0
  -27.7380  -33.1430  -12.3770 C   0  0  0  0  0  0
  -14.4090  -23.3610   -9.8170 C   0  0  0  0  0  0
  -15.7670  -24.6210   -8.2620 C   0  0  0  0  0  0
  -21.5240  -37.3920  -13.3160 C   0  0  0  0  0  0
  -23.8290  -37.9940  -13.6010 C   0  0  0  0  0  0
  -26.7730  -32.3650  -13.0240 C   0  0  0  0  0  0
  -27.3740  -34.3230  -11.7170 C   0  0  0  0  0  0
  -15.1710  -23.8670  -10.8760 C   0  0  0  0  0  0
  -16.5200  -25.1320   -9.3260 C   0  0  0  0  0  0
  -21.9080  -36.1200  -12.9070 C   0  0  0  0  0  0
  -24.2130  -36.7240  -13.1760 C   0  0  0  0  0  0
  -25.4500  -32.8020  -13.0230 C   0  0  0  0  0  0
  -26.0390  -34.7380  -11.6870 C   0  0  0  0  0  0
  -18.8630  -26.8580  -12.0260 C   0  0  0  0  0  0
  -19.3140  -28.3260  -11.9950 C   0  0  0  0  0  0
  -21.4690  -28.8680  -10.6950 C   0  0  0  0  0  0
  -22.1110  -28.9470   -9.2950 C   0  0  0  0  0  0
  -23.3620  -30.9290   -8.4770 C   0  0  0  0  0  0
  -23.0600  -32.4200   -8.3580 C   0  0  0  0  0  0
  -17.0260  -25.3160  -11.8390 C   0  0  0  0  0  0
  -17.4410  -26.7240  -11.6580 N   0  3  0  0  0  0
  -17.8630  -30.0840  -10.3510 N   0  0  0  0  0  0
  -23.0110  -34.0360  -11.0570 N   0  0  0  0  0  0
  -22.6040  -32.7950  -10.7910 C   0  0  0  0  0  0
  -20.0500  -31.1930   -9.9770 C   0  0  0  0  0  0
  -16.2080  -24.7770  -10.6440 C   0  0  0  0  0  0
  -23.2540  -35.7850  -12.8170 C   0  0  0  0  0  0
  -25.0850  -33.9880  -12.3720 C   0  0  0  0  0  0
  -19.9380  -28.6880  -10.6190 C   0  0  1  0  0  0
  -21.9790  -30.3160   -8.5970 C   0  0  1  0  0  0
  -21.9760  -32.6000   -9.4130 C   0  0  1  0  0  0
  -19.2520  -29.8770   -9.9210 C   0  0  2  0  0  0
  -23.6090  -34.3670  -12.3590 C   0  0  0  0  0  0
  -21.2340  -31.3260   -9.3810 N   0  0  0  0  0  0
  -13.8125  -29.1873  -10.5212 H   0  0  0  0  0  0
  -15.3341  -28.2586  -10.2999 H   0  0  0  0  0  0
  -15.5591  -30.5998  -11.0999 H   0  0  0  0  0  0
  -13.9549  -31.8569   -9.8509 H   0  0  0  0  0  0
  -14.5321  -31.1961   -8.2835 H   0  0  0  0  0  0
  -15.2727  -33.5279   -8.6025 H   0  0  0  0  0  0
  -16.0979  -33.0670  -10.1300 H   0  0  0  0  0  0
  -16.6751  -32.4062   -8.5626 H   0  0  0  0  0  0
  -13.7650  -27.8514   -8.5107 H   0  0  0  0  0  0
  -13.7211  -29.6070   -8.1326 H   0  0  0  0  0  0
  -15.2427  -28.6783   -7.9113 H   0  0  0  0  0  0
  -14.1408  -23.3246   -7.6723 H   0  0  0  0  0  0
  -22.1894  -39.3319  -13.9863 H   0  0  0  0  0  0
  -28.7816  -32.8285  -12.3865 H   0  0  0  0  0  0
  -13.5792  -22.6824  -10.0147 H   0  0  0  0  0  0
  -16.0005  -24.9193   -7.2399 H   0  0  0  0  0  0
  -20.4666  -37.6522  -13.3635 H   0  0  0  0  0  0
  -24.5876  -38.7235  -13.8845 H   0  0  0  0  0  0
  -27.0504  -31.4346  -13.5196 H   0  0  0  0  0  0
  -28.1377  -34.9232  -11.2224 H   0  0  0  0  0  0
  -14.9537  -23.5479  -11.8953 H   0  0  0  0  0  0
  -17.3516  -25.8082   -9.1277 H   0  0  0  0  0  0
  -21.1482  -35.3802  -12.6551 H   0  0  0  0  0  0
  -25.2708  -36.4659  -13.1249 H   0  0  0  0  0  0
  -24.6889  -32.2136  -13.5354 H   0  0  0  0  0  0
  -25.7494  -35.6333  -11.1369 H   0  0  0  0  0  0
  -19.0008  -26.4534  -13.0396 H   0  0  0  0  0  0
  -19.4644  -26.2745  -11.3134 H   0  0  0  0  0  0
  -20.0669  -28.4949  -12.7790 H   0  0  0  0  0  0
  -18.4472  -28.9797  -12.1721 H   0  0  0  0  0  0
  -21.6790  -29.7957  -11.2475 H   0  0  0  0  0  0
  -21.8889  -28.0117  -11.2432 H   0  0  0  0  0  0
  -21.6379  -28.2073   -8.6324 H   0  0  0  0  0  0
  -23.1874  -28.7342   -9.3727 H   0  0  0  0  0  0
  -23.9844  -30.7508   -9.3663 H   0  0  0  0  0  0
  -23.9002  -30.5911   -7.5791 H   0  0  0  0  0  0
  -22.7140  -32.6437   -7.3381 H   0  0  0  0  0  0
  -23.9721  -32.9970   -8.5705 H   0  0  0  0  0  0
  -16.4015  -25.2308  -12.7405 H   0  0  0  0  0  0
  -17.9181  -24.6821  -11.9498 H   0  0  0  0  0  0
  -17.3050  -27.0181  -10.6068 H   0  0  0  0  0  0
  -16.8325  -27.3753  -12.3026 H   0  0  0  0  0  0
  -17.6351  -30.2474  -11.4146 H   0  0  0  0  0  0
  -22.8957  -34.8164  -10.2904 H   0  0  0  0  0  0
  -19.7477  -27.8208   -9.9696 H   0  0  0  0  0  0
  -21.4446  -30.1397   -7.6518 H   0  0  0  0  0  0
  -21.3156  -33.4571   -9.2149 H   0  0  0  0  0  0
  -19.1673  -29.5792   -8.8655 H   0  0  0  0  0  0
  -23.1337  -33.7236  -13.1141 H   0  0  0  0  0  0
  1  3  2  0  0  0
  1  4  1  0  0  0
  1 33  1  0  0  0
  2  4  1  0  0  0
  2  7  1  0  0  0
  2 46  1  0  0  0
  2 47  1  0  0  0
  4  5  1  0  0  0
  4 48  1  0  0  0
  5  6  1  0  0  0
  5 49  1  0  0  0
  5 50  1  0  0  0
  6 51  1  0  0  0
  6 52  1  0  0  0
  6 53  1  0  0  0
  7 54  1  0  0  0
  7 55  1  0  0  0
  7 56  1  0  0  0
  8 35  2  0  0  0
  9 36  2  0  0  0
 10 13  2  0  0  0
 10 14  1  0  0  0
 10 57  1  0  0  0
 11 15  2  0  0  0
 11 16  1  0  0  0
 11 58  1  0  0  0
 12 17  2  0  0  0
 12 18  1  0  0  0
 12 59  1  0  0  0
 13 19  1  0  0  0
 13 60  1  0  0  0
 14 20  2  0  0  0
 14 61  1  0  0  0
 15 21  1  0  0  0
 15 62  1  0  0  0
 16 22  2  0  0  0
 16 63  1  0  0  0
 17 23  1  0  0  0
 17 64  1  0  0  0
 18 24  2  0  0  0
 18 65  1  0  0  0
 19 37  2  0  0  0
 19 66  1  0  0  0
 20 37  1  0  0  0
 20 67  1  0  0  0
 21 38  2  0  0  0
 21 68  1  0  0  0
 22 38  1  0  0  0
 22 69  1  0  0  0
 23 39  2  0  0  0
 23 70  1  0  0  0
 24 39  1  0  0  0
 24 71  1  0  0  0
 25 26  1  0  0  0
 25 32  1  0  0  0
 25 72  1  0  0  0
 25 73  1  0  0  0
 26 40  1  0  0  0
 26 74  1  0  0  0
 26 75  1  0  0  0
 27 28  1  0  0  0
 27 40  1  0  0  0
 27 76  1  0  0  0
 27 77  1  0  0  0
 28 41  1  0  0  0
 28 78  1  0  0  0
 28 79  1  0  0  0
 29 30  1  0  0  0
 29 41  1  0  0  0
 29 80  1  0  0  0
 29 81  1  0  0  0
 30 42  1  0  0  0
 30 82  1  0  0  0
 30 83  1  0  0  0
 31 32  1  0  0  0
 31 37  1  0  0  0
 31 84  1  0  0  0
 31 85  1  0  0  0
 32 86  1  0  0  0
 32 87  1  0  0  0
 33 43  1  0  0  0
 33 88  1  0  0  0
 34 35  1  0  0  0
 34 44  1  0  0  0
 34 89  1  0  0  0
 35 42  1  0  0  0
 36 43  1  0  0  0
 36 45  1  0  0  0
 38 44  1  0  0  0
 39 44  1  0  0  0
 40 43  1  0  0  0
 40 90  1  0  0  0
 41 45  1  0  0  0
 41 91  1  0  0  0
 42 45  1  0  0  0
 42 92  1  0  0  0
 43 93  1  0  0  0
 44 94  1  0  0  0
M  CHG  2   2   1  32   1
M  END
> <s_m_source_file>
../3oz1_ligand.sdf

> <i_m_source_file_index>
1

> <s_epik_input>
W2NIXTFbY0hdW2NIXVtjSF1bY0hdYzFbQ0gyXVtOSDIrXVtDSDJdW0NIMl1bQ0BASF0oW0NIMl1bQ0gyXTIpW0NASF0oW05IXUMoPU8pW0NAQEhdKFtOSDIrXVtDSDNdKVtDSDJdW0NIM10pQyg9TylOKFtDQEBIXTIzKVtDQEBIXShbQ0gyXVtDSDJdMylDKD1PKVtOSF1bQ0hdKGM0W2NIXVtjSF1bY0hdW2NIXVtjSF00KWM1W2NIXVtjSF1bY0hdW2NIXVtjSF01

> <s_epik_cmdline>
J2VwaWtfYXBwJywgJy1pbWFlJywgJ2xpZ2FuZF9wcm8ubWFlJywgJy1vbWFlJywgJ2xpZ2FuZF9wcmVwLm1hZScsICctbXMnLCAnMScsICctcGgnLCAnNycsICctcGh0JywgJzAuNScsICctbnQn

> <r_lp_tautomer_probability>
1

> <r_epik_Ionization_Penalty>
  0.0831

> <r_epik_Ionization_Penalty_Charging>
  0.0831

> <r_epik_Ionization_Penalty_Neutral>
  0.0000

> <r_epik_State_Penalty>
 -0.0000

> <r_epik_Charging_Adjusted_Penalty>
0.083062827508449

> <i_epik_Tot_Q>
2

> <i_epik_Tot_abs_Q>
2

$$$$
