3ozg_ligand
                    3D
 Schrodinger Suite 2020-3.
 38 39  0  0  1  0            999 V2000
   65.7260   35.7830   71.4690 P   0  0  0  0  0  0
   64.4740   37.4540   80.4880 N   0  0  0  0  0  0
   63.3060   36.8340   80.2540 C   0  0  0  0  0  0
   63.0160   36.2470   79.0900 N   0  0  0  0  0  0
   63.9470   36.2890   78.1100 C   0  0  0  0  0  0
   65.2460   36.9460   78.2820 C   0  0  0  0  0  0
   65.4750   37.5640   79.6040 C   0  0  0  0  0  0
   66.5660   38.1620   79.8780 O   0  0  0  0  0  0
   65.9200   36.8070   77.1280 N   0  3  0  0  0  0
   65.1680   36.0890   76.2310 C   0  0  0  0  0  0
   63.9170   35.7300   76.7400 C   0  0  0  0  0  0
   62.8070   34.9170   76.0880 C   0  0  0  0  0  0
   65.1000   34.6660   70.6430 O   0  5  0  0  0  0
   66.3680   36.8810   70.6700 O   0  0  0  0  0  0
   61.2720   36.6510   73.0790 C   0  0  0  0  0  0
   60.1080   37.0790   73.8070 O   0  0  0  0  0  0
   66.6050   35.3450   72.6090 O   0  0  0  0  0  0
   62.4480   36.3670   74.0060 C   0  0  1  0  0  0
   61.9480   35.6070   75.1490 N   0  3  0  0  0  0
   63.5530   35.6340   73.2260 C   0  0  0  0  0  0
   64.3020   36.5820   72.2800 C   0  0  0  0  0  0
   64.6631   37.9198   81.4664 H   0  0  0  0  0  0
   62.5614   36.8087   81.0496 H   0  0  0  0  0  0
   65.4522   35.7928   75.2105 H   0  0  0  0  0  0
   63.2473   34.0810   75.5248 H   0  0  0  0  0  0
   62.1363   34.5225   76.8655 H   0  0  0  0  0  0
   61.0395   35.7298   72.5246 H   0  0  0  0  0  0
   61.5724   37.4384   72.3721 H   0  0  0  0  0  0
   59.1800   37.3203   73.2679 H   0  0  0  0  0  0
   67.5524   34.8247   72.4046 H   0  0  0  0  0  0
   62.8808   37.2835   74.4335 H   0  0  0  0  0  0
   61.2754   34.8825   74.6666 H   0  0  0  0  0  0
   61.3518   36.3613   75.6834 H   0  0  0  0  0  0
   64.2783   35.2054   73.9332 H   0  0  0  0  0  0
   63.1054   34.8278   72.6262 H   0  0  0  0  0  0
   64.6513   37.4417   72.8706 H   0  0  0  0  0  0
   63.5907   36.9273   71.5152 H   0  0  0  0  0  0
   66.9237   37.2442   77.0212 H   0  0  0  0  0  0
  1 13  1  0  0  0
  1 14  2  0  0  0
  1 17  1  0  0  0
  1 21  1  0  0  0
  2  3  1  0  0  0
  2  7  1  0  0  0
  2 22  1  0  0  0
  3  4  2  0  0  0
  3 23  1  0  0  0
  4  5  1  0  0  0
  5  6  2  0  0  0
  5 11  1  0  0  0
  6  7  1  0  0  0
  6  9  1  0  0  0
  7  8  2  0  0  0
  9 10  1  0  0  0
  9 38  1  0  0  0
 10 11  2  0  0  0
 10 24  1  0  0  0
 11 12  1  0  0  0
 12 19  1  0  0  0
 12 25  1  0  0  0
 12 26  1  0  0  0
 15 16  1  0  0  0
 15 18  1  0  0  0
 15 27  1  0  0  0
 15 28  1  0  0  0
 16 29  1  0  0  0
 17 30  1  0  0  0
 18 19  1  0  0  0
 18 20  1  0  0  0
 18 31  1  0  0  0
 19 32  1  0  0  0
 19 33  1  0  0  0
 20 21  1  0  0  0
 20 34  1  0  0  0
 20 35  1  0  0  0
 21 36  1  0  0  0
 21 37  1  0  0  0
M  CHG  3   9   1  13  -1  19   1
M  END
> <s_m_source_file>
../3ozg_ligand.sdf

> <i_m_source_file_index>
1

> <s_epik_input>
W09IXVAoPU8pKFtPSF0pW0NIMl1bQ0gyXVtDQEBIXShbQ0gyXVtPSF0pW05IMitdW0NIMl1jMVtjSF1bbkhdYyhjMTIpYyg9TylbbkhdW2NIXW4y

> <s_epik_cmdline>
J2VwaWtfYXBwJywgJy1pbWFlJywgJ2xpZ2FuZF9wcm8ubWFlJywgJy1vbWFlJywgJ2xpZ2FuZF9wcmVwLm1hZScsICctbXMnLCAnMScsICctcGgnLCAnNycsICctcGh0JywgJzAuNScsICctbnQn

> <r_epik_Ionization_Penalty>
  0.4354

> <r_epik_Ionization_Penalty_Charging>
  0.2949

> <r_epik_Ionization_Penalty_Neutral>
  0.1405

> <r_epik_State_Penalty>
  0.2879

> <r_epik_Charging_Adjusted_Penalty>
0.582831509749099

> <i_epik_Tot_Q>
1

> <i_epik_Tot_abs_Q>
3

$$$$
