3ozr_ligand
                    3D
 Schrodinger Suite 2020-3.
 39 40  0  0  1  0            999 V2000
  -20.1710   30.3130   13.4170 C   0  0  1  0  0  0
  -21.0150   31.1480   14.4280 C   0  0  2  0  0  0
  -21.8940   31.9600   13.4600 C   0  0  0  0  0  0
  -21.0800   32.2130   12.2910 O   0  0  0  0  0  0
  -19.8870   31.3840   12.3220 C   0  0  2  0  0  0
  -19.6090   30.7010   11.0200 C   0  0  0  0  0  0
  -18.9300   29.7130   13.8080 O   0  0  0  0  0  0
  -20.1550   32.0210   15.1370 O   0  0  0  0  0  0
  -20.5300   30.5300   10.0710 C   0  0  0  0  0  0
  -20.2220   29.8380    8.7920 C   0  0  0  0  0  0
  -21.3330   29.0860    8.2730 N   0  0  0  0  0  0
  -22.1520   29.6430    7.3490 C   0  0  0  0  0  0
  -23.2590   28.8550    6.7400 C   0  0  0  0  0  0
  -23.3120   27.4510    6.9250 C   0  0  0  0  0  0
  -24.3720   26.7350    6.3650 C   0  0  0  0  0  0
  -25.3630   27.3590    5.6000 C   0  0  0  0  0  0
  -25.2830   28.7600    5.4370 C   0  0  0  0  0  0
  -24.2620   29.4990    6.0050 C   0  0  0  0  0  0
  -26.2750   29.5410    4.6820 N   0  3  0  0  0  0
  -22.3800   26.7390    7.6040 O   0  5  0  0  0  0
  -24.4630   25.3680    6.5000 O   0  0  0  0  0  0
  -22.0050   30.8400    7.0220 O   0  0  0  0  0  0
  -27.1140   29.0050    3.9920 O   0  0  0  0  0  0
  -26.1780   30.7300    4.8010 O   0  5  0  0  0  0
  -20.6689   29.3582   13.1925 H   0  0  0  0  0  0
  -21.5376   30.6096   15.2324 H   0  0  0  0  0  0
  -22.7891   31.3760   13.1999 H   0  0  0  0  0  0
  -22.1975   32.9011   13.9420 H   0  0  0  0  0  0
  -19.0266   32.0478   12.4928 H   0  0  0  0  0  0
  -18.5846   30.3314   10.8652 H   0  0  0  0  0  0
  -18.9175   28.9265   14.5770 H   0  0  0  0  0  0
  -19.4500   31.6165   15.8782 H   0  0  0  0  0  0
  -21.5526   30.9059   10.2229 H   0  0  0  0  0  0
  -19.9397   30.5812    8.0318 H   0  0  0  0  0  0
  -19.3889   29.1364    8.9460 H   0  0  0  0  0  0
  -21.5162   28.0606    8.6265 H   0  0  0  0  0  0
  -26.1695   26.7839    5.1451 H   0  0  0  0  0  0
  -24.2377   30.5816    5.8809 H   0  0  0  0  0  0
  -23.7120   24.8224    7.0902 H   0  0  0  0  0  0
  1  2  1  0  0  0
  1  5  1  0  0  0
  1  7  1  0  0  0
  1 25  1  0  0  0
  2  3  1  0  0  0
  2  8  1  0  0  0
  2 26  1  0  0  0
  3  4  1  0  0  0
  3 27  1  0  0  0
  3 28  1  0  0  0
  4  5  1  0  0  0
  5  6  1  0  0  0
  5 29  1  0  0  0
  6  9  2  0  0  0
  6 30  1  0  0  0
  7 31  1  0  0  0
  8 32  1  0  0  0
  9 10  1  0  0  0
  9 33  1  0  0  0
 10 11  1  0  0  0
 10 34  1  0  0  0
 10 35  1  0  0  0
 11 12  1  0  0  0
 11 36  1  0  0  0
 12 13  1  0  0  0
 12 22  2  0  0  0
 13 14  2  0  0  0
 13 18  1  0  0  0
 14 15  1  0  0  0
 14 20  1  0  0  0
 15 16  2  0  0  0
 15 21  1  0  0  0
 16 17  1  0  0  0
 16 37  1  0  0  0
 17 18  2  0  0  0
 17 19  1  0  0  0
 18 38  1  0  0  0
 19 23  2  0  0  0
 19 24  1  0  0  0
 21 39  1  0  0  0
M  CHG  3  19   1  20  -1  24  -1
M  END
> <s_m_source_file>
../3ozr_ligand.sdf

> <i_m_source_file_index>
1

> <s_epik_input>
W09IXVtDQEhdMVtDQEBIXShbT0hdKVtDSDJdT1tDQEBIXTEvW0NIXT1bQ0hdL1tDSDJdW05IXUMoPU8pYzJjKFtPSF0pYyhbT0hdKVtjSF1jKFtjSF0yKVtOK10oPU8pW08tXQ==

> <s_epik_cmdline>
J2VwaWtfYXBwJywgJy1pbWFlJywgJ2xpZ2FuZF9wcm8ubWFlJywgJy1vbWFlJywgJ2xpZ2FuZF9wcmVwLm1hZScsICctbXMnLCAnMScsICctcGgnLCAnNycsICctcGh0JywgJzAuNScsICctbnQn

> <r_lp_tautomer_probability>
1

> <r_epik_Ionization_Penalty>
  0.0106

> <r_epik_Ionization_Penalty_Charging>
  0.0100

> <r_epik_Ionization_Penalty_Neutral>
  0.0006

> <r_epik_State_Penalty>
 -0.0000

> <r_epik_Charging_Adjusted_Penalty>
0.010034183901132

> <i_epik_Tot_Q>
-1

> <i_epik_Tot_abs_Q>
3

$$$$
