3p0g_ligand
                    3D
 Schrodinger Suite 2020-3.
 54 56  0  0  1  0            999 V2000
   68.5800   13.3090   13.1130 C   0  0  0  0  0  0
   65.7800   15.2150   11.6920 C   0  0  0  0  0  0
   65.5580   16.3910   13.8960 C   0  0  0  0  0  0
   64.6780   22.5890   10.6300 O   0  0  0  0  0  0
   60.6980   20.8760    8.3790 O   0  0  0  0  0  0
   60.9380   15.9480   12.3620 O   0  0  0  0  0  0
   68.6650   14.1260   16.8250 C   0  0  0  0  0  0
   67.3130   14.3750   17.0890 C   0  0  0  0  0  0
   69.0380   13.7860   15.5280 C   0  0  0  0  0  0
   66.3430   14.2740   16.0840 C   0  0  0  0  0  0
   60.1820   18.8670    9.5560 C   0  0  0  0  0  0
   60.5050   17.9100   10.5090 C   0  0  0  0  0  0
   64.0910   20.7810   11.9370 C   0  0  0  0  0  0
   63.2650   16.2380   11.9470 C   0  0  0  0  0  0
   65.5390   13.8230   13.7580 C   0  0  0  0  0  0
   63.6610   15.2020   12.9280 N   0  3  0  0  0  0
   62.9230   21.2980    9.9190 N   0  0  0  0  0  0
   63.5640   19.4090   11.9340 O   0  0  0  0  0  0
   63.9400   21.6170   10.8220 C   0  0  0  0  0  0
   68.0710   13.6780   14.5140 C   0  0  0  0  0  0
   60.9950   19.9760    9.3530 C   0  0  0  0  0  0
   66.7010   13.9250   14.7770 C   0  0  0  0  0  0
   61.6370   18.0610   11.3050 C   0  0  0  0  0  0
   62.1130   20.1650   10.1520 C   0  0  0  0  0  0
   62.4430   19.2160   11.1440 C   0  0  0  0  0  0
   61.9630   16.9460   12.3430 C   0  0  1  0  0  0
   65.1330   15.1550   13.0800 C   0  0  0  0  0  0
   69.6699   13.1639   13.1453 H   0  0  0  0  0  0
   68.3387   14.1198   12.4099 H   0  0  0  0  0  0
   68.0960   12.3790   12.7802 H   0  0  0  0  0  0
   66.8745   15.1806   11.7959 H   0  0  0  0  0  0
   65.4884   16.1502   11.1917 H   0  0  0  0  0  0
   65.4414   14.3573   11.0923 H   0  0  0  0  0  0
   66.6501   16.3859   14.0272 H   0  0  0  0  0  0
   65.0702   16.3651   14.8816 H   0  0  0  0  0  0
   65.2571   17.3042   13.3617 H   0  0  0  0  0  0
   59.8117   20.7275    7.7446 H   0  0  0  0  0  0
   61.0193   15.0890   13.0443 H   0  0  0  0  0  0
   69.4094   14.1969   17.6180 H   0  0  0  0  0  0
   67.0089   14.6534   18.0980 H   0  0  0  0  0  0
   70.0873   13.6022   15.2971 H   0  0  0  0  0  0
   65.2975   14.4694   16.3225 H   0  0  0  0  0  0
   59.2782   18.7468    8.9587 H   0  0  0  0  0  0
   59.8678   17.0346   10.6346 H   0  0  0  0  0  0
   63.6197   21.3530   12.7499 H   0  0  0  0  0  0
   65.1800   20.7552   12.0903 H   0  0  0  0  0  0
   64.0578   16.9972   11.8753 H   0  0  0  0  0  0
   63.1137   15.7718   10.9622 H   0  0  0  0  0  0
   65.8210   13.1342   12.9480 H   0  0  0  0  0  0
   64.6391   13.4442   14.2647 H   0  0  0  0  0  0
   63.2114   15.4315   13.9053 H   0  0  0  0  0  0
   63.3090   14.2181   12.5845 H   0  0  0  0  0  0
   62.7569   21.9279    9.0327 H   0  0  0  0  0  0
   61.9981   17.3697   13.3575 H   0  0  0  0  0  0
  1 20  1  0  0  0
  1 28  1  0  0  0
  1 29  1  0  0  0
  1 30  1  0  0  0
  2 27  1  0  0  0
  2 31  1  0  0  0
  2 32  1  0  0  0
  2 33  1  0  0  0
  3 27  1  0  0  0
  3 34  1  0  0  0
  3 35  1  0  0  0
  3 36  1  0  0  0
  4 19  2  0  0  0
  5 21  1  0  0  0
  5 37  1  0  0  0
  6 26  1  0  0  0
  6 38  1  0  0  0
  7  8  2  0  0  0
  7  9  1  0  0  0
  7 39  1  0  0  0
  8 10  1  0  0  0
  8 40  1  0  0  0
  9 20  2  0  0  0
  9 41  1  0  0  0
 10 22  2  0  0  0
 10 42  1  0  0  0
 11 12  2  0  0  0
 11 21  1  0  0  0
 11 43  1  0  0  0
 12 23  1  0  0  0
 12 44  1  0  0  0
 13 18  1  0  0  0
 13 19  1  0  0  0
 13 45  1  0  0  0
 13 46  1  0  0  0
 14 16  1  0  0  0
 14 26  1  0  0  0
 14 47  1  0  0  0
 14 48  1  0  0  0
 15 22  1  0  0  0
 15 27  1  0  0  0
 15 49  1  0  0  0
 15 50  1  0  0  0
 16 27  1  0  0  0
 16 51  1  0  0  0
 16 52  1  0  0  0
 17 19  1  0  0  0
 17 24  1  0  0  0
 17 53  1  0  0  0
 18 25  1  0  0  0
 20 22  1  0  0  0
 21 24  2  0  0  0
 23 25  2  0  0  0
 23 26  1  0  0  0
 24 25  1  0  0  0
 26 54  1  0  0  0
M  CHG  1  16   1
M  END
> <s_m_source_file>
../3p0g_ligand.sdf

> <i_m_source_file_index>
1

> <s_epik_input>
W0NIM11jMVtjSF1bY0hdW2NIXVtjSF1jMVtDSDJdQyhbQ0gzXSkoW0NIM10pW05IMitdW0NIMl1bQ0BIXShbT0hdKWMoW2NIXVtjSF1jMltPSF0pYyhjMjMpT1tDSDJdQyg9TylbTkhdMw==

> <s_epik_cmdline>
J2VwaWtfYXBwJywgJy1pbWFlJywgJ2xpZ2FuZF9wcm8ubWFlJywgJy1vbWFlJywgJ2xpZ2FuZF9wcmVwLm1hZScsICctbXMnLCAnMScsICctcGgnLCAnNycsICctcGh0JywgJzAuNScsICctbnQn

> <r_lp_tautomer_probability>
0.9999999999415

> <r_epik_Ionization_Penalty>
  0.0190

> <r_epik_Ionization_Penalty_Charging>
  0.0155

> <r_epik_Ionization_Penalty_Neutral>
  0.0036

> <r_epik_State_Penalty>
  0.0122

> <r_epik_Charging_Adjusted_Penalty>
0.0276634358614763

> <i_epik_Tot_Q>
1

> <i_epik_Tot_abs_Q>
1

$$$$
