3p17_ligand
                    3D
 Schrodinger Suite 2020-3.
 51 53  0  0  1  0            999 V2000
   16.3850  -15.3010   23.0820 N   0  3  0  0  0  0
   17.6990  -14.5780   23.1540 C   0  0  1  0  0  0
   17.4730  -13.1790   22.5570 C   0  0  0  0  0  0
   16.5570  -12.4680   23.0010 O   0  0  0  0  0  0
   18.1780  -14.5050   24.6150 C   0  0  0  0  0  0
   19.6110  -13.9940   24.6830 C   0  0  0  0  0  0
   20.6710  -14.6660   24.0630 C   0  0  0  0  0  0
   19.8780  -12.8100   25.3900 C   0  0  0  0  0  0
   21.9580  -14.1600   24.1540 C   0  0  0  0  0  0
   21.1620  -12.3040   25.4820 C   0  0  0  0  0  0
   22.2090  -12.9810   24.8600 C   0  0  0  0  0  0
   18.3390  -12.7830   21.5650 N   0  0  0  0  0  0
   18.2050  -11.4320   20.9920 C   0  0  2  0  0  0
   16.7460  -11.3110   20.4680 C   0  0  0  0  0  0
   16.2600  -12.1930   19.7200 O   0  0  0  0  0  0
   19.1940  -11.4200   19.8060 C   0  0  0  0  0  0
   20.2390  -12.4020   20.2720 C   0  0  0  0  0  0
   19.4570  -13.5360   20.9490 C   0  0  0  0  0  0
   16.0870  -10.1430   20.7160 N   0  0  0  0  0  0
   14.7610   -9.8760   20.1810 C   0  0  0  0  0  0
   13.7180  -10.4350   21.0910 C   0  0  0  0  0  0
   12.9340   -9.6220   21.8870 C   0  0  0  0  0  0
   11.9730  -10.0820   22.7300 N   0  0  0  0  0  0
   11.7790  -11.4190   22.7850 C   0  0  0  0  0  0
   12.5170  -12.2990   22.0250 C   0  0  0  0  0  0
   13.4900  -11.7940   21.1770 C   0  0  0  0  0  0
   16.0497  -15.3489   22.0354 H   0  0  0  0  0  0
   15.6369  -14.7626   23.6824 H   0  0  0  0  0  0
   16.5058  -16.3211   23.4754 H   0  0  0  0  0  0
   18.4662  -15.1196   22.5813 H   0  0  0  0  0  0
   17.5280  -13.8208   25.1802 H   0  0  0  0  0  0
   18.1350  -15.5076   25.0655 H   0  0  0  0  0  0
   20.4844  -15.5862   23.5093 H   0  0  0  0  0  0
   19.0582  -12.2802   25.8751 H   0  0  0  0  0  0
   22.7811  -14.6863   23.6707 H   0  0  0  0  0  0
   21.3529  -11.3847   26.0356 H   0  0  0  0  0  0
   23.2246  -12.5904   24.9243 H   0  0  0  0  0  0
   18.4224  -10.6438   21.7278 H   0  0  0  0  0  0
   18.6738  -11.7411   18.8915 H   0  0  0  0  0  0
   19.5866  -10.4020   19.6662 H   0  0  0  0  0  0
   20.8107  -12.7674   19.4062 H   0  0  0  0  0  0
   20.9205  -11.9048   20.9780 H   0  0  0  0  0  0
   20.0272  -14.0536   21.7345 H   0  0  0  0  0  0
   19.0549  -14.2751   20.2404 H   0  0  0  0  0  0
   16.5892   -9.3908   21.3421 H   0  0  0  0  0  0
   14.6147   -8.7897   20.0888 H   0  0  0  0  0  0
   14.6641  -10.3444   19.1904 H   0  0  0  0  0  0
   13.0965   -8.5454   21.8354 H   0  0  0  0  0  0
   11.0132  -11.8134   23.4529 H   0  0  0  0  0  0
   12.3392  -13.3725   22.0892 H   0  0  0  0  0  0
   14.0828  -12.4785   20.5702 H   0  0  0  0  0  0
  1  2  1  0  0  0
  1 27  1  0  0  0
  1 28  1  0  0  0
  1 29  1  0  0  0
  2  3  1  0  0  0
  2  5  1  0  0  0
  2 30  1  0  0  0
  3  4  2  0  0  0
  3 12  1  0  0  0
  5  6  1  0  0  0
  5 31  1  0  0  0
  5 32  1  0  0  0
  6  7  2  0  0  0
  6  8  1  0  0  0
  7  9  1  0  0  0
  7 33  1  0  0  0
  8 10  2  0  0  0
  8 34  1  0  0  0
  9 11  2  0  0  0
  9 35  1  0  0  0
 10 11  1  0  0  0
 10 36  1  0  0  0
 11 37  1  0  0  0
 12 13  1  0  0  0
 12 18  1  0  0  0
 13 14  1  0  0  0
 13 16  1  0  0  0
 13 38  1  0  0  0
 14 15  2  0  0  0
 14 19  1  0  0  0
 16 17  1  0  0  0
 16 39  1  0  0  0
 16 40  1  0  0  0
 17 18  1  0  0  0
 17 41  1  0  0  0
 17 42  1  0  0  0
 18 43  1  0  0  0
 18 44  1  0  0  0
 19 20  1  0  0  0
 19 45  1  0  0  0
 20 21  1  0  0  0
 20 46  1  0  0  0
 20 47  1  0  0  0
 21 22  2  0  0  0
 21 26  1  0  0  0
 22 23  1  0  0  0
 22 48  1  0  0  0
 23 24  2  0  0  0
 24 25  1  0  0  0
 24 49  1  0  0  0
 25 26  2  0  0  0
 25 50  1  0  0  0
 26 51  1  0  0  0
M  CHG  1   1   1
M  END
> <s_m_source_file>
../3p17_ligand.sdf

> <i_m_source_file_index>
1

> <s_epik_input>
W2NIXTFbY0hdW2NIXVtjSF1bY0hdYzFbQ0gyXVtDQEBIXShbTkgzK10pQyg9TylOMltDQEBIXShbQ0gyXVtDSDJdW0NIMl0yKUMoPU8pW05IXVtDSDJdYzNbY0hdbltjSF1bY0hdW2NIXTM=

> <s_epik_cmdline>
J2VwaWtfYXBwJywgJy1pbWFlJywgJ2xpZ2FuZF9wcm8ubWFlJywgJy1vbWFlJywgJ2xpZ2FuZF9wcmVwLm1hZScsICctbXMnLCAnMScsICctcGgnLCAnNycsICctcGh0JywgJzAuNScsICctbnQn

> <r_epik_Ionization_Penalty>
  0.1886

> <r_epik_Ionization_Penalty_Charging>
  0.1805

> <r_epik_Ionization_Penalty_Neutral>
  0.0081

> <r_epik_State_Penalty>
  0.1700

> <r_epik_Charging_Adjusted_Penalty>
0.350449203061821

> <i_epik_Tot_Q>
1

> <i_epik_Tot_abs_Q>
1

$$$$
