3p1d_ligand
                    3D
 Schrodinger Suite 2020-3.
 16 16  0  0  1  0            999 V2000
  -19.6060   25.2500   -2.0040 C   0  0  0  0  0  0
  -21.1240   27.0230   -0.1990 O   0  0  0  0  0  0
  -17.6390   27.7430    0.0850 C   0  0  0  0  0  0
  -19.0480   27.9300    0.6150 C   0  0  0  0  0  0
  -17.7060   26.5340   -0.8160 C   0  0  0  0  0  0
  -19.8920   27.0000   -0.2290 C   0  0  0  0  0  0
  -19.1250   26.2710   -1.0420 N   0  0  0  0  0  0
  -18.7474   24.8140   -2.5357 H   0  0  0  0  0  0
  -20.2857   25.7211   -2.7293 H   0  0  0  0  0  0
  -20.1416   24.4577   -1.4605 H   0  0  0  0  0  0
  -17.3338   28.6422   -0.4703 H   0  0  0  0  0  0
  -16.9494   27.5800    0.9263 H   0  0  0  0  0  0
  -19.0777   27.6596    1.6808 H   0  0  0  0  0  0
  -19.3484   28.9814    0.4950 H   0  0  0  0  0  0
  -17.1889   26.7526   -1.7620 H   0  0  0  0  0  0
  -17.2197   25.6804   -0.3211 H   0  0  0  0  0  0
  1  7  1  0  0  0
  1  8  1  0  0  0
  1  9  1  0  0  0
  1 10  1  0  0  0
  2  6  2  0  0  0
  3  4  1  0  0  0
  3  5  1  0  0  0
  3 11  1  0  0  0
  3 12  1  0  0  0
  4  6  1  0  0  0
  4 13  1  0  0  0
  4 14  1  0  0  0
  5  7  1  0  0  0
  5 15  1  0  0  0
  5 16  1  0  0  0
  6  7  1  0  0  0
M  END
> <s_m_source_file>
../3p1d_ligand.sdf

> <i_m_source_file_index>
1

> <s_epik_input>
W0NIM11OMVtDSDJdW0NIMl1bQ0gyXUMxPU8=

> <s_epik_cmdline>
J2VwaWtfYXBwJywgJy1pbWFlJywgJ2xpZ2FuZF9wcm8ubWFlJywgJy1vbWFlJywgJ2xpZ2FuZF9wcmVwLm1hZScsICctbXMnLCAnMScsICctcGgnLCAnNycsICctcGh0JywgJzAuNScsICctbnQn

> <r_lp_tautomer_probability>
1

> <r_epik_Ionization_Penalty>
  0.0000

> <r_epik_Ionization_Penalty_Charging>
  0.0000

> <r_epik_Ionization_Penalty_Neutral>
  0.0000

> <r_epik_State_Penalty>
 -0.0000

> <r_epik_Charging_Adjusted_Penalty>
0

> <i_epik_Tot_Q>
0

> <i_epik_Tot_abs_Q>
0

$$$$
