3p23_ligand
                    3D
 Schrodinger Suite 2020-3.
 39 41  0  0  1  0            999 V2000
   26.5150  -38.3010   49.8430 P   0  0  0  0  0  0
   27.5150  -37.4440   50.5770 O   0  0  0  0  0  0
   26.2560  -37.8210   48.4330 O   0  5  0  0  0  0
   26.6950  -39.7960   49.9860 O   0  5  0  0  0  0
   23.7290  -38.0780   49.8470 P   0  0  2  0  0  0
   23.7460  -37.0540   48.7390 O   0  5  0  0  0  0
   22.6200  -38.0880   50.8700 O   0  0  0  0  0  0
   25.1380  -38.0010   50.6200 O   0  0  0  0  0  0
   23.7650  -39.5500   49.1980 O   0  0  0  0  0  0
   23.8170  -40.6930   50.0480 C   0  0  0  0  0  0
   23.8840  -41.9820   49.2340 C   0  0  1  0  0  0
   22.6870  -42.1570   48.4740 O   0  0  0  0  0  0
   25.0300  -41.9990   48.2320 C   0  0  1  0  0  0
   26.1810  -42.6720   48.7530 O   0  0  0  0  0  0
   24.4830  -42.7480   47.0350 C   0  0  1  0  0  0
   25.0150  -44.0750   47.0190 O   0  0  0  0  0  0
   22.9760  -42.8000   47.2300 C   0  0  2  0  0  0
   22.3400  -42.0730   46.1040 N   0  0  0  0  0  0
   22.2210  -40.7350   46.0020 C   0  0  0  0  0  0
   21.6010  -40.3860   44.8480 N   0  0  0  0  0  0
   21.3170  -41.5210   44.1860 C   0  0  0  0  0  0
   20.6680  -41.8680   42.9010 C   0  0  0  0  0  0
   20.1890  -40.9000   42.0820 N   0  0  0  0  0  0
   20.5700  -43.1790   42.5810 N   0  0  0  0  0  0
   21.0410  -44.1450   43.3910 C   0  0  0  0  0  0
   21.6410  -43.8990   44.5690 N   0  0  0  0  0  0
   21.8060  -42.6310   45.0140 C   0  0  0  0  0  0
   24.7103  -40.6343   50.6871 H   0  0  0  0  0  0
   22.9162  -40.7222   50.6787 H   0  0  0  0  0  0
   23.9732  -42.8115   49.9509 H   0  0  0  0  0  0
   25.4169  -40.9960   47.9993 H   0  0  0  0  0  0
   26.7078  -42.2635   49.6280 H   0  0  0  0  0  0
   24.7824  -42.3074   46.0726 H   0  0  0  0  0  0
   26.0956  -44.2328   46.8868 H   0  0  0  0  0  0
   22.5599  -43.8168   47.2851 H   0  0  0  0  0  0
   22.5766  -40.0258   46.7495 H   0  0  0  0  0  0
   20.2824  -39.8419   42.3677 H   0  0  0  0  0  0
   19.7068  -41.1726   41.1316 H   0  0  0  0  0  0
   20.9302  -45.1824   43.0753 H   0  0  0  0  0  0
  1  2  2  0  0  0
  1  3  1  0  0  0
  1  4  1  0  0  0
  1  8  1  0  0  0
  5  6  1  0  0  0
  5  7  2  0  0  0
  5  8  1  0  0  0
  5  9  1  0  0  0
  9 10  1  0  0  0
 10 11  1  0  0  0
 10 28  1  0  0  0
 10 29  1  0  0  0
 11 12  1  0  0  0
 11 13  1  0  0  0
 11 30  1  0  0  0
 12 17  1  0  0  0
 13 14  1  0  0  0
 13 15  1  0  0  0
 13 31  1  0  0  0
 14 32  1  0  0  0
 15 16  1  0  0  0
 15 17  1  0  0  0
 15 33  1  0  0  0
 16 34  1  0  0  0
 17 18  1  0  0  0
 17 35  1  0  0  0
 18 19  1  0  0  0
 18 27  1  0  0  0
 19 20  2  0  0  0
 19 36  1  0  0  0
 20 21  1  0  0  0
 21 22  2  0  0  0
 21 27  1  0  0  0
 22 23  1  0  0  0
 22 24  1  0  0  0
 23 37  1  0  0  0
 23 38  1  0  0  0
 24 25  2  0  0  0
 25 26  1  0  0  0
 25 39  1  0  0  0
 26 27  2  0  0  0
M  CHG  3   3  -1   4  -1   6  -1
M  END
> <s_m_source_file>
../3p23_ligand.sdf

> <i_m_source_file_index>
1

> <s_epik_input>
Tz1QKFtPSF0pKFtPSF0pT1tQQEBdKD1PKShbT0hdKU9bQ0gyXVtDQEhdMU9bQ0BIXShbQ0BIXShbT0hdKVtDQEBIXTFbT0hdKW4oW2NIXW4yKWMoYzIzKW5bY0hdbmMzW05IMl0=

> <s_epik_cmdline>
J2VwaWtfYXBwJywgJy1pbWFlJywgJ2xpZ2FuZF9wcm8ubWFlJywgJy1vbWFlJywgJ2xpZ2FuZF9wcmVwLm1hZScsICctbXMnLCAnMScsICctcGgnLCAnNycsICctcGh0JywgJzAuNScsICctbnQn

> <r_lp_tautomer_probability>
0.999997216410988

> <r_epik_Ionization_Penalty>
  0.1037

> <r_epik_Ionization_Penalty_Charging>
  0.1033

> <r_epik_Ionization_Penalty_Neutral>
  0.0004

> <r_epik_State_Penalty>
  0.0922

> <r_epik_Charging_Adjusted_Penalty>
0.19546844050481

> <i_epik_Tot_Q>
-3

> <i_epik_Tot_abs_Q>
3

> <s_epik_Chemistry_Notes>
This compound contains an acetal/aminal-like group ( X-CH(R)-Y where X, Y are N, S, or O) that may be acid/base labile, releasing an aldehyde.

$$$$
