3p2h_ligand
                    3D
 Schrodinger Suite 2020-3.
 40 40  0  0  1  0            999 V2000
    0.2140   82.0400   52.3690 C   0  0  0  0  0  0
   -0.2360   83.1280   52.7140 O   0  0  0  0  0  0
   -0.6390   80.7780   52.3340 C   0  0  0  0  0  0
   -0.0970   79.5050   52.5560 C   0  0  0  0  0  0
    1.4400   79.3900   52.6220 C   0  0  0  0  0  0
    2.2210   80.4590   51.7590 C   0  0  0  0  0  0
    1.7210   81.9200   51.9800 C   0  0  0  0  0  0
   -0.8660   78.2790   52.7410 N   0  0  0  0  0  0
   -0.7680   76.9490   52.2540 C   0  0  0  0  0  0
    0.2460   76.2600   52.3080 O   0  0  0  0  0  0
   -2.0010   76.2790   51.6080 C   0  0  0  0  0  0
   -3.4030   76.9270   51.7470 C   0  0  0  0  0  0
   -4.4940   75.8230   51.6910 C   0  0  0  0  0  0
   -5.7450   76.2630   50.9100 C   0  0  0  0  0  0
   -6.8520   75.1890   50.9850 C   0  0  0  0  0  0
   -8.2570   75.8190   50.9430 C   0  0  0  0  0  0
   -9.3480   74.7560   50.7810 C   0  0  0  0  0  0
   -1.7134   80.8897   52.1261 H   0  0  0  0  0  0
    1.7729   79.5176   53.6626 H   0  0  0  0  0  0
    1.7496   78.3997   52.2568 H   0  0  0  0  0  0
    3.2889   80.4325   52.0213 H   0  0  0  0  0  0
    2.1000   80.2270   50.6906 H   0  0  0  0  0  0
    1.9018   82.4640   51.0412 H   0  0  0  0  0  0
    2.3415   82.3516   52.7792 H   0  0  0  0  0  0
   -1.7513   78.2783   53.3939 H   0  0  0  0  0  0
   -1.8509   76.2056   50.5208 H   0  0  0  0  0  0
   -2.1332   75.2713   52.0287 H   0  0  0  0  0  0
   -3.4681   77.4573   52.7085 H   0  0  0  0  0  0
   -3.5609   77.6395   50.9239 H   0  0  0  0  0  0
   -4.0858   74.9289   51.1971 H   0  0  0  0  0  0
   -4.8083   75.5659   52.7133 H   0  0  0  0  0  0
   -6.1333   77.1994   51.3370 H   0  0  0  0  0  0
   -5.4807   76.4233   49.8543 H   0  0  0  0  0  0
   -6.7542   74.5014   50.1320 H   0  0  0  0  0  0
   -6.7525   74.6247   51.9240 H   0  0  0  0  0  0
   -8.4418   76.3658   51.8794 H   0  0  0  0  0  0
   -8.3217   76.5147   50.0934 H   0  0  0  0  0  0
  -10.3338   75.2433   50.7553 H   0  0  0  0  0  0
   -9.3069   74.0562   51.6287 H   0  0  0  0  0  0
   -9.1867   74.2051   49.8426 H   0  0  0  0  0  0
  1  2  2  0  0  0
  1  3  1  0  0  0
  1  7  1  0  0  0
  3  4  2  0  0  0
  3 18  1  0  0  0
  4  5  1  0  0  0
  4  8  1  0  0  0
  5  6  1  0  0  0
  5 19  1  0  0  0
  5 20  1  0  0  0
  6  7  1  0  0  0
  6 21  1  0  0  0
  6 22  1  0  0  0
  7 23  1  0  0  0
  7 24  1  0  0  0
  8  9  1  0  0  0
  8 25  1  0  0  0
  9 10  2  0  0  0
  9 11  1  0  0  0
 11 12  1  0  0  0
 11 26  1  0  0  0
 11 27  1  0  0  0
 12 13  1  0  0  0
 12 28  1  0  0  0
 12 29  1  0  0  0
 13 14  1  0  0  0
 13 30  1  0  0  0
 13 31  1  0  0  0
 14 15  1  0  0  0
 14 32  1  0  0  0
 14 33  1  0  0  0
 15 16  1  0  0  0
 15 34  1  0  0  0
 15 35  1  0  0  0
 16 17  1  0  0  0
 16 36  1  0  0  0
 16 37  1  0  0  0
 17 38  1  0  0  0
 17 39  1  0  0  0
 17 40  1  0  0  0
M  END
> <s_m_source_file>
../3p2h_ligand.sdf

> <i_m_source_file_index>
1

> <s_epik_input>
Tz1DMVtDSF09QyhbQ0gyXVtDSDJdW0NIMl0xKVtOSF1DKD1PKVtDSDJdW0NIMl1bQ0gyXVtDSDJdW0NIMl1bQ0gyXVtDSDNd

> <s_epik_cmdline>
J2VwaWtfYXBwJywgJy1pbWFlJywgJ2xpZ2FuZF9wcm8ubWFlJywgJy1vbWFlJywgJ2xpZ2FuZF9wcmVwLm1hZScsICctbXMnLCAnMScsICctcGgnLCAnNycsICctcGh0JywgJzAuNScsICctbnQn

> <r_lp_tautomer_probability>
1

> <r_epik_Ionization_Penalty>
  0.0000

> <r_epik_Ionization_Penalty_Charging>
  0.0000

> <r_epik_Ionization_Penalty_Neutral>
  0.0000

> <r_epik_State_Penalty>
 -0.0000

> <r_epik_Charging_Adjusted_Penalty>
0

> <i_epik_Tot_Q>
0

> <i_epik_Tot_abs_Q>
0

$$$$
