3p2k_ligand
                    3D
 Schrodinger Suite 2020-3.
 50 52  0  0  1  0            999 V2000
    9.6750   -5.6230    2.9260 N   0  3  0  0  0  0
    9.6010   -4.8190    1.6890 C   0  0  2  0  0  0
   10.9750   -4.4130    1.2720 C   0  0  0  0  0  0
   11.9340   -4.6880    2.0130 O   0  5  0  0  0  0
   11.1170   -3.7580    0.2320 O   0  0  0  0  0  0
    9.0650   -3.4510    1.9950 C   0  0  0  0  0  0
    8.2430   -3.2970    3.2430 C   0  0  0  0  0  0
    7.4900   -1.6460    3.1610 S   0  0  2  0  0  0
    8.8630   -0.6120    3.7110 C   0  0  0  0  0  0
    6.7190   -1.8550    4.7660 C   0  0  0  0  0  0
    5.8630   -3.0910    4.6040 C   0  0  1  0  0  0
    5.6730   -3.6010    5.8940 O   0  0  0  0  0  0
    4.4910   -2.7280    4.0330 C   0  0  1  0  0  0
    4.1530   -3.5090    2.9020 O   0  0  0  0  0  0
    3.5100   -3.0430    5.1370 C   0  0  1  0  0  0
    2.4540   -3.7810    4.5880 O   0  0  0  0  0  0
    4.3210   -3.9890    5.9750 C   0  0  2  0  0  0
    3.8530   -4.0820    7.3460 N   0  0  0  0  0  0
    3.8330   -3.1450    8.3340 C   0  0  0  0  0  0
    3.2990   -3.7260    9.4600 N   0  0  0  0  0  0
    2.9980   -5.0240    9.1770 C   0  0  0  0  0  0
    2.4620   -6.0640    9.9240 C   0  0  0  0  0  0
    2.1240   -5.8990   11.2020 N   0  0  0  0  0  0
    2.2770   -7.2950    9.3420 N   0  0  0  0  0  0
    2.6320   -7.4950    8.0240 C   0  0  0  0  0  0
    3.1700   -6.4640    7.2750 N   0  0  0  0  0  0
    3.3540   -5.2530    7.8530 C   0  0  0  0  0  0
   10.0687   -6.6228    2.6905 H   0  0  0  0  0  0
    8.6696   -5.7182    3.3621 H   0  0  0  0  0  0
   10.3417   -5.1267    3.6465 H   0  0  0  0  0  0
    9.0257   -5.4309    0.9787 H   0  0  0  0  0  0
    9.9018   -2.7458    2.1066 H   0  0  0  0  0  0
    8.4138   -3.1199    1.1726 H   0  0  0  0  0  0
    7.4716   -4.0806    3.2730 H   0  0  0  0  0  0
    8.8942   -3.3896    4.1247 H   0  0  0  0  0  0
    9.4950   -0.3526    2.8488 H   0  0  0  0  0  0
    9.4617   -1.1614    4.4524 H   0  0  0  0  0  0
    8.4692    0.3083    4.1670 H   0  0  0  0  0  0
    7.4972   -1.9878    5.5321 H   0  0  0  0  0  0
    6.1190   -0.9641    5.0034 H   0  0  0  0  0  0
    6.3581   -3.8547    3.9862 H   0  0  0  0  0  0
    4.4536   -1.6979    3.6489 H   0  0  0  0  0  0
    4.7487   -3.4294    1.9807 H   0  0  0  0  0  0
    3.0487   -2.1849    5.6478 H   0  0  0  0  0  0
    1.7220   -3.2885    3.9311 H   0  0  0  0  0  0
    4.2603   -5.0210    5.5991 H   0  0  0  0  0  0
    4.1795   -2.1152    8.2474 H   0  0  0  0  0  0
    2.2643   -4.9213   11.6862 H   0  0  0  0  0  0
    1.7046   -6.7404   11.7730 H   0  0  0  0  0  0
    2.4872   -8.4746    7.5686 H   0  0  0  0  0  0
  1  2  1  0  0  0
  1 28  1  0  0  0
  1 29  1  0  0  0
  1 30  1  0  0  0
  2  3  1  0  0  0
  2  6  1  0  0  0
  2 31  1  0  0  0
  3  4  1  0  0  0
  3  5  2  0  0  0
  6  7  1  0  0  0
  6 32  1  0  0  0
  6 33  1  0  0  0
  7  8  1  0  0  0
  7 34  1  0  0  0
  7 35  1  0  0  0
  8  9  1  0  0  0
  8 10  1  0  0  0
  9 36  1  0  0  0
  9 37  1  0  0  0
  9 38  1  0  0  0
 10 11  1  0  0  0
 10 39  1  0  0  0
 10 40  1  0  0  0
 11 12  1  0  0  0
 11 13  1  0  0  0
 11 41  1  0  0  0
 12 17  1  0  0  0
 13 14  1  0  0  0
 13 15  1  0  0  0
 13 42  1  0  0  0
 14 43  1  0  0  0
 15 16  1  0  0  0
 15 17  1  0  0  0
 15 44  1  0  0  0
 16 45  1  0  0  0
 17 18  1  0  0  0
 17 46  1  0  0  0
 18 19  1  0  0  0
 18 27  1  0  0  0
 19 20  2  0  0  0
 19 47  1  0  0  0
 20 21  1  0  0  0
 21 22  2  0  0  0
 21 27  1  0  0  0
 22 23  1  0  0  0
 22 24  1  0  0  0
 23 48  1  0  0  0
 23 49  1  0  0  0
 24 25  2  0  0  0
 25 26  1  0  0  0
 25 50  1  0  0  0
 26 27  2  0  0  0
M  CHG  2   1   1   4  -1
M  END
> <s_m_source_file>
../3p2k_ligand.sdf

> <i_m_source_file_index>
1

> <s_epik_input>
W09IXUMoPU8pW0NAQEhdKFtOSDMrXSlbQ0gyXVtDSDJdW1NASF0oW0NIM10pW0NIMl1bQ0BIXTFPW0NASF0oW0NASF0oW09IXSlbQ0BASF0xW09IXSluKFtjSF1uMiljKGMyMyluW2NIXW5jM1tOSDJd

> <s_epik_cmdline>
J2VwaWtfYXBwJywgJy1pbWFlJywgJ2xpZ2FuZF9wcm8ubWFlJywgJy1vbWFlJywgJ2xpZ2FuZF9wcmVwLm1hZScsICctbXMnLCAnMScsICctcGgnLCAnNycsICctcGh0JywgJzAuNScsICctbnQn

> <r_lp_tautomer_probability>
1

> <r_epik_Ionization_Penalty>
  0.0015

> <r_epik_Ionization_Penalty_Charging>
  0.0011

> <r_epik_Ionization_Penalty_Neutral>
  0.0004

> <r_epik_State_Penalty>
 -0.0000

> <r_epik_Charging_Adjusted_Penalty>
0.00106610994672706

> <i_epik_Tot_Q>
0

> <i_epik_Tot_abs_Q>
2

> <s_epik_Chemistry_Notes>
This compound contains an acetal/aminal-like group ( X-CH(R)-Y where X, Y are N, S, or O) that may be acid/base labile, releasing an aldehyde.

$$$$
