3p3h_ligand
                    3D
 Schrodinger Suite 2020-3.
 35 45  0  0  1  0            999 V2000
   15.0790    6.3660   15.1080 C   0  0  0  0  0  0
   14.9490    5.2840   15.9790 C   0  0  0  0  0  0
   15.5330    4.0560   15.6660 C   0  0  0  0  0  0
   16.1580    3.8810   14.4300 C   0  0  0  0  0  0
   16.2640    4.9660   13.5560 C   0  0  0  0  0  0
   15.7340    6.2270   13.8860 C   0  0  0  0  0  0
   15.2760    2.7560   16.7890 S   0  0  0  0  0  0
   13.7800    2.7740   16.8210 O   0  0  0  0  0  0
   15.8910    3.0060   18.0960 O   0  0  0  0  0  0
   15.8270    1.4140   16.1750 N   0  0  0  0  0  0
   15.8070    7.2890   13.0530 N   0  0  0  0  0  0
   16.9080    7.8420   12.5600 C   0  0  0  0  0  0
   16.4690    8.8310   11.7840 C   0  0  0  0  0  0
   19.1470   10.8100   13.2560 C   0  0  0  0  0  0
   15.1330    8.7920   11.8540 N   0  0  0  0  0  0
   19.2470   10.4910   14.5470 C   0  0  0  0  0  0
   14.8040    7.8680   12.6100 N   0  0  0  0  0  0
   20.5080   10.1510   14.7870 C   0  0  0  0  0  0
   21.1900   10.2510   13.6460 C   0  0  0  0  0  0
   20.3460   10.6590   12.7000 C   0  0  0  0  0  0
   18.2260    7.4690   12.8190 C   0  0  0  0  0  0
   18.7280    7.1650   14.0150 C   0  0  0  0  0  0
   20.0100    6.8450   13.8610 C   0  0  0  0  0  0
   20.3070    6.9430   12.5640 C   0  0  0  0  0  0
   19.2020    7.3200   11.9220 C   0  0  2  0  0  0
   19.7170    8.7600   13.4940 Fe  0  0  0  0  0  0
   14.6623    7.3337   15.3873 H   0  0  0  0  0  0
   14.3893    5.3983   16.9073 H   0  0  0  0  0  0
   16.5595    2.9072   14.1494 H   0  0  0  0  0  0
   16.7677    4.8328   12.5986 H   0  0  0  0  0  0
   15.6640    0.5911   16.8866 H   0  0  0  0  0  0
   16.9036    1.5174   15.9744 H   0  0  0  0  0  0
   17.0750    9.5307   11.2083 H   0  0  0  0  0  0
   20.6740   11.3777   11.9346 H   0  0  0  0  0  0
   18.9937    6.9279   10.9156 H   0  0  0  0  0  0
  1  2  2  0  0  0
  1  6  1  0  0  0
  1 27  1  0  0  0
  2  3  1  0  0  0
  2 28  1  0  0  0
  3  4  2  0  0  0
  3  7  1  0  0  0
  4  5  1  0  0  0
  4 29  1  0  0  0
  5  6  2  0  0  0
  5 30  1  0  0  0
  6 11  1  0  0  0
  7  8  2  0  0  0
  7  9  2  0  0  0
  7 10  1  0  0  0
 10 31  1  0  0  0
 10 32  1  0  0  0
 11 12  1  0  0  0
 11 17  1  0  0  0
 12 13  2  0  0  0
 12 21  1  0  0  0
 13 15  1  0  0  0
 13 33  1  0  0  0
 14 16  2  0  0  0
 14 20  1  0  0  0
 14 26  1  0  0  0
 15 17  2  0  0  0
 16 18  1  0  0  0
 16 26  1  0  0  0
 18 19  2  0  0  0
 18 26  1  0  0  0
 19 20  1  0  0  0
 19 26  1  0  0  0
 20 26  1  0  0  0
 20 34  1  0  0  0
 21 22  2  0  0  0
 21 25  1  0  0  0
 22 23  1  0  0  0
 22 26  1  0  0  0
 23 24  2  0  0  0
 23 26  1  0  0  0
 24 25  1  0  0  0
 24 26  1  0  0  0
 25 26  1  0  0  0
 25 35  1  0  0  0
M  END
> <s_m_source_file>
../3p3h_ligand.sdf

> <i_m_source_file_index>
1

> <s_epik_input>
Tz1TKD1PKShbTkgyXSljMVtjSF1bY0hdYyhbY0hdW2NIXTEpLW4yYyhbY0hdbm4yKUM9M1tDQEBIXTRDNT1DNkMzW0ZlXTE0NTY3ODlDMj1DN0M4PUM5W0NIXTEy

> <s_epik_cmdline>
J2VwaWtfYXBwJywgJy1pbWFlJywgJ2xpZ2FuZF9wcm8ubWFlJywgJy1vbWFlJywgJ2xpZ2FuZF9wcmVwLm1hZScsICctbXMnLCAnMScsICctcGgnLCAnNycsICctcGh0JywgJzAuNScsICctbnQn

> <r_lp_tautomer_probability>
1

> <r_epik_Ionization_Penalty>
  0.0035

> <r_epik_Ionization_Penalty_Charging>
  0.0000

> <r_epik_Ionization_Penalty_Neutral>
  0.0035

> <r_epik_State_Penalty>
 -0.0000

> <r_epik_Charging_Adjusted_Penalty>
0

> <i_epik_Tot_Q>
0

> <i_epik_Tot_abs_Q>
0

$$$$
