3p3r_ligand
                    3D
 Schrodinger Suite 2020-3.
 27 28  0  0  1  0            999 V2000
   -1.2280    1.4440   -8.0960 O   0  0  0  0  0  0
   -1.8900    1.6250   -2.6190 O   0  5  0  0  0  0
    1.7500   -1.6200   -3.8200 O   0  0  0  0  0  0
    0.0430    0.0010   -2.2860 O   0  5  0  0  0  0
   -2.5760    2.1570   -4.7620 O   0  0  0  0  0  0
    0.2550    1.0800  -10.3730 F   0  0  0  0  0  0
    0.4790   -2.5440  -10.6670 C   0  0  0  0  0  0
   -0.0420   -2.8650   -9.4430 C   0  0  0  0  0  0
    0.5520   -1.1990  -10.9790 C   0  0  0  0  0  0
   -0.3910   -1.9290   -8.4910 C   0  0  0  0  0  0
    0.7340   -0.7320   -5.8370 C   0  0  0  0  0  0
   -0.9750    0.8440   -5.6470 C   0  0  0  0  0  0
   -0.6120    0.4150   -7.7900 C   0  0  0  0  0  0
    0.8540   -0.8080   -4.4170 C   0  0  0  0  0  0
    0.1660   -0.2040  -10.0550 C   0  0  0  0  0  0
    0.0260   -0.0210   -3.6480 C   0  0  0  0  0  0
   -0.2190    0.1260   -6.3760 C   0  0  0  0  0  0
   -0.2700   -0.5900   -8.7930 C   0  0  0  0  0  0
   -0.8520    0.7840   -4.3220 C   0  0  0  0  0  0
   -1.7180    1.5600   -3.8730 N   0  3  0  0  0  0
    2.4133   -2.2503   -4.4305 H   0  0  0  0  0  0
    0.8198   -3.3113  -11.3621 H   0  0  0  0  0  0
   -0.1895   -3.9188   -9.2069 H   0  0  0  0  0  0
    0.9163   -0.8998  -11.9618 H   0  0  0  0  0  0
   -0.7572   -2.2444   -7.5140 H   0  0  0  0  0  0
    1.3740   -1.3321   -6.4839 H   0  0  0  0  0  0
   -1.7158    1.5015   -6.1020 H   0  0  0  0  0  0
  1 13  2  0  0  0
  2 20  1  0  0  0
  3 14  1  0  0  0
  3 21  1  0  0  0
  4 16  1  0  0  0
  5 20  2  0  0  0
  6 15  1  0  0  0
  7  8  2  0  0  0
  7  9  1  0  0  0
  7 22  1  0  0  0
  8 10  1  0  0  0
  8 23  1  0  0  0
  9 15  2  0  0  0
  9 24  1  0  0  0
 10 18  2  0  0  0
 10 25  1  0  0  0
 11 14  2  0  0  0
 11 17  1  0  0  0
 11 26  1  0  0  0
 12 17  2  0  0  0
 12 19  1  0  0  0
 12 27  1  0  0  0
 13 17  1  0  0  0
 13 18  1  0  0  0
 14 16  1  0  0  0
 15 18  1  0  0  0
 16 19  2  0  0  0
 19 20  1  0  0  0
M  CHG  3   2  -1   4  -1  20   1
M  END
> <s_m_source_file>
../3p3r_ligand.sdf

> <i_m_source_file_index>
1

> <s_epik_input>
W08tXVtOK10oPU8pYyhjMVtPSF0pW2NIXWMoW2NIXWMxW09IXSlDKD1PKWMyW2NIXVtjSF1bY0hdW2NIXWMyRg==

> <s_epik_cmdline>
J2VwaWtfYXBwJywgJy1pbWFlJywgJ2xpZ2FuZF9wcm8ubWFlJywgJy1vbWFlJywgJ2xpZ2FuZF9wcmVwLm1hZScsICctbXMnLCAnMScsICctcGgnLCAnNycsICctcGh0JywgJzAuNScsICctbnQn

> <r_lp_tautomer_probability>
1

> <r_epik_Ionization_Penalty>
  0.0549

> <r_epik_Ionization_Penalty_Charging>
  0.0543

> <r_epik_Ionization_Penalty_Neutral>
  0.0006

> <r_epik_State_Penalty>
 -0.0000

> <r_epik_Charging_Adjusted_Penalty>
0.0542791024222093

> <i_epik_Tot_Q>
-1

> <i_epik_Tot_abs_Q>
3

$$$$
