3p44_ligand
                    3D
 Schrodinger Suite 2020-3.
 35 45  0  0  1  0            999 V2000
   17.3150    8.5670   12.2170 N   0  0  0  0  0  0
   16.7120    7.7070   12.8610 N   0  0  0  0  0  0
   17.8710    5.0970   14.7890 C   0  0  0  0  0  0
   17.4060    4.0510   15.5790 C   0  0  0  0  0  0
   13.9940    2.7550   17.0240 O   0  0  0  0  0  0
   18.5770    8.5090   12.6240 C   0  0  0  0  0  0
   17.4590    7.1090   13.6400 N   0  0  0  0  0  0
   17.0120    6.1200   14.4080 C   0  0  0  0  0  0
   16.0770    4.0270   15.9850 C   0  0  0  0  0  0
   15.4920    2.7100   16.9770 S   0  0  0  0  0  0
   15.9730    1.2920   16.3350 N   0  0  0  0  0  0
   18.7020    7.5770   13.5590 C   0  0  0  0  0  0
   15.6850    6.1000   14.8220 C   0  0  0  0  0  0
   15.2180    5.0530   15.6090 C   0  0  0  0  0  0
   16.0360    2.8430   18.3680 O   0  0  0  0  0  0
   19.5710    9.2490   12.1390 C   0  0  0  0  0  0
   20.8660    9.0870   12.3960 C   0  0  0  0  0  0
   21.5410    9.9850   11.6830 C   0  0  0  0  0  0
   20.6640   10.7020   10.9870 C   0  0  0  0  0  0
   19.4460   10.2480   11.2690 C   0  0  2  0  0  0
   19.3000   11.8430   15.1500 C   0  0  0  0  0  0
   19.1780   12.8410   14.2800 C   0  0  0  0  0  0
   20.3980   13.2920   14.0010 C   0  0  0  0  0  0
   21.2730   12.5730   14.6980 C   0  0  0  0  0  0
   20.5940   11.6760   15.4080 C   0  0  0  0  0  0
   20.2830   11.1500   13.2000 Ru  0  0  0  0  0  0
   18.9125    5.1141   14.4679 H   0  0  0  0  0  0
   18.0829    3.2512   15.8793 H   0  0  0  0  0  0
   15.6053    0.4637   16.9585 H   0  0  0  0  0  0
   17.0719    1.2614   16.2954 H   0  0  0  0  0  0
   19.5893    7.2740   14.1148 H   0  0  0  0  0  0
   15.0107    6.9050   14.5297 H   0  0  0  0  0  0
   14.1769    5.0369   15.9315 H   0  0  0  0  0  0
   18.7303   10.1308   10.4420 H   0  0  0  0  0  0
   20.8979   11.4994   16.4503 H   0  0  0  0  0  0
  1  2  2  0  0  0
  1  6  1  0  0  0
  2  7  1  0  0  0
  3  4  2  0  0  0
  3  8  1  0  0  0
  3 27  1  0  0  0
  4  9  1  0  0  0
  4 28  1  0  0  0
  5 10  2  0  0  0
  6 12  2  0  0  0
  6 16  1  0  0  0
  7  8  1  0  0  0
  7 12  1  0  0  0
  8 13  2  0  0  0
  9 10  1  0  0  0
  9 14  2  0  0  0
 10 11  1  0  0  0
 10 15  2  0  0  0
 11 29  1  0  0  0
 11 30  1  0  0  0
 12 31  1  0  0  0
 13 14  1  0  0  0
 13 32  1  0  0  0
 14 33  1  0  0  0
 16 17  2  0  0  0
 16 20  1  0  0  0
 17 18  1  0  0  0
 17 26  1  0  0  0
 18 19  2  0  0  0
 18 26  1  0  0  0
 19 20  1  0  0  0
 19 26  1  0  0  0
 20 26  1  0  0  0
 20 34  1  0  0  0
 21 22  2  0  0  0
 21 25  1  0  0  0
 21 26  1  0  0  0
 22 23  1  0  0  0
 22 26  1  0  0  0
 23 24  2  0  0  0
 23 26  1  0  0  0
 24 25  1  0  0  0
 24 26  1  0  0  0
 25 26  1  0  0  0
 25 35  1  0  0  0
M  END
> <s_m_source_file>
../3p44_ligand.sdf

> <i_m_source_file_index>
1

> <s_epik_input>
Tz1TKD1PKShbTkgyXSljKFtjSF1bY0hdMSlbY0hdW2NIXWMxLW4oW2NIXTIpbm5jMkM9M1tDQEBIXTRDNT1DNkMzW1J1XTE0NTY3ODlDMj1DN0M4PUM5W0NIXTEy

> <s_epik_cmdline>
J2VwaWtfYXBwJywgJy1pbWFlJywgJ2xpZ2FuZF9wcm8ubWFlJywgJy1vbWFlJywgJ2xpZ2FuZF9wcmVwLm1hZScsICctbXMnLCAnMScsICctcGgnLCAnNycsICctcGh0JywgJzAuNScsICctbnQn

> <r_lp_tautomer_probability>
1

> <r_epik_Ionization_Penalty>
  0.0090

> <r_epik_Ionization_Penalty_Charging>
  0.0000

> <r_epik_Ionization_Penalty_Neutral>
  0.0090

> <r_epik_State_Penalty>
 -0.0000

> <r_epik_Charging_Adjusted_Penalty>
0

> <i_epik_Tot_Q>
0

> <i_epik_Tot_abs_Q>
0

$$$$
