3p4f_ligand
                    3D
 Schrodinger Suite 2020-3.
139139  0  0  1  0            999 V2000
    1.5880  -22.8730    7.7760 N   0  3  0  0  0  0
    2.6180  -23.8200    7.3370 C   0  0  2  0  0  0
    3.5970  -23.1230    6.3710 C   0  0  0  0  0  0
    3.3190  -23.0220    5.1730 O   0  0  0  0  0  0
    1.9850  -25.0710    6.6880 C   0  0  0  0  0  0
    1.1560  -25.9330    7.6320 C   0  0  0  0  0  0
    0.0510  -26.7720    7.0070 C   0  0  0  0  0  0
   -0.2390  -26.6010    5.8000 O   0  5  0  0  0  0
   -0.5550  -27.5800    7.7470 O   0  0  0  0  0  0
    4.7360  -22.6350    6.9090 N   0  0  0  0  0  0
    5.7610  -21.9030    6.1520 C   0  0  2  0  0  0
    6.5330  -22.7300    5.1270 C   0  0  0  0  0  0
    7.0280  -23.8140    5.4370 O   0  0  0  0  0  0
    6.7150  -21.1310    7.0790 C   0  0  0  0  0  0
    6.0790  -19.9030    7.7220 C   0  0  0  0  0  0
    6.8940  -18.6210    7.6780 C   0  0  0  0  0  0
    6.3050  -17.5440    7.9270 O   0  0  0  0  0  0
    8.1130  -18.6860    7.3950 O   0  5  0  0  0  0
    6.6300  -22.1900    3.9030 N   0  0  0  0  0  0
    7.3130  -22.7550    2.7340 C   0  0  2  0  0  0
    8.6350  -21.9770    2.4880 C   0  0  0  0  0  0
    8.6400  -20.7500    2.5110 O   0  0  0  0  0  0
    6.3620  -22.6930    1.5040 C   0  0  0  0  0  0
    7.0000  -23.3000    0.2690 C   0  0  0  0  0  0
    5.0390  -23.3840    1.7950 C   0  0  0  0  0  0
    9.7460  -22.6880    2.2960 N   0  0  0  0  0  0
   11.0350  -22.0580    2.0030 C   0  0  2  0  0  0
   11.2960  -22.1930    0.4980 C   0  0  0  0  0  0
   11.6880  -23.2510    0.0000 O   0  0  0  0  0  0
   12.1880  -22.6500    2.8450 C   0  0  0  0  0  0
   13.4930  -21.8540    2.7890 C   0  0  0  0  0  0
   13.7860  -21.2430    1.7200 O   0  5  0  0  0  0
   14.2420  -21.8690    3.7930 O   0  0  0  0  0  0
   11.0680  -21.0920   -0.2050 N   0  0  0  0  0  0
   11.1550  -20.9640   -1.6460 C   0  0  2  0  0  0
   12.5610  -20.5870   -2.1860 C   0  0  0  0  0  0
   12.8320  -20.8030   -3.3630 O   0  0  0  0  0  0
    9.9980  -20.0120   -2.0530 C   0  0  0  0  0  0
   10.4440  -18.8210   -2.8920 C   0  0  0  0  0  0
    8.8550  -20.7750   -2.6900 C   0  0  0  0  0  0
   13.4670  -20.1060   -1.3070 N   0  0  0  0  0  0
   14.8110  -19.6190   -1.6620 C   0  0  2  0  0  0
   15.9910  -20.5160   -1.2760 C   0  0  0  0  0  0
   17.0360  -20.4810   -1.9570 O   0  0  0  0  0  0
   15.0430  -18.2530   -1.0000 C   0  0  2  0  0  0
   14.7560  -18.3540    0.4070 O   0  0  0  0  0  0
   14.2100  -17.1680   -1.6200 C   0  0  0  0  0  0
   15.8660  -21.2440   -0.1460 N   0  0  0  0  0  0
   16.9820  -22.0540    0.3370 C   0  0  2  0  0  0
   17.2890  -23.2680   -0.4840 C   0  0  0  0  0  0
   16.4450  -24.1610   -0.6710 O   0  0  0  0  0  0
   16.8550  -22.4200    1.8110 C   0  0  0  0  0  0
   16.5980  -21.2770    2.6090 O   0  0  0  0  0  0
   18.5390  -23.2820   -0.9580 N   0  0  0  0  0  0
   19.1440  -24.3560   -1.7100 C   0  0  2  0  0  0
   19.6950  -25.3570   -0.6800 C   0  0  0  0  0  0
   20.3000  -24.9450    0.3110 O   0  0  0  0  0  0
   20.2550  -23.7740   -2.6090 C   0  0  0  0  0  0
   20.9690  -24.8580   -3.4030 C   0  0  0  0  0  0
   19.6950  -22.7060   -3.5370 C   0  0  0  0  0  0
   19.4610  -26.6640   -0.9150 N   0  0  0  0  0  0
   19.9650  -27.7850   -0.1180 C   0  0  2  0  0  0
   19.8350  -29.1180   -0.8570 C   0  0  0  0  0  0
   20.7300  -29.9760   -0.6830 O   0  0  0  0  0  0
   19.3930  -27.8530    1.3110 C   0  0  0  0  0  0
   17.9000  -28.0400    1.4220 C   0  0  0  0  0  0
   17.3350  -29.3150    1.4210 C   0  0  0  0  0  0
   17.0620  -26.9570    1.6730 C   0  0  0  0  0  0
   15.9630  -29.5000    1.5820 C   0  0  0  0  0  0
   15.6900  -27.1300    1.8630 C   0  0  0  0  0  0
   15.1430  -28.4030    1.8010 C   0  0  0  0  0  0
   13.7880  -28.5720    1.9540 O   0  0  0  0  0  0
   18.8780  -29.2660   -1.6530 O   0  5  0  0  0  0
    2.0680  -21.9949    8.2328 H   0  0  0  0  0  0
    0.9339  -23.3591    8.5148 H   0  0  0  0  0  0
    0.9895  -22.5546    6.9097 H   0  0  0  0  0  0
    3.1493  -24.1253    8.2505 H   0  0  0  0  0  0
    1.3152  -24.7616    5.8721 H   0  0  0  0  0  0
    2.7792  -25.7169    6.2854 H   0  0  0  0  0  0
    1.8137  -26.6469    8.1494 H   0  0  0  0  0  0
    0.6575  -25.2905    8.3727 H   0  0  0  0  0  0
    4.8716  -22.8158    7.9855 H   0  0  0  0  0  0
    5.1406  -21.2065    5.5688 H   0  0  0  0  0  0
    7.0504  -21.7915    7.8922 H   0  0  0  0  0  0
    7.5867  -20.7865    6.5033 H   0  0  0  0  0  0
    5.1292  -19.6748    7.2163 H   0  0  0  0  0  0
    5.8886  -20.1037    8.7866 H   0  0  0  0  0  0
    6.1229  -21.2169    3.8266 H   0  0  0  0  0  0
    7.5462  -23.8052    2.9635 H   0  0  0  0  0  0
    6.1552  -21.6357    1.2817 H   0  0  0  0  0  0
    7.9560  -22.7956    0.0646 H   0  0  0  0  0  0
    6.3269  -23.1726   -0.5916 H   0  0  0  0  0  0
    7.1798  -24.3719    0.4384 H   0  0  0  0  0  0
    4.5823  -22.9390    2.6913 H   0  0  0  0  0  0
    5.2154  -24.4560    1.9671 H   0  0  0  0  0  0
    4.3624  -23.2568    0.9371 H   0  0  0  0  0  0
    9.6720  -23.7834    2.3640 H   0  0  0  0  0  0
   10.9376  -21.0009    2.2912 H   0  0  0  0  0  0
   11.8860  -22.6922    3.9019 H   0  0  0  0  0  0
   12.4186  -23.6648    2.4888 H   0  0  0  0  0  0
   10.7903  -20.2223    0.4086 H   0  0  0  0  0  0
   11.0188  -21.9735   -2.0612 H   0  0  0  0  0  0
    9.6015  -19.5604   -1.1317 H   0  0  0  0  0  0
   11.2726  -18.3050   -2.3849 H   0  0  0  0  0  0
    9.6013  -18.1253   -3.0182 H   0  0  0  0  0  0
   10.7800  -19.1728   -3.8786 H   0  0  0  0  0  0
    8.5742  -21.6207   -2.0450 H   0  0  0  0  0  0
    9.1697  -21.1529   -3.6739 H   0  0  0  0  0  0
    7.9910  -20.1055   -2.8136 H   0  0  0  0  0  0
   13.1371  -20.0942   -0.2577 H   0  0  0  0  0  0
   14.7578  -19.6049   -2.7606 H   0  0  0  0  0  0
   16.0974  -17.9551   -1.0975 H   0  0  0  0  0  0
   15.2785  -19.1010    1.0227 H   0  0  0  0  0  0
   14.4373  -17.0998   -2.6941 H   0  0  0  0  0  0
   14.4389  -16.2076   -1.1350 H   0  0  0  0  0  0
   13.1437  -17.4020   -1.4850 H   0  0  0  0  0  0
   14.9181  -21.2253    0.4118 H   0  0  0  0  0  0
   17.8233  -21.3619    0.1842 H   0  0  0  0  0  0
   16.0254  -23.1303    1.9423 H   0  0  0  0  0  0
   17.7916  -22.8824    2.1560 H   0  0  0  0  0  0
   16.4809  -21.3814    3.6978 H   0  0  0  0  0  0
   19.1187  -22.3752   -0.7306 H   0  0  0  0  0  0
   18.3816  -24.8284   -2.3469 H   0  0  0  0  0  0
   21.0087  -23.3030   -1.9608 H   0  0  0  0  0  0
   21.3647  -25.6176   -2.7128 H   0  0  0  0  0  0
   21.7983  -24.4107   -3.9706 H   0  0  0  0  0  0
   20.2601  -25.3293   -4.0996 H   0  0  0  0  0  0
   19.1843  -21.9345   -2.9421 H   0  0  0  0  0  0
   18.9788  -23.1651   -4.2344 H   0  0  0  0  0  0
   20.5171  -22.2464   -4.1054 H   0  0  0  0  0  0
   18.8298  -26.8550   -1.7954 H   0  0  0  0  0  0
   21.0325  -27.5372   -0.0233 H   0  0  0  0  0  0
   19.8458  -28.7000    1.8473 H   0  0  0  0  0  0
   19.6222  -26.9177    1.8426 H   0  0  0  0  0  0
   17.9795  -30.1845    1.2917 H   0  0  0  0  0  0
   17.4857  -25.9539    1.7221 H   0  0  0  0  0  0
   15.5364  -30.5020    1.5360 H   0  0  0  0  0  0
   15.0515  -26.2686    2.0592 H   0  0  0  0  0  0
   13.3505  -29.5801    1.9054 H   0  0  0  0  0  0
  1  2  1  0  0  0
  1 74  1  0  0  0
  1 75  1  0  0  0
  1 76  1  0  0  0
  2  3  1  0  0  0
  2  5  1  0  0  0
  2 77  1  0  0  0
  3  4  2  0  0  0
  3 10  1  0  0  0
  5  6  1  0  0  0
  5 78  1  0  0  0
  5 79  1  0  0  0
  6  7  1  0  0  0
  6 80  1  0  0  0
  6 81  1  0  0  0
  7  8  1  0  0  0
  7  9  2  0  0  0
 10 11  1  0  0  0
 10 82  1  0  0  0
 11 12  1  0  0  0
 11 14  1  0  0  0
 11 83  1  0  0  0
 12 13  2  0  0  0
 12 19  1  0  0  0
 14 15  1  0  0  0
 14 84  1  0  0  0
 14 85  1  0  0  0
 15 16  1  0  0  0
 15 86  1  0  0  0
 15 87  1  0  0  0
 16 17  2  0  0  0
 16 18  1  0  0  0
 19 20  1  0  0  0
 19 88  1  0  0  0
 20 21  1  0  0  0
 20 23  1  0  0  0
 20 89  1  0  0  0
 21 22  2  0  0  0
 21 26  1  0  0  0
 23 24  1  0  0  0
 23 25  1  0  0  0
 23 90  1  0  0  0
 24 91  1  0  0  0
 24 92  1  0  0  0
 24 93  1  0  0  0
 25 94  1  0  0  0
 25 95  1  0  0  0
 25 96  1  0  0  0
 26 27  1  0  0  0
 26 97  1  0  0  0
 27 28  1  0  0  0
 27 30  1  0  0  0
 27 98  1  0  0  0
 28 29  2  0  0  0
 28 34  1  0  0  0
 30 31  1  0  0  0
 30 99  1  0  0  0
 30100  1  0  0  0
 31 32  1  0  0  0
 31 33  2  0  0  0
 34 35  1  0  0  0
 34101  1  0  0  0
 35 36  1  0  0  0
 35 38  1  0  0  0
 35102  1  0  0  0
 36 37  2  0  0  0
 36 41  1  0  0  0
 38 39  1  0  0  0
 38 40  1  0  0  0
 38103  1  0  0  0
 39104  1  0  0  0
 39105  1  0  0  0
 39106  1  0  0  0
 40107  1  0  0  0
 40108  1  0  0  0
 40109  1  0  0  0
 41 42  1  0  0  0
 41110  1  0  0  0
 42 43  1  0  0  0
 42 45  1  0  0  0
 42111  1  0  0  0
 43 44  2  0  0  0
 43 48  1  0  0  0
 45 46  1  0  0  0
 45 47  1  0  0  0
 45112  1  0  0  0
 46113  1  0  0  0
 47114  1  0  0  0
 47115  1  0  0  0
 47116  1  0  0  0
 48 49  1  0  0  0
 48117  1  0  0  0
 49 50  1  0  0  0
 49 52  1  0  0  0
 49118  1  0  0  0
 50 51  2  0  0  0
 50 54  1  0  0  0
 52 53  1  0  0  0
 52119  1  0  0  0
 52120  1  0  0  0
 53121  1  0  0  0
 54 55  1  0  0  0
 54122  1  0  0  0
 55 56  1  0  0  0
 55 58  1  0  0  0
 55123  1  0  0  0
 56 57  2  0  0  0
 56 61  1  0  0  0
 58 59  1  0  0  0
 58 60  1  0  0  0
 58124  1  0  0  0
 59125  1  0  0  0
 59126  1  0  0  0
 59127  1  0  0  0
 60128  1  0  0  0
 60129  1  0  0  0
 60130  1  0  0  0
 61 62  1  0  0  0
 61131  1  0  0  0
 62 63  1  0  0  0
 62 65  1  0  0  0
 62132  1  0  0  0
 63 64  2  0  0  0
 63 73  1  0  0  0
 65 66  1  0  0  0
 65133  1  0  0  0
 65134  1  0  0  0
 66 67  2  0  0  0
 66 68  1  0  0  0
 67 69  1  0  0  0
 67135  1  0  0  0
 68 70  2  0  0  0
 68136  1  0  0  0
 69 71  2  0  0  0
 69137  1  0  0  0
 70 71  1  0  0  0
 70138  1  0  0  0
 71 72  1  0  0  0
 72139  1  0  0  0
M  CHG  5   1   1   8  -1  18  -1  32  -1  73  -1
M  END
> <s_m_source_file>
../3p4f_ligand.sdf

> <i_m_source_file_index>
1

> <s_epik_input>
W09IXUMoPU8pW0NIMl1bQ0gyXVtDQEhdKFtOSDMrXSlDKD1PKVtOSF1bQ0BASF0oW0NIMl1bQ0gyXUMoPU8pW09IXSlDKD1PKVtOSF1bQ0BASF0oW0NIXShbQ0gzXSlbQ0gzXSlDKD1PKVtOSF1bQ0BASF0oW0NIMl1DKD1PKVtPSF0pQyg9TylbTkhdW0NAQEhdKFtDSF0oW0NIM10pW0NIM10pQyg9TylbTkhdW0NAQEhdKFtDQEhdKFtPSF0pW0NIM10pQyg9TylbTkhdW0NAQEhdKFtDSDJdW09IXSlDKD1PKVtOSF1bQ0BASF0oW0NIXShbQ0gzXSlbQ0gzXSlDKD1PKVtOSF1bQ0BIXShDKD1PKVtPSF0pW0NIMl1jMVtjSF1bY0hdYyhbT0hdKVtjSF1bY0hdMQ==

> <s_epik_cmdline>
J2VwaWtfYXBwJywgJy1pbWFlJywgJ2xpZ2FuZF9wcm8ubWFlJywgJy1vbWFlJywgJ2xpZ2FuZF9wcmVwLm1hZScsICctbXMnLCAnMScsICctcGgnLCAnNycsICctcGh0JywgJzAuNScsICctbnQn

> <r_lp_tautomer_probability>
0.999999999997365

> <r_epik_Ionization_Penalty>
  0.0776

> <r_epik_Ionization_Penalty_Charging>
  0.0769

> <r_epik_Ionization_Penalty_Neutral>
  0.0006

> <r_epik_State_Penalty>
  0.0638

> <r_epik_Charging_Adjusted_Penalty>
0.140753983898806

> <i_epik_Tot_Q>
-3

> <i_epik_Tot_abs_Q>
5

$$$$
