3p4q_ligand
                    3D
 Schrodinger Suite 2020-3.
 11 10  0  0  1  0            999 V2000
   15.6760   36.8710  -13.6930 O   0  5  0  0  0  0
   16.9950   35.3040  -12.6510 O   0  0  0  0  0  0
   18.3400   36.8380  -18.0120 O   0  5  0  0  0  0
   17.2100   38.5390  -16.9820 O   0  0  0  0  0  0
   15.7400   35.7070  -16.3680 O   0  0  0  0  0  0
   16.7150   36.0640  -13.6820 C   0  0  0  0  0  0
   17.6430   35.9930  -14.8640 C   0  0  0  0  0  0
   16.8880   36.2850  -16.1300 C   0  0  0  0  0  0
   17.5130   37.2710  -17.0900 C   0  0  0  0  0  0
   18.4472   36.7338  -14.7438 H   0  0  0  0  0  0
   18.0793   34.9852  -14.9276 H   0  0  0  0  0  0
  1  6  1  0  0  0
  2  6  2  0  0  0
  3  9  1  0  0  0
  4  9  2  0  0  0
  5  8  2  0  0  0
  6  7  1  0  0  0
  7  8  1  0  0  0
  7 10  1  0  0  0
  7 11  1  0  0  0
  8  9  1  0  0  0
M  CHG  2   1  -1   3  -1
M  END
> <s_m_source_file>
../3p4q_ligand.sdf

> <i_m_source_file_index>
1

> <s_epik_input>
W09IXUMoPU8pW0NIMl1DKD1PKUMoPU8pW09IXQ==

> <s_epik_cmdline>
J2VwaWtfYXBwJywgJy1pbWFlJywgJ2xpZ2FuZF9wcm8ubWFlJywgJy1vbWFlJywgJ2xpZ2FuZF9wcmVwLm1hZScsICctbXMnLCAnMScsICctcGgnLCAnNycsICctcGh0JywgJzAuNScsICctbnQn

> <r_lp_tautomer_probability>
1

> <r_epik_Ionization_Penalty>
  0.0004

> <r_epik_Ionization_Penalty_Charging>
  0.0004

> <r_epik_Ionization_Penalty_Neutral>
  0.0000

> <r_epik_State_Penalty>
 -0.0000

> <r_epik_Charging_Adjusted_Penalty>
0.000367258356467498

> <i_epik_Tot_Q>
-2

> <i_epik_Tot_abs_Q>
2

$$$$
