3p4r_ligand
                    3D
 Schrodinger Suite 2020-3.
 15 14  0  0  1  0            999 V2000
   15.4350   34.9710  -13.4320 C   0  0  0  0  0  0
   15.8310   36.4410  -13.3820 C   0  0  0  0  0  0
   15.5340   37.1830  -14.6770 C   0  0  0  0  0  0
   16.2550   36.5290  -15.8530 C   0  0  0  0  0  0
   16.4400   37.5170  -16.9830 C   0  0  0  0  0  0
   14.3030   34.6430  -13.8810 O   0  5  0  0  0  0
   16.2580   34.1310  -12.9850 O   0  0  0  0  0  0
   16.1770   38.7230  -16.8140 O   0  5  0  0  0  0
   16.8570   37.0960  -18.0780 O   0  0  0  0  0  0
   15.2764   36.9429  -12.5755 H   0  0  0  0  0  0
   16.9111   36.5235  -13.1907 H   0  0  0  0  0  0
   14.4512   37.1647  -14.8700 H   0  0  0  0  0  0
   15.8731   38.2257  -14.5882 H   0  0  0  0  0  0
   17.2434   36.1742  -15.5256 H   0  0  0  0  0  0
   15.6624   35.6775  -16.2188 H   0  0  0  0  0  0
  1  2  1  0  0  0
  1  6  1  0  0  0
  1  7  2  0  0  0
  2  3  1  0  0  0
  2 10  1  0  0  0
  2 11  1  0  0  0
  3  4  1  0  0  0
  3 12  1  0  0  0
  3 13  1  0  0  0
  4  5  1  0  0  0
  4 14  1  0  0  0
  4 15  1  0  0  0
  5  8  1  0  0  0
  5  9  2  0  0  0
M  CHG  2   6  -1   8  -1
M  END
> <s_m_source_file>
../3p4r_ligand.sdf

> <i_m_source_file_index>
1

> <s_epik_input>
W09IXUMoPU8pW0NIMl1bQ0gyXVtDSDJdQyg9TylbT0hd

> <s_epik_cmdline>
J2VwaWtfYXBwJywgJy1pbWFlJywgJ2xpZ2FuZF9wcm8ubWFlJywgJy1vbWFlJywgJ2xpZ2FuZF9wcmVwLm1hZScsICctbXMnLCAnMScsICctcGgnLCAnNycsICctcGh0JywgJzAuNScsICctbnQn

> <r_epik_Ionization_Penalty>
  0.0122

> <r_epik_Ionization_Penalty_Charging>
  0.0122

> <r_epik_Ionization_Penalty_Neutral>
  0.0000

> <r_epik_State_Penalty>
  0.0094

> <r_epik_Charging_Adjusted_Penalty>
0.0215931629606678

> <i_epik_Tot_Q>
-2

> <i_epik_Tot_abs_Q>
2

$$$$
