3p4v_ligand
                    3D
 Schrodinger Suite 2020-3.
 35 35  0  0  1  0            999 V2000
   17.2030    5.8910   10.7410 C   0  0  0  0  0  0
   17.7600    5.8990   13.1530 N   0  0  0  0  0  0
   17.1860    4.6670   10.7390 O   0  0  0  0  0  0
   18.8440   12.5130   12.2970 Cl  0  0  0  0  0  0
   17.7150    6.6690   11.9200 C   0  0  1  0  0  0
   19.0160    7.4160   11.6430 C   0  0  0  0  0  0
   19.3270    8.6310   12.5030 C   0  0  0  0  0  0
   15.5140    6.1210   13.6470 O   0  0  0  0  0  0
   20.3140    9.6950   14.6370 C   0  0  0  0  0  0
   15.5870    4.3200   15.5060 C   0  0  0  0  0  0
   16.6530    4.6740   14.9560 C   0  0  0  0  0  0
   16.5790    5.5950   13.9220 C   0  0  0  0  0  0
   19.9200   11.0340   14.1140 C   0  0  0  0  0  0
   20.1980   12.1780   14.8460 O   0  0  0  0  0  0
   16.7660    2.9910   17.1030 O   0  0  0  0  0  0
   15.6490    3.3560   16.6560 C   0  0  0  0  0  0
   19.2470   11.1610   12.8130 C   0  0  0  0  0  0
   14.5670    2.8620   17.1050 O   0  0  0  0  0  0
   14.5490    2.1570   18.3050 C   0  0  0  0  0  0
   18.9550    9.9270   12.0080 C   0  0  0  0  0  0
   20.0260    8.4970   13.8490 C   0  0  0  0  0  0
   16.6770    6.5580    9.6600 O   0  5  0  0  0  0
   18.7220    5.5239   13.5324 H   0  0  0  0  0  0
   16.9360    7.4172   12.1283 H   0  0  0  0  0  0
   19.8676    6.7344   11.7853 H   0  0  0  0  0  0
   19.0125    7.7870   10.6075 H   0  0  0  0  0  0
   20.8141    9.6091   15.6017 H   0  0  0  0  0  0
   14.6251    4.7139   15.1459 H   0  0  0  0  0  0
   17.6123    4.2564   15.2958 H   0  0  0  0  0  0
   20.7011   12.0984   15.8210 H   0  0  0  0  0  0
   13.5245    1.8154   18.5142 H   0  0  0  0  0  0
   14.8909    2.8118   19.1201 H   0  0  0  0  0  0
   15.2174    1.2867   18.2290 H   0  0  0  0  0  0
   18.4577   10.0156   11.0421 H   0  0  0  0  0  0
   20.3102    7.5135   14.2233 H   0  0  0  0  0  0
  1  3  2  0  0  0
  1  5  1  0  0  0
  1 22  1  0  0  0
  2  5  1  0  0  0
  2 12  1  0  0  0
  2 23  1  0  0  0
  4 17  1  0  0  0
  5  6  1  0  0  0
  5 24  1  0  0  0
  6  7  1  0  0  0
  6 25  1  0  0  0
  6 26  1  0  0  0
  7 20  2  0  0  0
  7 21  1  0  0  0
  8 12  2  0  0  0
  9 13  1  0  0  0
  9 21  2  0  0  0
  9 27  1  0  0  0
 10 11  2  0  0  0
 10 16  1  0  0  0
 10 28  1  0  0  0
 11 12  1  0  0  0
 11 29  1  0  0  0
 13 14  1  0  0  0
 13 17  2  0  0  0
 14 30  1  0  0  0
 15 16  2  0  0  0
 16 18  1  0  0  0
 17 20  1  0  0  0
 18 19  1  0  0  0
 19 31  1  0  0  0
 19 32  1  0  0  0
 19 33  1  0  0  0
 20 34  1  0  0  0
 21 35  1  0  0  0
M  CHG  1  22  -1
M  END
> <s_m_source_file>
../3p4v_ligand.sdf

> <i_m_source_file_index>
1

> <s_epik_input>
W2NIXTFbY0hdYyhbT0hdKWMoQ2wpW2NIXWMxW0NIMl1bQ0BASF0oQyg9TylbT0hdKVtOSF1DKD1PKVxbQ0hdPVtDSF1cQyg9TylPW0NIM10=

> <s_epik_cmdline>
J2VwaWtfYXBwJywgJy1pbWFlJywgJ2xpZ2FuZF9wcm8ubWFlJywgJy1vbWFlJywgJ2xpZ2FuZF9wcmVwLm1hZScsICctbXMnLCAnMScsICctcGgnLCAnNycsICctcGh0JywgJzAuNScsICctbnQn

> <r_lp_tautomer_probability>
0.999999999997365

> <r_epik_Ionization_Penalty>
  0.0118

> <r_epik_Ionization_Penalty_Charging>
  0.0001

> <r_epik_Ionization_Penalty_Neutral>
  0.0117

> <r_epik_State_Penalty>
  0.0090

> <r_epik_Charging_Adjusted_Penalty>
0.00909975806664206

> <i_epik_Tot_Q>
-1

> <i_epik_Tot_abs_Q>
1

> <s_epik_Chemistry_Notes>
This compound has an ester and may undergo hydrolysis at high or low pH.

$$$$
