3p55_ligand
                    3D
 Schrodinger Suite 2020-3.
 35 45  0  0  1  0            999 V2000
   17.3950    8.6660   12.2590 N   0  0  0  0  0  0
   16.7770    7.7820   12.8560 N   0  0  0  0  0  0
   17.8640    5.0920   14.7060 C   0  0  0  0  0  0
   17.3760    4.0410   15.4740 C   0  0  0  0  0  0
   13.9490    2.7540   16.8760 O   0  0  0  0  0  0
   18.6470    8.5980   12.6960 C   0  0  0  0  0  0
   17.5050    7.1570   13.6300 N   0  0  0  0  0  0
   17.0330    6.1530   14.3640 C   0  0  0  0  0  0
   16.0530    4.0460   15.9000 C   0  0  0  0  0  0
   15.4490    2.7260   16.8800 S   0  0  0  0  0  0
   15.9630    1.3110   16.2580 N   0  0  0  0  0  0
   18.7490    7.6290   13.5950 C   0  0  0  0  0  0
   15.7110    6.1600   14.7950 C   0  0  0  0  0  0
   15.2210    5.1070   15.5610 C   0  0  0  0  0  0
   15.9520    2.8750   18.2850 O   0  0  0  0  0  0
   19.6440    9.3730   12.2780 C   0  0  0  0  0  0
   20.9340    9.2250   12.5680 C   0  0  0  0  0  0
   21.6110   10.1820   11.9390 C   0  0  0  0  0  0
   20.7390   10.9230   11.2610 C   0  0  0  0  0  0
   19.5240   10.4230   11.4700 C   0  0  2  0  0  0
   19.1080   11.6030   14.8300 C   0  0  0  0  0  0
   19.3310   12.6640   14.0600 C   0  0  0  0  0  0
   20.6400   12.9060   14.0590 C   0  0  0  0  0  0
   21.2260   11.9920   14.8280 C   0  0  0  0  0  0
   20.2800   11.1870   15.3040 C   0  0  0  0  0  0
   20.3050   11.0480   13.2600 Fe  0  0  0  0  0  0
   18.9012    5.0843   14.3709 H   0  0  0  0  0  0
   18.0314    3.2124   15.7423 H   0  0  0  0  0  0
   15.5842    0.4811   16.8727 H   0  0  0  0  0  0
   17.0628    1.2909   16.2524 H   0  0  0  0  0  0
   19.6235    7.3037   14.1585 H   0  0  0  0  0  0
   15.0575    6.9919   14.5323 H   0  0  0  0  0  0
   14.1837    5.1139   15.8957 H   0  0  0  0  0  0
   18.7949   10.3972   10.6468 H   0  0  0  0  0  0
   20.3493   10.8139   16.3365 H   0  0  0  0  0  0
  1  2  2  0  0  0
  1  6  1  0  0  0
  2  7  1  0  0  0
  3  4  2  0  0  0
  3  8  1  0  0  0
  3 27  1  0  0  0
  4  9  1  0  0  0
  4 28  1  0  0  0
  5 10  2  0  0  0
  6 12  2  0  0  0
  6 16  1  0  0  0
  7  8  1  0  0  0
  7 12  1  0  0  0
  8 13  2  0  0  0
  9 10  1  0  0  0
  9 14  2  0  0  0
 10 11  1  0  0  0
 10 15  2  0  0  0
 11 29  1  0  0  0
 11 30  1  0  0  0
 12 31  1  0  0  0
 13 14  1  0  0  0
 13 32  1  0  0  0
 14 33  1  0  0  0
 16 17  2  0  0  0
 16 20  1  0  0  0
 17 18  1  0  0  0
 17 26  1  0  0  0
 18 19  2  0  0  0
 18 26  1  0  0  0
 19 20  1  0  0  0
 19 26  1  0  0  0
 20 26  1  0  0  0
 20 34  1  0  0  0
 21 22  2  0  0  0
 21 25  1  0  0  0
 21 26  1  0  0  0
 22 23  1  0  0  0
 22 26  1  0  0  0
 23 24  2  0  0  0
 23 26  1  0  0  0
 24 25  1  0  0  0
 24 26  1  0  0  0
 25 26  1  0  0  0
 25 35  1  0  0  0
M  END
> <s_m_source_file>
../3p55_ligand.sdf

> <i_m_source_file_index>
1

> <s_epik_input>
Tz1TKD1PKShbTkgyXSljKFtjSF1bY0hdMSlbY0hdW2NIXWMxLW4oW2NIXTIpbm5jMkM9M1tDQEBIXTRDNT1DNkMzW0ZlXTE0NTY3ODlDMj1DN0M4PUM5W0NIXTEy

> <s_epik_cmdline>
J2VwaWtfYXBwJywgJy1pbWFlJywgJ2xpZ2FuZF9wcm8ubWFlJywgJy1vbWFlJywgJ2xpZ2FuZF9wcmVwLm1hZScsICctbXMnLCAnMScsICctcGgnLCAnNycsICctcGh0JywgJzAuNScsICctbnQn

> <r_lp_tautomer_probability>
1

> <r_epik_Ionization_Penalty>
  0.0090

> <r_epik_Ionization_Penalty_Charging>
  0.0000

> <r_epik_Ionization_Penalty_Neutral>
  0.0090

> <r_epik_State_Penalty>
 -0.0000

> <r_epik_Charging_Adjusted_Penalty>
0

> <i_epik_Tot_Q>
0

> <i_epik_Tot_abs_Q>
0

$$$$
