3p5l_ligand
                    3D
 Schrodinger Suite 2020-3.
 30 31  0  0  1  0            999 V2000
   -4.6910    4.1960   10.8940 N   0  0  0  0  0  0
   -5.2930    2.5690   14.8150 N   0  0  0  0  0  0
   -4.9140    0.1470   15.9500 S   0  0  0  0  0  0
   -7.2240    1.8800   16.6470 S   0  5  0  0  0  0
   -4.4160    4.3790   11.9910 C   0  0  0  0  0  0
   -1.1950    7.9350   13.6880 C   0  0  0  0  0  0
   -1.0450    6.9260   12.6740 C   0  0  0  0  0  0
   -2.2550    7.8440   14.6250 C   0  0  0  0  0  0
   -1.9570    5.8840   12.6210 C   0  0  0  0  0  0
   -3.1830    6.7990   14.5820 C   0  0  0  0  0  0
   -6.1170    3.7260   14.4730 C   0  0  0  0  0  0
   -4.2210    2.2350   13.9030 C   0  0  0  0  0  0
   -5.2580    4.9220   14.2010 C   0  0  0  0  0  0
   -3.3410    3.4160   13.9020 C   0  0  0  0  0  0
   -5.6800    1.7120   15.8590 C   0  0  0  0  0  0
   -3.0460    5.8060   13.5610 C   0  0  0  0  0  0
   -4.0430    4.6290   13.4630 C   0  0  0  0  0  0
   -0.4945    8.7687   13.7360 H   0  0  0  0  0  0
   -0.2255    6.9802   11.9573 H   0  0  0  0  0  0
   -2.3488    8.6071   15.3976 H   0  0  0  0  0  0
   -1.8490    5.1131   11.8580 H   0  0  0  0  0  0
   -3.9924    6.7421   15.3098 H   0  0  0  0  0  0
   -6.7100    3.5010   13.5742 H   0  0  0  0  0  0
   -6.7927    3.9553   15.3102 H   0  0  0  0  0  0
   -3.6972    1.3382   14.2656 H   0  0  0  0  0  0
   -4.6374    2.0377   12.9042 H   0  0  0  0  0  0
   -5.8260    5.6542   13.6082 H   0  0  0  0  0  0
   -4.9534    5.3791   15.1540 H   0  0  0  0  0  0
   -2.9601    3.5903   14.9191 H   0  0  0  0  0  0
   -2.4964    3.2433   13.2188 H   0  0  0  0  0  0
  1  5  3  0  0  0
  2 11  1  0  0  0
  2 12  1  0  0  0
  2 15  1  0  0  0
  3 15  2  0  0  0
  4 15  1  0  0  0
  5 17  1  0  0  0
  6  7  2  0  0  0
  6  8  1  0  0  0
  6 18  1  0  0  0
  7  9  1  0  0  0
  7 19  1  0  0  0
  8 10  2  0  0  0
  8 20  1  0  0  0
  9 16  2  0  0  0
  9 21  1  0  0  0
 10 16  1  0  0  0
 10 22  1  0  0  0
 11 13  1  0  0  0
 11 23  1  0  0  0
 11 24  1  0  0  0
 12 14  1  0  0  0
 12 25  1  0  0  0
 12 26  1  0  0  0
 13 17  1  0  0  0
 13 27  1  0  0  0
 13 28  1  0  0  0
 14 17  1  0  0  0
 14 29  1  0  0  0
 14 30  1  0  0  0
 16 17  1  0  0  0
M  CHG  1   4  -1
M  END
> <s_m_source_file>
../3p5l_ligand.sdf

> <i_m_source_file_index>
1

> <s_epik_input>
Uz1DKFtTSF0pTihbQ0gyXVtDSDJdMSlbQ0gyXVtDSDJdQzEoQyNOKWMyW2NIXVtjSF1bY0hdW2NIXVtjSF0y

> <s_epik_cmdline>
J2VwaWtfYXBwJywgJy1pbWFlJywgJ2xpZ2FuZF9wcm8ubWFlJywgJy1vbWFlJywgJ2xpZ2FuZF9wcmVwLm1hZScsICctbXMnLCAnMScsICctcGgnLCAnNycsICctcGh0JywgJzAuNScsICctbnQn

> <r_lp_tautomer_probability>
1

> <r_epik_Ionization_Penalty>
  0.0002

> <r_epik_Ionization_Penalty_Charging>
  0.0002

> <r_epik_Ionization_Penalty_Neutral>
  0.0000

> <r_epik_State_Penalty>
 -0.0000

> <r_epik_Charging_Adjusted_Penalty>
0.000223911226053994

> <i_epik_Tot_Q>
-1

> <i_epik_Tot_abs_Q>
1

$$$$
