3p76_ligand
                    3D
 Schrodinger Suite 2020-3.
 58 60  0  0  1  0            999 V2000
   -6.3340   20.9290   -3.8250 N   0  0  0  0  0  0
   -5.0740   21.2430   -3.1830 C   0  0  2  0  0  0
   -5.0700   22.7470   -3.0480 C   0  0  0  0  0  0
   -4.9710   23.5140   -4.0160 O   0  0  0  0  0  0
   -5.1690   23.1210   -1.7410 N   0  0  0  0  0  0
   -5.1380   24.5040   -1.6360 O   0  0  0  0  0  0
   -6.8880   19.6340   -3.7030 C   0  0  0  0  0  0
   -6.3350   18.7090   -3.0520 O   0  0  0  0  0  0
   -8.1050   19.4590   -4.3600 N   0  0  0  0  0  0
   -8.8200   20.5060   -5.1040 C   0  0  0  0  0  0
   -9.3190   19.9930   -6.4180 C   0  0  0  0  0  0
  -10.3240   18.8520   -6.1880 C   0  0  0  0  0  0
   -9.5060   17.7230   -5.5370 C   0  0  0  0  0  0
   -8.7660   18.1420   -4.2670 C   0  0  0  0  0  0
  -10.9280   18.3230   -7.4850 C   0  0  0  0  0  0
  -11.8010   17.1880   -7.4950 C   0  0  0  0  0  0
  -12.3450   16.7190   -8.7170 C   0  0  0  0  0  0
  -12.0070   17.3920   -9.9230 C   0  0  0  0  0  0
  -11.1660   18.4940   -9.9340 C   0  0  0  0  0  0
  -10.6570   18.9400   -8.7270 C   0  0  0  0  0  0
  -12.4520   16.9970  -11.1910 C   0  0  0  0  0  0
  -12.6090   16.6110  -12.2990 C   0  0  0  0  0  0
  -12.7910   16.1400  -13.6180 C   0  0  0  0  0  0
  -12.0180   15.0120  -14.0100 C   0  0  0  0  0  0
  -12.1550   14.4770  -15.3090 C   0  0  0  0  0  0
  -13.0580   15.0880  -16.2130 C   0  0  0  0  0  0
  -13.8190   16.2170  -15.8140 C   0  0  0  0  0  0
  -13.6920   16.7520  -14.5030 C   0  0  0  0  0  0
   -3.8040   20.6620   -3.8300 C   0  0  1  0  0  0
   -3.6170   21.0070   -5.3020 C   0  0  0  0  0  0
   -2.6750   21.1780   -3.0930 O   0  0  0  0  0  0
   -6.8609   21.6985   -4.4083 H   0  0  0  0  0  0
   -5.0858   20.7296   -2.2102 H   0  0  0  0  0  0
   -5.2628   22.5027   -0.8361 H   0  0  0  0  0  0
   -5.2072   24.9822   -0.6478 H   0  0  0  0  0  0
   -9.6809   20.8526   -4.5134 H   0  0  0  0  0  0
   -8.1409   21.3505   -5.2926 H   0  0  0  0  0  0
   -9.8150   20.8081   -6.9653 H   0  0  0  0  0  0
   -8.4720   19.6161   -7.0101 H   0  0  0  0  0  0
  -11.1686   19.2102   -5.5811 H   0  0  0  0  0  0
  -10.1767   16.8953   -5.2630 H   0  0  0  0  0  0
   -8.7491   17.3613   -6.2486 H   0  0  0  0  0  0
   -8.0126   17.3673   -4.0614 H   0  0  0  0  0  0
   -9.5055   18.1595   -3.4529 H   0  0  0  0  0  0
  -12.0478   16.6835   -6.5608 H   0  0  0  0  0  0
  -13.0115   15.8566   -8.7319 H   0  0  0  0  0  0
  -10.9126   18.9955  -10.8680 H   0  0  0  0  0  0
  -10.0101   19.8173   -8.7347 H   0  0  0  0  0  0
  -11.3189   14.5602  -13.3063 H   0  0  0  0  0  0
  -11.5741   13.6059  -15.6121 H   0  0  0  0  0  0
  -13.1689   14.6886  -17.2211 H   0  0  0  0  0  0
  -14.5086   16.6792  -16.5204 H   0  0  0  0  0  0
  -14.2798   17.6160  -14.1929 H   0  0  0  0  0  0
   -3.8390   19.5646   -3.7630 H   0  0  0  0  0  0
   -4.4694   20.6210   -5.8802 H   0  0  0  0  0  0
   -2.6868   20.5498   -5.6704 H   0  0  0  0  0  0
   -3.5597   22.0994   -5.4182 H   0  0  0  0  0  0
   -2.6166   21.0336   -2.0041 H   0  0  0  0  0  0
  1  2  1  0  0  0
  1  7  1  0  0  0
  1 32  1  0  0  0
  2  3  1  0  0  0
  2 29  1  0  0  0
  2 33  1  0  0  0
  3  4  2  0  0  0
  3  5  1  0  0  0
  5  6  1  0  0  0
  5 34  1  0  0  0
  6 35  1  0  0  0
  7  8  2  0  0  0
  7  9  1  0  0  0
  9 10  1  0  0  0
  9 14  1  0  0  0
 10 11  1  0  0  0
 10 36  1  0  0  0
 10 37  1  0  0  0
 11 12  1  0  0  0
 11 38  1  0  0  0
 11 39  1  0  0  0
 12 13  1  0  0  0
 12 15  1  0  0  0
 12 40  1  0  0  0
 13 14  1  0  0  0
 13 41  1  0  0  0
 13 42  1  0  0  0
 14 43  1  0  0  0
 14 44  1  0  0  0
 15 16  2  0  0  0
 15 20  1  0  0  0
 16 17  1  0  0  0
 16 45  1  0  0  0
 17 18  2  0  0  0
 17 46  1  0  0  0
 18 19  1  0  0  0
 18 21  1  0  0  0
 19 20  2  0  0  0
 19 47  1  0  0  0
 20 48  1  0  0  0
 21 22  3  0  0  0
 22 23  1  0  0  0
 23 24  2  0  0  0
 23 28  1  0  0  0
 24 25  1  0  0  0
 24 49  1  0  0  0
 25 26  2  0  0  0
 25 50  1  0  0  0
 26 27  1  0  0  0
 26 51  1  0  0  0
 27 28  2  0  0  0
 27 52  1  0  0  0
 28 53  1  0  0  0
 29 30  1  0  0  0
 29 31  1  0  0  0
 29 54  1  0  0  0
 30 55  1  0  0  0
 30 56  1  0  0  0
 30 57  1  0  0  0
 31 58  1  0  0  0
M  END
> <s_m_source_file>
../3p76_ligand.sdf

> <i_m_source_file_index>
1

> <s_epik_input>
W09IXVtOSF1DKD1PKVtDQEhdKFtDQEBIXShbQ0gzXSlbT0hdKVtOSF1DKD1PKU4xW0NIMl1bQ0gyXVtDSF0oW0NIMl1bQ0gyXTEpYzJbY0hdW2NIXWMoW2NIXVtjSF0yKUMjQ2MzW2NIXVtjSF1bY0hdW2NIXVtjSF0z

> <s_epik_cmdline>
J2VwaWtfYXBwJywgJy1pbWFlJywgJ2xpZ2FuZF9wcm8ubWFlJywgJy1vbWFlJywgJ2xpZ2FuZF9wcmVwLm1hZScsICctbXMnLCAnMScsICctcGgnLCAnNycsICctcGh0JywgJzAuNScsICctbnQn

> <r_epik_Ionization_Penalty>
  0.0099

> <r_epik_Ionization_Penalty_Charging>
  0.0000

> <r_epik_Ionization_Penalty_Neutral>
  0.0099

> <r_epik_State_Penalty>
  0.0075

> <r_epik_Charging_Adjusted_Penalty>
0.00748091195812361

> <i_epik_Tot_Q>
0

> <i_epik_Tot_abs_Q>
0

> <s_epik_Chemistry_Notes>
This compound has a N-S or N-O group and may undergo hydrolysis at high or low pH.

$$$$
