3p78_ligand
                    3D
 Schrodinger Suite 2020-3.
 60 63  0  0  1  0            999 V2000
   49.0470   27.1760  -18.0870 C   0  0  0  0  0  0
   52.2530   31.2360  -11.7680 O   0  0  0  0  0  0
   51.5420   29.7070  -11.8960 S   0  0  0  0  0  0
   57.4690   31.3380  -21.9820 C   0  0  0  0  0  0
   50.1770   28.0740  -19.0220 S   0  0  0  0  0  0
   51.3360   28.3070  -17.7700 C   0  0  0  0  0  0
   50.7700   27.6600  -16.6580 C   0  0  0  0  0  0
   49.5380   27.0380  -16.7920 C   0  0  0  0  0  0
   47.7520   26.7040  -18.6560 C   0  0  0  0  0  0
   48.0220   25.5780  -19.6320 C   0  0  0  0  0  0
   46.6430   26.4660  -17.6240 C   0  0  0  0  0  0
   47.2290   27.6660  -19.7180 C   0  0  0  0  0  0
   51.6030   27.6510  -15.3950 C   0  0  0  0  0  0
   56.4400   33.8880  -22.4530 C   0  0  0  0  0  0
   52.8150   27.5820  -15.5510 O   0  0  0  0  0  0
   57.5950   33.4620  -23.1500 C   0  0  0  0  0  0
   52.5620   28.9430  -17.8060 N   0  0  0  0  0  0
   52.8110   29.8740  -18.7630 C   0  0  0  0  0  0
   58.1380   32.1780  -22.9220 C   0  0  0  0  0  0
   51.8270   30.2130  -19.6360 O   0  0  0  0  0  0
   53.9930   30.4170  -18.8160 N   0  0  0  0  0  0
   54.4870   31.3240  -19.6860 C   0  0  0  0  0  0
   53.9700   32.5990  -19.9270 C   0  0  0  0  0  0
   54.6220   33.4320  -20.8430 C   0  0  0  0  0  0
   55.7920   33.0290  -21.5280 C   0  0  0  0  0  0
   56.3180   31.7600  -21.2880 C   0  0  0  0  0  0
   55.6520   30.9270  -20.3680 C   0  0  0  0  0  0
   51.1250   27.6490  -14.1140 N   0  0  0  0  0  0
   49.9140   28.3480  -13.7060 C   0  0  0  0  0  0
   50.3170   29.7170  -13.1100 C   0  0  0  0  0  0
   52.7460   28.6650  -12.5410 C   0  0  0  0  0  0
   52.1310   27.3610  -13.0730 C   0  0  0  0  0  0
   50.8220   28.7790  -10.6750 O   0  0  0  0  0  0
   57.8610   30.3383  -21.7951 H   0  0  0  0  0  0
   49.0223   26.5108  -15.9894 H   0  0  0  0  0  0
   48.4290   24.7121  -19.0893 H   0  0  0  0  0  0
   48.7493   25.9130  -20.3862 H   0  0  0  0  0  0
   47.0838   25.2910  -20.1294 H   0  0  0  0  0  0
   47.0049   25.7732  -16.8500 H   0  0  0  0  0  0
   45.7645   26.0314  -18.1234 H   0  0  0  0  0  0
   46.3641   27.4227  -17.1583 H   0  0  0  0  0  0
   48.0140   27.8473  -20.4670 H   0  0  0  0  0  0
   46.9477   28.6179  -19.2439 H   0  0  0  0  0  0
   46.3482   27.2265  -20.2090 H   0  0  0  0  0  0
   56.0432   34.8879  -22.6286 H   0  0  0  0  0  0
   58.0698   34.1299  -23.8688 H   0  0  0  0  0  0
   53.3325   28.6947  -17.0612 H   0  0  0  0  0  0
   59.0338   31.8416  -23.4441 H   0  0  0  0  0  0
   54.7572   30.1447  -18.0731 H   0  0  0  0  0  0
   53.0730   32.9396  -19.4098 H   0  0  0  0  0  0
   54.2146   34.4246  -21.0351 H   0  0  0  0  0  0
   56.0561   29.9330  -20.1763 H   0  0  0  0  0  0
   49.2634   28.4955  -14.5807 H   0  0  0  0  0  0
   49.3827   27.7506  -12.9504 H   0  0  0  0  0  0
   49.3924   30.1441  -12.6944 H   0  0  0  0  0  0
   50.6511   30.3259  -13.9630 H   0  0  0  0  0  0
   53.2631   29.1710  -13.3696 H   0  0  0  0  0  0
   53.4727   28.4132  -11.7545 H   0  0  0  0  0  0
   51.6530   26.8259  -12.2392 H   0  0  0  0  0  0
   52.9308   26.7371  -13.4986 H   0  0  0  0  0  0
  1  5  1  0  0  0
  1  8  2  0  0  0
  1  9  1  0  0  0
  2  3  2  0  0  0
  3 30  1  0  0  0
  3 31  1  0  0  0
  3 33  2  0  0  0
  4 19  2  0  0  0
  4 26  1  0  0  0
  4 34  1  0  0  0
  5  6  1  0  0  0
  6  7  2  0  0  0
  6 17  1  0  0  0
  7  8  1  0  0  0
  7 13  1  0  0  0
  8 35  1  0  0  0
  9 10  1  0  0  0
  9 11  1  0  0  0
  9 12  1  0  0  0
 10 36  1  0  0  0
 10 37  1  0  0  0
 10 38  1  0  0  0
 11 39  1  0  0  0
 11 40  1  0  0  0
 11 41  1  0  0  0
 12 42  1  0  0  0
 12 43  1  0  0  0
 12 44  1  0  0  0
 13 15  2  0  0  0
 13 28  1  0  0  0
 14 16  2  0  0  0
 14 25  1  0  0  0
 14 45  1  0  0  0
 16 19  1  0  0  0
 16 46  1  0  0  0
 17 18  1  0  0  0
 17 47  1  0  0  0
 18 20  2  0  0  0
 18 21  1  0  0  0
 19 48  1  0  0  0
 21 22  1  0  0  0
 21 49  1  0  0  0
 22 23  1  0  0  0
 22 27  2  0  0  0
 23 24  2  0  0  0
 23 50  1  0  0  0
 24 25  1  0  0  0
 24 51  1  0  0  0
 25 26  2  0  0  0
 26 27  1  0  0  0
 27 52  1  0  0  0
 28 29  1  0  0  0
 28 32  1  0  0  0
 29 30  1  0  0  0
 29 53  1  0  0  0
 29 54  1  0  0  0
 30 55  1  0  0  0
 30 56  1  0  0  0
 31 32  1  0  0  0
 31 57  1  0  0  0
 31 58  1  0  0  0
 32 59  1  0  0  0
 32 60  1  0  0  0
M  END
> <s_m_source_file>
../3p78_ligand.sdf

> <i_m_source_file_index>
1

> <s_epik_input>
Tz1TMSg9TylbQ0gyXVtDSDJdTihbQ0gyXVtDSDJdMSlDKD1PKWMoW2NIXTIpYyhzYzJDKFtDSDNdKShbQ0gzXSlbQ0gzXSlbTkhdQyg9TylbTkhdYyhbY0hdW2NIXTMpW2NIXWMoYzM0KVtjSF1bY0hdW2NIXVtjSF00

> <s_epik_cmdline>
J2VwaWtfYXBwJywgJy1pbWFlJywgJ2xpZ2FuZF9wcm8ubWFlJywgJy1vbWFlJywgJ2xpZ2FuZF9wcmVwLm1hZScsICctbXMnLCAnMScsICctcGgnLCAnNycsICctcGh0JywgJzAuNScsICctbnQn

> <r_lp_tautomer_probability>
1

> <r_epik_Ionization_Penalty>
  0.0000

> <r_epik_Ionization_Penalty_Charging>
  0.0000

> <r_epik_Ionization_Penalty_Neutral>
  0.0000

> <r_epik_State_Penalty>
 -0.0000

> <r_epik_Charging_Adjusted_Penalty>
0

> <i_epik_Tot_Q>
0

> <i_epik_Tot_abs_Q>
0

$$$$
