3p79_ligand
                    3D
 Schrodinger Suite 2020-3.
 63 66  0  0  1  0            999 V2000
   50.0690   28.0860  -18.8210 C   0  0  0  0  0  0
   48.9430   27.4700  -18.2700 C   0  0  0  0  0  0
   50.0190   28.3060  -16.6150 N   0  0  0  0  0  0
   48.9000   27.6260  -16.9330 N   0  0  0  0  0  0
   47.7580   26.7650  -18.9280 C   0  0  0  0  0  0
   50.7440   28.6390  -17.7310 C   0  0  0  0  0  0
   50.3350   28.7380  -15.2270 C   0  0  0  0  0  0
   51.4980   28.0270  -14.6290 C   0  0  0  0  0  0
   51.5530   27.8910  -13.2960 N   0  0  0  0  0  0
   52.3420   27.5490  -15.3620 O   0  0  0  0  0  0
   52.4240   30.0970  -18.6410 C   0  0  0  0  0  0
   53.6810   30.4520  -18.7150 N   0  0  0  0  0  0
   51.6030   30.5120  -19.5990 O   0  0  0  0  0  0
   54.2170   31.3570  -19.5510 C   0  0  0  0  0  0
   53.7150   32.6250  -19.7900 C   0  0  0  0  0  0
   54.3800   33.5140  -20.6580 C   0  0  0  0  0  0
   55.5260   33.0520  -21.3230 C   0  0  0  0  0  0
   56.0160   31.7700  -21.1020 C   0  0  0  0  0  0
   55.3920   30.9050  -20.1820 C   0  0  0  0  0  0
   51.9560   29.3400  -17.6190 N   0  0  0  0  0  0
   46.6790   26.5090  -17.8650 C   0  0  0  0  0  0
   48.1170   25.5840  -19.8090 C   0  0  0  0  0  0
   47.0930   27.7550  -19.8480 C   0  0  0  0  0  0
   56.1760   33.9380  -22.2210 C   0  0  0  0  0  0
   57.3460   33.4790  -22.8740 C   0  0  0  0  0  0
   57.8590   32.1780  -22.6400 C   0  0  0  0  0  0
   57.2010   31.3110  -21.7170 C   0  0  0  0  0  0
   50.5720   28.5020  -12.4090 C   0  0  0  0  0  0
   51.2870   29.4620  -11.4450 C   0  0  0  0  0  0
   52.5080   28.6220  -10.6030 S   0  0  0  0  0  0
   53.4400   27.8550  -11.8260 C   0  0  0  0  0  0
   52.4840   26.9810  -12.6420 C   0  0  0  0  0  0
   51.8230   27.3800   -9.7600 O   0  0  0  0  0  0
   53.4810   29.8180   -9.9210 O   0  0  0  0  0  0
   50.3575   28.1262  -19.8714 H   0  0  0  0  0  0
   50.5704   29.8125  -15.2221 H   0  0  0  0  0  0
   49.4672   28.5498  -14.5778 H   0  0  0  0  0  0
   54.4226   29.9927  -18.0448 H   0  0  0  0  0  0
   52.7934   32.9398  -19.3004 H   0  0  0  0  0  0
   54.0151   34.5300  -20.8083 H   0  0  0  0  0  0
   55.8045   29.9195  -19.9659 H   0  0  0  0  0  0
   52.5424   29.2799  -16.6902 H   0  0  0  0  0  0
   47.0570   25.7882  -17.1251 H   0  0  0  0  0  0
   45.7785   26.1011  -18.3474 H   0  0  0  0  0  0
   46.4289   27.4544  -17.3613 H   0  0  0  0  0  0
   48.6117   24.8111  -19.2024 H   0  0  0  0  0  0
   48.7978   25.9154  -20.6069 H   0  0  0  0  0  0
   47.2019   25.1689  -20.2566 H   0  0  0  0  0  0
   46.8008   28.6481  -19.2761 H   0  0  0  0  0  0
   46.1983   27.2967  -20.2947 H   0  0  0  0  0  0
   47.7942   28.0432  -20.6450 H   0  0  0  0  0  0
   55.7872   34.9400  -22.4024 H   0  0  0  0  0  0
   57.8626   34.1393  -23.5706 H   0  0  0  0  0  0
   58.7536   31.8410  -23.1637 H   0  0  0  0  0  0
   57.6020   30.3224  -21.4932 H   0  0  0  0  0  0
   49.8356   29.0602  -13.0058 H   0  0  0  0  0  0
   50.0587   27.7173  -11.8339 H   0  0  0  0  0  0
   51.7380   30.2868  -12.0163 H   0  0  0  0  0  0
   50.5603   29.8683  -10.7261 H   0  0  0  0  0  0
   53.9065   28.6193  -12.4650 H   0  0  0  0  0  0
   54.2232   27.2400  -11.3587 H   0  0  0  0  0  0
   51.9266   26.2919  -11.9905 H   0  0  0  0  0  0
   53.0296   26.4047  -13.4037 H   0  0  0  0  0  0
  1  2  1  0  0  0
  1  6  2  0  0  0
  1 35  1  0  0  0
  2  4  2  0  0  0
  2  5  1  0  0  0
  3  4  1  0  0  0
  3  6  1  0  0  0
  3  7  1  0  0  0
  5 21  1  0  0  0
  5 22  1  0  0  0
  5 23  1  0  0  0
  6 20  1  0  0  0
  7  8  1  0  0  0
  7 36  1  0  0  0
  7 37  1  0  0  0
  8  9  1  0  0  0
  8 10  2  0  0  0
  9 28  1  0  0  0
  9 32  1  0  0  0
 11 12  1  0  0  0
 11 13  2  0  0  0
 11 20  1  0  0  0
 12 14  1  0  0  0
 12 38  1  0  0  0
 14 15  2  0  0  0
 14 19  1  0  0  0
 15 16  1  0  0  0
 15 39  1  0  0  0
 16 17  2  0  0  0
 16 40  1  0  0  0
 17 18  1  0  0  0
 17 24  1  0  0  0
 18 19  2  0  0  0
 18 27  1  0  0  0
 19 41  1  0  0  0
 20 42  1  0  0  0
 21 43  1  0  0  0
 21 44  1  0  0  0
 21 45  1  0  0  0
 22 46  1  0  0  0
 22 47  1  0  0  0
 22 48  1  0  0  0
 23 49  1  0  0  0
 23 50  1  0  0  0
 23 51  1  0  0  0
 24 25  2  0  0  0
 24 52  1  0  0  0
 25 26  1  0  0  0
 25 53  1  0  0  0
 26 27  2  0  0  0
 26 54  1  0  0  0
 27 55  1  0  0  0
 28 29  1  0  0  0
 28 56  1  0  0  0
 28 57  1  0  0  0
 29 30  1  0  0  0
 29 58  1  0  0  0
 29 59  1  0  0  0
 30 31  1  0  0  0
 30 33  2  0  0  0
 30 34  2  0  0  0
 31 32  1  0  0  0
 31 60  1  0  0  0
 31 61  1  0  0  0
 32 62  1  0  0  0
 32 63  1  0  0  0
M  END
> <s_m_source_file>
../3p79_ligand.sdf

> <i_m_source_file_index>
1

> <s_epik_input>
Tz1TMSg9TylbQ0gyXVtDSDJdTihbQ0gyXVtDSDJdMSlDKD1PKVtDSDJdbihuMiljKFtjSF1jMkMoW0NIM10pKFtDSDNdKVtDSDNdKVtOSF1DKD1PKVtOSF1jKFtjSF1bY0hdMylbY0hdYyhjMzQpW2NIXVtjSF1bY0hdW2NIXTQ=

> <s_epik_cmdline>
J2VwaWtfYXBwJywgJy1pbWFlJywgJ2xpZ2FuZF9wcm8ubWFlJywgJy1vbWFlJywgJ2xpZ2FuZF9wcmVwLm1hZScsICctbXMnLCAnMScsICctcGgnLCAnNycsICctcGh0JywgJzAuNScsICctbnQn

> <r_lp_tautomer_probability>
1

> <r_epik_Ionization_Penalty>
  0.0000

> <r_epik_Ionization_Penalty_Charging>
  0.0000

> <r_epik_Ionization_Penalty_Neutral>
  0.0000

> <r_epik_State_Penalty>
 -0.0000

> <r_epik_Charging_Adjusted_Penalty>
0

> <i_epik_Tot_Q>
0

> <i_epik_Tot_abs_Q>
0

$$$$
