3p7a_ligand
                    3D
 Schrodinger Suite 2020-3.
 58 61  0  0  1  0            999 V2000
   49.8250   32.3110  -18.5770 C   0  0  0  0  0  0
   49.0100   30.6660  -14.7290 N   0  0  0  0  0  0
   48.7580   32.7890  -19.2330 O   0  0  0  0  0  0
   46.8990   29.3180  -15.7710 S   0  0  0  0  0  0
   48.3450   30.2940  -15.8630 C   0  0  0  0  0  0
   51.0180   32.7540  -18.8530 N   0  0  0  0  0  0
   48.5720   33.2730  -10.8530 O   0  0  0  0  0  0
   49.1800   32.0330  -11.8770 S   0  0  0  0  0  0
   51.4410   33.8510  -19.5510 C   0  0  0  0  0  0
   50.6130   31.3780  -11.2410 O   0  0  0  0  0  0
   52.6230   33.8500  -20.3240 C   0  0  0  0  0  0
   53.0160   35.0150  -21.0130 C   0  0  0  0  0  0
   52.2270   36.1760  -20.9300 C   0  0  0  0  0  0
   51.0560   36.1940  -20.1700 C   0  0  0  0  0  0
   50.6810   35.0360  -19.4830 C   0  0  0  0  0  0
   49.6880   31.3440  -17.6290 N   0  0  0  0  0  0
   48.6250   30.5960  -17.2190 C   0  0  0  0  0  0
   46.6690   29.2810  -17.4950 C   0  0  0  0  0  0
   47.6950   30.0300  -18.0950 C   0  0  0  0  0  0
   45.5570   28.5690  -18.2630 C   0  0  0  0  0  0
   45.1510   29.3700  -19.5000 C   0  0  0  0  0  0
   44.2420   28.3220  -17.5260 C   0  0  0  0  0  0
   46.1080   27.2180  -18.7410 C   0  0  0  0  0  0
   49.6740   31.9730  -14.6440 C   0  0  0  0  0  0
   49.2840   32.8120  -13.4120 C   0  0  0  0  0  0
   48.1970   30.7010  -12.3140 C   0  0  0  0  0  0
   48.7970   29.8910  -13.4830 C   0  0  0  0  0  0
   53.4520   32.7310  -20.4610 C   0  0  0  0  0  0
   54.6180   32.7760  -21.2390 C   0  0  0  0  0  0
   54.9830   33.9460  -21.9180 C   0  0  0  0  0  0
   54.1730   35.0800  -21.7990 C   0  0  0  0  0  0
   51.9037   32.2065  -18.4983 H   0  0  0  0  0  0
   52.5338   37.0740  -21.4663 H   0  0  0  0  0  0
   50.4452   37.0950  -20.1134 H   0  0  0  0  0  0
   49.7749   35.0498  -18.8773 H   0  0  0  0  0  0
   50.5549   31.0403  -17.0239 H   0  0  0  0  0  0
   47.7614   30.1613  -19.1750 H   0  0  0  0  0  0
   44.7509   30.3465  -19.1895 H   0  0  0  0  0  0
   44.3797   28.8181  -20.0573 H   0  0  0  0  0  0
   46.0302   29.5218  -20.1434 H   0  0  0  0  0  0
   43.8322   29.2809  -17.1758 H   0  0  0  0  0  0
   44.4231   27.6638  -16.6635 H   0  0  0  0  0  0
   43.5238   27.8435  -18.2080 H   0  0  0  0  0  0
   47.0565   27.3771  -19.2748 H   0  0  0  0  0  0
   45.3814   26.7444  -19.4176 H   0  0  0  0  0  0
   46.2808   26.5647  -17.8730 H   0  0  0  0  0  0
   50.7636   31.8285  -14.5993 H   0  0  0  0  0  0
   49.4197   32.5719  -15.5309 H   0  0  0  0  0  0
   48.3069   33.2468  -13.6694 H   0  0  0  0  0  0
   50.0401   33.6097  -13.3679 H   0  0  0  0  0  0
   48.0888   30.0267  -11.4517 H   0  0  0  0  0  0
   47.2053   31.0629  -12.6231 H   0  0  0  0  0  0
   48.1046   29.0598  -13.6821 H   0  0  0  0  0  0
   49.7592   29.4905  -13.1313 H   0  0  0  0  0  0
   53.1858   31.8046  -19.9521 H   0  0  0  0  0  0
   55.2480   31.8899  -21.3164 H   0  0  0  0  0  0
   55.8847   33.9721  -22.5298 H   0  0  0  0  0  0
   54.4394   36.0039  -22.3123 H   0  0  0  0  0  0
  1  3  2  0  0  0
  1  6  1  0  0  0
  1 16  1  0  0  0
  2  5  1  0  0  0
  2 24  1  0  0  0
  2 27  1  0  0  0
  4  5  1  0  0  0
  4 18  1  0  0  0
  5 17  2  0  0  0
  6  9  1  0  0  0
  6 32  1  0  0  0
  7  8  2  0  0  0
  8 10  2  0  0  0
  8 25  1  0  0  0
  8 26  1  0  0  0
  9 11  2  0  0  0
  9 15  1  0  0  0
 11 12  1  0  0  0
 11 28  1  0  0  0
 12 13  2  0  0  0
 12 31  1  0  0  0
 13 14  1  0  0  0
 13 33  1  0  0  0
 14 15  2  0  0  0
 14 34  1  0  0  0
 15 35  1  0  0  0
 16 17  1  0  0  0
 16 36  1  0  0  0
 17 19  1  0  0  0
 18 19  2  0  0  0
 18 20  1  0  0  0
 19 37  1  0  0  0
 20 21  1  0  0  0
 20 22  1  0  0  0
 20 23  1  0  0  0
 21 38  1  0  0  0
 21 39  1  0  0  0
 21 40  1  0  0  0
 22 41  1  0  0  0
 22 42  1  0  0  0
 22 43  1  0  0  0
 23 44  1  0  0  0
 23 45  1  0  0  0
 23 46  1  0  0  0
 24 25  1  0  0  0
 24 47  1  0  0  0
 24 48  1  0  0  0
 25 49  1  0  0  0
 25 50  1  0  0  0
 26 27  1  0  0  0
 26 51  1  0  0  0
 26 52  1  0  0  0
 27 53  1  0  0  0
 27 54  1  0  0  0
 28 29  2  0  0  0
 28 55  1  0  0  0
 29 30  1  0  0  0
 29 56  1  0  0  0
 30 31  2  0  0  0
 30 57  1  0  0  0
 31 58  1  0  0  0
M  END
> <s_m_source_file>
../3p7a_ligand.sdf

> <i_m_source_file_index>
1

> <s_epik_input>
W2NIXTFbY0hdW2NIXVtjSF1jKGMxMilbY0hdW2NIXVtjSF1jMltOSF1DKD1PKVtOSF1jM1tjSF1jKEMoW0NIM10pKFtDSDNdKVtDSDNdKXNjM04oW0NIMl1bQ0gyXTQpW0NIMl1bQ0gyXVM0KD1PKT1P

> <s_epik_cmdline>
J2VwaWtfYXBwJywgJy1pbWFlJywgJ2xpZ2FuZF9wcm8ubWFlJywgJy1vbWFlJywgJ2xpZ2FuZF9wcmVwLm1hZScsICctbXMnLCAnMScsICctcGgnLCAnNycsICctcGh0JywgJzAuNScsICctbnQn

> <r_lp_tautomer_probability>
1

> <r_epik_Ionization_Penalty>
  0.0000

> <r_epik_Ionization_Penalty_Charging>
  0.0000

> <r_epik_Ionization_Penalty_Neutral>
  0.0000

> <r_epik_State_Penalty>
 -0.0000

> <r_epik_Charging_Adjusted_Penalty>
0

> <i_epik_Tot_Q>
0

> <i_epik_Tot_abs_Q>
0

$$$$
