3p7b_ligand
                    3D
 Schrodinger Suite 2020-3.
 61 64  0  0  1  0            999 V2000
   49.1100   27.2540  -18.1190 C   0  0  0  0  0  0
   50.0950   28.2640  -19.0980 S   0  0  0  0  0  0
   51.2810   28.5510  -17.8460 C   0  0  0  0  0  0
   50.7630   27.9170  -16.6990 C   0  0  0  0  0  0
   49.5890   27.1900  -16.8100 C   0  0  0  0  0  0
   47.8610   26.6740  -18.7300 C   0  0  0  0  0  0
   48.2680   25.5020  -19.5860 C   0  0  0  0  0  0
   46.8060   26.4070  -17.6760 C   0  0  0  0  0  0
   47.3250   27.6440  -19.7650 C   0  0  0  0  0  0
   51.5340   28.0180  -15.4340 C   0  0  0  0  0  0
   52.6450   28.5010  -15.5110 O   0  0  0  0  0  0
   52.4090   29.3140  -17.9280 N   0  0  0  0  0  0
   52.6360   30.2320  -18.9030 C   0  0  0  0  0  0
   51.6930   30.5480  -19.7680 O   0  0  0  0  0  0
   53.7750   30.8260  -19.0040 N   0  0  0  0  0  0
   54.1420   31.8480  -19.8410 C   0  0  0  0  0  0
   53.4220   33.0600  -19.6660 C   0  0  0  0  0  0
   53.7510   34.1610  -20.4770 C   0  0  0  0  0  0
   54.8240   34.0590  -21.3540 C   0  0  0  0  0  0
   55.5440   32.8740  -21.5490 C   0  0  0  0  0  0
   55.2230   31.7430  -20.7710 C   0  0  0  0  0  0
   56.5850   32.8870  -22.5200 C   0  0  0  0  0  0
   57.3540   31.7460  -22.7020 C   0  0  0  0  0  0
   57.0240   30.6290  -21.9370 C   0  0  0  0  0  0
   56.0080   30.5900  -20.9640 C   0  0  0  0  0  0
   51.0750   27.6290  -14.2290 N   0  0  0  0  0  0
   49.7170   28.1170  -13.9080 C   0  0  0  0  0  0
   49.0580   27.5390  -12.6520 C   0  0  0  0  0  0
   49.6540   28.1480  -11.4350 N   0  0  0  0  0  0
   50.9380   28.2350  -10.9650 C   0  0  0  0  0  0
   52.0240   28.4860  -12.0210 C   0  0  0  0  0  0
   52.0460   27.4110  -13.1220 C   0  0  0  0  0  0
   51.2080   27.6750   -9.8820 O   0  0  0  0  0  0
   49.1099   26.6478  -15.9948 H   0  0  0  0  0  0
   48.6828   24.7082  -18.9475 H   0  0  0  0  0  0
   49.0295   25.8246  -20.3113 H   0  0  0  0  0  0
   47.3887   25.1180  -20.1239 H   0  0  0  0  0  0
   47.2031   25.7030  -16.9299 H   0  0  0  0  0  0
   45.9142   25.9729  -18.1516 H   0  0  0  0  0  0
   46.5348   27.3513  -17.1812 H   0  0  0  0  0  0
   48.0970   27.8320  -20.5258 H   0  0  0  0  0  0
   47.0549   28.5910  -19.2748 H   0  0  0  0  0  0
   46.4343   27.2126  -20.2452 H   0  0  0  0  0  0
   53.2031   29.2044  -17.1748 H   0  0  0  0  0  0
   54.6132   30.5214  -18.3600 H   0  0  0  0  0  0
   52.6315   33.1351  -18.9192 H   0  0  0  0  0  0
   53.1717   35.0825  -20.4183 H   0  0  0  0  0  0
   55.1195   34.9441  -21.9173 H   0  0  0  0  0  0
   56.7757   33.7815  -23.1129 H   0  0  0  0  0  0
   58.1803   31.7246  -23.4126 H   0  0  0  0  0  0
   57.5960   29.7165  -22.1049 H   0  0  0  0  0  0
   55.8331   29.6899  -20.3746 H   0  0  0  0  0  0
   49.7451   29.2062  -13.7565 H   0  0  0  0  0  0
   49.0362   27.8798  -14.7388 H   0  0  0  0  0  0
   47.9795   27.7543  -12.6717 H   0  0  0  0  0  0
   49.2141   26.4505  -12.6239 H   0  0  0  0  0  0
   49.0097   28.6558  -10.7022 H   0  0  0  0  0  0
   51.8475   29.4582  -12.5045 H   0  0  0  0  0  0
   53.0118   28.4911  -11.5371 H   0  0  0  0  0  0
   51.8321   26.4504  -12.6305 H   0  0  0  0  0  0
   53.0680   27.3953  -13.5285 H   0  0  0  0  0  0
  1  2  1  0  0  0
  1  5  2  0  0  0
  1  6  1  0  0  0
  2  3  1  0  0  0
  3  4  2  0  0  0
  3 12  1  0  0  0
  4  5  1  0  0  0
  4 10  1  0  0  0
  5 34  1  0  0  0
  6  7  1  0  0  0
  6  8  1  0  0  0
  6  9  1  0  0  0
  7 35  1  0  0  0
  7 36  1  0  0  0
  7 37  1  0  0  0
  8 38  1  0  0  0
  8 39  1  0  0  0
  8 40  1  0  0  0
  9 41  1  0  0  0
  9 42  1  0  0  0
  9 43  1  0  0  0
 10 11  2  0  0  0
 10 26  1  0  0  0
 12 13  1  0  0  0
 12 44  1  0  0  0
 13 14  2  0  0  0
 13 15  1  0  0  0
 15 16  1  0  0  0
 15 45  1  0  0  0
 16 17  2  0  0  0
 16 21  1  0  0  0
 17 18  1  0  0  0
 17 46  1  0  0  0
 18 19  2  0  0  0
 18 47  1  0  0  0
 19 20  1  0  0  0
 19 48  1  0  0  0
 20 21  2  0  0  0
 20 22  1  0  0  0
 21 25  1  0  0  0
 22 23  2  0  0  0
 22 49  1  0  0  0
 23 24  1  0  0  0
 23 50  1  0  0  0
 24 25  2  0  0  0
 24 51  1  0  0  0
 25 52  1  0  0  0
 26 27  1  0  0  0
 26 32  1  0  0  0
 27 28  1  0  0  0
 27 53  1  0  0  0
 27 54  1  0  0  0
 28 29  1  0  0  0
 28 55  1  0  0  0
 28 56  1  0  0  0
 29 30  1  0  0  0
 29 57  1  0  0  0
 30 31  1  0  0  0
 30 33  2  0  0  0
 31 32  1  0  0  0
 31 58  1  0  0  0
 31 59  1  0  0  0
 32 60  1  0  0  0
 32 61  1  0  0  0
M  END
> <s_m_source_file>
../3p7b_ligand.sdf

> <i_m_source_file_index>
1

> <s_epik_input>
W0NIMl0xW0NIMl1DKD1PKVtOSF1bQ0gyXVtDSDJdTjFDKD1PKWMoW2NIXTIpYyhzYzJDKFtDSDNdKShbQ0gzXSlbQ0gzXSlbTkhdQyg9TylbTkhdYyhbY0hdW2NIXVtjSF0zKWMoYzM0KVtjSF1bY0hdW2NIXVtjSF00

> <s_epik_cmdline>
J2VwaWtfYXBwJywgJy1pbWFlJywgJ2xpZ2FuZF9wcm8ubWFlJywgJy1vbWFlJywgJ2xpZ2FuZF9wcmVwLm1hZScsICctbXMnLCAnMScsICctcGgnLCAnNycsICctcGh0JywgJzAuNScsICctbnQn

> <r_lp_tautomer_probability>
1

> <r_epik_Ionization_Penalty>
  0.0000

> <r_epik_Ionization_Penalty_Charging>
  0.0000

> <r_epik_Ionization_Penalty_Neutral>
  0.0000

> <r_epik_State_Penalty>
 -0.0000

> <r_epik_Charging_Adjusted_Penalty>
0

> <i_epik_Tot_Q>
0

> <i_epik_Tot_abs_Q>
0

$$$$
