3p7c_ligand
                    3D
 Schrodinger Suite 2020-3.
 70 72  0  0  1  0            999 V2000
   55.6660   30.2670  -20.7580 Cl  0  0  0  0  0  0
   47.0200   27.0410  -10.4200 N   0  3  0  0  0  0
   49.2380   28.3290  -19.5760 S   0  0  0  0  0  0
   56.6050   32.3440  -22.9080 Cl  0  0  0  0  0  0
   50.3890   28.5680  -18.3160 C   0  0  0  0  0  0
   49.9100   27.8150  -17.2040 C   0  0  0  0  0  0
   48.7690   27.0690  -17.4310 C   0  0  0  0  0  0
   47.3680   25.5500  -20.2110 C   0  0  0  0  0  0
   45.9980   26.3890  -18.0550 C   0  0  0  0  0  0
   50.7160   27.7720  -15.9470 C   0  0  0  0  0  0
   48.2530   27.2430  -18.7070 C   0  0  0  0  0  0
   51.9080   27.7550  -16.1450 O   0  0  0  0  0  0
   51.4810   29.3740  -18.4030 N   0  0  0  0  0  0
   51.7690   30.2490  -19.3940 C   0  0  0  0  0  0
   46.9650   26.6120  -19.2030 C   0  0  0  0  0  0
   50.7960   30.5180  -20.2560 O   0  0  0  0  0  0
   52.9550   30.8090  -19.5220 N   0  0  0  0  0  0
   53.4010   31.7270  -20.4510 C   0  0  0  0  0  0
   52.6420   32.8450  -20.8190 C   0  0  0  0  0  0
   54.3080   33.6350  -22.3960 C   0  0  0  0  0  0
   55.0920   32.5350  -22.0500 C   0  0  0  0  0  0
   46.1470   27.5360  -20.1240 C   0  0  0  0  0  0
   53.0700   33.7920  -21.7540 C   0  0  0  0  0  0
   54.6280   31.6180  -21.1020 C   0  0  0  0  0  0
   48.9650   28.1130  -14.1700 C   0  0  0  0  0  0
   50.5890   28.1110  -11.4310 C   0  0  0  0  0  0
   50.2730   27.6770  -14.6640 N   0  0  0  0  0  0
   49.1420   29.1560  -13.0740 C   0  0  0  0  0  0
   49.3300   28.5550  -11.7440 N   0  0  0  0  0  0
   51.6190   27.8880  -12.5560 C   0  0  0  0  0  0
   50.8160   27.6800  -10.2970 O   0  0  0  0  0  0
   51.1740   26.9780  -13.7400 C   0  0  0  0  0  0
   48.4470   29.1310  -10.7020 C   0  0  0  0  0  0
   47.0380   28.5420  -10.4850 C   0  0  0  0  0  0
   47.1980   26.4780   -9.0440 C   0  0  0  0  0  0
   45.9670   26.3410  -11.2260 C   0  0  0  0  0  0
   47.9417   26.7850  -10.9631 H   0  0  0  0  0  0
   48.3211   26.4123  -16.6852 H   0  0  0  0  0  0
   47.9781   24.7831  -19.7114 H   0  0  0  0  0  0
   47.9523   26.0144  -21.0191 H   0  0  0  0  0  0
   46.4655   25.0834  -20.6326 H   0  0  0  0  0  0
   46.4633   25.7311  -17.3062 H   0  0  0  0  0  0
   45.0792   25.9190  -18.4356 H   0  0  0  0  0  0
   45.7506   27.3552  -17.5911 H   0  0  0  0  0  0
   52.2441   29.3537  -17.6110 H   0  0  0  0  0  0
   53.7618   30.5552  -18.8187 H   0  0  0  0  0  0
   51.6669   32.9839  -20.3521 H   0  0  0  0  0  0
   54.6469   34.3522  -23.1435 H   0  0  0  0  0  0
   45.2315   27.0172  -20.4444 H   0  0  0  0  0  0
   46.7478   27.7986  -21.0072 H   0  0  0  0  0  0
   45.8774   28.4522  -19.5783 H   0  0  0  0  0  0
   52.4420   34.6526  -21.9845 H   0  0  0  0  0  0
   48.3884   28.5523  -14.9974 H   0  0  0  0  0  0
   48.4204   27.2487  -13.7620 H   0  0  0  0  0  0
   50.0264   29.7721  -13.2936 H   0  0  0  0  0  0
   48.2496   29.7977  -13.0309 H   0  0  0  0  0  0
   51.8856   28.8556  -13.0061 H   0  0  0  0  0  0
   52.5212   27.4166  -12.1390 H   0  0  0  0  0  0
   50.6613   26.0988  -13.3228 H   0  0  0  0  0  0
   52.0753   26.6543  -14.2812 H   0  0  0  0  0  0
   48.9317   29.0390   -9.7188 H   0  0  0  0  0  0
   48.2639   30.1930  -10.9226 H   0  0  0  0  0  0
   46.4072   28.8804  -11.3202 H   0  0  0  0  0  0
   46.6501   28.9545   -9.5420 H   0  0  0  0  0  0
   47.9828   27.0400   -8.5166 H   0  0  0  0  0  0
   47.4900   25.4199   -9.1157 H   0  0  0  0  0  0
   46.2519   26.5605   -8.4889 H   0  0  0  0  0  0
   45.8946   26.8082  -12.2192 H   0  0  0  0  0  0
   44.9980   26.4210  -10.7116 H   0  0  0  0  0  0
   46.2360   25.2804  -11.3384 H   0  0  0  0  0  0
  1 24  1  0  0  0
  2 34  1  0  0  0
  2 35  1  0  0  0
  2 36  1  0  0  0
  2 37  1  0  0  0
  3  5  1  0  0  0
  3 11  1  0  0  0
  4 21  1  0  0  0
  5  6  2  0  0  0
  5 13  1  0  0  0
  6  7  1  0  0  0
  6 10  1  0  0  0
  7 11  2  0  0  0
  7 38  1  0  0  0
  8 15  1  0  0  0
  8 39  1  0  0  0
  8 40  1  0  0  0
  8 41  1  0  0  0
  9 15  1  0  0  0
  9 42  1  0  0  0
  9 43  1  0  0  0
  9 44  1  0  0  0
 10 12  2  0  0  0
 10 27  1  0  0  0
 11 15  1  0  0  0
 13 14  1  0  0  0
 13 45  1  0  0  0
 14 16  2  0  0  0
 14 17  1  0  0  0
 15 22  1  0  0  0
 17 18  1  0  0  0
 17 46  1  0  0  0
 18 19  2  0  0  0
 18 24  1  0  0  0
 19 23  1  0  0  0
 19 47  1  0  0  0
 20 21  1  0  0  0
 20 23  2  0  0  0
 20 48  1  0  0  0
 21 24  2  0  0  0
 22 49  1  0  0  0
 22 50  1  0  0  0
 22 51  1  0  0  0
 23 52  1  0  0  0
 25 27  1  0  0  0
 25 28  1  0  0  0
 25 53  1  0  0  0
 25 54  1  0  0  0
 26 29  1  0  0  0
 26 30  1  0  0  0
 26 31  2  0  0  0
 27 32  1  0  0  0
 28 29  1  0  0  0
 28 55  1  0  0  0
 28 56  1  0  0  0
 29 33  1  0  0  0
 30 32  1  0  0  0
 30 57  1  0  0  0
 30 58  1  0  0  0
 32 59  1  0  0  0
 32 60  1  0  0  0
 33 34  1  0  0  0
 33 61  1  0  0  0
 33 62  1  0  0  0
 34 63  1  0  0  0
 34 64  1  0  0  0
 35 65  1  0  0  0
 35 66  1  0  0  0
 35 67  1  0  0  0
 36 68  1  0  0  0
 36 69  1  0  0  0
 36 70  1  0  0  0
M  CHG  1   2   1
M  END
> <s_m_source_file>
../3p7c_ligand.sdf

> <i_m_source_file_index>
1

> <s_epik_input>
Q2xjMWMoQ2wpW2NIXVtjSF1bY0hdYzFbTkhdQyg9TylbTkhdYzJzYyhDKFtDSDNdKShbQ0gzXSlbQ0gzXSlbY0hdYzJDKD1PKU4oW0NIMl1bQ0gyXTMpW0NIMl1bQ0gyXU4oQzM9TylbQ0gyXVtDSDJdW05IK10oW0NIM10pW0NIM10=

> <s_epik_cmdline>
J2VwaWtfYXBwJywgJy1pbWFlJywgJ2xpZ2FuZF9wcm8ubWFlJywgJy1vbWFlJywgJ2xpZ2FuZF9wcmVwLm1hZScsICctbXMnLCAnMScsICctcGgnLCAnNycsICctcGh0JywgJzAuNScsICctbnQn

> <r_lp_tautomer_probability>
1

> <r_epik_Ionization_Penalty>
  0.0080

> <r_epik_Ionization_Penalty_Charging>
  0.0080

> <r_epik_Ionization_Penalty_Neutral>
  0.0000

> <r_epik_State_Penalty>
 -0.0000

> <r_epik_Charging_Adjusted_Penalty>
0.00796420327380676

> <i_epik_Tot_Q>
1

> <i_epik_Tot_abs_Q>
1

$$$$
