3p8e_ligand
                    3D
 Schrodinger Suite 2020-3.
 39 38  0  0  1  0            999 V2000
  -28.6110   19.3240  -21.6370 C   0  0  0  0  0  0
  -26.9900   19.3210  -23.4910 N   0  3  0  0  0  0
  -27.1870   18.9410  -22.0730 C   0  0  1  0  0  0
  -26.1860   19.6950  -21.1960 C   0  0  0  0  0  0
  -25.2800   20.1170  -18.8760 C   0  0  0  0  0  0
  -25.4480   19.7490  -17.4610 N   0  3  0  0  0  0
  -26.2970   19.3210  -19.7170 C   0  0  0  0  0  0
  -24.6450   20.5560  -16.5190 C   0  0  1  0  0  0
  -29.1200   18.6680  -20.6960 O   0  0  0  0  0  0
  -29.1490   20.2790  -22.2510 O   0  5  0  0  0  0
  -25.0280   22.0260  -16.7910 C   0  0  0  0  0  0
  -25.0130   20.0920  -15.1750 N   0  0  0  0  0  0
  -26.7580   22.1310  -15.0760 C   0  0  0  0  0  0
  -25.8190   22.9920  -14.2230 C   0  0  0  0  0  0
  -26.4940   22.3720  -16.5560 C   0  0  0  0  0  0
  -27.7108   18.7777  -24.1197 H   0  0  0  0  0  0
  -25.9663   19.0638  -23.8007 H   0  0  0  0  0  0
  -27.1466   20.4037  -23.6056 H   0  0  0  0  0  0
  -27.0253   17.8555  -21.9979 H   0  0  0  0  0  0
  -25.1625   19.4636  -21.5258 H   0  0  0  0  0  0
  -26.3637   20.7770  -21.2839 H   0  0  0  0  0  0
  -25.4571   21.1958  -18.9978 H   0  0  0  0  0  0
  -24.2568   19.8747  -19.1989 H   0  0  0  0  0  0
  -26.5019   19.8746  -17.1721 H   0  0  0  0  0  0
  -25.1510   18.6997  -17.3173 H   0  0  0  0  0  0
  -27.3112   19.5478  -19.3566 H   0  0  0  0  0  0
  -26.0960   18.2465  -19.5944 H   0  0  0  0  0  0
  -23.5576   20.4168  -16.6100 H   0  0  0  0  0  0
  -24.4426   22.6852  -16.1331 H   0  0  0  0  0  0
  -24.8139   22.2724  -17.8414 H   0  0  0  0  0  0
  -26.0971   20.2099  -15.0305 H   0  0  0  0  0  0
  -24.7417   19.0315  -15.0662 H   0  0  0  0  0  0
  -26.5886   21.0682  -14.8487 H   0  0  0  0  0  0
  -27.8022   22.3925  -14.8495 H   0  0  0  0  0  0
  -26.0201   22.8084  -13.1572 H   0  0  0  0  0  0
  -25.9884   24.0548  -14.4503 H   0  0  0  0  0  0
  -24.7748   22.7305  -14.4495 H   0  0  0  0  0  0
  -26.6694   23.4248  -16.8220 H   0  0  0  0  0  0
  -27.1280   21.7255  -17.1805 H   0  0  0  0  0  0
  1  3  1  0  0  0
  1  9  2  0  0  0
  1 10  1  0  0  0
  2  3  1  0  0  0
  2 16  1  0  0  0
  2 17  1  0  0  0
  2 18  1  0  0  0
  3  4  1  0  0  0
  3 19  1  0  0  0
  4  7  1  0  0  0
  4 20  1  0  0  0
  4 21  1  0  0  0
  5  6  1  0  0  0
  5  7  1  0  0  0
  5 22  1  0  0  0
  5 23  1  0  0  0
  6  8  1  0  0  0
  6 24  1  0  0  0
  6 25  1  0  0  0
  7 26  1  0  0  0
  7 27  1  0  0  0
  8 11  1  0  0  0
  8 12  1  0  0  0
  8 28  1  0  0  0
 11 15  1  0  0  0
 11 29  1  0  0  0
 11 30  1  0  0  0
 12 31  1  0  0  0
 12 32  1  0  0  0
 13 14  1  0  0  0
 13 15  1  0  0  0
 13 33  1  0  0  0
 13 34  1  0  0  0
 14 35  1  0  0  0
 14 36  1  0  0  0
 14 37  1  0  0  0
 15 38  1  0  0  0
 15 39  1  0  0  0
M  CHG  3   2   1   6   1  10  -1
M  END
> <s_m_source_file>
../3p8e_ligand.sdf

> <i_m_source_file_index>
1

> <s_epik_input>
Tz1DKFtPSF0pW0NAQEhdKFtOSDMrXSlbQ0gyXVtDSDJdW0NIMl1bTkgyK11bQ0BIXShbTkgzK10pW0NIMl1bQ0gyXVtDSDJdW0NIM10=

> <s_epik_cmdline>
J2VwaWtfYXBwJywgJy1pbWFlJywgJ2xpZ2FuZF9wcm8ubWFlJywgJy1vbWFlJywgJ2xpZ2FuZF9wcmVwLm1hZScsICctbXMnLCAnMScsICctcGgnLCAnNycsICctcGh0JywgJzAuNScsICctbnQn

> <r_epik_Ionization_Penalty>
  0.0034

> <r_epik_Ionization_Penalty_Charging>
  0.0033

> <r_epik_Ionization_Penalty_Neutral>
  0.0001

> <r_epik_State_Penalty>
  0.2961

> <r_epik_Charging_Adjusted_Penalty>
0.299350897925565

> <i_epik_Tot_Q>
1

> <i_epik_Tot_abs_Q>
3

> <s_epik_Chemistry_Notes>
This compound contains an acetal/aminal-like group ( X-CH(R)-Y where X, Y are N, S, or O) that may be acid/base labile, releasing an aldehyde.

$$$$
