3p8h_ligand
                    3D
 Schrodinger Suite 2020-3.
 41 43  0  0  1  0            999 V2000
   18.4210   27.8820  -12.6390 C   0  0  0  0  0  0
   17.3370   28.5990  -13.1270 C   0  0  0  0  0  0
   17.4940   29.8390  -13.5600 N   0  0  0  0  0  0
   18.6820   30.4240  -13.5470 C   0  0  0  0  0  0
   19.8120   29.7530  -13.0760 C   0  0  0  0  0  0
   19.6890   28.4540  -12.6010 C   0  0  0  0  0  0
   21.1390   30.5030  -13.0970 C   0  0  0  0  0  0
   18.1370   26.1240  -12.0170 Br  0  0  0  0  0  0
   21.2760   31.4740  -12.3590 O   0  0  0  0  0  0
   22.1070   30.2190  -13.9780 N   0  0  0  0  0  0
   22.0140   29.0590  -14.8850 C   0  0  0  0  0  0
   23.1390   28.1170  -14.4360 C   0  0  0  0  0  0
   23.3850   30.9940  -13.9800 C   0  0  0  0  0  0
   24.5610   30.0470  -13.6540 C   0  0  0  0  0  0
   24.5250   28.7930  -14.5340 C   0  0  0  0  0  0
   25.5730   27.8430  -14.1490 N   0  3  0  0  0  0
   25.7360   26.7830  -15.1690 C   0  0  0  0  0  0
   27.1850   26.2870  -14.9970 C   0  0  0  0  0  0
   27.8290   27.2760  -14.0290 C   0  0  0  0  0  0
   26.9000   28.4810  -14.0800 C   0  0  0  0  0  0
   16.3500   28.1371  -13.1535 H   0  0  0  0  0  0
   18.7792   31.4471  -13.9103 H   0  0  0  0  0  0
   20.5486   27.9060  -12.2150 H   0  0  0  0  0  0
   21.0244   28.5902  -14.7804 H   0  0  0  0  0  0
   22.1533   29.3935  -15.9236 H   0  0  0  0  0  0
   22.9725   27.8195  -13.3902 H   0  0  0  0  0  0
   23.1448   27.2219  -15.0754 H   0  0  0  0  0  0
   23.5398   31.4433  -14.9721 H   0  0  0  0  0  0
   23.3329   31.7890  -13.2215 H   0  0  0  0  0  0
   25.5126   30.5704  -13.8288 H   0  0  0  0  0  0
   24.5011   29.7373  -12.6002 H   0  0  0  0  0  0
   24.7549   29.0762  -15.5717 H   0  0  0  0  0  0
   25.2495   27.4566  -13.1712 H   0  0  0  0  0  0
   25.0067   25.9807  -14.9838 H   0  0  0  0  0  0
   25.5675   27.2079  -16.1695 H   0  0  0  0  0  0
   27.1769   25.2658  -14.5883 H   0  0  0  0  0  0
   27.6910   26.2870  -15.9737 H   0  0  0  0  0  0
   27.8781   26.8278  -13.0256 H   0  0  0  0  0  0
   28.8457   27.5168  -14.3731 H   0  0  0  0  0  0
   27.0533   29.1057  -14.9723 H   0  0  0  0  0  0
   26.9587   29.1087  -13.1785 H   0  0  0  0  0  0
  1  2  2  0  0  0
  1  6  1  0  0  0
  1  8  1  0  0  0
  2  3  1  0  0  0
  2 21  1  0  0  0
  3  4  2  0  0  0
  4  5  1  0  0  0
  4 22  1  0  0  0
  5  6  2  0  0  0
  5  7  1  0  0  0
  6 23  1  0  0  0
  7  9  2  0  0  0
  7 10  1  0  0  0
 10 11  1  0  0  0
 10 13  1  0  0  0
 11 12  1  0  0  0
 11 24  1  0  0  0
 11 25  1  0  0  0
 12 15  1  0  0  0
 12 26  1  0  0  0
 12 27  1  0  0  0
 13 14  1  0  0  0
 13 28  1  0  0  0
 13 29  1  0  0  0
 14 15  1  0  0  0
 14 30  1  0  0  0
 14 31  1  0  0  0
 15 16  1  0  0  0
 15 32  1  0  0  0
 16 17  1  0  0  0
 16 20  1  0  0  0
 16 33  1  0  0  0
 17 18  1  0  0  0
 17 34  1  0  0  0
 17 35  1  0  0  0
 18 19  1  0  0  0
 18 36  1  0  0  0
 18 37  1  0  0  0
 19 20  1  0  0  0
 19 38  1  0  0  0
 19 39  1  0  0  0
 20 40  1  0  0  0
 20 41  1  0  0  0
M  CHG  1  16   1
M  END
> <s_m_source_file>
../3p8h_ligand.sdf

> <i_m_source_file_index>
1

> <s_epik_input>
QnJjMVtjSF1uW2NIXWMoW2NIXTEpQyg9TylOMltDSDJdW0NIMl1bQ0hdKFtDSDJdW0NIMl0yKVtOSCtdM1tDSDJdW0NIMl1bQ0gyXVtDSDJdMw==

> <s_epik_cmdline>
J2VwaWtfYXBwJywgJy1pbWFlJywgJ2xpZ2FuZF9wcm8ubWFlJywgJy1vbWFlJywgJ2xpZ2FuZF9wcmVwLm1hZScsICctbXMnLCAnMScsICctcGgnLCAnNycsICctcGh0JywgJzAuNScsICctbnQn

> <r_lp_tautomer_probability>
1

> <r_epik_Ionization_Penalty>
  0.0010

> <r_epik_Ionization_Penalty_Charging>
  0.0010

> <r_epik_Ionization_Penalty_Neutral>
  0.0000

> <r_epik_State_Penalty>
 -0.0000

> <r_epik_Charging_Adjusted_Penalty>
0.000970387762951412

> <i_epik_Tot_Q>
1

> <i_epik_Tot_abs_Q>
1

$$$$
