3p8n_ligand
                    3D
 Schrodinger Suite 2020-3.
105110  0  0  1  0            999 V2000
   39.5560   43.5470    9.2610 C   0  0  0  0  0  0
   38.5840   43.9950    8.6740 O   0  0  0  0  0  0
   39.8930   42.2390    9.3250 O   0  0  0  0  0  0
   40.3580   41.6240    8.1560 C   0  0  0  0  0  0
   39.3030   41.2110    7.1690 C   0  0  0  0  0  0
   40.1100   40.3010    6.2480 C   0  0  0  0  0  0
   41.1830   39.6900    7.1430 C   0  0  0  0  0  0
   40.9030   40.2540    8.5230 C   0  0  0  0  0  0
   40.4370   44.2910    9.9650 N   0  0  0  0  0  0
   40.2770   45.7120   10.0760 C   0  0  1  0  0  0
   40.6690   46.2710   11.4870 C   0  0  0  0  0  0
   40.4150   47.8080   11.5340 C   0  0  0  0  0  0
   42.1430   45.9980   11.8630 C   0  0  0  0  0  0
   39.7890   45.6120   12.5640 C   0  0  0  0  0  0
   41.0720   46.3460    8.9080 C   0  0  0  0  0  0
   42.2760   46.1600    8.8000 O   0  0  0  0  0  0
   42.2350   48.6520    7.4300 C   0  0  0  0  0  0
   42.0880   49.3350    8.4470 O   0  0  0  0  0  0
   41.1090   47.7680    6.8840 C   0  0  2  0  0  0
   40.0420   48.6660    6.2190 C   0  0  0  0  0  0
   38.7420   47.9190    6.5350 C   0  0  2  0  0  0
   38.9720   47.5450    7.9820 C   0  0  0  0  0  0
   40.3880   47.1470    7.9930 N   0  0  0  0  0  0
   38.7300   46.6450    5.8400 O   0  0  0  0  0  0
   38.2780   46.5400    4.5350 C   0  0  0  0  0  0
   37.6540   47.7160    3.8760 C   0  0  0  0  0  0
   37.2120   47.5760    2.5900 C   0  0  0  0  0  0
   37.3680   46.3570    1.9440 N   0  0  0  0  0  0
   37.9290   45.2120    2.4700 C   0  0  0  0  0  0
   38.4070   45.3420    3.8770 C   0  0  0  0  0  0
   39.0190   44.1310    4.5480 C   0  0  0  0  0  0
   39.0820   42.9000    3.7030 C   0  0  0  0  0  0
   38.6300   42.8420    2.4020 C   0  0  0  0  0  0
   38.0490   44.0420    1.7850 C   0  0  0  0  0  0
   37.4360   43.9710   -0.0320 Br  0  0  0  0  0  0
   38.6670   41.7180    1.5640 O   0  0  0  0  0  0
   39.2120   40.4760    2.0710 C   0  0  0  0  0  0
   36.5670   48.6220    1.8840 C   0  0  0  0  0  0
   36.1570   48.5440    0.5630 C   0  0  0  0  0  0
   35.3980   50.0210    0.1260 S   0  0  0  0  0  0
   35.6870   50.6280    1.7130 C   0  0  0  0  0  0
   36.2920   49.8040    2.5300 N   0  0  0  0  0  0
   35.2970   51.8750    2.1580 N   0  0  0  0  0  0
   34.3700   52.7000    1.5370 C   0  0  0  0  0  0
   33.7950   52.3820    0.4730 O   0  0  0  0  0  0
   34.1280   54.0130    2.3140 C   0  0  0  0  0  0
   32.9280   53.8700    3.2590 C   0  0  0  0  0  0
   33.9400   55.2120    1.3910 C   0  0  0  0  0  0
   43.4120   48.5710    6.7190 N   0  0  0  0  0  0
   44.6800   48.9780    7.2900 C   0  0  1  0  0  0
   45.3080   48.0230    8.3350 C   0  0  1  0  0  0
   45.9130   48.1220    6.9600 C   0  0  0  0  0  0
   46.0320   48.4940    9.5280 C   0  0  0  0  0  0
   45.7280   48.1330   10.7930 C   0  0  0  0  0  0
   44.8960   50.5070    7.2910 C   0  0  0  0  0  0
   45.9840   50.9810    7.7380 O   0  0  0  0  0  0
   43.9630   51.2650    6.7990 O   0  5  0  0  0  0
   41.0211   42.4183    7.7826 H   0  0  0  0  0  0
   38.4895   40.6923    7.6974 H   0  0  0  0  0  0
   38.9027   42.1032    6.6653 H   0  0  0  0  0  0
   39.4492   39.5318    5.8216 H   0  0  0  0  0  0
   40.5494   40.8983    5.4355 H   0  0  0  0  0  0
   41.0949   38.5937    7.1249 H   0  0  0  0  0  0
   42.1775   39.9841    6.7763 H   0  0  0  0  0  0
   41.8028   40.3719    9.1447 H   0  0  0  0  0  0
   40.1403   39.6943    9.0843 H   0  0  0  0  0  0
   41.2857   43.7930   10.4567 H   0  0  0  0  0  0
   39.1975   45.8947    9.9702 H   0  0  0  0  0  0
   41.0333   48.3053   10.7721 H   0  0  0  0  0  0
   40.6799   48.1931   12.5297 H   0  0  0  0  0  0
   39.3526   48.0103   11.3333 H   0  0  0  0  0  0
   42.8038   46.4562   11.1124 H   0  0  0  0  0  0
   42.3188   44.9125   11.8926 H   0  0  0  0  0  0
   42.3554   46.4310   12.8516 H   0  0  0  0  0  0
   38.7288   45.7864   12.3284 H   0  0  0  0  0  0
   40.0229   46.0485   13.5462 H   0  0  0  0  0  0
   39.9863   44.5301   12.5872 H   0  0  0  0  0  0
   41.5468   47.0001    6.2292 H   0  0  0  0  0  0
   40.0781   49.6705    6.6658 H   0  0  0  0  0  0
   40.2435   48.7372    5.1400 H   0  0  0  0  0  0
   37.8237   48.4641    6.2712 H   0  0  0  0  0  0
   38.7705   48.4164    8.6224 H   0  0  0  0  0  0
   38.2971   46.7220    8.2598 H   0  0  0  0  0  0
   37.5514   48.6644    4.4033 H   0  0  0  0  0  0
   39.3872   44.1551    5.5736 H   0  0  0  0  0  0
   39.5093   41.9974    4.1399 H   0  0  0  0  0  0
   39.1630   39.7067    1.2863 H   0  0  0  0  0  0
   38.6273   40.1480    2.9431 H   0  0  0  0  0  0
   40.2597   40.6298    2.3688 H   0  0  0  0  0  0
   36.2940   47.6842   -0.0928 H   0  0  0  0  0  0
   35.7315   52.2910    3.0790 H   0  0  0  0  0  0
   35.0309   54.2155    2.9088 H   0  0  0  0  0  0
   33.0805   53.0014    3.9165 H   0  0  0  0  0  0
   32.0112   53.7263    2.6683 H   0  0  0  0  0  0
   32.8318   54.7798    3.8698 H   0  0  0  0  0  0
   34.8085   55.2991    0.7215 H   0  0  0  0  0  0
   33.8483   56.1277    1.9935 H   0  0  0  0  0  0
   33.0277   55.0742    0.7921 H   0  0  0  0  0  0
   43.3710   48.1843    5.6900 H   0  0  0  0  0  0
   44.9371   47.2162    8.9842 H   0  0  0  0  0  0
   45.6803   47.4529    6.1185 H   0  0  0  0  0  0
   46.7521   48.7782    6.6855 H   0  0  0  0  0  0
   46.8683   49.1830    9.3386 H   0  0  0  0  0  0
   44.8917   47.4440   10.9824 H   0  0  0  0  0  0
   46.3167   48.5279   11.6342 H   0  0  0  0  0  0
  1  2  2  0  0  0
  1  3  1  0  0  0
  1  9  1  0  0  0
  3  4  1  0  0  0
  4  5  1  0  0  0
  4  8  1  0  0  0
  4 58  1  0  0  0
  5  6  1  0  0  0
  5 59  1  0  0  0
  5 60  1  0  0  0
  6  7  1  0  0  0
  6 61  1  0  0  0
  6 62  1  0  0  0
  7  8  1  0  0  0
  7 63  1  0  0  0
  7 64  1  0  0  0
  8 65  1  0  0  0
  8 66  1  0  0  0
  9 10  1  0  0  0
  9 67  1  0  0  0
 10 11  1  0  0  0
 10 15  1  0  0  0
 10 68  1  0  0  0
 11 12  1  0  0  0
 11 13  1  0  0  0
 11 14  1  0  0  0
 12 69  1  0  0  0
 12 70  1  0  0  0
 12 71  1  0  0  0
 13 72  1  0  0  0
 13 73  1  0  0  0
 13 74  1  0  0  0
 14 75  1  0  0  0
 14 76  1  0  0  0
 14 77  1  0  0  0
 15 16  2  0  0  0
 15 23  1  0  0  0
 17 18  2  0  0  0
 17 19  1  0  0  0
 17 49  1  0  0  0
 19 20  1  0  0  0
 19 23  1  0  0  0
 19 78  1  0  0  0
 20 21  1  0  0  0
 20 79  1  0  0  0
 20 80  1  0  0  0
 21 22  1  0  0  0
 21 24  1  0  0  0
 21 81  1  0  0  0
 22 23  1  0  0  0
 22 82  1  0  0  0
 22 83  1  0  0  0
 24 25  1  0  0  0
 25 26  2  0  0  0
 25 30  1  0  0  0
 26 27  1  0  0  0
 26 84  1  0  0  0
 27 28  2  0  0  0
 27 38  1  0  0  0
 28 29  1  0  0  0
 29 30  2  0  0  0
 29 34  1  0  0  0
 30 31  1  0  0  0
 31 32  2  0  0  0
 31 85  1  0  0  0
 32 33  1  0  0  0
 32 86  1  0  0  0
 33 34  2  0  0  0
 33 36  1  0  0  0
 34 35  1  0  0  0
 36 37  1  0  0  0
 37 87  1  0  0  0
 37 88  1  0  0  0
 37 89  1  0  0  0
 38 39  2  0  0  0
 38 42  1  0  0  0
 39 40  1  0  0  0
 39 90  1  0  0  0
 40 41  1  0  0  0
 41 42  2  0  0  0
 41 43  1  0  0  0
 43 44  1  0  0  0
 43 91  1  0  0  0
 44 45  2  0  0  0
 44 46  1  0  0  0
 46 47  1  0  0  0
 46 48  1  0  0  0
 46 92  1  0  0  0
 47 93  1  0  0  0
 47 94  1  0  0  0
 47 95  1  0  0  0
 48 96  1  0  0  0
 48 97  1  0  0  0
 48 98  1  0  0  0
 49 50  1  0  0  0
 49 99  1  0  0  0
 50 51  1  0  0  0
 50 52  1  0  0  0
 50 55  1  0  0  0
 51 52  1  0  0  0
 51 53  1  0  0  0
 51100  1  0  0  0
 52101  1  0  0  0
 52102  1  0  0  0
 53 54  2  0  0  0
 53103  1  0  0  0
 54104  1  0  0  0
 54105  1  0  0  0
 55 56  2  0  0  0
 55 57  1  0  0  0
M  CHG  1  57  -1
M  END
> <s_m_source_file>
../3p8n_ligand.sdf

> <i_m_source_file_index>
1

> <s_epik_input>
W0NIMl0xW0NIMl1bQ0gyXVtDSDJdW0NIXTFPQyg9TylbTkhdW0NAQEhdKEMoW0NIM10pKFtDSDNdKVtDSDNdKUMoPU8pTjJbQ0gyXVtDQEBIXShbQ0gyXVtDQEhdMkMoPU8pW05IXVtDQEBdMyhDKD1PKVtPSF0pW0NAQEhdKFtDSDJdMylbQ0hdPVtDSDJdKU9jKGMoYzQ1KVtjSF1bY0hdYyhjNUJyKU9bQ0gzXSlbY0hdYyhuNCktYzZbY0hdc2MobjYpW05IXUMoPU8pW0NIXShbQ0gzXSlbQ0gzXQ==

> <s_epik_cmdline>
J2VwaWtfYXBwJywgJy1pbWFlJywgJ2xpZ2FuZF9wcm8ubWFlJywgJy1vbWFlJywgJ2xpZ2FuZF9wcmVwLm1hZScsICctbXMnLCAnMScsICctcGgnLCAnNycsICctcGh0JywgJzAuNScsICctbnQn

> <r_lp_tautomer_probability>
0.999000488399163

> <r_epik_Ionization_Penalty>
  0.0164

> <r_epik_Ionization_Penalty_Charging>
  0.0002

> <r_epik_Ionization_Penalty_Neutral>
  0.0162

> <r_epik_State_Penalty>
  0.0126

> <r_epik_Charging_Adjusted_Penalty>
0.012860219351421

> <i_epik_Tot_Q>
-1

> <i_epik_Tot_abs_Q>
1

> <s_epik_Chemistry_Notes>
This compound has an ester and may undergo hydrolysis at high or low pH.

$$$$
