3p8o_ligand
                    3D
 Schrodinger Suite 2020-3.
106111  0  0  1  0            999 V2000
   39.3910   43.6490    9.1590 C   0  0  0  0  0  0
   38.4250   44.1980    8.6310 O   0  0  0  0  0  0
   39.6410   42.3070    9.1430 O   0  0  0  0  0  0
   40.2030   41.8230    7.9240 C   0  0  0  0  0  0
   39.1860   41.4170    6.8790 C   0  0  0  0  0  0
   40.0130   40.5700    5.9240 C   0  0  0  0  0  0
   41.1510   40.0210    6.7640 C   0  0  0  0  0  0
   40.8660   40.4880    8.1760 C   0  0  0  0  0  0
   40.3560   44.2980    9.8410 N   0  0  0  0  0  0
   40.3310   45.7440   10.0270 C   0  0  1  0  0  0
   40.6980   46.2380   11.4890 C   0  0  0  0  0  0
   40.3290   47.7380   11.6410 C   0  0  0  0  0  0
   42.1910   46.0460   11.8710 C   0  0  0  0  0  0
   39.8470   45.4590   12.5290 C   0  0  0  0  0  0
   41.1520   46.4010    8.8750 C   0  0  0  0  0  0
   42.3650   46.1780    8.7410 O   0  0  0  0  0  0
   42.4120   48.8250    7.3930 C   0  0  0  0  0  0
   42.2690   49.5590    8.3660 O   0  0  0  0  0  0
   41.2690   47.9120    6.8780 C   0  0  2  0  0  0
   40.2100   48.7750    6.1530 C   0  0  0  0  0  0
   38.8900   48.0510    6.4260 C   0  0  2  0  0  0
   39.0920   47.6520    7.8880 C   0  0  0  0  0  0
   40.5120   47.2680    7.9690 N   0  0  0  0  0  0
   38.8640   46.8100    5.6310 O   0  0  0  0  0  0
   38.3130   46.8000    4.3220 C   0  0  0  0  0  0
   37.6450   48.0290    3.8090 C   0  0  0  0  0  0
   37.1000   48.0380    2.5440 C   0  0  0  0  0  0
   37.1790   46.8680    1.7750 N   0  3  0  0  0  0
   37.7810   45.6650    2.1580 C   0  0  0  0  0  0
   38.3740   45.6560    3.5450 C   0  0  0  0  0  0
   39.0400   44.3840    4.0340 C   0  0  0  0  0  0
   39.0180   43.2210    3.0600 C   0  0  0  0  0  0
   38.4560   43.2870    1.8140 C   0  0  0  0  0  0
   37.8230   44.5500    1.3750 C   0  0  0  0  0  0
   38.3880   42.2520    0.8380 O   0  0  0  0  0  0
   38.9550   40.9570    1.1230 C   0  0  0  0  0  0
   36.4460   49.1950    2.0070 C   0  0  0  0  0  0
   35.9450   49.3030    0.7210 C   0  0  0  0  0  0
   35.2320   50.8320    0.5200 S   0  0  0  0  0  0
   35.6510   51.2470    2.1330 C   0  0  0  0  0  0
   36.2720   50.3090    2.8060 N   0  0  0  0  0  0
   35.3470   52.4570    2.7260 N   0  0  0  0  0  0
   34.4130   53.3720    2.2690 C   0  0  0  0  0  0
   33.7420   53.1860    1.2430 O   0  0  0  0  0  0
   34.2980   54.6330    3.1710 C   0  0  0  0  0  0
   32.8670   54.8310    3.7030 C   0  0  0  0  0  0
   34.7800   55.8890    2.4270 C   0  0  0  0  0  0
   43.5900   48.6820    6.6840 N   0  0  0  0  0  0
   44.9010   49.0280    7.2350 C   0  0  1  0  0  0
   45.4820   48.0500    8.2870 C   0  0  1  0  0  0
   46.0750   48.0900    6.9110 C   0  0  0  0  0  0
   46.2690   48.4510    9.4510 C   0  0  0  0  0  0
   45.8400   48.3800   10.7210 C   0  0  0  0  0  0
   45.2370   50.5360    7.1940 C   0  0  0  0  0  0
   44.3610   51.3290    6.7000 O   0  5  0  0  0  0
   46.3480   50.9470    7.6170 O   0  0  0  0  0  0
   40.8278   42.6804    7.6334 H   0  0  0  0  0  0
   38.3743   40.8499    7.3582 H   0  0  0  0  0  0
   38.7719   42.3171    6.4012 H   0  0  0  0  0  0
   39.3875   39.7635    5.5137 H   0  0  0  0  0  0
   40.3842   41.2003    5.1024 H   0  0  0  0  0  0
   41.1603   38.9231    6.6961 H   0  0  0  0  0  0
   42.1065   40.4194    6.3922 H   0  0  0  0  0  0
   41.7754   40.6378    8.7765 H   0  0  0  0  0  0
   40.1717   39.8306    8.7198 H   0  0  0  0  0  0
   41.1795   43.7033   10.2631 H   0  0  0  0  0  0
   39.2674   46.0027    9.9183 H   0  0  0  0  0  0
   40.9097   48.3332   10.9210 H   0  0  0  0  0  0
   40.5610   48.0709   12.6634 H   0  0  0  0  0  0
   39.2548   47.8729   11.4463 H   0  0  0  0  0  0
   42.8256   46.5862   11.1530 H   0  0  0  0  0  0
   42.4406   44.9750   11.8475 H   0  0  0  0  0  0
   42.3642   46.4408   12.8830 H   0  0  0  0  0  0
   38.7797   45.5731   12.2887 H   0  0  0  0  0  0
   40.0411   45.8591   13.5351 H   0  0  0  0  0  0
   40.1176   44.3932   12.4997 H   0  0  0  0  0  0
   41.7362   47.1261    6.2664 H   0  0  0  0  0  0
   40.2180   49.7926    6.5706 H   0  0  0  0  0  0
   40.4443   48.8175    5.0791 H   0  0  0  0  0  0
   37.9747   48.6114    6.1849 H   0  0  0  0  0  0
   38.8598   48.5090    8.5374 H   0  0  0  0  0  0
   38.4243   46.8134    8.1349 H   0  0  0  0  0  0
   37.5876   48.9201    4.4341 H   0  0  0  0  0  0
   39.5029   44.3105    5.0181 H   0  0  0  0  0  0
   39.4750   42.2811    3.3697 H   0  0  0  0  0  0
   37.3712   44.5907    0.3839 H   0  0  0  0  0  0
   38.8076   40.2938    0.2579 H   0  0  0  0  0  0
   38.4586   40.5254    2.0047 H   0  0  0  0  0  0
   40.0312   41.0641    1.3238 H   0  0  0  0  0  0
   35.9995   48.5279   -0.0434 H   0  0  0  0  0  0
   35.8669   52.7651    3.6451 H   0  0  0  0  0  0
   34.9510   54.4819    4.0432 H   0  0  0  0  0  0
   32.5430   53.9219    4.2308 H   0  0  0  0  0  0
   32.1869   55.0284    2.8612 H   0  0  0  0  0  0
   32.8486   55.6842    4.3971 H   0  0  0  0  0  0
   35.8026   55.7256    2.0561 H   0  0  0  0  0  0
   34.7720   56.7479    3.1142 H   0  0  0  0  0  0
   34.1103   56.0921    1.5784 H   0  0  0  0  0  0
   43.5104   48.2877    5.6602 H   0  0  0  0  0  0
   45.0557   47.2928    8.9615 H   0  0  0  0  0  0
   45.7934   47.4227    6.0831 H   0  0  0  0  0  0
   46.9515   48.6870    6.6189 H   0  0  0  0  0  0
   47.2772   48.8322    9.2315 H   0  0  0  0  0  0
   44.8318   47.9988   10.9405 H   0  0  0  0  0  0
   46.4967   48.7030   11.5422 H   0  0  0  0  0  0
   36.7408   46.8421    0.7664 H   0  0  0  0  0  0
  1  2  2  0  0  0
  1  3  1  0  0  0
  1  9  1  0  0  0
  3  4  1  0  0  0
  4  5  1  0  0  0
  4  8  1  0  0  0
  4 57  1  0  0  0
  5  6  1  0  0  0
  5 58  1  0  0  0
  5 59  1  0  0  0
  6  7  1  0  0  0
  6 60  1  0  0  0
  6 61  1  0  0  0
  7  8  1  0  0  0
  7 62  1  0  0  0
  7 63  1  0  0  0
  8 64  1  0  0  0
  8 65  1  0  0  0
  9 10  1  0  0  0
  9 66  1  0  0  0
 10 11  1  0  0  0
 10 15  1  0  0  0
 10 67  1  0  0  0
 11 12  1  0  0  0
 11 13  1  0  0  0
 11 14  1  0  0  0
 12 68  1  0  0  0
 12 69  1  0  0  0
 12 70  1  0  0  0
 13 71  1  0  0  0
 13 72  1  0  0  0
 13 73  1  0  0  0
 14 74  1  0  0  0
 14 75  1  0  0  0
 14 76  1  0  0  0
 15 16  2  0  0  0
 15 23  1  0  0  0
 17 18  2  0  0  0
 17 19  1  0  0  0
 17 48  1  0  0  0
 19 20  1  0  0  0
 19 23  1  0  0  0
 19 77  1  0  0  0
 20 21  1  0  0  0
 20 78  1  0  0  0
 20 79  1  0  0  0
 21 22  1  0  0  0
 21 24  1  0  0  0
 21 80  1  0  0  0
 22 23  1  0  0  0
 22 81  1  0  0  0
 22 82  1  0  0  0
 24 25  1  0  0  0
 25 26  2  0  0  0
 25 30  1  0  0  0
 26 27  1  0  0  0
 26 83  1  0  0  0
 27 28  2  0  0  0
 27 37  1  0  0  0
 28 29  1  0  0  0
 28106  1  0  0  0
 29 30  2  0  0  0
 29 34  1  0  0  0
 30 31  1  0  0  0
 31 32  2  0  0  0
 31 84  1  0  0  0
 32 33  1  0  0  0
 32 85  1  0  0  0
 33 34  2  0  0  0
 33 35  1  0  0  0
 34 86  1  0  0  0
 35 36  1  0  0  0
 36 87  1  0  0  0
 36 88  1  0  0  0
 36 89  1  0  0  0
 37 38  2  0  0  0
 37 41  1  0  0  0
 38 39  1  0  0  0
 38 90  1  0  0  0
 39 40  1  0  0  0
 40 41  2  0  0  0
 40 42  1  0  0  0
 42 43  1  0  0  0
 42 91  1  0  0  0
 43 44  2  0  0  0
 43 45  1  0  0  0
 45 46  1  0  0  0
 45 47  1  0  0  0
 45 92  1  0  0  0
 46 93  1  0  0  0
 46 94  1  0  0  0
 46 95  1  0  0  0
 47 96  1  0  0  0
 47 97  1  0  0  0
 47 98  1  0  0  0
 48 49  1  0  0  0
 48 99  1  0  0  0
 49 50  1  0  0  0
 49 51  1  0  0  0
 49 54  1  0  0  0
 50 51  1  0  0  0
 50 52  1  0  0  0
 50100  1  0  0  0
 51101  1  0  0  0
 51102  1  0  0  0
 52 53  2  0  0  0
 52103  1  0  0  0
 53104  1  0  0  0
 53105  1  0  0  0
 54 55  1  0  0  0
 54 56  2  0  0  0
M  CHG  2  28   1  55  -1
M  END
> <s_m_source_file>
../3p8o_ligand.sdf

> <i_m_source_file_index>
1

> <s_epik_input>
W0NIMl0xW0NIMl1bQ0gyXVtDSDJdW0NIXTFPQyg9TylbTkhdW0NAQEhdKEMoW0NIM10pKFtDSDNdKVtDSDNdKUMoPU8pTjJbQ0gyXVtDQEBIXShbQ0gyXVtDQEhdMkMoPU8pW05IXVtDQEBdMyhDKD1PKVtPSF0pW0NAQEhdKFtDSDJdMylbQ0hdPVtDSDJdKU9jKGMoYzQ1KVtjSF1bY0hdYyhbY0hdNSlPW0NIM10pW2NIXWMobjQpLWM2W2NIXXNjKG42KVtOSF1DKD1PKVtDSF0oW0NIM10pW0NIM10=

> <s_epik_cmdline>
J2VwaWtfYXBwJywgJy1pbWFlJywgJ2xpZ2FuZF9wcm8ubWFlJywgJy1vbWFlJywgJ2xpZ2FuZF9wcmVwLm1hZScsICctbXMnLCAnMScsICctcGgnLCAnNycsICctcGh0JywgJzAuNScsICctbnQn

> <r_lp_tautomer_probability>
0.999000488399163

> <r_epik_Ionization_Penalty>
  0.2038

> <r_epik_Ionization_Penalty_Charging>
  0.2034

> <r_epik_Ionization_Penalty_Neutral>
  0.0003

> <r_epik_State_Penalty>
  0.1931

> <r_epik_Charging_Adjusted_Penalty>
0.396510055804755

> <i_epik_Tot_Q>
0

> <i_epik_Tot_abs_Q>
2

> <s_epik_Chemistry_Notes>
This compound has an ester and may undergo hydrolysis at high or low pH.

$$$$
