3p8p_ligand
                    3D
 Schrodinger Suite 2020-3.
 37 36  0  0  1  0            999 V2000
   -5.0290   -2.1700   21.6250 C   0  0  0  0  0  0
   -3.3510   -2.3420   23.3930 N   0  3  0  0  0  0
   -3.5890   -1.8460   22.0300 C   0  0  1  0  0  0
   -2.6060   -2.5130   21.0650 C   0  0  0  0  0  0
   -1.5010   -2.3580   18.7970 C   0  0  0  0  0  0
   -1.7530   -3.7240   18.3140 N   0  0  0  0  0  0
   -2.6410   -1.8530   19.6850 C   0  0  0  0  0  0
   -2.7150   -3.9780   17.4310 C   0  0  0  0  0  0
   -5.4610   -1.6510   20.5730 O   0  5  0  0  0  0
   -5.6710   -2.9270   22.3840 O   0  0  0  0  0  0
   -2.9470   -5.4120   16.9510 C   0  0  0  0  0  0
   -3.4450   -2.9860   16.9280 N   0  3  0  0  0  0
   -1.5290   -5.0880   14.8910 C   0  0  0  0  0  0
   -0.3490   -5.6200   14.0740 C   0  0  0  0  0  0
   -1.7490   -5.9280   16.1510 C   0  0  0  0  0  0
   -4.0576   -1.8624   24.0863 H   0  0  0  0  0  0
   -2.3209   -2.1027   23.6956 H   0  0  0  0  0  0
   -3.4964   -3.4321   23.4171 H   0  0  0  0  0  0
   -3.4287   -0.7578   22.0351 H   0  0  0  0  0  0
   -1.5850   -2.4290   21.4655 H   0  0  0  0  0  0
   -2.8686   -3.5750   20.9500 H   0  0  0  0  0  0
   -0.5712   -2.3426   19.3846 H   0  0  0  0  0  0
   -1.4033   -1.6776   17.9382 H   0  0  0  0  0  0
   -1.1403   -4.5597   18.6832 H   0  0  0  0  0  0
   -3.5968   -2.0843   19.1921 H   0  0  0  0  0  0
   -2.5405   -0.7633   19.7970 H   0  0  0  0  0  0
   -3.0984   -6.0695   17.8198 H   0  0  0  0  0  0
   -3.8386   -5.4436   16.3075 H   0  0  0  0  0  0
   -3.2809   -1.9538   17.2708 H   0  0  0  0  0  0
   -1.3283   -4.0490   15.1912 H   0  0  0  0  0  0
   -2.4433   -5.1231   14.2804 H   0  0  0  0  0  0
   -0.2146   -4.9984   13.1764 H   0  0  0  0  0  0
   -0.5497   -6.6590   13.7738 H   0  0  0  0  0  0
    0.5653   -5.5848   14.6846 H   0  0  0  0  0  0
   -0.8430   -5.8757   16.7727 H   0  0  0  0  0  0
   -1.9292   -6.9713   15.8526 H   0  0  0  0  0  0
   -4.2127   -3.1980   16.1693 H   0  0  0  0  0  0
  1  3  1  0  0  0
  1  9  1  0  0  0
  1 10  2  0  0  0
  2  3  1  0  0  0
  2 16  1  0  0  0
  2 17  1  0  0  0
  2 18  1  0  0  0
  3  4  1  0  0  0
  3 19  1  0  0  0
  4  7  1  0  0  0
  4 20  1  0  0  0
  4 21  1  0  0  0
  5  6  1  0  0  0
  5  7  1  0  0  0
  5 22  1  0  0  0
  5 23  1  0  0  0
  6  8  1  0  0  0
  6 24  1  0  0  0
  7 25  1  0  0  0
  7 26  1  0  0  0
  8 11  1  0  0  0
  8 12  2  0  0  0
 11 15  1  0  0  0
 11 27  1  0  0  0
 11 28  1  0  0  0
 12 29  1  0  0  0
 12 37  1  0  0  0
 13 14  1  0  0  0
 13 15  1  0  0  0
 13 30  1  0  0  0
 13 31  1  0  0  0
 14 32  1  0  0  0
 14 33  1  0  0  0
 14 34  1  0  0  0
 15 35  1  0  0  0
 15 36  1  0  0  0
M  CHG  3   2   1   9  -1  12   1
M  END
> <s_m_source_file>
../3p8p_ligand.sdf

> <i_m_source_file_index>
1

> <s_epik_input>
W09IXUMoPU8pW0NAQEhdKFtOSDMrXSlbQ0gyXVtDSDJdW0NIMl1bTkhdL0MoPU4vW0hdKVtDSDJdW0NIMl1bQ0gyXVtDSDNd

> <s_epik_cmdline>
J2VwaWtfYXBwJywgJy1pbWFlJywgJ2xpZ2FuZF9wcm8ubWFlJywgJy1vbWFlJywgJ2xpZ2FuZF9wcmVwLm1hZScsICctbXMnLCAnMScsICctcGgnLCAnNycsICctcGh0JywgJzAuNScsICctbnQn

> <r_lp_tautomer_probability>
1

> <r_epik_Ionization_Penalty>
  0.0016

> <r_epik_Ionization_Penalty_Charging>
  0.0016

> <r_epik_Ionization_Penalty_Neutral>
  0.0000

> <r_epik_State_Penalty>
 -0.0000

> <r_epik_Charging_Adjusted_Penalty>
0.00159791013136104

> <i_epik_Tot_Q>
1

> <i_epik_Tot_abs_Q>
3

> <s_epik_Chemistry_Notes>
This compound has an imine and may undergo hydrolysis.

$$$$
