3p9h_ligand
                    3D
 Schrodinger Suite 2020-3.
159163  0  0  1  0            999 V2000
   -6.8660    2.8850   -5.1540 C   0  0  0  0  0  0
   -5.7000    3.2680   -5.2840 O   0  0  0  0  0  0
   -7.6660    2.4410   -6.3490 C   0  0  0  0  0  0
   -7.4690    2.8250   -3.9530 N   0  0  0  0  0  0
   -6.7930    3.2330   -2.7210 C   0  0  2  0  0  0
   -5.3250    2.8210   -2.6730 C   0  0  0  0  0  0
   -4.9760    1.6990   -3.0070 O   0  0  0  0  0  0
   -7.6380    2.5720   -1.6430 C   0  0  0  0  0  0
   -9.0190    2.7450   -2.2050 C   0  0  0  0  0  0
   -8.8180    2.3130   -3.6550 C   0  0  0  0  0  0
   -4.4700    3.7540   -2.2770 N   0  0  0  0  0  0
   -3.0390    3.4870   -2.1580 C   0  0  2  0  0  0
   -2.6380    4.1080   -0.8370 C   0  0  0  0  0  0
   -2.9070    5.2860   -0.6050 O   0  0  0  0  0  0
   -2.2590    4.1550   -3.3040 C   0  0  0  0  0  0
   -0.7290    4.1290   -3.1450 C   0  0  0  0  0  0
    0.0050    5.0360   -4.1400 C   0  0  0  0  0  0
   -0.2070    4.9120   -5.3680 O   0  0  0  0  0  0
    0.8130    5.8790   -3.6970 O   0  0  0  0  0  0
   -1.1990    5.3430    1.2550 C   0  0  0  0  0  0
   -2.0180    3.3210    0.0540 N   0  0  0  0  0  0
   -0.3470    5.7100    0.4480 O   0  0  0  0  0  0
   -1.2670    0.0740    2.8240 N   0  0  0  0  0  0
   -1.7910    0.9110    1.9410 O   0  0  0  0  0  0
    4.3040   -2.5540    4.6700 C   0  0  0  0  0  0
    3.3260   -2.5320    5.7030 O   0  0  0  0  0  0
    1.5190   -4.4430    6.8410 O   0  0  0  0  0  0
    1.0900   -3.5760    5.8000 C   0  0  0  0  0  0
    1.9900   -2.6320    5.2340 C   0  0  0  0  0  0
   -0.2500   -3.6370    5.3330 C   0  0  0  0  0  0
   -1.6030    3.8700    1.3480 C   0  0  1  0  0  0
   -0.4370    2.9670    1.7390 C   0  0  0  0  0  0
   -1.3660    2.0200   -0.1960 C   0  0  0  0  0  0
   -0.8550    1.6380    1.1840 C   0  0  2  0  0  0
    1.5410   -1.7560    4.2090 C   0  0  0  0  0  0
   -0.6920   -2.7610    4.3100 C   0  0  0  0  0  0
    0.2030   -1.8170    3.7480 C   0  0  0  0  0  0
   -0.3570   -0.7340    2.5480 C   0  0  0  0  0  0
    1.6970   -5.7890    6.4190 C   0  0  0  0  0  0
   -1.8250    6.1900    2.0660 N   0  0  0  0  0  0
   -1.4960    7.6160    2.0830 C   0  0  2  0  0  0
   -1.6040    8.1500    3.5050 C   0  0  0  0  0  0
   -2.4190    7.6710    4.2930 O   0  0  0  0  0  0
   -2.4390    8.4520    1.1870 C   0  0  2  0  0  0
   -3.7950    8.2730    1.6110 O   0  0  0  0  0  0
   -2.2970    8.0490   -0.2730 C   0  0  0  0  0  0
   -0.7770    9.1390    3.8220 N   0  0  0  0  0  0
   -0.7700    9.7470    5.1450 C   0  0  2  0  0  0
   -0.5810   11.2510    5.0010 C   0  0  0  0  0  0
    0.0070   11.7170    4.0260 O   0  0  0  0  0  0
    0.3530    9.1590    5.9850 C   0  0  0  0  0  0
   -1.0850   12.0310    5.9710 N   0  0  0  0  0  0
   -0.9610   13.4920    5.9380 C   0  0  2  0  0  0
    0.4890   13.9560    6.0890 C   0  0  0  0  0  0
    1.2960   13.2940    6.7340 O   0  0  0  0  0  0
   -1.8430   13.9340    7.1020 C   0  0  0  0  0  0
   -1.6930   12.8070    8.0780 C   0  0  0  0  0  0
   -1.8040   11.5930    7.1820 C   0  0  0  0  0  0
    0.8360   15.1040    5.4870 N   0  0  0  0  0  0
    2.2050   15.6220    5.5800 C   0  0  2  0  0  0
    2.6150   15.9330    7.0150 C   0  0  0  0  0  0
    1.8050   16.4010    7.8150 O   0  0  0  0  0  0
    2.1650   16.8650    4.6930 C   0  0  0  0  0  0
    0.7470   17.3180    4.8040 C   0  0  0  0  0  0
   -0.0200   16.0200    4.7140 C   0  0  0  0  0  0
    3.8770   15.6680    7.3380 N   0  0  0  0  0  0
    4.3770   15.9110    8.6830 C   0  0  2  0  0  0
    4.1530   17.3570    9.0980 C   0  0  0  0  0  0
    4.3180   18.2800    8.2990 O   0  0  0  0  0  0
    5.8700   15.5780    8.7770 C   0  0  0  0  0  0
    6.4270   15.7070   10.1900 C   0  0  0  0  0  0
    5.8830   14.6480   11.1340 C   0  0  0  0  0  0
    5.9250   14.8670   12.3650 O   0  0  0  0  0  0
    5.4270   13.5910   10.6480 O   0  0  0  0  0  0
    3.7750   17.5410   10.3570 N   0  0  0  0  0  0
    3.5170   18.8640   10.9060 C   0  0  2  0  0  0
    4.4340   19.1440   12.0910 C   0  0  0  0  0  0
    4.7220   20.2970   12.4090 O   0  0  0  0  0  0
    2.0580   18.9610   11.3480 C   0  0  0  0  0  0
    1.0580   18.8790   10.2110 C   0  0  0  0  0  0
   -0.3570   18.6400   10.7010 C   0  0  0  0  0  0
   -0.6110   18.8460   11.9060 O   0  0  0  0  0  0
   -1.2160   18.2530    9.8800 O   0  0  0  0  0  0
    4.8980   18.0920   12.7560 N   0  0  0  0  0  0
   -7.0545    2.5422   -7.2578 H   0  0  0  0  0  0
   -8.5659    3.0669   -6.4409 H   0  0  0  0  0  0
   -7.9623    1.3893   -6.2217 H   0  0  0  0  0  0
   -6.7538    4.3295   -2.6425 H   0  0  0  0  0  0
   -7.3385    1.5189   -1.5367 H   0  0  0  0  0  0
   -7.4869    3.0945   -0.6869 H   0  0  0  0  0  0
   -9.7220    2.1026   -1.6544 H   0  0  0  0  0  0
   -9.3269    3.7962   -2.1042 H   0  0  0  0  0  0
   -9.5442    2.7711   -4.3426 H   0  0  0  0  0  0
   -8.8318    1.2204   -3.7818 H   0  0  0  0  0  0
   -4.8653    4.7516   -2.0351 H   0  0  0  0  0  0
   -2.8646    2.4016   -2.1971 H   0  0  0  0  0  0
   -2.4878    3.6432   -4.2504 H   0  0  0  0  0  0
   -2.5517    5.2127   -3.3791 H   0  0  0  0  0  0
   -0.4598    4.4650   -2.1328 H   0  0  0  0  0  0
   -0.3615    3.1040   -3.3009 H   0  0  0  0  0  0
    0.3175    5.5607   -6.0850 H   0  0  0  0  0  0
    5.3074   -2.4726    5.1133 H   0  0  0  0  0  0
    4.1351   -1.7083    3.9871 H   0  0  0  0  0  0
    4.2256   -3.4981    4.1109 H   0  0  0  0  0  0
   -0.9419   -4.3610    5.7634 H   0  0  0  0  0  0
   -2.4360    3.8549    2.0663 H   0  0  0  0  0  0
    0.4896    3.3471    1.2842 H   0  0  0  0  0  0
   -0.3312    2.9581    2.8339 H   0  0  0  0  0  0
   -2.1068    1.3082   -0.5892 H   0  0  0  0  0  0
   -0.5571    2.1503   -0.9300 H   0  0  0  0  0  0
   -0.0609    0.8786    1.2365 H   0  0  0  0  0  0
    2.2308   -1.0324    3.7747 H   0  0  0  0  0  0
   -1.7213   -2.8136    3.9553 H   0  0  0  0  0  0
    0.0797   -0.7467    1.5385 H   0  0  0  0  0  0
    2.0279   -6.3999    7.2718 H   0  0  0  0  0  0
    2.4567   -5.8267    5.6243 H   0  0  0  0  0  0
    0.7442   -6.1817    6.0344 H   0  0  0  0  0  0
   -2.6057    5.7977    2.7343 H   0  0  0  0  0  0
   -0.4647    7.6578    1.7026 H   0  0  0  0  0  0
   -2.2335    9.5274    1.2932 H   0  0  0  0  0  0
   -4.0848    8.5155    2.6441 H   0  0  0  0  0  0
   -1.2536    8.1888   -0.5921 H   0  0  0  0  0  0
   -2.9568    8.6748   -0.8919 H   0  0  0  0  0  0
   -2.5779    6.9920   -0.3906 H   0  0  0  0  0  0
   -0.0822    9.4975    3.0482 H   0  0  0  0  0  0
   -1.7398    9.5181    5.6109 H   0  0  0  0  0  0
    0.2075    8.0731    6.0831 H   0  0  0  0  0  0
    0.3452    9.6216    6.9830 H   0  0  0  0  0  0
    1.3185    9.3570    5.4965 H   0  0  0  0  0  0
   -1.2815   13.8926    4.9650 H   0  0  0  0  0  0
   -1.4739   14.8913    7.4988 H   0  0  0  0  0  0
   -2.8783   14.0571    6.7514 H   0  0  0  0  0  0
   -0.7168   12.8835    8.5792 H   0  0  0  0  0  0
   -2.4956   12.8623    8.8282 H   0  0  0  0  0  0
   -2.8437   11.3456    6.9217 H   0  0  0  0  0  0
   -1.3094   10.7042    7.6008 H   0  0  0  0  0  0
    2.9330   14.8670    5.2484 H   0  0  0  0  0  0
    2.8766   17.6115    5.0756 H   0  0  0  0  0  0
    2.4398   16.5902    3.6640 H   0  0  0  0  0  0
    0.6011   17.8340    5.7644 H   0  0  0  0  0  0
    0.5167   18.0077    3.9786 H   0  0  0  0  0  0
   -0.1182   15.6481    3.6835 H   0  0  0  0  0  0
   -1.0146   16.0740    5.1807 H   0  0  0  0  0  0
    4.5470   15.2581    6.5679 H   0  0  0  0  0  0
    3.7858   15.2421    9.3257 H   0  0  0  0  0  0
    6.0359   14.5415    8.4482 H   0  0  0  0  0  0
    6.4398   16.2629    8.1318 H   0  0  0  0  0  0
    7.5218   15.6040   10.1633 H   0  0  0  0  0  0
    6.1613   16.6924   10.6003 H   0  0  0  0  0  0
    5.5379   14.1171   13.0706 H   0  0  0  0  0  0
    3.6583   16.6499   10.9914 H   0  0  0  0  0  0
    3.7307   19.5757   10.0950 H   0  0  0  0  0  0
    1.8289   18.1369   12.0397 H   0  0  0  0  0  0
    1.8918   19.9226   11.8556 H   0  0  0  0  0  0
    1.0667   19.8229    9.6463 H   0  0  0  0  0  0
    1.3303   18.0491    9.5423 H   0  0  0  0  0  0
   -2.2498   18.0723   10.2096 H   0  0  0  0  0  0
    4.6183   17.0756   12.4418 H   0  0  0  0  0  0
    5.5619   18.2372   13.6209 H   0  0  0  0  0  0
  1  2  2  0  0  0
  1  3  1  0  0  0
  1  4  1  0  0  0
  3 85  1  0  0  0
  3 86  1  0  0  0
  3 87  1  0  0  0
  4  5  1  0  0  0
  4 10  1  0  0  0
  5  6  1  0  0  0
  5  8  1  0  0  0
  5 88  1  0  0  0
  6  7  2  0  0  0
  6 11  1  0  0  0
  8  9  1  0  0  0
  8 89  1  0  0  0
  8 90  1  0  0  0
  9 10  1  0  0  0
  9 91  1  0  0  0
  9 92  1  0  0  0
 10 93  1  0  0  0
 10 94  1  0  0  0
 11 12  1  0  0  0
 11 95  1  0  0  0
 12 13  1  0  0  0
 12 15  1  0  0  0
 12 96  1  0  0  0
 13 14  2  0  0  0
 13 21  1  0  0  0
 15 16  1  0  0  0
 15 97  1  0  0  0
 15 98  1  0  0  0
 16 17  1  0  0  0
 16 99  1  0  0  0
 16100  1  0  0  0
 17 18  1  0  0  0
 17 19  2  0  0  0
 18101  1  0  0  0
 20 22  2  0  0  0
 20 31  1  0  0  0
 20 40  1  0  0  0
 21 31  1  0  0  0
 21 33  1  0  0  0
 23 24  1  0  0  0
 23 38  2  0  0  0
 24 34  1  0  0  0
 25 26  1  0  0  0
 25102  1  0  0  0
 25103  1  0  0  0
 25104  1  0  0  0
 26 29  1  0  0  0
 27 28  1  0  0  0
 27 39  1  0  0  0
 28 29  2  0  0  0
 28 30  1  0  0  0
 29 35  1  0  0  0
 30 36  2  0  0  0
 30105  1  0  0  0
 31 32  1  0  0  0
 31106  1  0  0  0
 32 34  1  0  0  0
 32107  1  0  0  0
 32108  1  0  0  0
 33 34  1  0  0  0
 33109  1  0  0  0
 33110  1  0  0  0
 34111  1  0  0  0
 35 37  2  0  0  0
 35112  1  0  0  0
 36 37  1  0  0  0
 36113  1  0  0  0
 37 38  1  0  0  0
 38114  1  0  0  0
 39115  1  0  0  0
 39116  1  0  0  0
 39117  1  0  0  0
 40 41  1  0  0  0
 40118  1  0  0  0
 41 42  1  0  0  0
 41 44  1  0  0  0
 41119  1  0  0  0
 42 43  2  0  0  0
 42 47  1  0  0  0
 44 45  1  0  0  0
 44 46  1  0  0  0
 44120  1  0  0  0
 45121  1  0  0  0
 46122  1  0  0  0
 46123  1  0  0  0
 46124  1  0  0  0
 47 48  1  0  0  0
 47125  1  0  0  0
 48 49  1  0  0  0
 48 51  1  0  0  0
 48126  1  0  0  0
 49 50  2  0  0  0
 49 52  1  0  0  0
 51127  1  0  0  0
 51128  1  0  0  0
 51129  1  0  0  0
 52 53  1  0  0  0
 52 58  1  0  0  0
 53 54  1  0  0  0
 53 56  1  0  0  0
 53130  1  0  0  0
 54 55  2  0  0  0
 54 59  1  0  0  0
 56 57  1  0  0  0
 56131  1  0  0  0
 56132  1  0  0  0
 57 58  1  0  0  0
 57133  1  0  0  0
 57134  1  0  0  0
 58135  1  0  0  0
 58136  1  0  0  0
 59 60  1  0  0  0
 59 65  1  0  0  0
 60 61  1  0  0  0
 60 63  1  0  0  0
 60137  1  0  0  0
 61 62  2  0  0  0
 61 66  1  0  0  0
 63 64  1  0  0  0
 63138  1  0  0  0
 63139  1  0  0  0
 64 65  1  0  0  0
 64140  1  0  0  0
 64141  1  0  0  0
 65142  1  0  0  0
 65143  1  0  0  0
 66 67  1  0  0  0
 66144  1  0  0  0
 67 68  1  0  0  0
 67 70  1  0  0  0
 67145  1  0  0  0
 68 69  2  0  0  0
 68 75  1  0  0  0
 70 71  1  0  0  0
 70146  1  0  0  0
 70147  1  0  0  0
 71 72  1  0  0  0
 71148  1  0  0  0
 71149  1  0  0  0
 72 73  1  0  0  0
 72 74  2  0  0  0
 73150  1  0  0  0
 75 76  1  0  0  0
 75151  1  0  0  0
 76 77  1  0  0  0
 76 79  1  0  0  0
 76152  1  0  0  0
 77 78  2  0  0  0
 77 84  1  0  0  0
 79 80  1  0  0  0
 79153  1  0  0  0
 79154  1  0  0  0
 80 81  1  0  0  0
 80155  1  0  0  0
 80156  1  0  0  0
 81 82  2  0  0  0
 81 83  1  0  0  0
 83157  1  0  0  0
 84158  1  0  0  0
 84159  1  0  0  0
M  END
> <s_m_source_file>
../3p9h_ligand.sdf

> <i_m_source_file_index>
1

> <s_epik_input>
W0NIM11PYzFjKE9bQ0gzXSlbY0hdYyhbY0hdW2NIXTEpXFtDSF09TlxPW0NAQEhdKFtDSDJdMilbQ0gyXVtDQEhdKE4yQyg9TylbQ0BIXShbQ0gyXVtDSDJdQyg9TylbT0hdKVtOSF1DKD1PKVtDQEBIXShOM0MoPU8pW0NIM10pW0NIMl1bQ0gyXVtDSDJdMylDKD1PKVtOSF1bQ0BASF0oW0NASF0oW09IXSlbQ0gzXSlDKD1PKVtOSF1bQ0BASF0oW0NIM10pQyg9TylONFtDQEBIXShbQ0gyXVtDSDJdW0NIMl00KUMoPU8pTjVbQ0BASF0oW0NIMl1bQ0gyXVtDSDJdNSlDKD1PKVtOSF1bQ0BASF0oW0NIMl1bQ0gyXUMoPU8pW09IXSlDKD1PKVtOSF1bQ0BIXShDKD1PKVtOSDJdKVtDSDJdW0NIMl1DKD1PKVtPSF0=

> <s_epik_cmdline>
J2VwaWtfYXBwJywgJy1pbWFlJywgJ2xpZ2FuZF9wcm8ubWFlJywgJy1vbWFlJywgJ2xpZ2FuZF9wcmVwLm1hZScsICctbXMnLCAnMScsICctcGgnLCAnNycsICctcGh0JywgJzAuNScsICctbnQn

> <s_epik_pKa_notes>
Molecule size exceeds maximum supported for generating protonation states

> <s_epik_Chemistry_Notes>
This compound has an imine and may undergo hydrolysis.

$$$$
