3p9l_ligand
                    3D
 Schrodinger Suite 2020-3.
142142  0  0  1  0            999 V2000
  -11.9920   -3.4370   34.3840 N   0  3  0  0  0  0
  -13.2500   -2.9110   33.8930 C   0  0  2  0  0  0
  -13.1340   -1.3990   33.7830 C   0  0  0  0  0  0
  -12.8510   -0.7170   34.7650 O   0  0  0  0  0  0
  -14.3840   -3.2890   34.8410 C   0  0  0  0  0  0
  -15.6420   -2.9560   34.2870 O   0  0  0  0  0  0
  -13.3340   -0.8850   32.5740 N   0  0  0  0  0  0
  -13.1760    0.5370   32.3050 C   0  0  2  0  0  0
  -14.3020    1.3260   32.9660 C   0  0  0  0  0  0
  -15.4120    0.8240   33.1160 O   0  0  0  0  0  0
  -13.1580    0.8080   30.7700 C   0  0  2  0  0  0
  -12.6010    2.1930   30.4660 C   0  0  0  0  0  0
  -14.5540    0.6500   30.1650 C   0  0  0  0  0  0
  -12.4090    2.4420   28.9760 C   0  0  0  0  0  0
  -14.0150    2.5620   33.3560 N   0  0  0  0  0  0
  -15.0170    3.4430   33.9660 C   0  0  2  0  0  0
  -16.1180    3.8230   32.9660 C   0  0  0  0  0  0
  -15.9180    3.7370   31.7610 O   0  0  0  0  0  0
  -14.3430    4.7370   34.4800 C   0  0  2  0  0  0
  -15.2180    5.4590   35.5140 C   0  0  0  0  0  0
  -13.9970    5.6660   33.3110 C   0  0  0  0  0  0
  -14.5130    6.6240   36.1930 C   0  0  0  0  0  0
  -17.2850    4.2240   33.4720 N   0  0  0  0  0  0
  -18.3000    4.8620   32.6510 C   0  0  2  0  0  0
  -17.9710    6.3370   32.5220 C   0  0  0  0  0  0
  -17.9410    7.0660   33.5250 O   0  0  0  0  0  0
  -19.6850    4.7320   33.2840 C   0  0  0  0  0  0
  -20.1040    3.3020   33.4750 C   0  0  0  0  0  0
  -20.6120    2.6670   32.5500 O   0  0  0  0  0  0
  -19.9060    2.7810   34.6840 N   0  0  0  0  0  0
  -17.7350    6.7850   31.2930 N   0  0  0  0  0  0
  -17.2830    8.1550   31.0720 C   0  0  2  0  0  0
  -18.4140    9.1710   31.1930 C   0  0  0  0  0  0
  -19.5630    8.8780   30.8570 O   0  0  0  0  0  0
  -16.5610    8.2770   29.7170 C   0  0  0  0  0  0
  -15.2530    7.5290   29.6720 C   0  0  0  0  0  0
  -14.1240    8.0510   30.2860 C   0  0  0  0  0  0
  -15.1610    6.2980   29.0430 C   0  0  0  0  0  0
  -12.9110    7.3590   30.2760 C   0  0  0  0  0  0
  -13.9480    5.6010   29.0130 C   0  0  0  0  0  0
  -12.8270    6.1350   29.6390 C   0  0  0  0  0  0
  -18.0800   10.3620   31.6860 N   0  0  0  0  0  0
  -19.0520   11.4430   31.8060 C   0  0  2  0  0  0
  -18.8440   12.4700   30.6980 C   0  0  0  0  0  0
  -17.7300   12.6860   30.2420 O   0  0  0  0  0  0
  -18.9590   12.1280   33.1720 C   0  0  0  0  0  0
  -19.5590   11.3310   34.3180 C   0  0  0  0  0  0
  -21.0660   11.1950   34.1990 C   0  0  0  0  0  0
  -21.7370   12.2190   33.9520 O   0  0  0  0  0  0
  -21.5760   10.0610   34.3390 O   0  5  0  0  0  0
  -19.9250   13.1150   30.2860 N   0  0  0  0  0  0
  -19.8870   14.0290   29.1570 C   0  0  2  0  0  0
  -19.0250   15.2670   29.3720 C   0  0  0  0  0  0
  -18.9700   15.8320   30.4660 O   0  0  0  0  0  0
  -21.3090   14.4050   28.7380 C   0  0  0  0  0  0
  -21.9380   13.3400   27.8440 C   0  0  0  0  0  0
  -23.4410   13.3680   27.9320 C   0  0  0  0  0  0
  -24.0440   12.2740   27.0960 C   0  0  0  0  0  0
  -25.5280   12.2440   27.2630 N   0  3  0  0  0  0
  -18.3670   15.6760   28.2950 N   0  0  0  0  0  0
  -17.4830   16.8270   28.2830 C   0  0  2  0  0  0
  -18.2830   18.1140   28.2560 C   0  0  0  0  0  0
  -19.4710   18.1030   27.9300 O   0  0  0  0  0  0
  -16.5830   16.7810   27.0490 C   0  0  0  0  0  0
  -15.5740   15.6400   27.0070 C   0  0  0  0  0  0
  -14.6790   15.7720   25.7990 C   0  0  0  0  0  0
  -14.7630   15.6390   28.2820 C   0  0  0  0  0  0
  -17.7320   19.1800   28.5400 O   0  5  0  0  0  0
  -11.1832   -3.1581   33.6926 H   0  0  0  0  0  0
  -12.0545   -4.5331   34.4521 H   0  0  0  0  0  0
  -11.7836   -3.0190   35.3799 H   0  0  0  0  0  0
  -13.4283   -3.3626   32.9059 H   0  0  0  0  0  0
  -14.3581   -4.3723   35.0300 H   0  0  0  0  0  0
  -14.2633   -2.7480   35.7912 H   0  0  0  0  0  0
  -16.5637   -3.1658   34.8496 H   0  0  0  0  0  0
  -13.6273   -1.5688   31.7638 H   0  0  0  0  0  0
  -12.2150    0.8118   32.7643 H   0  0  0  0  0  0
  -12.4980    0.0718   30.2879 H   0  0  0  0  0  0
  -13.2935    2.9583   30.8465 H   0  0  0  0  0  0
  -11.6218    2.3096   30.9535 H   0  0  0  0  0  0
  -14.9411   -0.3540   30.3934 H   0  0  0  0  0  0
  -14.4980    0.7821   29.0744 H   0  0  0  0  0  0
  -15.2267    1.4083   30.5922 H   0  0  0  0  0  0
  -12.0064    3.4541   28.8223 H   0  0  0  0  0  0
  -13.3768    2.3503   28.4612 H   0  0  0  0  0  0
  -11.7052    1.7015   28.5682 H   0  0  0  0  0  0
  -12.9853    2.9195   33.2083 H   0  0  0  0  0  0
  -15.4473    2.8496   34.7862 H   0  0  0  0  0  0
  -13.4063    4.4590   34.9853 H   0  0  0  0  0  0
  -16.1157    5.8586   35.0196 H   0  0  0  0  0  0
  -15.5172    4.7501   36.3001 H   0  0  0  0  0  0
  -13.3708    5.1254   32.5860 H   0  0  0  0  0  0
  -13.4483    6.5415   33.6884 H   0  0  0  0  0  0
  -14.9236    5.9978   32.8197 H   0  0  0  0  0  0
  -15.1948    7.0931   36.9177 H   0  0  0  0  0  0
  -14.2166    7.3648   35.4358 H   0  0  0  0  0  0
  -13.6181    6.2563   36.7163 H   0  0  0  0  0  0
  -17.4683    4.0593   34.5440 H   0  0  0  0  0  0
  -18.2700    4.3444   31.6809 H   0  0  0  0  0  0
  -19.6839    5.2172   34.2712 H   0  0  0  0  0  0
  -20.4307    5.2178   32.6375 H   0  0  0  0  0  0
  -19.4481    3.3902   35.4772 H   0  0  0  0  0  0
  -20.2003    1.7413   34.8898 H   0  0  0  0  0  0
  -17.8841    6.1102   30.4372 H   0  0  0  0  0  0
  -16.5812    8.3441   31.8977 H   0  0  0  0  0  0
  -17.2033    7.8714   28.9215 H   0  0  0  0  0  0
  -16.3457    9.3357   29.5103 H   0  0  0  0  0  0
  -14.1846    9.0182   30.7850 H   0  0  0  0  0  0
  -16.0422    5.8682   28.5668 H   0  0  0  0  0  0
  -12.0350    7.7818   30.7679 H   0  0  0  0  0  0
  -13.8820    4.6415   28.5000 H   0  0  0  0  0  0
  -11.8835    5.5893   29.6274 H   0  0  0  0  0  0
  -17.0397   10.5196   32.0070 H   0  0  0  0  0  0
  -20.0330   10.9568   31.6997 H   0  0  0  0  0  0
  -17.9025   12.3036   33.4229 H   0  0  0  0  0  0
  -19.4923   13.0895   33.1371 H   0  0  0  0  0  0
  -19.1257   10.3200   34.3278 H   0  0  0  0  0  0
  -19.3369   11.8343   35.2705 H   0  0  0  0  0  0
  -20.8694   12.9435   30.8233 H   0  0  0  0  0  0
  -19.3830   13.4390   28.3774 H   0  0  0  0  0  0
  -21.9373   14.5183   29.6338 H   0  0  0  0  0  0
  -21.2886   15.3539   28.1820 H   0  0  0  0  0  0
  -21.6458   13.5194   26.7988 H   0  0  0  0  0  0
  -21.5881   12.3452   28.1570 H   0  0  0  0  0  0
  -23.7497   13.2264   28.9782 H   0  0  0  0  0  0
  -23.8116   14.3378   27.5685 H   0  0  0  0  0  0
  -23.8076   12.4498   26.0362 H   0  0  0  0  0  0
  -23.6301   11.3037   27.4079 H   0  0  0  0  0  0
  -25.9503   11.4383   26.6445 H   0  0  0  0  0  0
  -25.9520   13.2088   26.9479 H   0  0  0  0  0  0
  -25.7745   12.0627   28.3196 H   0  0  0  0  0  0
  -18.5202   15.0906   27.3764 H   0  0  0  0  0  0
  -16.8993   16.7600   29.2129 H   0  0  0  0  0  0
  -17.2032   16.6764   26.1466 H   0  0  0  0  0  0
  -15.9986   17.7108   26.9865 H   0  0  0  0  0  0
  -16.1011   14.6780   26.9246 H   0  0  0  0  0  0
  -15.2927   15.7701   24.8861 H   0  0  0  0  0  0
  -13.9756   14.9268   25.7697 H   0  0  0  0  0  0
  -14.1165   16.7153   25.8608 H   0  0  0  0  0  0
  -15.4375   15.5419   29.1455 H   0  0  0  0  0  0
  -14.2010   16.5814   28.3598 H   0  0  0  0  0  0
  -14.0601   14.7930   28.2688 H   0  0  0  0  0  0
  1  2  1  0  0  0
  1 69  1  0  0  0
  1 70  1  0  0  0
  1 71  1  0  0  0
  2  3  1  0  0  0
  2  5  1  0  0  0
  2 72  1  0  0  0
  3  4  2  0  0  0
  3  7  1  0  0  0
  5  6  1  0  0  0
  5 73  1  0  0  0
  5 74  1  0  0  0
  6 75  1  0  0  0
  7  8  1  0  0  0
  7 76  1  0  0  0
  8  9  1  0  0  0
  8 11  1  0  0  0
  8 77  1  0  0  0
  9 10  2  0  0  0
  9 15  1  0  0  0
 11 12  1  0  0  0
 11 13  1  0  0  0
 11 78  1  0  0  0
 12 14  1  0  0  0
 12 79  1  0  0  0
 12 80  1  0  0  0
 13 81  1  0  0  0
 13 82  1  0  0  0
 13 83  1  0  0  0
 14 84  1  0  0  0
 14 85  1  0  0  0
 14 86  1  0  0  0
 15 16  1  0  0  0
 15 87  1  0  0  0
 16 17  1  0  0  0
 16 19  1  0  0  0
 16 88  1  0  0  0
 17 18  2  0  0  0
 17 23  1  0  0  0
 19 20  1  0  0  0
 19 21  1  0  0  0
 19 89  1  0  0  0
 20 22  1  0  0  0
 20 90  1  0  0  0
 20 91  1  0  0  0
 21 92  1  0  0  0
 21 93  1  0  0  0
 21 94  1  0  0  0
 22 95  1  0  0  0
 22 96  1  0  0  0
 22 97  1  0  0  0
 23 24  1  0  0  0
 23 98  1  0  0  0
 24 25  1  0  0  0
 24 27  1  0  0  0
 24 99  1  0  0  0
 25 26  2  0  0  0
 25 31  1  0  0  0
 27 28  1  0  0  0
 27100  1  0  0  0
 27101  1  0  0  0
 28 29  2  0  0  0
 28 30  1  0  0  0
 30102  1  0  0  0
 30103  1  0  0  0
 31 32  1  0  0  0
 31104  1  0  0  0
 32 33  1  0  0  0
 32 35  1  0  0  0
 32105  1  0  0  0
 33 34  2  0  0  0
 33 42  1  0  0  0
 35 36  1  0  0  0
 35106  1  0  0  0
 35107  1  0  0  0
 36 37  2  0  0  0
 36 38  1  0  0  0
 37 39  1  0  0  0
 37108  1  0  0  0
 38 40  2  0  0  0
 38109  1  0  0  0
 39 41  2  0  0  0
 39110  1  0  0  0
 40 41  1  0  0  0
 40111  1  0  0  0
 41112  1  0  0  0
 42 43  1  0  0  0
 42113  1  0  0  0
 43 44  1  0  0  0
 43 46  1  0  0  0
 43114  1  0  0  0
 44 45  2  0  0  0
 44 51  1  0  0  0
 46 47  1  0  0  0
 46115  1  0  0  0
 46116  1  0  0  0
 47 48  1  0  0  0
 47117  1  0  0  0
 47118  1  0  0  0
 48 49  2  0  0  0
 48 50  1  0  0  0
 51 52  1  0  0  0
 51119  1  0  0  0
 52 53  1  0  0  0
 52 55  1  0  0  0
 52120  1  0  0  0
 53 54  2  0  0  0
 53 60  1  0  0  0
 55 56  1  0  0  0
 55121  1  0  0  0
 55122  1  0  0  0
 56 57  1  0  0  0
 56123  1  0  0  0
 56124  1  0  0  0
 57 58  1  0  0  0
 57125  1  0  0  0
 57126  1  0  0  0
 58 59  1  0  0  0
 58127  1  0  0  0
 58128  1  0  0  0
 59129  1  0  0  0
 59130  1  0  0  0
 59131  1  0  0  0
 60 61  1  0  0  0
 60132  1  0  0  0
 61 62  1  0  0  0
 61 64  1  0  0  0
 61133  1  0  0  0
 62 63  2  0  0  0
 62 68  1  0  0  0
 64 65  1  0  0  0
 64134  1  0  0  0
 64135  1  0  0  0
 65 66  1  0  0  0
 65 67  1  0  0  0
 65136  1  0  0  0
 66137  1  0  0  0
 66138  1  0  0  0
 66139  1  0  0  0
 67140  1  0  0  0
 67141  1  0  0  0
 67142  1  0  0  0
M  CHG  4   1   1  50  -1  59   1  68  -1
M  END
> <s_m_source_file>
../3p9l_ligand.sdf

> <i_m_source_file_index>
1

> <s_epik_input>
W09IXVtDSDJdW0NASF0oW05IMytdKUMoPU8pW05IXVtDQEBIXShbQ0BASF0oW0NIM10pW0NIMl1bQ0gzXSlDKD1PKVtOSF1bQ0BASF0oW0NAQEhdKFtDSDNdKVtDSDJdW0NIM10pQyg9TylbTkhdW0NAQEhdKFtDSDJdQyg9TylbTkgyXSlDKD1PKVtOSF1bQ0BASF0oW0NIMl1jMVtjSF1bY0hdW2NIXVtjSF1bY0hdMSlDKD1PKVtOSF1bQ0BASF0oW0NIMl1bQ0gyXUMoPU8pW09IXSlDKD1PKVtOSF1bQ0BASF0oW0NIMl1bQ0gyXVtDSDJdW0NIMl1bTkgzK10pQyg9TylbTkhdW0NASF0oQyg9TylbT0hdKVtDSDJdW0NIXShbQ0gzXSlbQ0gzXQ==

> <s_epik_cmdline>
J2VwaWtfYXBwJywgJy1pbWFlJywgJ2xpZ2FuZF9wcm8ubWFlJywgJy1vbWFlJywgJ2xpZ2FuZF9wcmVwLm1hZScsICctbXMnLCAnMScsICctcGgnLCAnNycsICctcGh0JywgJzAuNScsICctbnQn

> <r_epik_Ionization_Penalty>
  0.1478

> <r_epik_Ionization_Penalty_Charging>
  0.1478

> <r_epik_Ionization_Penalty_Neutral>
  0.0000

> <r_epik_State_Penalty>
  0.1348

> <r_epik_Charging_Adjusted_Penalty>
0.282586883255875

> <i_epik_Tot_Q>
0

> <i_epik_Tot_abs_Q>
4

$$$$
