3p9m_ligand
                    3D
 Schrodinger Suite 2020-3.
135135  0  0  1  0            999 V2000
    2.5380   -3.3740   -4.1640 N   0  3  0  0  0  0
    1.2930   -2.8090   -4.6580 C   0  0  2  0  0  0
    1.4450   -1.2930   -4.7820 C   0  0  0  0  0  0
    1.8790   -0.6160   -3.8390 O   0  0  0  0  0  0
    0.1270   -3.1580   -3.7180 C   0  0  0  0  0  0
   -1.1170   -2.8510   -4.3300 O   0  0  0  0  0  0
    1.1110   -0.7570   -5.9490 N   0  0  0  0  0  0
    1.2420    0.6770   -6.1720 C   0  0  2  0  0  0
    0.1010    1.4380   -5.4780 C   0  0  0  0  0  0
   -0.9930    0.9090   -5.3040 O   0  0  0  0  0  0
    1.2590    0.9800   -7.6790 C   0  0  2  0  0  0
    1.7670    2.3900   -7.9670 C   0  0  0  0  0  0
   -0.1150    0.7970   -8.2730 C   0  0  0  0  0  0
    2.0040    2.6320   -9.4820 C   0  0  0  0  0  0
    0.3690    2.6800   -5.0810 N   0  0  0  0  0  0
   -0.6490    3.5320   -4.4780 C   0  0  2  0  0  0
   -1.7430    3.8660   -5.4900 C   0  0  0  0  0  0
   -1.5520    3.7180   -6.6940 O   0  0  0  0  0  0
   -0.0260    4.8360   -3.9250 C   0  0  2  0  0  0
   -0.9850    5.5350   -2.9540 C   0  0  0  0  0  0
    0.3890    5.7780   -5.0660 C   0  0  0  0  0  0
   -0.3070    6.6330   -2.1050 C   0  0  0  0  0  0
   -2.9040    4.2790   -4.9960 N   0  0  0  0  0  0
   -3.9520    4.8080   -5.8530 C   0  0  0  0  0  0
   -3.6780    6.2910   -5.9560 C   0  0  0  0  0  0
   -3.5190    6.9600   -4.9350 O   0  0  0  0  0  0
   -3.5920    6.8150   -7.1720 N   0  0  0  0  0  0
   -3.2180    8.2170   -7.3380 C   0  0  2  0  0  0
   -4.3980    9.1930   -7.1930 C   0  0  0  0  0  0
   -5.5520    8.8380   -7.4370 O   0  0  0  0  0  0
   -2.4570    8.4230   -8.6590 C   0  0  0  0  0  0
   -1.1560    7.6810   -8.7130 C   0  0  0  0  0  0
   -0.0110    8.2260   -8.1600 C   0  0  0  0  0  0
   -1.0830    6.4290   -9.2860 C   0  0  0  0  0  0
    1.1870    7.5300   -8.1910 C   0  0  0  0  0  0
    0.1140    5.7330   -9.3230 C   0  0  0  0  0  0
    1.2460    6.2910   -8.7730 C   0  0  0  0  0  0
   -4.0920   10.4130   -6.7580 N   0  0  0  0  0  0
   -5.0900   11.4740   -6.6220 C   0  0  2  0  0  0
   -4.8830   12.5310   -7.7010 C   0  0  0  0  0  0
   -3.7570   12.7910   -8.1030 O   0  0  0  0  0  0
   -4.9870   12.1350   -5.2500 C   0  0  0  0  0  0
   -5.5150   11.2830   -4.1200 C   0  0  0  0  0  0
   -7.0230   11.0890   -4.2130 C   0  0  0  0  0  0
   -7.4940    9.9350   -4.1100 O   0  5  0  0  0  0
   -7.7330   12.1000   -4.3950 O   0  0  0  0  0  0
   -5.9740   13.1530   -8.1400 N   0  0  0  0  0  0
   -5.9310   14.1030   -9.2460 C   0  0  2  0  0  0
   -5.0770   15.3510   -9.0230 C   0  0  0  0  0  0
   -4.9590   15.8530   -7.9070 O   0  0  0  0  0  0
   -7.3460   14.4570   -9.6990 C   0  0  0  0  0  0
   -7.9830   13.2950  -10.4650 C   0  0  0  0  0  0
   -9.4090   13.5590  -10.8650 C   0  0  0  0  0  0
  -10.0230   12.2900  -11.4120 C   0  0  0  0  0  0
   -9.8940   11.1870  -10.4100 N   0  3  0  0  0  0
   -4.4860   15.8280  -10.1160 N   0  0  0  0  0  0
   -3.5900   16.9790  -10.1180 C   0  0  2  0  0  0
   -4.3830   18.2730  -10.1830 C   0  0  0  0  0  0
   -5.5140   18.2580  -10.6600 O   0  0  0  0  0  0
   -2.6740   16.9300  -11.3520 C   0  0  0  0  0  0
   -1.6360   15.8130  -11.3790 C   0  0  0  0  0  0
   -0.7520   15.9560  -12.5950 C   0  0  0  0  0  0
   -0.8130   15.8460  -10.1050 C   0  0  0  0  0  0
   -3.8880   19.3440   -9.8150 O   0  5  0  0  0  0
    3.3570   -3.1126   -4.8502 H   0  0  0  0  0  0
    2.4455   -4.4684   -4.1035 H   0  0  0  0  0  0
    2.7535   -2.9685   -3.1645 H   0  0  0  0  0  0
    1.1190   -3.2625   -5.6449 H   0  0  0  0  0  0
    0.1536   -4.2325   -3.4841 H   0  0  0  0  0  0
    0.2195   -2.5779   -2.7880 H   0  0  0  0  0  0
   -2.0568   -3.0404   -3.7907 H   0  0  0  0  0  0
    0.7322   -1.4062   -6.7522 H   0  0  0  0  0  0
    2.2038    0.9606   -5.7198 H   0  0  0  0  0  0
    1.9417    0.2656   -8.1622 H   0  0  0  0  0  0
    1.0276    3.1249   -7.6159 H   0  0  0  0  0  0
    2.7207    2.5503   -7.4429 H   0  0  0  0  0  0
   -0.4735   -0.2211   -8.0610 H   0  0  0  0  0  0
   -0.0673    0.9498   -9.3613 H   0  0  0  0  0  0
   -0.8064    1.5289   -7.8299 H   0  0  0  0  0  0
    2.3682    3.6584   -9.6368 H   0  0  0  0  0  0
    1.0593    2.4919  -10.0279 H   0  0  0  0  0  0
    2.7524    1.9172   -9.8548 H   0  0  0  0  0  0
    1.3924    3.0591   -5.2189 H   0  0  0  0  0  0
   -1.0698    2.9274   -3.6611 H   0  0  0  0  0  0
    0.8821    4.5738   -3.3624 H   0  0  0  0  0  0
   -1.7982    6.0114   -3.5212 H   0  0  0  0  0  0
   -1.4076    4.7943   -2.2591 H   0  0  0  0  0  0
    1.0752    5.2510   -5.7453 H   0  0  0  0  0  0
    0.8939    6.6610   -4.6472 H   0  0  0  0  0  0
   -0.5050    6.0962   -5.6222 H   0  0  0  0  0  0
   -1.0502    7.0895   -1.4347 H   0  0  0  0  0  0
    0.1106    7.4042   -2.7689 H   0  0  0  0  0  0
    0.5014    6.1872   -1.5068 H   0  0  0  0  0  0
   -3.0628    4.2133   -3.9095 H   0  0  0  0  0  0
   -3.9013    4.3204   -6.8377 H   0  0  0  0  0  0
   -4.9332    4.6112   -5.3965 H   0  0  0  0  0  0
   -3.8023    6.1936   -8.0550 H   0  0  0  0  0  0
   -2.5485    8.4027   -6.4852 H   0  0  0  0  0  0
   -3.0756    8.0702   -9.4974 H   0  0  0  0  0  0
   -2.2353    9.4922   -8.7915 H   0  0  0  0  0  0
   -0.0515    9.2114   -7.6959 H   0  0  0  0  0  0
   -1.9791    5.9810   -9.7155 H   0  0  0  0  0  0
    2.0831    7.9686   -7.7520 H   0  0  0  0  0  0
    0.1595    4.7472   -9.7858 H   0  0  0  0  0  0
    2.1900    5.7467   -8.8006 H   0  0  0  0  0  0
   -3.0417   10.6090   -6.4962 H   0  0  0  0  0  0
   -6.0674   10.9831   -6.7393 H   0  0  0  0  0  0
   -3.9325   12.3548   -5.0272 H   0  0  0  0  0  0
   -5.5646   13.0711   -5.2497 H   0  0  0  0  0  0
   -5.0372   10.2927   -4.1533 H   0  0  0  0  0  0
   -5.2883   11.7673   -3.1587 H   0  0  0  0  0  0
   -6.9294   12.9319   -7.6417 H   0  0  0  0  0  0
   -5.3986   13.5283  -10.0182 H   0  0  0  0  0  0
   -7.9669   14.6824   -8.8194 H   0  0  0  0  0  0
   -7.3106   15.3370  -10.3581 H   0  0  0  0  0  0
   -7.4102   13.1042  -11.3845 H   0  0  0  0  0  0
   -7.9764   12.3932   -9.8352 H   0  0  0  0  0  0
   -9.9803   13.8934   -9.9865 H   0  0  0  0  0  0
   -9.4342   14.3411  -11.6381 H   0  0  0  0  0  0
  -11.0881   12.4612  -11.6271 H   0  0  0  0  0  0
   -9.5039   12.0009  -12.3377 H   0  0  0  0  0  0
  -10.3429   10.2685  -10.8160 H   0  0  0  0  0  0
  -10.4142   11.4708   -9.4833 H   0  0  0  0  0  0
   -8.8300   11.0106  -10.1939 H   0  0  0  0  0  0
   -4.7068   15.3012  -11.0561 H   0  0  0  0  0  0
   -3.0279   16.9107   -9.1749 H   0  0  0  0  0  0
   -3.2849   16.7971  -12.2571 H   0  0  0  0  0  0
   -2.1083   17.8704  -11.4263 H   0  0  0  0  0  0
   -2.1406   14.8377  -11.4431 H   0  0  0  0  0  0
   -1.3713   15.9291  -13.5037 H   0  0  0  0  0  0
   -0.0271   15.1290  -12.6206 H   0  0  0  0  0  0
   -0.2137   16.9141  -12.5463 H   0  0  0  0  0  0
   -1.4786   15.7402   -9.2357 H   0  0  0  0  0  0
   -0.2751   16.8034  -10.0407 H   0  0  0  0  0  0
   -0.0885   15.0183  -10.1150 H   0  0  0  0  0  0
  1  2  1  0  0  0
  1 65  1  0  0  0
  1 66  1  0  0  0
  1 67  1  0  0  0
  2  3  1  0  0  0
  2  5  1  0  0  0
  2 68  1  0  0  0
  3  4  2  0  0  0
  3  7  1  0  0  0
  5  6  1  0  0  0
  5 69  1  0  0  0
  5 70  1  0  0  0
  6 71  1  0  0  0
  7  8  1  0  0  0
  7 72  1  0  0  0
  8  9  1  0  0  0
  8 11  1  0  0  0
  8 73  1  0  0  0
  9 10  2  0  0  0
  9 15  1  0  0  0
 11 12  1  0  0  0
 11 13  1  0  0  0
 11 74  1  0  0  0
 12 14  1  0  0  0
 12 75  1  0  0  0
 12 76  1  0  0  0
 13 77  1  0  0  0
 13 78  1  0  0  0
 13 79  1  0  0  0
 14 80  1  0  0  0
 14 81  1  0  0  0
 14 82  1  0  0  0
 15 16  1  0  0  0
 15 83  1  0  0  0
 16 17  1  0  0  0
 16 19  1  0  0  0
 16 84  1  0  0  0
 17 18  2  0  0  0
 17 23  1  0  0  0
 19 20  1  0  0  0
 19 21  1  0  0  0
 19 85  1  0  0  0
 20 22  1  0  0  0
 20 86  1  0  0  0
 20 87  1  0  0  0
 21 88  1  0  0  0
 21 89  1  0  0  0
 21 90  1  0  0  0
 22 91  1  0  0  0
 22 92  1  0  0  0
 22 93  1  0  0  0
 23 24  1  0  0  0
 23 94  1  0  0  0
 24 25  1  0  0  0
 24 95  1  0  0  0
 24 96  1  0  0  0
 25 26  2  0  0  0
 25 27  1  0  0  0
 27 28  1  0  0  0
 27 97  1  0  0  0
 28 29  1  0  0  0
 28 31  1  0  0  0
 28 98  1  0  0  0
 29 30  2  0  0  0
 29 38  1  0  0  0
 31 32  1  0  0  0
 31 99  1  0  0  0
 31100  1  0  0  0
 32 33  2  0  0  0
 32 34  1  0  0  0
 33 35  1  0  0  0
 33101  1  0  0  0
 34 36  2  0  0  0
 34102  1  0  0  0
 35 37  2  0  0  0
 35103  1  0  0  0
 36 37  1  0  0  0
 36104  1  0  0  0
 37105  1  0  0  0
 38 39  1  0  0  0
 38106  1  0  0  0
 39 40  1  0  0  0
 39 42  1  0  0  0
 39107  1  0  0  0
 40 41  2  0  0  0
 40 47  1  0  0  0
 42 43  1  0  0  0
 42108  1  0  0  0
 42109  1  0  0  0
 43 44  1  0  0  0
 43110  1  0  0  0
 43111  1  0  0  0
 44 45  1  0  0  0
 44 46  2  0  0  0
 47 48  1  0  0  0
 47112  1  0  0  0
 48 49  1  0  0  0
 48 51  1  0  0  0
 48113  1  0  0  0
 49 50  2  0  0  0
 49 56  1  0  0  0
 51 52  1  0  0  0
 51114  1  0  0  0
 51115  1  0  0  0
 52 53  1  0  0  0
 52116  1  0  0  0
 52117  1  0  0  0
 53 54  1  0  0  0
 53118  1  0  0  0
 53119  1  0  0  0
 54 55  1  0  0  0
 54120  1  0  0  0
 54121  1  0  0  0
 55122  1  0  0  0
 55123  1  0  0  0
 55124  1  0  0  0
 56 57  1  0  0  0
 56125  1  0  0  0
 57 58  1  0  0  0
 57 60  1  0  0  0
 57126  1  0  0  0
 58 59  2  0  0  0
 58 64  1  0  0  0
 60 61  1  0  0  0
 60127  1  0  0  0
 60128  1  0  0  0
 61 62  1  0  0  0
 61 63  1  0  0  0
 61129  1  0  0  0
 62130  1  0  0  0
 62131  1  0  0  0
 62132  1  0  0  0
 63133  1  0  0  0
 63134  1  0  0  0
 63135  1  0  0  0
M  CHG  4   1   1  45  -1  55   1  64  -1
M  END
> <s_m_source_file>
../3p9m_ligand.sdf

> <i_m_source_file_index>
1

> <s_epik_input>
W09IXVtDSDJdW0NASF0oW05IMytdKUMoPU8pW05IXVtDQEBIXShbQ0BASF0oW0NIM10pW0NIMl1bQ0gzXSlDKD1PKVtOSF1bQ0BASF0oW0NAQEhdKFtDSDNdKVtDSDJdW0NIM10pQyg9TylbTkhdW0NIMl1DKD1PKVtOSF1bQ0BASF0oW0NIMl1jMVtjSF1bY0hdW2NIXVtjSF1bY0hdMSlDKD1PKVtOSF1bQ0BASF0oW0NIMl1bQ0gyXUMoPU8pW09IXSlDKD1PKVtOSF1bQ0BASF0oW0NIMl1bQ0gyXVtDSDJdW0NIMl1bTkgzK10pQyg9TylbTkhdW0NASF0oQyg9TylbT0hdKVtDSDJdW0NIXShbQ0gzXSlbQ0gzXQ==

> <s_epik_cmdline>
J2VwaWtfYXBwJywgJy1pbWFlJywgJ2xpZ2FuZF9wcm8ubWFlJywgJy1vbWFlJywgJ2xpZ2FuZF9wcmVwLm1hZScsICctbXMnLCAnMScsICctcGgnLCAnNycsICctcGh0JywgJzAuNScsICctbnQn

> <r_epik_Ionization_Penalty>
  0.1478

> <r_epik_Ionization_Penalty_Charging>
  0.1478

> <r_epik_Ionization_Penalty_Neutral>
  0.0000

> <r_epik_State_Penalty>
  0.1348

> <r_epik_Charging_Adjusted_Penalty>
0.282586883255875

> <i_epik_Tot_Q>
0

> <i_epik_Tot_abs_Q>
4

$$$$
