3pa3_ligand
                    3D
 Schrodinger Suite 2020-3.
 45 48  0  0  1  0            999 V2000
   18.7050   -2.9680   10.4390 C   0  0  0  0  0  0
   19.2210   -2.0430    9.5330 C   0  0  0  0  0  0
   18.0400   -0.9130    9.0410 S   0  0  0  0  0  0
   16.8210   -1.6100   10.0370 C   0  0  0  0  0  0
   17.3370   -2.7040   10.7400 C   0  0  0  0  0  0
   15.5540   -1.2230   10.1960 C   0  0  0  0  0  0
   14.7480   -1.9080   11.0650 N   0  0  0  0  0  0
   15.2300   -2.9480   11.7760 N   0  0  0  0  0  0
   16.4750   -3.3750   11.6670 C   0  0  0  0  0  0
   16.9490   -4.4260   12.4280 N   0  0  0  0  0  0
   20.5390   -2.0440    8.9380 C   0  0  0  0  0  0
   15.0550   -0.0500    9.5550 C   0  0  0  0  0  0
   16.2100   -4.8510   13.6030 C   0  0  2  0  0  0
   16.6070   -3.9230   14.8040 C   0  0  0  0  0  0
   15.9710   -4.3760   16.0760 N   0  3  0  0  0  0
   16.4140   -5.7440   16.4020 C   0  0  0  0  0  0
   15.9740   -6.7040   15.2750 C   0  0  0  0  0  0
   16.6550   -6.2700   13.9550 C   0  0  0  0  0  0
   21.3840   -3.1770    9.0300 C   0  0  0  0  0  0
   22.6200   -3.1730    8.3830 C   0  0  0  0  0  0
   23.0060   -2.0450    7.6780 C   0  0  0  0  0  0
   22.1760   -0.9210    7.5720 C   0  0  0  0  0  0
   20.9270   -0.9130    8.2080 C   0  0  0  0  0  0
   24.5510   -2.0560    6.8360 Cl  0  0  0  0  0  0
   13.8320    0.3670    9.8990 N   0  0  0  0  0  0
   15.7310    0.5900    8.7360 O   0  0  0  0  0  0
   19.2773   -3.7921   10.8650 H   0  0  0  0  0  0
   17.8804   -4.9401   12.1483 H   0  0  0  0  0  0
   15.1410   -4.8064   13.3474 H   0  0  0  0  0  0
   17.6991   -3.9396   14.9347 H   0  0  0  0  0  0
   16.2781   -2.8940   14.5966 H   0  0  0  0  0  0
   16.2602   -3.6978   16.8923 H   0  0  0  0  0  0
   14.8769   -4.3673   15.9623 H   0  0  0  0  0  0
   17.5099   -5.7622   16.4948 H   0  0  0  0  0  0
   15.9602   -6.0595   17.3531 H   0  0  0  0  0  0
   16.2754   -7.7308   15.5295 H   0  0  0  0  0  0
   14.8807   -6.6602   15.1620 H   0  0  0  0  0  0
   16.3641   -6.9567   13.1464 H   0  0  0  0  0  0
   17.7478   -6.2915   14.0789 H   0  0  0  0  0  0
   21.0698   -4.0487    9.6041 H   0  0  0  0  0  0
   23.2724   -4.0448    8.4316 H   0  0  0  0  0  0
   22.5010   -0.0546    6.9961 H   0  0  0  0  0  0
   20.2714   -0.0451    8.1361 H   0  0  0  0  0  0
   13.2395   -0.2072   10.6264 H   0  0  0  0  0  0
   13.4184    1.2843    9.4545 H   0  0  0  0  0  0
  1  2  2  0  0  0
  1  5  1  0  0  0
  1 27  1  0  0  0
  2  3  1  0  0  0
  2 11  1  0  0  0
  3  4  1  0  0  0
  4  5  2  0  0  0
  4  6  1  0  0  0
  5  9  1  0  0  0
  6  7  2  0  0  0
  6 12  1  0  0  0
  7  8  1  0  0  0
  8  9  2  0  0  0
  9 10  1  0  0  0
 10 13  1  0  0  0
 10 28  1  0  0  0
 11 19  2  0  0  0
 11 23  1  0  0  0
 12 25  1  0  0  0
 12 26  2  0  0  0
 13 14  1  0  0  0
 13 18  1  0  0  0
 13 29  1  0  0  0
 14 15  1  0  0  0
 14 30  1  0  0  0
 14 31  1  0  0  0
 15 16  1  0  0  0
 15 32  1  0  0  0
 15 33  1  0  0  0
 16 17  1  0  0  0
 16 34  1  0  0  0
 16 35  1  0  0  0
 17 18  1  0  0  0
 17 36  1  0  0  0
 17 37  1  0  0  0
 18 38  1  0  0  0
 18 39  1  0  0  0
 19 20  1  0  0  0
 19 40  1  0  0  0
 20 21  2  0  0  0
 20 41  1  0  0  0
 21 22  1  0  0  0
 21 24  1  0  0  0
 22 23  2  0  0  0
 22 42  1  0  0  0
 23 43  1  0  0  0
 25 44  1  0  0  0
 25 45  1  0  0  0
M  CHG  1  15   1
M  END
> <s_m_source_file>
../3pa3_ligand.sdf

> <i_m_source_file_index>
1

> <s_epik_input>
W2NIXTFbY0hdYyhDbClbY0hdW2NIXWMxLWMoczIpW2NIXWMoYzIzKWMobm5jM0MoPU8pW05IMl0pW05IXVtDQEBIXTRbQ0gyXVtOSDIrXVtDSDJdW0NIMl1bQ0gyXTQ=

> <s_epik_cmdline>
J2VwaWtfYXBwJywgJy1pbWFlJywgJ2xpZ2FuZF9wcm8ubWFlJywgJy1vbWFlJywgJ2xpZ2FuZF9wcmVwLm1hZScsICctbXMnLCAnMScsICctcGgnLCAnNycsICctcGh0JywgJzAuNScsICctbnQn

> <r_lp_tautomer_probability>
1

> <r_epik_Ionization_Penalty>
  0.0005

> <r_epik_Ionization_Penalty_Charging>
  0.0003

> <r_epik_Ionization_Penalty_Neutral>
  0.0002

> <r_epik_State_Penalty>
 -0.0000

> <r_epik_Charging_Adjusted_Penalty>
0.000278072219921451

> <i_epik_Tot_Q>
1

> <i_epik_Tot_abs_Q>
1

$$$$
