3pa4_ligand
                    3D
 Schrodinger Suite 2020-3.
 46 49  0  0  1  0            999 V2000
   18.3630   -2.9740   10.4180 C   0  0  0  0  0  0
   18.8580   -2.0370    9.5150 C   0  0  0  0  0  0
   17.6570   -0.9360    9.0660 S   0  0  0  0  0  0
   16.4680   -1.6520   10.0720 C   0  0  0  0  0  0
   16.9860   -2.7550   10.7430 C   0  0  0  0  0  0
   15.1290   -1.2360   10.2720 C   0  0  0  0  0  0
   14.3710   -1.9810   11.1150 C   0  0  0  0  0  0
   14.8120   -3.0400   11.7490 N   0  0  0  0  0  0
   16.1060   -3.4400   11.6610 C   0  0  0  0  0  0
   16.5340   -4.5270   12.3870 N   0  0  0  0  0  0
   20.2200   -1.9700    8.9360 C   0  0  0  0  0  0
   14.5930   -0.0750    9.5780 C   0  0  0  0  0  0
   15.8280   -4.8960   13.6230 C   0  0  2  0  0  0
   16.2220   -3.9310   14.7840 C   0  0  0  0  0  0
   15.6350   -4.4330   16.0700 N   0  3  0  0  0  0
   16.1170   -5.7830   16.4050 C   0  0  0  0  0  0
   15.6750   -6.7890   15.3280 C   0  0  0  0  0  0
   16.2700   -6.3380   13.9760 C   0  0  0  0  0  0
   20.6320   -0.8450    8.2190 C   0  0  0  0  0  0
   21.9090   -0.7930    7.6750 C   0  0  0  0  0  0
   22.7670   -1.8730    7.8620 C   0  0  0  0  0  0
   22.3730   -3.0020    8.5630 C   0  0  0  0  0  0
   21.0900   -3.0440    9.1150 C   0  0  0  0  0  0
   24.3620   -1.8100    7.1740 Cl  0  0  0  0  0  0
   13.3450    0.3870    9.9930 N   0  0  0  0  0  0
   15.2350    0.4800    8.6620 O   0  0  0  0  0  0
   18.9595   -3.7866   10.8328 H   0  0  0  0  0  0
   13.3351   -1.6816   11.2744 H   0  0  0  0  0  0
   17.3976   -5.1188   12.0493 H   0  0  0  0  0  0
   14.7480   -4.8204   13.4283 H   0  0  0  0  0  0
   17.3178   -3.8907   14.8714 H   0  0  0  0  0  0
   15.8339   -2.9239   14.5714 H   0  0  0  0  0  0
   15.9142   -3.7549   16.8899 H   0  0  0  0  0  0
   14.5391   -4.4710   15.9827 H   0  0  0  0  0  0
   17.2155   -5.7765   16.4617 H   0  0  0  0  0  0
   15.7015   -6.0902   17.3761 H   0  0  0  0  0  0
   16.0448   -7.7916   15.5889 H   0  0  0  0  0  0
   14.5766   -6.8066   15.2714 H   0  0  0  0  0  0
   15.9253   -7.0292   13.1928 H   0  0  0  0  0  0
   17.3671   -6.3789   14.0442 H   0  0  0  0  0  0
   19.9498   -0.0054    8.0858 H   0  0  0  0  0  0
   22.2344    0.0805    7.1101 H   0  0  0  0  0  0
   23.0540   -3.8447    8.6819 H   0  0  0  0  0  0
   20.7698   -3.9161    9.6852 H   0  0  0  0  0  0
   12.8094   -0.1286   10.8038 H   0  0  0  0  0  0
   12.8958    1.2671    9.5097 H   0  0  0  0  0  0
  1  2  2  0  0  0
  1  5  1  0  0  0
  1 27  1  0  0  0
  2  3  1  0  0  0
  2 11  1  0  0  0
  3  4  1  0  0  0
  4  5  2  0  0  0
  4  6  1  0  0  0
  5  9  1  0  0  0
  6  7  2  0  0  0
  6 12  1  0  0  0
  7  8  1  0  0  0
  7 28  1  0  0  0
  8  9  2  0  0  0
  9 10  1  0  0  0
 10 13  1  0  0  0
 10 29  1  0  0  0
 11 19  2  0  0  0
 11 23  1  0  0  0
 12 25  1  0  0  0
 12 26  2  0  0  0
 13 14  1  0  0  0
 13 18  1  0  0  0
 13 30  1  0  0  0
 14 15  1  0  0  0
 14 31  1  0  0  0
 14 32  1  0  0  0
 15 16  1  0  0  0
 15 33  1  0  0  0
 15 34  1  0  0  0
 16 17  1  0  0  0
 16 35  1  0  0  0
 16 36  1  0  0  0
 17 18  1  0  0  0
 17 37  1  0  0  0
 17 38  1  0  0  0
 18 39  1  0  0  0
 18 40  1  0  0  0
 19 20  1  0  0  0
 19 41  1  0  0  0
 20 21  2  0  0  0
 20 42  1  0  0  0
 21 22  1  0  0  0
 21 24  1  0  0  0
 22 23  2  0  0  0
 22 43  1  0  0  0
 23 44  1  0  0  0
 25 45  1  0  0  0
 25 46  1  0  0  0
M  CHG  1  15   1
M  END
> <s_m_source_file>
../3pa4_ligand.sdf

> <i_m_source_file_index>
1

> <s_epik_input>
W2NIXTFbY0hdYyhDbClbY0hdW2NIXWMxLWMoczIpW2NIXWMoYzIzKWMobltjSF1jM0MoPU8pW05IMl0pW05IXVtDQEBIXTRbQ0gyXVtOSDIrXVtDSDJdW0NIMl1bQ0gyXTQ=

> <s_epik_cmdline>
J2VwaWtfYXBwJywgJy1pbWFlJywgJ2xpZ2FuZF9wcm8ubWFlJywgJy1vbWFlJywgJ2xpZ2FuZF9wcmVwLm1hZScsICctbXMnLCAnMScsICctcGgnLCAnNycsICctcGh0JywgJzAuNScsICctbnQn

> <r_lp_tautomer_probability>
1

> <r_epik_Ionization_Penalty>
  0.0025

> <r_epik_Ionization_Penalty_Charging>
  0.0003

> <r_epik_Ionization_Penalty_Neutral>
  0.0022

> <r_epik_State_Penalty>
 -0.0000

> <r_epik_Charging_Adjusted_Penalty>
0.000278072219921451

> <i_epik_Tot_Q>
1

> <i_epik_Tot_abs_Q>
1

$$$$
