3pa5_ligand
                    3D
 Schrodinger Suite 2020-3.
 45 47  0  0  1  0            999 V2000
   17.5890   -0.9460    9.0380 S   0  0  0  0  0  0
   16.3890   -1.5600   10.0860 C   0  0  0  0  0  0
   16.8590   -2.5890   10.8490 C   0  0  0  0  0  0
   18.1950   -2.9040   10.5270 C   0  0  0  0  0  0
   18.7240   -2.0730    9.5300 C   0  0  0  0  0  0
   15.1170   -1.0140   10.1860 N   0  0  0  0  0  0
   14.6720    0.0380    9.4820 C   0  0  0  0  0  0
   13.3840    0.3810    9.7940 N   0  0  0  0  0  0
   15.3170    0.6450    8.6030 O   0  0  0  0  0  0
   15.9870   -3.2120   11.8270 C   0  0  0  0  0  0
   14.8510   -2.8400   11.9220 O   0  0  0  0  0  0
   16.5340   -4.2490   12.5440 N   0  0  0  0  0  0
   15.7620   -4.8940   13.6280 C   0  0  2  0  0  0
   16.1180   -3.9770   14.8780 C   0  0  0  0  0  0
   15.5520   -4.4760   16.1660 N   0  3  0  0  0  0
   16.0320   -5.8270   16.4700 C   0  0  0  0  0  0
   15.7490   -6.8040   15.3200 C   0  0  0  0  0  0
   16.3030   -6.2790   13.9590 C   0  0  0  0  0  0
   20.0670   -2.0670    8.9800 C   0  0  0  0  0  0
   20.5480   -0.9530    8.2740 C   0  0  0  0  0  0
   21.8320   -0.9380    7.7770 C   0  0  0  0  0  0
   22.6780   -2.0220    8.0010 C   0  0  0  0  0  0
   22.2260   -3.1240    8.7170 C   0  0  0  0  0  0
   20.9230   -3.1360    9.2130 C   0  0  0  0  0  0
   24.2940   -2.0100    7.3690 Cl  0  0  0  0  0  0
   18.7566   -3.7080   11.0027 H   0  0  0  0  0  0
   14.3859   -1.4471   10.8845 H   0  0  0  0  0  0
   12.8409   -0.1729   10.5739 H   0  0  0  0  0  0
   12.8922    1.2105    9.2648 H   0  0  0  0  0  0
   17.5500   -4.5990   12.3090 H   0  0  0  0  0  0
   14.7132   -5.0052   13.3157 H   0  0  0  0  0  0
   17.2104   -3.9271   14.9969 H   0  0  0  0  0  0
   15.7203   -2.9644   14.7150 H   0  0  0  0  0  0
   15.8539   -3.8049   16.9836 H   0  0  0  0  0  0
   14.4543   -4.5013   16.0988 H   0  0  0  0  0  0
   17.1182   -5.8003   16.6414 H   0  0  0  0  0  0
   15.5274   -6.2008   17.3731 H   0  0  0  0  0  0
   16.2259   -7.7716   15.5352 H   0  0  0  0  0  0
   14.6629   -6.9452   15.2177 H   0  0  0  0  0  0
   16.0087   -6.9859   13.1693 H   0  0  0  0  0  0
   17.4003   -6.2381   14.0242 H   0  0  0  0  0  0
   19.8987   -0.0915    8.1178 H   0  0  0  0  0  0
   22.1865   -0.0782    7.2084 H   0  0  0  0  0  0
   22.8862   -3.9739    8.8898 H   0  0  0  0  0  0
   20.5726   -3.9924    9.7891 H   0  0  0  0  0  0
  1  2  1  0  0  0
  1  5  1  0  0  0
  2  3  2  0  0  0
  2  6  1  0  0  0
  3  4  1  0  0  0
  3 10  1  0  0  0
  4  5  2  0  0  0
  4 26  1  0  0  0
  5 19  1  0  0  0
  6  7  1  0  0  0
  6 27  1  0  0  0
  7  8  1  0  0  0
  7  9  2  0  0  0
  8 28  1  0  0  0
  8 29  1  0  0  0
 10 11  2  0  0  0
 10 12  1  0  0  0
 12 13  1  0  0  0
 12 30  1  0  0  0
 13 14  1  0  0  0
 13 18  1  0  0  0
 13 31  1  0  0  0
 14 15  1  0  0  0
 14 32  1  0  0  0
 14 33  1  0  0  0
 15 16  1  0  0  0
 15 34  1  0  0  0
 15 35  1  0  0  0
 16 17  1  0  0  0
 16 36  1  0  0  0
 16 37  1  0  0  0
 17 18  1  0  0  0
 17 38  1  0  0  0
 17 39  1  0  0  0
 18 40  1  0  0  0
 18 41  1  0  0  0
 19 20  2  0  0  0
 19 24  1  0  0  0
 20 21  1  0  0  0
 20 42  1  0  0  0
 21 22  2  0  0  0
 21 43  1  0  0  0
 22 23  1  0  0  0
 22 25  1  0  0  0
 23 24  2  0  0  0
 23 44  1  0  0  0
 24 45  1  0  0  0
M  CHG  1  15   1
M  END
> <s_m_source_file>
../3pa5_ligand.sdf

> <i_m_source_file_index>
1

> <s_epik_input>
W2NIXTFbY0hdYyhDbClbY0hdW2NIXWMxLWMoc2MyW05IXUMoPU8pW05IMl0pW2NIXWMyQyg9TylbTkhdW0NAQEhdM1tDSDJdW05IMitdW0NIMl1bQ0gyXVtDSDJdMw==

> <s_epik_cmdline>
J2VwaWtfYXBwJywgJy1pbWFlJywgJ2xpZ2FuZF9wcm8ubWFlJywgJy1vbWFlJywgJ2xpZ2FuZF9wcmVwLm1hZScsICctbXMnLCAnMScsICctcGgnLCAnNycsICctcGh0JywgJzAuNScsICctbnQn

> <r_lp_tautomer_probability>
1

> <r_epik_Ionization_Penalty>
  0.0003

> <r_epik_Ionization_Penalty_Charging>
  0.0003

> <r_epik_Ionization_Penalty_Neutral>
  0.0000

> <r_epik_State_Penalty>
 -0.0000

> <r_epik_Charging_Adjusted_Penalty>
0.000287105582458797

> <i_epik_Tot_Q>
1

> <i_epik_Tot_abs_Q>
1

$$$$
