3pab_ligand
                    3D
 Schrodinger Suite 2020-3.
146146  0  0  1  0            999 V2000
  -10.6000   75.9670   33.5480 N   0  3  0  0  0  0
  -11.9510   76.4760   33.3570 C   0  0  2  0  0  0
  -11.9490   78.0010   33.2520 C   0  0  0  0  0  0
  -11.6230   78.7000   34.2190 O   0  0  0  0  0  0
  -12.8380   76.0300   34.5200 C   0  0  0  0  0  0
  -14.2960   76.3760   34.3570 C   0  0  0  0  0  0
  -15.1420   75.8410   35.5020 C   0  0  0  0  0  0
  -14.9920   74.6440   35.8440 O   0  5  0  0  0  0
  -15.9450   76.6190   36.0650 O   0  0  0  0  0  0
  -12.3210   78.5110   32.0800 N   0  0  0  0  0  0
  -12.3550   79.9530   31.8180 C   0  0  2  0  0  0
  -13.5090   80.6170   32.5580 C   0  0  0  0  0  0
  -14.5300   79.9910   32.7920 O   0  0  0  0  0  0
  -12.5030   80.2500   30.2830 C   0  0  2  0  0  0
  -12.0170   81.6560   29.9430 C   0  0  0  0  0  0
  -13.9540   80.0790   29.8340 C   0  0  0  0  0  0
  -11.8440   81.9050   28.4300 C   0  0  0  0  0  0
  -13.3320   81.8870   32.9120 N   0  0  0  0  0  0
  -14.3820   82.7170   33.5030 C   0  0  2  0  0  0
  -15.5100   83.0730   32.5280 C   0  0  0  0  0  0
  -15.3470   82.9720   31.3180 O   0  0  0  0  0  0
  -13.7830   84.0610   33.9980 C   0  0  2  0  0  0
  -14.6970   84.7340   35.0200 C   0  0  0  0  0  0
  -13.5550   85.0150   32.8390 C   0  0  0  0  0  0
  -14.0420   85.9010   35.7380 C   0  0  0  0  0  0
  -16.6530   83.5010   33.0640 N   0  0  0  0  0  0
  -17.6670   84.2060   32.2740 C   0  0  2  0  0  0
  -17.2780   85.6650   32.1230 C   0  0  0  0  0  0
  -17.0750   86.3630   33.1210 O   0  0  0  0  0  0
  -19.0390   84.1850   32.9600 C   0  0  0  0  0  0
  -19.4880   82.8030   33.3300 C   0  0  0  0  0  0
  -20.0850   82.0900   32.5170 O   0  0  0  0  0  0
  -19.2180   82.4130   34.5690 N   0  0  0  0  0  0
  -17.2010   86.1450   30.8890 N   0  0  0  0  0  0
  -16.7790   87.5140   30.6640 C   0  0  2  0  0  0
  -17.9510   88.4590   30.7570 C   0  0  0  0  0  0
  -19.0870   88.0780   30.4980 O   0  0  0  0  0  0
  -16.0550   87.6470   29.3240 C   0  0  0  0  0  0
  -14.7650   86.8970   29.2830 C   0  0  0  0  0  0
  -13.6260   87.4300   29.8700 C   0  0  0  0  0  0
  -14.6930   85.6430   28.7020 C   0  0  0  0  0  0
  -12.4180   86.7360   29.8590 C   0  0  0  0  0  0
  -13.4920   84.9440   28.6830 C   0  0  0  0  0  0
  -12.3530   85.4980   29.2660 C   0  0  0  0  0  0
  -17.6630   89.6950   31.1350 N   0  0  0  0  0  0
  -18.6950   90.6930   31.3420 C   0  0  2  0  0  0
  -18.5530   91.7690   30.2820 C   0  0  0  0  0  0
  -17.4550   92.0190   29.7840 O   0  0  0  0  0  0
  -18.5470   91.3120   32.7340 C   0  0  0  0  0  0
  -19.7260   92.1680   33.1590 C   0  0  0  0  0  0
  -20.8440   91.3610   33.8050 C   0  0  0  0  0  0
  -20.9970   90.1540   33.5040 O   0  5  0  0  0  0
  -21.5690   91.9450   34.6310 O   0  0  0  0  0  0
  -19.6660   92.4050   29.9440 N   0  0  0  0  0  0
  -19.6970   93.3990   28.8780 C   0  0  2  0  0  0
  -18.6780   94.5180   29.0810 C   0  0  0  0  0  0
  -18.4380   94.9590   30.2060 O   0  0  0  0  0  0
  -21.1020   93.9990   28.7590 C   0  0  0  0  0  0
  -22.2000   92.9740   28.4790 C   0  0  0  0  0  0
  -22.0340   92.2860   27.1280 C   0  0  0  0  0  0
  -23.1240   91.2290   26.9210 C   0  0  0  0  0  0
  -24.4100   91.8340   26.5050 N   0  3  0  0  0  0
  -18.0800   94.9620   27.9810 N   0  0  0  0  0  0
  -17.2150   96.1340   27.9950 C   0  0  2  0  0  0
  -18.0770   97.3810   27.9700 C   0  0  0  0  0  0
  -19.2600   97.3150   27.6230 O   0  5  0  0  0  0
  -16.2930   96.1410   26.7720 C   0  0  0  0  0  0
  -15.3710   94.9430   26.5810 C   0  0  0  0  0  0
  -14.5030   95.1560   25.3610 C   0  0  0  0  0  0
  -14.5060   94.7410   27.8160 C   0  0  0  0  0  0
  -17.6100   98.4760   28.2800 O   0  0  0  0  0  0
   -9.9648   76.2896   32.7099 H   0  0  0  0  0  0
  -10.6245   74.8680   33.5878 H   0  0  0  0  0  0
  -10.1904   76.3590   34.4906 H   0  0  0  0  0  0
  -12.3046   76.0435   32.4094 H   0  0  0  0  0  0
  -12.7772   74.9371   34.6293 H   0  0  0  0  0  0
  -12.4952   76.5110   35.4480 H   0  0  0  0  0  0
  -14.4122   77.4694   34.3269 H   0  0  0  0  0  0
  -14.6735   75.9412   33.4197 H   0  0  0  0  0  0
  -12.6105   77.8016   31.2907 H   0  0  0  0  0  0
  -11.3978   80.3161   32.2204 H   0  0  0  0  0  0
  -11.8834   79.5386   29.7172 H   0  0  0  0  0  0
  -12.7423   82.3946   30.3150 H   0  0  0  0  0  0
  -11.0398   81.8308   30.4169 H   0  0  0  0  0  0
  -14.2974   79.0639   30.0821 H   0  0  0  0  0  0
  -14.0221   80.2337   28.7471 H   0  0  0  0  0  0
  -14.5867   80.8164   30.3497 H   0  0  0  0  0  0
  -11.4932   82.9345   28.2656 H   0  0  0  0  0  0
  -12.8090   81.7609   27.9220 H   0  0  0  0  0  0
  -11.1065   81.1971   28.0239 H   0  0  0  0  0  0
  -12.3306   82.3079   32.7385 H   0  0  0  0  0  0
  -14.7706   82.0682   34.3018 H   0  0  0  0  0  0
  -12.8147   83.8477   34.4743 H   0  0  0  0  0  0
  -15.5935   85.1195   34.5124 H   0  0  0  0  0  0
  -14.9950   84.0010   35.7842 H   0  0  0  0  0  0
  -12.8973   84.5394   32.0966 H   0  0  0  0  0  0
  -13.0829   85.9366   33.2101 H   0  0  0  0  0  0
  -14.5197   85.2601   32.3707 H   0  0  0  0  0  0
  -14.7534   86.3360   36.4554 H   0  0  0  0  0  0
  -13.7484   86.6653   35.0034 H   0  0  0  0  0  0
  -13.1498   85.5469   36.2752 H   0  0  0  0  0  0
  -16.8237   83.3105   34.1338 H   0  0  0  0  0  0
  -17.6895   83.6736   31.3117 H   0  0  0  0  0  0
  -18.9963   84.7808   33.8837 H   0  0  0  0  0  0
  -19.7940   84.6115   32.2832 H   0  0  0  0  0  0
  -18.6831   83.0876   35.2537 H   0  0  0  0  0  0
  -19.5290   81.4151   34.9116 H   0  0  0  0  0  0
  -17.4584   85.5014   30.0349 H   0  0  0  0  0  0
  -16.0822   87.7471   31.4826 H   0  0  0  0  0  0
  -16.6958   87.2549   28.5205 H   0  0  0  0  0  0
  -15.8323   88.7068   29.1311 H   0  0  0  0  0  0
  -13.6774   88.4083   30.3478 H   0  0  0  0  0  0
  -15.5840   85.2007   28.2564 H   0  0  0  0  0  0
  -11.5305   87.1720   30.3176 H   0  0  0  0  0  0
  -13.4404   83.9623   28.2122 H   0  0  0  0  0  0
  -11.4113   84.9493   29.2514 H   0  0  0  0  0  0
  -16.6060   89.9560   31.2922 H   0  0  0  0  0  0
  -19.6647   90.1818   31.2503 H   0  0  0  0  0  0
  -18.4412   90.5121   33.4816 H   0  0  0  0  0  0
  -17.6549   91.9551   32.7564 H   0  0  0  0  0  0
  -19.3898   92.9182   33.8899 H   0  0  0  0  0  0
  -20.1463   92.6764   32.2787 H   0  0  0  0  0  0
  -20.5857   92.1621   30.4964 H   0  0  0  0  0  0
  -19.4191   92.8314   27.9777 H   0  0  0  0  0  0
  -21.3655   94.5049   29.6995 H   0  0  0  0  0  0
  -21.1216   94.7260   27.9337 H   0  0  0  0  0  0
  -22.1827   92.1964   29.2569 H   0  0  0  0  0  0
  -23.1792   93.4752   28.4832 H   0  0  0  0  0  0
  -22.1066   93.0337   26.3244 H   0  0  0  0  0  0
  -21.0504   91.7955   27.0847 H   0  0  0  0  0  0
  -22.8069   90.5236   26.1388 H   0  0  0  0  0  0
  -23.2890   90.6834   27.8618 H   0  0  0  0  0  0
  -25.1607   91.0417   26.3684 H   0  0  0  0  0  0
  -24.2711   92.3749   25.5573 H   0  0  0  0  0  0
  -24.7533   92.5347   27.2803 H   0  0  0  0  0  0
  -18.2535   94.4177   27.0410 H   0  0  0  0  0  0
  -16.6243   96.0738   28.9210 H   0  0  0  0  0  0
  -16.8997   96.1907   25.8558 H   0  0  0  0  0  0
  -15.6279   97.0159   26.8192 H   0  0  0  0  0  0
  -15.9777   94.0385   26.4269 H   0  0  0  0  0  0
  -15.1418   95.3004   24.4772 H   0  0  0  0  0  0
  -13.8610   94.2757   25.2095 H   0  0  0  0  0  0
  -13.8749   96.0468   25.5089 H   0  0  0  0  0  0
  -15.1506   94.5875   28.6940 H   0  0  0  0  0  0
  -13.8779   95.6303   27.9732 H   0  0  0  0  0  0
  -13.8641   93.8591   27.6738 H   0  0  0  0  0  0
  1  2  1  0  0  0
  1 72  1  0  0  0
  1 73  1  0  0  0
  1 74  1  0  0  0
  2  3  1  0  0  0
  2  5  1  0  0  0
  2 75  1  0  0  0
  3  4  2  0  0  0
  3 10  1  0  0  0
  5  6  1  0  0  0
  5 76  1  0  0  0
  5 77  1  0  0  0
  6  7  1  0  0  0
  6 78  1  0  0  0
  6 79  1  0  0  0
  7  8  1  0  0  0
  7  9  2  0  0  0
 10 11  1  0  0  0
 10 80  1  0  0  0
 11 12  1  0  0  0
 11 14  1  0  0  0
 11 81  1  0  0  0
 12 13  2  0  0  0
 12 18  1  0  0  0
 14 15  1  0  0  0
 14 16  1  0  0  0
 14 82  1  0  0  0
 15 17  1  0  0  0
 15 83  1  0  0  0
 15 84  1  0  0  0
 16 85  1  0  0  0
 16 86  1  0  0  0
 16 87  1  0  0  0
 17 88  1  0  0  0
 17 89  1  0  0  0
 17 90  1  0  0  0
 18 19  1  0  0  0
 18 91  1  0  0  0
 19 20  1  0  0  0
 19 22  1  0  0  0
 19 92  1  0  0  0
 20 21  2  0  0  0
 20 26  1  0  0  0
 22 23  1  0  0  0
 22 24  1  0  0  0
 22 93  1  0  0  0
 23 25  1  0  0  0
 23 94  1  0  0  0
 23 95  1  0  0  0
 24 96  1  0  0  0
 24 97  1  0  0  0
 24 98  1  0  0  0
 25 99  1  0  0  0
 25100  1  0  0  0
 25101  1  0  0  0
 26 27  1  0  0  0
 26102  1  0  0  0
 27 28  1  0  0  0
 27 30  1  0  0  0
 27103  1  0  0  0
 28 29  2  0  0  0
 28 34  1  0  0  0
 30 31  1  0  0  0
 30104  1  0  0  0
 30105  1  0  0  0
 31 32  2  0  0  0
 31 33  1  0  0  0
 33106  1  0  0  0
 33107  1  0  0  0
 34 35  1  0  0  0
 34108  1  0  0  0
 35 36  1  0  0  0
 35 38  1  0  0  0
 35109  1  0  0  0
 36 37  2  0  0  0
 36 45  1  0  0  0
 38 39  1  0  0  0
 38110  1  0  0  0
 38111  1  0  0  0
 39 40  2  0  0  0
 39 41  1  0  0  0
 40 42  1  0  0  0
 40112  1  0  0  0
 41 43  2  0  0  0
 41113  1  0  0  0
 42 44  2  0  0  0
 42114  1  0  0  0
 43 44  1  0  0  0
 43115  1  0  0  0
 44116  1  0  0  0
 45 46  1  0  0  0
 45117  1  0  0  0
 46 47  1  0  0  0
 46 49  1  0  0  0
 46118  1  0  0  0
 47 48  2  0  0  0
 47 54  1  0  0  0
 49 50  1  0  0  0
 49119  1  0  0  0
 49120  1  0  0  0
 50 51  1  0  0  0
 50121  1  0  0  0
 50122  1  0  0  0
 51 52  1  0  0  0
 51 53  2  0  0  0
 54 55  1  0  0  0
 54123  1  0  0  0
 55 56  1  0  0  0
 55 58  1  0  0  0
 55124  1  0  0  0
 56 57  2  0  0  0
 56 63  1  0  0  0
 58 59  1  0  0  0
 58125  1  0  0  0
 58126  1  0  0  0
 59 60  1  0  0  0
 59127  1  0  0  0
 59128  1  0  0  0
 60 61  1  0  0  0
 60129  1  0  0  0
 60130  1  0  0  0
 61 62  1  0  0  0
 61131  1  0  0  0
 61132  1  0  0  0
 62133  1  0  0  0
 62134  1  0  0  0
 62135  1  0  0  0
 63 64  1  0  0  0
 63136  1  0  0  0
 64 65  1  0  0  0
 64 67  1  0  0  0
 64137  1  0  0  0
 65 66  1  0  0  0
 65 71  2  0  0  0
 67 68  1  0  0  0
 67138  1  0  0  0
 67139  1  0  0  0
 68 69  1  0  0  0
 68 70  1  0  0  0
 68140  1  0  0  0
 69141  1  0  0  0
 69142  1  0  0  0
 69143  1  0  0  0
 70144  1  0  0  0
 70145  1  0  0  0
 70146  1  0  0  0
M  CHG  5   1   1   8  -1  52  -1  62   1  66  -1
M  END
> <s_m_source_file>
../3pab_ligand.sdf

> <i_m_source_file_index>
1

> <s_epik_input>
W09IXUMoPU8pW0NIMl1bQ0gyXVtDQEhdKFtOSDMrXSlDKD1PKVtOSF1bQ0BASF0oW0NAQEhdKFtDSDNdKVtDSDJdW0NIM10pQyg9TylbTkhdW0NAQEhdKFtDQEBIXShbQ0gzXSlbQ0gyXVtDSDNdKUMoPU8pW05IXVtDQEBIXShbQ0gyXUMoPU8pW05IMl0pQyg9TylbTkhdW0NAQEhdKFtDSDJdYzFbY0hdW2NIXVtjSF1bY0hdW2NIXTEpQyg9TylbTkhdW0NAQEhdKFtDSDJdW0NIMl1DKD1PKVtPSF0pQyg9TylbTkhdW0NAQEhdKFtDSDJdW0NIMl1bQ0gyXVtDSDJdW05IMytdKUMoPU8pW05IXVtDQEhdKEMoPU8pW09IXSlbQ0gyXVtDSF0oW0NIM10pW0NIM10=

> <s_epik_cmdline>
J2VwaWtfYXBwJywgJy1pbWFlJywgJ2xpZ2FuZF9wcm8ubWFlJywgJy1vbWFlJywgJ2xpZ2FuZF9wcmVwLm1hZScsICctbXMnLCAnMScsICctcGgnLCAnNycsICctcGh0JywgJzAuNScsICctbnQn

> <r_epik_Ionization_Penalty>
  0.0772

> <r_epik_Ionization_Penalty_Charging>
  0.0772

> <r_epik_Ionization_Penalty_Neutral>
  0.0000

> <r_epik_State_Penalty>
  0.0649

> <r_epik_Charging_Adjusted_Penalty>
0.142166436980598

> <i_epik_Tot_Q>
-1

> <i_epik_Tot_abs_Q>
5

$$$$
