3pax_ligand
                    3D
 Schrodinger Suite 2020-3.
 20 20  0  0  1  0            999 V2000
   39.6170   22.1600   22.0970 C   0  0  0  0  0  0
   38.3090   21.7930   21.7350 O   0  0  0  0  0  0
   37.7000   22.2580   20.5070 C   0  0  0  0  0  0
   40.5300   22.7300   21.1720 C   0  0  0  0  0  0
   41.8440   23.0820   21.5820 C   0  0  0  0  0  0
   42.8110   23.6850   20.5890 C   0  0  0  0  0  0
   43.9680   23.9310   20.9360 O   0  0  0  0  0  0
   42.4050   23.9540   19.3400 N   0  0  0  0  0  0
   42.2430   22.8600   22.9280 C   0  0  0  0  0  0
   41.3340   22.3030   23.8440 C   0  0  0  0  0  0
   40.0310   21.9570   23.4280 C   0  0  0  0  0  0
   36.6811   21.8514   20.4262 H   0  0  0  0  0  0
   38.2993   21.9188   19.6492 H   0  0  0  0  0  0
   37.6568   23.3571   20.5125 H   0  0  0  0  0  0
   40.2212   22.8988   20.1404 H   0  0  0  0  0  0
   41.3709   23.7316   19.0379 H   0  0  0  0  0  0
   43.1059   24.3971   18.6173 H   0  0  0  0  0  0
   43.2514   23.1211   23.2491 H   0  0  0  0  0  0
   41.6364   22.1380   24.8781 H   0  0  0  0  0  0
   39.3344   21.5262   24.1472 H   0  0  0  0  0  0
  1  2  1  0  0  0
  1  4  2  0  0  0
  1 11  1  0  0  0
  2  3  1  0  0  0
  3 12  1  0  0  0
  3 13  1  0  0  0
  3 14  1  0  0  0
  4  5  1  0  0  0
  4 15  1  0  0  0
  5  6  1  0  0  0
  5  9  2  0  0  0
  6  7  2  0  0  0
  6  8  1  0  0  0
  8 16  1  0  0  0
  8 17  1  0  0  0
  9 10  1  0  0  0
  9 18  1  0  0  0
 10 11  2  0  0  0
 10 19  1  0  0  0
 11 20  1  0  0  0
M  END
> <s_m_source_file>
../3pax_ligand.sdf

> <i_m_source_file_index>
1

> <s_epik_input>
W0NIM11PYzFbY0hdYyhDKD1PKVtOSDJdKVtjSF1bY0hdW2NIXTE=

> <s_epik_cmdline>
J2VwaWtfYXBwJywgJy1pbWFlJywgJ2xpZ2FuZF9wcm8ubWFlJywgJy1vbWFlJywgJ2xpZ2FuZF9wcmVwLm1hZScsICctbXMnLCAnMScsICctcGgnLCAnNycsICctcGh0JywgJzAuNScsICctbnQn

> <r_lp_tautomer_probability>
1

> <r_epik_Ionization_Penalty>
  0.0000

> <r_epik_Ionization_Penalty_Charging>
  0.0000

> <r_epik_Ionization_Penalty_Neutral>
  0.0000

> <r_epik_State_Penalty>
 -0.0000

> <r_epik_Charging_Adjusted_Penalty>
0

> <i_epik_Tot_Q>
0

> <i_epik_Tot_abs_Q>
0

$$$$
