3pb3_ligand
                    3D
 Schrodinger Suite 2020-3.
 46 48  0  0  1  0            999 V2000
    8.7710   10.0240   20.9790 N   0  3  0  0  0  0
    9.5830   11.1810   21.4540 C   0  0  1  0  0  0
   10.8240   10.6930   22.2110 C   0  0  0  0  0  0
   11.2600   11.7080   23.2710 C   0  0  0  0  0  0
   12.6930   11.1910   24.1790 S   0  0  0  0  0  0
    9.9860   12.0330   20.2810 C   0  0  0  0  0  0
   10.2430   13.2140   20.4890 O   0  0  0  0  0  0
   10.0690   11.6090   19.1210 O   0  5  0  0  0  0
   12.2260    9.6800   24.9600 C   0  0  0  0  0  0
   10.9330    9.7880   25.7730 C   0  0  1  0  0  0
   10.5740    8.4710   26.2040 O   0  0  0  0  0  0
   11.0220   10.6590   27.0280 C   0  0  1  0  0  0
   10.0010   11.6650   26.9920 O   0  0  0  0  0  0
   10.7660    9.6930   28.1780 C   0  0  1  0  0  0
   10.0220   10.2530   29.2760 O   0  0  0  0  0  0
   10.0320    8.5390   27.5170 C   0  0  2  0  0  0
   10.2510    7.2780   28.2680 N   0  0  0  0  0  0
   11.4320    6.8120   28.7280 C   0  0  0  0  0  0
   11.2650    5.6380   29.3870 N   0  0  0  0  0  0
    9.9510    5.3460   29.3600 C   0  0  0  0  0  0
    9.0900    4.2530   29.8620 C   0  0  0  0  0  0
    9.6180    3.2130   30.5510 N   0  0  0  0  0  0
    7.7600    4.3290   29.6080 N   0  0  0  0  0  0
    7.2170    5.3550   28.9210 C   0  0  0  0  0  0
    7.9410    6.3780   28.4320 N   0  0  0  0  0  0
    9.2860    6.4320   28.6190 C   0  0  0  0  0  0
    8.4784    9.4037   21.8390 H   0  0  0  0  0  0
    9.3668    9.4211   20.2779 H   0  0  0  0  0  0
    7.8688   10.3937   20.4697 H   0  0  0  0  0  0
    8.9537   11.7808   22.1279 H   0  0  0  0  0  0
   10.5975    9.7394   22.7103 H   0  0  0  0  0  0
   11.6525   10.5480   21.5021 H   0  0  0  0  0  0
   11.5002   12.6652   22.7852 H   0  0  0  0  0  0
   10.4437   11.8579   23.9929 H   0  0  0  0  0  0
   12.0707    8.9047   24.1953 H   0  0  0  0  0  0
   13.0226    9.3616   25.6485 H   0  0  0  0  0  0
   10.1593   10.2070   25.1128 H   0  0  0  0  0  0
   11.9581   11.2285   27.1246 H   0  0  0  0  0  0
   10.0285   12.4492   26.2211 H   0  0  0  0  0  0
   11.6849    9.4133   28.7141 H   0  0  0  0  0  0
   10.4357   11.0974   29.8468 H   0  0  0  0  0  0
    8.9418    8.6666   27.4448 H   0  0  0  0  0  0
   12.3905    7.3119   28.5886 H   0  0  0  0  0  0
   10.7002    3.1741   30.7443 H   0  0  0  0  0  0
    8.9646    2.4074   30.9172 H   0  0  0  0  0  0
    6.1399    5.3552   28.7540 H   0  0  0  0  0  0
  1  2  1  0  0  0
  1 27  1  0  0  0
  1 28  1  0  0  0
  1 29  1  0  0  0
  2  3  1  0  0  0
  2  6  1  0  0  0
  2 30  1  0  0  0
  3  4  1  0  0  0
  3 31  1  0  0  0
  3 32  1  0  0  0
  4  5  1  0  0  0
  4 33  1  0  0  0
  4 34  1  0  0  0
  5  9  1  0  0  0
  6  7  2  0  0  0
  6  8  1  0  0  0
  9 10  1  0  0  0
  9 35  1  0  0  0
  9 36  1  0  0  0
 10 11  1  0  0  0
 10 12  1  0  0  0
 10 37  1  0  0  0
 11 16  1  0  0  0
 12 13  1  0  0  0
 12 14  1  0  0  0
 12 38  1  0  0  0
 13 39  1  0  0  0
 14 15  1  0  0  0
 14 16  1  0  0  0
 14 40  1  0  0  0
 15 41  1  0  0  0
 16 17  1  0  0  0
 16 42  1  0  0  0
 17 18  1  0  0  0
 17 26  1  0  0  0
 18 19  2  0  0  0
 18 43  1  0  0  0
 19 20  1  0  0  0
 20 21  2  0  0  0
 20 26  1  0  0  0
 21 22  1  0  0  0
 21 23  1  0  0  0
 22 44  1  0  0  0
 22 45  1  0  0  0
 23 24  2  0  0  0
 24 25  1  0  0  0
 24 46  1  0  0  0
 25 26  2  0  0  0
M  CHG  2   1   1   8  -1
M  END
> <s_m_source_file>
../3pb3_ligand.sdf

> <i_m_source_file_index>
1

> <s_epik_input>
Tz1DKFtPSF0pW0NAQEhdKFtOSDMrXSlbQ0gyXVtDSDJdU1tDSDJdW0NASF0xT1tDQEhdKFtDQEhdKFtPSF0pW0NAQEhdMVtPSF0pbihbY0hdbjIpYyhjMjMpbltjSF1uYzNbTkgyXQ==

> <s_epik_cmdline>
J2VwaWtfYXBwJywgJy1pbWFlJywgJ2xpZ2FuZF9wcm8ubWFlJywgJy1vbWFlJywgJ2xpZ2FuZF9wcmVwLm1hZScsICctbXMnLCAnMScsICctcGgnLCAnNycsICctcGh0JywgJzAuNScsICctbnQn

> <r_lp_tautomer_probability>
1

> <r_epik_Ionization_Penalty>
  0.0026

> <r_epik_Ionization_Penalty_Charging>
  0.0022

> <r_epik_Ionization_Penalty_Neutral>
  0.0004

> <r_epik_State_Penalty>
 -0.0000

> <r_epik_Charging_Adjusted_Penalty>
0.00216156469931729

> <i_epik_Tot_Q>
0

> <i_epik_Tot_abs_Q>
2

> <s_epik_Chemistry_Notes>
This compound contains an acetal/aminal-like group ( X-CH(R)-Y where X, Y are N, S, or O) that may be acid/base labile, releasing an aldehyde.

$$$$
