3pb8_ligand
                    3D
 Schrodinger Suite 2020-3.
 22 22  0  0  1  0            999 V2000
  -18.3450  -14.9810   18.6880 C   0  0  0  0  0  0
  -18.8750  -15.7380   17.8180 O   0  0  0  0  0  0
  -18.3810  -15.2390   20.2340 C   0  0  0  0  0  0
  -17.7070  -13.8830   18.3250 N   0  0  0  0  0  0
  -17.5180  -13.6490   16.9360 C   0  0  0  0  0  0
  -18.5570  -12.6130   16.3630 C   0  0  0  0  0  0
  -18.4420  -12.6120   14.8300 C   0  0  0  0  0  0
  -18.6660  -13.6240   13.9610 C   0  0  0  0  0  0
  -18.0020  -11.5980   14.0870 N   0  0  0  0  0  0
  -18.0250  -11.9410   12.8340 C   0  0  0  0  0  0
  -18.4060  -13.2110   12.7010 N   0  3  0  0  0  0
  -18.9302  -16.1701   20.4376 H   0  0  0  0  0  0
  -18.8852  -14.3990   20.7342 H   0  0  0  0  0  0
  -17.3529  -15.3289   20.6148 H   0  0  0  0  0  0
  -17.3263  -13.1599   19.0614 H   0  0  0  0  0  0
  -16.5071  -13.2503   16.7656 H   0  0  0  0  0  0
  -17.6371  -14.5938   16.3854 H   0  0  0  0  0  0
  -19.5729  -12.9074   16.6649 H   0  0  0  0  0  0
  -18.3326  -11.6115   16.7588 H   0  0  0  0  0  0
  -19.0087  -14.6014   14.3315 H   0  0  0  0  0  0
  -17.7500  -11.2107   12.0587 H   0  0  0  0  0  0
  -18.5337  -13.9052   11.8573 H   0  0  0  0  0  0
  1  2  2  0  0  0
  1  3  1  0  0  0
  1  4  1  0  0  0
  3 12  1  0  0  0
  3 13  1  0  0  0
  3 14  1  0  0  0
  4  5  1  0  0  0
  4 15  1  0  0  0
  5  6  1  0  0  0
  5 16  1  0  0  0
  5 17  1  0  0  0
  6  7  1  0  0  0
  6 18  1  0  0  0
  6 19  1  0  0  0
  7  8  2  0  0  0
  7  9  1  0  0  0
  8 11  1  0  0  0
  8 20  1  0  0  0
  9 10  2  0  0  0
 10 11  1  0  0  0
 10 21  1  0  0  0
 11 22  1  0  0  0
M  CHG  1  11   1
M  END
> <s_m_source_file>
../3pb8_ligand.sdf

> <i_m_source_file_index>
1

> <s_epik_input>
Tz1DKFtDSDNdKVtOSF1bQ0gyXVtDSDJdYzFbY0hdW25IXVtjSF1uMQ==

> <s_epik_cmdline>
J2VwaWtfYXBwJywgJy1pbWFlJywgJ2xpZ2FuZF9wcm8ubWFlJywgJy1vbWFlJywgJ2xpZ2FuZF9wcmVwLm1hZScsICctbXMnLCAnMScsICctcGgnLCAnNycsICctcGh0JywgJzAuNScsICctbnQn

> <r_lp_tautomer_probability>
0.499999999999999

> <r_epik_Ionization_Penalty>
  0.0009

> <r_epik_Ionization_Penalty_Charging>
  0.0008

> <r_epik_Ionization_Penalty_Neutral>
  0.0000

> <r_epik_State_Penalty>
  0.0003

> <r_epik_Charging_Adjusted_Penalty>
0.0011157256758186

> <i_epik_Tot_Q>
1

> <i_epik_Tot_abs_Q>
1

> <s_epik_Chemistry_Notes>
This compound has an imine and may undergo hydrolysis.

$$$$
