3pbb_ligand
                    3D
 Schrodinger Suite 2020-3.
 43 44  0  0  1  0            999 V2000
    3.4040   76.5310    1.0340 C   0  0  0  0  0  0
    3.6190   71.6740    3.2840 C   0  0  0  0  0  0
    0.9770   74.8840    9.2290 S   0  0  0  0  0  0
   -5.6270   75.3090    3.6370 C   0  0  0  0  0  0
    2.4050   76.2670    4.9990 C   0  0  0  0  0  0
    2.6980   76.4120    3.6430 C   0  0  0  0  0  0
   -4.9940   74.8750    4.7410 C   0  0  0  0  0  0
   -4.7710   77.1000    4.6120 C   0  0  0  0  0  0
    2.9570   73.8860    4.8680 C   0  0  0  0  0  0
   -2.2660   75.6210    6.0550 C   0  0  0  0  0  0
   -1.3710   75.6170    7.2960 C   0  0  0  0  0  0
   -3.6630   76.0000    6.5410 C   0  0  0  0  0  0
   -5.5210   76.6730    3.6200 N   0  3  0  0  0  0
   -0.0120   75.4610    6.7550 N   0  0  0  0  0  0
    2.2970   74.9180    6.9080 N   0  0  0  0  0  0
    3.3840   75.2600    1.6160 O   0  0  0  0  0  0
    3.6610   73.0250    2.6410 O   0  0  0  0  0  0
    1.0860   75.1130    7.4940 C   0  0  0  0  0  0
    2.5420   75.0160    5.6160 C   0  0  0  0  0  0
    3.0920   75.2720    2.9330 C   0  0  0  0  0  0
    3.2390   74.0320    3.5050 C   0  0  0  0  0  0
   -4.5070   75.9950    5.3300 N   0  0  0  0  0  0
    3.6478   76.4410   -0.0349 H   0  0  0  0  0  0
    4.1639   77.1506    1.5326 H   0  0  0  0  0  0
    2.4160   77.0013    1.1464 H   0  0  0  0  0  0
    3.9601   70.9148    2.5647 H   0  0  0  0  0  0
    2.5884   71.4478    3.5949 H   0  0  0  0  0  0
    4.2777   71.6666    4.1649 H   0  0  0  0  0  0
   -6.1305   74.6900    2.8944 H   0  0  0  0  0  0
    2.0694   77.1268    5.5789 H   0  0  0  0  0  0
    2.6225   77.3822    3.1520 H   0  0  0  0  0  0
   -4.8941   73.8463    5.0873 H   0  0  0  0  0  0
   -4.4386   78.1195    4.8077 H   0  0  0  0  0  0
    3.0555   72.9131    5.3494 H   0  0  0  0  0  0
   -1.8853   76.3562    5.3308 H   0  0  0  0  0  0
   -2.2633   74.6206    5.5977 H   0  0  0  0  0  0
   -1.4940   76.5652    7.8398 H   0  0  0  0  0  0
   -1.6550   74.7796    7.9503 H   0  0  0  0  0  0
   -4.0081   75.2599    7.2780 H   0  0  0  0  0  0
   -3.6312   76.9954    7.0082 H   0  0  0  0  0  0
    0.1761   75.6274    5.6841 H   0  0  0  0  0  0
    3.1701   74.6558    7.5236 H   0  0  0  0  0  0
   -6.0321   77.2547    2.8387 H   0  0  0  0  0  0
  1 16  1  0  0  0
  1 23  1  0  0  0
  1 24  1  0  0  0
  1 25  1  0  0  0
  2 17  1  0  0  0
  2 26  1  0  0  0
  2 27  1  0  0  0
  2 28  1  0  0  0
  3 18  2  0  0  0
  4  7  2  0  0  0
  4 13  1  0  0  0
  4 29  1  0  0  0
  5  6  2  0  0  0
  5 19  1  0  0  0
  5 30  1  0  0  0
  6 20  1  0  0  0
  6 31  1  0  0  0
  7 22  1  0  0  0
  7 32  1  0  0  0
  8 13  2  0  0  0
  8 22  1  0  0  0
  8 33  1  0  0  0
  9 19  2  0  0  0
  9 21  1  0  0  0
  9 34  1  0  0  0
 10 11  1  0  0  0
 10 12  1  0  0  0
 10 35  1  0  0  0
 10 36  1  0  0  0
 11 14  1  0  0  0
 11 37  1  0  0  0
 11 38  1  0  0  0
 12 22  1  0  0  0
 12 39  1  0  0  0
 12 40  1  0  0  0
 13 43  1  0  0  0
 14 18  1  0  0  0
 14 41  1  0  0  0
 15 18  1  0  0  0
 15 19  1  0  0  0
 15 42  1  0  0  0
 16 20  1  0  0  0
 17 21  1  0  0  0
 20 21  2  0  0  0
M  CHG  1  13   1
M  END
> <s_m_source_file>
../3pbb_ligand.sdf

> <i_m_source_file_index>
1

> <s_epik_input>
W0NIM11PYyhbY0hdMSljKE9bQ0gzXSlbY0hdW2NIXWMxL049QygvW1NIXSlbTkhdW0NIMl1bQ0gyXVtDSDJdbjJbY0hdW2NIXW5bY0hdMg==

> <s_epik_cmdline>
J2VwaWtfYXBwJywgJy1pbWFlJywgJ2xpZ2FuZF9wcm8ubWFlJywgJy1vbWFlJywgJ2xpZ2FuZF9wcmVwLm1hZScsICctbXMnLCAnMScsICctcGgnLCAnNycsICctcGh0JywgJzAuNScsICctbnQn

> <r_lp_tautomer_probability>
1

> <r_epik_Ionization_Penalty>
  0.2758

> <r_epik_Ionization_Penalty_Charging>
  0.0000

> <r_epik_Ionization_Penalty_Neutral>
  0.2758

> <r_epik_State_Penalty>
  0.2682

> <r_epik_Charging_Adjusted_Penalty>
0.268168672500128

> <i_epik_Tot_Q>
1

> <i_epik_Tot_abs_Q>
1

$$$$
