3pcb_ligand
                    3D
 Schrodinger Suite 2020-3.
 15 15  0  0  1  0            999 V2000
   16.0260   13.6040   40.3710 C   0  0  0  0  0  0
   17.0400   13.3720   39.6730 O   0  5  0  0  0  0
   15.8070   14.7550   40.7850 O   0  0  0  0  0  0
   15.1070   12.4240   40.7050 C   0  0  0  0  0  0
   15.4280   11.1420   40.2030 C   0  0  0  0  0  0
   14.6230   10.0410   40.4960 C   0  0  0  0  0  0
   13.5000   10.2010   41.2850 C   0  0  0  0  0  0
   13.1760   11.4900   41.7970 C   0  0  0  0  0  0
   13.9570   12.5940   41.5030 C   0  0  0  0  0  0
   14.9830    8.8250   39.9790 O   0  0  0  0  0  0
   16.3135   11.0125   39.5807 H   0  0  0  0  0  0
   12.8653    9.3451   41.5144 H   0  0  0  0  0  0
   12.2977   11.6090   42.4314 H   0  0  0  0  0  0
   13.6873   13.5796   41.8824 H   0  0  0  0  0  0
   15.8846    8.7378   39.3549 H   0  0  0  0  0  0
  1  4  1  0  0  0
  1  3  2  0  0  0
  1  2  1  0  0  0
  4  9  2  0  0  0
  4  5  1  0  0  0
  5  6  2  0  0  0
  5 11  1  0  0  0
  6 10  1  0  0  0
  6  7  1  0  0  0
  7  8  2  0  0  0
  7 12  1  0  0  0
  8  9  1  0  0  0
  8 13  1  0  0  0
  9 14  1  0  0  0
 10 15  1  0  0  0
M  CHG  1   2  -1
M  END
> <s_m_source_file>
../3pcb_ligand.sdf

> <i_m_source_file_index>
1

> <s_epik_input>
W09IXUMoPU8pYzFbY0hdYyhbT0hdKVtjSF1bY0hdW2NIXTE=

> <s_epik_cmdline>
J2VwaWtfYXBwJywgJy1pbWFlJywgJ2xpZ2FuZF9wcm8ubWFlJywgJy1vbWFlJywgJ2xpZ2FuZF9wcmVwLm1hZScsICctbXMnLCAnMScsICctcGgnLCAnNycsICctcGh0JywgJzAuNScsICctbnQn

> <r_lp_tautomer_probability>
1

> <r_epik_Ionization_Penalty>
  0.0021

> <r_epik_Ionization_Penalty_Charging>
  0.0007

> <r_epik_Ionization_Penalty_Neutral>
  0.0014

> <r_epik_State_Penalty>
 -0.0000

> <r_epik_Charging_Adjusted_Penalty>
0.00071189670739386

> <i_epik_Tot_Q>
-1

> <i_epik_Tot_abs_Q>
1

$$$$
