3pcc_ligand
                    3D
 Schrodinger Suite 2020-3.
 15 15  0  0  1  0            999 V2000
   15.6490   13.8990   40.9310 C   0  0  0  0  0  0
   16.5810   14.2470   40.2370 O   0  0  0  0  0  0
   15.1560   14.7840   41.6340 O   0  5  0  0  0  0
   15.0670   12.4800   40.9640 C   0  0  0  0  0  0
   15.6540   11.4820   40.1700 C   0  0  0  0  0  0
   15.1510   10.1560   40.2130 C   0  0  0  0  0  0
   14.0380    9.8870   41.0150 C   0  0  0  0  0  0
   13.4610   10.8760   41.7980 C   0  0  0  0  0  0
   13.9480   12.1800   41.7510 C   0  0  0  0  0  0
   13.5830    8.6400   41.0400 O   0  0  0  0  0  0
   16.4953   11.7256   39.5212 H   0  0  0  0  0  0
   15.6228    9.3632   39.6325 H   0  0  0  0  0  0
   12.6239   10.6319   42.4521 H   0  0  0  0  0  0
   13.4588   12.9662   42.3261 H   0  0  0  0  0  0
   14.0542    7.8699   40.4116 H   0  0  0  0  0  0
  1  4  1  0  0  0
  1  3  1  0  0  0
  1  2  2  0  0  0
  4  9  2  0  0  0
  4  5  1  0  0  0
  5  6  2  0  0  0
  5 11  1  0  0  0
  6  7  1  0  0  0
  6 12  1  0  0  0
  7 10  1  0  0  0
  7  8  2  0  0  0
  8  9  1  0  0  0
  8 13  1  0  0  0
  9 14  1  0  0  0
 10 15  1  0  0  0
M  CHG  1   3  -1
M  END
> <s_m_source_file>
../3pcc_ligand.sdf

> <i_m_source_file_index>
1

> <s_epik_input>
Tz1DKFtPSF0pYzFbY0hdW2NIXWMoW09IXSlbY0hdW2NIXTE=

> <s_epik_cmdline>
J2VwaWtfYXBwJywgJy1pbWFlJywgJ2xpZ2FuZF9wcm8ubWFlJywgJy1vbWFlJywgJ2xpZ2FuZF9wcmVwLm1hZScsICctbXMnLCAnMScsICctcGgnLCAnNycsICctcGh0JywgJzAuNScsICctbnQn

> <r_lp_tautomer_probability>
1

> <r_epik_Ionization_Penalty>
  0.0029

> <r_epik_Ionization_Penalty_Charging>
  0.0020

> <r_epik_Ionization_Penalty_Neutral>
  0.0009

> <r_epik_State_Penalty>
 -0.0000

> <r_epik_Charging_Adjusted_Penalty>
0.00195866367851461

> <i_epik_Tot_Q>
-1

> <i_epik_Tot_abs_Q>
1

$$$$
