3pcg_ligand
                    3D
 Schrodinger Suite 2020-3.
 18 18  0  0  1  0            999 V2000
   15.5990   13.7890   40.4550 C   0  0  0  0  0  0
   16.7700   13.6750   40.0290 O   0  0  0  0  0  0
   15.3480   14.4780   41.4700 O   0  5  0  0  0  0
   14.4470   12.9200   39.8720 C   0  0  0  0  0  0
   14.4130   11.5380   40.5330 C   0  0  0  0  0  0
   15.1060   10.4510   39.9400 C   0  0  0  0  0  0
   15.1060    9.1960   40.5500 C   0  0  0  0  0  0
   14.4920    9.0650   41.8080 C   0  0  0  0  0  0
   13.8350   10.1460   42.4160 C   0  0  0  0  0  0
   13.8000   11.3790   41.7800 C   0  0  0  0  0  0
   14.4770    7.9050   42.5200 O   0  0  0  0  0  0
   13.4838   13.4203   40.0508 H   0  0  0  0  0  0
   14.5973   12.7899   38.7901 H   0  0  0  0  0  0
   15.6417   10.5973   39.0021 H   0  0  0  0  0  0
   15.5705    8.3384   40.0632 H   0  0  0  0  0  0
   13.3534   10.0174   43.3854 H   0  0  0  0  0  0
   13.2955   12.2223   42.2517 H   0  0  0  0  0  0
   14.9684    7.0066   42.1182 H   0  0  0  0  0  0
  1  4  1  0  0  0
  1  3  1  0  0  0
  1  2  2  0  0  0
  4  5  1  0  0  0
  4 12  1  0  0  0
  4 13  1  0  0  0
  5 10  2  0  0  0
  5  6  1  0  0  0
  6  7  2  0  0  0
  6 14  1  0  0  0
  7  8  1  0  0  0
  7 15  1  0  0  0
  8 11  1  0  0  0
  8  9  2  0  0  0
  9 10  1  0  0  0
  9 16  1  0  0  0
 10 17  1  0  0  0
 11 18  1  0  0  0
M  CHG  1   3  -1
M  END
> <s_m_source_file>
../3pcg_ligand.sdf

> <i_m_source_file_index>
1

> <s_epik_input>
Tz1DKFtPSF0pW0NIMl1jMVtjSF1bY0hdYyhbT0hdKVtjSF1bY0hdMQ==

> <s_epik_cmdline>
J2VwaWtfYXBwJywgJy1pbWFlJywgJ2xpZ2FuZF9wcm8ubWFlJywgJy1vbWFlJywgJ2xpZ2FuZF9wcmVwLm1hZScsICctbXMnLCAnMScsICctcGgnLCAnNycsICctcGh0JywgJzAuNScsICctbnQn

> <r_lp_tautomer_probability>
1

> <r_epik_Ionization_Penalty>
  0.0024

> <r_epik_Ionization_Penalty_Charging>
  0.0018

> <r_epik_Ionization_Penalty_Neutral>
  0.0006

> <r_epik_State_Penalty>
 -0.0000

> <r_epik_Charging_Adjusted_Penalty>
0.00179192987651329

> <i_epik_Tot_Q>
-1

> <i_epik_Tot_abs_Q>
1

$$$$
