3pch_ligand
                    3D
 Schrodinger Suite 2020-3.
 15 15  0  0  1  0            999 V2000
   14.8430   12.5980   40.6780 C   0  0  0  0  0  0
   15.4100   11.5770   39.8710 C   0  0  0  0  0  0
   14.9130   10.3000   39.9390 C   0  0  0  0  0  0
   15.6960    9.0590   39.0190 Cl  0  0  0  0  0  0
   13.8720    9.9890   40.8040 C   0  0  0  0  0  0
   13.4560    8.6890   40.8550 O   0  0  0  0  0  0
   13.3100   10.9840   41.6230 C   0  0  0  0  0  0
   13.7880   12.2920   41.5350 C   0  0  0  0  0  0
   15.4350   14.0050   40.5530 C   0  0  0  0  0  0
   16.3830   14.2430   39.7880 O   0  5  0  0  0  0
   14.9320   14.8710   41.2860 O   0  0  0  0  0  0
   16.2374   11.8068   39.1996 H   0  0  0  0  0  0
   13.9189    7.9372   40.1989 H   0  0  0  0  0  0
   12.5091   10.7362   42.3196 H   0  0  0  0  0  0
   13.3342   13.0775   42.1392 H   0  0  0  0  0  0
  1  2  2  0  0  0
  1  8  1  0  0  0
  1  9  1  0  0  0
  2  3  1  0  0  0
  2 12  1  0  0  0
  3  4  1  0  0  0
  3  5  2  0  0  0
  5  6  1  0  0  0
  5  7  1  0  0  0
  6 13  1  0  0  0
  7  8  2  0  0  0
  7 14  1  0  0  0
  8 15  1  0  0  0
  9 10  1  0  0  0
  9 11  2  0  0  0
M  CHG  1  10  -1
M  END
> <s_m_source_file>
../3pch_ligand.sdf

> <i_m_source_file_index>
1

> <s_epik_input>
W09IXUMoPU8pYzFbY0hdYyhDbCljKFtPSF0pW2NIXVtjSF0x

> <s_epik_cmdline>
J2VwaWtfYXBwJywgJy1pbWFlJywgJ2xpZ2FuZF9wcm8ubWFlJywgJy1vbWFlJywgJ2xpZ2FuZF9wcmVwLm1hZScsICctbXMnLCAnMScsICctcGgnLCAnNycsICctcGh0JywgJzAuNScsICctbnQn

> <r_epik_Ionization_Penalty>
  0.0247

> <r_epik_Ionization_Penalty_Charging>
  0.0008

> <r_epik_Ionization_Penalty_Neutral>
  0.0239

> <r_epik_State_Penalty>
  0.0194

> <r_epik_Charging_Adjusted_Penalty>
0.020191838292504

> <i_epik_Tot_Q>
-1

> <i_epik_Tot_abs_Q>
1

$$$$
