3pck_ligand
                    3D
 Schrodinger Suite 2020-3.
 14 14  0  0  1  0            999 V2000
   14.1890    9.4890   40.7470 N   0  0  0  0  0  0
   14.9550   10.4550   40.3000 C   0  0  0  0  0  0
   14.8000   11.8160   40.6900 C   0  0  0  0  0  0
   13.7500   12.1190   41.5570 C   0  0  0  0  0  0
   12.9350   11.1110   42.0320 C   0  0  0  0  0  0
   13.1750    9.7930   41.5940 C   0  0  0  0  0  0
   15.7760   12.9150   40.2280 C   0  0  0  0  0  0
   16.6970   12.6030   39.4700 O   0  5  0  0  0  0
   15.6570   14.0890   40.5750 O   0  0  0  0  0  0
   12.3610    8.8800   41.9840 O   0  0  0  0  0  0
   14.3270    8.3100   40.3520 O   0  5  0  0  0  0
   15.7485   10.2042   39.5961 H   0  0  0  0  0  0
   13.5731   13.1512   41.8593 H   0  0  0  0  0  0
   12.1257   11.3291   42.7288 H   0  0  0  0  0  0
  1 11  1  0  0  0
  1  6  1  0  0  0
  1  2  1  0  0  0
  2  3  2  0  0  0
  2 12  1  0  0  0
  3  7  1  0  0  0
  3  4  1  0  0  0
  4  5  2  0  0  0
  4 13  1  0  0  0
  5  6  1  0  0  0
  5 14  1  0  0  0
  6 10  2  0  0  0
  7  9  2  0  0  0
  7  8  1  0  0  0
M  CHG  2   8  -1  11  -1
M  END
> <s_m_source_file>
../3pck_ligand.sdf

> <i_m_source_file_index>
1

> <s_epik_input>
W09IXW4xW2NIXWMoQyg9TylbT0hdKVtjSF1bY0hdYzE9Tw==

> <s_epik_cmdline>
J2VwaWtfYXBwJywgJy1pbWFlJywgJ2xpZ2FuZF9wcm8ubWFlJywgJy1vbWFlJywgJ2xpZ2FuZF9wcmVwLm1hZScsICctbXMnLCAnMScsICctcGgnLCAnNycsICctcGh0JywgJzAuNScsICctbnQn

> <r_lp_tautomer_probability>
1

> <r_epik_Ionization_Penalty>
  0.0003

> <r_epik_Ionization_Penalty_Charging>
  0.0003

> <r_epik_Ionization_Penalty_Neutral>
  0.0000

> <r_epik_State_Penalty>
 -0.0000

> <r_epik_Charging_Adjusted_Penalty>
0.000346861022928375

> <i_epik_Tot_Q>
-2

> <i_epik_Tot_abs_Q>
2

$$$$
