3pcn_ligand
                    3D
 Schrodinger Suite 2020-3.
 19 19  0  0  1  0            999 V2000
   14.0730   11.5350   40.5930 C   0  0  0  0  0  0
   14.3540   10.1820   40.2180 C   0  0  0  0  0  0
   14.1580    9.2130   41.1660 C   0  0  0  0  0  0
   13.7400    9.5050   42.4530 C   0  0  0  0  0  0
   13.4970   10.8170   42.8440 C   0  0  0  0  0  0
   13.6720   11.8540   41.8900 C   0  0  0  0  0  0
   14.4480   12.6880   39.6060 C   0  0  0  0  0  0
   15.6910   13.5590   40.1290 C   0  0  0  0  0  0
   16.8150   13.1380   39.7260 O   0  5  0  0  0  0
   15.4930   14.5000   40.8920 O   0  0  0  0  0  0
   14.3350    7.8810   40.8960 O   0  0  0  0  0  0
   13.5820    8.3990   43.2670 O   0  0  0  0  0  0
   14.7096    9.9331   39.2182 H   0  0  0  0  0  0
   13.1789   11.0447   43.8614 H   0  0  0  0  0  0
   13.4941   12.8924   42.1695 H   0  0  0  0  0  0
   14.7189   12.2609   38.6292 H   0  0  0  0  0  0
   13.5871   13.3620   39.4854 H   0  0  0  0  0  0
   14.6660    7.5616   39.8968 H   0  0  0  0  0  0
   13.7971    7.3934   42.8764 H   0  0  0  0  0  0
  1  7  1  0  0  0
  1  6  2  0  0  0
  1  2  1  0  0  0
  2  3  2  0  0  0
  2 13  1  0  0  0
  3 11  1  0  0  0
  3  4  1  0  0  0
  4 12  1  0  0  0
  4  5  2  0  0  0
  5  6  1  0  0  0
  5 14  1  0  0  0
  6 15  1  0  0  0
  7  8  1  0  0  0
  7 16  1  0  0  0
  7 17  1  0  0  0
  8 10  2  0  0  0
  8  9  1  0  0  0
 11 18  1  0  0  0
 12 19  1  0  0  0
M  CHG  1   9  -1
M  END
> <s_m_source_file>
../3pcn_ligand.sdf

> <i_m_source_file_index>
1

> <s_epik_input>
W09IXUMoPU8pW0NIMl1jMVtjSF1jKFtPSF0pYyhbT0hdKVtjSF1bY0hdMQ==

> <s_epik_cmdline>
J2VwaWtfYXBwJywgJy1pbWFlJywgJ2xpZ2FuZF9wcm8ubWFlJywgJy1vbWFlJywgJ2xpZ2FuZF9wcmVwLm1hZScsICctbXMnLCAnMScsICctcGgnLCAnNycsICctcGh0JywgJzAuNScsICctbnQn

> <r_lp_tautomer_probability>
1

> <r_epik_Ionization_Penalty>
  0.0030

> <r_epik_Ionization_Penalty_Charging>
  0.0017

> <r_epik_Ionization_Penalty_Neutral>
  0.0013

> <r_epik_State_Penalty>
 -0.0000

> <r_epik_Charging_Adjusted_Penalty>
0.00165604006085163

> <i_epik_Tot_Q>
-1

> <i_epik_Tot_abs_Q>
1

$$$$
