3pcu_ligand
                    3D
 Schrodinger Suite 2020-3.
 50 52  0  0  1  0            999 V2000
  -19.3250   -0.0320    7.4080 C   0  0  0  0  0  0
  -20.9670    9.7580    2.1320 C   0  0  0  0  0  0
  -20.6690   -1.7170    5.6440 C   0  0  0  0  0  0
  -18.4110   -2.7370    5.1910 C   0  0  0  0  0  0
  -18.8480    7.4990    3.0840 C   0  0  0  0  0  0
  -17.4100    7.1880    1.0170 C   0  0  0  0  0  0
  -18.6320   10.0380    1.7100 O   0  0  0  0  0  0
  -19.3730   -2.1650    2.5310 O   0  0  0  0  0  0
  -18.6070   -0.7860    6.4790 C   0  0  0  0  0  0
  -18.7200    2.9780    3.6680 C   0  0  0  0  0  0
  -18.9610    2.1960    0.9820 C   0  0  0  0  0  0
  -18.8570    0.7780    4.3740 C   0  0  0  0  0  0
  -18.6430    5.3690    2.7370 C   0  0  0  0  0  0
  -19.5860    8.1380    0.8820 O   0  0  0  0  0  0
  -18.8170    4.7240    0.5810 O   0  0  0  0  0  0
  -19.0840   -0.1010    1.7270 O   0  0  0  0  0  0
  -19.6320    9.3280    1.5620 C   0  0  0  0  0  0
  -18.7250    3.9010    2.6560 C   0  0  0  0  0  0
  -18.8460    3.5550    1.3130 C   0  0  0  0  0  0
  -19.0820   -0.5530    4.1280 C   0  0  0  0  0  0
  -19.1910   -0.9770    2.7900 C   0  0  0  0  0  0
  -18.8120    1.6530    3.3280 C   0  0  0  0  0  0
  -18.9600    1.2350    2.0060 C   0  0  0  0  0  0
  -19.3690    5.7370    1.4810 C   0  0  2  0  0  0
  -19.1840   -1.4420    5.3840 C   0  0  0  0  0  0
  -18.8170    7.1560    1.5870 C   0  0  0  0  0  0
  -20.4149    0.0754    7.3046 H   0  0  0  0  0  0
  -18.8012    0.4550    8.2437 H   0  0  0  0  0  0
  -20.8522   10.7236    2.6463 H   0  0  0  0  0  0
  -21.3211    9.0012    2.8475 H   0  0  0  0  0  0
  -21.6977    9.8616    1.3163 H   0  0  0  0  0  0
  -20.7736   -2.3509    6.5368 H   0  0  0  0  0  0
  -21.1040   -2.2326    4.7751 H   0  0  0  0  0  0
  -21.1952   -0.7648    5.8066 H   0  0  0  0  0  0
  -18.4975   -3.3542    6.0974 H   0  0  0  0  0  0
  -17.3517   -2.5072    5.0035 H   0  0  0  0  0  0
  -18.8246   -3.2864    4.3324 H   0  0  0  0  0  0
  -18.4603    8.5173    3.2349 H   0  0  0  0  0  0
  -18.2228    6.7828    3.6373 H   0  0  0  0  0  0
  -19.8832    7.4426    3.4517 H   0  0  0  0  0  0
  -17.0075    8.2090    1.0911 H   0  0  0  0  0  0
  -17.4349    6.8794   -0.0385 H   0  0  0  0  0  0
  -16.7683    6.4988    1.5855 H   0  0  0  0  0  0
  -17.5171   -0.8934    6.5824 H   0  0  0  0  0  0
  -18.6452    3.2871    4.7106 H   0  0  0  0  0  0
  -19.0503    1.8893   -0.0601 H   0  0  0  0  0  0
  -18.7156    1.1328    5.3949 H   0  0  0  0  0  0
  -19.1373    5.7136    3.6573 H   0  0  0  0  0  0
  -17.5871    5.6771    2.7505 H   0  0  0  0  0  0
  -20.4353    5.7149    1.2118 H   0  0  0  0  0  0
  1  9  2  0  0  0
  1 27  1  0  0  0
  1 28  1  0  0  0
  2 17  1  0  0  0
  2 29  1  0  0  0
  2 30  1  0  0  0
  2 31  1  0  0  0
  3 25  1  0  0  0
  3 32  1  0  0  0
  3 33  1  0  0  0
  3 34  1  0  0  0
  4 25  1  0  0  0
  4 35  1  0  0  0
  4 36  1  0  0  0
  4 37  1  0  0  0
  5 26  1  0  0  0
  5 38  1  0  0  0
  5 39  1  0  0  0
  5 40  1  0  0  0
  6 26  1  0  0  0
  6 41  1  0  0  0
  6 42  1  0  0  0
  6 43  1  0  0  0
  7 17  2  0  0  0
  8 21  2  0  0  0
  9 25  1  0  0  0
  9 44  1  0  0  0
 10 18  2  0  0  0
 10 22  1  0  0  0
 10 45  1  0  0  0
 11 19  2  0  0  0
 11 23  1  0  0  0
 11 46  1  0  0  0
 12 20  2  0  0  0
 12 22  1  0  0  0
 12 47  1  0  0  0
 13 18  1  0  0  0
 13 24  1  0  0  0
 13 48  1  0  0  0
 13 49  1  0  0  0
 14 17  1  0  0  0
 14 26  1  0  0  0
 15 19  1  0  0  0
 15 24  1  0  0  0
 16 21  1  0  0  0
 16 23  1  0  0  0
 18 19  1  0  0  0
 20 21  1  0  0  0
 20 25  1  0  0  0
 22 23  2  0  0  0
 24 26  1  0  0  0
 24 50  1  0  0  0
M  END
> <s_m_source_file>
../3pcu_ligand.sdf

> <i_m_source_file_index>
1

> <s_epik_input>
W0NIMl09W0NIXUMoW0NIM10pKFtDSDNdKWMoYyg9TylvMSlbY0hdYyhbY0hdMiljMVtjSF1jKGMyMylPW0NAQEhdKFtDSDJdMylDKFtDSDNdKShbQ0gzXSlPQyg9TylbQ0gzXQ==

> <s_epik_cmdline>
J2VwaWtfYXBwJywgJy1pbWFlJywgJ2xpZ2FuZF9wcm8ubWFlJywgJy1vbWFlJywgJ2xpZ2FuZF9wcmVwLm1hZScsICctbXMnLCAnMScsICctcGgnLCAnNycsICctcGh0JywgJzAuNScsICctbnQn

> <r_lp_tautomer_probability>
1

> <r_epik_Ionization_Penalty>
  0.0000

> <r_epik_Ionization_Penalty_Charging>
  0.0000

> <r_epik_Ionization_Penalty_Neutral>
  0.0000

> <r_epik_State_Penalty>
 -0.0000

> <r_epik_Charging_Adjusted_Penalty>
0

> <i_epik_Tot_Q>
0

> <i_epik_Tot_abs_Q>
0

> <s_epik_Chemistry_Notes>
This compound has an ester and may undergo hydrolysis at high or low pH.

$$$$
