3pd2_ligand
                    3D
 Schrodinger Suite 2020-3.
 45 47  0  0  1  0            999 V2000
    7.7240    8.7410  -15.5640 O   0  0  0  0  0  0
    6.6080    7.9570  -15.9960 C   0  0  0  0  0  0
    7.0990    6.7880  -16.8520 C   0  0  1  0  0  0
    7.8430    7.2900  -17.9770 O   0  0  0  0  0  0
    9.0900    6.5770  -18.0760 C   0  0  1  0  0  0
   10.1820    7.5110  -17.7120 N   0  0  0  0  0  0
   11.4250    7.1940  -17.3550 C   0  0  0  0  0  0
   12.0500    6.0320  -17.1110 N   0  0  0  0  0  0
   13.3250    6.0070  -16.7610 C   0  0  0  0  0  0
   14.0220    7.1250  -16.6440 N   0  0  0  0  0  0
   13.4650    8.3230  -16.8750 C   0  0  0  0  0  0
   14.1860    9.4380  -16.7830 N   0  0  0  0  0  0
   12.1250    8.3860  -17.2390 C   0  0  0  0  0  0
   11.2880    9.3800  -17.5180 N   0  0  0  0  0  0
   10.1050    8.8360  -17.8010 C   0  0  0  0  0  0
    8.9600    5.3640  -17.1520 C   0  0  2  0  0  0
    8.2510    4.3230  -17.8300 O   0  0  0  0  0  0
    8.0860    5.9460  -16.0450 C   0  0  2  0  0  0
    7.3600    4.8860  -15.3260 N   0  0  0  0  0  0
    7.8150    2.1730  -12.9460 N   0  3  0  0  0  0
    6.9700    3.1460  -13.6540 C   0  0  1  0  0  0
    5.9660    3.7650  -12.6790 C   0  0  0  0  0  0
    5.0980    2.7380  -12.1920 O   0  0  0  0  0  0
    7.8450    4.2380  -14.2730 C   0  0  0  0  0  0
    9.0580    4.4870  -13.7090 O   0  0  0  0  0  0
    7.5620    9.6286  -14.9348 H   0  0  0  0  0  0
    6.0726    7.5663  -15.1181 H   0  0  0  0  0  0
    5.9278    8.5840  -16.5911 H   0  0  0  0  0  0
    6.2388    6.2129  -17.2252 H   0  0  0  0  0  0
    9.3017    6.2546  -19.1062 H   0  0  0  0  0  0
   13.8091    5.0501  -16.5659 H   0  0  0  0  0  0
   15.2462    9.3852  -16.4947 H   0  0  0  0  0  0
   13.7216   10.4123  -16.9952 H   0  0  0  0  0  0
    9.2071    9.3941  -18.0662 H   0  0  0  0  0  0
    9.8946    4.8790  -16.8336 H   0  0  0  0  0  0
    8.7274    3.7853  -18.6630 H   0  0  0  0  0  0
    8.6403    6.4746  -15.2555 H   0  0  0  0  0  0
    6.3533    4.5886  -15.6547 H   0  0  0  0  0  0
    7.1811    1.3906  -12.5032 H   0  0  0  0  0  0
    8.3755    2.6850  -12.1499 H   0  0  0  0  0  0
    8.5205    1.7155  -13.6552 H   0  0  0  0  0  0
    6.4377    2.5974  -14.4450 H   0  0  0  0  0  0
    6.5067    4.2240  -11.8382 H   0  0  0  0  0  0
    5.3761    4.5341  -13.1992 H   0  0  0  0  0  0
    4.3019    2.9853  -11.4744 H   0  0  0  0  0  0
  1  2  1  0  0  0
  1 26  1  0  0  0
  2  3  1  0  0  0
  2 27  1  0  0  0
  2 28  1  0  0  0
  3  4  1  0  0  0
  3 18  1  0  0  0
  3 29  1  0  0  0
  4  5  1  0  0  0
  5  6  1  0  0  0
  5 16  1  0  0  0
  5 30  1  0  0  0
  6  7  1  0  0  0
  6 15  1  0  0  0
  7  8  1  0  0  0
  7 13  2  0  0  0
  8  9  2  0  0  0
  9 10  1  0  0  0
  9 31  1  0  0  0
 10 11  2  0  0  0
 11 12  1  0  0  0
 11 13  1  0  0  0
 12 32  1  0  0  0
 12 33  1  0  0  0
 13 14  1  0  0  0
 14 15  2  0  0  0
 15 34  1  0  0  0
 16 17  1  0  0  0
 16 18  1  0  0  0
 16 35  1  0  0  0
 17 36  1  0  0  0
 18 19  1  0  0  0
 18 37  1  0  0  0
 19 24  1  0  0  0
 19 38  1  0  0  0
 20 21  1  0  0  0
 20 39  1  0  0  0
 20 40  1  0  0  0
 20 41  1  0  0  0
 21 22  1  0  0  0
 21 24  1  0  0  0
 21 42  1  0  0  0
 22 23  1  0  0  0
 22 43  1  0  0  0
 22 44  1  0  0  0
 23 45  1  0  0  0
 24 25  2  0  0  0
M  CHG  1  20   1
M  END
> <s_m_source_file>
../3pd2_ligand.sdf

> <i_m_source_file_index>
1

> <s_epik_input>
W09IXVtDSDJdW0NASF0oW05IMytdKUMoPU8pW05IXVtDQEhdMVtDQEBIXShbT0hdKVtDQEBIXShPW0NAQEhdMVtDSDJdW09IXSluMltjSF1uYyhjMjMpYyhbTkgyXSluW2NIXW4z

> <s_epik_cmdline>
J2VwaWtfYXBwJywgJy1pbWFlJywgJ2xpZ2FuZF9wcm8ubWFlJywgJy1vbWFlJywgJ2xpZ2FuZF9wcmVwLm1hZScsICctbXMnLCAnMScsICctcGgnLCAnNycsICctcGh0JywgJzAuNScsICctbnQn

> <r_lp_tautomer_probability>
0.999997216410988

> <r_epik_Ionization_Penalty>
  0.1728

> <r_epik_Ionization_Penalty_Charging>
  0.1724

> <r_epik_Ionization_Penalty_Neutral>
  0.0005

> <r_epik_State_Penalty>
  0.1618

> <r_epik_Charging_Adjusted_Penalty>
0.334113698414832

> <i_epik_Tot_Q>
1

> <i_epik_Tot_abs_Q>
1

> <s_epik_Chemistry_Notes>
This compound contains an acetal/aminal-like group ( X-CH(R)-Y where X, Y are N, S, or O) that may be acid/base labile, releasing an aldehyde.

$$$$
