3pd3_ligand
                    3D
 Schrodinger Suite 2020-3.
 48 50  0  0  1  0            999 V2000
    7.9710    4.2830  -14.2220 C   0  0  0  0  0  0
    7.9690    2.1420  -13.0520 N   0  3  0  0  0  0
    9.1750    4.5880  -13.6710 O   0  0  0  0  0  0
   14.0130    7.1450  -16.8330 N   0  0  0  0  0  0
   13.3490    6.0040  -16.8930 C   0  0  0  0  0  0
   12.0760    5.9550  -17.2430 N   0  0  0  0  0  0
   11.4080    7.0770  -17.5480 C   0  0  0  0  0  0
   12.0710    8.2960  -17.4900 C   0  0  0  0  0  0
   13.4110    8.3070  -17.1240 C   0  0  0  0  0  0
   14.0880    9.4520  -17.0860 N   0  0  0  0  0  0
   11.1990    9.2420  -17.8240 N   0  0  0  0  0  0
   10.0370    8.6480  -18.0850 C   0  0  0  0  0  0
    7.4910    4.8310  -15.3360 N   0  0  0  0  0  0
   10.1590    7.3320  -17.9270 N   0  0  0  0  0  0
    7.1040    3.2320  -13.5260 C   0  0  1  0  0  0
    6.3590    3.8440  -12.3380 C   0  0  2  0  0  0
    5.3880    2.9000  -11.8760 O   0  0  0  0  0  0
    9.1040    6.3420  -18.2440 C   0  0  1  0  0  0
    9.0220    5.1860  -17.2450 C   0  0  2  0  0  0
    8.2680    4.1160  -17.8220 O   0  0  0  0  0  0
    8.2120    5.8380  -16.1280 C   0  0  1  0  0  0
    7.2070    6.6810  -16.9140 C   0  0  2  0  0  0
    7.8270    6.9990  -18.1730 O   0  0  0  0  0  0
    6.8910    7.9530  -16.1240 C   0  0  0  0  0  0
    8.1040    8.6350  -15.7950 O   0  0  0  0  0  0
    5.7070    5.1790  -12.7060 C   0  0  0  0  0  0
    8.5049    1.7016  -13.9057 H   0  0  0  0  0  0
    7.3535    1.3697  -12.5675 H   0  0  0  0  0  0
    8.6958    2.5391  -12.3281 H   0  0  0  0  0  0
   13.8664    5.0768  -16.6467 H   0  0  0  0  0  0
   15.1489    9.4543  -16.7954 H   0  0  0  0  0  0
   13.5867   10.3962  -17.3452 H   0  0  0  0  0  0
    9.1231    9.1618  -18.3832 H   0  0  0  0  0  0
    6.4954    4.4896  -15.6556 H   0  0  0  0  0  0
    6.3779    2.8105  -14.2367 H   0  0  0  0  0  0
    7.0391    4.0152  -11.4906 H   0  0  0  0  0  0
    5.7031    1.8907  -11.5727 H   0  0  0  0  0  0
    9.3266    5.9825  -19.2595 H   0  0  0  0  0  0
    9.9709    4.7135  -16.9511 H   0  0  0  0  0  0
    8.6933    3.5260  -18.6473 H   0  0  0  0  0  0
    8.8208    6.3803  -15.3896 H   0  0  0  0  0  0
    6.2721    6.1475  -17.1404 H   0  0  0  0  0  0
    6.2563    8.6142  -16.7323 H   0  0  0  0  0  0
    6.3613    7.6871  -15.1973 H   0  0  0  0  0  0
    8.0692    9.5750  -15.2248 H   0  0  0  0  0  0
    6.4791    5.8799  -13.0562 H   0  0  0  0  0  0
    5.2053    5.5982  -11.8214 H   0  0  0  0  0  0
    4.9681    5.0183  -13.5049 H   0  0  0  0  0  0
  1  3  2  0  0  0
  1 13  1  0  0  0
  1 15  1  0  0  0
  2 15  1  0  0  0
  2 27  1  0  0  0
  2 28  1  0  0  0
  2 29  1  0  0  0
  4  5  1  0  0  0
  4  9  2  0  0  0
  5  6  2  0  0  0
  5 30  1  0  0  0
  6  7  1  0  0  0
  7  8  2  0  0  0
  7 14  1  0  0  0
  8  9  1  0  0  0
  8 11  1  0  0  0
  9 10  1  0  0  0
 10 31  1  0  0  0
 10 32  1  0  0  0
 11 12  2  0  0  0
 12 14  1  0  0  0
 12 33  1  0  0  0
 13 21  1  0  0  0
 13 34  1  0  0  0
 14 18  1  0  0  0
 15 16  1  0  0  0
 15 35  1  0  0  0
 16 17  1  0  0  0
 16 26  1  0  0  0
 16 36  1  0  0  0
 17 37  1  0  0  0
 18 19  1  0  0  0
 18 23  1  0  0  0
 18 38  1  0  0  0
 19 20  1  0  0  0
 19 21  1  0  0  0
 19 39  1  0  0  0
 20 40  1  0  0  0
 21 22  1  0  0  0
 21 41  1  0  0  0
 22 23  1  0  0  0
 22 24  1  0  0  0
 22 42  1  0  0  0
 24 25  1  0  0  0
 24 43  1  0  0  0
 24 44  1  0  0  0
 25 45  1  0  0  0
 26 46  1  0  0  0
 26 47  1  0  0  0
 26 48  1  0  0  0
M  CHG  1   2   1
M  END
> <s_m_source_file>
../3pd3_ligand.sdf

> <i_m_source_file_index>
1

> <s_epik_input>
W09IXVtDQEhdKFtDSDNdKVtDQEhdKFtOSDMrXSlDKD1PKVtOSF1bQ0BIXShbQ0BIXShPMSlbQ0gyXVtPSF0pW0NAQEhdKFtPSF0pW0NAQEhdMW4yW2NIXW5jKGMyMyljKFtOSDJdKW5bY0hdbjM=

> <s_epik_cmdline>
J2VwaWtfYXBwJywgJy1pbWFlJywgJ2xpZ2FuZF9wcm8ubWFlJywgJy1vbWFlJywgJ2xpZ2FuZF9wcmVwLm1hZScsICctbXMnLCAnMScsICctcGgnLCAnNycsICctcGh0JywgJzAuNScsICctbnQn

> <r_lp_tautomer_probability>
0.999997216410988

> <r_epik_Ionization_Penalty>
  0.0835

> <r_epik_Ionization_Penalty_Charging>
  0.0828

> <r_epik_Ionization_Penalty_Neutral>
  0.0006

> <r_epik_State_Penalty>
  0.0735

> <r_epik_Charging_Adjusted_Penalty>
0.156389584480285

> <i_epik_Tot_Q>
1

> <i_epik_Tot_abs_Q>
1

> <s_epik_Chemistry_Notes>
This compound contains an acetal/aminal-like group ( X-CH(R)-Y where X, Y are N, S, or O) that may be acid/base labile, releasing an aldehyde.

$$$$
