3pd4_ligand
                    3D
 Schrodinger Suite 2020-3.
 41 43  0  0  1  0            999 V2000
   10.2690    2.9110  -13.2890 C   0  0  0  0  0  0
    9.0200    0.7700  -13.0340 N   0  3  0  0  0  0
   11.5350    3.2640  -12.9790 O   0  0  0  0  0  0
   16.3710    5.7050  -16.3700 N   0  0  0  0  0  0
   15.7270    4.5450  -16.3270 C   0  0  0  0  0  0
   14.4270    4.4380  -16.6040 N   0  0  0  0  0  0
   13.7140    5.5320  -16.9270 C   0  0  0  0  0  0
   14.3450    6.7620  -16.9960 C   0  0  0  0  0  0
   15.7090    6.8330  -16.7160 C   0  0  0  0  0  0
   16.3170    8.0210  -16.7980 N   0  0  0  0  0  0
   13.4470    7.6760  -17.3410 N   0  0  0  0  0  0
   12.2930    7.0720  -17.5060 C   0  0  0  0  0  0
    9.6090    3.3960  -14.3490 N   0  0  0  0  0  0
   12.4370    5.7580  -17.2400 N   0  0  0  0  0  0
    9.6040    1.9180  -12.3400 C   0  0  0  0  0  0
   11.3030    4.7540  -17.3560 C   0  0  1  0  0  0
   11.1780    3.7030  -16.2720 C   0  0  2  0  0  0
   10.4830    2.6080  -16.8570 O   0  0  0  0  0  0
   10.2690    4.3870  -15.2490 C   0  0  1  0  0  0
    9.2720    5.1760  -16.1370 C   0  0  2  0  0  0
   10.0240    5.5000  -17.3630 O   0  0  0  0  0  0
    8.7410    6.4760  -15.5370 C   0  0  0  0  0  0
    9.8240    7.3010  -15.1350 O   0  0  0  0  0  0
    8.5580    0.0938  -12.2996 H   0  0  0  0  0  0
    9.8083    0.2330  -13.5819 H   0  0  0  0  0  0
    8.2546    1.1202  -13.7422 H   0  0  0  0  0  0
   16.2814    3.6467  -16.0552 H   0  0  0  0  0  0
   17.3924    8.1045  -16.5822 H   0  0  0  0  0  0
   15.7418    8.9148  -17.0813 H   0  0  0  0  0  0
   11.3650    7.5563  -17.8100 H   0  0  0  0  0  0
    8.5809    3.0641  -14.5562 H   0  0  0  0  0  0
   10.3502    1.5349  -11.6284 H   0  0  0  0  0  0
    8.7966    2.4221  -11.7887 H   0  0  0  0  0  0
   11.5138    4.2082  -18.2875 H   0  0  0  0  0  0
   12.1151    3.2975  -15.8627 H   0  0  0  0  0  0
   10.9757    1.9890  -17.6213 H   0  0  0  0  0  0
   10.8038    5.0205  -14.5261 H   0  0  0  0  0  0
    8.3787    4.5636  -16.3292 H   0  0  0  0  0  0
    8.1395    7.0080  -16.2888 H   0  0  0  0  0  0
    8.1152    6.2472  -14.6618 H   0  0  0  0  0  0
    9.6279    8.2826  -14.6789 H   0  0  0  0  0  0
  1  3  2  0  0  0
  1 13  1  0  0  0
  1 15  1  0  0  0
  2 15  1  0  0  0
  2 24  1  0  0  0
  2 25  1  0  0  0
  2 26  1  0  0  0
  4  5  1  0  0  0
  4  9  2  0  0  0
  5  6  2  0  0  0
  5 27  1  0  0  0
  6  7  1  0  0  0
  7  8  2  0  0  0
  7 14  1  0  0  0
  8  9  1  0  0  0
  8 11  1  0  0  0
  9 10  1  0  0  0
 10 28  1  0  0  0
 10 29  1  0  0  0
 11 12  2  0  0  0
 12 14  1  0  0  0
 12 30  1  0  0  0
 13 19  1  0  0  0
 13 31  1  0  0  0
 14 16  1  0  0  0
 15 32  1  0  0  0
 15 33  1  0  0  0
 16 17  1  0  0  0
 16 21  1  0  0  0
 16 34  1  0  0  0
 17 18  1  0  0  0
 17 19  1  0  0  0
 17 35  1  0  0  0
 18 36  1  0  0  0
 19 20  1  0  0  0
 19 37  1  0  0  0
 20 21  1  0  0  0
 20 22  1  0  0  0
 20 38  1  0  0  0
 22 23  1  0  0  0
 22 39  1  0  0  0
 22 40  1  0  0  0
 23 41  1  0  0  0
M  CHG  1   2   1
M  END
> <s_m_source_file>
../3pd4_ligand.sdf

> <i_m_source_file_index>
1

> <s_epik_input>
W05IMytdW0NIMl1DKD1PKVtOSF1bQ0BIXShbQ0BIXShPMSlbQ0gyXVtPSF0pW0NAQEhdKFtPSF0pW0NAQEhdMW4yW2NIXW5jKGMyMyljKFtOSDJdKW5bY0hdbjM=

> <s_epik_cmdline>
J2VwaWtfYXBwJywgJy1pbWFlJywgJ2xpZ2FuZF9wcm8ubWFlJywgJy1vbWFlJywgJ2xpZ2FuZF9wcmVwLm1hZScsICctbXMnLCAnMScsICctcGgnLCAnNycsICctcGh0JywgJzAuNScsICctbnQn

> <r_lp_tautomer_probability>
0.999997216410988

> <r_epik_Ionization_Penalty>
  0.1275

> <r_epik_Ionization_Penalty_Charging>
  0.1268

> <r_epik_Ionization_Penalty_Neutral>
  0.0006

> <r_epik_State_Penalty>
  0.1163

> <r_epik_Charging_Adjusted_Penalty>
0.243144055275797

> <i_epik_Tot_Q>
1

> <i_epik_Tot_abs_Q>
1

> <s_epik_Chemistry_Notes>
This compound contains an acetal/aminal-like group ( X-CH(R)-Y where X, Y are N, S, or O) that may be acid/base labile, releasing an aldehyde.

$$$$
