3pd8_ligand
                    3D
 Schrodinger Suite 2020-3.
 20 21  0  0  1  0            999 V2000
   45.0650   27.2480   40.7940 C   0  0  0  0  0  0
   45.0290   28.4860   41.2780 N   0  0  0  0  0  0
   45.8960   28.5100   42.4220 O   0  0  0  0  0  0
   45.9020   26.4610   41.5590 C   0  0  0  0  0  0
   47.8050   25.2590   43.2220 N   0  3  0  0  0  0
   45.8670   27.4050   45.2540 O   0  0  0  0  0  0
   46.2170   24.9930   41.3660 C   0  0  0  0  0  0
   47.4810   26.0150   45.8960 O   0  5  0  0  0  0
   46.6830   24.4470   42.7190 C   0  0  0  0  0  0
   44.4490   26.8460   39.8120 O   0  5  0  0  0  0
   47.4060   26.6370   43.5940 C   0  0  1  0  0  0
   46.4150   27.2500   42.5780 C   0  0  0  0  0  0
   46.8580   26.6780   45.0370 C   0  0  0  0  0  0
   48.2299   24.7824   44.1177 H   0  0  0  0  0  0
   48.5797   25.3353   42.4449 H   0  0  0  0  0  0
   45.3132   24.4656   41.0268 H   0  0  0  0  0  0
   47.0099   24.8842   40.6114 H   0  0  0  0  0  0
   47.0106   23.4039   42.5982 H   0  0  0  0  0  0
   45.8497   24.4889   43.4359 H   0  0  0  0  0  0
   48.3338   27.2262   43.5492 H   0  0  0  0  0  0
  1  2  2  0  0  0
  1  4  1  0  0  0
  1 10  1  0  0  0
  2  3  1  0  0  0
  3 12  1  0  0  0
  4  7  1  0  0  0
  4 12  2  0  0  0
  5  9  1  0  0  0
  5 11  1  0  0  0
  5 14  1  0  0  0
  5 15  1  0  0  0
  6 13  2  0  0  0
  7  9  1  0  0  0
  7 16  1  0  0  0
  7 17  1  0  0  0
  8 13  1  0  0  0
  9 18  1  0  0  0
  9 19  1  0  0  0
 11 12  1  0  0  0
 11 13  1  0  0  0
 11 20  1  0  0  0
M  CHG  3   5   1   8  -1  10  -1
M  END
> <s_m_source_file>
../3pd8_ligand.sdf

> <i_m_source_file_index>
1

> <s_epik_input>
Tz1jMVtuSF1vYyhjMTIpW0NAQEhdKEMoPU8pW09IXSlbTkgyK11bQ0gyXVtDSDJdMg==

> <s_epik_cmdline>
J2VwaWtfYXBwJywgJy1pbWFlJywgJ2xpZ2FuZF9wcm8ubWFlJywgJy1vbWFlJywgJ2xpZ2FuZF9wcmVwLm1hZScsICctbXMnLCAnMScsICctcGgnLCAnNycsICctcGh0JywgJzAuNScsICctbnQn

> <r_lp_tautomer_probability>
1

> <r_epik_Ionization_Penalty>
  0.1964

> <r_epik_Ionization_Penalty_Charging>
  0.1964

> <r_epik_Ionization_Penalty_Neutral>
  0.0000

> <r_epik_State_Penalty>
  0.3382

> <r_epik_Charging_Adjusted_Penalty>
0.534535161595906

> <i_epik_Tot_Q>
-1

> <i_epik_Tot_abs_Q>
3

$$$$
