3pdc_ligand
                    3D
 Schrodinger Suite 2020-3.
 34 36  0  0  1  0            999 V2000
   12.1640    5.0620   -1.9050 N   0  0  0  0  0  0
   11.0470    4.7220   -1.2900 C   0  0  0  0  0  0
   10.9360    5.2690   -0.0340 O   0  0  0  0  0  0
   12.0590    6.0030    0.1260 C   0  0  0  0  0  0
   12.4330    6.7600    1.2310 C   0  0  0  0  0  0
   13.6690    7.4360    1.1300 C   0  0  0  0  0  0
   14.4520    7.3280   -0.0080 C   0  0  0  0  0  0
   15.9870    8.1600   -0.1020 Cl  0  0  0  0  0  0
   14.0230    6.5460   -1.0930 C   0  0  0  0  0  0
   12.8070    5.8720   -1.0060 C   0  0  0  0  0  0
   10.0290    3.9040   -1.8050 N   0  0  0  0  0  0
   10.2710    2.6660   -2.4050 C   0  0  0  0  0  0
    9.1590    1.6780   -2.0570 C   0  0  0  0  0  0
    8.7960    0.7110   -3.1740 C   0  0  0  0  0  0
    8.2630    1.3940   -4.4350 C   0  0  0  0  0  0
    7.4320    0.3280   -5.1530 C   0  0  0  0  0  0
    7.0620   -0.7120   -4.1060 C   0  0  0  0  0  0
    7.6750   -0.2470   -2.7860 C   0  0  0  0  0  0
   11.2260    2.3720   -3.1240 O   0  0  0  0  0  0
   11.8092    6.8276    2.1223 H   0  0  0  0  0  0
   14.0124    8.0526    1.9607 H   0  0  0  0  0  0
   14.6341    6.4675   -1.9921 H   0  0  0  0  0  0
    8.9798    4.2291   -1.7466 H   0  0  0  0  0  0
    9.4673    1.0675   -1.1954 H   0  0  0  0  0  0
    8.2424    2.2314   -1.8050 H   0  0  0  0  0  0
    9.7523    0.1984   -3.3547 H   0  0  0  0  0  0
    7.6479    2.2604   -4.1505 H   0  0  0  0  0  0
    9.1074    1.7313   -5.0541 H   0  0  0  0  0  0
    6.5310    0.7920   -5.5807 H   0  0  0  0  0  0
    8.0303   -0.1221   -5.9589 H   0  0  0  0  0  0
    5.9669   -0.7783   -4.0261 H   0  0  0  0  0  0
    7.4680   -1.6906   -4.4018 H   0  0  0  0  0  0
    8.0939   -1.0906   -2.2178 H   0  0  0  0  0  0
    6.9380    0.2833   -2.1650 H   0  0  0  0  0  0
  1  2  2  0  0  0
  1 10  1  0  0  0
  2  3  1  0  0  0
  2 11  1  0  0  0
  3  4  1  0  0  0
  4  5  1  0  0  0
  4 10  2  0  0  0
  5  6  2  0  0  0
  5 20  1  0  0  0
  6  7  1  0  0  0
  6 21  1  0  0  0
  7  8  1  0  0  0
  7  9  2  0  0  0
  9 10  1  0  0  0
  9 22  1  0  0  0
 11 12  1  0  0  0
 11 23  1  0  0  0
 12 13  1  0  0  0
 12 19  2  0  0  0
 13 14  1  0  0  0
 13 24  1  0  0  0
 13 25  1  0  0  0
 14 15  1  0  0  0
 14 18  1  0  0  0
 14 26  1  0  0  0
 15 16  1  0  0  0
 15 27  1  0  0  0
 15 28  1  0  0  0
 16 17  1  0  0  0
 16 29  1  0  0  0
 16 30  1  0  0  0
 17 18  1  0  0  0
 17 31  1  0  0  0
 17 32  1  0  0  0
 18 33  1  0  0  0
 18 34  1  0  0  0
M  END
> <s_m_source_file>
../3pdc_ligand.sdf

> <i_m_source_file_index>
1

> <s_epik_input>
W2NIXTFbY0hdYyhDbClbY0hdYyhjMTIpbmMobzIpW05IXUMoPU8pW0NIMl1bQ0hdM1tDSDJdW0NIMl1bQ0gyXVtDSDJdMw==

> <s_epik_cmdline>
J2VwaWtfYXBwJywgJy1pbWFlJywgJ2xpZ2FuZF9wcm8ubWFlJywgJy1vbWFlJywgJ2xpZ2FuZF9wcmVwLm1hZScsICctbXMnLCAnMScsICctcGgnLCAnNycsICctcGh0JywgJzAuNScsICctbnQn

> <r_lp_tautomer_probability>
1

> <r_epik_Ionization_Penalty>
  0.0001

> <r_epik_Ionization_Penalty_Charging>
  0.0000

> <r_epik_Ionization_Penalty_Neutral>
  0.0001

> <r_epik_State_Penalty>
 -0.0000

> <r_epik_Charging_Adjusted_Penalty>
0

> <i_epik_Tot_Q>
0

> <i_epik_Tot_abs_Q>
0

$$$$
