3pdq_ligand
                    3D
 Schrodinger Suite 2020-3.
 35 36  0  0  1  0            999 V2000
  -24.6260  -22.4220  -25.7740 O   0  0  0  0  0  0
  -24.4650  -21.9260  -24.6570 C   0  0  0  0  0  0
  -25.7250  -21.8030  -23.7840 C   0  0  0  0  0  0
  -26.7090  -22.7490  -24.0090 C   0  0  0  0  0  0
  -27.8650  -22.6870  -23.2270 C   0  0  0  0  0  0
  -28.0640  -21.7880  -22.2550 N   0  0  0  0  0  0
  -27.0930  -20.8510  -22.0180 C   0  0  0  0  0  0
  -27.3790  -19.7870  -20.9640 C   0  0  0  0  0  0
  -26.3720  -18.8780  -20.5220 C   0  0  0  0  0  0
  -26.6450  -17.8550  -19.6080 C   0  0  0  0  0  0
  -25.5860  -16.8910  -19.1330 C   0  0  0  0  0  0
  -25.8430  -15.5150  -18.9860 N   0  0  0  0  0  0
  -24.8000  -14.4740  -18.9910 C   0  0  0  0  0  0
  -23.6690  -14.6320  -17.9320 C   0  0  0  0  0  0
  -22.5610  -15.5000  -18.3580 N   0  3  0  0  0  0
  -24.4410  -17.3340  -18.9550 O   0  0  0  0  0  0
  -27.9670  -17.6800  -19.1920 C   0  0  0  0  0  0
  -28.9290  -18.5670  -19.7100 C   0  0  0  0  0  0
  -28.6790  -19.5650  -20.6050 N   0  0  0  0  0  0
  -25.9010  -20.8490  -22.7800 C   0  0  0  0  0  0
  -23.4070  -21.5240  -24.1130 O   0  5  0  0  0  0
  -26.5863  -23.5179  -24.7718 H   0  0  0  0  0  0
  -28.6530  -23.4149  -23.4200 H   0  0  0  0  0  0
  -25.3584  -18.9841  -20.9086 H   0  0  0  0  0  0
  -26.8994  -15.2346  -18.8618 H   0  0  0  0  0  0
  -24.2999  -14.4607  -19.9707 H   0  0  0  0  0  0
  -25.2600  -13.4931  -18.8009 H   0  0  0  0  0  0
  -23.2376  -13.6456  -17.7063 H   0  0  0  0  0  0
  -24.0859  -15.0689  -17.0126 H   0  0  0  0  0  0
  -21.8103  -15.5566  -17.5560 H   0  0  0  0  0  0
  -22.0978  -15.0847  -19.2652 H   0  0  0  0  0  0
  -22.9461  -16.5080  -18.5715 H   0  0  0  0  0  0
  -28.2422  -16.8887  -18.4947 H   0  0  0  0  0  0
  -29.9570  -18.4465  -19.3682 H   0  0  0  0  0  0
  -25.1258  -20.1081  -22.5847 H   0  0  0  0  0  0
  1  2  2  0  0  0
  2  3  1  0  0  0
  2 21  1  0  0  0
  3  4  2  0  0  0
  3 20  1  0  0  0
  4  5  1  0  0  0
  4 22  1  0  0  0
  5  6  2  0  0  0
  5 23  1  0  0  0
  6  7  1  0  0  0
  7  8  1  0  0  0
  7 20  2  0  0  0
  8  9  2  0  0  0
  8 19  1  0  0  0
  9 10  1  0  0  0
  9 24  1  0  0  0
 10 11  1  0  0  0
 10 17  2  0  0  0
 11 12  1  0  0  0
 11 16  2  0  0  0
 12 13  1  0  0  0
 12 25  1  0  0  0
 13 14  1  0  0  0
 13 26  1  0  0  0
 13 27  1  0  0  0
 14 15  1  0  0  0
 14 28  1  0  0  0
 14 29  1  0  0  0
 15 30  1  0  0  0
 15 31  1  0  0  0
 15 32  1  0  0  0
 17 18  1  0  0  0
 17 33  1  0  0  0
 18 19  2  0  0  0
 18 34  1  0  0  0
 20 35  1  0  0  0
M  CHG  2  15   1  21  -1
M  END
> <s_m_source_file>
../3pdq_ligand.sdf

> <i_m_source_file_index>
1

> <s_epik_input>
Tz1DKFtPSF0pYzFbY0hdW2NIXW5jKFtjSF0xKS1jMltjSF1jKFtjSF1bY0hdbjIpQyg9TylbTkhdW0NIMl1bQ0gyXVtOSDMrXQ==

> <s_epik_cmdline>
J2VwaWtfYXBwJywgJy1pbWFlJywgJ2xpZ2FuZF9wcm8ubWFlJywgJy1vbWFlJywgJ2xpZ2FuZF9wcmVwLm1hZScsICctbXMnLCAnMScsICctcGgnLCAnNycsICctcGh0JywgJzAuNScsICctbnQn

> <r_lp_tautomer_probability>
1

> <r_epik_Ionization_Penalty>
  0.0041

> <r_epik_Ionization_Penalty_Charging>
  0.0037

> <r_epik_Ionization_Penalty_Neutral>
  0.0004

> <r_epik_State_Penalty>
 -0.0000

> <r_epik_Charging_Adjusted_Penalty>
0.00373115099269016

> <i_epik_Tot_Q>
0

> <i_epik_Tot_abs_Q>
2

$$$$
