3peq_ligand
                    3D
 Schrodinger Suite 2020-3.
 68 71  0  0  1  0            999 V2000
   31.6240    0.1810   60.9360 C   0  0  0  0  0  0
   32.5840    0.8410   59.9750 C   0  0  0  0  0  0
   32.6520    2.3400   60.1770 C   0  0  0  0  0  0
   33.7940    2.8790   59.3350 C   0  0  0  0  0  0
   33.8360    4.3690   59.2570 N   0  0  0  0  0  0
   32.7260    4.9510   58.5280 C   0  0  0  0  0  0
   31.6490    5.4990   59.1920 C   0  0  0  0  0  0
   30.5960    6.0290   58.4770 C   0  0  0  0  0  0
   30.6200    5.9880   57.1000 C   0  0  0  0  0  0
   31.6790    5.4320   56.4120 C   0  0  0  0  0  0
   32.7430    4.9130   57.1420 C   0  0  0  0  0  0
   33.9270    4.2950   56.4640 C   0  0  0  0  0  0
   31.5960    5.3970   54.9590 C   0  0  0  0  0  0
   31.2290    6.5070   54.2250 C   0  0  0  0  0  0
   31.1290    6.4580   52.8510 C   0  0  0  0  0  0
   31.3940    5.2930   52.1670 C   0  0  0  0  0  0
   31.2640    5.2580   50.3880 S   0  0  0  0  0  0
   32.0740    3.6850   50.0730 C   0  0  0  0  0  0
   31.7600    4.1800   52.8940 C   0  0  0  0  0  0
   31.8530    4.2290   54.2670 C   0  0  0  0  0  0
   34.2960    5.0500   60.7570 S   0  0  0  0  0  0
   35.3690    4.2350   61.2910 O   0  0  0  0  0  0
   33.1260    5.2470   61.5970 O   0  0  0  0  0  0
   35.0150    6.6580   60.4440 C   0  0  0  0  0  0
   34.4060    7.7220   61.0710 C   0  0  0  0  0  0
   34.8990    8.9990   60.9080 C   0  0  0  0  0  0
   36.0100    9.2080   60.1180 C   0  0  0  0  0  0
   36.5460   10.4800   59.9330 O   0  0  0  0  0  0
   35.6150   11.4680   60.3820 C   0  0  0  0  0  0
   35.8700   11.9090   61.8230 C   0  0  0  0  0  0
   35.1810   12.8990   62.1740 O   0  0  0  0  0  0
   36.6980   11.2520   62.5080 O   0  5  0  0  0  0
   36.6250    8.1380   59.4930 C   0  0  0  0  0  0
   37.7380    8.3530   58.7050 C   0  0  0  0  0  0
   38.3620    7.3030   58.0690 C   0  0  0  0  0  0
   37.8750    6.0230   58.2190 C   0  0  0  0  0  0
   36.7630    5.8090   59.0050 C   0  0  0  0  0  0
   36.1280    6.8520   59.6490 C   0  0  0  0  0  0
   31.6084   -0.9034   60.7519 H   0  0  0  0  0  0
   30.6149    0.5928   60.7869 H   0  0  0  0  0  0
   31.9494    0.3729   61.9691 H   0  0  0  0  0  0
   33.5931    0.4292   60.1241 H   0  0  0  0  0  0
   32.2586    0.6491   58.9419 H   0  0  0  0  0  0
   31.7016    2.7958   59.8623 H   0  0  0  0  0  0
   32.8294    2.5590   61.2403 H   0  0  0  0  0  0
   34.7522    2.5479   59.7618 H   0  0  0  0  0  0
   33.7009    2.5014   58.3061 H   0  0  0  0  0  0
   31.6301    5.5132   60.2817 H   0  0  0  0  0  0
   29.7500    6.4776   58.9977 H   0  0  0  0  0  0
   29.7824    6.4048   56.5407 H   0  0  0  0  0  0
   34.6459    3.9515   57.2225 H   0  0  0  0  0  0
   34.4080    5.0408   55.8141 H   0  0  0  0  0  0
   33.5966    3.4388   55.8576 H   0  0  0  0  0  0
   31.0138    7.4418   54.7427 H   0  0  0  0  0  0
   30.8368    7.3518   52.2998 H   0  0  0  0  0  0
   32.0874    3.4898   48.9905 H   0  0  0  0  0  0
   31.5243    2.8807   50.5839 H   0  0  0  0  0  0
   33.1061    3.7217   50.4518 H   0  0  0  0  0  0
   31.9790    3.2474   52.3741 H   0  0  0  0  0  0
   32.1341    3.3311   54.8173 H   0  0  0  0  0  0
   33.5308    7.5539   61.6986 H   0  0  0  0  0  0
   34.4126    9.8403   61.4016 H   0  0  0  0  0  0
   35.6871   12.3583   59.7400 H   0  0  0  0  0  0
   34.5946   11.0605   60.3305 H   0  0  0  0  0  0
   38.1268    9.3642   58.5850 H   0  0  0  0  0  0
   39.2394    7.4842   57.4482 H   0  0  0  0  0  0
   38.3648    5.1866   57.7204 H   0  0  0  0  0  0
   36.3774    4.7960   59.1203 H   0  0  0  0  0  0
  1  2  1  0  0  0
  1 39  1  0  0  0
  1 40  1  0  0  0
  1 41  1  0  0  0
  2  3  1  0  0  0
  2 42  1  0  0  0
  2 43  1  0  0  0
  3  4  1  0  0  0
  3 44  1  0  0  0
  3 45  1  0  0  0
  4  5  1  0  0  0
  4 46  1  0  0  0
  4 47  1  0  0  0
  5  6  1  0  0  0
  5 21  1  0  0  0
  6  7  2  0  0  0
  6 11  1  0  0  0
  7  8  1  0  0  0
  7 48  1  0  0  0
  8  9  2  0  0  0
  8 49  1  0  0  0
  9 10  1  0  0  0
  9 50  1  0  0  0
 10 11  2  0  0  0
 10 13  1  0  0  0
 11 12  1  0  0  0
 12 51  1  0  0  0
 12 52  1  0  0  0
 12 53  1  0  0  0
 13 14  2  0  0  0
 13 20  1  0  0  0
 14 15  1  0  0  0
 14 54  1  0  0  0
 15 16  2  0  0  0
 15 55  1  0  0  0
 16 17  1  0  0  0
 16 19  1  0  0  0
 17 18  1  0  0  0
 18 56  1  0  0  0
 18 57  1  0  0  0
 18 58  1  0  0  0
 19 20  2  0  0  0
 19 59  1  0  0  0
 20 60  1  0  0  0
 21 22  2  0  0  0
 21 23  2  0  0  0
 21 24  1  0  0  0
 24 25  2  0  0  0
 24 38  1  0  0  0
 25 26  1  0  0  0
 25 61  1  0  0  0
 26 27  2  0  0  0
 26 62  1  0  0  0
 27 28  1  0  0  0
 27 33  1  0  0  0
 28 29  1  0  0  0
 29 30  1  0  0  0
 29 63  1  0  0  0
 29 64  1  0  0  0
 30 31  2  0  0  0
 30 32  1  0  0  0
 33 34  1  0  0  0
 33 38  2  0  0  0
 34 35  2  0  0  0
 34 65  1  0  0  0
 35 36  1  0  0  0
 35 66  1  0  0  0
 36 37  2  0  0  0
 36 67  1  0  0  0
 37 38  1  0  0  0
 37 68  1  0  0  0
M  CHG  1  32  -1
M  END
> <s_m_source_file>
../3peq_ligand.sdf

> <i_m_source_file_index>
1

> <s_epik_input>
Tz1DKFtPSF0pW0NIMl1PYzFbY0hdW2NIXWMoYyhjMTIpW2NIXVtjSF1bY0hdW2NIXTIpUyg9TykoPU8pTihbQ0gyXVtDSDJdW0NIMl1bQ0gzXSljM1tjSF1bY0hdW2NIXWMoYzNbQ0gzXSktYzRbY0hdW2NIXWMoU1tDSDNdKVtjSF1bY0hdNA==

> <s_epik_cmdline>
J2VwaWtfYXBwJywgJy1pbWFlJywgJ2xpZ2FuZF9wcm8ubWFlJywgJy1vbWFlJywgJ2xpZ2FuZF9wcmVwLm1hZScsICctbXMnLCAnMScsICctcGgnLCAnNycsICctcGh0JywgJzAuNScsICctbnQn

> <r_lp_tautomer_probability>
1

> <r_epik_Ionization_Penalty>
  0.0001

> <r_epik_Ionization_Penalty_Charging>
  0.0001

> <r_epik_Ionization_Penalty_Neutral>
  0.0000

> <r_epik_State_Penalty>
 -0.0000

> <r_epik_Charging_Adjusted_Penalty>
6.03036445921829e-05

> <i_epik_Tot_Q>
-1

> <i_epik_Tot_abs_Q>
1

$$$$
