3pfp_ligand
                    3D
 Schrodinger Suite 2020-3.
 30 29  0  0  1  0            999 V2000
   11.4420   88.4610   -7.7320 C   0  0  0  0  0  0
   10.3360   88.2410   -8.7870 C   0  0  1  0  0  0
    9.4710   89.5010   -8.8770 C   0  0  0  0  0  0
    8.4440   89.5110   -7.7370 C   0  0  0  0  0  0
    7.1270   88.8450   -8.1630 C   0  0  0  0  0  0
    6.1040   88.8870   -7.0320 C   0  0  0  0  0  0
    4.8000   88.2150   -7.4950 C   0  0  0  0  0  0
   11.0950   88.5110   -6.5160 O   0  5  0  0  0  0
   12.6230   88.5130   -8.1810 O   0  0  0  0  0  0
   10.9980   87.9850  -10.0260 O   0  0  0  0  0  0
    3.9330   88.0610   -6.3730 O   0  0  0  0  0  0
   10.3130   87.6260  -11.4320 P   0  0  0  0  0  0
   11.1830   86.6790  -12.1910 O   0  0  0  0  0  0
    8.8350   87.0790  -11.2300 O   0  5  0  0  0  0
   10.1810   88.9920  -12.2150 O   0  5  0  0  0  0
    2.3560   87.7410   -6.6010 P   0  0  0  0  0  0
    2.1390   86.7470   -7.6680 O   0  0  0  0  0  0
    1.6280   89.1300   -6.9360 O   0  5  0  0  0  0
    1.7780   87.3120   -5.1800 O   0  5  0  0  0  0
    9.6933   87.3698   -8.5920 H   0  0  0  0  0  0
   10.1113   90.3918   -8.7967 H   0  0  0  0  0  0
    8.9427   89.5150   -9.8417 H   0  0  0  0  0  0
    8.8491   88.9626   -6.8738 H   0  0  0  0  0  0
    8.2311   90.5498   -7.4444 H   0  0  0  0  0  0
    6.7131   89.3748   -9.0336 H   0  0  0  0  0  0
    7.3165   87.7946   -8.4291 H   0  0  0  0  0  0
    6.5021   88.3515   -6.1575 H   0  0  0  0  0  0
    5.9008   89.9333   -6.7600 H   0  0  0  0  0  0
    4.3139   88.8433   -8.2559 H   0  0  0  0  0  0
    5.0284   87.2288   -7.9253 H   0  0  0  0  0  0
  1  2  1  0  0  0
  1  8  1  0  0  0
  1  9  2  0  0  0
  2  3  1  0  0  0
  2 10  1  0  0  0
  2 20  1  0  0  0
  3  4  1  0  0  0
  3 21  1  0  0  0
  3 22  1  0  0  0
  4  5  1  0  0  0
  4 23  1  0  0  0
  4 24  1  0  0  0
  5  6  1  0  0  0
  5 25  1  0  0  0
  5 26  1  0  0  0
  6  7  1  0  0  0
  6 27  1  0  0  0
  6 28  1  0  0  0
  7 11  1  0  0  0
  7 29  1  0  0  0
  7 30  1  0  0  0
 10 12  1  0  0  0
 11 16  1  0  0  0
 12 13  2  0  0  0
 12 14  1  0  0  0
 12 15  1  0  0  0
 16 17  2  0  0  0
 16 18  1  0  0  0
 16 19  1  0  0  0
M  CHG  5   8  -1  14  -1  15  -1  18  -1  19  -1
M  END
> <s_m_source_file>
../3pfp_ligand.sdf

> <i_m_source_file_index>
1

> <s_epik_input>
Tz1QKFtPSF0pKFtPSF0pT1tDQEBIXShDKD1PKVtPSF0pW0NIMl1bQ0gyXVtDSDJdW0NIMl1bQ0gyXU9QKD1PKShbT0hdKVtPSF0=

> <s_epik_cmdline>
J2VwaWtfYXBwJywgJy1pbWFlJywgJ2xpZ2FuZF9wcm8ubWFlJywgJy1vbWFlJywgJ2xpZ2FuZF9wcmVwLm1hZScsICctbXMnLCAnMScsICctcGgnLCAnNycsICctcGh0JywgJzAuNScsICctbnQn

> <r_epik_Ionization_Penalty>
  0.3042

> <r_epik_Ionization_Penalty_Charging>
  0.3042

> <r_epik_Ionization_Penalty_Neutral>
  0.0000

> <r_epik_State_Penalty>
  0.2551

> <r_epik_Charging_Adjusted_Penalty>
0.559274139164461

> <i_epik_Tot_Q>
-5

> <i_epik_Tot_abs_Q>
5

$$$$
