3phe_ligand
                    3D
 Schrodinger Suite 2020-3.
 71 75  0  0  1  0            999 V2000
   36.0200   68.9140   19.1500 C   0  0  0  0  0  0
   35.2550   70.0370   19.7010 N   0  3  0  0  0  0
   35.6430   71.3160   19.0310 C   0  0  0  0  0  0
   34.9380   72.5400   19.6560 C   0  0  0  0  0  0
   35.1970   72.5870   21.1280 N   0  0  0  0  0  0
   34.7740   71.3370   21.8240 C   0  0  0  0  0  0
   35.4820   70.1210   21.1820 C   0  0  0  0  0  0
   34.6950   73.8340   21.6890 C   0  0  0  0  0  0
   35.4630   75.0480   21.7260 C   0  0  0  0  0  0
   36.7090   75.0900   21.2380 F   0  0  0  0  0  0
   34.9580   76.2470   22.2670 C   0  0  0  0  0  0
   33.6460   76.2820   22.8060 C   0  0  0  0  0  0
   33.1260   77.5660   23.3750 C   0  0  0  0  0  0
   33.8530   78.5500   23.3930 O   0  0  0  0  0  0
   31.7390   77.6260   23.9460 C   0  0  0  0  0  0
   31.0320   76.4680   23.9130 C   0  0  0  0  0  0
   31.4630   75.2220   23.4000 N   0  0  0  0  0  0
   30.5840   74.0170   23.5310 C   0  0  0  0  0  0
   30.8980   73.1650   24.7810 C   0  0  0  0  0  0
   31.7570   73.6430   25.8400 C   0  0  0  0  0  0
   32.0330   72.8500   26.9760 C   0  0  0  0  0  0
   31.4580   71.5600   27.0820 C   0  0  0  0  0  0
   30.6090   71.0570   26.0600 C   0  0  0  0  0  0
   30.3330   71.8570   24.9170 C   0  0  0  0  0  0
   31.8080   70.5860   28.5030 S   0  0  0  0  0  0
   33.2230   69.6330   28.0210 C   0  0  0  0  0  0
   30.7130   69.6590   28.6970 O   0  0  0  0  0  0
   32.2000   71.4900   29.5640 O   0  0  0  0  0  0
   32.8040   75.1160   22.8190 C   0  0  0  0  0  0
   33.3660   73.9130   22.2500 C   0  0  0  0  0  0
   31.1800   78.8900   24.5140 C   0  0  0  0  0  0
   31.7850   79.9650   24.5020 O   0  0  0  0  0  0
   29.9140   78.6850   25.0430 O   0  0  0  0  0  0
   29.3400   79.7470   25.8460 C   0  0  0  0  0  0
   29.7340   79.5740   27.3000 C   0  0  0  0  0  0
   29.3290   78.4180   28.0350 C   0  0  0  0  0  0
   29.7010   78.2650   29.4010 C   0  0  0  0  0  0
   30.4820   79.2670   30.0360 C   0  0  0  0  0  0
   30.9230   79.0850   31.6730 Cl  0  0  0  0  0  0
   30.8940   80.4190   29.3210 C   0  0  0  0  0  0
   30.5210   80.5700   27.9570 C   0  0  0  0  0  0
   35.8525   68.8538   18.0645 H   0  0  0  0  0  0
   35.6903   67.9779   19.6244 H   0  0  0  0  0  0
   37.0911   69.0678   19.3478 H   0  0  0  0  0  0
   34.1895   69.8517   19.5002 H   0  0  0  0  0  0
   36.7291   71.4635   19.1235 H   0  0  0  0  0  0
   35.3685   71.2704   17.9668 H   0  0  0  0  0  0
   35.3223   73.4606   19.1926 H   0  0  0  0  0  0
   33.8542   72.4670   19.4826 H   0  0  0  0  0  0
   35.0470   71.3993   22.8878 H   0  0  0  0  0  0
   33.6845   71.2165   21.7315 H   0  0  0  0  0  0
   35.0950   69.2114   21.6644 H   0  0  0  0  0  0
   36.5596   70.2126   21.3832 H   0  0  0  0  0  0
   35.5742   77.1461   22.2714 H   0  0  0  0  0  0
   30.0239   76.5016   24.3261 H   0  0  0  0  0  0
   29.5335   74.3355   23.6023 H   0  0  0  0  0  0
   30.7125   73.3718   22.6494 H   0  0  0  0  0  0
   32.2009   74.6353   25.7607 H   0  0  0  0  0  0
   32.6834   73.2279   27.7648 H   0  0  0  0  0  0
   30.1713   70.0629   26.1514 H   0  0  0  0  0  0
   29.6821   71.4686   24.1336 H   0  0  0  0  0  0
   32.9410   68.9403   27.2144 H   0  0  0  0  0  0
   33.5905   69.0598   28.8849 H   0  0  0  0  0  0
   34.0154   70.3077   27.6647 H   0  0  0  0  0  0
   32.7517   73.0126   22.2435 H   0  0  0  0  0  0
   29.7084   80.7189   25.4859 H   0  0  0  0  0  0
   28.2435   79.7172   25.7637 H   0  0  0  0  0  0
   28.7313   77.6480   27.5471 H   0  0  0  0  0  0
   29.3874   77.3818   29.9575 H   0  0  0  0  0  0
   31.4932   81.1848   29.8135 H   0  0  0  0  0  0
   30.8389   81.4553   27.4063 H   0  0  0  0  0  0
  1  2  1  0  0  0
  1 42  1  0  0  0
  1 43  1  0  0  0
  1 44  1  0  0  0
  2  3  1  0  0  0
  2  7  1  0  0  0
  2 45  1  0  0  0
  3  4  1  0  0  0
  3 46  1  0  0  0
  3 47  1  0  0  0
  4  5  1  0  0  0
  4 48  1  0  0  0
  4 49  1  0  0  0
  5  6  1  0  0  0
  5  8  1  0  0  0
  6  7  1  0  0  0
  6 50  1  0  0  0
  6 51  1  0  0  0
  7 52  1  0  0  0
  7 53  1  0  0  0
  8  9  2  0  0  0
  8 30  1  0  0  0
  9 10  1  0  0  0
  9 11  1  0  0  0
 11 12  2  0  0  0
 11 54  1  0  0  0
 12 13  1  0  0  0
 12 29  1  0  0  0
 13 14  2  0  0  0
 13 15  1  0  0  0
 15 16  2  0  0  0
 15 31  1  0  0  0
 16 17  1  0  0  0
 16 55  1  0  0  0
 17 18  1  0  0  0
 17 29  1  0  0  0
 18 19  1  0  0  0
 18 56  1  0  0  0
 18 57  1  0  0  0
 19 20  2  0  0  0
 19 24  1  0  0  0
 20 21  1  0  0  0
 20 58  1  0  0  0
 21 22  2  0  0  0
 21 59  1  0  0  0
 22 23  1  0  0  0
 22 25  1  0  0  0
 23 24  2  0  0  0
 23 60  1  0  0  0
 24 61  1  0  0  0
 25 26  1  0  0  0
 25 27  2  0  0  0
 25 28  2  0  0  0
 26 62  1  0  0  0
 26 63  1  0  0  0
 26 64  1  0  0  0
 29 30  2  0  0  0
 30 65  1  0  0  0
 31 32  2  0  0  0
 31 33  1  0  0  0
 33 34  1  0  0  0
 34 35  1  0  0  0
 34 66  1  0  0  0
 34 67  1  0  0  0
 35 36  2  0  0  0
 35 41  1  0  0  0
 36 37  1  0  0  0
 36 68  1  0  0  0
 37 38  2  0  0  0
 37 69  1  0  0  0
 38 39  1  0  0  0
 38 40  1  0  0  0
 40 41  2  0  0  0
 40 70  1  0  0  0
 41 71  1  0  0  0
M  CHG  1   2   1
M  END
> <s_m_source_file>
../3phe_ligand.sdf

> <i_m_source_file_index>
1

> <s_epik_input>
W0NIM11bTkgrXTFbQ0gyXVtDSDJdTihbQ0gyXVtDSDJdMSljKGMoRilbY0hdMilbY0hdYyhjMjMpbihbQ0gyXWM0W2NIXVtjSF1jKFtjSF1bY0hdNClTKD1PKSg9TylbQ0gzXSlbY0hdYyhjMz1PKUMoPU8pT1tDSDJdYzVbY0hdW2NIXWMoQ2wpW2NIXVtjSF01

> <s_epik_cmdline>
J2VwaWtfYXBwJywgJy1pbWFlJywgJ2xpZ2FuZF9wcm8ubWFlJywgJy1vbWFlJywgJ2xpZ2FuZF9wcmVwLm1hZScsICctbXMnLCAnMScsICctcGgnLCAnNycsICctcGh0JywgJzAuNScsICctbnQn

> <r_epik_Ionization_Penalty>
  0.0647

> <r_epik_Ionization_Penalty_Charging>
  0.0647

> <r_epik_Ionization_Penalty_Neutral>
  0.0000

> <r_epik_State_Penalty>
  0.0564

> <r_epik_Charging_Adjusted_Penalty>
0.121170587908254

> <i_epik_Tot_Q>
1

> <i_epik_Tot_abs_Q>
1

> <s_epik_Chemistry_Notes>
This compound has an ester and may undergo hydrolysis at high or low pH.

$$$$
