3pix_ligand
                    3D
 Schrodinger Suite 2020-3.
 55 58  0  0  1  0            999 V2000
   18.3760    5.8870   -0.3900 N   0  0  0  0  0  0
   19.7020    6.3580   -0.4590 N   0  0  0  0  0  0
   17.6450    5.6140   -1.4770 C   0  0  0  0  0  0
   20.3470    6.5850   -1.7080 C   0  0  0  0  0  0
   19.6610    6.3310   -2.8880 C   0  0  0  0  0  0
   18.2640    5.8230   -2.8130 C   0  0  0  0  0  0
   15.5630    5.1030   -0.3030 C   0  0  0  0  0  0
   16.3700    5.1480   -1.3990 N   0  0  0  0  0  0
   15.9010    5.2960    0.9650 C   0  0  0  0  0  0
   13.7530    4.8590    0.8970 N   0  0  0  0  0  0
   14.2540    4.8210   -0.4200 N   0  0  0  0  0  0
   20.1320    6.4760   -6.4660 N   0  0  0  0  0  0
   20.2070    6.5200   -4.0420 C   0  0  0  0  0  0
   19.5180    6.2650   -5.1930 C   0  0  0  0  0  0
   14.7930    5.1510    1.6970 C   0  0  3  0  0  0
   17.6180    5.5790   -3.9000 C   0  0  0  0  0  0
   20.7070    8.1740   -8.7130 N   0  3  0  0  0  0
   21.5290    7.0120   -1.7490 O   0  0  0  0  0  0
   20.4240    6.6300    0.7900 C   0  0  0  0  0  0
   18.2350    5.7950   -5.1220 C   0  0  0  0  0  0
   21.1170    7.5760   -6.3930 C   0  0  0  0  0  0
   19.1070    6.7750   -7.4910 C   0  0  0  0  0  0
   19.7370    7.0780   -8.8500 C   0  0  0  0  0  0
   21.7600    7.7940   -7.7600 C   0  0  0  0  0  0
   21.3290    8.4620  -10.0170 C   0  0  0  0  0  0
   14.9140    5.3240    3.1880 C   0  0  0  0  0  0
   19.8180    7.8470    1.4790 C   0  0  0  0  0  0
   20.4070    5.4100    1.7050 C   0  0  0  0  0  0
   15.8755    4.7459   -2.2956 H   0  0  0  0  0  0
   16.9440    5.5274    1.2271 H   0  0  0  0  0  0
   21.2315    6.8880   -4.0986 H   0  0  0  0  0  0
   16.5947    5.2058   -3.8593 H   0  0  0  0  0  0
   20.1777    9.0660   -8.3466 H   0  0  0  0  0  0
   21.4674    6.8433    0.5146 H   0  0  0  0  0  0
   17.6889    5.5869   -6.0421 H   0  0  0  0  0  0
   20.6109    8.5011   -6.0799 H   0  0  0  0  0  0
   21.8987    7.3204   -5.6625 H   0  0  0  0  0  0
   18.4388    5.9087   -7.6050 H   0  0  0  0  0  0
   18.5207    7.6516   -7.1784 H   0  0  0  0  0  0
   18.9495    7.3719   -9.5596 H   0  0  0  0  0  0
   20.2497    6.1790   -9.2229 H   0  0  0  0  0  0
   22.2449    6.8670   -8.0998 H   0  0  0  0  0  0
   22.5080    8.5983   -7.7000 H   0  0  0  0  0  0
   20.5504    8.7479  -10.7395 H   0  0  0  0  0  0
   21.8537    7.5655  -10.3789 H   0  0  0  0  0  0
   22.0474    9.2876   -9.9062 H   0  0  0  0  0  0
   15.9564    5.5626    3.4460 H   0  0  0  0  0  0
   14.6159    4.3921    3.6906 H   0  0  0  0  0  0
   14.2581    6.1437    3.5164 H   0  0  0  0  0  0
   19.8453    8.7074    0.7943 H   0  0  0  0  0  0
   20.3960    8.0810    2.3852 H   0  0  0  0  0  0
   18.7753    7.6308    1.7548 H   0  0  0  0  0  0
   20.8500    4.5512    1.1793 H   0  0  0  0  0  0
   19.3690    5.1743    1.9826 H   0  0  0  0  0  0
   20.9897    5.6245    2.6130 H   0  0  0  0  0  0
  1  2  1  0  0  0
  1  3  2  0  0  0
  2  4  1  0  0  0
  2 19  1  0  0  0
  3  6  1  0  0  0
  3  8  1  0  0  0
  4  5  1  0  0  0
  4 18  2  0  0  0
  5  6  2  0  0  0
  5 13  1  0  0  0
  6 16  1  0  0  0
  7  8  1  0  0  0
  7  9  2  0  0  0
  7 11  1  0  0  0
  8 29  1  0  0  0
  9 15  1  0  0  0
  9 30  1  0  0  0
 10 11  2  0  0  0
 10 15  1  0  0  0
 12 14  1  0  0  0
 12 21  1  0  0  0
 12 22  1  0  0  0
 13 14  2  0  0  0
 13 31  1  0  0  0
 14 20  1  0  0  0
 15 26  1  0  0  0
 16 20  2  0  0  0
 16 32  1  0  0  0
 17 23  1  0  0  0
 17 24  1  0  0  0
 17 25  1  0  0  0
 17 33  1  0  0  0
 19 27  1  0  0  0
 19 28  1  0  0  0
 19 34  1  0  0  0
 20 35  1  0  0  0
 21 24  1  0  0  0
 21 36  1  0  0  0
 21 37  1  0  0  0
 22 23  1  0  0  0
 22 38  1  0  0  0
 22 39  1  0  0  0
 23 40  1  0  0  0
 23 41  1  0  0  0
 24 42  1  0  0  0
 24 43  1  0  0  0
 25 44  1  0  0  0
 25 45  1  0  0  0
 25 46  1  0  0  0
 26 47  1  0  0  0
 26 48  1  0  0  0
 26 49  1  0  0  0
 27 50  1  0  0  0
 27 51  1  0  0  0
 27 52  1  0  0  0
 28 53  1  0  0  0
 28 54  1  0  0  0
 28 55  1  0  0  0
M  CHG  1  17   1
M  END
> <s_m_source_file>
../3pix_ligand.sdf

> <i_m_source_file_index>
1

> <s_epik_input>
TjE9TltDSF0oW0NIM10pW0NIXT1DMVtOSF1jKG5uKGMyPU8pW0NIXShbQ0gzXSlbQ0gzXSljKGMyMylbY0hdW2NIXWMoW2NIXTMpTjRbQ0gyXVtDSDJdW05IK10oW0NIM10pW0NIMl1bQ0gyXTQ=

> <s_epik_cmdline>
J2VwaWtfYXBwJywgJy1pbWFlJywgJ2xpZ2FuZF9wcm8ubWFlJywgJy1vbWFlJywgJ2xpZ2FuZF9wcmVwLm1hZScsICctbXMnLCAnMScsICctcGgnLCAnNycsICctcGh0JywgJzAuNScsICctbnQn

> <r_epik_Ionization_Penalty>
  0.0648

> <r_epik_Ionization_Penalty_Charging>
  0.0647

> <r_epik_Ionization_Penalty_Neutral>
  0.0000

> <r_epik_State_Penalty>
  0.0564

> <r_epik_Charging_Adjusted_Penalty>
0.121170591919549

> <i_epik_Tot_Q>
1

> <i_epik_Tot_abs_Q>
1

$$$$
