3piy_ligand
                    3D
 Schrodinger Suite 2020-3.
 57 60  0  0  1  0            999 V2000
  -14.2190    7.6380  -13.4350 N   0  0  0  0  0  0
  -18.2980    5.8380  -18.1290 N   0  0  0  0  0  0
  -14.7430    7.0630  -14.6100 C   0  0  0  0  0  0
  -18.7070    5.6880  -16.8800 C   0  0  0  0  0  0
  -12.9830    8.2340  -13.4950 C   0  0  0  0  0  0
  -16.0250    6.7300  -14.6950 N   0  0  0  0  0  0
  -19.1340    5.6630  -19.1480 C   0  0  0  0  0  0
  -12.5700    7.1580  -15.6670 O   0  0  0  0  0  0
  -12.2420    8.2720  -14.8230 C   0  0  0  0  0  0
  -17.8790    5.8620  -15.7850 N   0  0  0  0  0  0
  -20.0350    5.3130  -16.6400 C   0  0  0  0  0  0
  -15.0390    7.4070  -21.7750 C   0  0  0  0  0  0
  -13.8910    6.8410  -15.7060 C   0  0  0  0  0  0
  -16.5370    6.1930  -15.8070 C   0  0  0  0  0  0
  -15.7620    6.5020  -22.5810 C   0  0  0  0  0  0
  -15.5400    7.7940  -20.5350 C   0  0  0  0  0  0
  -20.3940    5.3170  -18.9640 N   0  0  0  0  0  0
  -17.4700    6.3860  -20.8580 C   0  0  0  0  0  0
  -16.9750    5.9990  -22.0970 C   0  0  0  0  0  0
  -16.7570    7.2910  -20.0820 C   0  0  0  0  0  0
  -18.7030    5.8510  -20.4550 N   0  0  0  0  0  0
  -20.8690    5.1280  -17.7340 C   0  0  0  0  0  0
  -12.5060    8.7620  -12.4990 O   0  0  0  0  0  0
  -14.4070    6.2610  -16.8650 C   0  0  0  0  0  0
  -20.4590    5.1440  -15.3530 F   0  0  0  0  0  0
  -15.7490    5.9320  -16.9200 C   0  0  0  0  0  0
  -13.8490    7.9400  -22.1790 O   0  0  0  0  0  0
  -14.7930    8.6670  -19.8020 O   0  0  0  0  0  0
  -15.2720    6.1180  -23.8120 O   0  0  0  0  0  0
  -12.6120    9.5910  -15.5020 C   0  0  0  0  0  0
  -10.7150    8.2480  -14.6750 C   0  0  0  0  0  0
  -12.7680    7.1930  -21.6020 C   0  0  0  0  0  0
  -15.5710    9.2630  -18.7520 C   0  0  0  0  0  0
  -16.2620    5.4450  -24.6150 C   0  0  0  0  0  0
  -14.7975    7.6026  -12.5001 H   0  0  0  0  0  0
  -18.2784    5.7359  -14.7679 H   0  0  0  0  0  0
  -17.5411    5.2914  -22.7027 H   0  0  0  0  0  0
  -17.1509    7.6081  -19.1164 H   0  0  0  0  0  0
  -19.3548    5.5691  -21.2950 H   0  0  0  0  0  0
  -21.9071    4.8297  -17.5874 H   0  0  0  0  0  0
  -13.7582    6.0689  -17.7196 H   0  0  0  0  0  0
  -16.1773    5.4793  -17.8143 H   0  0  0  0  0  0
  -13.7036    9.6458  -15.6263 H   0  0  0  0  0  0
  -12.1276    9.6442  -16.4881 H   0  0  0  0  0  0
  -12.2710   10.4318  -14.8801 H   0  0  0  0  0  0
  -10.4085    7.3103  -14.1884 H   0  0  0  0  0  0
  -10.3927    9.1020  -14.0612 H   0  0  0  0  0  0
  -10.2492    8.3145  -15.6693 H   0  0  0  0  0  0
  -11.8097    7.6234  -21.9282 H   0  0  0  0  0  0
  -12.8301    6.1450  -21.9305 H   0  0  0  0  0  0
  -12.8357    7.2380  -20.5050 H   0  0  0  0  0  0
  -14.9416    9.9607  -18.1801 H   0  0  0  0  0  0
  -15.9475    8.4756  -18.0825 H   0  0  0  0  0  0
  -16.4198    9.8092  -19.1894 H   0  0  0  0  0  0
  -15.8196    5.1621  -25.5816 H   0  0  0  0  0  0
  -17.1153    6.1180  -24.7852 H   0  0  0  0  0  0
  -16.6066    4.5413  -24.0909 H   0  0  0  0  0  0
  1  3  1  0  0  0
  1  5  1  0  0  0
  1 35  1  0  0  0
  2  4  2  0  0  0
  2  7  1  0  0  0
  3  6  2  0  0  0
  3 13  1  0  0  0
  4 10  1  0  0  0
  4 11  1  0  0  0
  5  9  1  0  0  0
  5 23  2  0  0  0
  6 14  1  0  0  0
  7 17  2  0  0  0
  7 21  1  0  0  0
  8  9  1  0  0  0
  8 13  1  0  0  0
  9 30  1  0  0  0
  9 31  1  0  0  0
 10 14  1  0  0  0
 10 36  1  0  0  0
 11 22  2  0  0  0
 11 25  1  0  0  0
 12 15  2  0  0  0
 12 16  1  0  0  0
 12 27  1  0  0  0
 13 24  2  0  0  0
 14 26  2  0  0  0
 15 19  1  0  0  0
 15 29  1  0  0  0
 16 20  2  0  0  0
 16 28  1  0  0  0
 17 22  1  0  0  0
 18 19  2  0  0  0
 18 20  1  0  0  0
 18 21  1  0  0  0
 19 37  1  0  0  0
 20 38  1  0  0  0
 21 39  1  0  0  0
 22 40  1  0  0  0
 24 26  1  0  0  0
 24 41  1  0  0  0
 26 42  1  0  0  0
 27 32  1  0  0  0
 28 33  1  0  0  0
 29 34  1  0  0  0
 30 43  1  0  0  0
 30 44  1  0  0  0
 30 45  1  0  0  0
 31 46  1  0  0  0
 31 47  1  0  0  0
 31 48  1  0  0  0
 32 49  1  0  0  0
 32 50  1  0  0  0
 32 51  1  0  0  0
 33 52  1  0  0  0
 33 53  1  0  0  0
 33 54  1  0  0  0
 34 55  1  0  0  0
 34 56  1  0  0  0
 34 57  1  0  0  0
M  END
> <s_m_source_file>
../3piy_ligand.sdf

> <i_m_source_file_index>
1

> <s_epik_input>
W05IXTFDKD1PKUMoW0NIM10pKFtDSDNdKU9jKGMxMilbY0hdW2NIXWMobjIpW05IXWMzbmMobltjSF1jM0YpW05IXWMoW2NIXWM0T1tDSDNdKVtjSF1jKE9bQ0gzXSljNE9bQ0gzXQ==

> <s_epik_cmdline>
J2VwaWtfYXBwJywgJy1pbWFlJywgJ2xpZ2FuZF9wcm8ubWFlJywgJy1vbWFlJywgJ2xpZ2FuZF9wcmVwLm1hZScsICctbXMnLCAnMScsICctcGgnLCAnNycsICctcGh0JywgJzAuNScsICctbnQn

> <r_lp_tautomer_probability>
1

> <r_epik_Ionization_Penalty>
  0.0016

> <r_epik_Ionization_Penalty_Charging>
  0.0000

> <r_epik_Ionization_Penalty_Neutral>
  0.0016

> <r_epik_State_Penalty>
 -0.0000

> <r_epik_Charging_Adjusted_Penalty>
0

> <i_epik_Tot_Q>
0

> <i_epik_Tot_abs_Q>
0

$$$$
