3pj1_ligand
                    3D
 Schrodinger Suite 2020-3.
 64 67  0  0  1  0            999 V2000
  -21.0620    4.9110  -18.9260 N   0  0  0  0  0  0
  -19.8070    5.3620  -19.1740 C   0  0  0  0  0  0
  -19.4460    5.5690  -20.4630 N   0  0  0  0  0  0
  -18.9550    5.6060  -18.1530 N   0  0  0  0  0  0
  -19.3310    5.3980  -16.8730 C   0  0  0  0  0  0
  -17.0800    6.1510  -16.0980 C   0  0  0  0  0  0
  -18.4340    5.6570  -15.8140 N   0  0  0  0  0  0
  -18.8470    5.4200  -14.4810 C   0  0  0  0  0  0
  -18.0620    5.6360  -13.5280 O   0  0  0  0  0  0
  -20.1550    4.9570  -14.2290 N   0  0  0  0  0  0
  -21.0340    4.7140  -15.3010 C   0  0  0  0  0  0
  -20.6180    4.9360  -16.6110 C   0  0  0  0  0  0
  -21.4820    4.6970  -17.6720 C   0  0  0  0  0  0
  -18.2090    5.8720  -20.9360 C   0  0  0  0  0  0
  -17.2980    6.6400  -20.2080 C   0  0  0  0  0  0
  -16.0450    6.9440  -20.7430 C   0  0  0  0  0  0
  -15.7010    6.4920  -22.0140 C   0  0  0  0  0  0
  -14.4610    6.8120  -22.5170 O   0  0  0  0  0  0
  -16.6120    5.7310  -22.7510 C   0  0  0  0  0  0
  -17.8620    5.4250  -22.2130 C   0  0  0  0  0  0
  -14.0920    6.5170  -23.8660 C   0  0  0  0  0  0
  -12.7620    7.1900  -24.2170 C   0  0  0  0  0  0
  -11.6060    6.8010  -23.3730 N   0  3  0  0  0  0
  -11.3920    7.7960  -22.3030 C   0  0  0  0  0  0
  -10.2090    8.6870  -22.6280 C   0  0  0  0  0  0
  -11.7340    5.4550  -22.7830 C   0  0  0  0  0  0
  -10.6400    4.5420  -23.2920 C   0  0  0  0  0  0
  -20.5540    4.6950  -12.9080 C   0  0  0  0  0  0
  -20.5060    3.3710  -12.4950 C   0  0  0  0  0  0
  -19.9750    2.1150  -13.6650 Cl  0  0  0  0  0  0
  -20.8670    3.0280  -11.1930 C   0  0  0  0  0  0
  -21.2780    4.0230  -10.3030 C   0  0  0  0  0  0
  -21.3190    5.3540  -10.7190 C   0  0  0  0  0  0
  -20.9500    5.6770  -12.0210 C   0  0  0  0  0  0
  -20.9940    7.3610  -12.5880 Cl  0  0  0  0  0  0
  -20.1975    5.4969  -21.2630 H   0  0  0  0  0  0
  -16.9536    6.2705  -17.1842 H   0  0  0  0  0  0
  -16.3400    5.4304  -15.7198 H   0  0  0  0  0  0
  -16.9326    7.1220  -15.6027 H   0  0  0  0  0  0
  -21.3355    3.6561  -15.2954 H   0  0  0  0  0  0
  -21.9254    5.3499  -15.1957 H   0  0  0  0  0  0
  -22.4942    4.3380  -17.4857 H   0  0  0  0  0  0
  -17.5667    7.0042  -19.2164 H   0  0  0  0  0  0
  -15.3352    7.5359  -20.1650 H   0  0  0  0  0  0
  -16.3458    5.3763  -23.7467 H   0  0  0  0  0  0
  -18.5716    4.8340  -22.7921 H   0  0  0  0  0  0
  -13.9851    5.4289  -23.9873 H   0  0  0  0  0  0
  -14.8711    6.8872  -24.5486 H   0  0  0  0  0  0
  -12.4871    6.9410  -25.2526 H   0  0  0  0  0  0
  -12.8653    8.2806  -24.1172 H   0  0  0  0  0  0
  -10.7317    6.7699  -24.0398 H   0  0  0  0  0  0
  -12.2905    8.4220  -22.1994 H   0  0  0  0  0  0
  -11.1955    7.2768  -21.3534 H   0  0  0  0  0  0
  -10.0682    9.4191  -21.8191 H   0  0  0  0  0  0
  -10.3978    9.2168  -23.5733 H   0  0  0  0  0  0
   -9.3028    8.0715  -22.7273 H   0  0  0  0  0  0
  -11.6572    5.5258  -21.6880 H   0  0  0  0  0  0
  -12.7099    5.0266  -23.0552 H   0  0  0  0  0  0
  -10.7543    3.5456  -22.8402 H   0  0  0  0  0  0
   -9.6589    4.9580  -23.0193 H   0  0  0  0  0  0
  -10.7116    4.4588  -24.3865 H   0  0  0  0  0  0
  -20.8287    1.9874  -10.8707 H   0  0  0  0  0  0
  -21.5662    3.7600   -9.2852 H   0  0  0  0  0  0
  -21.6378    6.1352  -10.0290 H   0  0  0  0  0  0
  1  2  2  0  0  0
  1 13  1  0  0  0
  2  3  1  0  0  0
  2  4  1  0  0  0
  3 14  1  0  0  0
  3 36  1  0  0  0
  4  5  2  0  0  0
  5  7  1  0  0  0
  5 12  1  0  0  0
  6  7  1  0  0  0
  6 37  1  0  0  0
  6 38  1  0  0  0
  6 39  1  0  0  0
  7  8  1  0  0  0
  8  9  2  0  0  0
  8 10  1  0  0  0
 10 11  1  0  0  0
 10 28  1  0  0  0
 11 12  1  0  0  0
 11 40  1  0  0  0
 11 41  1  0  0  0
 12 13  2  0  0  0
 13 42  1  0  0  0
 14 15  2  0  0  0
 14 20  1  0  0  0
 15 16  1  0  0  0
 15 43  1  0  0  0
 16 17  2  0  0  0
 16 44  1  0  0  0
 17 18  1  0  0  0
 17 19  1  0  0  0
 18 21  1  0  0  0
 19 20  2  0  0  0
 19 45  1  0  0  0
 20 46  1  0  0  0
 21 22  1  0  0  0
 21 47  1  0  0  0
 21 48  1  0  0  0
 22 23  1  0  0  0
 22 49  1  0  0  0
 22 50  1  0  0  0
 23 24  1  0  0  0
 23 26  1  0  0  0
 23 51  1  0  0  0
 24 25  1  0  0  0
 24 52  1  0  0  0
 24 53  1  0  0  0
 25 54  1  0  0  0
 25 55  1  0  0  0
 25 56  1  0  0  0
 26 27  1  0  0  0
 26 57  1  0  0  0
 26 58  1  0  0  0
 27 59  1  0  0  0
 27 60  1  0  0  0
 27 61  1  0  0  0
 28 29  2  0  0  0
 28 34  1  0  0  0
 29 30  1  0  0  0
 29 31  1  0  0  0
 31 32  2  0  0  0
 31 62  1  0  0  0
 32 33  1  0  0  0
 32 63  1  0  0  0
 33 34  2  0  0  0
 33 64  1  0  0  0
 34 35  1  0  0  0
M  CHG  1  23   1
M  END
> <s_m_source_file>
../3pj1_ligand.sdf

> <i_m_source_file_index>
1

> <s_epik_input>
Q2xjMVtjSF1bY0hdW2NIXWMoQ2wpYzFOKEMoPU8pTjJbQ0gzXSlbQ0gyXWMoYzIzKVtjSF1uYyhuMylbTkhdYzRbY0hdW2NIXWMoW2NIXVtjSF00KU9bQ0gyXVtDSDJdW05IK10oW0NIMl1bQ0gzXSlbQ0gyXVtDSDNd

> <s_epik_cmdline>
J2VwaWtfYXBwJywgJy1pbWFlJywgJ2xpZ2FuZF9wcm8ubWFlJywgJy1vbWFlJywgJ2xpZ2FuZF9wcmVwLm1hZScsICctbXMnLCAnMScsICctcGgnLCAnNycsICctcGh0JywgJzAuNScsICctbnQn

> <r_lp_tautomer_probability>
0.999999987636

> <r_epik_Ionization_Penalty>
  0.0306

> <r_epik_Ionization_Penalty_Charging>
  0.0248

> <r_epik_Ionization_Penalty_Neutral>
  0.0058

> <r_epik_State_Penalty>
  0.0202

> <r_epik_Charging_Adjusted_Penalty>
0.0449633694247609

> <i_epik_Tot_Q>
1

> <i_epik_Tot_abs_Q>
1

$$$$
