3pj2_ligand
                    3D
 Schrodinger Suite 2020-3.
 64 67  0  0  1  0            999 V2000
  -20.7200    5.0010  -19.0360 N   0  0  0  0  0  0
  -19.5120    5.4970  -19.2960 C   0  0  0  0  0  0
  -18.6470    5.7880  -18.3260 N   0  0  0  0  0  0
  -21.1230    4.7740  -17.7960 C   0  0  0  0  0  0
  -20.2440    5.0590  -16.7420 C   0  0  0  0  0  0
  -18.9630    5.5910  -17.0430 C   0  0  0  0  0  0
  -18.0910    5.8730  -16.0100 N   0  0  0  0  0  0
  -18.4330    5.6300  -14.7170 C   0  0  0  0  0  0
  -19.7050    5.0930  -14.3620 C   0  0  0  0  0  0
  -20.6080    4.8080  -15.3470 C   0  0  0  0  0  0
  -20.0090    4.8320  -13.0490 O   0  0  0  0  0  0
  -20.7550    5.7360  -12.3440 C   0  0  0  0  0  0
  -19.2040    5.7010  -20.6310 N   0  0  0  0  0  0
  -17.9480    5.9990  -21.1960 C   0  0  0  0  0  0
  -17.7210    5.6070  -22.5160 C   0  0  0  0  0  0
  -16.5160    5.8880  -23.1400 C   0  0  0  0  0  0
  -15.5140    6.5660  -22.4540 C   0  0  0  0  0  0
  -15.7390    6.9760  -21.1360 C   0  0  0  0  0  0
  -16.9470    6.6940  -20.5100 C   0  0  0  0  0  0
  -14.3380    6.8350  -23.1010 O   0  0  0  0  0  0
  -13.2400    6.2870  -22.3680 C   0  0  0  0  0  0
  -11.9320    6.4620  -23.1490 C   0  0  0  0  0  0
  -11.8790    5.5680  -24.3190 N   0  3  0  0  0  0
  -10.7190    6.0120  -25.1130 C   0  0  0  0  0  0
  -11.0750    6.0610  -26.6020 C   0  0  0  0  0  0
  -11.5590    4.2110  -23.8390 C   0  0  0  0  0  0
  -12.5090    3.1910  -24.4760 C   0  0  0  0  0  0
  -17.6350    5.8750  -13.8230 O   0  0  0  0  0  0
  -16.7650    6.4240  -16.3300 C   0  0  0  0  0  0
  -20.5020    5.8290  -10.9770 C   0  0  0  0  0  0
  -21.2200    6.7030  -10.1780 C   0  0  0  0  0  0
  -22.2140    7.4910  -10.7410 C   0  0  0  0  0  0
  -22.4850    7.3950  -12.1020 C   0  0  0  0  0  0
  -21.7640    6.5190  -12.9030 C   0  0  0  0  0  0
  -22.9170    8.3480   -9.9620 F   0  0  0  0  0  0
  -22.1175    4.3739  -17.5985 H   0  0  0  0  0  0
  -21.5869    4.3989  -15.0970 H   0  0  0  0  0  0
  -19.9938    5.6360  -21.3938 H   0  0  0  0  0  0
  -18.4996    5.0742  -23.0619 H   0  0  0  0  0  0
  -16.3530    5.5767  -24.1718 H   0  0  0  0  0  0
  -14.9629    7.5195  -20.5971 H   0  0  0  0  0  0
  -17.1148    7.0152  -19.4820 H   0  0  0  0  0  0
  -13.1505    6.8035  -21.4009 H   0  0  0  0  0  0
  -13.4127    5.2143  -22.1962 H   0  0  0  0  0  0
  -11.8511    7.5012  -23.5006 H   0  0  0  0  0  0
  -11.0797    6.2292  -22.4937 H   0  0  0  0  0  0
  -12.8222    5.5806  -24.8848 H   0  0  0  0  0  0
  -10.4134    7.0167  -24.7855 H   0  0  0  0  0  0
   -9.8849    5.3096  -24.9680 H   0  0  0  0  0  0
  -10.1988    6.3938  -27.1777 H   0  0  0  0  0  0
  -11.9052    6.7657  -26.7575 H   0  0  0  0  0  0
  -11.3767    5.0586  -26.9400 H   0  0  0  0  0  0
  -10.5234    3.9602  -24.1121 H   0  0  0  0  0  0
  -11.6690    4.1735  -22.7452 H   0  0  0  0  0  0
  -12.2622    2.1828  -24.1118 H   0  0  0  0  0  0
  -12.4005    3.2224  -25.5702 H   0  0  0  0  0  0
  -13.5462    3.4357  -24.2032 H   0  0  0  0  0  0
  -16.6737    6.5509  -17.4188 H   0  0  0  0  0  0
  -15.9857    5.7338  -15.9746 H   0  0  0  0  0  0
  -16.6442    7.3993  -15.8358 H   0  0  0  0  0  0
  -19.7280    5.2050  -10.5302 H   0  0  0  0  0  0
  -21.0054    6.7717   -9.1116 H   0  0  0  0  0  0
  -23.2685    8.0114  -12.5428 H   0  0  0  0  0  0
  -21.9867    6.4438  -13.9673 H   0  0  0  0  0  0
  1  2  1  0  0  0
  1  4  2  0  0  0
  2  3  2  0  0  0
  2 13  1  0  0  0
  3  6  1  0  0  0
  4  5  1  0  0  0
  4 36  1  0  0  0
  5  6  2  0  0  0
  5 10  1  0  0  0
  6  7  1  0  0  0
  7  8  1  0  0  0
  7 29  1  0  0  0
  8  9  1  0  0  0
  8 28  2  0  0  0
  9 10  2  0  0  0
  9 11  1  0  0  0
 10 37  1  0  0  0
 11 12  1  0  0  0
 12 30  2  0  0  0
 12 34  1  0  0  0
 13 14  1  0  0  0
 13 38  1  0  0  0
 14 15  2  0  0  0
 14 19  1  0  0  0
 15 16  1  0  0  0
 15 39  1  0  0  0
 16 17  2  0  0  0
 16 40  1  0  0  0
 17 18  1  0  0  0
 17 20  1  0  0  0
 18 19  2  0  0  0
 18 41  1  0  0  0
 19 42  1  0  0  0
 20 21  1  0  0  0
 21 22  1  0  0  0
 21 43  1  0  0  0
 21 44  1  0  0  0
 22 23  1  0  0  0
 22 45  1  0  0  0
 22 46  1  0  0  0
 23 24  1  0  0  0
 23 26  1  0  0  0
 23 47  1  0  0  0
 24 25  1  0  0  0
 24 48  1  0  0  0
 24 49  1  0  0  0
 25 50  1  0  0  0
 25 51  1  0  0  0
 25 52  1  0  0  0
 26 27  1  0  0  0
 26 53  1  0  0  0
 26 54  1  0  0  0
 27 55  1  0  0  0
 27 56  1  0  0  0
 27 57  1  0  0  0
 29 58  1  0  0  0
 29 59  1  0  0  0
 29 60  1  0  0  0
 30 31  1  0  0  0
 30 61  1  0  0  0
 31 32  2  0  0  0
 31 62  1  0  0  0
 32 33  1  0  0  0
 32 35  1  0  0  0
 33 34  2  0  0  0
 33 63  1  0  0  0
 34 64  1  0  0  0
M  CHG  1  23   1
M  END
> <s_m_source_file>
../3pj2_ligand.sdf

> <i_m_source_file_index>
1

> <s_epik_input>
W0NIM11bQ0gyXVtOSCtdKFtDSDJdW0NIM10pW0NIMl1bQ0gyXU9jKFtjSF1bY0hdMSlbY0hdW2NIXWMxW05IXWMobltjSF0yKW5jKGMyMyluKFtDSDNdKWMoPU8pYyhbY0hdMylPYzRbY0hdW2NIXWMoRilbY0hdW2NIXTQ=

> <s_epik_cmdline>
J2VwaWtfYXBwJywgJy1pbWFlJywgJ2xpZ2FuZF9wcm8ubWFlJywgJy1vbWFlJywgJ2xpZ2FuZF9wcmVwLm1hZScsICctbXMnLCAnMScsICctcGgnLCAnNycsICctcGh0JywgJzAuNScsICctbnQn

> <r_lp_tautomer_probability>
1

> <r_epik_Ionization_Penalty>
  0.0248

> <r_epik_Ionization_Penalty_Charging>
  0.0248

> <r_epik_Ionization_Penalty_Neutral>
  0.0000

> <r_epik_State_Penalty>
  0.0202

> <r_epik_Charging_Adjusted_Penalty>
0.0449633699583542

> <i_epik_Tot_Q>
1

> <i_epik_Tot_abs_Q>
1

> <s_epik_Chemistry_Notes>
This compound has an imine and may undergo hydrolysis.

$$$$
