3pj3_ligand
                    3D
 Schrodinger Suite 2020-3.
 58 62  0  0  1  0            999 V2000
  -18.1040    5.8430  -20.4070 C   0  0  0  0  0  0
  -19.4110    5.5190  -20.5390 N   0  0  0  0  0  0
  -17.8100    5.8760  -19.0880 N   0  0  0  0  0  0
  -19.9410    5.3390  -19.3170 C   0  0  0  0  0  0
  -20.1110    5.3690  -14.2500 C   0  0  0  0  0  0
  -18.9260    5.5720  -18.3960 C   0  0  0  0  0  0
  -20.6560    5.1520  -12.8700 C   0  0  0  0  0  0
  -21.1930    5.0080  -18.9020 N   0  0  0  0  0  0
  -20.8320    4.9910  -15.3130 N   0  0  0  0  0  0
  -19.1950    5.4560  -17.0350 C   0  0  0  0  0  0
  -23.0900    8.0760  -10.7740 C   0  0  0  0  0  0
  -23.5970    9.0820  -10.0030 C   0  0  0  0  0  0
  -22.2710    7.1580  -10.2330 N   0  0  0  0  0  0
  -20.4880    5.1190  -16.6220 C   0  0  0  0  0  0
  -24.8090    9.4170  -10.1300 C   0  0  0  0  0  0
  -21.2010    6.2430  -12.1940 C   0  0  0  0  0  0
  -17.1650    6.1230  -21.5330 C   0  0  0  0  0  0
  -19.0180    5.9000  -14.3530 O   0  0  0  0  0  0
  -20.6050    3.9000  -12.2590 C   0  0  0  0  0  0
  -21.7220    6.1040  -10.9070 C   0  0  0  0  0  0
  -23.3980    8.0280  -11.9610 O   0  0  0  0  0  0
  -21.4750    4.9000  -17.5900 C   0  0  0  0  0  0
  -21.1160    3.7520  -10.9680 C   0  0  0  0  0  0
  -21.6730    4.8470  -10.2980 C   0  0  0  0  0  0
  -25.4630   10.4980   -9.3440 C   0  0  0  0  0  0
  -20.0160    2.7110  -12.9770 C   0  0  0  0  0  0
  -17.5000    5.7490  -22.8340 C   0  0  0  0  0  0
  -15.9480    6.7710  -21.2940 C   0  0  0  0  0  0
  -26.1140   11.5330  -10.0160 C   0  0  0  0  0  0
  -25.4580   10.4820   -7.9460 C   0  0  0  0  0  0
  -16.6310    6.0130  -23.8920 C   0  0  0  0  0  0
  -15.0760    7.0360  -22.3510 C   0  0  0  0  0  0
  -26.7430   12.5560   -9.3010 C   0  0  0  0  0  0
  -26.0870   11.5010   -7.2280 C   0  0  0  0  0  0
  -15.4190    6.6560  -23.6520 C   0  0  0  0  0  0
  -26.7320   12.5380   -7.9070 C   0  0  0  0  0  0
  -21.8163    4.5209  -15.1710 H   0  0  0  0  0  0
  -18.4057    5.6258  -16.2879 H   0  0  0  0  0  0
  -22.9566    9.6003   -9.2741 H   0  0  0  0  0  0
  -21.9969    7.2240   -9.1698 H   0  0  0  0  0  0
  -25.4497    8.8979  -10.8580 H   0  0  0  0  0  0
  -21.2204    7.2193  -12.6783 H   0  0  0  0  0  0
  -22.4859    4.6384  -17.2773 H   0  0  0  0  0  0
  -21.0808    2.7783  -10.4795 H   0  0  0  0  0  0
  -22.0723    4.7184   -9.2920 H   0  0  0  0  0  0
  -19.6682    3.0200  -13.9738 H   0  0  0  0  0  0
  -20.7829    1.9294  -13.0822 H   0  0  0  0  0  0
  -19.1676    2.3167  -12.3985 H   0  0  0  0  0  0
  -18.4482    5.2466  -23.0253 H   0  0  0  0  0  0
  -15.6805    7.0694  -20.2803 H   0  0  0  0  0  0
  -26.1322   11.5438  -11.1058 H   0  0  0  0  0  0
  -24.9610    9.6706   -7.4143 H   0  0  0  0  0  0
  -16.8999    5.7165  -24.9058 H   0  0  0  0  0  0
  -14.1277    7.5392  -22.1622 H   0  0  0  0  0  0
  -27.2414   13.3667   -9.8325 H   0  0  0  0  0  0
  -26.0749   11.4876   -6.1382 H   0  0  0  0  0  0
  -14.7384    6.8628  -24.4779 H   0  0  0  0  0  0
  -27.2261   13.3322   -7.3473 H   0  0  0  0  0  0
  1  2  2  0  0  0
  1  3  1  0  0  0
  1 17  1  0  0  0
  2  4  1  0  0  0
  3  6  2  0  0  0
  4  6  1  0  0  0
  4  8  2  0  0  0
  5  7  1  0  0  0
  5  9  1  0  0  0
  5 18  2  0  0  0
  6 10  1  0  0  0
  7 16  2  0  0  0
  7 19  1  0  0  0
  8 22  1  0  0  0
  9 14  1  0  0  0
  9 37  1  0  0  0
 10 14  2  0  0  0
 10 38  1  0  0  0
 11 12  1  0  0  0
 11 13  1  0  0  0
 11 21  2  0  0  0
 12 15  2  0  0  0
 12 39  1  0  0  0
 13 20  1  0  0  0
 13 40  1  0  0  0
 14 22  1  0  0  0
 15 25  1  0  0  0
 15 41  1  0  0  0
 16 20  1  0  0  0
 16 42  1  0  0  0
 17 27  2  0  0  0
 17 28  1  0  0  0
 19 23  2  0  0  0
 19 26  1  0  0  0
 20 24  2  0  0  0
 22 43  1  0  0  0
 23 24  1  0  0  0
 23 44  1  0  0  0
 24 45  1  0  0  0
 25 29  2  0  0  0
 25 30  1  0  0  0
 26 46  1  0  0  0
 26 47  1  0  0  0
 26 48  1  0  0  0
 27 31  1  0  0  0
 27 49  1  0  0  0
 28 32  2  0  0  0
 28 50  1  0  0  0
 29 33  1  0  0  0
 29 51  1  0  0  0
 30 34  2  0  0  0
 30 52  1  0  0  0
 31 35  2  0  0  0
 31 53  1  0  0  0
 32 35  1  0  0  0
 32 54  1  0  0  0
 33 36  2  0  0  0
 33 55  1  0  0  0
 34 36  1  0  0  0
 34 56  1  0  0  0
 35 57  1  0  0  0
 36 58  1  0  0  0
M  END
> <s_m_source_file>
../3pj3_ligand.sdf

> <i_m_source_file_index>
1

> <s_epik_input>
W2NIXTFbY0hdW2NIXVtjSF1bY0hdYzFDKD1OMilOPUMoQzI9MylbQ0hdPUMoW0NIMl1OMylbTkhdQyg9TyljNFtjSF1jKFtjSF1bY0hdYzRbQ0gzXSlbTkhdQyg9TykvW0NIXT1bQ0hdL2M1W2NIXVtjSF1bY0hdW2NIXVtjSF01

> <s_epik_cmdline>
J2VwaWtfYXBwJywgJy1pbWFlJywgJ2xpZ2FuZF9wcm8ubWFlJywgJy1vbWFlJywgJ2xpZ2FuZF9wcmVwLm1hZScsICctbXMnLCAnMScsICctcGgnLCAnNycsICctcGh0JywgJzAuNScsICctbnQn

> <r_lp_tautomer_probability>
1

> <r_epik_Ionization_Penalty>
  0.0072

> <r_epik_Ionization_Penalty_Charging>
  0.0000

> <r_epik_Ionization_Penalty_Neutral>
  0.0072

> <r_epik_State_Penalty>
 -0.0000

> <r_epik_Charging_Adjusted_Penalty>
0

> <i_epik_Tot_Q>
0

> <i_epik_Tot_abs_Q>
0

> <s_epik_Chemistry_Notes>
This compound has an imine and may undergo hydrolysis.

$$$$
