3pj8_ligand
                    3D
 Schrodinger Suite 2020-3.
 51 53  0  0  1  0            999 V2000
   11.1770   10.3100  -11.5830 C   0  0  0  0  0  0
   12.0910   10.3960  -12.7450 C   0  0  0  0  0  0
   13.3190    9.5920  -12.6890 C   0  0  0  0  0  0
   13.6010    8.7900  -11.6140 N   0  0  0  0  0  0
   12.6980    8.7580  -10.5770 C   0  0  0  0  0  0
   11.5490    9.5020  -10.5730 N   0  0  0  0  0  0
   12.0930   11.0730  -13.9130 N   0  0  0  0  0  0
   13.2450   10.7550  -14.6600 N   0  0  0  0  0  0
   14.0070    9.8830  -13.9780 C   0  0  3  0  0  0
   15.3130    9.2500  -14.3210 C   0  0  0  0  0  0
   15.1580    7.7330  -14.4780 C   0  0  0  0  0  0
   16.3970    9.5970  -13.2980 C   0  0  0  0  0  0
   10.0270   11.0220  -11.5370 N   0  0  0  0  0  0
    9.0420   10.7800  -10.4920 C   0  0  0  0  0  0
    9.0530   11.9090   -9.4830 C   0  0  0  0  0  0
    9.3700   11.6450   -8.1570 C   0  0  0  0  0  0
    9.3860   12.6750   -7.2270 C   0  0  0  0  0  0
    9.0850   13.9710   -7.6260 C   0  0  0  0  0  0
    8.7680   14.2410   -8.9500 C   0  0  0  0  0  0
    8.7570   13.2100   -9.8780 C   0  0  0  0  0  0
   12.8930    8.0020   -9.4650 N   0  0  0  0  0  0
   13.7100    6.8020   -9.3950 C   0  0  2  0  0  0
   15.1040    7.1570   -8.8900 C   0  0  0  0  0  0
   15.0160    8.1630   -7.7660 C   0  0  0  0  0  0
   13.8180    6.0990  -10.7430 C   0  0  0  0  0  0
   15.0520    6.4970  -11.3520 O   0  0  0  0  0  0
   15.6145    9.6794  -15.2878 H   0  0  0  0  0  0
   14.3731    7.5193  -15.2185 H   0  0  0  0  0  0
   14.8792    7.2908  -13.5101 H   0  0  0  0  0  0
   16.1105    7.3004  -14.8181 H   0  0  0  0  0  0
   16.4818   10.6902  -13.2102 H   0  0  0  0  0  0
   17.3598    9.1799  -13.6282 H   0  0  0  0  0  0
   16.1285    9.1703  -12.3203 H   0  0  0  0  0  0
    9.8406   11.7910  -12.3011 H   0  0  0  0  0  0
    8.0402   10.7113  -10.9412 H   0  0  0  0  0  0
    9.2782    9.8373   -9.9767 H   0  0  0  0  0  0
    9.6066   10.6274   -7.8462 H   0  0  0  0  0  0
    9.6341   12.4675   -6.1861 H   0  0  0  0  0  0
    9.0978   14.7800   -6.8956 H   0  0  0  0  0  0
    8.5288   15.2585   -9.2592 H   0  0  0  0  0  0
    8.5157   13.4197  -10.9201 H   0  0  0  0  0  0
   12.3708    8.3650   -8.5675 H   0  0  0  0  0  0
   13.1810    6.1440   -8.6899 H   0  0  0  0  0  0
   15.6022    6.2488   -8.5200 H   0  0  0  0  0  0
   15.6930    7.5891   -9.7125 H   0  0  0  0  0  0
   16.0287    8.4083   -7.4133 H   0  0  0  0  0  0
   14.4323    7.7364   -6.9370 H   0  0  0  0  0  0
   14.5230    9.0767   -8.1295 H   0  0  0  0  0  0
   13.8035    5.0097  -10.5906 H   0  0  0  0  0  0
   12.9690    6.3917  -11.3783 H   0  0  0  0  0  0
   15.3302    6.1019  -12.3402 H   0  0  0  0  0  0
  1  2  2  0  0  0
  1  6  1  0  0  0
  1 13  1  0  0  0
  2  3  1  0  0  0
  2  7  1  0  0  0
  3  4  2  0  0  0
  3  9  1  0  0  0
  4  5  1  0  0  0
  5  6  2  0  0  0
  5 21  1  0  0  0
  7  8  2  0  0  0
  8  9  1  0  0  0
  9 10  1  0  0  0
 10 11  1  0  0  0
 10 12  1  0  0  0
 10 27  1  0  0  0
 11 28  1  0  0  0
 11 29  1  0  0  0
 11 30  1  0  0  0
 12 31  1  0  0  0
 12 32  1  0  0  0
 12 33  1  0  0  0
 13 14  1  0  0  0
 13 34  1  0  0  0
 14 15  1  0  0  0
 14 35  1  0  0  0
 14 36  1  0  0  0
 15 16  2  0  0  0
 15 20  1  0  0  0
 16 17  1  0  0  0
 16 37  1  0  0  0
 17 18  2  0  0  0
 17 38  1  0  0  0
 18 19  1  0  0  0
 18 39  1  0  0  0
 19 20  2  0  0  0
 19 40  1  0  0  0
 20 41  1  0  0  0
 21 22  1  0  0  0
 21 42  1  0  0  0
 22 23  1  0  0  0
 22 25  1  0  0  0
 22 43  1  0  0  0
 23 24  1  0  0  0
 23 44  1  0  0  0
 23 45  1  0  0  0
 24 46  1  0  0  0
 24 47  1  0  0  0
 24 48  1  0  0  0
 25 26  1  0  0  0
 25 49  1  0  0  0
 25 50  1  0  0  0
 26 51  1  0  0  0
M  END
> <s_m_source_file>
../3pj8_ligand.sdf

> <i_m_source_file_index>
1

> <s_epik_input>
TjE9TltDSF0oW0NIXShbQ0gzXSlbQ0gzXSljKGMxMiluYyhbTkhdW0NASF0oW0NIMl1bQ0gzXSlbQ0gyXVtPSF0pbmMyW05IXVtDSDJdYzNbY0hdW2NIXVtjSF1bY0hdW2NIXTM=

> <s_epik_cmdline>
J2VwaWtfYXBwJywgJy1pbWFlJywgJ2xpZ2FuZF9wcm8ubWFlJywgJy1vbWFlJywgJ2xpZ2FuZF9wcmVwLm1hZScsICctbXMnLCAnMScsICctcGgnLCAnNycsICctcGh0JywgJzAuNScsICctbnQn

> <r_epik_Ionization_Penalty>
  0.0937

> <r_epik_Ionization_Penalty_Charging>
  0.0000

> <r_epik_Ionization_Penalty_Neutral>
  0.0937

> <r_epik_State_Penalty>
  0.0775

> <r_epik_Charging_Adjusted_Penalty>
0.0775343851974567

> <i_epik_Tot_Q>
0

> <i_epik_Tot_abs_Q>
0

$$$$
