3pjc_ligand
                    3D
 Schrodinger Suite 2020-3.
 48 52  0  0  1  0            999 V2000
    6.9060   -4.9890    8.4100 C   0  0  0  0  0  0
    7.8390   -4.3930    9.2970 C   0  0  0  0  0  0
    6.3930   -4.9250   11.1290 C   0  0  0  0  0  0
    5.7720   -5.6080    8.9690 C   0  0  0  0  0  0
    6.2410   -4.9710   12.4880 N   0  0  0  0  0  0
    7.1870   -4.2920   13.3850 C   0  0  0  0  0  0
    6.1520   -7.1230   13.5760 C   0  0  0  0  0  0
   10.3840   -3.9280    9.3560 C   0  0  0  0  0  0
    6.3820   -4.2730    6.1850 F   0  0  0  0  0  0
    7.0970   -5.1730    6.9060 C   0  0  0  0  0  0
    8.4040   -5.1100    6.5590 F   0  0  0  0  0  0
    6.7030   -6.4360    6.6030 F   0  0  0  0  0  0
    7.5200   -4.3750   10.6040 N   0  0  0  0  0  0
    5.5640   -5.6010   10.2960 N   0  0  0  0  0  0
    8.1780   -5.4090   13.8430 C   0  0  0  0  0  0
    7.4190   -6.6550   14.2810 C   0  0  0  0  0  0
    5.2930   -5.8960   13.1330 C   0  0  0  0  0  0
    7.8330   -7.2830   15.2290 O   0  0  0  0  0  0
    9.1260   -3.6660    8.9310 C   0  0  0  0  0  0
   11.2240   -2.8940    8.7150 C   0  0  0  0  0  0
   10.4940   -2.1540    7.8620 N   0  0  0  0  0  0
    9.2240   -2.5860    7.9510 C   0  0  0  0  0  0
    8.2700   -2.1470    7.3370 O   0  5  0  0  0  0
   12.4200   -2.7620    8.9020 O   0  0  0  0  0  0
   10.8720   -4.8370   10.4280 C   0  0  0  0  0  0
   11.9670   -4.6160   11.1910 C   0  0  0  0  0  0
   12.1360   -5.5780   12.0590 N   0  3  0  0  0  0
   11.2000   -6.5310   11.9160 C   0  0  0  0  0  0
   10.3360   -6.1800   10.8690 C   0  0  0  0  0  0
    9.2930   -7.0330   10.4880 C   0  0  0  0  0  0
    9.1190   -8.2100   11.2460 C   0  0  0  0  0  0
    9.9780   -8.5420   12.3290 C   0  0  0  0  0  0
   11.0580   -7.7080   12.6720 C   0  0  0  0  0  0
    5.0520   -6.1003    8.3153 H   0  0  0  0  0  0
    7.7027   -3.4908   12.8354 H   0  0  0  0  0  0
    6.6398   -3.8596   14.2357 H   0  0  0  0  0  0
    6.4231   -7.7112   12.6869 H   0  0  0  0  0  0
    5.5599   -7.7469   14.2617 H   0  0  0  0  0  0
    8.8438   -5.6732   13.0082 H   0  0  0  0  0  0
    8.7782   -5.0425   14.6888 H   0  0  0  0  0  0
    4.8247   -5.3988   13.9952 H   0  0  0  0  0  0
    4.5158   -6.1870   12.4110 H   0  0  0  0  0  0
   12.5769   -3.7148   11.0299 H   0  0  0  0  0  0
    8.6447   -6.7982    9.6438 H   0  0  0  0  0  0
    8.3013   -8.8852   10.9937 H   0  0  0  0  0  0
    9.7979   -9.4528   12.9000 H   0  0  0  0  0  0
   11.7462   -7.9602   13.4788 H   0  0  0  0  0  0
   12.9667   -5.5300   12.7784 H   0  0  0  0  0  0
  1  2  2  0  0  0
  1  4  1  0  0  0
  1 10  1  0  0  0
  2 13  1  0  0  0
  2 19  1  0  0  0
  3  5  1  0  0  0
  3 13  2  0  0  0
  3 14  1  0  0  0
  4 14  2  0  0  0
  4 34  1  0  0  0
  5  6  1  0  0  0
  5 17  1  0  0  0
  6 15  1  0  0  0
  6 35  1  0  0  0
  6 36  1  0  0  0
  7 16  1  0  0  0
  7 17  1  0  0  0
  7 37  1  0  0  0
  7 38  1  0  0  0
  8 19  2  0  0  0
  8 20  1  0  0  0
  8 25  1  0  0  0
  9 10  1  0  0  0
 10 11  1  0  0  0
 10 12  1  0  0  0
 15 16  1  0  0  0
 15 39  1  0  0  0
 15 40  1  0  0  0
 16 18  2  0  0  0
 17 41  1  0  0  0
 17 42  1  0  0  0
 19 22  1  0  0  0
 20 21  1  0  0  0
 20 24  2  0  0  0
 21 22  2  0  0  0
 22 23  1  0  0  0
 25 26  2  0  0  0
 25 29  1  0  0  0
 26 27  1  0  0  0
 26 43  1  0  0  0
 27 28  1  0  0  0
 27 48  1  0  0  0
 28 29  2  0  0  0
 28 33  1  0  0  0
 29 30  1  0  0  0
 30 31  2  0  0  0
 30 44  1  0  0  0
 31 32  1  0  0  0
 31 45  1  0  0  0
 32 33  2  0  0  0
 32 46  1  0  0  0
 33 47  1  0  0  0
M  CHG  2  23  -1  27   1
M  END
> <s_m_source_file>
../3pjc_ligand.sdf

> <i_m_source_file_index>
1

> <s_epik_input>
W2NIXTFbY0hdW2NIXVtjSF1jKGMxMiljKFtjSF1bbkhdMilDMz1DKEMoPU8pW05IXUMzPU8pYyhjNEMoRikoRilGKW5jKG5bY0hdNClONVtDSDJdW0NIMl1DKD1PKVtDSDJdW0NIMl01

> <s_epik_cmdline>
J2VwaWtfYXBwJywgJy1pbWFlJywgJ2xpZ2FuZF9wcm8ubWFlJywgJy1vbWFlJywgJ2xpZ2FuZF9wcmVwLm1hZScsICctbXMnLCAnMScsICctcGgnLCAnNycsICctcGh0JywgJzAuNScsICctbnQn

> <r_epik_Ionization_Penalty>
  0.2759

> <r_epik_Ionization_Penalty_Charging>
  0.2759

> <r_epik_Ionization_Penalty_Neutral>
  0.0000

> <r_epik_State_Penalty>
  0.2682

> <r_epik_Charging_Adjusted_Penalty>
0.544085481811638

> <i_epik_Tot_Q>
0

> <i_epik_Tot_abs_Q>
2

$$$$
