3pjg_ligand
                    3D
 Schrodinger Suite 2020-3.
 56 58  0  0  1  0            999 V2000
   43.0060   -9.9020   10.8250 C   0  0  2  0  0  0
   42.0530   -9.7670    9.6100 C   0  0  2  0  0  0
   41.1340   -8.7100    9.8760 O   0  0  0  0  0  0
   41.3230  -11.1240    9.3820 C   0  0  1  0  0  0
   40.5130  -11.0800    8.2310 O   0  0  0  0  0  0
   42.3540  -12.2340    9.2070 C   0  0  2  0  0  0
   41.7110  -13.5020    9.0570 O   0  0  0  0  0  0
   43.2760  -12.2340   10.4350 C   0  0  2  0  0  0
   43.9230  -10.9510   10.5660 O   0  0  0  0  0  0
   44.3970  -13.2590   10.3380 C   0  0  0  0  0  0
   45.1650  -13.3380   11.2670 O   0  0  0  0  0  0
   44.5850  -14.0520    9.2520 O   0  5  0  0  0  0
   42.8900   -9.4680   13.4190 P   0  0  2  0  0  0
   44.4220   -9.2890   13.3860 O   0  0  0  0  0  0
   42.5110  -10.3940   14.6460 O   0  5  0  0  0  0
   42.2610  -10.1990   12.0520 O   0  0  0  0  0  0
   42.0430   -8.0970   13.7330 O   0  0  0  0  0  0
   42.3990   -6.7550   12.8830 P   0  0  2  0  0  0
   41.3330   -5.8290   13.2670 O   0  0  0  0  0  0
   42.3580   -6.9880   11.3110 O   0  5  0  0  0  0
   43.7800   -6.1200   13.4330 O   0  0  0  0  0  0
   44.8670   -6.2640   12.5250 C   0  0  0  0  0  0
   46.0160   -5.2780   12.9240 C   0  0  1  0  0  0
   45.7680   -3.9810   12.4050 O   0  0  0  0  0  0
   46.2120   -5.0370   14.4240 C   0  0  1  0  0  0
   47.5520   -4.6460   14.6070 O   0  0  0  0  0  0
   45.2870   -3.8980   14.7300 C   0  0  1  0  0  0
   45.5920   -3.3240   16.0200 O   0  0  0  0  0  0
   45.5890   -3.0140   13.4870 C   0  0  2  0  0  0
   44.4930   -2.1200   13.0860 N   0  0  0  0  0  0
   43.3180   -2.6590   12.5610 C   0  0  0  0  0  0
   44.6550   -0.7470   13.2210 C   0  0  0  0  0  0
   45.7130   -0.2850   13.6810 O   0  0  0  0  0  0
   43.6250    0.1150   12.8310 N   0  0  0  0  0  0
   42.4480   -0.3940   12.3080 C   0  0  0  0  0  0
   41.5170    0.3720   11.9560 O   0  0  0  0  0  0
   42.3000   -1.8420   12.1700 C   0  0  0  0  0  0
   43.5936   -8.9909   11.0108 H   0  0  0  0  0  0
   42.5641   -9.4475    8.6898 H   0  0  0  0  0  0
   41.5057   -7.6908   10.0577 H   0  0  0  0  0  0
   40.6169  -11.3401   10.1973 H   0  0  0  0  0  0
   39.7011  -10.3415    8.1578 H   0  0  0  0  0  0
   42.9168  -12.1158    8.2693 H   0  0  0  0  0  0
   41.0142  -13.6701    8.2226 H   0  0  0  0  0  0
   42.6497  -12.4250   11.3189 H   0  0  0  0  0  0
   45.2417   -7.2975   12.5626 H   0  0  0  0  0  0
   44.5254   -6.0348   11.5048 H   0  0  0  0  0  0
   46.9307   -5.6984   12.4807 H   0  0  0  0  0  0
   46.0662   -5.8949   15.0969 H   0  0  0  0  0  0
   48.3645   -5.3648   14.4247 H   0  0  0  0  0  0
   44.2246   -4.1192   14.9096 H   0  0  0  0  0  0
   45.4008   -3.9000   16.9374 H   0  0  0  0  0  0
   46.4440   -2.3427   13.6553 H   0  0  0  0  0  0
   43.2138   -3.7396   12.4631 H   0  0  0  0  0  0
   43.7476    1.2028   12.9391 H   0  0  0  0  0  0
   41.3834   -2.2642   11.7580 H   0  0  0  0  0  0
  1  2  1  0  0  0
  1  9  1  0  0  0
  1 16  1  0  0  0
  1 38  1  0  0  0
  2  3  1  0  0  0
  2  4  1  0  0  0
  2 39  1  0  0  0
  3 40  1  0  0  0
  4  5  1  0  0  0
  4  6  1  0  0  0
  4 41  1  0  0  0
  5 42  1  0  0  0
  6  7  1  0  0  0
  6  8  1  0  0  0
  6 43  1  0  0  0
  7 44  1  0  0  0
  8  9  1  0  0  0
  8 10  1  0  0  0
  8 45  1  0  0  0
 10 11  2  0  0  0
 10 12  1  0  0  0
 13 14  2  0  0  0
 13 15  1  0  0  0
 13 16  1  0  0  0
 13 17  1  0  0  0
 17 18  1  0  0  0
 18 19  2  0  0  0
 18 20  1  0  0  0
 18 21  1  0  0  0
 21 22  1  0  0  0
 22 23  1  0  0  0
 22 46  1  0  0  0
 22 47  1  0  0  0
 23 24  1  0  0  0
 23 25  1  0  0  0
 23 48  1  0  0  0
 24 29  1  0  0  0
 25 26  1  0  0  0
 25 27  1  0  0  0
 25 49  1  0  0  0
 26 50  1  0  0  0
 27 28  1  0  0  0
 27 29  1  0  0  0
 27 51  1  0  0  0
 28 52  1  0  0  0
 29 30  1  0  0  0
 29 53  1  0  0  0
 30 31  1  0  0  0
 30 32  1  0  0  0
 31 37  2  0  0  0
 31 54  1  0  0  0
 32 33  2  0  0  0
 32 34  1  0  0  0
 34 35  1  0  0  0
 34 55  1  0  0  0
 35 36  2  0  0  0
 35 37  1  0  0  0
 37 56  1  0  0  0
M  CHG  3  12  -1  15  -1  20  -1
M  END
> <s_m_source_file>
../3pjg_ligand.sdf

> <i_m_source_file_index>
1

> <s_epik_input>
Tz1DKFtPSF0pW0NAQEhdKE8xKVtDQEBIXShbT0hdKVtDQEhdKFtPSF0pW0NAQEhdKFtPSF0pW0NASF0xT1tQQF0oPU8pKFtPSF0pT1tQQF0oPU8pKFtPSF0pT1tDSDJdW0NASF0yT1tDQEhdKFtDQEhdKFtPSF0pW0NAQEhdMltPSF0pbjNbY0hdW2NIXWMoPU8pW25IXWMzPU8=

> <s_epik_cmdline>
J2VwaWtfYXBwJywgJy1pbWFlJywgJ2xpZ2FuZF9wcm8ubWFlJywgJy1vbWFlJywgJ2xpZ2FuZF9wcmVwLm1hZScsICctbXMnLCAnMScsICctcGgnLCAnNycsICctcGh0JywgJzAuNScsICctbnQn

> <r_lp_tautomer_probability>
1

> <r_epik_Ionization_Penalty>
  0.0049

> <r_epik_Ionization_Penalty_Charging>
  0.0049

> <r_epik_Ionization_Penalty_Neutral>
  0.0000

> <r_epik_State_Penalty>
 -0.0000

> <r_epik_Charging_Adjusted_Penalty>
0.00486657492176155

> <i_epik_Tot_Q>
-3

> <i_epik_Tot_abs_Q>
3

> <s_epik_Chemistry_Notes>
This compound contains an acetal/aminal-like group ( X-CH(R)-Y where X, Y are N, S, or O) that may be acid/base labile, releasing an aldehyde.

$$$$
