3pju_ligand
                    3D
 Schrodinger Suite 2020-3.
 68 74  0  0  1  0            999 V2000
   29.1140   33.4840    4.7330 P   0  0  1  0  0  0
   28.8680   32.8920    6.1040 O   0  0  0  0  0  0
   28.4860   32.5680    3.7030 O   0  5  0  0  0  0
   28.3360   34.8690    4.7310 O   0  0  0  0  0  0
   28.0560   35.4950    3.5200 C   0  0  0  0  0  0
   29.0650   36.5020    3.0370 C   0  0  1  0  0  0
   28.6810   36.9540    1.7660 O   0  0  0  0  0  0
   29.1450   37.7670    3.8590 C   0  0  1  0  0  0
   30.3150   38.4630    3.5660 O   0  0  0  0  0  0
   28.0330   38.4800    3.3750 C   0  0  1  0  0  0
   28.0920   39.9030    3.5380 O   0  0  0  0  0  0
   27.9360   38.1220    1.9710 C   0  0  2  0  0  0
   26.4970   37.9580    1.3460 N   0  0  0  0  0  0
   25.4030   37.5840    2.0440 C   0  0  0  0  0  0
   24.3820   37.4890    1.1790 N   0  0  0  0  0  0
   24.8450   37.7870   -0.0590 C   0  0  0  0  0  0
   24.2240   37.8420   -1.3090 C   0  0  0  0  0  0
   22.8660   37.5800   -1.4450 O   0  0  0  0  0  0
   24.9740   38.1950   -2.3740 N   0  0  0  0  0  0
   26.2860   38.4770   -2.2530 C   0  0  0  0  0  0
   27.0180   38.8320   -3.4330 N   0  0  0  0  0  0
   26.9130   38.4230   -1.0610 N   0  0  0  0  0  0
   26.2140   38.0910    0.0420 C   0  0  0  0  0  0
   31.4350   38.5310    4.6700 P   0  0  2  0  0  0
   30.8090   38.5990    6.0450 O   0  5  0  0  0  0
   32.4010   39.6740    4.4880 O   0  0  0  0  0  0
   32.3780   37.3130    4.5310 O   0  0  0  0  0  0
   31.9660   36.3290    5.3590 C   0  0  0  0  0  0
   32.4760   35.0500    4.8860 C   0  0  1  0  0  0
   33.7570   34.8980    5.5700 O   0  0  0  0  0  0
   31.4870   34.0790    5.4110 C   0  0  1  0  0  0
   30.6590   33.5220    4.4310 O   0  0  0  0  0  0
   32.2880   33.1830    6.2630 C   0  0  1  0  0  0
   32.5690   32.0200    5.6200 O   0  0  0  0  0  0
   33.5320   34.0000    6.6120 C   0  0  2  0  0  0
   33.5320   34.5560    8.1020 N   0  0  0  0  0  0
   32.6950   35.4980    8.5710 C   0  0  0  0  0  0
   32.7980   35.5730    9.9100 N   0  0  0  0  0  0
   33.7110   34.6570   10.3010 C   0  0  0  0  0  0
   34.2340   34.2770   11.5380 C   0  0  0  0  0  0
   33.7770   34.8690   12.6960 O   0  0  0  0  0  0
   35.1580   33.2900   11.5830 N   0  0  0  0  0  0
   35.5890   32.6710   10.4770 C   0  0  0  0  0  0
   36.6160   31.6810   10.5560 N   0  0  0  0  0  0
   35.0890   33.0300    9.2810 N   0  0  0  0  0  0
   34.1640   34.0040    9.1520 C   0  0  0  0  0  0
   27.9813   34.7385    2.7249 H   0  0  0  0  0  0
   27.1029   36.0384    3.5998 H   0  0  0  0  0  0
   30.0323   35.9789    3.0120 H   0  0  0  0  0  0
   29.1601   37.6683    4.9545 H   0  0  0  0  0  0
   27.1645   38.1954    3.9871 H   0  0  0  0  0  0
   28.1678   40.3385    4.5453 H   0  0  0  0  0  0
   28.4496   38.9600    1.4771 H   0  0  0  0  0  0
   25.3578   37.3937    3.1163 H   0  0  0  0  0  0
   24.5163   38.2583   -3.3723 H   0  0  0  0  0  0
   26.5059   38.8759   -4.4055 H   0  0  0  0  0  0
   28.0919   39.0605   -3.3661 H   0  0  0  0  0  0
   32.3442   36.5214    6.3739 H   0  0  0  0  0  0
   30.8665   36.3010    5.3767 H   0  0  0  0  0  0
   32.6168   34.9492    3.7997 H   0  0  0  0  0  0
   30.6463   34.5002    5.9817 H   0  0  0  0  0  0
   31.7436   32.7694    7.1247 H   0  0  0  0  0  0
   31.7527   31.3474    5.3179 H   0  0  0  0  0  0
   34.4616   33.4189    6.5217 H   0  0  0  0  0  0
   32.0325   36.1091    7.9581 H   0  0  0  0  0  0
   35.5785   32.9739   12.5490 H   0  0  0  0  0  0
   37.0239   31.3885   11.5348 H   0  0  0  0  0  0
   36.9989   31.2112    9.6380 H   0  0  0  0  0  0
  1  2  2  0  0  0
  1  3  1  0  0  0
  1  4  1  0  0  0
  1 32  1  0  0  0
  4  5  1  0  0  0
  5  6  1  0  0  0
  5 47  1  0  0  0
  5 48  1  0  0  0
  6  7  1  0  0  0
  6  8  1  0  0  0
  6 49  1  0  0  0
  7 12  1  0  0  0
  8  9  1  0  0  0
  8 10  1  0  0  0
  8 50  1  0  0  0
  9 24  1  0  0  0
 10 11  1  0  0  0
 10 12  1  0  0  0
 10 51  1  0  0  0
 11 52  1  0  0  0
 12 13  1  0  0  0
 12 53  1  0  0  0
 13 14  1  0  0  0
 13 23  1  0  0  0
 14 15  2  0  0  0
 14 54  1  0  0  0
 15 16  1  0  0  0
 16 17  1  0  0  0
 16 23  2  0  0  0
 17 18  2  0  0  0
 17 19  1  0  0  0
 19 20  1  0  0  0
 19 55  1  0  0  0
 20 21  1  0  0  0
 20 22  2  0  0  0
 21 56  1  0  0  0
 21 57  1  0  0  0
 22 23  1  0  0  0
 24 25  1  0  0  0
 24 26  2  0  0  0
 24 27  1  0  0  0
 27 28  1  0  0  0
 28 29  1  0  0  0
 28 58  1  0  0  0
 28 59  1  0  0  0
 29 30  1  0  0  0
 29 31  1  0  0  0
 29 60  1  0  0  0
 30 35  1  0  0  0
 31 32  1  0  0  0
 31 33  1  0  0  0
 31 61  1  0  0  0
 33 34  1  0  0  0
 33 35  1  0  0  0
 33 62  1  0  0  0
 34 63  1  0  0  0
 35 36  1  0  0  0
 35 64  1  0  0  0
 36 37  1  0  0  0
 36 46  1  0  0  0
 37 38  2  0  0  0
 37 65  1  0  0  0
 38 39  1  0  0  0
 39 40  1  0  0  0
 39 46  2  0  0  0
 40 41  2  0  0  0
 40 42  1  0  0  0
 42 43  1  0  0  0
 42 66  1  0  0  0
 43 44  1  0  0  0
 43 45  2  0  0  0
 44 67  1  0  0  0
 44 68  1  0  0  0
 45 46  1  0  0  0
M  CHG  2   3  -1  25  -1
M  END
> <s_m_source_file>
../3pju_ligand.sdf

> <i_m_source_file_index>
1

> <s_epik_input>
Tz1jMVtuSF1jKFtOSDJdKW5jKGMxMiluKFtjSF1uMilbQ0BIXShPMylbQ0BIXShbT0hdKVtDQEhdKE9bUEBdKD1PKShbT0hdKU9bQ0gyXTQpW0NASF0zW0NIMl1PW1BAXSg9TykoW09IXSlPW0NASF0oW0NAQEhdNDUpW0NAQEhdKFtPSF0pW0NAQEhdKE81KW4oW2NIXW42KWMoYzY3KW5jKFtOSDJdKVtuSF1jNz1P

> <s_epik_cmdline>
J2VwaWtfYXBwJywgJy1pbWFlJywgJ2xpZ2FuZF9wcm8ubWFlJywgJy1vbWFlJywgJ2xpZ2FuZF9wcmVwLm1hZScsICctbXMnLCAnMScsICctcGgnLCAnNycsICctcGh0JywgJzAuNScsICctbnQn

> <r_lp_tautomer_probability>
1

> <r_epik_Ionization_Penalty>
  0.0042

> <r_epik_Ionization_Penalty_Charging>
  0.0040

> <r_epik_Ionization_Penalty_Neutral>
  0.0002

> <r_epik_State_Penalty>
 -0.0000

> <r_epik_Charging_Adjusted_Penalty>
0.00400193045734951

> <i_epik_Tot_Q>
-2

> <i_epik_Tot_abs_Q>
2

> <s_epik_Chemistry_Notes>
This compound contains an acetal/aminal-like group ( X-CH(R)-Y where X, Y are N, S, or O) that may be acid/base labile, releasing an aldehyde.

$$$$
