3pka_ligand
                    3D
 Schrodinger Suite 2020-3.
 67 67  0  0  1  0            999 V2000
  -39.0750  -18.3020    3.0920 N   0  0  0  0  0  0
  -43.5630  -12.7910    2.4480 O   0  0  0  0  0  0
  -41.8820  -16.4960    1.8670 O   0  0  0  0  0  0
  -41.4110  -13.9150    1.4100 O   0  0  0  0  0  0
  -40.0680  -17.4710    4.9850 O   0  0  0  0  0  0
  -39.3350  -14.9680    3.9930 O   0  0  0  0  0  0
  -39.8790  -21.7280    3.9970 O   0  0  0  0  0  0
  -44.6040  -15.2820    6.4780 C   0  0  0  0  0  0
  -44.3210  -15.0860    4.9900 C   0  0  0  0  0  0
  -43.6080  -14.1090    4.4770 C   0  0  0  0  0  0
  -43.2240  -14.0920    3.0360 C   0  0  2  0  0  0
  -41.7400  -14.2610    2.7640 C   0  0  1  0  0  0
  -41.3860  -15.7230    3.0080 C   0  0  2  0  0  0
  -39.8790  -16.0130    3.1530 C   0  0  2  0  0  0
  -46.1230  -15.3620    6.6690 C   0  0  0  0  0  0
  -43.9700  -16.6250    6.8650 C   0  0  0  0  0  0
  -44.0910  -14.1760    7.3870 C   0  0  0  0  0  0
  -39.6900  -17.3190    3.7900 C   0  0  0  0  0  0
  -38.8800  -19.6570    3.6050 C   0  0  0  0  0  0
  -40.0860  -20.5370    3.2650 C   0  0  0  0  0  0
  -37.9320  -14.8470    3.9070 C   0  0  0  0  0  0
  -40.7820  -22.7880    3.6420 C   0  0  0  0  0  0
  -42.0280  -22.8220    4.1890 C   0  0  0  0  0  0
  -42.8470  -23.8510    3.8600 C   0  0  0  0  0  0
  -42.4720  -24.8330    3.0000 C   0  0  0  0  0  0
  -41.2250  -24.7930    2.4350 C   0  0  0  0  0  0
  -40.3310  -23.7530    2.7430 C   0  0  0  0  0  0
  -42.4610  -21.7450    5.1730 C   0  0  0  0  0  0
  -43.3880  -25.9940    2.6550 C   0  0  0  0  0  0
  -38.9080  -23.6480    2.1840 C   0  0  0  0  0  0
  -38.7132  -18.0368    2.0876 H   0  0  0  0  0  0
  -44.5950  -12.4144    2.5037 H   0  0  0  0  0  0
  -42.9428  -16.4370    1.5822 H   0  0  0  0  0  0
  -41.5953  -12.8946    1.0428 H   0  0  0  0  0  0
  -44.7682  -15.8451    4.3314 H   0  0  0  0  0  0
  -43.2785  -13.2752    5.1144 H   0  0  0  0  0  0
  -43.7936  -14.9265    2.6011 H   0  0  0  0  0  0
  -41.1514  -13.5651    3.3798 H   0  0  0  0  0  0
  -41.8814  -16.0238    3.9429 H   0  0  0  0  0  0
  -39.3264  -16.0337    2.2021 H   0  0  0  0  0  0
  -46.5323  -16.1543    6.0250 H   0  0  0  0  0  0
  -46.5779  -14.3978    6.3981 H   0  0  0  0  0  0
  -46.3487  -15.5913    7.7209 H   0  0  0  0  0  0
  -44.3496  -17.4148    6.2001 H   0  0  0  0  0  0
  -44.2293  -16.8663    7.9064 H   0  0  0  0  0  0
  -42.8766  -16.5564    6.7659 H   0  0  0  0  0  0
  -44.5532  -13.2204    7.0985 H   0  0  0  0  0  0
  -42.9980  -14.0989    7.2897 H   0  0  0  0  0  0
  -44.3508  -14.4088    8.4302 H   0  0  0  0  0  0
  -37.9787  -20.0947    3.1511 H   0  0  0  0  0  0
  -38.7599  -19.6216    4.6979 H   0  0  0  0  0  0
  -40.1317  -20.7700    2.1909 H   0  0  0  0  0  0
  -41.0321  -20.0727    3.5800 H   0  0  0  0  0  0
  -37.5926  -14.0370    4.5693 H   0  0  0  0  0  0
  -37.6468  -14.6165    2.8699 H   0  0  0  0  0  0
  -37.4628  -15.7932    4.2147 H   0  0  0  0  0  0
  -43.8426  -23.8917    4.3017 H   0  0  0  0  0  0
  -40.9227  -25.5758    1.7393 H   0  0  0  0  0  0
  -41.6499  -21.0119    5.2945 H   0  0  0  0  0  0
  -42.6870  -22.2064    6.1456 H   0  0  0  0  0  0
  -43.3590  -21.2382    4.7901 H   0  0  0  0  0  0
  -44.3438  -25.8775    3.1869 H   0  0  0  0  0  0
  -42.9126  -26.9386    2.9578 H   0  0  0  0  0  0
  -43.5711  -26.0068    1.5704 H   0  0  0  0  0  0
  -38.4237  -22.7438    2.5815 H   0  0  0  0  0  0
  -38.9487  -23.5898    1.0863 H   0  0  0  0  0  0
  -38.3302  -24.5350    2.4830 H   0  0  0  0  0  0
  1 18  1  0  0  0
  1 19  1  0  0  0
  1 31  1  0  0  0
  2 11  1  0  0  0
  2 32  1  0  0  0
  3 13  1  0  0  0
  3 33  1  0  0  0
  4 12  1  0  0  0
  4 34  1  0  0  0
  5 18  2  0  0  0
  6 14  1  0  0  0
  6 21  1  0  0  0
  7 20  1  0  0  0
  7 22  1  0  0  0
  8  9  1  0  0  0
  8 15  1  0  0  0
  8 16  1  0  0  0
  8 17  1  0  0  0
  9 10  2  0  0  0
  9 35  1  0  0  0
 10 11  1  0  0  0
 10 36  1  0  0  0
 11 12  1  0  0  0
 11 37  1  0  0  0
 12 13  1  0  0  0
 12 38  1  0  0  0
 13 14  1  0  0  0
 13 39  1  0  0  0
 14 18  1  0  0  0
 14 40  1  0  0  0
 15 41  1  0  0  0
 15 42  1  0  0  0
 15 43  1  0  0  0
 16 44  1  0  0  0
 16 45  1  0  0  0
 16 46  1  0  0  0
 17 47  1  0  0  0
 17 48  1  0  0  0
 17 49  1  0  0  0
 19 20  1  0  0  0
 19 50  1  0  0  0
 19 51  1  0  0  0
 20 52  1  0  0  0
 20 53  1  0  0  0
 21 54  1  0  0  0
 21 55  1  0  0  0
 21 56  1  0  0  0
 22 23  2  0  0  0
 22 27  1  0  0  0
 23 24  1  0  0  0
 23 28  1  0  0  0
 24 25  2  0  0  0
 24 57  1  0  0  0
 25 26  1  0  0  0
 25 29  1  0  0  0
 26 27  2  0  0  0
 26 58  1  0  0  0
 27 30  1  0  0  0
 28 59  1  0  0  0
 28 60  1  0  0  0
 28 61  1  0  0  0
 29 62  1  0  0  0
 29 63  1  0  0  0
 29 64  1  0  0  0
 30 65  1  0  0  0
 30 66  1  0  0  0
 30 67  1  0  0  0
M  END
> <s_m_source_file>
../3pka_ligand.sdf

> <i_m_source_file_index>
1

> <s_epik_input>
W0NIM11DKFtDSDNdKShbQ0gzXSkvW0NIXT1bQ0hdL1tDQEBIXShbT0hdKVtDQEhdKFtPSF0pW0NAQEhdKFtPSF0pW0NAQEhdKE9bQ0gzXSlDKD1PKVtOSF1bQ0gyXVtDSDJdT2MxYyhbQ0gzXSlbY0hdYyhbQ0gzXSlbY0hdYzFbQ0gzXQ==

> <s_epik_cmdline>
J2VwaWtfYXBwJywgJy1pbWFlJywgJ2xpZ2FuZF9wcm8ubWFlJywgJy1vbWFlJywgJ2xpZ2FuZF9wcmVwLm1hZScsICctbXMnLCAnMScsICctcGgnLCAnNycsICctcGh0JywgJzAuNScsICctbnQn

> <r_lp_tautomer_probability>
1

> <r_epik_Ionization_Penalty>
  0.0000

> <r_epik_Ionization_Penalty_Charging>
  0.0000

> <r_epik_Ionization_Penalty_Neutral>
  0.0000

> <r_epik_State_Penalty>
 -0.0000

> <r_epik_Charging_Adjusted_Penalty>
0

> <i_epik_Tot_Q>
0

> <i_epik_Tot_abs_Q>
0

$$$$
