3pkb_ligand
                    3D
 Schrodinger Suite 2020-3.
 48 47  0  0  1  0            999 V2000
   -3.7590  -43.1910    2.8600 N   0  0  0  0  0  0
  -10.7900  -43.9830    2.5320 O   0  0  0  0  0  0
   -0.9380  -43.6850    5.1000 N   0  0  0  0  0  0
   -6.8030  -44.4650    1.8180 O   0  0  0  0  0  0
   -8.7410  -42.7190    1.4440 O   0  0  0  0  0  0
   -4.8490  -43.6130    4.8310 O   0  0  0  0  0  0
   -2.0020  -41.8150    4.4420 O   0  0  0  0  0  0
   -6.5870  -41.5750    4.0780 O   0  0  0  0  0  0
   -9.1620  -46.1980    6.5320 C   0  0  0  0  0  0
   -9.2480  -45.7950    5.0640 C   0  0  0  0  0  0
   -9.6470  -44.6570    4.5690 C   0  0  0  0  0  0
   -9.5110  -44.3110    3.1020 C   0  0  2  0  0  0
   -8.5670  -43.2040    2.7960 C   0  0  1  0  0  0
   -7.1630  -43.6610    2.9970 C   0  0  2  0  0  0
   -6.0890  -42.5740    3.1320 C   0  0  2  0  0  0
   -7.7050  -46.4100    6.8840 C   0  0  0  0  0  0
   -9.7970  -45.1680    7.4940 C   0  0  0  0  0  0
   -9.9060  -47.4800    6.7620 C   0  0  0  0  0  0
   -4.8500  -43.2060    3.6490 C   0  0  0  0  0  0
   -2.5050  -43.8050    3.2500 C   0  0  0  0  0  0
   -1.8150  -42.9930    4.3050 C   0  0  0  0  0  0
   -5.8480  -40.3800    4.0530 C   0  0  0  0  0  0
   -3.8454  -42.6876    1.8858 H   0  0  0  0  0  0
  -11.6366  -44.6762    2.6450 H   0  0  0  0  0  0
   -0.3903  -43.1632    5.8986 H   0  0  0  0  0  0
   -0.7821  -44.7620    4.9392 H   0  0  0  0  0  0
   -7.4342  -45.3145    1.5180 H   0  0  0  0  0  0
   -9.7207  -42.3400    1.1175 H   0  0  0  0  0  0
   -8.9211  -46.6025    4.3924 H   0  0  0  0  0  0
  -10.1042  -43.9018    5.2253 H   0  0  0  0  0  0
   -9.1201  -45.2147    2.6116 H   0  0  0  0  0  0
   -8.7917  -42.3562    3.4599 H   0  0  0  0  0  0
   -7.1858  -44.2229    3.9424 H   0  0  0  0  0  0
   -5.8522  -42.0620    2.1877 H   0  0  0  0  0  0
   -7.1483  -45.4757    6.7193 H   0  0  0  0  0  0
   -7.2859  -47.2036    6.2480 H   0  0  0  0  0  0
   -7.6222  -46.7048    7.9405 H   0  0  0  0  0  0
   -9.2937  -44.1971    7.3758 H   0  0  0  0  0  0
   -9.6831  -45.5162    8.5312 H   0  0  0  0  0  0
  -10.8661  -45.0578    7.2595 H   0  0  0  0  0  0
   -9.5009  -48.2623    6.1032 H   0  0  0  0  0  0
  -10.9728  -47.3297    6.5399 H   0  0  0  0  0  0
   -9.7898  -47.7881    7.8116 H   0  0  0  0  0  0
   -2.6982  -44.8115    3.6494 H   0  0  0  0  0  0
   -1.8447  -43.8789    2.3734 H   0  0  0  0  0  0
   -6.2696  -39.6729    4.7825 H   0  0  0  0  0  0
   -5.8961  -39.9402    3.0459 H   0  0  0  0  0  0
   -4.7998  -40.5916    4.3110 H   0  0  0  0  0  0
  1 19  1  0  0  0
  1 20  1  0  0  0
  1 23  1  0  0  0
  2 12  1  0  0  0
  2 24  1  0  0  0
  3 21  1  0  0  0
  3 25  1  0  0  0
  3 26  1  0  0  0
  4 14  1  0  0  0
  4 27  1  0  0  0
  5 13  1  0  0  0
  5 28  1  0  0  0
  6 19  2  0  0  0
  7 21  2  0  0  0
  8 15  1  0  0  0
  8 22  1  0  0  0
  9 10  1  0  0  0
  9 16  1  0  0  0
  9 17  1  0  0  0
  9 18  1  0  0  0
 10 11  2  0  0  0
 10 29  1  0  0  0
 11 12  1  0  0  0
 11 30  1  0  0  0
 12 13  1  0  0  0
 12 31  1  0  0  0
 13 14  1  0  0  0
 13 32  1  0  0  0
 14 15  1  0  0  0
 14 33  1  0  0  0
 15 19  1  0  0  0
 15 34  1  0  0  0
 16 35  1  0  0  0
 16 36  1  0  0  0
 16 37  1  0  0  0
 17 38  1  0  0  0
 17 39  1  0  0  0
 17 40  1  0  0  0
 18 41  1  0  0  0
 18 42  1  0  0  0
 18 43  1  0  0  0
 20 21  1  0  0  0
 20 44  1  0  0  0
 20 45  1  0  0  0
 22 46  1  0  0  0
 22 47  1  0  0  0
 22 48  1  0  0  0
M  END
> <s_m_source_file>
../3pkb_ligand.sdf

> <i_m_source_file_index>
1

> <s_epik_input>
W05IMl1DKD1PKVtDSDJdW05IXUMoPU8pW0NASF0oT1tDSDNdKVtDQEhdKFtPSF0pW0NAQEhdKFtPSF0pW0NASF0oW09IXSlcW0NIXT1bQ0hdXEMoW0NIM10pKFtDSDNdKVtDSDNd

> <s_epik_cmdline>
J2VwaWtfYXBwJywgJy1pbWFlJywgJ2xpZ2FuZF9wcm8ubWFlJywgJy1vbWFlJywgJ2xpZ2FuZF9wcmVwLm1hZScsICctbXMnLCAnMScsICctcGgnLCAnNycsICctcGh0JywgJzAuNScsICctbnQn

> <r_lp_tautomer_probability>
1

> <r_epik_Ionization_Penalty>
  0.0000

> <r_epik_Ionization_Penalty_Charging>
  0.0000

> <r_epik_Ionization_Penalty_Neutral>
  0.0000

> <r_epik_State_Penalty>
 -0.0000

> <r_epik_Charging_Adjusted_Penalty>
0

> <i_epik_Tot_Q>
0

> <i_epik_Tot_abs_Q>
0

$$$$
