3pkc_ligand
                    3D
 Schrodinger Suite 2020-3.
 68 69  0  0  1  0            999 V2000
  -25.0830   -3.8440  -11.3840 N   0  0  0  0  0  0
  -25.7780    1.8460  -15.3460 O   0  0  0  0  0  0
  -28.3820   -4.7900   -7.8240 N   0  0  0  0  0  0
  -26.5520   -1.7170  -13.5510 O   0  0  0  0  0  0
  -25.1310   -0.7100  -15.4290 O   0  0  0  0  0  0
  -23.9180   -2.1920  -10.4760 O   0  0  0  0  0  0
  -29.4440   -6.6510   -8.4060 O   0  0  0  0  0  0
  -22.9960   -1.3710  -12.9720 O   0  0  0  0  0  0
  -26.0730    2.9020  -10.6020 C   0  0  0  0  0  0
  -26.3270    2.1160  -11.8640 C   0  0  0  0  0  0
  -25.5180    2.0730  -12.9230 C   0  0  0  0  0  0
  -25.9440    1.1720  -14.0330 C   0  0  2  0  0  0
  -25.0070   -0.0460  -14.1040 C   0  0  1  0  0  0
  -25.3130   -1.0540  -13.0110 C   0  0  2  0  0  0
  -24.2340   -2.1010  -12.8330 C   0  0  2  0  0  0
  -26.1070    1.9040   -9.4510 C   0  0  0  0  0  0
  -24.7530    3.6400  -10.6570 C   0  0  0  0  0  0
  -27.1700    3.9890  -10.4350 C   0  0  0  0  0  0
  -24.3860   -2.7260  -11.4770 C   0  0  0  0  0  0
  -25.3740   -4.5240  -10.0790 C   0  0  0  0  0  0
  -26.7650   -4.1970   -9.5720 C   0  0  2  0  0  0
  -26.6100   -2.7520   -9.0200 C   0  0  0  0  0  0
  -27.8380   -2.3620   -8.1560 C   0  0  0  0  0  0
  -28.2710   -3.4800   -7.1400 C   0  0  0  0  0  0
  -27.1060   -5.2210   -8.4360 C   0  0  0  0  0  0
  -29.5220   -5.5490   -7.8380 C   0  0  0  0  0  0
  -30.7420   -5.1500   -6.9530 C   0  0  0  0  0  0
  -32.1430   -5.7080   -7.4480 C   0  0  0  0  0  0
  -31.9070   -4.2190   -7.1850 C   0  0  0  0  0  0
  -21.8450   -2.2930  -13.0610 C   0  0  0  0  0  0
  -25.4561   -4.2758  -12.3244 H   0  0  0  0  0  0
  -26.3434    2.7628  -15.5690 H   0  0  0  0  0  0
  -27.4537   -1.1191  -13.7496 H   0  0  0  0  0  0
  -24.9460   -0.1381  -16.3503 H   0  0  0  0  0  0
  -27.2682    1.5466  -11.8674 H   0  0  0  0  0  0
  -24.6008    2.6801  -12.9395 H   0  0  0  0  0  0
  -26.9992    0.9256  -13.8439 H   0  0  0  0  0  0
  -23.9695    0.2986  -13.9818 H   0  0  0  0  0  0
  -25.4120   -0.5779  -12.0243 H   0  0  0  0  0  0
  -24.2390   -2.9178  -13.5697 H   0  0  0  0  0  0
  -25.3207    1.1488   -9.5972 H   0  0  0  0  0  0
  -27.0894    1.4099   -9.4230 H   0  0  0  0  0  0
  -25.9354    2.4329   -8.5019 H   0  0  0  0  0  0
  -23.9330    2.9164  -10.7755 H   0  0  0  0  0  0
  -24.6104    4.2063   -9.7248 H   0  0  0  0  0  0
  -24.7561    4.3337  -11.5107 H   0  0  0  0  0  0
  -28.1584    3.5084  -10.3887 H   0  0  0  0  0  0
  -27.1370    4.6779  -11.2920 H   0  0  0  0  0  0
  -26.9914    4.5505   -9.5061 H   0  0  0  0  0  0
  -25.3011   -5.6138  -10.2092 H   0  0  0  0  0  0
  -24.6449   -4.1954   -9.3237 H   0  0  0  0  0  0
  -27.5494   -4.2582  -10.3408 H   0  0  0  0  0  0
  -25.7042   -2.6920   -8.3988 H   0  0  0  0  0  0
  -26.5265   -2.0459   -9.8593 H   0  0  0  0  0  0
  -27.6038   -1.4596   -7.5721 H   0  0  0  0  0  0
  -28.6986   -2.1617   -8.8112 H   0  0  0  0  0  0
  -29.2447   -3.2096   -6.7055 H   0  0  0  0  0  0
  -27.5185   -3.5464   -6.3405 H   0  0  0  0  0  0
  -26.3157   -5.2262   -7.6709 H   0  0  0  0  0  0
  -27.2216   -6.2333   -8.8506 H   0  0  0  0  0  0
  -30.0370   -5.1364   -6.1087 H   0  0  0  0  0  0
  -32.0159   -6.2083   -8.4194 H   0  0  0  0  0  0
  -32.5314   -6.4281   -6.7127 H   0  0  0  0  0  0
  -32.1536   -3.6995   -6.2473 H   0  0  0  0  0  0
  -31.6381   -3.4797   -7.9539 H   0  0  0  0  0  0
  -20.9170   -1.7119  -13.1661 H   0  0  0  0  0  0
  -21.9677   -2.9492  -13.9352 H   0  0  0  0  0  0
  -21.7935   -2.9043  -12.1480 H   0  0  0  0  0  0
  1 19  1  0  0  0
  1 20  1  0  0  0
  1 31  1  0  0  0
  2 12  1  0  0  0
  2 32  1  0  0  0
  3 24  1  0  0  0
  3 25  1  0  0  0
  3 26  1  0  0  0
  4 14  1  0  0  0
  4 33  1  0  0  0
  5 13  1  0  0  0
  5 34  1  0  0  0
  6 19  2  0  0  0
  7 26  2  0  0  0
  8 15  1  0  0  0
  8 30  1  0  0  0
  9 10  1  0  0  0
  9 16  1  0  0  0
  9 17  1  0  0  0
  9 18  1  0  0  0
 10 11  2  0  0  0
 10 35  1  0  0  0
 11 12  1  0  0  0
 11 36  1  0  0  0
 12 13  1  0  0  0
 12 37  1  0  0  0
 13 14  1  0  0  0
 13 38  1  0  0  0
 14 15  1  0  0  0
 14 39  1  0  0  0
 15 19  1  0  0  0
 15 40  1  0  0  0
 16 41  1  0  0  0
 16 42  1  0  0  0
 16 43  1  0  0  0
 17 44  1  0  0  0
 17 45  1  0  0  0
 17 46  1  0  0  0
 18 47  1  0  0  0
 18 48  1  0  0  0
 18 49  1  0  0  0
 20 21  1  0  0  0
 20 50  1  0  0  0
 20 51  1  0  0  0
 21 22  1  0  0  0
 21 25  1  0  0  0
 21 52  1  0  0  0
 22 23  1  0  0  0
 22 53  1  0  0  0
 22 54  1  0  0  0
 23 24  1  0  0  0
 23 55  1  0  0  0
 23 56  1  0  0  0
 24 57  1  0  0  0
 24 58  1  0  0  0
 25 59  1  0  0  0
 25 60  1  0  0  0
 26 27  1  0  0  0
 27 28  1  0  0  0
 27 29  1  0  0  0
 27 61  1  0  0  0
 28 29  1  0  0  0
 28 62  1  0  0  0
 28 63  1  0  0  0
 29 64  1  0  0  0
 29 65  1  0  0  0
 30 66  1  0  0  0
 30 67  1  0  0  0
 30 68  1  0  0  0
M  END
> <s_m_source_file>
../3pkc_ligand.sdf

> <i_m_source_file_index>
1

> <s_epik_input>
W0NIM11DKFtDSDNdKShbQ0gzXSkvW0NIXT1bQ0hdL1tDQEBIXShbT0hdKVtDQEhdKFtPSF0pW0NAQEhdKFtPSF0pW0NAQEhdKE9bQ0gzXSlDKD1PKVtOSF1bQ0gyXVtDQEBIXShbQ0gyXTEpW0NIMl1bQ0gyXVtDSDJdTjFDKD1PKVtDSF0yW0NIMl1bQ0gyXTI=

> <s_epik_cmdline>
J2VwaWtfYXBwJywgJy1pbWFlJywgJ2xpZ2FuZF9wcm8ubWFlJywgJy1vbWFlJywgJ2xpZ2FuZF9wcmVwLm1hZScsICctbXMnLCAnMScsICctcGgnLCAnNycsICctcGh0JywgJzAuNScsICctbnQn

> <r_lp_tautomer_probability>
1

> <r_epik_Ionization_Penalty>
  0.0000

> <r_epik_Ionization_Penalty_Charging>
  0.0000

> <r_epik_Ionization_Penalty_Neutral>
  0.0000

> <r_epik_State_Penalty>
 -0.0000

> <r_epik_Charging_Adjusted_Penalty>
0

> <i_epik_Tot_Q>
0

> <i_epik_Tot_abs_Q>
0

$$$$
