3pkd_ligand
                    3D
 Schrodinger Suite 2020-3.
 58 59  0  0  1  0            999 V2000
   25.0240   -3.7110   11.1940 N   0  0  0  0  0  0
   25.5920    1.9260   15.2210 O   0  0  0  0  0  0
   26.3730   -1.6360   13.3520 O   0  0  0  0  0  0
   24.9880   -0.6680   15.3290 O   0  0  0  0  0  0
   23.9870   -1.8900   10.2950 O   0  0  0  0  0  0
   22.8750   -1.2990   12.6910 O   0  0  0  0  0  0
   25.8490    3.0370   10.4920 C   0  0  0  0  0  0
   26.1540    2.2770   11.7630 C   0  0  0  0  0  0
   25.2870    2.1310   12.7760 C   0  0  0  0  0  0
   25.7650    1.2360   13.9130 C   0  0  2  0  0  0
   24.8190    0.0280   14.0460 C   0  0  1  0  0  0
   25.1640   -0.9640   12.9270 C   0  0  2  0  0  0
   24.0740   -2.0460   12.6550 C   0  0  2  0  0  0
   24.4960    3.7400   10.5120 C   0  0  0  0  0  0
   25.8560    2.0120    9.3610 C   0  0  0  0  0  0
   26.9550    4.0740   10.2270 C   0  0  0  0  0  0
   24.3420   -2.5670   11.2900 C   0  0  0  0  0  0
   25.4710   -4.2520    9.9480 C   0  0  0  0  0  0
   26.1630   -5.6050   10.2410 C   0  0  0  0  0  0
   27.2130   -5.7040    9.2000 C   0  0  0  0  0  0
   27.4420   -4.4880    8.6190 C   0  0  0  0  0  0
   26.5020   -3.4370    9.1840 C   0  0  0  0  0  0
   27.9430   -6.8940    8.8750 C   0  0  0  0  0  0
   28.9530   -6.7410    7.8840 C   0  0  0  0  0  0
   29.1240   -5.4810    7.2720 C   0  0  0  0  0  0
   28.3910   -4.3080    7.5930 C   0  0  0  0  0  0
   21.7350   -2.1770   12.7850 C   0  0  0  0  0  0
   25.2387   -4.2423   12.1330 H   0  0  0  0  0  0
   26.1519    2.8484   15.4345 H   0  0  0  0  0  0
   27.2712   -1.0499   13.5963 H   0  0  0  0  0  0
   24.7914   -0.1377   16.2725 H   0  0  0  0  0  0
   27.1566    1.8292   11.8283 H   0  0  0  0  0  0
   24.3126    2.6405   12.7438 H   0  0  0  0  0  0
   26.8177    0.9875   13.7126 H   0  0  0  0  0  0
   23.7742    0.3715   14.0238 H   0  0  0  0  0  0
   25.3297   -0.4052   11.9941 H   0  0  0  0  0  0
   23.9705   -2.8978   13.3433 H   0  0  0  0  0  0
   23.7023    3.0023   10.7012 H   0  0  0  0  0  0
   24.3210    4.2261    9.5409 H   0  0  0  0  0  0
   24.4888    4.4988   11.3084 H   0  0  0  0  0  0
   25.0690    1.2643    9.5389 H   0  0  0  0  0  0
   26.8352    1.5122    9.3252 H   0  0  0  0  0  0
   25.6688    2.5208    8.4039 H   0  0  0  0  0  0
   26.9603    4.8192   11.0361 H   0  0  0  0  0  0
   26.7643    4.5762    9.2671 H   0  0  0  0  0  0
   27.9308    3.5676   10.1884 H   0  0  0  0  0  0
   24.5308   -4.2542    9.3770 H   0  0  0  0  0  0
   26.5863   -5.5881   11.2561 H   0  0  0  0  0  0
   25.4259   -6.4180   10.1646 H   0  0  0  0  0  0
   26.0001   -2.8581    8.3947 H   0  0  0  0  0  0
   27.0114   -2.7495    9.8752 H   0  0  0  0  0  0
   27.7384   -7.8513    9.3544 H   0  0  0  0  0  0
   29.5844   -7.5836    7.6022 H   0  0  0  0  0  0
   29.8794   -5.4018    6.4902 H   0  0  0  0  0  0
   28.5483   -3.3536    7.0906 H   0  0  0  0  0  0
   20.8125   -1.5785   12.8118 H   0  0  0  0  0  0
   21.8094   -2.7774   13.7037 H   0  0  0  0  0  0
   21.7135   -2.8449   11.9112 H   0  0  0  0  0  0
  1 17  1  0  0  0
  1 18  1  0  0  0
  1 28  1  0  0  0
  2 10  1  0  0  0
  2 29  1  0  0  0
  3 12  1  0  0  0
  3 30  1  0  0  0
  4 11  1  0  0  0
  4 31  1  0  0  0
  5 17  2  0  0  0
  6 13  1  0  0  0
  6 27  1  0  0  0
  7  8  1  0  0  0
  7 14  1  0  0  0
  7 15  1  0  0  0
  7 16  1  0  0  0
  8  9  2  0  0  0
  8 32  1  0  0  0
  9 10  1  0  0  0
  9 33  1  0  0  0
 10 11  1  0  0  0
 10 34  1  0  0  0
 11 12  1  0  0  0
 11 35  1  0  0  0
 12 13  1  0  0  0
 12 36  1  0  0  0
 13 17  1  0  0  0
 13 37  1  0  0  0
 14 38  1  0  0  0
 14 39  1  0  0  0
 14 40  1  0  0  0
 15 41  1  0  0  0
 15 42  1  0  0  0
 15 43  1  0  0  0
 16 44  1  0  0  0
 16 45  1  0  0  0
 16 46  1  0  0  0
 18 19  1  0  0  0
 18 22  1  0  0  0
 18 47  1  0  0  0
 19 20  1  0  0  0
 19 48  1  0  0  0
 19 49  1  0  0  0
 20 21  2  0  0  0
 20 23  1  0  0  0
 21 22  1  0  0  0
 21 26  1  0  0  0
 22 50  1  0  0  0
 22 51  1  0  0  0
 23 24  2  0  0  0
 23 52  1  0  0  0
 24 25  1  0  0  0
 24 53  1  0  0  0
 25 26  2  0  0  0
 25 54  1  0  0  0
 26 55  1  0  0  0
 27 56  1  0  0  0
 27 57  1  0  0  0
 27 58  1  0  0  0
M  END
> <s_m_source_file>
../3pkd_ligand.sdf

> <i_m_source_file_index>
1

> <s_epik_input>
W2NIXTFbY0hdW2NIXVtjSF1jKGMxMilbQ0gyXVtDSF0oW0NIMl0yKVtOSF1DKD1PKVtDQEhdKE9bQ0gzXSlbQ0BIXShbT0hdKVtDQEBIXShbT0hdKVtDQEhdKFtPSF0pXFtDSF09W0NIXVxDKFtDSDNdKShbQ0gzXSlbQ0gzXQ==

> <s_epik_cmdline>
J2VwaWtfYXBwJywgJy1pbWFlJywgJ2xpZ2FuZF9wcm8ubWFlJywgJy1vbWFlJywgJ2xpZ2FuZF9wcmVwLm1hZScsICctbXMnLCAnMScsICctcGgnLCAnNycsICctcGh0JywgJzAuNScsICctbnQn

> <r_lp_tautomer_probability>
1

> <r_epik_Ionization_Penalty>
  0.0000

> <r_epik_Ionization_Penalty_Charging>
  0.0000

> <r_epik_Ionization_Penalty_Neutral>
  0.0000

> <r_epik_State_Penalty>
 -0.0000

> <r_epik_Charging_Adjusted_Penalty>
0

> <i_epik_Tot_Q>
0

> <i_epik_Tot_abs_Q>
0

$$$$
