3pke_ligand
                    3D
 Schrodinger Suite 2020-3.
 58 59  0  0  1  0            999 V2000
  -35.1810  -24.7210   -2.9600 N   0  0  0  0  0  0
  -32.5650  -31.2720   -2.2300 O   0  0  0  0  0  0
  -34.8600  -27.8360   -1.7110 O   0  0  0  0  0  0
  -32.3800  -28.8000   -1.2600 O   0  0  0  0  0  0
  -34.6470  -25.7590   -4.9530 O   0  0  0  0  0  0
  -32.1960  -26.4540   -3.8290 O   0  0  0  0  0  0
  -35.2370  -30.8870   -6.3490 C   0  0  0  0  0  0
  -34.9010  -30.6450   -4.8830 C   0  0  0  0  0  0
  -33.6830  -30.5560   -4.3170 C   0  0  0  0  0  0
  -33.4350  -30.2740   -2.8300 C   0  0  2  0  0  0
  -32.8730  -28.8420   -2.6450 C   0  0  1  0  0  0
  -33.9470  -27.7790   -2.9110 C   0  0  2  0  0  0
  -33.3790  -26.3670   -2.9990 C   0  0  2  0  0  0
  -36.1730  -32.0940   -6.5590 C   0  0  0  0  0  0
  -33.9840  -31.0560   -7.1960 C   0  0  0  0  0  0
  -35.9650  -29.6370   -6.8130 C   0  0  0  0  0  0
  -34.4480  -25.5710   -3.7330 C   0  0  0  0  0  0
  -36.3020  -23.9940   -3.5460 C   0  0  0  0  0  0
  -37.1740  -23.4980   -2.3930 C   0  0  0  0  0  0
  -37.6740  -22.2150   -3.0080 C   0  0  0  0  0  0
  -36.9340  -21.8500   -4.1160 C   0  0  0  0  0  0
  -35.8060  -22.8260   -4.4180 C   0  0  0  0  0  0
  -38.7640  -21.4700   -2.5490 C   0  0  0  0  0  0
  -39.0270  -20.2850   -3.2590 C   0  0  0  0  0  0
  -38.2810  -19.8690   -4.3860 C   0  0  0  0  0  0
  -37.1970  -20.6620   -4.8290 C   0  0  0  0  0  0
  -31.5070  -25.1740   -3.8350 C   0  0  0  0  0  0
  -34.9302  -24.5820   -1.8980 H   0  0  0  0  0  0
  -32.8332  -32.3376   -2.2810 H   0  0  0  0  0  0
  -35.3802  -28.7721   -1.4596 H   0  0  0  0  0  0
  -31.6058  -29.5083   -0.9301 H   0  0  0  0  0  0
  -35.8042  -30.5386   -4.2642 H   0  0  0  0  0  0
  -32.7801  -30.6889   -4.9311 H   0  0  0  0  0  0
  -34.3755  -30.3947   -2.2724 H   0  0  0  0  0  0
  -32.0414  -28.6041   -3.3246 H   0  0  0  0  0  0
  -34.4526  -27.9815   -3.8667 H   0  0  0  0  0  0
  -33.0847  -25.9112   -2.0421 H   0  0  0  0  0  0
  -35.6660  -33.0128   -6.2292 H   0  0  0  0  0  0
  -36.4284  -32.1787   -7.6256 H   0  0  0  0  0  0
  -37.0923  -31.9516   -5.9720 H   0  0  0  0  0  0
  -33.4426  -31.9578   -6.8740 H   0  0  0  0  0  0
  -33.3362  -30.1756   -7.0721 H   0  0  0  0  0  0
  -34.2675  -31.1567   -8.2541 H   0  0  0  0  0  0
  -36.8752  -29.4981   -6.2111 H   0  0  0  0  0  0
  -36.2391  -29.7445   -7.8729 H   0  0  0  0  0  0
  -35.3078  -28.7634   -6.6910 H   0  0  0  0  0  0
  -36.8564  -24.6913   -4.1912 H   0  0  0  0  0  0
  -37.9604  -24.2380   -2.1834 H   0  0  0  0  0  0
  -36.5522  -23.3598   -1.4962 H   0  0  0  0  0  0
  -34.8115  -22.5072   -4.0727 H   0  0  0  0  0  0
  -35.7428  -23.1523   -5.4666 H   0  0  0  0  0  0
  -39.3687  -21.7859   -1.6989 H   0  0  0  0  0  0
  -39.8495  -19.6537   -2.9228 H   0  0  0  0  0  0
  -38.5386  -18.9472   -4.9076 H   0  0  0  0  0  0
  -36.5904  -20.3674   -5.6854 H   0  0  0  0  0  0
  -30.6090  -25.2439   -4.4664 H   0  0  0  0  0  0
  -31.2136  -24.9107   -2.8081 H   0  0  0  0  0  0
  -32.1771  -24.3988   -4.2350 H   0  0  0  0  0  0
  1 17  1  0  0  0
  1 18  1  0  0  0
  1 28  1  0  0  0
  2 10  1  0  0  0
  2 29  1  0  0  0
  3 12  1  0  0  0
  3 30  1  0  0  0
  4 11  1  0  0  0
  4 31  1  0  0  0
  5 17  2  0  0  0
  6 13  1  0  0  0
  6 27  1  0  0  0
  7  8  1  0  0  0
  7 14  1  0  0  0
  7 15  1  0  0  0
  7 16  1  0  0  0
  8  9  2  0  0  0
  8 32  1  0  0  0
  9 10  1  0  0  0
  9 33  1  0  0  0
 10 11  1  0  0  0
 10 34  1  0  0  0
 11 12  1  0  0  0
 11 35  1  0  0  0
 12 13  1  0  0  0
 12 36  1  0  0  0
 13 17  1  0  0  0
 13 37  1  0  0  0
 14 38  1  0  0  0
 14 39  1  0  0  0
 14 40  1  0  0  0
 15 41  1  0  0  0
 15 42  1  0  0  0
 15 43  1  0  0  0
 16 44  1  0  0  0
 16 45  1  0  0  0
 16 46  1  0  0  0
 18 19  1  0  0  0
 18 22  1  0  0  0
 18 47  1  0  0  0
 19 20  1  0  0  0
 19 48  1  0  0  0
 19 49  1  0  0  0
 20 21  2  0  0  0
 20 23  1  0  0  0
 21 22  1  0  0  0
 21 26  1  0  0  0
 22 50  1  0  0  0
 22 51  1  0  0  0
 23 24  2  0  0  0
 23 52  1  0  0  0
 24 25  1  0  0  0
 24 53  1  0  0  0
 25 26  2  0  0  0
 25 54  1  0  0  0
 26 55  1  0  0  0
 27 56  1  0  0  0
 27 57  1  0  0  0
 27 58  1  0  0  0
M  END
> <s_m_source_file>
../3pke_ligand.sdf

> <i_m_source_file_index>
1

> <s_epik_input>
W2NIXTFbY0hdW2NIXVtjSF1jKGMxMilbQ0gyXVtDSF0oW0NIMl0yKVtOSF1DKD1PKVtDQEhdKE9bQ0gzXSlbQ0BIXShbT0hdKVtDQEBIXShbT0hdKVtDQEhdKFtPSF0pXFtDSF09W0NIXVxDKFtDSDNdKShbQ0gzXSlbQ0gzXQ==

> <s_epik_cmdline>
J2VwaWtfYXBwJywgJy1pbWFlJywgJ2xpZ2FuZF9wcm8ubWFlJywgJy1vbWFlJywgJ2xpZ2FuZF9wcmVwLm1hZScsICctbXMnLCAnMScsICctcGgnLCAnNycsICctcGh0JywgJzAuNScsICctbnQn

> <r_lp_tautomer_probability>
1

> <r_epik_Ionization_Penalty>
  0.0000

> <r_epik_Ionization_Penalty_Charging>
  0.0000

> <r_epik_Ionization_Penalty_Neutral>
  0.0000

> <r_epik_State_Penalty>
 -0.0000

> <r_epik_Charging_Adjusted_Penalty>
0

> <i_epik_Tot_Q>
0

> <i_epik_Tot_abs_Q>
0

$$$$
