3pkn_ligand
                    3D
 Schrodinger Suite 2020-3.
188190  0  0  1  0            999 V2000
   -0.6840   14.1740    7.1180 N   0  3  0  0  0  0
   -1.9700   13.5440    7.5450 C   0  0  2  0  0  0
   -3.1290   13.9790    6.6600 C   0  0  0  0  0  0
   -3.3310   15.1710    6.4360 O   0  0  0  0  0  0
   -2.2870   13.9000    9.0020 C   0  0  0  0  0  0
   -1.5380   13.2220   10.1520 C   0  0  0  0  0  0
   -1.4680   11.7020    9.9470 C   0  0  0  0  0  0
   -0.1500   13.8380   10.3650 C   0  0  0  0  0  0
   -3.9100   13.0110    6.1930 N   0  0  0  0  0  0
   -4.9890   13.2760    5.2480 C   0  0  2  0  0  0
   -6.3770   13.2460    5.8890 C   0  0  0  0  0  0
   -6.8870   12.1600    6.1890 O   0  0  0  0  0  0
   -4.9060   12.2870    4.0790 C   0  0  0  0  0  0
   -6.1720   12.2480    3.2410 C   0  0  0  0  0  0
   -6.7630   13.2830    2.9250 O   0  0  0  0  0  0
   -6.5870   11.0420    2.8630 N   0  0  0  0  0  0
   -7.0030   14.4330    6.0880 N   0  0  0  0  0  0
   -8.3200   14.4930    6.7150 C   0  0  2  0  0  0
   -9.4260   13.8510    5.8790 C   0  0  0  0  0  0
  -10.5400   13.6790    6.3750 O   0  0  0  0  0  0
   -8.5690   16.0010    6.8850 C   0  0  0  0  0  0
   -7.7060   16.6480    5.8560 C   0  0  0  0  0  0
   -6.4980   15.7760    5.7470 C   0  0  0  0  0  0
   -9.1230   13.4910    4.6330 N   0  0  0  0  0  0
  -10.0860   12.7870    3.7910 C   0  0  2  0  0  0
  -10.0360   11.2590    3.9070 C   0  0  0  0  0  0
  -10.7540   10.5630    3.1920 O   0  0  0  0  0  0
   -9.9360   13.2190    2.3250 C   0  0  0  0  0  0
  -10.1680   14.7030    2.1300 C   0  0  0  0  0  0
  -11.2770   15.2040    2.3300 O   0  0  0  0  0  0
   -9.1190   15.4190    1.7350 N   0  0  0  0  0  0
   -9.1940   10.7380    4.7940 N   0  0  0  0  0  0
   -9.0480    9.2920    4.9570 C   0  0  2  0  0  0
  -10.3720    8.5760    5.2450 C   0  0  0  0  0  0
  -11.2630    9.1340    5.8870 O   0  0  0  0  0  0
   -8.0320    8.9820    6.0570 C   0  0  0  0  0  0
  -10.4810    7.3350    4.7740 N   0  0  0  0  0  0
  -11.6340    6.4770    5.0590 C   0  0  2  0  0  0
  -11.7720    6.1550    6.5560 C   0  0  0  0  0  0
  -10.7960    5.7960    7.2120 O   0  0  0  0  0  0
  -11.5140    5.1790    4.2580 C   0  0  0  0  0  0
  -12.8390    4.5770    3.8200 C   0  0  0  0  0  0
  -13.3230    3.5480    4.8200 C   0  0  0  0  0  0
  -13.0590    2.1400    4.3170 C   0  0  0  0  0  0
  -14.1910    1.6960    3.4670 N   0  3  0  0  0  0
  -12.9930    6.2600    7.0740 N   0  0  0  0  0  0
  -13.2920    5.9600    8.4880 C   0  0  2  0  0  0
  -13.1760    4.4690    8.8320 C   0  0  0  0  0  0
  -13.7720    3.6060    8.1590 O   0  0  0  0  0  0
  -14.7140    6.4560    8.8680 C   0  0  0  0  0  0
  -15.0780    6.0670   10.3080 C   0  0  0  0  0  0
  -14.8140    7.9750    8.6750 C   0  0  0  0  0  0
  -12.4120    4.1800    9.8850 N   0  0  0  0  0  0
  -12.2570    2.8240   10.4220 C   0  0  2  0  0  0
  -13.5230    2.3330   11.1420 C   0  0  0  0  0  0
  -14.1370    3.0710   11.9320 O   0  0  0  0  0  0
  -11.0770    2.7750   11.4090 C   0  0  0  0  0  0
  -10.9020    1.4240   12.0470 C   0  0  0  0  0  0
  -11.2970    1.0400   13.3030 C   0  0  0  0  0  0
  -10.2990    0.2780   11.4500 C   0  0  0  0  0  0
  -10.9740   -0.2870   13.5180 N   0  0  0  0  0  0
  -10.3680   -0.7750   12.3900 C   0  0  0  0  0  0
   -9.7260    0.0290   10.1970 C   0  0  0  0  0  0
   -9.8580   -2.0410   12.1250 C   0  0  0  0  0  0
   -9.2230   -1.2200    9.9400 C   0  0  0  0  0  0
   -9.2950   -2.2450   10.8970 C   0  0  0  0  0  0
  -13.9010    1.0850   10.8720 N   0  0  0  0  0  0
  -14.9770    0.4210   11.6190 C   0  0  2  0  0  0
  -14.4100   -0.8090   12.3010 C   0  0  0  0  0  0
  -13.8340   -1.6520   11.6420 O   0  0  0  0  0  0
  -16.1220    0.0250   10.6870 C   0  0  0  0  0  0
  -16.7900    1.2030    9.9990 C   0  0  0  0  0  0
  -18.0010    0.7990    9.1970 C   0  0  0  0  0  0
  -18.8660    0.0610    9.6730 O   0  0  0  0  0  0
  -18.0800    1.2910    7.9680 N   0  0  0  0  0  0
  -14.5660   -0.9100   13.6160 N   0  0  0  0  0  0
  -13.8790   -1.9490   14.3920 C   0  0  2  0  0  0
  -14.6650   -3.2590   14.4590 C   0  0  0  0  0  0
  -15.8960   -3.2530   14.4330 O   0  0  0  0  0  0
  -13.5690   -1.4480   15.8150 C   0  0  0  0  0  0
  -12.8890   -2.4840   16.7470 C   0  0  0  0  0  0
  -11.3690   -2.4250   16.7310 C   0  0  0  0  0  0
  -10.8090   -1.8000   15.8210 O   0  0  0  0  0  0
  -10.7260   -3.0000   17.6440 O   0  0  0  0  0  0
  -13.9470   -4.3780   14.5540 N   0  0  0  0  0  0
  -14.5740   -5.6740   14.8060 C   0  0  2  0  0  0
  -14.2010   -6.2330   16.1820 C   0  0  0  0  0  0
  -13.0480   -6.1530   16.6130 O   0  0  0  0  0  0
  -14.2630   -6.7000   13.6850 C   0  0  2  0  0  0
  -15.3340   -6.6400   12.5910 C   0  0  0  0  0  0
  -14.2410   -8.1170   14.2380 C   0  0  0  0  0  0
  -15.2280   -5.4420   11.6630 C   0  0  0  0  0  0
  -15.0880   -6.7846   16.8867 O   0  0  0  0  0  0
   -0.4746   13.9071    6.0716 H   0  0  0  0  0  0
    0.1327   13.8113    7.7594 H   0  0  0  0  0  0
   -0.7635   15.2674    7.2087 H   0  0  0  0  0  0
   -1.8250   12.4592    7.4343 H   0  0  0  0  0  0
   -2.0996   14.9713    9.1668 H   0  0  0  0  0  0
   -3.3431   13.6758    9.2128 H   0  0  0  0  0  0
   -2.1102   13.4044   11.0736 H   0  0  0  0  0  0
   -2.4830   11.3049    9.7987 H   0  0  0  0  0  0
   -1.0167   11.2329   10.8337 H   0  0  0  0  0  0
   -0.8541   11.4793    9.0618 H   0  0  0  0  0  0
   -0.2488   14.9243   10.5070 H   0  0  0  0  0  0
    0.4785   13.6390    9.4844 H   0  0  0  0  0  0
    0.3160   13.3926   11.2563 H   0  0  0  0  0  0
   -3.7229   11.9842    6.5404 H   0  0  0  0  0  0
   -4.8074   14.3079    4.9129 H   0  0  0  0  0  0
   -4.0760   12.5721    3.4158 H   0  0  0  0  0  0
   -4.7326   11.2729    4.4683 H   0  0  0  0  0  0
   -6.0266   10.1464    3.1695 H   0  0  0  0  0  0
   -7.4905   10.9403    2.2439 H   0  0  0  0  0  0
   -8.2926   13.9113    7.6482 H   0  0  0  0  0  0
   -9.6345   16.2178    6.7183 H   0  0  0  0  0  0
   -8.2877   16.3066    7.9036 H   0  0  0  0  0  0
   -8.2509   16.7023    4.9020 H   0  0  0  0  0  0
   -7.4412   17.6636    6.1854 H   0  0  0  0  0  0
   -5.7110   16.0637    6.4597 H   0  0  0  0  0  0
   -6.0835   15.7641    4.7282 H   0  0  0  0  0  0
   -8.1243   13.7342    4.2412 H   0  0  0  0  0  0
  -11.0491   13.1116    4.2117 H   0  0  0  0  0  0
   -8.9187   12.9870    1.9767 H   0  0  0  0  0  0
  -10.6675   12.6782    1.7067 H   0  0  0  0  0  0
   -8.1488   14.9278    1.5692 H   0  0  0  0  0  0
   -9.2216   16.5023    1.5741 H   0  0  0  0  0  0
   -8.5986   11.4243    5.4141 H   0  0  0  0  0  0
   -8.6841    8.9553    3.9751 H   0  0  0  0  0  0
   -7.0867    9.5008    5.8397 H   0  0  0  0  0  0
   -7.8542    7.8972    6.0968 H   0  0  0  0  0  0
   -8.4243    9.3250    7.0257 H   0  0  0  0  0  0
   -9.6584    6.9605    4.1471 H   0  0  0  0  0  0
  -12.5086    7.0642    4.7423 H   0  0  0  0  0  0
  -10.9320    5.3651    3.3433 H   0  0  0  0  0  0
  -11.0054    4.4176    4.8676 H   0  0  0  0  0  0
  -13.5941    5.3727    3.7384 H   0  0  0  0  0  0
  -12.7144    4.0882    2.8425 H   0  0  0  0  0  0
  -12.7949    3.6878    5.7747 H   0  0  0  0  0  0
  -14.4047    3.6707    4.9780 H   0  0  0  0  0  0
  -12.1314    2.1298    3.7258 H   0  0  0  0  0  0
  -12.9552    1.4580    5.1738 H   0  0  0  0  0  0
  -13.9983    0.6759    3.1034 H   0  0  0  0  0  0
  -14.2950    2.3774    2.6097 H   0  0  0  0  0  0
  -15.1189    1.7056    4.0577 H   0  0  0  0  0  0
  -13.7978    6.5864    6.3989 H   0  0  0  0  0  0
  -12.5034    6.5042    9.0283 H   0  0  0  0  0  0
  -15.4462    5.9714    8.2054 H   0  0  0  0  0  0
  -14.9998    4.9759   10.4240 H   0  0  0  0  0  0
  -16.1082    6.3859   10.5247 H   0  0  0  0  0  0
  -14.3867    6.5605   11.0070 H   0  0  0  0  0  0
  -14.5495    8.2311    7.6384 H   0  0  0  0  0  0
  -14.1213    8.4787    9.3653 H   0  0  0  0  0  0
  -15.8428    8.3041    8.8829 H   0  0  0  0  0  0
  -11.8824    5.0217   10.3552 H   0  0  0  0  0  0
  -12.0738    2.2035    9.5324 H   0  0  0  0  0  0
  -10.1446    3.0177   10.8781 H   0  0  0  0  0  0
  -11.2416    3.5064   12.2139 H   0  0  0  0  0  0
  -11.7933    1.6869   14.0264 H   0  0  0  0  0  0
   -9.6808    0.8128    9.4409 H   0  0  0  0  0  0
   -9.9054   -2.8383   12.8668 H   0  0  0  0  0  0
   -8.7585   -1.4212    8.9747 H   0  0  0  0  0  0
   -8.8916   -3.2280   10.6541 H   0  0  0  0  0  0
  -13.3819    0.5502   10.0630 H   0  0  0  0  0  0
  -15.3491    1.1398   12.3639 H   0  0  0  0  0  0
  -15.7395   -0.6391    9.8979 H   0  0  0  0  0  0
  -16.8989   -0.4994   11.2628 H   0  0  0  0  0  0
  -17.1151    1.9329   10.7550 H   0  0  0  0  0  0
  -16.0753    1.6800    9.3123 H   0  0  0  0  0  0
  -17.2834    1.9461    7.5855 H   0  0  0  0  0  0
  -18.9421    1.0440    7.3311 H   0  0  0  0  0  0
  -15.2279   -0.1923   14.1228 H   0  0  0  0  0  0
  -12.9546   -2.1318   13.8245 H   0  0  0  0  0  0
  -12.8904   -0.5841   15.7598 H   0  0  0  0  0  0
  -14.5044   -1.1484   16.3102 H   0  0  0  0  0  0
  -13.2101   -2.3101   17.7846 H   0  0  0  0  0  0
  -13.1781   -3.4997   16.4390 H   0  0  0  0  0  0
   -9.6265   -2.9669   17.6471 H   0  0  0  0  0  0
  -12.8554   -4.3085   14.4375 H   0  0  0  0  0  0
  -15.6482   -5.4372   14.8035 H   0  0  0  0  0  0
  -13.2756   -6.4597   13.2639 H   0  0  0  0  0  0
  -15.2639   -7.5380   11.9596 H   0  0  0  0  0  0
  -16.3302   -6.5950   13.0552 H   0  0  0  0  0  0
  -13.4790   -8.1905   15.0279 H   0  0  0  0  0  0
  -14.0000   -8.8225   13.4292 H   0  0  0  0  0  0
  -15.2281   -8.3625   14.6567 H   0  0  0  0  0  0
  -16.0339   -5.4848   10.9155 H   0  0  0  0  0  0
  -14.2535   -5.4584   11.1530 H   0  0  0  0  0  0
  -15.3198   -4.5154   12.2486 H   0  0  0  0  0  0
  -14.8310   -7.1895   17.8766 H   0  0  0  0  0  0
  1  2  1  0  0  0
  1 94  1  0  0  0
  1 95  1  0  0  0
  1 96  1  0  0  0
  2  3  1  0  0  0
  2  5  1  0  0  0
  2 97  1  0  0  0
  3  4  2  0  0  0
  3  9  1  0  0  0
  5  6  1  0  0  0
  5 98  1  0  0  0
  5 99  1  0  0  0
  6  7  1  0  0  0
  6  8  1  0  0  0
  6100  1  0  0  0
  7101  1  0  0  0
  7102  1  0  0  0
  7103  1  0  0  0
  8104  1  0  0  0
  8105  1  0  0  0
  8106  1  0  0  0
  9 10  1  0  0  0
  9107  1  0  0  0
 10 11  1  0  0  0
 10 13  1  0  0  0
 10108  1  0  0  0
 11 12  2  0  0  0
 11 17  1  0  0  0
 13 14  1  0  0  0
 13109  1  0  0  0
 13110  1  0  0  0
 14 15  2  0  0  0
 14 16  1  0  0  0
 16111  1  0  0  0
 16112  1  0  0  0
 17 18  1  0  0  0
 17 23  1  0  0  0
 18 19  1  0  0  0
 18 21  1  0  0  0
 18113  1  0  0  0
 19 20  2  0  0  0
 19 24  1  0  0  0
 21 22  1  0  0  0
 21114  1  0  0  0
 21115  1  0  0  0
 22 23  1  0  0  0
 22116  1  0  0  0
 22117  1  0  0  0
 23118  1  0  0  0
 23119  1  0  0  0
 24 25  1  0  0  0
 24120  1  0  0  0
 25 26  1  0  0  0
 25 28  1  0  0  0
 25121  1  0  0  0
 26 27  2  0  0  0
 26 32  1  0  0  0
 28 29  1  0  0  0
 28122  1  0  0  0
 28123  1  0  0  0
 29 30  2  0  0  0
 29 31  1  0  0  0
 31124  1  0  0  0
 31125  1  0  0  0
 32 33  1  0  0  0
 32126  1  0  0  0
 33 34  1  0  0  0
 33 36  1  0  0  0
 33127  1  0  0  0
 34 35  2  0  0  0
 34 37  1  0  0  0
 36128  1  0  0  0
 36129  1  0  0  0
 36130  1  0  0  0
 37 38  1  0  0  0
 37131  1  0  0  0
 38 39  1  0  0  0
 38 41  1  0  0  0
 38132  1  0  0  0
 39 40  2  0  0  0
 39 46  1  0  0  0
 41 42  1  0  0  0
 41133  1  0  0  0
 41134  1  0  0  0
 42 43  1  0  0  0
 42135  1  0  0  0
 42136  1  0  0  0
 43 44  1  0  0  0
 43137  1  0  0  0
 43138  1  0  0  0
 44 45  1  0  0  0
 44139  1  0  0  0
 44140  1  0  0  0
 45141  1  0  0  0
 45142  1  0  0  0
 45143  1  0  0  0
 46 47  1  0  0  0
 46144  1  0  0  0
 47 48  1  0  0  0
 47 50  1  0  0  0
 47145  1  0  0  0
 48 49  2  0  0  0
 48 53  1  0  0  0
 50 51  1  0  0  0
 50 52  1  0  0  0
 50146  1  0  0  0
 51147  1  0  0  0
 51148  1  0  0  0
 51149  1  0  0  0
 52150  1  0  0  0
 52151  1  0  0  0
 52152  1  0  0  0
 53 54  1  0  0  0
 53153  1  0  0  0
 54 55  1  0  0  0
 54 57  1  0  0  0
 54154  1  0  0  0
 55 56  2  0  0  0
 55 67  1  0  0  0
 57 58  1  0  0  0
 57155  1  0  0  0
 57156  1  0  0  0
 58 59  2  0  0  0
 58 60  1  0  0  0
 59 61  1  0  0  0
 59157  1  0  0  0
 60 62  2  0  0  0
 60 63  1  0  0  0
 61 62  1  0  0  0
 62 64  1  0  0  0
 63 65  2  0  0  0
 63158  1  0  0  0
 64 66  2  0  0  0
 64159  1  0  0  0
 65 66  1  0  0  0
 65160  1  0  0  0
 66161  1  0  0  0
 67 68  1  0  0  0
 67162  1  0  0  0
 68 69  1  0  0  0
 68 71  1  0  0  0
 68163  1  0  0  0
 69 70  2  0  0  0
 69 76  1  0  0  0
 71 72  1  0  0  0
 71164  1  0  0  0
 71165  1  0  0  0
 72 73  1  0  0  0
 72166  1  0  0  0
 72167  1  0  0  0
 73 74  2  0  0  0
 73 75  1  0  0  0
 75168  1  0  0  0
 75169  1  0  0  0
 76 77  1  0  0  0
 76170  1  0  0  0
 77 78  1  0  0  0
 77 80  1  0  0  0
 77171  1  0  0  0
 78 79  2  0  0  0
 78 85  1  0  0  0
 80 81  1  0  0  0
 80172  1  0  0  0
 80173  1  0  0  0
 81 82  1  0  0  0
 81174  1  0  0  0
 81175  1  0  0  0
 82 83  2  0  0  0
 82 84  1  0  0  0
 84176  1  0  0  0
 85 86  1  0  0  0
 85177  1  0  0  0
 86 87  1  0  0  0
 86 89  1  0  0  0
 86178  1  0  0  0
 87 88  2  0  0  0
 87 93  1  0  0  0
 89 90  1  0  0  0
 89 91  1  0  0  0
 89179  1  0  0  0
 90 92  1  0  0  0
 90180  1  0  0  0
 90181  1  0  0  0
 91182  1  0  0  0
 91183  1  0  0  0
 91184  1  0  0  0
 92185  1  0  0  0
 92186  1  0  0  0
 92187  1  0  0  0
 93188  1  0  0  0
M  CHG  2   1   1  45   1
M  END
> <s_m_source_file>
../3pkn_ligand.sdf

> <i_m_source_file_index>
1

> <s_epik_input>
W0NIM11bQ0hdKFtDSDNdKVtDSDJdW0NASF0oW05IMytdKUMoPU8pW05IXVtDQEBIXShbQ0gyXUMoPU8pW05IMl0pQyg9TylOMVtDQEBIXShbQ0gyXVtDSDJdW0NIMl0xKUMoPU8pW05IXVtDQEBIXShbQ0gyXUMoPU8pW05IMl0pQyg9TylbTkhdW0NAQEhdKFtDSDNdKUMoPU8pW05IXVtDQEBIXShbQ0gyXVtDSDJdW0NIMl1bQ0gyXVtOSDMrXSlDKD1PKVtOSF1bQ0BASF0oW0NIXShbQ0gzXSlbQ0gzXSlDKD1PKVtOSF1bQ0BASF0oW0NIMl1jMltjSF1bbkhdYyhjMjMpW2NIXVtjSF1bY0hdW2NIXTMpQyg9TylbTkhdW0NAQEhdKFtDSDJdW0NIMl1DKD1PKVtOSDJdKUMoPU8pW05IXVtDQEBIXShbQ0gyXVtDSDJdQyg9TylbT0hdKUMoPU8pW05IXVtDQEhdKEMoPU8pW09IXSlbQ0BASF0oW0NIM10pW0NIMl1bQ0gzXQ==

> <s_epik_cmdline>
J2VwaWtfYXBwJywgJy1pbWFlJywgJ2xpZ2FuZF9wcm8ubWFlJywgJy1vbWFlJywgJ2xpZ2FuZF9wcmVwLm1hZScsICctbXMnLCAnMScsICctcGgnLCAnNycsICctcGh0JywgJzAuNScsICctbnQn

> <s_epik_pKa_notes>
Molecule size exceeds maximum supported for generating protonation states

$$$$
