3plu_ligand
                    3D
 Schrodinger Suite 2020-3.
277277  0  0  1  0            999 V2000
   11.2690   -8.9950    1.1150 N   0  3  0  0  0  0
   10.8180  -10.4010    0.9500 C   0  0  2  0  0  0
   11.1800  -10.8810   -0.4430 C   0  0  0  0  0  0
   11.0060  -10.1510   -1.4140 O   0  0  0  0  0  0
    9.3060  -10.4930    1.1660 C   0  0  0  0  0  0
    8.7040  -11.9000    1.1920 C   0  0  0  0  0  0
    9.1650  -12.6560    2.4200 C   0  0  0  0  0  0
    7.1930  -11.8640    1.1300 C   0  0  0  0  0  0
   11.6800  -12.1090   -0.5440 N   0  0  0  0  0  0
   12.0630  -12.6680   -1.8450 C   0  0  2  0  0  0
   10.8890  -12.6930   -2.8210 C   0  0  0  0  0  0
    9.7250  -12.7350   -2.4080 O   0  0  0  0  0  0
   12.6190  -14.0870   -1.6910 C   0  0  0  0  0  0
   11.6050  -14.9880   -1.2840 O   0  0  0  0  0  0
   11.2040  -12.6800   -4.1170 N   0  0  0  0  0  0
   10.1820  -12.8250   -5.1500 C   0  0  2  0  0  0
    9.4210  -14.1440   -4.9570 C   0  0  0  0  0  0
    8.1990  -14.1870   -5.0820 O   0  0  0  0  0  0
   10.7800  -12.7660   -6.5890 C   0  0  2  0  0  0
   11.6520  -11.5190   -6.7720 C   0  0  0  0  0  0
    9.6650  -12.8100   -7.6430 C   0  0  0  0  0  0
   12.3720  -11.4440   -8.1210 C   0  0  0  0  0  0
   10.1500  -15.2110   -4.6330 N   0  0  0  0  0  0
    9.5330  -16.5270   -4.4220 C   0  0  2  0  0  0
    8.5360  -16.5760   -3.2590 C   0  0  0  0  0  0
    7.4300  -17.1020   -3.4160 O   0  0  0  0  0  0
   10.5770  -17.6540   -4.3090 C   0  0  0  0  0  0
   11.9720  -17.2310   -3.8690 C   0  0  0  0  0  0
   12.7830  -16.6120   -4.9950 C   0  0  0  0  0  0
   13.3260  -15.5080   -4.7910 O   0  0  0  0  0  0
   12.8690  -17.2190   -6.0870 O   0  0  0  0  0  0
    8.9050  -16.0180   -2.1060 N   0  0  0  0  0  0
    7.9800  -16.0000   -0.9750 C   0  0  2  0  0  0
    6.8060  -15.0510   -1.2260 C   0  0  0  0  0  0
    5.6900  -15.3180   -0.7800 O   0  0  0  0  0  0
    8.6930  -15.6800    0.3420 C   0  0  0  0  0  0
    7.8780  -16.0350    1.6010 C   0  0  0  0  0  0
    7.6580  -17.5350    1.7910 C   0  0  0  0  0  0
    8.5270  -18.3330    1.3830 O   0  0  0  0  0  0
    6.6160  -17.9050    2.3690 O   0  0  0  0  0  0
    7.0620  -13.9550   -1.9480 N   0  0  0  0  0  0
    5.9950  -13.0500   -2.3800 C   0  0  2  0  0  0
    5.0040  -13.7960   -3.2700 C   0  0  0  0  0  0
    3.7890  -13.6930   -3.0810 O   0  0  0  0  0  0
    6.5460  -11.8030   -3.1260 C   0  0  2  0  0  0
    7.4450  -11.0860   -2.2720 O   0  0  0  0  0  0
    5.4150  -10.8630   -3.5460 C   0  0  0  0  0  0
    5.5300  -14.5610   -4.2250 N   0  0  0  0  0  0
    4.6850  -15.3530   -5.1150 C   0  0  2  0  0  0
    3.9140  -16.4610   -4.3900 C   0  0  0  0  0  0
    2.8140  -16.8110   -4.8080 O   0  0  0  0  0  0
    5.4870  -15.9010   -6.3010 C   0  0  0  0  0  0
    5.5630  -14.9150   -7.4630 C   0  0  0  0  0  0
    4.6870  -14.0600   -7.6310 O   0  0  0  0  0  0
    6.6060  -15.0380   -8.2770 N   0  0  0  0  0  0
    4.4760  -16.9840   -3.2980 N   0  0  0  0  0  0
    3.7650  -17.9470   -2.4460 C   0  0  2  0  0  0
    2.5350  -17.3010   -1.8130 C   0  0  0  0  0  0
    1.4540  -17.8910   -1.7840 O   0  0  0  0  0  0
    4.6820  -18.5090   -1.3530 C   0  0  0  0  0  0
    5.6020  -19.6340   -1.8050 C   0  0  0  0  0  0
    4.9280  -21.0030   -1.7570 C   0  0  0  0  0  0
    5.2350  -21.7850   -0.8290 O   0  0  0  0  0  0
    4.0900  -21.2980   -2.6360 O   0  0  0  0  0  0
    2.7170  -16.0790   -1.3160 N   0  0  0  0  0  0
    1.6280  -15.2920   -0.7450 C   0  0  2  0  0  0
    0.5810  -14.9520   -1.8120 C   0  0  0  0  0  0
   -0.6190  -15.1020   -1.5740 O   0  0  0  0  0  0
    2.1640  -14.0080   -0.0420 C   0  0  2  0  0  0
    2.9320  -14.3860    1.2310 C   0  0  0  0  0  0
    1.0280  -13.0320    0.2780 C   0  0  0  0  0  0
    3.7980  -13.2700    1.8030 C   0  0  0  0  0  0
    1.0410  -14.5160   -2.9860 N   0  0  0  0  0  0
    0.1480  -14.1920   -4.1070 C   0  0  2  0  0  0
   -0.7020  -15.3870   -4.5450 C   0  0  0  0  0  0
   -1.9090  -15.2470   -4.7520 O   0  0  0  0  0  0
    0.9390  -13.6420   -5.3000 C   0  0  0  0  0  0
    1.4950  -12.2320   -5.0910 C   0  0  0  0  0  0
    2.2910  -11.7500   -6.3020 C   0  0  0  0  0  0
    1.4340  -11.3960   -7.4360 N   0  0  0  0  0  0
    0.9650  -10.1750   -7.6890 C   0  0  0  0  0  0
    0.1890   -9.9670   -8.7430 N   0  0  0  0  0  0
    1.2600   -9.1540   -6.8900 N   0  0  0  0  0  0
   -0.0670  -16.5510   -4.6730 N   0  0  0  0  0  0
   -0.7540  -17.7750   -5.0940 C   0  0  2  0  0  0
   -1.8640  -18.1660   -4.1180 C   0  0  0  0  0  0
   -2.9670  -18.5220   -4.5370 O   0  0  0  0  0  0
    0.2460  -18.9220   -5.2670 C   0  0  0  0  0  0
   -1.5680  -18.0730   -2.8220 N   0  0  0  0  0  0
   -2.5270  -18.3940   -1.7600 C   0  0  2  0  0  0
   -3.7240  -17.4410   -1.7280 C   0  0  0  0  0  0
   -4.8180  -17.8240   -1.3060 O   0  0  0  0  0  0
   -1.8300  -18.4010   -0.3980 C   0  0  0  0  0  0
   -3.5050  -16.2040   -2.1730 N   0  0  0  0  0  0
   -4.5590  -15.1900   -2.2330 C   0  0  2  0  0  0
   -5.3800  -15.2860   -3.5200 C   0  0  0  0  0  0
   -6.3590  -14.5540   -3.6990 O   0  0  0  0  0  0
   -3.9630  -13.7870   -2.0880 C   0  0  0  0  0  0
   -3.4010  -13.3900   -0.7200 C   0  0  0  0  0  0
   -2.5000  -12.1690   -0.8610 C   0  0  0  0  0  0
   -4.5080  -13.1330    0.3030 C   0  0  0  0  0  0
   -4.9770  -16.1950   -4.4060 N   0  0  0  0  0  0
   -5.6620  -16.4090   -5.6790 C   0  0  0  0  0  0
   -5.2690  -15.3930   -6.7310 C   0  0  0  0  0  0
   -6.0190  -15.1430   -7.6760 O   0  0  0  0  0  0
   -4.0850  -14.8060   -6.5640 N   0  0  0  0  0  0
   -3.5850  -13.7840   -7.4740 C   0  0  2  0  0  0
   -2.6540  -14.3770   -8.5250 C   0  0  0  0  0  0
   -2.0870  -15.4560   -8.3310 O   0  0  0  0  0  0
   -2.8370  -12.6960   -6.6930 C   0  0  0  0  0  0
   -3.7040  -11.8730   -5.7500 C   0  0  0  0  0  0
   -2.7530  -10.6780   -4.7820 S   0  0  0  0  0  0
   -2.1560   -9.5730   -6.0600 C   0  0  0  0  0  0
   -2.5020  -13.6560   -9.6340 N   0  0  0  0  0  0
   -1.5280  -13.9990  -10.6660 C   0  0  2  0  0  0
   -0.1110  -13.8460  -10.1100 C   0  0  0  0  0  0
    0.1310  -12.9740   -9.2690 O   0  0  0  0  0  0
   -1.7150  -13.1010  -11.8900 C   0  0  0  0  0  0
    0.8280  -14.7000  -10.5600 N   0  0  0  0  0  0
    2.2070  -14.5820  -10.0890 C   0  0  2  0  0  0
    2.9400  -13.3970  -10.7160 C   0  0  0  0  0  0
    2.5270  -12.8940  -11.7650 O   0  0  0  0  0  0
    2.8430  -15.8990  -10.5440 C   0  0  0  0  0  0
    2.0730  -16.2880  -11.7490 C   0  0  0  0  0  0
    0.6640  -15.8160  -11.5130 C   0  0  0  0  0  0
    4.0110  -12.9550  -10.0630 N   0  0  0  0  0  0
    4.9030  -11.9520  -10.6320 C   0  0  2  0  0  0
    5.8630  -12.6330  -11.6080 C   0  0  0  0  0  0
    6.5780  -13.5690  -11.2430 O   0  0  0  0  0  0
    5.7040  -11.2070   -9.5410 C   0  0  2  0  0  0
    4.7710  -10.3620   -8.6670 C   0  0  0  0  0  0
    6.7750  -10.3340  -10.1770 C   0  0  0  0  0  0
    5.3870   -9.9260   -7.3440 C   0  0  0  0  0  0
    5.9430  -12.2650  -12.7810 O   0  0  0  0  0  0
   12.3563   -8.9379    0.9582 H   0  0  0  0  0  0
   11.0263   -8.6489    2.1305 H   0  0  0  0  0  0
   10.7583   -8.3573    0.3784 H   0  0  0  0  0  0
   11.3354  -11.0183    1.6991 H   0  0  0  0  0  0
    9.0453  -10.0368    2.1324 H   0  0  0  0  0  0
    8.7868   -9.9590    0.3565 H   0  0  0  0  0  0
    9.0549  -12.4381    0.2991 H   0  0  0  0  0  0
   10.2645  -12.6724    2.4492 H   0  0  0  0  0  0
    8.7838  -13.6871    2.3803 H   0  0  0  0  0  0
    8.7816  -12.1578    3.3227 H   0  0  0  0  0  0
    6.8759  -11.3118    0.2331 H   0  0  0  0  0  0
    6.8011  -11.3624    2.0271 H   0  0  0  0  0  0
    6.8033  -12.8917    1.0848 H   0  0  0  0  0  0
   11.8046  -12.7080    0.3702 H   0  0  0  0  0  0
   12.8388  -11.9821   -2.2162 H   0  0  0  0  0  0
   13.0274  -14.4273   -2.6540 H   0  0  0  0  0  0
   13.4166  -14.0881   -0.9335 H   0  0  0  0  0  0
   11.8434  -16.0505   -1.1284 H   0  0  0  0  0  0
   12.2595  -12.5568   -4.4011 H   0  0  0  0  0  0
    9.5182  -11.9634   -4.9854 H   0  0  0  0  0  0
   11.4250  -13.6434   -6.7439 H   0  0  0  0  0  0
   11.0254  -10.6185   -6.6920 H   0  0  0  0  0  0
   12.4277  -11.4963   -5.9924 H   0  0  0  0  0  0
    9.0533  -13.7117   -7.4922 H   0  0  0  0  0  0
   10.1113  -12.8335   -8.6481 H   0  0  0  0  0  0
    9.0314  -11.9163   -7.5440 H   0  0  0  0  0  0
   12.9713  -10.5227   -8.1660 H   0  0  0  0  0  0
   11.6299  -11.4388   -8.9329 H   0  0  0  0  0  0
   13.0322  -12.3167   -8.2333 H   0  0  0  0  0  0
   11.2379  -15.0898   -4.5242 H   0  0  0  0  0  0
    8.9546  -16.6489   -5.3497 H   0  0  0  0  0  0
   10.2367  -18.3964   -3.5721 H   0  0  0  0  0  0
   10.7001  -18.1393   -5.2884 H   0  0  0  0  0  0
   11.8923  -16.4858   -3.0638 H   0  0  0  0  0  0
   12.5230  -18.1096   -3.5022 H   0  0  0  0  0  0
   13.4520  -16.7854   -6.9129 H   0  0  0  0  0  0
    9.9052  -15.5713   -2.0057 H   0  0  0  0  0  0
    7.5979  -17.0301   -0.9215 H   0  0  0  0  0  0
    9.6348  -16.2457    0.3959 H   0  0  0  0  0  0
    8.9092  -14.6025    0.3895 H   0  0  0  0  0  0
    8.4039  -15.6666    2.4941 H   0  0  0  0  0  0
    6.8854  -15.5648    1.5400 H   0  0  0  0  0  0
    8.3834  -19.4159    1.5123 H   0  0  0  0  0  0
    8.1070  -13.7411   -2.2167 H   0  0  0  0  0  0
    5.5080  -12.7362   -1.4449 H   0  0  0  0  0  0
    7.1302  -12.1089   -4.0064 H   0  0  0  0  0  0
    8.3317  -11.5899   -1.8599 H   0  0  0  0  0  0
    4.7160  -11.4011   -4.2031 H   0  0  0  0  0  0
    5.8356  -10.0013   -4.0851 H   0  0  0  0  0  0
    4.8801  -10.5105   -2.6518 H   0  0  0  0  0  0
    6.6240  -14.5889   -4.3362 H   0  0  0  0  0  0
    3.9455  -14.6236   -5.4772 H   0  0  0  0  0  0
    6.5149  -16.1221   -5.9777 H   0  0  0  0  0  0
    5.0126  -16.8223   -6.6701 H   0  0  0  0  0  0
    7.3622  -15.8143   -8.0886 H   0  0  0  0  0  0
    6.7133  -14.3635   -9.1393 H   0  0  0  0  0  0
    5.5004  -16.6752   -3.0426 H   0  0  0  0  0  0
    3.4569  -18.7576   -3.1227 H   0  0  0  0  0  0
    5.3289  -17.7066   -0.9688 H   0  0  0  0  0  0
    4.0702  -18.9114   -0.5322 H   0  0  0  0  0  0
    5.9213  -19.4523   -2.8418 H   0  0  0  0  0  0
    6.4853  -19.6707   -1.1505 H   0  0  0  0  0  0
    4.7657  -22.7780   -0.7687 H   0  0  0  0  0  0
    3.7362  -15.6663   -1.3474 H   0  0  0  0  0  0
    1.1678  -15.9584   -0.0006 H   0  0  0  0  0  0
    2.8535  -13.4848   -0.7208 H   0  0  0  0  0  0
    2.2188  -14.6721    2.0181 H   0  0  0  0  0  0
    3.6016  -15.2323    1.0176 H   0  0  0  0  0  0
    0.4928  -12.7760   -0.6483 H   0  0  0  0  0  0
    1.4452  -12.1177    0.7251 H   0  0  0  0  0  0
    0.3301  -13.5014    0.9870 H   0  0  0  0  0  0
    4.3080  -13.6294    2.7090 H   0  0  0  0  0  0
    3.1642  -12.4075    2.0567 H   0  0  0  0  0  0
    4.5469  -12.9677    1.0562 H   0  0  0  0  0  0
    2.1292  -14.4017   -3.0989 H   0  0  0  0  0  0
   -0.5185  -13.4176   -3.6994 H   0  0  0  0  0  0
    1.7971  -14.2989   -5.5052 H   0  0  0  0  0  0
    0.2873  -13.6028   -6.1853 H   0  0  0  0  0  0
    0.6638  -11.5312   -4.9234 H   0  0  0  0  0  0
    2.1613  -12.2266   -4.2158 H   0  0  0  0  0  0
    2.8724  -10.8576   -6.0271 H   0  0  0  0  0  0
    2.9750  -12.5459   -6.6317 H   0  0  0  0  0  0
    1.1308  -12.1682   -8.1584 H   0  0  0  0  0  0
   -0.0638  -10.8018   -9.4132 H   0  0  0  0  0  0
    1.9029   -9.3111   -6.0113 H   0  0  0  0  0  0
    0.8612   -8.1522   -7.1076 H   0  0  0  0  0  0
    1.0100  -16.5736   -4.4504 H   0  0  0  0  0  0
   -1.2109  -17.5264   -6.0632 H   0  0  0  0  0  0
    1.0338  -18.6183   -5.9720 H   0  0  0  0  0  0
   -0.2758  -19.8073   -5.6593 H   0  0  0  0  0  0
    0.6982  -19.1641   -4.2939 H   0  0  0  0  0  0
   -0.5526  -17.7383   -2.5634 H   0  0  0  0  0  0
   -2.8908  -19.3982   -2.0231 H   0  0  0  0  0  0
   -0.9713  -19.0878   -0.4291 H   0  0  0  0  0  0
   -2.5384  -18.7343    0.3747 H   0  0  0  0  0  0
   -1.4792  -17.3859   -0.1605 H   0  0  0  0  0  0
   -2.4851  -15.9573   -2.5030 H   0  0  0  0  0  0
   -5.2131  -15.4212   -1.3793 H   0  0  0  0  0  0
   -3.1237  -13.6709   -2.7895 H   0  0  0  0  0  0
   -4.7347  -13.0358   -2.3120 H   0  0  0  0  0  0
   -2.8028  -14.2320   -0.3415 H   0  0  0  0  0  0
   -1.7130  -12.3775   -1.6007 H   0  0  0  0  0  0
   -2.0384  -11.9398    0.1108 H   0  0  0  0  0  0
   -3.0983  -11.3084   -1.1948 H   0  0  0  0  0  0
   -5.1440  -14.0265    0.3872 H   0  0  0  0  0  0
   -5.1181  -12.2781   -0.0240 H   0  0  0  0  0  0
   -4.0582  -12.9095    1.2816 H   0  0  0  0  0  0
   -4.0926  -16.7966   -4.1494 H   0  0  0  0  0  0
   -5.4133  -17.4083   -6.0657 H   0  0  0  0  0  0
   -6.7490  -16.3345   -5.5276 H   0  0  0  0  0  0
   -3.4783  -15.1187   -5.7013 H   0  0  0  0  0  0
   -4.4848  -13.3818   -7.9624 H   0  0  0  0  0  0
   -2.0529  -13.1604   -6.0770 H   0  0  0  0  0  0
   -2.3777  -11.9881   -7.3987 H   0  0  0  0  0  0
   -4.4506  -11.3135   -6.3327 H   0  0  0  0  0  0
   -4.2167  -12.5432   -5.0444 H   0  0  0  0  0  0
   -1.5479   -8.7784   -5.6030 H   0  0  0  0  0  0
   -3.0117   -9.1237   -6.5853 H   0  0  0  0  0  0
   -1.5419  -10.1386   -6.7763 H   0  0  0  0  0  0
   -3.1453  -12.7722   -9.7568 H   0  0  0  0  0  0
   -1.7204  -15.0469  -10.9396 H   0  0  0  0  0  0
   -2.7367  -13.2203  -12.2796 H   0  0  0  0  0  0
   -0.9906  -13.3853  -12.6674 H   0  0  0  0  0  0
   -1.5522  -12.0516  -11.6032 H   0  0  0  0  0  0
    2.2140  -14.4072   -9.0030 H   0  0  0  0  0  0
    3.9060  -15.7329  -10.7730 H   0  0  0  0  0  0
    2.7532  -16.6460   -9.7416 H   0  0  0  0  0  0
    2.5102  -15.8049  -12.6353 H   0  0  0  0  0  0
    2.1103  -17.3806  -11.8711 H   0  0  0  0  0  0
    0.0324  -16.5947  -11.0606 H   0  0  0  0  0  0
    0.1874  -15.4458  -12.4327 H   0  0  0  0  0  0
    4.2149  -13.3694   -9.0647 H   0  0  0  0  0  0
    4.2441  -11.2400  -11.1506 H   0  0  0  0  0  0
    7.2635  -14.0485  -11.9573 H   0  0  0  0  0  0
    6.2056  -11.9431   -8.8956 H   0  0  0  0  0  0
    4.4879   -9.4481   -9.2099 H   0  0  0  0  0  0
    3.8671  -10.9417   -8.4286 H   0  0  0  0  0  0
    7.4340  -10.9571  -10.7995 H   0  0  0  0  0  0
    7.3678   -9.8478   -9.3882 H   0  0  0  0  0  0
    6.2977   -9.5658  -10.8032 H   0  0  0  0  0  0
    4.6571   -9.3273   -6.7794 H   0  0  0  0  0  0
    6.2848   -9.3211   -7.5392 H   0  0  0  0  0  0
    5.6639  -10.8147   -6.7580 H   0  0  0  0  0  0
  1  2  1  0  0  0
  1135  1  0  0  0
  1136  1  0  0  0
  1137  1  0  0  0
  2  3  1  0  0  0
  2  5  1  0  0  0
  2138  1  0  0  0
  3  4  2  0  0  0
  3  9  1  0  0  0
  5  6  1  0  0  0
  5139  1  0  0  0
  5140  1  0  0  0
  6  7  1  0  0  0
  6  8  1  0  0  0
  6141  1  0  0  0
  7142  1  0  0  0
  7143  1  0  0  0
  7144  1  0  0  0
  8145  1  0  0  0
  8146  1  0  0  0
  8147  1  0  0  0
  9 10  1  0  0  0
  9148  1  0  0  0
 10 11  1  0  0  0
 10 13  1  0  0  0
 10149  1  0  0  0
 11 12  2  0  0  0
 11 15  1  0  0  0
 13 14  1  0  0  0
 13150  1  0  0  0
 13151  1  0  0  0
 14152  1  0  0  0
 15 16  1  0  0  0
 15153  1  0  0  0
 16 17  1  0  0  0
 16 19  1  0  0  0
 16154  1  0  0  0
 17 18  2  0  0  0
 17 23  1  0  0  0
 19 20  1  0  0  0
 19 21  1  0  0  0
 19155  1  0  0  0
 20 22  1  0  0  0
 20156  1  0  0  0
 20157  1  0  0  0
 21158  1  0  0  0
 21159  1  0  0  0
 21160  1  0  0  0
 22161  1  0  0  0
 22162  1  0  0  0
 22163  1  0  0  0
 23 24  1  0  0  0
 23164  1  0  0  0
 24 25  1  0  0  0
 24 27  1  0  0  0
 24165  1  0  0  0
 25 26  2  0  0  0
 25 32  1  0  0  0
 27 28  1  0  0  0
 27166  1  0  0  0
 27167  1  0  0  0
 28 29  1  0  0  0
 28168  1  0  0  0
 28169  1  0  0  0
 29 30  2  0  0  0
 29 31  1  0  0  0
 31170  1  0  0  0
 32 33  1  0  0  0
 32171  1  0  0  0
 33 34  1  0  0  0
 33 36  1  0  0  0
 33172  1  0  0  0
 34 35  2  0  0  0
 34 41  1  0  0  0
 36 37  1  0  0  0
 36173  1  0  0  0
 36174  1  0  0  0
 37 38  1  0  0  0
 37175  1  0  0  0
 37176  1  0  0  0
 38 39  1  0  0  0
 38 40  2  0  0  0
 39177  1  0  0  0
 41 42  1  0  0  0
 41178  1  0  0  0
 42 43  1  0  0  0
 42 45  1  0  0  0
 42179  1  0  0  0
 43 44  2  0  0  0
 43 48  1  0  0  0
 45 46  1  0  0  0
 45 47  1  0  0  0
 45180  1  0  0  0
 46181  1  0  0  0
 47182  1  0  0  0
 47183  1  0  0  0
 47184  1  0  0  0
 48 49  1  0  0  0
 48185  1  0  0  0
 49 50  1  0  0  0
 49 52  1  0  0  0
 49186  1  0  0  0
 50 51  2  0  0  0
 50 56  1  0  0  0
 52 53  1  0  0  0
 52187  1  0  0  0
 52188  1  0  0  0
 53 54  2  0  0  0
 53 55  1  0  0  0
 55189  1  0  0  0
 55190  1  0  0  0
 56 57  1  0  0  0
 56191  1  0  0  0
 57 58  1  0  0  0
 57 60  1  0  0  0
 57192  1  0  0  0
 58 59  2  0  0  0
 58 65  1  0  0  0
 60 61  1  0  0  0
 60193  1  0  0  0
 60194  1  0  0  0
 61 62  1  0  0  0
 61195  1  0  0  0
 61196  1  0  0  0
 62 63  1  0  0  0
 62 64  2  0  0  0
 63197  1  0  0  0
 65 66  1  0  0  0
 65198  1  0  0  0
 66 67  1  0  0  0
 66 69  1  0  0  0
 66199  1  0  0  0
 67 68  2  0  0  0
 67 73  1  0  0  0
 69 70  1  0  0  0
 69 71  1  0  0  0
 69200  1  0  0  0
 70 72  1  0  0  0
 70201  1  0  0  0
 70202  1  0  0  0
 71203  1  0  0  0
 71204  1  0  0  0
 71205  1  0  0  0
 72206  1  0  0  0
 72207  1  0  0  0
 72208  1  0  0  0
 73 74  1  0  0  0
 73209  1  0  0  0
 74 75  1  0  0  0
 74 77  1  0  0  0
 74210  1  0  0  0
 75 76  2  0  0  0
 75 84  1  0  0  0
 77 78  1  0  0  0
 77211  1  0  0  0
 77212  1  0  0  0
 78 79  1  0  0  0
 78213  1  0  0  0
 78214  1  0  0  0
 79 80  1  0  0  0
 79215  1  0  0  0
 79216  1  0  0  0
 80 81  1  0  0  0
 80217  1  0  0  0
 81 82  2  0  0  0
 81 83  1  0  0  0
 82218  1  0  0  0
 83219  1  0  0  0
 83220  1  0  0  0
 84 85  1  0  0  0
 84221  1  0  0  0
 85 86  1  0  0  0
 85 88  1  0  0  0
 85222  1  0  0  0
 86 87  2  0  0  0
 86 89  1  0  0  0
 88223  1  0  0  0
 88224  1  0  0  0
 88225  1  0  0  0
 89 90  1  0  0  0
 89226  1  0  0  0
 90 91  1  0  0  0
 90 93  1  0  0  0
 90227  1  0  0  0
 91 92  2  0  0  0
 91 94  1  0  0  0
 93228  1  0  0  0
 93229  1  0  0  0
 93230  1  0  0  0
 94 95  1  0  0  0
 94231  1  0  0  0
 95 96  1  0  0  0
 95 98  1  0  0  0
 95232  1  0  0  0
 96 97  2  0  0  0
 96102  1  0  0  0
 98 99  1  0  0  0
 98233  1  0  0  0
 98234  1  0  0  0
 99100  1  0  0  0
 99101  1  0  0  0
 99235  1  0  0  0
100236  1  0  0  0
100237  1  0  0  0
100238  1  0  0  0
101239  1  0  0  0
101240  1  0  0  0
101241  1  0  0  0
102103  1  0  0  0
102242  1  0  0  0
103104  1  0  0  0
103243  1  0  0  0
103244  1  0  0  0
104105  2  0  0  0
104106  1  0  0  0
106107  1  0  0  0
106245  1  0  0  0
107108  1  0  0  0
107110  1  0  0  0
107246  1  0  0  0
108109  2  0  0  0
108114  1  0  0  0
110111  1  0  0  0
110247  1  0  0  0
110248  1  0  0  0
111112  1  0  0  0
111249  1  0  0  0
111250  1  0  0  0
112113  1  0  0  0
113251  1  0  0  0
113252  1  0  0  0
113253  1  0  0  0
114115  1  0  0  0
114254  1  0  0  0
115116  1  0  0  0
115118  1  0  0  0
115255  1  0  0  0
116117  2  0  0  0
116119  1  0  0  0
118256  1  0  0  0
118257  1  0  0  0
118258  1  0  0  0
119120  1  0  0  0
119125  1  0  0  0
120121  1  0  0  0
120123  1  0  0  0
120259  1  0  0  0
121122  2  0  0  0
121126  1  0  0  0
123124  1  0  0  0
123260  1  0  0  0
123261  1  0  0  0
124125  1  0  0  0
124262  1  0  0  0
124263  1  0  0  0
125264  1  0  0  0
125265  1  0  0  0
126127  1  0  0  0
126266  1  0  0  0
127128  1  0  0  0
127130  1  0  0  0
127267  1  0  0  0
128129  1  0  0  0
128134  2  0  0  0
129268  1  0  0  0
130131  1  0  0  0
130132  1  0  0  0
130269  1  0  0  0
131133  1  0  0  0
131270  1  0  0  0
131271  1  0  0  0
132272  1  0  0  0
132273  1  0  0  0
132274  1  0  0  0
133275  1  0  0  0
133276  1  0  0  0
133277  1  0  0  0
M  CHG  1   1   1
M  END
> <s_m_source_file>
../3plu_ligand.sdf

> <i_m_source_file_index>
1

> <s_epik_input>
W0NIM11bQ0hdKFtDSDNdKVtDSDJdW0NASF0oW05IMytdKUMoPU8pW05IXVtDQEBIXShbQ0gyXVtPSF0pQyg9TylbTkhdW0NAQEhdKFtDQEBIXShbQ0gzXSlbQ0gyXVtDSDNdKUMoPU8pW05IXVtDQEBIXShbQ0gyXVtDSDJdQyg9TylbT0hdKUMoPU8pW05IXVtDQEBIXShbQ0gyXVtDSDJdQyg9TylbT0hdKUMoPU8pW05IXVtDQEBIXShbQ0BIXShbT0hdKVtDSDNdKUMoPU8pW05IXVtDQEBIXShbQ0gyXUMoPU8pW05IMl0pQyg9TylbTkhdW0NAQEhdKFtDSDJdW0NIMl1DKD1PKVtPSF0pQyg9TylbTkhdW0NAQEhdKFtDQEBIXShbQ0gzXSlbQ0gyXVtDSDNdKUMoPU8pW05IXVtDQEBIXShbQ0gyXVtDSDJdW0NIMl1bTkhdL0MoPU5cW0hdKVtOSDJdKUMoPU8pW05IXVtDQEBIXShbQ0gzXSlDKD1PKVtOSF1bQ0BASF0oW0NIM10pQyg9TylbTkhdW0NAQEhdKFtDSDJdW0NIXShbQ0gzXSlbQ0gzXSlDKD1PKVtOSF1bQ0gyXUMoPU8pW05IXVtDQEBIXShbQ0gyXVtDSDJdU1tDSDNdKUMoPU8pW05IXVtDQEBIXShbQ0gzXSlDKD1PKU4xW0NAQEhdKFtDSDJdW0NIMl1bQ0gyXTEpQyg9TylbTkhdW0NASF0oQyg9TylbT0hdKVtDQEBIXShbQ0gzXSlbQ0gyXVtDSDNd

> <s_epik_cmdline>
J2VwaWtfYXBwJywgJy1pbWFlJywgJ2xpZ2FuZF9wcm8ubWFlJywgJy1vbWFlJywgJ2xpZ2FuZF9wcmVwLm1hZScsICctbXMnLCAnMScsICctcGgnLCAnNycsICctcGh0JywgJzAuNScsICctbnQn

> <s_epik_pKa_notes>
Molecule size exceeds maximum supported for generating protonation states

> <s_epik_Chemistry_Notes>
This compound has an imine and may undergo hydrolysis.

$$$$
