3pm1_ligand
                    3D
 Schrodinger Suite 2020-3.
 45 48  0  0  1  0            999 V2000
   35.0340   -7.5820   11.2230 C   0  0  0  0  0  0
   35.6410   -6.5500   11.9350 C   0  0  0  0  0  0
   37.0230   -6.4120   11.9240 C   0  0  0  0  0  0
   37.7980   -7.3050   11.1940 C   0  0  0  0  0  0
   38.0050   -9.2330    9.7390 N   0  0  0  0  0  0
   37.3990  -10.2680    9.0190 C   0  0  2  0  0  0
   35.4180  -11.4640    8.3100 C   0  0  0  0  0  0
   34.0430  -11.6250    8.3020 C   0  0  0  0  0  0
   33.2440  -10.7430    9.0230 C   0  0  0  0  0  0
   33.8270   -9.7060    9.7460 C   0  0  0  0  0  0
   36.0120  -10.4230    9.0300 C   0  0  0  0  0  0
   35.2150   -9.5340    9.7590 C   0  0  0  0  0  0
   35.8090   -8.4870   10.4860 C   0  0  0  0  0  0
   37.2010   -8.3390   10.4740 C   0  0  0  0  0  0
   38.1760  -11.1690    8.3100 C   0  0  0  0  0  0
   38.3680  -11.0330    6.9380 C   0  0  0  0  0  0
   39.1420  -11.9760    6.2640 C   0  0  0  0  0  0
   39.7110  -13.0430    6.9550 C   0  0  0  0  0  0
   39.5080  -13.1750    8.3260 C   0  0  0  0  0  0
   38.7350  -12.2390    9.0020 C   0  0  0  0  0  0
   39.4860   -9.0880    9.7310 C   0  0  0  0  0  0
   39.9510   -8.0350    8.7170 C   0  0  0  0  0  0
   37.6090   -5.4290   12.6010 N   0  0  0  0  0  0
   33.5040  -12.6260    7.6090 N   0  0  0  0  0  0
   33.9491   -7.6861   11.2394 H   0  0  0  0  0  0
   35.0295   -5.8486   12.5026 H   0  0  0  0  0  0
   38.8825   -7.1961   11.1842 H   0  0  0  0  0  0
   37.4795  -10.9259    9.8969 H   0  0  0  0  0  0
   36.0448  -12.1568    7.7485 H   0  0  0  0  0  0
   32.1608  -10.8641    9.0217 H   0  0  0  0  0  0
   33.1941   -9.0198   10.3088 H   0  0  0  0  0  0
   37.9188  -10.1997    6.3977 H   0  0  0  0  0  0
   39.3028  -11.8779    5.1904 H   0  0  0  0  0  0
   40.3162  -13.7759    6.4215 H   0  0  0  0  0  0
   39.9538  -14.0096    8.8671 H   0  0  0  0  0  0
   38.5666  -12.3428   10.0739 H   0  0  0  0  0  0
   39.8297   -8.7805   10.7297 H   0  0  0  0  0  0
   39.9472  -10.0505    9.4648 H   0  0  0  0  0  0
   41.0481   -7.9599    8.7435 H   0  0  0  0  0  0
   39.5104   -7.0601    8.9727 H   0  0  0  0  0  0
   39.6279   -8.3300    7.7078 H   0  0  0  0  0  0
   36.9989   -4.7201   13.1800 H   0  0  0  0  0  0
   38.7039   -5.3247   12.5820 H   0  0  0  0  0  0
   34.1499  -13.3144    7.0443 H   0  0  0  0  0  0
   32.4128  -12.7646    7.6012 H   0  0  0  0  0  0
  1  2  2  0  0  0
  1 13  1  0  0  0
  1 25  1  0  0  0
  2  3  1  0  0  0
  2 26  1  0  0  0
  3  4  2  0  0  0
  3 23  1  0  0  0
  4 14  1  0  0  0
  4 27  1  0  0  0
  5  6  1  0  0  0
  5 14  1  0  0  0
  5 21  1  0  0  0
  6 11  1  0  0  0
  6 15  1  0  0  0
  6 28  1  0  0  0
  7  8  2  0  0  0
  7 11  1  0  0  0
  7 29  1  0  0  0
  8  9  1  0  0  0
  8 24  1  0  0  0
  9 10  2  0  0  0
  9 30  1  0  0  0
 10 12  1  0  0  0
 10 31  1  0  0  0
 11 12  2  0  0  0
 12 13  1  0  0  0
 13 14  2  0  0  0
 15 16  2  0  0  0
 15 20  1  0  0  0
 16 17  1  0  0  0
 16 32  1  0  0  0
 17 18  2  0  0  0
 17 33  1  0  0  0
 18 19  1  0  0  0
 18 34  1  0  0  0
 19 20  2  0  0  0
 19 35  1  0  0  0
 20 36  1  0  0  0
 21 22  1  0  0  0
 21 37  1  0  0  0
 21 38  1  0  0  0
 22 39  1  0  0  0
 22 40  1  0  0  0
 22 41  1  0  0  0
 23 42  1  0  0  0
 23 43  1  0  0  0
 24 44  1  0  0  0
 24 45  1  0  0  0
M  END
> <s_m_source_file>
../3pm1_ligand.sdf

> <i_m_source_file_index>
1

> <s_epik_input>
W2NIXTFjKFtOSDJdKVtjSF1bY0hdYyhjMTIpYzNjKFtjSF1jKFtOSDJdKVtjSF1bY0hdMylOKFtDSDJdW0NIM10pW0NASF0yYzRbY0hdW2NIXVtjSF1bY0hdW2NIXTQ=

> <s_epik_cmdline>
J2VwaWtfYXBwJywgJy1pbWFlJywgJ2xpZ2FuZF9wcm8ubWFlJywgJy1vbWFlJywgJ2xpZ2FuZF9wcmVwLm1hZScsICctbXMnLCAnMScsICctcGgnLCAnNycsICctcGh0JywgJzAuNScsICctbnQn

> <r_lp_tautomer_probability>
1

> <r_epik_Ionization_Penalty>
  0.0102

> <r_epik_Ionization_Penalty_Charging>
  0.0000

> <r_epik_Ionization_Penalty_Neutral>
  0.0102

> <r_epik_State_Penalty>
 -0.0000

> <r_epik_Charging_Adjusted_Penalty>
0

> <i_epik_Tot_Q>
0

> <i_epik_Tot_abs_Q>
0

$$$$
