3pma_ligand
                    3D
 Schrodinger Suite 2020-3.
 71 72  0  0  1  0            999 V2000
    7.8410  -41.0750   43.5250 C   0  0  1  0  0  0
    9.2900  -41.4730   43.8330 C   0  0  1  0  0  0
   10.0940  -41.6390   42.5210 C   0  0  2  0  0  0
    9.4100  -42.5650   41.4820 C   0  0  1  0  0  0
    7.8760  -42.3710   41.4430 C   0  0  1  0  0  0
    7.0970  -43.5060   40.7370 C   0  0  0  0  0  0
    5.4180  -39.7550   42.2350 C   0  0  0  0  0  0
    6.8500  -39.2100   42.0160 C   0  0  1  0  0  0
    6.8350  -37.6670   41.9590 C   0  0  2  0  0  0
    6.8900  -37.3330   40.4590 C   0  0  1  0  0  0
    6.6880  -38.6960   39.7920 C   0  0  1  0  0  0
    7.3300  -38.8170   38.4090 C   0  0  0  0  0  0
    7.8140  -39.6730   43.0280 O   0  0  0  0  0  0
    9.8760  -40.4720   44.6880 O   0  0  0  0  0  0
   10.2320  -39.4690   46.8490 O   0  0  0  0  0  0
   10.4340  -41.8890   46.5600 O   0  0  0  0  0  0
    8.2320  -40.8030   46.4770 O   0  5  0  0  0  0
   11.4270  -42.1110   42.7950 O   0  0  0  0  0  0
   12.4340  -39.9870   43.3270 O   0  0  0  0  0  0
   13.7990  -41.8370   42.4950 O   0  0  0  0  0  0
   12.2450  -40.7070   40.9910 O   0  5  0  0  0  0
    9.9340  -42.2160   40.1910 O   0  0  0  0  0  0
   11.7490  -43.3420   39.0900 O   0  0  0  0  0  0
    9.6430  -42.9190   37.9290 O   0  0  0  0  0  0
    9.7470  -44.6040   39.7120 O   0  5  0  0  0  0
    7.2610  -42.1520   42.7400 O   0  0  0  0  0  0
    6.6550  -44.5390   41.6360 O   0  0  0  0  0  0
    7.6230  -46.5120   40.6620 O   0  0  0  0  0  0
    5.4000  -45.7450   39.9730 O   0  0  0  0  0  0
    5.7320  -46.6890   42.2090 O   0  0  0  0  0  0
    7.3490  -39.5850   40.7150 O   0  0  0  0  0  0
    7.7870  -37.5520   37.9590 O   0  0  0  0  0  0
    6.1020  -37.6370   36.2160 O   0  0  0  0  0  0
    8.4110  -36.9990   35.7480 O   0  0  0  0  0  0
    6.9670  -35.5160   37.0600 O   0  0  0  0  0  0
    5.8920  -36.3360   40.0740 O   0  0  0  0  0  0
    3.7570  -35.3010   39.6900 O   0  0  0  0  0  0
    3.8680  -37.2890   41.0810 O   0  0  0  0  0  0
    4.2390  -37.4570   38.6660 O   0  5  0  0  0  0
    5.0580  -39.8670   43.6200 O   0  0  0  0  0  0
    4.6210  -42.2230   43.4670 O   0  0  0  0  0  0
    2.7820  -40.6030   43.5630 O   0  0  0  0  0  0
    4.1780  -41.0100   45.5420 O   0  5  0  0  0  0
    7.9920  -37.1200   42.6070 O   0  0  0  0  0  0
    8.8670  -35.7440   44.3490 O   0  0  0  0  0  0
    6.5280  -36.4560   44.4090 O   0  0  0  0  0  0
    7.2910  -34.8240   42.7240 O   0  5  0  0  0  0
    9.6870  -40.6630   46.1170 S   0  0  0  0  0  0
   12.4550  -41.1740   42.4050 S   0  0  0  0  0  0
   10.2580  -43.2660   39.2550 S   0  0  0  0  0  0
    6.3550  -45.8520   41.1280 S   0  0  0  0  0  0
    4.1710  -40.9130   44.0430 S   0  0  0  0  0  0
    7.6630  -36.0500   43.5110 S   0  0  0  0  0  0
    4.4690  -36.6080   39.8860 S   0  0  0  0  0  0
    7.3130  -36.9400   36.7620 S   0  0  0  0  0  0
    7.1228  -41.0127   44.3558 H   0  0  0  0  0  0
    9.3347  -42.4069   44.4125 H   0  0  0  0  0  0
   10.2197  -40.6402   42.0775 H   0  0  0  0  0  0
    9.6440  -43.6193   41.6909 H   0  0  0  0  0  0
    7.7561  -41.4200   40.9033 H   0  0  0  0  0  0
    6.2044  -43.0889   40.2479 H   0  0  0  0  0  0
    7.7420  -43.9786   39.9815 H   0  0  0  0  0  0
    4.6920  -39.0803   41.7579 H   0  0  0  0  0  0
    5.3350  -40.7573   41.7894 H   0  0  0  0  0  0
    5.9940  -37.2133   42.5039 H   0  0  0  0  0  0
    7.8071  -36.8215   40.1316 H   0  0  0  0  0  0
    5.6265  -38.9450   39.6460 H   0  0  0  0  0  0
    8.1850  -39.5072   38.4608 H   0  0  0  0  0  0
    6.5894  -39.2037   37.6935 H   0  0  0  0  0  0
    8.2259  -46.0463   39.8685 H   0  0  0  0  0  0
    6.1585  -38.6991   35.9353 H   0  0  0  0  0  0
  1  2  1  0  0  0
  1 13  1  0  0  0
  1 26  1  0  0  0
  1 56  1  0  0  0
  2  3  1  0  0  0
  2 14  1  0  0  0
  2 57  1  0  0  0
  3  4  1  0  0  0
  3 18  1  0  0  0
  3 58  1  0  0  0
  4  5  1  0  0  0
  4 22  1  0  0  0
  4 59  1  0  0  0
  5  6  1  0  0  0
  5 26  1  0  0  0
  5 60  1  0  0  0
  6 27  1  0  0  0
  6 61  1  0  0  0
  6 62  1  0  0  0
  7  8  1  0  0  0
  7 40  1  0  0  0
  7 63  1  0  0  0
  7 64  1  0  0  0
  8  9  1  0  0  0
  8 13  1  0  0  0
  8 31  1  0  0  0
  9 10  1  0  0  0
  9 44  1  0  0  0
  9 65  1  0  0  0
 10 11  1  0  0  0
 10 36  1  0  0  0
 10 66  1  0  0  0
 11 12  1  0  0  0
 11 31  1  0  0  0
 11 67  1  0  0  0
 12 32  1  0  0  0
 12 68  1  0  0  0
 12 69  1  0  0  0
 14 48  1  0  0  0
 15 48  2  0  0  0
 16 48  2  0  0  0
 17 48  1  0  0  0
 18 49  1  0  0  0
 19 49  2  0  0  0
 20 49  2  0  0  0
 21 49  1  0  0  0
 22 50  1  0  0  0
 23 50  2  0  0  0
 24 50  2  0  0  0
 25 50  1  0  0  0
 27 51  1  0  0  0
 28 51  1  0  0  0
 28 70  1  0  0  0
 29 51  2  0  0  0
 30 51  2  0  0  0
 32 55  1  0  0  0
 33 55  1  0  0  0
 33 71  1  0  0  0
 34 55  2  0  0  0
 35 55  2  0  0  0
 36 54  1  0  0  0
 37 54  2  0  0  0
 38 54  2  0  0  0
 39 54  1  0  0  0
 40 52  1  0  0  0
 41 52  2  0  0  0
 42 52  2  0  0  0
 43 52  1  0  0  0
 44 53  1  0  0  0
 45 53  2  0  0  0
 46 53  2  0  0  0
 47 53  1  0  0  0
M  CHG  6  17  -1  21  -1  25  -1  39  -1  43  -1  47  -1
M  END
> <s_m_source_file>
../3pma_ligand.sdf

> <i_m_source_file_index>
1

> <s_epik_input>
W09IXVMoPU8pKD1PKU9bQ0gyXVtDQEBIXShPMSlbQ0BASF0oT1MoPU8pKD1PKVtPSF0pW0NASF0oT1MoPU8pKD1PKVtPSF0pW0NAQEhdKE9TKD1PKSg9TylbT0hdKVtDQEhdMU9bQ0BAXTIoW0NIMl1PUyg9TykoPU8pW09IXSlbQ0BASF0oT1MoPU8pKD1PKVtPSF0pW0NASF0oT1MoPU8pKD1PKVtPSF0pW0NASF0oTzIpW0NIMl1PUyg9TykoPU8pW09IXQ==

> <s_epik_cmdline>
J2VwaWtfYXBwJywgJy1pbWFlJywgJ2xpZ2FuZF9wcm8ubWFlJywgJy1vbWFlJywgJ2xpZ2FuZF9wcmVwLm1hZScsICctbXMnLCAnMScsICctcGgnLCAnNycsICctcGh0JywgJzAuNScsICctbnQn

> <r_epik_Ionization_Penalty>
 26.7284

> <r_epik_Ionization_Penalty_Charging>
  0.0000

> <r_epik_Ionization_Penalty_Neutral>
 26.7284

> <r_epik_State_Penalty>
  0.5752

> <r_epik_Charging_Adjusted_Penalty>
0.575225048592731

> <i_epik_Tot_Q>
-6

> <i_epik_Tot_abs_Q>
6

> <s_epik_Chemistry_Notes>
This compound contains an acetal/aminal-like group ( X-CH(R)-Y where X, Y are N, S, or O) that may be acid/base labile, releasing an aldehyde.

$$$$
