3pn3_ligand
                    3D
 Schrodinger Suite 2020-3.
 43 43  0  0  1  0            999 V2000
    1.1440    5.7410   38.2310 C   0  0  0  0  0  0
    1.3750    6.2520   39.4640 O   0  0  0  0  0  0
    2.1160    5.7250   37.3290 N   0  0  0  0  0  0
    3.3360    6.2480   37.6520 O   0  0  0  0  0  0
    1.8930    5.1710   35.9930 C   0  0  0  0  0  0
    2.6340    3.8460   35.8450 C   0  0  2  0  0  0
    2.5910    3.3630   34.3940 C   0  0  0  0  0  0
    3.4340    2.0900   34.2410 C   0  0  0  0  0  0
    4.8140    2.2030   34.0670 C   0  0  0  0  0  0
    5.6010    1.0610   33.9290 C   0  0  0  0  0  0
    5.0040   -0.2030   33.9630 C   0  0  0  0  0  0
    3.6240   -0.3180   34.1380 C   0  0  0  0  0  0
    2.8370    0.8250   34.2780 C   0  0  0  0  0  0
    2.0150    2.7950   36.6510 N   0  0  0  0  0  0
    2.5190    2.3800   37.7980 C   0  0  0  0  0  0
    3.6160    2.9490   38.3470 O   0  0  0  0  0  0
    1.8530    1.3740   38.4180 O   0  0  0  0  0  0
    2.5730    0.3520   39.1530 C   0  0  0  0  0  0
    2.9430    0.8770   40.5430 C   0  0  0  0  0  0
    1.5720   -0.7930   39.2780 C   0  0  0  0  0  0
    3.8170   -0.1360   38.4080 C   0  0  0  0  0  0
    0.1512    5.3400   37.9790 H   0  0  0  0  0  0
    3.5074    6.6653   38.6552 H   0  0  0  0  0  0
    0.8167    5.0018   35.8412 H   0  0  0  0  0  0
    2.2632    5.8783   35.2363 H   0  0  0  0  0  0
    3.6608    3.9990   36.2087 H   0  0  0  0  0  0
    1.5507    3.1450   34.1108 H   0  0  0  0  0  0
    2.9940    4.1460   33.7348 H   0  0  0  0  0  0
    5.2784    3.1887   34.0389 H   0  0  0  0  0  0
    6.6788    1.1529   33.7950 H   0  0  0  0  0  0
    5.6161   -1.0982   33.8529 H   0  0  0  0  0  0
    3.1600   -1.3039   34.1653 H   0  0  0  0  0  0
    1.7597    0.7331   34.4159 H   0  0  0  0  0  0
    1.0876    2.3131   36.3080 H   0  0  0  0  0  0
    2.0345    1.2216   41.0586 H   0  0  0  0  0  0
    3.6479    1.7154   40.4426 H   0  0  0  0  0  0
    3.4124    0.0711   41.1263 H   0  0  0  0  0  0
    0.6779   -0.4415   39.8137 H   0  0  0  0  0  0
    2.0313   -1.6223   39.8359 H   0  0  0  0  0  0
    1.2853   -1.1405   38.2745 H   0  0  0  0  0  0
    4.5381    0.6898   38.3182 H   0  0  0  0  0  0
    3.5306   -0.4834   37.4044 H   0  0  0  0  0  0
    4.2767   -0.9652   38.9658 H   0  0  0  0  0  0
  1  2  2  0  0  0
  1  3  1  0  0  0
  1 22  1  0  0  0
  3  4  1  0  0  0
  3  5  1  0  0  0
  4 23  1  0  0  0
  5  6  1  0  0  0
  5 24  1  0  0  0
  5 25  1  0  0  0
  6  7  1  0  0  0
  6 14  1  0  0  0
  6 26  1  0  0  0
  7  8  1  0  0  0
  7 27  1  0  0  0
  7 28  1  0  0  0
  8  9  2  0  0  0
  8 13  1  0  0  0
  9 10  1  0  0  0
  9 29  1  0  0  0
 10 11  2  0  0  0
 10 30  1  0  0  0
 11 12  1  0  0  0
 11 31  1  0  0  0
 12 13  2  0  0  0
 12 32  1  0  0  0
 13 33  1  0  0  0
 14 15  1  0  0  0
 14 34  1  0  0  0
 15 16  2  0  0  0
 15 17  1  0  0  0
 17 18  1  0  0  0
 18 19  1  0  0  0
 18 20  1  0  0  0
 18 21  1  0  0  0
 19 35  1  0  0  0
 19 36  1  0  0  0
 19 37  1  0  0  0
 20 38  1  0  0  0
 20 39  1  0  0  0
 20 40  1  0  0  0
 21 41  1  0  0  0
 21 42  1  0  0  0
 21 43  1  0  0  0
M  END
> <s_m_source_file>
../3pn3_ligand.sdf

> <i_m_source_file_index>
1

> <s_epik_input>
W0NIM11DKFtDSDNdKShbQ0gzXSlPQyg9TylbTkhdW0NASF0oW0NIMl1OKFtDSF09TylbT0hdKVtDSDJdYzFbY0hdW2NIXVtjSF1bY0hdW2NIXTE=

> <s_epik_cmdline>
J2VwaWtfYXBwJywgJy1pbWFlJywgJ2xpZ2FuZF9wcm8ubWFlJywgJy1vbWFlJywgJ2xpZ2FuZF9wcmVwLm1hZScsICctbXMnLCAnMScsICctcGgnLCAnNycsICctcGh0JywgJzAuNScsICctbnQn

> <r_lp_tautomer_probability>
1

> <r_epik_Ionization_Penalty>
  0.0078

> <r_epik_Ionization_Penalty_Charging>
  0.0000

> <r_epik_Ionization_Penalty_Neutral>
  0.0078

> <r_epik_State_Penalty>
 -0.0000

> <r_epik_Charging_Adjusted_Penalty>
0

> <i_epik_Tot_Q>
0

> <i_epik_Tot_abs_Q>
0

> <s_epik_Chemistry_Notes>
This compound has an ester and may undergo hydrolysis at high or low pH. This compound has a N-S or N-O group and may undergo hydrolysis at high or low pH.

$$$$
