3pn4_ligand
                    3D
 Schrodinger Suite 2020-3.
 62 62  0  0  1  0            999 V2000
    2.3850   16.7890   64.8010 C   0  0  0  0  0  0
    2.0600   16.6550   63.3460 C   0  0  0  0  0  0
    2.7830   17.1300   62.4710 O   0  0  0  0  0  0
    0.9110   16.0520   63.0730 N   0  0  0  0  0  0
    0.5820   15.9830   61.7500 O   0  0  0  0  0  0
    1.9650   18.1950   65.2730 C   0  0  2  0  0  0
    2.6800   18.5460   66.5810 C   0  0  0  0  0  0
    2.7860   17.7490   67.5370 O   0  0  0  0  0  0
    0.4250   18.2850   65.5240 C   0  0  0  0  0  0
    0.0180   19.7780   65.7070 C   0  0  0  0  0  0
   -1.4690   19.9300   66.0850 C   0  0  0  0  0  0
   -1.9350   21.4030   65.9100 C   0  0  0  0  0  0
   -1.5390   22.2130   67.1500 C   0  0  0  0  0  0
    3.1940   19.7800   66.5900 N   0  0  0  0  0  0
    3.8420   20.3250   67.7780 C   0  0  1  0  0  0
    5.3800   20.4780   67.6750 C   0  0  0  0  0  0
    6.0720   19.1300   67.4160 C   0  0  0  0  0  0
    5.7960   21.4590   66.5910 C   0  0  0  0  0  0
    3.0560   21.6300   68.0720 C   0  0  0  0  0  0
    2.6600   22.3360   67.1400 O   0  0  0  0  0  0
    2.7570   21.9720   69.3460 N   0  0  0  0  0  0
    1.9830   23.1760   69.7560 C   0  0  1  0  0  0
    3.1710   21.1460   70.5240 C   0  0  0  0  0  0
    2.5510   21.8270   71.7570 C   0  0  0  0  0  0
    1.5480   22.8660   71.2070 C   0  0  0  0  0  0
    2.8420   24.4630   69.7190 C   0  0  0  0  0  0
    2.0280   25.6170   69.9880 O   0  0  0  0  0  0
    1.8372   16.0241   65.3710 H   0  0  0  0  0  0
    3.4664   16.6523   64.9493 H   0  0  0  0  0  0
    0.2384   15.6227   63.8301 H   0  0  0  0  0  0
   -0.3557   15.4980   61.4410 H   0  0  0  0  0  0
    2.2602   18.8985   64.4806 H   0  0  0  0  0  0
   -0.1122   17.8602   64.6632 H   0  0  0  0  0  0
    0.1678   17.7198   66.4320 H   0  0  0  0  0  0
    0.6233   20.2275   66.5079 H   0  0  0  0  0  0
    0.1906   20.3230   64.7672 H   0  0  0  0  0  0
   -2.0800   19.2852   65.4362 H   0  0  0  0  0  0
   -1.6125   19.6350   67.1349 H   0  0  0  0  0  0
   -1.4554   21.8360   65.0198 H   0  0  0  0  0  0
   -3.0278   21.4298   65.7873 H   0  0  0  0  0  0
   -1.8681   23.2554   67.0275 H   0  0  0  0  0  0
   -0.4462   22.1855   67.2723 H   0  0  0  0  0  0
   -2.0186   21.7792   68.0398 H   0  0  0  0  0  0
    3.1205   20.3876   65.6760 H   0  0  0  0  0  0
    3.7576   19.5843   68.5869 H   0  0  0  0  0  0
    5.7151   20.8832   68.6412 H   0  0  0  0  0  0
    5.7781   18.4113   68.1952 H   0  0  0  0  0  0
    7.1631   19.2679   67.4372 H   0  0  0  0  0  0
    5.7700   18.7462   66.4304 H   0  0  0  0  0  0
    5.3064   22.4283   66.7662 H   0  0  0  0  0  0
    5.4948   21.0684   65.6078 H   0  0  0  0  0  0
    6.8879   21.5901   66.6146 H   0  0  0  0  0  0
    1.1487   23.3341   69.0568 H   0  0  0  0  0  0
    2.7925   20.1202   70.4037 H   0  0  0  0  0  0
    4.2688   21.1263   70.5904 H   0  0  0  0  0  0
    2.0436   21.0726   72.3762 H   0  0  0  0  0  0
    3.3438   22.3116   72.3457 H   0  0  0  0  0  0
    1.5746   23.7901   71.8031 H   0  0  0  0  0  0
    0.5255   22.4605   71.2046 H   0  0  0  0  0  0
    3.6334   24.3976   70.4802 H   0  0  0  0  0  0
    3.2984   24.5708   68.7240 H   0  0  0  0  0  0
    2.4814   26.6191   70.0003 H   0  0  0  0  0  0
  1  2  1  0  0  0
  1  6  1  0  0  0
  1 28  1  0  0  0
  1 29  1  0  0  0
  2  3  2  0  0  0
  2  4  1  0  0  0
  4  5  1  0  0  0
  4 30  1  0  0  0
  5 31  1  0  0  0
  6  7  1  0  0  0
  6  9  1  0  0  0
  6 32  1  0  0  0
  7  8  2  0  0  0
  7 14  1  0  0  0
  9 10  1  0  0  0
  9 33  1  0  0  0
  9 34  1  0  0  0
 10 11  1  0  0  0
 10 35  1  0  0  0
 10 36  1  0  0  0
 11 12  1  0  0  0
 11 37  1  0  0  0
 11 38  1  0  0  0
 12 13  1  0  0  0
 12 39  1  0  0  0
 12 40  1  0  0  0
 13 41  1  0  0  0
 13 42  1  0  0  0
 13 43  1  0  0  0
 14 15  1  0  0  0
 14 44  1  0  0  0
 15 16  1  0  0  0
 15 19  1  0  0  0
 15 45  1  0  0  0
 16 17  1  0  0  0
 16 18  1  0  0  0
 16 46  1  0  0  0
 17 47  1  0  0  0
 17 48  1  0  0  0
 17 49  1  0  0  0
 18 50  1  0  0  0
 18 51  1  0  0  0
 18 52  1  0  0  0
 19 20  2  0  0  0
 19 21  1  0  0  0
 21 22  1  0  0  0
 21 23  1  0  0  0
 22 25  1  0  0  0
 22 26  1  0  0  0
 22 53  1  0  0  0
 23 24  1  0  0  0
 23 54  1  0  0  0
 23 55  1  0  0  0
 24 25  1  0  0  0
 24 56  1  0  0  0
 24 57  1  0  0  0
 25 58  1  0  0  0
 25 59  1  0  0  0
 26 27  1  0  0  0
 26 60  1  0  0  0
 26 61  1  0  0  0
 27 62  1  0  0  0
M  END
> <s_m_source_file>
../3pn4_ligand.sdf

> <i_m_source_file_index>
1

> <s_epik_input>
W0NIM11bQ0gyXVtDSDJdW0NIMl1bQ0gyXVtDQEhdKFtDSDJdQyg9TylbTkhdW09IXSlDKD1PKVtOSF1bQ0BASF0oW0NIXShbQ0gzXSlbQ0gzXSlDKD1PKU4xW0NASF0oW0NIMl1bT0hdKVtDSDJdW0NIMl1bQ0gyXTE=

> <s_epik_cmdline>
J2VwaWtfYXBwJywgJy1pbWFlJywgJ2xpZ2FuZF9wcm8ubWFlJywgJy1vbWFlJywgJ2xpZ2FuZF9wcmVwLm1hZScsICctbXMnLCAnMScsICctcGgnLCAnNycsICctcGh0JywgJzAuNScsICctbnQn

> <r_lp_tautomer_probability>
1

> <r_epik_Ionization_Penalty>
  0.0055

> <r_epik_Ionization_Penalty_Charging>
  0.0000

> <r_epik_Ionization_Penalty_Neutral>
  0.0055

> <r_epik_State_Penalty>
 -0.0000

> <r_epik_Charging_Adjusted_Penalty>
0

> <i_epik_Tot_Q>
0

> <i_epik_Tot_abs_Q>
0

> <s_epik_Chemistry_Notes>
This compound has a N-S or N-O group and may undergo hydrolysis at high or low pH.

$$$$
