3po1_ligand
                    3D
 Schrodinger Suite 2020-3.
 35 36  0  0  1  0            999 V2000
   19.8380  -12.0960   20.0850 C   0  0  0  0  0  0
   18.5770  -12.2900   20.9350 C   0  0  0  0  0  0
   17.5090  -11.4390   20.4140 O   0  0  0  0  0  0
   16.2900  -11.6030   20.9340 C   0  0  0  0  0  0
   16.1190  -12.2710   21.9490 O   0  0  0  0  0  0
   15.1420  -10.9060   20.2340 C   0  0  0  0  0  0
   10.7270   -8.9010   24.5660 O   0  0  0  0  0  0
   11.5110   -9.4980   23.6190 C   0  0  0  0  0  0
   12.5050   -8.7710   22.9760 C   0  0  0  0  0  0
   13.3250   -9.3340   22.0150 C   0  0  0  0  0  0
   13.1300  -10.6840   21.6570 C   0  0  0  0  0  0
   13.8930  -11.4370   20.7890 N   0  3  0  0  0  0
   13.6690  -12.7590   20.6360 C   0  0  0  0  0  0
   14.4340  -13.5860   19.9390 N   0  0  0  0  0  0
   14.2020  -14.9010   19.9260 C   0  0  0  0  0  0
   13.7690  -15.4820   21.1080 N   0  0  0  0  0  0
   14.4830  -15.6550   18.8070 N   0  0  0  0  0  0
   12.2280  -13.0550   21.6500 S   0  0  0  0  0  0
   12.1350  -11.4050   22.3370 C   0  0  0  0  0  0
   11.3210  -10.8380   23.2880 C   0  0  0  0  0  0
   20.6444  -12.7350   20.4741 H   0  0  0  0  0  0
   20.1514  -11.0425   20.1291 H   0  0  0  0  0  0
   19.6230  -12.3713   19.0419 H   0  0  0  0  0  0
   18.2636  -13.3435   20.8909 H   0  0  0  0  0  0
   18.7920  -12.0148   21.9781 H   0  0  0  0  0  0
   15.2087   -9.8223   20.4104 H   0  0  0  0  0  0
   15.1958  -11.1056   19.1536 H   0  0  0  0  0  0
   10.8832   -7.8426   24.8218 H   0  0  0  0  0  0
   12.6433   -7.7219   23.2376 H   0  0  0  0  0  0
   14.1096   -8.7436   21.5418 H   0  0  0  0  0  0
   13.5531  -14.8522   21.9836 H   0  0  0  0  0  0
   13.6414  -16.5728   21.1702 H   0  0  0  0  0  0
   14.8248  -15.1635   17.8842 H   0  0  0  0  0  0
   10.5418  -11.4252   23.7740 H   0  0  0  0  0  0
   14.3655  -16.7483   18.8367 H   0  0  0  0  0  0
  1  2  1  0  0  0
  1 21  1  0  0  0
  1 22  1  0  0  0
  1 23  1  0  0  0
  2  3  1  0  0  0
  2 24  1  0  0  0
  2 25  1  0  0  0
  3  4  1  0  0  0
  4  5  2  0  0  0
  4  6  1  0  0  0
  6 12  1  0  0  0
  6 26  1  0  0  0
  6 27  1  0  0  0
  7  8  1  0  0  0
  7 28  1  0  0  0
  8  9  2  0  0  0
  8 20  1  0  0  0
  9 10  1  0  0  0
  9 29  1  0  0  0
 10 11  2  0  0  0
 10 30  1  0  0  0
 11 12  1  0  0  0
 11 19  1  0  0  0
 12 13  2  0  0  0
 13 14  1  0  0  0
 13 18  1  0  0  0
 14 15  2  0  0  0
 15 16  1  0  0  0
 15 17  1  0  0  0
 16 31  1  0  0  0
 16 32  1  0  0  0
 17 33  1  0  0  0
 17 35  1  0  0  0
 18 19  1  0  0  0
 19 20  2  0  0  0
 20 34  1  0  0  0
M  CHG  1  12   1
M  END
> <s_m_source_file>
../3po1_ligand.sdf

> <i_m_source_file_index>
1

> <s_epik_input>
W0NIM11bQ0gyXU9DKD1PKVtDSDJdW24rXTFjKFtOSF0vQyhbTkgyXSk9TlxbSF0pc2MoYzEyKVtjSF1jKFtPSF0pW2NIXVtjSF0y

> <s_epik_cmdline>
J2VwaWtfYXBwJywgJy1pbWFlJywgJ2xpZ2FuZF9wcm8ubWFlJywgJy1vbWFlJywgJ2xpZ2FuZF9wcmVwLm1hZScsICctbXMnLCAnMScsICctcGgnLCAnNycsICctcGh0JywgJzAuNScsICctbnQn

> <r_epik_Ionization_Penalty>
  0.0221

> <r_epik_Ionization_Penalty_Charging>
  0.0000

> <r_epik_Ionization_Penalty_Neutral>
  0.0221

> <r_epik_State_Penalty>
  0.0175

> <r_epik_Charging_Adjusted_Penalty>
0.0174568482293447

> <i_epik_Tot_Q>
1

> <i_epik_Tot_abs_Q>
1

> <s_epik_Chemistry_Notes>
This compound has an ester and may undergo hydrolysis at high or low pH. This compound has an imine and may undergo hydrolysis.

$$$$
