3po6_ligand
                    3D
 Schrodinger Suite 2020-3.
 37 38  0  0  1  0            999 V2000
   -3.4630    4.7380    9.5310 C   0  0  0  0  0  0
   -7.3150    7.2130   12.0570 C   0  0  0  0  0  0
   -5.6020    4.2000   16.1210 C   0  0  0  0  0  0
   -5.3570   -0.6010   16.2180 N   0  0  0  0  0  0
   -5.1810    1.4280   17.7960 O   0  0  0  0  0  0
   -7.3630    1.2110   16.8330 O   0  0  0  0  0  0
   -4.5890    3.3020   11.6010 C   0  0  0  0  0  0
   -6.3630    4.7990   13.1350 C   0  0  0  0  0  0
   -4.1670    1.6360   13.4140 C   0  0  0  0  0  0
   -4.1920    1.6420   14.9470 C   0  0  0  0  0  0
   -4.8780    4.8630    9.7830 O   0  0  0  0  0  0
   -6.5970    6.3240   11.2080 O   0  0  0  0  0  0
   -4.8850    2.8850   12.8950 C   0  0  0  0  0  0
   -5.1700    4.4520   11.0660 C   0  0  0  0  0  0
   -6.0530    5.2180   11.8250 C   0  0  0  0  0  0
   -5.7720    3.6500   13.6670 C   0  0  0  0  0  0
   -6.1250    3.2080   15.0950 C   0  0  1  0  0  0
   -5.6230    1.8200   15.2950 N   0  0  2  0  0  0
   -5.9130    0.9810   16.6140 S   0  0  0  0  0  0
   -3.2427    5.0686    8.5052 H   0  0  0  0  0  0
   -3.1607    3.6871    9.6505 H   0  0  0  0  0  0
   -2.9068    5.3630   10.2451 H   0  0  0  0  0  0
   -7.7027    8.0540   11.4633 H   0  0  0  0  0  0
   -6.6431    7.5955   12.8395 H   0  0  0  0  0  0
   -8.1540    6.6764   12.5241 H   0  0  0  0  0  0
   -6.0140    5.1978   15.9095 H   0  0  0  0  0  0
   -4.5039    4.2379   16.0678 H   0  0  0  0  0  0
   -5.9096    3.8823   17.1282 H   0  0  0  0  0  0
   -5.5142   -1.2705   17.0765 H   0  0  0  0  0  0
   -4.2850   -0.5626   15.9744 H   0  0  0  0  0  0
   -3.8926    2.7213   10.9961 H   0  0  0  0  0  0
   -7.0673    5.3743   13.7359 H   0  0  0  0  0  0
   -3.1241    1.6371   13.0643 H   0  0  0  0  0  0
   -4.6773    0.7351   13.0425 H   0  0  0  0  0  0
   -3.7939    0.6884   15.3239 H   0  0  0  0  0  0
   -3.5730    2.4710   15.3206 H   0  0  0  0  0  0
   -7.2128    3.1717   15.2545 H   0  0  0  0  0  0
  1 11  1  0  0  0
  1 20  1  0  0  0
  1 21  1  0  0  0
  1 22  1  0  0  0
  2 12  1  0  0  0
  2 23  1  0  0  0
  2 24  1  0  0  0
  2 25  1  0  0  0
  3 17  1  0  0  0
  3 26  1  0  0  0
  3 27  1  0  0  0
  3 28  1  0  0  0
  4 19  1  0  0  0
  4 29  1  0  0  0
  4 30  1  0  0  0
  5 19  2  0  0  0
  6 19  2  0  0  0
  7 13  2  0  0  0
  7 14  1  0  0  0
  7 31  1  0  0  0
  8 15  1  0  0  0
  8 16  2  0  0  0
  8 32  1  0  0  0
  9 10  1  0  0  0
  9 13  1  0  0  0
  9 33  1  0  0  0
  9 34  1  0  0  0
 10 18  1  0  0  0
 10 35  1  0  0  0
 10 36  1  0  0  0
 11 14  1  0  0  0
 12 15  1  0  0  0
 13 16  1  0  0  0
 14 15  2  0  0  0
 16 17  1  0  0  0
 17 18  1  0  0  0
 17 37  1  0  0  0
 18 19  1  0  0  0
M  END
> <s_m_source_file>
../3po6_ligand.sdf

> <i_m_source_file_index>
1

> <s_epik_input>
W0NIM11PYyhbY0hdMSljKE9bQ0gzXSlbY0hdYyhjMTIpW0NASF0oW0NIM10pTihbQ0gyXVtDSDJdMilTKD1PKSg9TylbTkgyXQ==

> <s_epik_cmdline>
J2VwaWtfYXBwJywgJy1pbWFlJywgJ2xpZ2FuZF9wcm8ubWFlJywgJy1vbWFlJywgJ2xpZ2FuZF9wcmVwLm1hZScsICctbXMnLCAnMScsICctcGgnLCAnNycsICctcGh0JywgJzAuNScsICctbnQn

> <r_lp_tautomer_probability>
1

> <r_epik_Ionization_Penalty>
  0.0443

> <r_epik_Ionization_Penalty_Charging>
  0.0000

> <r_epik_Ionization_Penalty_Neutral>
  0.0443

> <r_epik_State_Penalty>
  0.0375

> <r_epik_Charging_Adjusted_Penalty>
0.037506450173955

> <i_epik_Tot_Q>
0

> <i_epik_Tot_abs_Q>
0

$$$$
