3poa_ligand
                    3D
 Schrodinger Suite 2020-3.
114114  0  0  1  0            999 V2000
   -0.3760   17.3990   41.8580 N   0  3  0  0  0  0
    0.7010   18.0590   42.6720 C   0  0  2  0  0  0
    0.8150   17.4100   44.0680 C   0  0  0  0  0  0
    0.9390   18.0590   45.1160 O   0  0  0  0  0  0
    0.5310   19.5850   42.7120 C   0  0  2  0  0  0
    0.2350   20.0610   41.3880 O   0  0  0  0  0  0
    1.8070   20.2440   43.1930 C   0  0  0  0  0  0
    0.7630   16.0870   44.0160 N   0  0  0  0  0  0
    1.0180   15.2020   45.1110 C   0  0  2  0  0  0
    2.5210   15.1740   45.3800 C   0  0  0  0  0  0
    3.3090   15.6880   44.5650 O   0  0  0  0  0  0
    0.5400   13.8160   44.7160 C   0  0  0  0  0  0
    2.9280   14.5740   46.5200 N   0  0  0  0  0  0
    4.3270   14.2050   46.7150 C   0  0  2  0  0  0
    4.8550   13.4010   45.5340 C   0  0  0  0  0  0
    4.1490   12.5600   44.9860 O   0  0  0  0  0  0
    4.2830   13.3350   47.9670 C   0  0  0  0  0  0
    3.1590   13.9470   48.7710 C   0  0  0  0  0  0
    2.1590   14.4720   47.7750 C   0  0  0  0  0  0
    6.0800   13.7050   45.1320 N   0  0  0  0  0  0
    6.7310   13.0070   44.0380 C   0  0  1  0  0  0
    8.0720   13.7010   43.8820 C   0  0  1  0  0  0
    8.8300   13.1920   42.6580 C   0  0  0  0  0  0
    7.8250   15.1130   43.7920 O   0  0  0  0  0  0
    8.4420   16.1690   44.8360 P   0  0  0  0  0  0
    9.9250   15.8840   44.7720 O   0  5  0  0  0  0
    7.7730   15.7930   46.1400 O   0  5  0  0  0  0
    8.0700   17.5200   44.2950 O   0  0  0  0  0  0
    6.9040   11.5550   44.3580 C   0  0  0  0  0  0
    7.2160   11.2090   45.4880 O   0  0  0  0  0  0
    6.6680   10.6840   43.3790 N   0  0  0  0  0  0
    6.8820    9.2580   43.5840 C   0  0  2  0  0  0
    8.3480    8.9430   43.3460 C   0  0  0  0  0  0
    8.9360    9.3830   42.3550 O   0  0  0  0  0  0
    5.9810    8.3980   42.6860 C   0  0  0  0  0  0
    4.5050    8.7600   42.7780 C   0  0  0  0  0  0
    3.5760    7.6620   42.2910 C   0  0  0  0  0  0
    3.9290    6.9260   41.3440 O   0  5  0  0  0  0
    2.4730    7.5470   42.8610 O   0  0  0  0  0  0
    8.9370    8.1990   44.2760 N   0  0  0  0  0  0
   10.3430    7.8430   44.2030 C   0  0  2  0  0  0
   10.5610    6.7260   43.1760 C   0  0  0  0  0  0
    9.9060    5.6900   43.2280 O   0  0  0  0  0  0
   10.8430    7.4330   45.5960 C   0  0  0  0  0  0
   12.3560    7.2780   45.7330 C   0  0  0  0  0  0
   13.0540    8.6130   45.9610 C   0  0  0  0  0  0
   14.4960    8.4250   46.4420 C   0  0  0  0  0  0
   15.2160    9.7310   46.5580 N   0  3  0  0  0  0
   11.4630    6.9630   42.2280 N   0  0  0  0  0  0
   11.8520    5.9560   41.2360 C   0  0  2  0  0  0
   13.0960    5.2330   41.7350 C   0  0  0  0  0  0
   13.2850    4.0580   41.4470 O   0  0  0  0  0  0
   12.1400    6.5790   39.8370 C   0  0  2  0  0  0
   10.9170    7.3400   39.3190 C   0  0  0  0  0  0
   12.5630    5.5000   38.8210 C   0  0  0  0  0  0
   11.2130    8.1940   38.1180 C   0  0  0  0  0  0
   13.9346    5.8467   42.4475 O   0  5  0  0  0  0
   -0.2181   16.3104   41.8548 H   0  0  0  0  0  0
   -0.3396   17.7778   40.8259 H   0  0  0  0  0  0
   -1.3586   17.6257   42.2974 H   0  0  0  0  0  0
    1.6519   17.8769   42.1499 H   0  0  0  0  0  0
   -0.3114   19.8714   43.3588 H   0  0  0  0  0  0
   -0.6593   19.6981   40.8602 H   0  0  0  0  0  0
    2.0444   19.8875   44.2062 H   0  0  0  0  0  0
    1.6718   21.3355   43.2106 H   0  0  0  0  0  0
    2.6315   19.9876   42.5115 H   0  0  0  0  0  0
    0.4980   15.6791   43.0294 H   0  0  0  0  0  0
    0.4671   15.5805   45.9846 H   0  0  0  0  0  0
   -0.5427   13.8426   44.5236 H   0  0  0  0  0  0
    0.7502   13.1092   45.5323 H   0  0  0  0  0  0
    1.0663   13.4922   43.8060 H   0  0  0  0  0  0
    4.9566   15.1030   46.8003 H   0  0  0  0  0  0
    4.0785   12.2924   47.6820 H   0  0  0  0  0  0
    5.2513   13.3901   48.4860 H   0  0  0  0  0  0
    2.7070   13.1775   49.4141 H   0  0  0  0  0  0
    3.5560   14.7604   49.3961 H   0  0  0  0  0  0
    1.7782   15.4657   48.0535 H   0  0  0  0  0  0
    1.3140   13.7824   47.6323 H   0  0  0  0  0  0
    6.6055   14.5163   45.6570 H   0  0  0  0  0  0
    6.1092   13.0502   43.1316 H   0  0  0  0  0  0
    8.7060   13.5413   44.7666 H   0  0  0  0  0  0
    9.0029   12.1103   42.7575 H   0  0  0  0  0  0
    9.7962   13.7124   42.5825 H   0  0  0  0  0  0
    8.2369   13.3867   41.7523 H   0  0  0  0  0  0
    6.3076   11.0519   42.4070 H   0  0  0  0  0  0
    6.6079    9.0620   44.6311 H   0  0  0  0  0  0
    6.2846    8.5217   41.6360 H   0  0  0  0  0  0
    6.0784    7.3408   42.9738 H   0  0  0  0  0  0
    4.2435    8.9695   43.8257 H   0  0  0  0  0  0
    4.3073    9.6519   42.1653 H   0  0  0  0  0  0
    8.3246    7.8506   45.1207 H   0  0  0  0  0  0
   10.8732    8.7454   43.8647 H   0  0  0  0  0  0
   10.5414    8.1928   46.3321 H   0  0  0  0  0  0
   10.4058    6.4619   45.8714 H   0  0  0  0  0  0
   12.5816    6.6244   46.5885 H   0  0  0  0  0  0
   12.7637    6.8324   44.8136 H   0  0  0  0  0  0
   13.0750    9.1813   45.0194 H   0  0  0  0  0  0
   12.5073    9.1871   46.7236 H   0  0  0  0  0  0
   14.4928    7.9428   47.4307 H   0  0  0  0  0  0
   15.0414    7.7916   45.7269 H   0  0  0  0  0  0
   16.2446    9.5531   46.9050 H   0  0  0  0  0  0
   14.6921   10.3757   47.2791 H   0  0  0  0  0  0
   15.2407   10.2246   45.5753 H   0  0  0  0  0  0
   11.9226    7.9622   42.2068 H   0  0  0  0  0  0
   10.9920    5.2736   41.1668 H   0  0  0  0  0  0
   12.9683    7.2954   39.9398 H   0  0  0  0  0  0
   10.1341    6.6231   39.0308 H   0  0  0  0  0  0
   10.5349    8.0019   40.1101 H   0  0  0  0  0  0
   13.4418    4.9604   39.2038 H   0  0  0  0  0  0
   12.8147    5.9775   37.8625 H   0  0  0  0  0  0
   11.7344    4.7921   38.6716 H   0  0  0  0  0  0
   10.2951    8.7099   37.7998 H   0  0  0  0  0  0
   11.5798    7.5591   37.2981 H   0  0  0  0  0  0
   11.9807    8.9379   38.3773 H   0  0  0  0  0  0
  1  2  1  0  0  0
  1 58  1  0  0  0
  1 59  1  0  0  0
  1 60  1  0  0  0
  2  3  1  0  0  0
  2  5  1  0  0  0
  2 61  1  0  0  0
  3  4  2  0  0  0
  3  8  1  0  0  0
  5  6  1  0  0  0
  5  7  1  0  0  0
  5 62  1  0  0  0
  6 63  1  0  0  0
  7 64  1  0  0  0
  7 65  1  0  0  0
  7 66  1  0  0  0
  8  9  1  0  0  0
  8 67  1  0  0  0
  9 10  1  0  0  0
  9 12  1  0  0  0
  9 68  1  0  0  0
 10 11  2  0  0  0
 10 13  1  0  0  0
 12 69  1  0  0  0
 12 70  1  0  0  0
 12 71  1  0  0  0
 13 14  1  0  0  0
 13 19  1  0  0  0
 14 15  1  0  0  0
 14 17  1  0  0  0
 14 72  1  0  0  0
 15 16  2  0  0  0
 15 20  1  0  0  0
 17 18  1  0  0  0
 17 73  1  0  0  0
 17 74  1  0  0  0
 18 19  1  0  0  0
 18 75  1  0  0  0
 18 76  1  0  0  0
 19 77  1  0  0  0
 19 78  1  0  0  0
 20 21  1  0  0  0
 20 79  1  0  0  0
 21 22  1  0  0  0
 21 29  1  0  0  0
 21 80  1  0  0  0
 22 23  1  0  0  0
 22 24  1  0  0  0
 22 81  1  0  0  0
 23 82  1  0  0  0
 23 83  1  0  0  0
 23 84  1  0  0  0
 24 25  1  0  0  0
 25 26  1  0  0  0
 25 27  1  0  0  0
 25 28  2  0  0  0
 29 30  2  0  0  0
 29 31  1  0  0  0
 31 32  1  0  0  0
 31 85  1  0  0  0
 32 33  1  0  0  0
 32 35  1  0  0  0
 32 86  1  0  0  0
 33 34  2  0  0  0
 33 40  1  0  0  0
 35 36  1  0  0  0
 35 87  1  0  0  0
 35 88  1  0  0  0
 36 37  1  0  0  0
 36 89  1  0  0  0
 36 90  1  0  0  0
 37 38  1  0  0  0
 37 39  2  0  0  0
 40 41  1  0  0  0
 40 91  1  0  0  0
 41 42  1  0  0  0
 41 44  1  0  0  0
 41 92  1  0  0  0
 42 43  2  0  0  0
 42 49  1  0  0  0
 44 45  1  0  0  0
 44 93  1  0  0  0
 44 94  1  0  0  0
 45 46  1  0  0  0
 45 95  1  0  0  0
 45 96  1  0  0  0
 46 47  1  0  0  0
 46 97  1  0  0  0
 46 98  1  0  0  0
 47 48  1  0  0  0
 47 99  1  0  0  0
 47100  1  0  0  0
 48101  1  0  0  0
 48102  1  0  0  0
 48103  1  0  0  0
 49 50  1  0  0  0
 49104  1  0  0  0
 50 51  1  0  0  0
 50 53  1  0  0  0
 50105  1  0  0  0
 51 52  2  0  0  0
 51 57  1  0  0  0
 53 54  1  0  0  0
 53 55  1  0  0  0
 53106  1  0  0  0
 54 56  1  0  0  0
 54107  1  0  0  0
 54108  1  0  0  0
 55109  1  0  0  0
 55110  1  0  0  0
 55111  1  0  0  0
 56112  1  0  0  0
 56113  1  0  0  0
 56114  1  0  0  0
M  CHG  6   1   1  26  -1  27  -1  38  -1  48   1  57  -1
M  END
> <s_m_source_file>
../3poa_ligand.sdf

> <i_m_source_file_index>
1

> <s_epik_input>
W09IXVtDQEhdKFtDSDNdKVtDQEhdKFtOSDMrXSlDKD1PKVtOSF1bQ0BASF0oW0NIM10pQyg9TylOMVtDQEBIXShbQ0gyXVtDSDJdW0NIMl0xKUMoPU8pW05IXVtDQEBIXShbQ0BASF0oW0NIM10pT1AoPU8pKFtPSF0pW09IXSlDKD1PKVtOSF1bQ0BASF0oW0NIMl1bQ0gyXUMoPU8pW09IXSlDKD1PKVtOSF1bQ0BASF0oW0NIMl1bQ0gyXVtDSDJdW0NIMl1bTkgzK10pQyg9TylbTkhdW0NASF0oQyg9TylbT0hdKVtDQEBIXShbQ0gzXSlbQ0gyXVtDSDNd

> <s_epik_cmdline>
J2VwaWtfYXBwJywgJy1pbWFlJywgJ2xpZ2FuZF9wcm8ubWFlJywgJy1vbWFlJywgJ2xpZ2FuZF9wcmVwLm1hZScsICctbXMnLCAnMScsICctcGgnLCAnNycsICctcGh0JywgJzAuNScsICctbnQn

> <r_epik_Ionization_Penalty>
  0.1710

> <r_epik_Ionization_Penalty_Charging>
  0.1710

> <r_epik_Ionization_Penalty_Neutral>
  0.0000

> <r_epik_State_Penalty>
  0.1414

> <r_epik_Charging_Adjusted_Penalty>
0.312385965940457

> <i_epik_Tot_Q>
-2

> <i_epik_Tot_abs_Q>
6

$$$$
