3poz_ligand
                    3D
 Schrodinger Suite 2020-3.
 63 66  0  0  1  0            999 V2000
   14.7340   33.5590   13.1610 N   0  0  0  0  0  0
   20.2250   35.7750   15.3950 N   0  0  0  0  0  0
   15.8900   35.0340   17.2350 C   0  0  0  0  0  0
   14.5180   34.8540   17.0580 C   0  0  0  0  0  0
   18.0730   34.7880   16.0540 C   0  0  0  0  0  0
   18.7830   36.0320   15.5310 C   0  0  0  0  0  0
   20.7150   35.0010   14.4070 C   0  0  0  0  0  0
   17.2240   33.5270   11.8350 C   0  0  0  0  0  0
   17.5500   32.9210    9.0980 C   0  0  0  0  0  0
   18.1350   32.5430   11.4220 C   0  0  0  0  0  0
   18.4040   30.7430    6.4860 C   0  0  0  0  0  0
   16.0480   29.3940    7.1640 C   0  0  0  0  0  0
   16.2660   30.6950    7.6250 C   0  0  0  0  0  0
   14.8020   28.6230    7.5000 C   0  0  0  0  0  0
   24.1210   33.2280   14.0430 C   0  0  0  0  0  0
   13.8670   29.3560    8.0560 F   0  0  0  0  0  0
   14.2830   28.1180    6.3950 F   0  0  0  0  0  0
   15.1020   27.6320    8.3300 F   0  0  0  0  0  0
   17.0120   28.7820    6.3480 C   0  0  0  0  0  0
   18.1880   29.4520    6.0170 C   0  0  0  0  0  0
   17.4560   31.3660    7.3000 C   0  0  0  0  0  0
   17.6880   32.6400    7.7450 O   0  0  0  0  0  0
   16.6540   33.8950    9.5210 C   0  0  0  0  0  0
   15.6760   34.7660    8.3190 Cl  0  0  0  0  0  0
   16.4760   34.2030   10.8620 C   0  0  0  0  0  0
   18.3170   32.2500   10.0520 C   0  0  0  0  0  0
   17.0810   33.8100   13.1800 N   0  0  0  0  0  0
   15.8750   33.8860   13.8120 C   0  0  0  0  0  0
   13.5190   33.6450   13.7380 C   0  0  0  0  0  0
   15.7330   34.3090   15.1460 C   0  0  0  0  0  0
   14.4750   34.4120   15.7050 C   0  0  0  0  0  0
   13.3710   34.0640   15.0050 N   0  0  0  0  0  0
   16.5930   34.7400   16.1000 N   0  0  0  0  0  0
   20.0140   34.4420   13.5830 O   0  0  0  0  0  0
   22.2200   34.8250   14.3240 C   0  0  0  0  0  0
   22.6070   33.3860   13.9560 C   0  0  0  0  0  0
   22.0200   32.5000   14.9190 O   0  0  0  0  0  0
   22.1470   32.9560   12.5610 C   0  0  0  0  0  0
   20.9327   36.2192   16.1104 H   0  0  0  0  0  0
   16.3466   35.3688   18.1664 H   0  0  0  0  0  0
   13.7015   35.0093   17.7631 H   0  0  0  0  0  0
   18.3463   33.9217   15.4336 H   0  0  0  0  0  0
   18.3759   34.6034   17.0952 H   0  0  0  0  0  0
   18.6232   36.8608   16.2363 H   0  0  0  0  0  0
   18.3641   36.2997   14.5497 H   0  0  0  0  0  0
   18.7107   31.9967   12.1691 H   0  0  0  0  0  0
   19.3184   31.2716    6.2167 H   0  0  0  0  0  0
   15.5118   31.1894    8.2373 H   0  0  0  0  0  0
   24.4648   33.5342   15.0420 H   0  0  0  0  0  0
   24.6000   33.8601   13.2807 H   0  0  0  0  0  0
   24.3904   32.1758   13.8690 H   0  0  0  0  0  0
   16.8393   27.7743    5.9701 H   0  0  0  0  0  0
   18.9367   28.9653    5.3920 H   0  0  0  0  0  0
   15.7574   34.9675   11.1573 H   0  0  0  0  0  0
   19.0507   31.5057    9.7423 H   0  0  0  0  0  0
   17.9705   33.9887   13.8020 H   0  0  0  0  0  0
   12.6358   33.3679   13.1625 H   0  0  0  0  0  0
   22.6261   35.4988   13.5552 H   0  0  0  0  0  0
   22.6716   35.0654   15.2978 H   0  0  0  0  0  0
   22.2262   32.6379   15.9907 H   0  0  0  0  0  0
   22.5877   33.6250   11.8072 H   0  0  0  0  0  0
   21.0499   33.0111   12.5035 H   0  0  0  0  0  0
   22.4728   31.9229   12.3697 H   0  0  0  0  0  0
  1 28  2  0  0  0
  1 29  1  0  0  0
  2  6  1  0  0  0
  2  7  1  0  0  0
  2 39  1  0  0  0
  3  4  2  0  0  0
  3 33  1  0  0  0
  3 40  1  0  0  0
  4 31  1  0  0  0
  4 41  1  0  0  0
  5  6  1  0  0  0
  5 33  1  0  0  0
  5 42  1  0  0  0
  5 43  1  0  0  0
  6 44  1  0  0  0
  6 45  1  0  0  0
  7 34  2  0  0  0
  7 35  1  0  0  0
  8 10  2  0  0  0
  8 25  1  0  0  0
  8 27  1  0  0  0
  9 22  1  0  0  0
  9 23  1  0  0  0
  9 26  2  0  0  0
 10 26  1  0  0  0
 10 46  1  0  0  0
 11 20  2  0  0  0
 11 21  1  0  0  0
 11 47  1  0  0  0
 12 13  1  0  0  0
 12 14  1  0  0  0
 12 19  2  0  0  0
 13 21  2  0  0  0
 13 48  1  0  0  0
 14 16  1  0  0  0
 14 17  1  0  0  0
 14 18  1  0  0  0
 15 36  1  0  0  0
 15 49  1  0  0  0
 15 50  1  0  0  0
 15 51  1  0  0  0
 19 20  1  0  0  0
 19 52  1  0  0  0
 20 53  1  0  0  0
 21 22  1  0  0  0
 23 24  1  0  0  0
 23 25  2  0  0  0
 25 54  1  0  0  0
 26 55  1  0  0  0
 27 28  1  0  0  0
 27 56  1  0  0  0
 28 30  1  0  0  0
 29 32  2  0  0  0
 29 57  1  0  0  0
 30 31  2  0  0  0
 30 33  1  0  0  0
 31 32  1  0  0  0
 35 36  1  0  0  0
 35 58  1  0  0  0
 35 59  1  0  0  0
 36 37  1  0  0  0
 36 38  1  0  0  0
 37 60  1  0  0  0
 38 61  1  0  0  0
 38 62  1  0  0  0
 38 63  1  0  0  0
M  END
> <s_m_source_file>
../3poz_ligand.sdf

> <i_m_source_file_index>
1

> <s_epik_input>
RkMoRikoRiljMVtjSF1jKFtjSF1bY0hdW2NIXTEpT2MoYyhDbClbY0hdMilbY0hdW2NIXWMyW05IXWMzbltjSF1uYyhjMzQpW2NIXVtjSF1uNFtDSDJdW0NIMl1bTkhdQyg9TylbQ0gyXUMoW0NIM10pKFtPSF0pW0NIM10=

> <s_epik_cmdline>
J2VwaWtfYXBwJywgJy1pbWFlJywgJ2xpZ2FuZF9wcm8ubWFlJywgJy1vbWFlJywgJ2xpZ2FuZF9wcmVwLm1hZScsICctbXMnLCAnMScsICctcGgnLCAnNycsICctcGh0JywgJzAuNScsICctbnQn

> <r_lp_tautomer_probability>
1

> <r_epik_Ionization_Penalty>
  0.0000

> <r_epik_Ionization_Penalty_Charging>
  0.0000

> <r_epik_Ionization_Penalty_Neutral>
  0.0000

> <r_epik_State_Penalty>
 -0.0000

> <r_epik_Charging_Adjusted_Penalty>
0

> <i_epik_Tot_Q>
0

> <i_epik_Tot_abs_Q>
0

$$$$
