3pp0_ligand
                    3D
 Schrodinger Suite 2020-3.
 53 56  0  0  1  0            999 V2000
   12.9040   15.4160   27.6660 O   0  0  0  0  0  0
   12.7010   15.4320   29.0830 C   0  0  0  0  0  0
   13.6420   14.4880   29.8430 C   0  0  0  0  0  0
   14.2820   13.5780   28.9490 O   0  0  0  0  0  0
   14.3860   12.2360   29.4150 C   0  0  0  0  0  0
   15.2870   11.5040   28.4250 C   0  0  0  0  0  0
   16.7110   11.4550   28.8350 N   0  0  0  0  0  0
   17.2480   10.4260   29.5520 C   0  0  0  0  0  0
   18.5700   10.6210   29.7440 C   0  0  0  0  0  0
   18.9150   11.8710   29.0910 C   0  0  0  0  0  0
   20.0600   12.5660   28.9470 N   0  0  0  0  0  0
   20.0730   13.7020   28.2760 C   0  0  0  0  0  0
   18.9650   14.2110   27.7290 N   0  0  0  0  0  0
   17.7780   13.5830   27.8240 C   0  0  0  0  0  0
   16.6330   14.1290   27.2530 N   0  0  0  0  0  0
   16.6740   15.2830   26.4610 C   0  0  0  0  0  0
   15.8300   16.3470   26.7750 C   0  0  0  0  0  0
   15.8160   17.4600   26.0650 N   0  0  0  0  0  0
   16.6130   17.6270   25.0380 C   0  0  0  0  0  0
   16.5470   18.8100   24.3620 O   0  0  0  0  0  0
   17.3830   19.8530   24.6570 C   0  0  0  0  0  0
   18.4440   19.7380   25.5530 C   0  0  0  0  0  0
   19.2830   20.8190   25.8100 C   0  0  0  0  0  0
   19.0830   22.0330   25.1770 C   0  0  0  0  0  0
   18.0320   22.1390   24.2780 C   0  0  0  0  0  0
   17.1940   21.0640   24.0140 C   0  0  0  0  0  0
   17.8170   23.4520   23.5920 C   0  0  0  0  0  0
   16.8670   23.4020   22.5930 F   0  0  0  0  0  0
   19.0360   23.8760   23.0710 F   0  0  0  0  0  0
   17.3300   24.3620   24.4970 F   0  0  0  0  0  0
   17.4910   16.6020   24.6570 C   0  0  0  0  0  0
   18.5300   16.8010   23.2920 Cl  0  0  0  0  0  0
   17.5300   15.4110   25.3730 C   0  0  0  0  0  0
   17.7100   12.3580   28.5250 C   0  0  0  0  0  0
   12.2873   16.0529   27.0148 H   0  0  0  0  0  0
   12.8721   16.4487   29.4664 H   0  0  0  0  0  0
   11.6696   15.1235   29.3092 H   0  0  0  0  0  0
   14.4137   15.0774   30.3598 H   0  0  0  0  0  0
   13.0653   13.9115   30.5813 H   0  0  0  0  0  0
   14.8241   12.2312   30.4240 H   0  0  0  0  0  0
   13.3852   11.7806   29.4476 H   0  0  0  0  0  0
   14.9430   10.4650   28.3151 H   0  0  0  0  0  0
   15.2456   12.0091   27.4487 H   0  0  0  0  0  0
   16.6876    9.5661   29.9188 H   0  0  0  0  0  0
   19.2498    9.9642   30.2867 H   0  0  0  0  0  0
   21.0141   14.2406   28.1647 H   0  0  0  0  0  0
   15.6553   13.6526   27.4180 H   0  0  0  0  0  0
   15.1621   16.2575   27.6317 H   0  0  0  0  0  0
   18.6195   18.7889   26.0595 H   0  0  0  0  0  0
   20.1054   20.7078   26.5167 H   0  0  0  0  0  0
   19.7340   22.8835   25.3794 H   0  0  0  0  0  0
   16.3818   21.1745   23.2955 H   0  0  0  0  0  0
   18.2081   14.6055   25.0912 H   0  0  0  0  0  0
  1  2  1  0  0  0
  1 35  1  0  0  0
  2  3  1  0  0  0
  2 36  1  0  0  0
  2 37  1  0  0  0
  3  4  1  0  0  0
  3 38  1  0  0  0
  3 39  1  0  0  0
  4  5  1  0  0  0
  5  6  1  0  0  0
  5 40  1  0  0  0
  5 41  1  0  0  0
  6  7  1  0  0  0
  6 42  1  0  0  0
  6 43  1  0  0  0
  7  8  1  0  0  0
  7 34  1  0  0  0
  8  9  2  0  0  0
  8 44  1  0  0  0
  9 10  1  0  0  0
  9 45  1  0  0  0
 10 11  2  0  0  0
 10 34  1  0  0  0
 11 12  1  0  0  0
 12 13  2  0  0  0
 12 46  1  0  0  0
 13 14  1  0  0  0
 14 15  1  0  0  0
 14 34  2  0  0  0
 15 16  1  0  0  0
 15 47  1  0  0  0
 16 17  2  0  0  0
 16 33  1  0  0  0
 17 18  1  0  0  0
 17 48  1  0  0  0
 18 19  2  0  0  0
 19 20  1  0  0  0
 19 31  1  0  0  0
 20 21  1  0  0  0
 21 22  2  0  0  0
 21 26  1  0  0  0
 22 23  1  0  0  0
 22 49  1  0  0  0
 23 24  2  0  0  0
 23 50  1  0  0  0
 24 25  1  0  0  0
 24 51  1  0  0  0
 25 26  2  0  0  0
 25 27  1  0  0  0
 26 52  1  0  0  0
 27 28  1  0  0  0
 27 29  1  0  0  0
 27 30  1  0  0  0
 31 32  1  0  0  0
 31 33  2  0  0  0
 33 53  1  0  0  0
M  END
> <s_m_source_file>
../3pp0_ligand.sdf

> <i_m_source_file_index>
1

> <s_epik_input>
W09IXVtDSDJdW0NIMl1PW0NIMl1bQ0gyXW4oW2NIXVtjSF0xKWMoYzEyKWMobltjSF1uMilbTkhdYzNbY0hdbmMoYyhDbClbY0hdMylPYzRbY0hdW2NIXVtjSF1jKFtjSF00KUMoRikoRilG

> <s_epik_cmdline>
J2VwaWtfYXBwJywgJy1pbWFlJywgJ2xpZ2FuZF9wcm8ubWFlJywgJy1vbWFlJywgJ2xpZ2FuZF9wcmVwLm1hZScsICctbXMnLCAnMScsICctcGgnLCAnNycsICctcGh0JywgJzAuNScsICctbnQn

> <r_lp_tautomer_probability>
1

> <r_epik_Ionization_Penalty>
  0.0000

> <r_epik_Ionization_Penalty_Charging>
  0.0000

> <r_epik_Ionization_Penalty_Neutral>
  0.0000

> <r_epik_State_Penalty>
 -0.0000

> <r_epik_Charging_Adjusted_Penalty>
0

> <i_epik_Tot_Q>
0

> <i_epik_Tot_abs_Q>
0

$$$$
