3pp1_ligand
                    3D
 Schrodinger Suite 2020-3.
 45 47  0  0  1  0            999 V2000
  -34.6430   33.0180    2.7360 C   0  0  0  0  0  0
  -34.3370   32.0160    3.7490 N   0  0  0  0  0  0
  -33.0410   31.5590    3.8870 C   0  0  0  0  0  0
  -32.0340   32.0100    3.0980 N   0  0  0  0  0  0
  -30.7910   31.5690    3.2250 C   0  0  0  0  0  0
  -30.4210   30.6280    4.1530 N   0  0  0  0  0  0
  -29.0190   30.1450    4.2030 C   0  0  0  0  0  0
  -27.9940   31.0640    4.8800 C   0  0  1  0  0  0
  -28.3790   31.3460    6.2320 O   0  0  0  0  0  0
  -26.6180   30.3610    4.8420 C   0  0  0  0  0  0
  -26.0800   30.0460    6.1430 O   0  0  0  0  0  0
  -31.3840   30.1140    4.9990 C   0  0  0  0  0  0
  -31.0990   29.2720    5.8420 O   0  0  0  0  0  0
  -32.7340   30.5870    4.8740 C   0  0  0  0  0  0
  -33.8180   30.0940    5.7250 C   0  0  0  0  0  0
  -33.5410   29.1400    6.6910 N   0  0  0  0  0  0
  -34.2610   27.9800    7.0040 C   0  0  0  0  0  0
  -35.3980   27.5680    6.3060 C   0  0  0  0  0  0
  -36.0700   26.4000    6.6690 C   0  0  0  0  0  0
  -35.6400   25.6190    7.7490 C   0  0  0  0  0  0
  -36.6860   23.8520    8.3040 I   0  0  0  0  0  0
  -34.5020   26.0430    8.4450 C   0  0  0  0  0  0
  -33.8110   27.2070    8.0810 C   0  0  0  0  0  0
  -32.7110   27.5900    8.7780 F   0  0  0  0  0  0
  -35.0930   30.6190    5.5270 C   0  0  3  0  0  0
  -36.1240   30.2090    6.2860 F   0  0  0  0  0  0
  -35.3380   31.5740    4.5350 C   0  0  0  0  0  0
  -36.4870   31.9930    4.3940 O   0  0  0  0  0  0
  -33.7267   33.2718    2.1828 H   0  0  0  0  0  0
  -35.0399   33.9214    3.2221 H   0  0  0  0  0  0
  -35.3933   32.6171    2.0386 H   0  0  0  0  0  0
  -30.4677   31.1066    2.2807 H   0  0  0  0  0  0
  -30.1261   32.4111    3.4673 H   0  0  0  0  0  0
  -28.9779   29.1952    4.7564 H   0  0  0  0  0  0
  -28.6481   29.9892    3.1792 H   0  0  0  0  0  0
  -27.9688   32.0572    4.4079 H   0  0  0  0  0  0
  -29.3365   31.8466    6.4382 H   0  0  0  0  0  0
  -26.7056   29.4133    4.2904 H   0  0  0  0  0  0
  -25.8875   31.0118    4.3391 H   0  0  0  0  0  0
  -25.1048   29.5443    6.2281 H   0  0  0  0  0  0
  -32.6532   29.2475    7.3315 H   0  0  0  0  0  0
  -35.7640   28.1641    5.4700 H   0  0  0  0  0  0
  -36.9468   26.0895    6.1008 H   0  0  0  0  0  0
  -34.1448   25.4542    9.2899 H   0  0  0  0  0  0
  -35.3092   29.8205    4.8020 H   0  0  0  0  0  0
  1  2  1  0  0  0
  1 29  1  0  0  0
  1 30  1  0  0  0
  1 31  1  0  0  0
  2  3  1  0  0  0
  2 27  1  0  0  0
  3  4  2  0  0  0
  3 14  1  0  0  0
  4  5  1  0  0  0
  5  6  1  0  0  0
  5 32  1  0  0  0
  5 33  1  0  0  0
  6  7  1  0  0  0
  6 12  1  0  0  0
  7  8  1  0  0  0
  7 34  1  0  0  0
  7 35  1  0  0  0
  8  9  1  0  0  0
  8 10  1  0  0  0
  8 36  1  0  0  0
  9 37  1  0  0  0
 10 11  1  0  0  0
 10 38  1  0  0  0
 10 39  1  0  0  0
 11 40  1  0  0  0
 12 13  2  0  0  0
 12 14  1  0  0  0
 14 15  2  0  0  0
 15 16  1  0  0  0
 15 25  1  0  0  0
 16 17  1  0  0  0
 16 41  1  0  0  0
 17 18  2  0  0  0
 17 23  1  0  0  0
 18 19  1  0  0  0
 18 42  1  0  0  0
 19 20  2  0  0  0
 19 43  1  0  0  0
 20 21  1  0  0  0
 20 22  1  0  0  0
 22 23  2  0  0  0
 22 44  1  0  0  0
 23 24  1  0  0  0
 25 26  1  0  0  0
 25 27  1  0  0  0
 25 45  1  0  0  0
 27 28  2  0  0  0
M  END
> <s_m_source_file>
../3pp1_ligand.sdf

> <i_m_source_file_index>
1

> <s_epik_input>
W09IXVtDSDJdW0NASF0oW09IXSlbQ0gyXU4oW0NIMl1OMSlDKD1PKUMoQz0xMik9QyhbQ0hdKEYpQyg9TylOMltDSDNdKVtOSF1jM1tjSF1bY0hdYyhJKVtjSF1jM0Y=

> <s_epik_cmdline>
J2VwaWtfYXBwJywgJy1pbWFlJywgJ2xpZ2FuZF9wcm8ubWFlJywgJy1vbWFlJywgJ2xpZ2FuZF9wcmVwLm1hZScsICctbXMnLCAnMScsICctcGgnLCAnNycsICctcGh0JywgJzAuNScsICctbnQn

> <r_lp_tautomer_probability>
1

> <r_epik_Ionization_Penalty>
  0.0034

> <r_epik_Ionization_Penalty_Charging>
  0.0000

> <r_epik_Ionization_Penalty_Neutral>
  0.0034

> <r_epik_State_Penalty>
 -0.0000

> <r_epik_Charging_Adjusted_Penalty>
0

> <i_epik_Tot_Q>
0

> <i_epik_Tot_abs_Q>
0

> <s_epik_Chemistry_Notes>
This compound has an imine and may undergo hydrolysis. This compound contains an acetal/aminal-like group ( X-CH(R)-Y where X, Y are N, S, or O) that may be acid/base labile, releasing an aldehyde.

$$$$
