3ppm_ligand
                    3D
 Schrodinger Suite 2020-3.
 46 48  0  0  1  0            999 V2000
   32.5530  -38.9130    7.6590 N   0  0  0  0  0  0
   33.3950  -39.9450    7.8620 C   0  0  0  0  0  0
   32.9480  -41.0900    8.5190 C   0  0  0  0  0  0
   31.6140  -41.1470    8.9280 C   0  0  0  0  0  0
   30.7620  -40.0650    8.6830 C   0  0  0  0  0  0
   31.2820  -38.9480    8.0330 C   0  0  0  0  0  0
   34.7270  -39.8840    7.4470 C   0  0  0  0  0  0
   35.4270  -38.9000    6.8570 N   0  0  0  0  0  0
   36.6060  -39.2610    6.6730 N   0  0  0  0  0  0
   36.7190  -40.5270    7.0760 C   0  0  0  0  0  0
   35.5490  -40.9460    7.6310 O   0  0  0  0  0  0
   37.9700  -41.3810    7.1060 C   0  0  0  0  0  0
   39.3180  -40.7480    6.7250 C   0  0  0  0  0  0
   37.8830  -42.5650    7.4460 O   0  0  0  0  0  0
   40.4330  -41.7670    6.5250 C   0  0  0  0  0  0
   41.7410  -41.0350    6.1990 C   0  0  0  0  0  0
   42.8790  -42.0100    5.8940 C   0  0  0  0  0  0
   43.2100  -42.9790    7.0220 C   0  0  0  0  0  0
   44.3560  -43.8870    6.5650 C   0  0  0  0  0  0
   44.7420  -44.9100    7.6380 C   0  0  0  0  0  0
   44.9920  -46.2280    7.2710 C   0  0  0  0  0  0
   45.3480  -47.1690    8.2330 C   0  0  0  0  0  0
   45.4420  -46.7960    9.5690 C   0  0  0  0  0  0
   45.1830  -45.4810    9.9370 C   0  0  0  0  0  0
   44.8370  -44.5380    8.9720 C   0  0  0  0  0  0
   33.6249  -41.9228    8.7094 H   0  0  0  0  0  0
   31.2370  -42.0337    9.4376 H   0  0  0  0  0  0
   29.7174  -40.0951    8.9929 H   0  0  0  0  0  0
   30.6366  -38.0935    7.8298 H   0  0  0  0  0  0
   39.2082  -40.1909    5.7829 H   0  0  0  0  0  0
   39.6388  -40.0610    7.5220 H   0  0  0  0  0  0
   40.5613  -42.3555    7.4455 H   0  0  0  0  0  0
   40.1713  -42.4385    5.6940 H   0  0  0  0  0  0
   41.5921  -40.3929    5.3184 H   0  0  0  0  0  0
   42.0387  -40.4159    7.0581 H   0  0  0  0  0  0
   42.6135  -42.6212    5.0189 H   0  0  0  0  0  0
   43.7987  -41.4452    5.6813 H   0  0  0  0  0  0
   43.5139  -42.4125    7.9146 H   0  0  0  0  0  0
   42.3226  -43.5851    7.2570 H   0  0  0  0  0  0
   44.0511  -44.4358    5.6618 H   0  0  0  0  0  0
   45.2418  -43.2747    6.3404 H   0  0  0  0  0  0
   44.9088  -46.5254    6.2257 H   0  0  0  0  0  0
   45.5531  -48.1983    7.9388 H   0  0  0  0  0  0
   45.7176  -47.5317   10.3246 H   0  0  0  0  0  0
   45.2509  -45.1866   10.9843 H   0  0  0  0  0  0
   44.6406  -43.5066    9.2647 H   0  0  0  0  0  0
  1  2  2  0  0  0
  1  6  1  0  0  0
  2  3  1  0  0  0
  2  7  1  0  0  0
  3  4  2  0  0  0
  3 26  1  0  0  0
  4  5  1  0  0  0
  4 27  1  0  0  0
  5  6  2  0  0  0
  5 28  1  0  0  0
  6 29  1  0  0  0
  7  8  2  0  0  0
  7 11  1  0  0  0
  8  9  1  0  0  0
  9 10  2  0  0  0
 10 11  1  0  0  0
 10 12  1  0  0  0
 12 13  1  0  0  0
 12 14  2  0  0  0
 13 15  1  0  0  0
 13 30  1  0  0  0
 13 31  1  0  0  0
 15 16  1  0  0  0
 15 32  1  0  0  0
 15 33  1  0  0  0
 16 17  1  0  0  0
 16 34  1  0  0  0
 16 35  1  0  0  0
 17 18  1  0  0  0
 17 36  1  0  0  0
 17 37  1  0  0  0
 18 19  1  0  0  0
 18 38  1  0  0  0
 18 39  1  0  0  0
 19 20  1  0  0  0
 19 40  1  0  0  0
 19 41  1  0  0  0
 20 21  2  0  0  0
 20 25  1  0  0  0
 21 22  1  0  0  0
 21 42  1  0  0  0
 22 23  2  0  0  0
 22 43  1  0  0  0
 23 24  1  0  0  0
 23 44  1  0  0  0
 24 25  2  0  0  0
 24 45  1  0  0  0
 25 46  1  0  0  0
M  END
> <s_m_source_file>
../3ppm_ligand.sdf

> <i_m_source_file_index>
1

> <s_epik_input>
W2NIXTFbY0hdW2NIXVtjSF1uYzEtYzJubmMobzIpQyg9TylbQ0gyXVtDSDJdW0NIMl1bQ0gyXVtDSDJdW0NIMl1jM1tjSF1bY0hdW2NIXVtjSF1bY0hdMw==

> <s_epik_cmdline>
J2VwaWtfYXBwJywgJy1pbWFlJywgJ2xpZ2FuZF9wcm8ubWFlJywgJy1vbWFlJywgJ2xpZ2FuZF9wcmVwLm1hZScsICctbXMnLCAnMScsICctcGgnLCAnNycsICctcGh0JywgJzAuNScsICctbnQn

> <r_lp_tautomer_probability>
1

> <r_epik_Ionization_Penalty>
  0.0002

> <r_epik_Ionization_Penalty_Charging>
  0.0000

> <r_epik_Ionization_Penalty_Neutral>
  0.0002

> <r_epik_State_Penalty>
 -0.0000

> <r_epik_Charging_Adjusted_Penalty>
0

> <i_epik_Tot_Q>
0

> <i_epik_Tot_abs_Q>
0

$$$$
