3pqz_ligand
                    3D
 Schrodinger Suite 2020-3.
182188  0  0  1  0            999 V2000
   -3.3480  -10.4250   15.1740 N   0  3  0  0  0  0
   -2.3790  -11.0770   14.3000 C   0  0  2  0  0  0
   -1.7040  -10.0790   13.3640 C   0  0  0  0  0  0
   -2.1240   -8.9250   13.2630 O   0  0  0  0  0  0
   -3.0550  -12.1790   13.4720 C   0  0  0  0  0  0
   -3.8470  -11.6700   12.2820 C   0  0  0  0  0  0
   -3.4340  -11.6340   10.9780 C   0  0  0  0  0  0
   -5.1810  -11.1400   12.2900 C   0  0  0  0  0  0
   -4.4240  -11.1130   10.1790 N   0  0  0  0  0  0
   -5.5060  -10.8010   10.9590 C   0  0  0  0  0  0
   -6.1310  -10.9160   13.2920 C   0  0  0  0  0  0
   -6.7350  -10.2540   10.6060 C   0  0  0  0  0  0
   -7.3510  -10.3720   12.9380 C   0  0  0  0  0  0
   -7.6420  -10.0470   11.6070 C   0  0  0  0  0  0
   -0.6520  -10.5360   12.6910 N   0  0  0  0  0  0
   -0.0430   -9.7940   11.5970 C   0  0  2  0  0  0
    0.0720  -10.7310   10.4050 C   0  0  0  0  0  0
    0.7950  -11.7270   10.4610 O   0  0  0  0  0  0
    1.3450   -9.2800   11.9790 C   0  0  0  0  0  0
    1.3270   -8.1020   12.9080 C   0  0  0  0  0  0
    1.9230   -8.1790   14.1560 C   0  0  0  0  0  0
    0.7200   -6.9150   12.5330 C   0  0  0  0  0  0
    1.9120   -7.0950   15.0130 C   0  0  0  0  0  0
    0.7050   -5.8290   13.3860 C   0  0  0  0  0  0
    1.3020   -5.9190   14.6270 C   0  0  0  0  0  0
   -0.6480  -10.4220    9.3310 N   0  0  0  0  0  0
   -0.6430  -11.2780    8.1510 C   0  0  2  0  0  0
    0.7720  -11.5540    7.6600 C   0  0  0  0  0  0
    1.5040  -10.6360    7.2920 O   0  0  0  0  0  0
   -1.4740  -10.6650    7.0260 C   0  0  0  0  0  0
   -1.2580  -11.3470    5.6890 C   0  0  0  0  0  0
   -2.5380  -11.5100    4.9000 C   0  0  0  0  0  0
   -3.5530  -10.8900    5.2770 O   0  0  0  0  0  0
   -2.5280  -12.2650    3.9060 O   0  0  0  0  0  0
    1.1500  -12.8270    7.6610 N   0  0  0  0  0  0
    2.4630  -13.2300    7.1970 C   0  0  0  0  0  0
    3.4300  -13.5080    8.3300 C   0  0  0  0  0  0
    4.5650  -13.9220    8.0980 O   0  0  0  0  0  0
    2.9830  -13.2770    9.5600 N   0  0  0  0  0  0
    3.8150  -13.5360   10.7300 C   0  0  2  0  0  0
    3.0860  -14.4140   11.7430 C   0  0  0  0  0  0
    1.9070  -14.7240   11.5730 O   0  0  0  0  0  0
    4.2800  -12.2220   11.3630 C   0  0  0  0  0  0
    5.1560  -11.4020   10.4420 C   0  0  0  0  0  0
    6.5380  -11.5470   10.4530 C   0  0  0  0  0  0
    4.6010  -10.4940    9.5510 C   0  0  0  0  0  0
    7.3420  -10.8040    9.6090 C   0  0  0  0  0  0
    5.3970   -9.7460    8.7020 C   0  0  0  0  0  0
    6.7660   -9.9060    8.7350 C   0  0  0  0  0  0
    7.5600   -9.1630    7.8920 O   0  0  0  0  0  0
    3.7920  -14.8190   12.7930 N   0  0  0  0  0  0
    3.2460  -15.7680   13.7550 C   0  0  2  0  0  0
    2.7640  -15.1120   15.0450 C   0  0  0  0  0  0
    2.4090  -15.7960   16.0030 O   0  0  0  0  0  0
    4.2680  -16.8620   14.0680 C   0  0  0  0  0  0
    4.5770  -17.7290   12.8640 C   0  0  0  0  0  0
    3.7100  -18.5420   12.4830 O   0  0  0  0  0  0
    5.6850  -17.6010   12.3020 O   0  0  0  0  0  0
    2.7520  -13.7850   15.0640 N   0  0  0  0  0  0
    2.2440  -13.0470   16.2090 C   0  0  2  0  0  0
    0.8250  -13.4790   16.5500 C   0  0  0  0  0  0
   -0.0480  -13.5080   15.6830 O   0  0  0  0  0  0
    2.2620  -11.5440   15.9260 C   0  0  0  0  0  0
    3.6360  -11.0360   15.5450 C   0  0  0  0  0  0
    4.2180  -11.4720   14.5520 O   0  0  0  0  0  0
    4.1550  -10.0940   16.3230 N   0  0  0  0  0  0
    0.6000  -13.8250   17.8120 N   0  0  0  0  0  0
   -0.7480  -14.0930   18.2940 C   0  0  2  0  0  0
   -0.9800  -13.3890   19.6260 C   0  0  0  0  0  0
   -0.2570  -13.6100   20.5970 O   0  0  0  0  0  0
   -1.0460  -15.6050   18.4140 C   0  0  2  0  0  0
   -2.3630  -15.7930   18.9440 O   0  0  0  0  0  0
   -0.0380  -16.2880   19.3240 C   0  0  0  0  0  0
   -1.9880  -12.5260   19.6530 N   0  0  0  0  0  0
   -2.3080  -11.7420   20.8360 C   0  0  2  0  0  0
   -3.7680  -11.3040   20.7760 C   0  0  0  0  0  0
   -4.4480  -11.5590   19.7830 O   0  0  0  0  0  0
   -1.3720  -10.5320   20.9410 C   0  0  0  0  0  0
   -1.3710   -9.6520   19.7230 C   0  0  0  0  0  0
   -2.1740   -8.5240   19.6660 C   0  0  0  0  0  0
   -0.5630   -9.9470   18.6380 C   0  0  0  0  0  0
   -2.1730   -7.7100   18.5480 C   0  0  0  0  0  0
   -0.5590   -9.1380   17.5170 C   0  0  0  0  0  0
   -1.3640   -8.0180   17.4720 C   0  0  0  0  0  0
   -4.2640  -10.6610   21.8460 N   0  0  0  0  0  0
   -5.6490  -10.1780   21.8490 C   0  0  2  0  0  0
   -5.9240   -9.2370   20.6840 C   0  0  0  0  0  0
   -5.2480   -8.2160   20.5450 O   0  0  0  0  0  0
   -5.7430   -9.4140   23.1700 C   0  0  0  0  0  0
   -4.7460  -10.0760   24.0490 C   0  0  0  0  0  0
   -3.6050  -10.4450   23.1470 C   0  0  0  0  0  0
   -6.9100   -9.5760   19.8610 N   0  0  0  0  0  0
   -7.2360   -8.7510   18.6900 C   0  0  1  0  0  0
   -7.5760   -9.6360   17.4830 C   0  0  0  0  0  0
   -6.2630  -10.8480   17.0640 S   0  0  0  0  0  0
   -4.7960   -9.7830   16.8350 C   0  0  0  0  0  0
   -3.5610  -10.6090   16.4470 C   0  0  1  0  0  0
   -3.4670  -11.7920   16.7710 O   0  0  0  0  0  0
   -8.4030   -7.8060   19.0060 C   0  0  0  0  0  0
   -8.8540   -7.0380   18.1590 O   0  0  0  0  0  0
   -8.9101   -7.8176   20.1594 O   0  0  0  0  0  0
   -3.1594   -9.3414   15.1867 H   0  0  0  0  0  0
   -4.3650  -10.6158   14.8008 H   0  0  0  0  0  0
   -1.6307  -11.4997   14.9866 H   0  0  0  0  0  0
   -2.2894  -12.8643   13.0792 H   0  0  0  0  0  0
   -3.7559  -12.7385   14.1090 H   0  0  0  0  0  0
   -2.4596  -11.9702   10.6235 H   0  0  0  0  0  0
   -5.9135  -11.1654   14.3305 H   0  0  0  0  0  0
   -6.9658  -10.0003    9.5714 H   0  0  0  0  0  0
   -8.1006  -10.1925   13.7087 H   0  0  0  0  0  0
   -8.6146   -9.6190   11.3640 H   0  0  0  0  0  0
   -0.2426  -11.5128   12.9881 H   0  0  0  0  0  0
   -0.7005   -8.9372   11.3881 H   0  0  0  0  0  0
    1.9069  -10.0807   12.4821 H   0  0  0  0  0  0
    1.8833   -8.9687   11.0716 H   0  0  0  0  0  0
    2.4064   -9.1056   14.4657 H   0  0  0  0  0  0
    0.2487   -6.8370   11.5533 H   0  0  0  0  0  0
    2.3845   -7.1688   15.9925 H   0  0  0  0  0  0
    0.2219   -4.9013   13.0793 H   0  0  0  0  0  0
    1.2917   -5.0625   15.3011 H   0  0  0  0  0  0
   -1.2540   -9.5040    9.3420 H   0  0  0  0  0  0
   -1.0993  -12.2181    8.4946 H   0  0  0  0  0  0
   -2.5427  -10.7466    7.2733 H   0  0  0  0  0  0
   -1.2050   -9.6050    6.9071 H   0  0  0  0  0  0
   -0.5625  -10.7499    5.0809 H   0  0  0  0  0  0
   -0.8346  -12.3490    5.8526 H   0  0  0  0  0  0
   -3.4432  -12.4042    3.3119 H   0  0  0  0  0  0
    0.4394  -13.5834    8.0255 H   0  0  0  0  0  0
    2.3745  -14.1492    6.5994 H   0  0  0  0  0  0
    2.8945  -12.4300    6.5774 H   0  0  0  0  0  0
    1.9639  -12.8827    9.6862 H   0  0  0  0  0  0
    4.6872  -14.0891   10.3512 H   0  0  0  0  0  0
    3.4037  -11.6104   11.6239 H   0  0  0  0  0  0
    4.8601  -12.4381   12.2723 H   0  0  0  0  0  0
    6.9961  -12.2592   11.1393 H   0  0  0  0  0  0
    3.5188  -10.3680    9.5196 H   0  0  0  0  0  0
    8.4247  -10.9271    9.6341 H   0  0  0  0  0  0
    4.9446   -9.0345    8.0112 H   0  0  0  0  0  0
    8.6528   -9.2869    7.9144 H   0  0  0  0  0  0
    4.8091  -14.4224   12.9282 H   0  0  0  0  0  0
    2.3680  -16.1811   13.2368 H   0  0  0  0  0  0
    5.2084  -16.4002   14.4031 H   0  0  0  0  0  0
    3.8759  -17.5135   14.8628 H   0  0  0  0  0  0
    5.9322  -18.2191   11.4263 H   0  0  0  0  0  0
    3.1378  -13.2434   14.1877 H   0  0  0  0  0  0
    2.9235  -13.3004   17.0361 H   0  0  0  0  0  0
    1.5779  -11.3193   15.0944 H   0  0  0  0  0  0
    1.9388  -10.9978   16.8244 H   0  0  0  0  0  0
    3.5965   -9.7360   17.2004 H   0  0  0  0  0  0
    5.1436   -9.6714   16.0903 H   0  0  0  0  0  0
    1.4560  -13.9078   18.4979 H   0  0  0  0  0  0
   -1.4005  -13.6623   17.5202 H   0  0  0  0  0  0
   -1.0378  -16.0855   17.4245 H   0  0  0  0  0  0
   -3.2323  -15.3683   18.4206 H   0  0  0  0  0  0
    0.9754  -16.1460   18.9205 H   0  0  0  0  0  0
   -0.2634  -17.3632   19.3791 H   0  0  0  0  0  0
   -0.0966  -15.8489   20.3309 H   0  0  0  0  0  0
   -2.5904  -12.4140   18.7394 H   0  0  0  0  0  0
   -2.1525  -12.4005   21.7033 H   0  0  0  0  0  0
   -1.6759   -9.9062   21.7931 H   0  0  0  0  0  0
   -0.3391  -10.8793   21.0911 H   0  0  0  0  0  0
   -2.8141   -8.2754   20.5125 H   0  0  0  0  0  0
    0.0779  -10.8281   18.6681 H   0  0  0  0  0  0
   -2.8101   -6.8262   18.5161 H   0  0  0  0  0  0
    0.0798   -9.3847   16.6689 H   0  0  0  0  0  0
   -1.3613   -7.3782   16.5895 H   0  0  0  0  0  0
   -6.3490  -11.0199   21.7436 H   0  0  0  0  0  0
   -5.5018   -8.3545   22.9988 H   0  0  0  0  0  0
   -6.7643   -9.4975   23.5700 H   0  0  0  0  0  0
   -4.4281   -9.3755   24.8353 H   0  0  0  0  0  0
   -5.1983  -10.9657   24.5115 H   0  0  0  0  0  0
   -3.1013  -11.3711   23.4611 H   0  0  0  0  0  0
   -2.8634   -9.6380   23.0529 H   0  0  0  0  0  0
   -7.4859  -10.4902   20.0673 H   0  0  0  0  0  0
   -6.3305   -8.1645   18.4753 H   0  0  0  0  0  0
   -8.4930  -10.2061   17.6931 H   0  0  0  0  0  0
   -7.7325   -9.0033   16.5969 H   0  0  0  0  0  0
   -4.9938   -9.0534   16.0359 H   0  0  0  0  0  0
   -4.5797   -9.2502   17.7727 H   0  0  0  0  0  0
   -2.6314  -10.4357   17.0090 H   0  0  0  0  0  0
   -2.5763  -12.3712   16.4860 H   0  0  0  0  0  0
   -9.7471   -7.1452   20.3990 H   0  0  0  0  0  0
  1  2  1  0  0  0
  1 97  1  0  0  0
  1102  1  0  0  0
  1103  1  0  0  0
  2  3  1  0  0  0
  2  5  1  0  0  0
  2104  1  0  0  0
  3  4  2  0  0  0
  3 15  1  0  0  0
  5  6  1  0  0  0
  5105  1  0  0  0
  5106  1  0  0  0
  6  7  2  0  0  0
  6  8  1  0  0  0
  7  9  1  0  0  0
  7107  1  0  0  0
  8 10  2  0  0  0
  8 11  1  0  0  0
  9 10  1  0  0  0
 10 12  1  0  0  0
 11 13  2  0  0  0
 11108  1  0  0  0
 12 14  2  0  0  0
 12109  1  0  0  0
 13 14  1  0  0  0
 13110  1  0  0  0
 14111  1  0  0  0
 15 16  1  0  0  0
 15112  1  0  0  0
 16 17  1  0  0  0
 16 19  1  0  0  0
 16113  1  0  0  0
 17 18  2  0  0  0
 17 26  1  0  0  0
 19 20  1  0  0  0
 19114  1  0  0  0
 19115  1  0  0  0
 20 21  2  0  0  0
 20 22  1  0  0  0
 21 23  1  0  0  0
 21116  1  0  0  0
 22 24  2  0  0  0
 22117  1  0  0  0
 23 25  2  0  0  0
 23118  1  0  0  0
 24 25  1  0  0  0
 24119  1  0  0  0
 25120  1  0  0  0
 26 27  1  0  0  0
 26121  1  0  0  0
 27 28  1  0  0  0
 27 30  1  0  0  0
 27122  1  0  0  0
 28 29  2  0  0  0
 28 35  1  0  0  0
 30 31  1  0  0  0
 30123  1  0  0  0
 30124  1  0  0  0
 31 32  1  0  0  0
 31125  1  0  0  0
 31126  1  0  0  0
 32 33  2  0  0  0
 32 34  1  0  0  0
 34127  1  0  0  0
 35 36  1  0  0  0
 35128  1  0  0  0
 36 37  1  0  0  0
 36129  1  0  0  0
 36130  1  0  0  0
 37 38  2  0  0  0
 37 39  1  0  0  0
 39 40  1  0  0  0
 39131  1  0  0  0
 40 41  1  0  0  0
 40 43  1  0  0  0
 40132  1  0  0  0
 41 42  2  0  0  0
 41 51  1  0  0  0
 43 44  1  0  0  0
 43133  1  0  0  0
 43134  1  0  0  0
 44 45  2  0  0  0
 44 46  1  0  0  0
 45 47  1  0  0  0
 45135  1  0  0  0
 46 48  2  0  0  0
 46136  1  0  0  0
 47 49  2  0  0  0
 47137  1  0  0  0
 48 49  1  0  0  0
 48138  1  0  0  0
 49 50  1  0  0  0
 50139  1  0  0  0
 51 52  1  0  0  0
 51140  1  0  0  0
 52 53  1  0  0  0
 52 55  1  0  0  0
 52141  1  0  0  0
 53 54  2  0  0  0
 53 59  1  0  0  0
 55 56  1  0  0  0
 55142  1  0  0  0
 55143  1  0  0  0
 56 57  2  0  0  0
 56 58  1  0  0  0
 58144  1  0  0  0
 59 60  1  0  0  0
 59145  1  0  0  0
 60 61  1  0  0  0
 60 63  1  0  0  0
 60146  1  0  0  0
 61 62  2  0  0  0
 61 67  1  0  0  0
 63 64  1  0  0  0
 63147  1  0  0  0
 63148  1  0  0  0
 64 65  2  0  0  0
 64 66  1  0  0  0
 66149  1  0  0  0
 66150  1  0  0  0
 67 68  1  0  0  0
 67151  1  0  0  0
 68 69  1  0  0  0
 68 71  1  0  0  0
 68152  1  0  0  0
 69 70  2  0  0  0
 69 74  1  0  0  0
 71 72  1  0  0  0
 71 73  1  0  0  0
 71153  1  0  0  0
 72154  1  0  0  0
 73155  1  0  0  0
 73156  1  0  0  0
 73157  1  0  0  0
 74 75  1  0  0  0
 74158  1  0  0  0
 75 76  1  0  0  0
 75 78  1  0  0  0
 75159  1  0  0  0
 76 77  2  0  0  0
 76 85  1  0  0  0
 78 79  1  0  0  0
 78160  1  0  0  0
 78161  1  0  0  0
 79 80  2  0  0  0
 79 81  1  0  0  0
 80 82  1  0  0  0
 80162  1  0  0  0
 81 83  2  0  0  0
 81163  1  0  0  0
 82 84  2  0  0  0
 82164  1  0  0  0
 83 84  1  0  0  0
 83165  1  0  0  0
 84166  1  0  0  0
 85 86  1  0  0  0
 85 91  1  0  0  0
 86 87  1  0  0  0
 86 89  1  0  0  0
 86167  1  0  0  0
 87 88  2  0  0  0
 87 92  1  0  0  0
 89 90  1  0  0  0
 89168  1  0  0  0
 89169  1  0  0  0
 90 91  1  0  0  0
 90170  1  0  0  0
 90171  1  0  0  0
 91172  1  0  0  0
 91173  1  0  0  0
 92 93  1  0  0  0
 92174  1  0  0  0
 93 94  1  0  0  0
 93 99  1  0  0  0
 93175  1  0  0  0
 94 95  1  0  0  0
 94176  1  0  0  0
 94177  1  0  0  0
 95 96  1  0  0  0
 96 97  1  0  0  0
 96178  1  0  0  0
 96179  1  0  0  0
 97 98  1  0  0  0
 97180  1  0  0  0
 98181  1  0  0  0
 99100  2  0  0  0
 99101  1  0  0  0
101182  1  0  0  0
M  CHG  1   1   1
M  END
> <s_m_source_file>
../3pqz_ligand.sdf

> <i_m_source_file_index>
1

> <s_epik_input>
W0NIMl0xW0NIMl1bQ0gyXVtDQEhdKE4xMilDKD1PKVtOSF1bQ0BIXShDKD1PKVtPSF0pW0NIMl1TW0NIMl1bQ0BASF0oW09IXSlbTkgyK11bQ0BASF0oW0NIMl1jM1tjSF1bbkhdYyhjMzQpW2NIXVtjSF1bY0hdW2NIXTQpQyg9TylbTkhdW0NAQEhdKFtDSDJdYzVbY0hdW2NIXVtjSF1bY0hdW2NIXTUpQyg9TylbTkhdW0NAQEhdKFtDSDJdW0NIMl1DKD1PKVtPSF0pQyg9TylbTkhdW0NIMl1DKD1PKVtOSF1bQ0BASF0oW0NIMl1jNltjSF1bY0hdYyhbT0hdKVtjSF1bY0hdNilDKD1PKVtOSF1bQ0BASF0oW0NIMl1DKD1PKVtPSF0pQyg9TylbTkhdW0NAQEhdKFtDSDJdQyg9TylbTkgyXSlDKD1PKVtOSF1bQ0BASF0oW0NASF0oW09IXSlbQ0gzXSlDKD1PKVtOSF1bQ0BIXShDMj1PKVtDSDJdYzdbY0hdW2NIXVtjSF1bY0hdW2NIXTc=

> <s_epik_cmdline>
J2VwaWtfYXBwJywgJy1pbWFlJywgJ2xpZ2FuZF9wcm8ubWFlJywgJy1vbWFlJywgJ2xpZ2FuZF9wcmVwLm1hZScsICctbXMnLCAnMScsICctcGgnLCAnNycsICctcGh0JywgJzAuNScsICctbnQn

> <s_epik_pKa_notes>
Molecule size exceeds maximum supported for generating protonation states

> <s_epik_Chemistry_Notes>
This compound contains an acetal/aminal-like group ( X-CH(R)-Y where X, Y are N, S, or O) that may be acid/base labile, releasing an aldehyde.

$$$$
