3pr0_ligand
                    3D
 Schrodinger Suite 2020-3.
 48 50  0  0  1  0            999 V2000
  -14.2230   35.8300   -6.1820 N   0  0  0  0  0  0
  -14.4570   37.1550   -6.2180 C   0  0  0  0  0  0
  -15.2310   37.7190   -7.2290 C   0  0  0  0  0  0
  -15.7660   36.8870   -8.2030 C   0  0  0  0  0  0
  -15.5040   35.5200   -8.1330 C   0  0  0  0  0  0
  -14.7210   35.0190   -7.0990 C   0  0  0  0  0  0
  -13.8940   37.9570   -5.2330 C   0  0  0  0  0  0
  -13.1320   37.5540   -4.2300 N   0  0  0  0  0  0
  -12.7950   38.5260   -3.5490 N   0  0  0  0  0  0
  -13.3030   39.6280   -4.0720 C   0  0  0  0  0  0
  -14.0310   39.3150   -5.1670 O   0  0  0  0  0  0
  -13.0860   41.0180   -3.5040 C   0  0  2  0  0  0
  -14.2720   41.9250   -3.8840 C   0  0  0  0  0  0
  -11.8730   41.5100   -4.0950 O   0  0  0  0  0  0
  -14.1510   43.3330   -3.2620 C   0  0  0  0  0  0
  -15.3370   44.2350   -3.6560 C   0  0  0  0  0  0
  -15.3380   44.4960   -5.1560 C   0  0  0  0  0  0
  -16.5270   45.3260   -5.6580 C   0  0  0  0  0  0
  -16.3060   45.5090   -7.1600 C   0  0  0  0  0  0
  -17.4280   46.1920   -7.9380 C   0  0  0  0  0  0
  -17.1530   46.7070   -9.2080 C   0  0  0  0  0  0
  -18.1650   47.2940   -9.9610 C   0  0  0  0  0  0
  -19.4600   47.3390   -9.4480 C   0  0  0  0  0  0
  -19.7390   46.8030   -8.1880 C   0  0  0  0  0  0
  -18.7270   46.2160   -7.4340 C   0  0  0  0  0  0
  -15.4133   38.7933   -7.2551 H   0  0  0  0  0  0
  -16.3790   37.2949   -9.0067 H   0  0  0  0  0  0
  -15.9115   34.8458   -8.8863 H   0  0  0  0  0  0
  -14.5165   33.9498   -7.0443 H   0  0  0  0  0  0
  -12.9512   41.0116   -2.4123 H   0  0  0  0  0  0
  -14.3126   42.0366   -4.9776 H   0  0  0  0  0  0
  -15.2088   41.4726   -3.5266 H   0  0  0  0  0  0
  -10.9242   40.9797   -3.9258 H   0  0  0  0  0  0
  -14.1299   43.2488   -2.1654 H   0  0  0  0  0  0
  -13.2231   43.8096   -3.6111 H   0  0  0  0  0  0
  -16.2805   43.7415   -3.3800 H   0  0  0  0  0  0
  -15.2579   45.1965   -3.1275 H   0  0  0  0  0  0
  -14.4258   45.0447   -5.4333 H   0  0  0  0  0  0
  -15.3674   43.5375   -5.6950 H   0  0  0  0  0  0
  -17.4632   44.7848   -5.4563 H   0  0  0  0  0  0
  -16.5440   46.2947   -5.1371 H   0  0  0  0  0  0
  -15.4091   46.1236   -7.3264 H   0  0  0  0  0  0
  -16.1694   44.5254   -7.6331 H   0  0  0  0  0  0
  -16.1416   46.6485   -9.6101 H   0  0  0  0  0  0
  -17.9471   47.7146  -10.9427 H   0  0  0  0  0  0
  -20.2593   47.7946  -10.0325 H   0  0  0  0  0  0
  -20.7543   46.8448   -7.7937 H   0  0  0  0  0  0
  -18.9481   45.7798   -6.4599 H   0  0  0  0  0  0
  1  2  2  0  0  0
  1  6  1  0  0  0
  2  3  1  0  0  0
  2  7  1  0  0  0
  3  4  2  0  0  0
  3 26  1  0  0  0
  4  5  1  0  0  0
  4 27  1  0  0  0
  5  6  2  0  0  0
  5 28  1  0  0  0
  6 29  1  0  0  0
  7  8  2  0  0  0
  7 11  1  0  0  0
  8  9  1  0  0  0
  9 10  2  0  0  0
 10 11  1  0  0  0
 10 12  1  0  0  0
 12 13  1  0  0  0
 12 14  1  0  0  0
 12 30  1  0  0  0
 13 15  1  0  0  0
 13 31  1  0  0  0
 13 32  1  0  0  0
 14 33  1  0  0  0
 15 16  1  0  0  0
 15 34  1  0  0  0
 15 35  1  0  0  0
 16 17  1  0  0  0
 16 36  1  0  0  0
 16 37  1  0  0  0
 17 18  1  0  0  0
 17 38  1  0  0  0
 17 39  1  0  0  0
 18 19  1  0  0  0
 18 40  1  0  0  0
 18 41  1  0  0  0
 19 20  1  0  0  0
 19 42  1  0  0  0
 19 43  1  0  0  0
 20 21  2  0  0  0
 20 25  1  0  0  0
 21 22  1  0  0  0
 21 44  1  0  0  0
 22 23  2  0  0  0
 22 45  1  0  0  0
 23 24  1  0  0  0
 23 46  1  0  0  0
 24 25  2  0  0  0
 24 47  1  0  0  0
 25 48  1  0  0  0
M  END
> <s_m_source_file>
../3pr0_ligand.sdf

> <i_m_source_file_index>
1

> <s_epik_input>
W2NIXTFbY0hdW2NIXVtjSF1uYzEtYzJubmMobzIpW0NAQEhdKFtPSF0pW0NIMl1bQ0gyXVtDSDJdW0NIMl1bQ0gyXVtDSDJdYzNbY0hdW2NIXVtjSF1bY0hdW2NIXTM=

> <s_epik_cmdline>
J2VwaWtfYXBwJywgJy1pbWFlJywgJ2xpZ2FuZF9wcm8ubWFlJywgJy1vbWFlJywgJ2xpZ2FuZF9wcmVwLm1hZScsICctbXMnLCAnMScsICctcGgnLCAnNycsICctcGh0JywgJzAuNScsICctbnQn

> <r_lp_tautomer_probability>
1

> <r_epik_Ionization_Penalty>
  0.0002

> <r_epik_Ionization_Penalty_Charging>
  0.0000

> <r_epik_Ionization_Penalty_Neutral>
  0.0002

> <r_epik_State_Penalty>
 -0.0000

> <r_epik_Charging_Adjusted_Penalty>
0

> <i_epik_Tot_Q>
0

> <i_epik_Tot_abs_Q>
0

$$$$
