3prz_ligand
                    3D
 Schrodinger Suite 2020-3.
 31 33  0  0  1  0            999 V2000
   45.0840   11.6540   28.1400 C   0  0  0  0  0  0
   47.0800   12.8710   28.6430 N   0  0  0  0  0  0
   47.6880   13.8510   29.3170 C   0  0  0  0  0  0
   49.0510   14.0620   29.0950 N   0  0  0  0  0  0
   47.0000   14.6500   30.2100 C   0  0  0  0  0  0
   45.6410   14.4230   30.3900 C   0  0  0  0  0  0
   44.9730   15.2460   31.2890 C   0  0  0  0  0  0
   45.0210   13.4490   29.7120 N   0  0  0  0  0  0
   45.7740   12.7280   28.8800 C   0  0  0  0  0  0
   46.9750   16.4670   31.7720 C   0  0  0  0  0  0
   45.6300   16.2520   31.9720 C   0  0  0  0  0  0
   47.6550   15.6570   30.8910 C   0  0  0  0  0  0
   43.5350   15.0910   31.5970 C   0  0  0  0  0  0
   43.0290   15.8360   32.4270 O   0  5  0  0  0  0
   42.8810   14.0770   30.9200 N   0  0  0  0  0  0
   41.5970   13.6710   31.2610 C   0  0  0  0  0  0
   40.8200   12.7810   30.4790 C   0  0  0  0  0  0
   39.6420   12.6310   31.1640 C   0  0  0  0  0  0
   39.7550   13.4130   32.2740 N   0  0  0  0  0  0
   40.9330   14.0460   32.3640 N   0  3  0  0  0  0
   45.8045   11.1343   27.4913 H   0  0  0  0  0  0
   44.2834   12.0892   27.5239 H   0  0  0  0  0  0
   44.6498   10.9379   28.8532 H   0  0  0  0  0  0
   49.5975   13.4252   28.3838 H   0  0  0  0  0  0
   49.5778   14.8650   29.6314 H   0  0  0  0  0  0
   47.4931   17.2658   32.3027 H   0  0  0  0  0  0
   45.0798   16.8791   32.6734 H   0  0  0  0  0  0
   48.7217   15.8121   30.7292 H   0  0  0  0  0  0
   41.2240   12.3797   29.5379 H   0  0  0  0  0  0
   38.7903   12.0133   30.8792 H   0  0  0  0  0  0
   41.1437   14.6959   33.2261 H   0  0  0  0  0  0
  1  9  1  0  0  0
  1 21  1  0  0  0
  1 22  1  0  0  0
  1 23  1  0  0  0
  2  3  2  0  0  0
  2  9  1  0  0  0
  3  4  1  0  0  0
  3  5  1  0  0  0
  4 24  1  0  0  0
  4 25  1  0  0  0
  5  6  2  0  0  0
  5 12  1  0  0  0
  6  7  1  0  0  0
  6  8  1  0  0  0
  7 11  2  0  0  0
  7 13  1  0  0  0
  8  9  2  0  0  0
 10 11  1  0  0  0
 10 12  2  0  0  0
 10 26  1  0  0  0
 11 27  1  0  0  0
 12 28  1  0  0  0
 13 14  1  0  0  0
 13 15  2  0  0  0
 15 16  1  0  0  0
 16 17  2  0  0  0
 16 20  1  0  0  0
 17 18  1  0  0  0
 17 29  1  0  0  0
 18 19  1  0  0  0
 18 30  1  0  0  0
 19 20  2  0  0  0
 20 31  1  0  0  0
M  CHG  2  14  -1  20   1
M  END
> <s_m_source_file>
../3prz_ligand.sdf

> <i_m_source_file_index>
1

> <s_epik_input>
W05IMl1jMW5jKFtDSDNdKW5jKGMxMiljKFtjSF1bY0hdW2NIXTIpQyg9TylbTkhdQzM9W0NIXVtDSDJdTj1OMw==

> <s_epik_cmdline>
J2VwaWtfYXBwJywgJy1pbWFlJywgJ2xpZ2FuZF9wcm8ubWFlJywgJy1vbWFlJywgJ2xpZ2FuZF9wcmVwLm1hZScsICctbXMnLCAnMScsICctcGgnLCAnNycsICctcGh0JywgJzAuNScsICctbnQn

> <r_lp_tautomer_probability>
1

> <r_epik_Ionization_Penalty>
  0.0051

> <r_epik_Ionization_Penalty_Charging>
  0.0000

> <r_epik_Ionization_Penalty_Neutral>
  0.0051

> <r_epik_State_Penalty>
 -0.0000

> <r_epik_Charging_Adjusted_Penalty>
1.1148366037502e-10

> <i_epik_Tot_Q>
0

> <i_epik_Tot_abs_Q>
2

> <s_epik_Chemistry_Notes>
This compound has an imine and may undergo hydrolysis.

$$$$
