3ps1_ligand
                    3D
 Schrodinger Suite 2020-3.
 45 46  0  0  1  0            999 V2000
   31.1800   -9.5670  -10.7370 C   0  0  0  0  0  0
   31.2290   -7.3220  -13.8030 C   0  0  0  0  0  0
   30.5710   -6.1010  -16.1550 C   0  0  0  0  0  0
   29.8660   -4.8160  -18.4500 C   0  0  0  0  0  0
   29.1240   -3.4550  -20.7630 C   0  0  0  0  0  0
   30.4690   -3.4720  -20.3650 C   0  0  0  0  0  0
   32.6250   -7.3850  -11.7380 C   0  0  0  0  0  0
   30.7580  -10.1020   -5.7090 C   0  0  2  0  0  0
   29.3580  -10.0740   -6.2250 C   0  0  0  0  0  0
   30.3710  -12.7360   -7.2580 O   0  0  0  0  0  0
   31.3690  -12.3010   -6.7130 C   0  0  0  0  0  0
   32.2980  -13.2280   -6.1670 N   0  0  0  0  0  0
   31.9980  -14.4920   -6.2370 O   0  0  0  0  0  0
   31.6510  -10.8280   -6.6770 C   0  0  1  0  0  0
   31.4730  -10.3240   -8.0220 N   0  0  0  0  0  0
   32.5160   -9.5750   -8.6470 C   0  0  0  0  0  0
   33.4560   -9.1640   -7.9950 O   0  0  0  0  0  0
   32.2340   -9.0240  -10.0010 C   0  0  0  0  0  0
   30.8450   -9.0290  -11.9840 C   0  0  0  0  0  0
   31.5880   -7.9460  -12.4850 C   0  0  0  0  0  0
   30.9410   -6.7910  -14.8690 C   0  0  0  0  0  0
   30.2500   -5.5240  -17.1860 C   0  0  0  0  0  0
   28.5190   -4.7910  -18.8360 C   0  0  0  0  0  0
   28.1510   -4.1140  -19.9990 C   0  0  0  0  0  0
   28.7430   -2.7540  -21.9460 N   0  0  0  0  0  0
   30.8400   -4.1480  -19.2030 C   0  0  0  0  0  0
   32.9650   -7.9290  -10.4910 C   0  0  0  0  0  0
   30.7620  -10.7310   -4.4920 O   0  0  0  0  0  0
   30.6170  -10.4115  -10.3396 H   0  0  0  0  0  0
   31.2222   -2.9582  -20.9624 H   0  0  0  0  0  0
   33.1706   -6.5239  -12.1239 H   0  0  0  0  0  0
   31.1412   -9.0911   -5.5056 H   0  0  0  0  0  0
   29.3378   -9.5713   -7.2032 H   0  0  0  0  0  0
   28.7175   -9.5263   -5.5180 H   0  0  0  0  0  0
   28.9868  -11.1037   -6.3341 H   0  0  0  0  0  0
   32.6879  -10.6418   -6.3605 H   0  0  0  0  0  0
   30.5347  -10.5179   -8.5623 H   0  0  0  0  0  0
   30.0181   -9.4444  -12.5600 H   0  0  0  0  0  0
   27.7650   -5.2964  -18.2325 H   0  0  0  0  0  0
   27.1074   -4.0975  -20.3134 H   0  0  0  0  0  0
   29.5044   -2.2359  -22.5476 H   0  0  0  0  0  0
   27.6879   -2.7317  -22.2564 H   0  0  0  0  0  0
   31.8818   -4.1565  -18.8826 H   0  0  0  0  0  0
   33.7854   -7.5079   -9.9098 H   0  0  0  0  0  0
   30.1591  -10.3303   -3.6638 H   0  0  0  0  0  0
  1 18  2  0  0  0
  1 19  1  0  0  0
  1 29  1  0  0  0
  2 20  1  0  0  0
  2 21  3  0  0  0
  3 21  1  0  0  0
  3 22  3  0  0  0
  4 22  1  0  0  0
  4 23  2  0  0  0
  4 26  1  0  0  0
  5  6  1  0  0  0
  5 24  2  0  0  0
  5 25  1  0  0  0
  6 26  2  0  0  0
  6 30  1  0  0  0
  7 20  1  0  0  0
  7 27  2  0  0  0
  7 31  1  0  0  0
  8  9  1  0  0  0
  8 14  1  0  0  0
  8 28  1  0  0  0
  8 32  1  0  0  0
  9 33  1  0  0  0
  9 34  1  0  0  0
  9 35  1  0  0  0
 10 11  2  0  0  0
 11 12  1  0  0  0
 11 14  1  0  0  0
 12 13  2  0  0  0
 14 15  1  0  0  0
 14 36  1  0  0  0
 15 16  1  0  0  0
 15 37  1  0  0  0
 16 17  2  0  0  0
 16 18  1  0  0  0
 18 27  1  0  0  0
 19 20  2  0  0  0
 19 38  1  0  0  0
 23 24  1  0  0  0
 23 39  1  0  0  0
 24 40  1  0  0  0
 25 41  1  0  0  0
 25 42  1  0  0  0
 26 43  1  0  0  0
 27 44  1  0  0  0
 28 45  1  0  0  0
M  END
> <s_m_source_file>
../3ps1_ligand.sdf

> <i_m_source_file_index>
1

> <s_epik_input>
Tz1OQyg9TylbQ0BIXShbQ0BASF0oW0NIM10pW09IXSlbTkhdQyg9TyljMVtjSF1bY0hdYyhbY0hdW2NIXTEpQyNDQyNDYzJbY0hdW2NIXWMoW05IMl0pW2NIXVtjSF0y

> <s_epik_cmdline>
J2VwaWtfYXBwJywgJy1pbWFlJywgJ2xpZ2FuZF9wcm8ubWFlJywgJy1vbWFlJywgJ2xpZ2FuZF9wcmVwLm1hZScsICctbXMnLCAnMScsICctcGgnLCAnNycsICctcGh0JywgJzAuNScsICctbnQn

> <r_lp_tautomer_probability>
1

> <r_epik_Ionization_Penalty>
  0.0001

> <r_epik_Ionization_Penalty_Charging>
  0.0000

> <r_epik_Ionization_Penalty_Neutral>
  0.0001

> <r_epik_State_Penalty>
 -0.0000

> <r_epik_Charging_Adjusted_Penalty>
0

> <i_epik_Tot_Q>
0

> <i_epik_Tot_abs_Q>
0

$$$$
