3ps6_ligand
                    3D
 Schrodinger Suite 2020-3.
 38 40  0  0  1  0            999 V2000
   44.5940   11.6750   28.3280 C   0  0  0  0  0  0
   46.6740   12.7840   28.5730 N   0  0  0  0  0  0
   47.3750   13.7530   29.1620 C   0  0  0  0  0  0
   48.7240   13.8890   28.8100 N   0  0  0  0  0  0
   46.7930   14.5890   30.0950 C   0  0  0  0  0  0
   45.4490   14.4200   30.4010 C   0  0  0  0  0  0
   44.8570   15.2550   31.3300 C   0  0  0  0  0  0
   44.7340   13.4660   29.8170 N   0  0  0  0  0  0
   45.3990   12.7130   28.9500 C   0  0  0  0  0  0
   46.9260   16.4180   31.6220 C   0  0  0  0  0  0
   45.5950   16.2490   31.9420 C   0  0  0  0  0  0
   47.5260   15.5840   30.7030 C   0  0  0  0  0  0
   43.4340   15.1010   31.7190 C   0  0  0  0  0  0
   42.9980   15.8250   32.6080 O   0  0  0  0  0  0
   42.7110   14.1150   31.0460 N   0  0  0  0  0  0
   41.4540   13.6410   31.3690 C   0  0  0  0  0  0
   40.6710   12.8660   30.3880 C   0  0  0  0  0  0
   39.4030   12.4140   30.7320 N   0  0  0  0  0  0
   38.8960   12.6760   31.9020 C   0  0  0  0  0  0
   39.5340   13.3320   32.8750 C   0  0  0  0  0  0
   40.8420   13.8070   32.5480 C   0  0  0  0  0  0
   37.6700   12.2280   32.3080 O   0  0  0  0  0  0
   36.6170   13.1830   32.2240 C   0  0  0  0  0  0
   45.2162   11.0991   27.6271 H   0  0  0  0  0  0
   43.7582   12.1370   27.7820 H   0  0  0  0  0  0
   44.1984   11.0034   29.1041 H   0  0  0  0  0  0
   49.1688   13.2132   28.0647 H   0  0  0  0  0  0
   49.3386   14.6716   29.2789 H   0  0  0  0  0  0
   47.5037   17.2115   32.0961 H   0  0  0  0  0  0
   45.1252   16.9007   32.6787 H   0  0  0  0  0  0
   48.5803   15.7119   30.4575 H   0  0  0  0  0  0
   43.1393   13.6293   30.1568 H   0  0  0  0  0  0
   41.0834   12.6499   29.4024 H   0  0  0  0  0  0
   39.0861   13.4947   33.8553 H   0  0  0  0  0  0
   41.3856   14.3487   33.3220 H   0  0  0  0  0  0
   35.6788   12.7258   32.5716 H   0  0  0  0  0  0
   36.5009   13.5099   31.1801 H   0  0  0  0  0  0
   36.8580   14.0509   32.8554 H   0  0  0  0  0  0
  1  9  1  0  0  0
  1 24  1  0  0  0
  1 25  1  0  0  0
  1 26  1  0  0  0
  2  3  2  0  0  0
  2  9  1  0  0  0
  3  4  1  0  0  0
  3  5  1  0  0  0
  4 27  1  0  0  0
  4 28  1  0  0  0
  5  6  2  0  0  0
  5 12  1  0  0  0
  6  7  1  0  0  0
  6  8  1  0  0  0
  7 11  2  0  0  0
  7 13  1  0  0  0
  8  9  2  0  0  0
 10 11  1  0  0  0
 10 12  2  0  0  0
 10 29  1  0  0  0
 11 30  1  0  0  0
 12 31  1  0  0  0
 13 14  2  0  0  0
 13 15  1  0  0  0
 15 16  1  0  0  0
 15 32  1  0  0  0
 16 17  2  0  0  0
 16 21  1  0  0  0
 17 18  1  0  0  0
 17 33  1  0  0  0
 18 19  2  0  0  0
 19 20  1  0  0  0
 19 22  1  0  0  0
 20 21  2  0  0  0
 20 34  1  0  0  0
 21 35  1  0  0  0
 22 23  1  0  0  0
 23 36  1  0  0  0
 23 37  1  0  0  0
 23 38  1  0  0  0
M  END
> <s_m_source_file>
../3ps6_ligand.sdf

> <i_m_source_file_index>
1

> <s_epik_input>
W05IMl1jMW5jKFtDSDNdKW5jKGMxMiljKFtjSF1bY0hdW2NIXTIpQyg9TylbTkhdYzNbY0hdbmMoW2NIXVtjSF0zKU9bQ0gzXQ==

> <s_epik_cmdline>
J2VwaWtfYXBwJywgJy1pbWFlJywgJ2xpZ2FuZF9wcm8ubWFlJywgJy1vbWFlJywgJ2xpZ2FuZF9wcmVwLm1hZScsICctbXMnLCAnMScsICctcGgnLCAnNycsICctcGh0JywgJzAuNScsICctbnQn

> <r_lp_tautomer_probability>
1

> <r_epik_Ionization_Penalty>
  0.0015

> <r_epik_Ionization_Penalty_Charging>
  0.0000

> <r_epik_Ionization_Penalty_Neutral>
  0.0015

> <r_epik_State_Penalty>
 -0.0000

> <r_epik_Charging_Adjusted_Penalty>
0

> <i_epik_Tot_Q>
0

> <i_epik_Tot_abs_Q>
0

$$$$
