3psd_ligand
                    3D
 Schrodinger Suite 2020-3.
 51 56  0  0  1  0            999 V2000
   41.8150   29.0500   33.2430 C   0  0  0  0  0  0
   40.4790   29.2450   32.8820 C   0  0  0  0  0  0
   40.1900   30.5280   32.7430 N   0  0  0  0  0  0
   41.3410   31.1900   33.0130 N   0  0  0  0  0  0
   42.3690   30.3190   33.3300 C   0  0  0  0  0  0
   42.5570   27.8130   33.5080 C   0  0  0  0  0  0
   39.4660   28.2150   32.6700 C   0  0  0  0  0  0
   39.1970   27.2300   33.6450 C   0  0  0  0  0  0
   38.1900   26.2770   33.3750 C   0  0  0  0  0  0
   37.4720   26.2850   32.2280 N   0  0  0  0  0  0
   37.7170   27.2350   31.2980 C   0  0  0  0  0  0
   38.7060   28.2250   31.4790 C   0  0  0  0  0  0
   41.3490   32.6510   32.9490 C   0  0  0  0  0  0
   42.7060   33.2740   33.3630 C   0  0  0  0  0  0
   42.6530   34.8160   33.4580 C   0  0  0  0  0  0
   41.5030   35.2810   34.2760 N   0  3  0  0  0  0
   40.1810   34.7840   33.8210 C   0  0  0  0  0  0
   40.1490   33.2420   33.7330 C   0  0  0  0  0  0
   43.3600   27.7610   34.6770 C   0  0  0  0  0  0
   44.1120   26.6110   35.0110 C   0  0  0  0  0  0
   44.0230   25.5220   34.1230 C   0  0  0  0  0  0
   43.2370   25.5430   32.9550 C   0  0  0  0  0  0
   42.4900   26.6990   32.6340 C   0  0  0  0  0  0
   44.6550   24.2330   34.1800 C   0  0  0  0  0  0
   44.2410   23.5460   33.0800 C   0  0  0  0  0  0
   43.2880   24.2290   32.1200 C   0  0  0  0  0  0
   45.4850   23.5970   34.9870 N   0  0  0  0  0  0
   45.6070   22.3980   34.3410 N   0  0  0  0  0  0
   44.8650   22.3120   33.1630 C   0  0  0  0  0  0
   43.3954   30.5755   33.5922 H   0  0  0  0  0  0
   39.7524   27.2055   34.5825 H   0  0  0  0  0  0
   37.9836   25.5067   34.1180 H   0  0  0  0  0  0
   37.1316   27.2363   30.3785 H   0  0  0  0  0  0
   38.8802   28.9826   30.7150 H   0  0  0  0  0  0
   41.2224   32.8609   31.8767 H   0  0  0  0  0  0
   43.0017   32.8866   34.3492 H   0  0  0  0  0  0
   43.4729   33.0093   32.6201 H   0  0  0  0  0  0
   43.5786   35.1868   33.9225 H   0  0  0  0  0  0
   42.5529   35.2423   32.4489 H   0  0  0  0  0  0
   41.6310   34.9421   35.3146 H   0  0  0  0  0  0
   41.4564   36.3797   34.2519 H   0  0  0  0  0  0
   39.4043   35.1062   34.5301 H   0  0  0  0  0  0
   39.9592   35.1921   32.8239 H   0  0  0  0  0  0
   39.2101   32.9566   33.2360 H   0  0  0  0  0  0
   40.1537   32.8501   34.7608 H   0  0  0  0  0  0
   43.3981   28.6297   35.3342 H   0  0  0  0  0  0
   44.7284   26.5698   35.9090 H   0  0  0  0  0  0
   41.8759   26.7332   31.7341 H   0  0  0  0  0  0
   42.2760   23.8050   32.0414 H   0  0  0  0  0  0
   43.6726   24.4490   31.1132 H   0  0  0  0  0  0
   44.7932   21.4725   32.4715 H   0  0  0  0  0  0
  1  2  1  0  0  0
  1  5  2  0  0  0
  1  6  1  0  0  0
  2  3  2  0  0  0
  2  7  1  0  0  0
  3  4  1  0  0  0
  4  5  1  0  0  0
  4 13  1  0  0  0
  5 30  1  0  0  0
  6 19  2  0  0  0
  6 23  1  0  0  0
  7  8  2  0  0  0
  7 12  1  0  0  0
  8  9  1  0  0  0
  8 31  1  0  0  0
  9 10  2  0  0  0
  9 32  1  0  0  0
 10 11  1  0  0  0
 11 12  2  0  0  0
 11 33  1  0  0  0
 12 34  1  0  0  0
 13 14  1  0  0  0
 13 18  1  0  0  0
 13 35  1  0  0  0
 14 15  1  0  0  0
 14 36  1  0  0  0
 14 37  1  0  0  0
 15 16  1  0  0  0
 15 38  1  0  0  0
 15 39  1  0  0  0
 16 17  1  0  0  0
 16 40  1  0  0  0
 16 41  1  0  0  0
 17 18  1  0  0  0
 17 42  1  0  0  0
 17 43  1  0  0  0
 18 44  1  0  0  0
 18 45  1  0  0  0
 19 20  1  0  0  0
 19 46  1  0  0  0
 20 21  2  0  0  0
 20 47  1  0  0  0
 21 22  1  0  0  0
 21 24  1  0  0  0
 22 23  2  0  0  0
 22 26  1  0  0  0
 23 48  1  0  0  0
 24 25  2  0  0  0
 24 27  1  0  0  0
 25 26  1  0  0  0
 25 29  1  0  0  0
 26 49  1  0  0  0
 26 50  1  0  0  0
 27 28  2  0  0  0
 28 29  1  0  0  0
 29 51  1  0  0  0
M  CHG  1  16   1
M  END
> <s_m_source_file>
../3psd_ligand.sdf

> <i_m_source_file_index>
1

> <s_epik_input>
W0NIMl0xTj1OQzI9QzFbQ0gyXWMoYzIzKVtjSF1jKFtjSF1bY0hdMyktYzRjKC1jNVtjSF1bY0hdbltjSF1bY0hdNSlubihbY0hdNClbQ0hdNltDSDJdW0NIMl1bTkgyK11bQ0gyXVtDSDJdNg==

> <s_epik_cmdline>
J2VwaWtfYXBwJywgJy1pbWFlJywgJ2xpZ2FuZF9wcm8ubWFlJywgJy1vbWFlJywgJ2xpZ2FuZF9wcmVwLm1hZScsICctbXMnLCAnMScsICctcGgnLCAnNycsICctcGh0JywgJzAuNScsICctbnQn

> <r_lp_tautomer_probability>
1

> <r_epik_Ionization_Penalty>
  0.0066

> <r_epik_Ionization_Penalty_Charging>
  0.0019

> <r_epik_Ionization_Penalty_Neutral>
  0.0047

> <r_epik_State_Penalty>
 -0.0000

> <r_epik_Charging_Adjusted_Penalty>
0.00191237757844653

> <i_epik_Tot_Q>
1

> <i_epik_Tot_abs_Q>
1

$$$$
