3psl_ligand
                    3D
 Schrodinger Suite 2020-3.
 68 67  0  0  1  0            999 V2000
  -18.9150   12.5540   21.5670 C   0  0  0  0  0  0
  -19.4090   13.7270   21.6660 O   0  0  0  0  0  0
  -19.4250   11.5570   20.5420 C   0  0  0  0  0  0
  -17.6510   12.2730   22.2910 N   0  0  0  0  0  0
  -17.1460   13.2260   23.2980 C   0  0  2  0  0  0
  -16.9540   14.6400   22.8080 C   0  0  0  0  0  0
  -17.0660   15.6080   23.5980 O   0  0  0  0  0  0
  -15.8940   12.7080   23.8920 C   0  0  0  0  0  0
  -16.5610   14.8260   21.5070 N   0  0  0  0  0  0
  -16.3920   16.1800   21.0120 C   0  0  2  0  0  0
  -17.6560   17.0710   21.1450 C   0  0  0  0  0  0
  -17.5610   18.2760   21.2510 O   0  0  0  0  0  0
  -15.8350   16.1420   19.5270 C   0  0  0  0  0  0
  -15.5080   17.5470   19.0120 C   0  0  0  0  0  0
  -15.1330   17.4540   17.4910 C   0  0  0  0  0  0
  -14.0560   16.5030   17.2060 N   0  0  0  0  0  0
  -12.7480   16.8530   17.2140 C   0  0  0  0  0  0
  -12.3900   18.1330   17.3640 N   0  0  0  0  0  0
  -11.8290   15.9870   16.8910 N   0  3  0  0  0  0
  -18.8380   16.4860   21.1670 N   0  0  0  0  0  0
  -20.0340   17.2500   21.1900 C   0  0  2  0  0  0
  -20.5070   17.6140   22.6190 C   0  0  0  0  0  0
  -21.5170   18.3150   22.7740 O   0  0  0  0  0  0
  -21.1700   16.4690   20.5130 C   0  0  2  0  0  0
  -21.5780   15.3290   21.3490 O   0  0  0  0  0  0
  -20.7150   16.0200   19.0650 C   0  0  0  0  0  0
  -19.7550   17.2080   23.6080 N   0  0  0  0  0  0
  -20.1450   17.4610   25.0160 C   0  0  2  0  0  0
  -19.2250   18.4630   25.7370 C   0  0  0  0  0  0
  -18.0050   18.5310   25.3720 O   0  5  0  0  0  0
  -20.1390   16.1280   25.7340 C   0  0  0  0  0  0
  -21.0000   15.0330   25.0600 C   0  0  0  0  0  0
  -19.6654   19.1959   26.6625 O   0  0  0  0  0  0
  -20.3662   11.9260   20.1084 H   0  0  0  0  0  0
  -19.6016   10.5872   21.0301 H   0  0  0  0  0  0
  -18.6768   11.4355   19.7449 H   0  0  0  0  0  0
  -17.0899   11.3517   22.0756 H   0  0  0  0  0  0
  -17.9381   13.2741   24.0597 H   0  0  0  0  0  0
  -16.0535   11.6777   24.2429 H   0  0  0  0  0  0
  -15.6007   13.3432   24.7408 H   0  0  0  0  0  0
  -15.0970   12.7180   23.1339 H   0  0  0  0  0  0
  -16.3745   13.9700   20.8419 H   0  0  0  0  0  0
  -15.6642   16.5963   21.7240 H   0  0  0  0  0  0
  -14.9163   15.5378   19.4953 H   0  0  0  0  0  0
  -16.5903   15.6958   18.8634 H   0  0  0  0  0  0
  -16.3854   18.1979   19.1403 H   0  0  0  0  0  0
  -14.6605   17.9578   19.5803 H   0  0  0  0  0  0
  -16.0136   17.1329   16.9152 H   0  0  0  0  0  0
  -14.8013   18.4402   17.1342 H   0  0  0  0  0  0
  -14.2951   15.4549   16.9730 H   0  0  0  0  0  0
  -13.1436   18.8866   17.6363 H   0  0  0  0  0  0
  -11.3420   18.4321   17.2151 H   0  0  0  0  0  0
  -12.0934   14.9272   16.7607 H   0  0  0  0  0  0
  -18.8872   15.3871   21.1673 H   0  0  0  0  0  0
  -19.7203   18.1472   20.6362 H   0  0  0  0  0  0
  -22.0774   17.0888   20.4631 H   0  0  0  0  0  0
  -21.9181   15.4979   22.3814 H   0  0  0  0  0  0
  -20.4211   16.9053   18.4820 H   0  0  0  0  0  0
  -21.5485   15.5090   18.5608 H   0  0  0  0  0  0
  -19.8592   15.3336   19.1460 H   0  0  0  0  0  0
  -18.8211   16.6717   23.3838 H   0  0  0  0  0  0
  -21.1502   17.9071   24.9923 H   0  0  0  0  0  0
  -19.1101   15.7419   25.7818 H   0  0  0  0  0  0
  -20.5291   16.2592   26.7541 H   0  0  0  0  0  0
  -20.9369   14.1044   25.6462 H   0  0  0  0  0  0
  -20.6280   14.8495   24.0412 H   0  0  0  0  0  0
  -22.0471   15.3668   25.0135 H   0  0  0  0  0  0
  -10.7890   16.3159   16.7487 H   0  0  0  0  0  0
  1  2  2  0  0  0
  1  3  1  0  0  0
  1  4  1  0  0  0
  3 34  1  0  0  0
  3 35  1  0  0  0
  3 36  1  0  0  0
  4  5  1  0  0  0
  4 37  1  0  0  0
  5  6  1  0  0  0
  5  8  1  0  0  0
  5 38  1  0  0  0
  6  7  2  0  0  0
  6  9  1  0  0  0
  8 39  1  0  0  0
  8 40  1  0  0  0
  8 41  1  0  0  0
  9 10  1  0  0  0
  9 42  1  0  0  0
 10 11  1  0  0  0
 10 13  1  0  0  0
 10 43  1  0  0  0
 11 12  2  0  0  0
 11 20  1  0  0  0
 13 14  1  0  0  0
 13 44  1  0  0  0
 13 45  1  0  0  0
 14 15  1  0  0  0
 14 46  1  0  0  0
 14 47  1  0  0  0
 15 16  1  0  0  0
 15 48  1  0  0  0
 15 49  1  0  0  0
 16 17  1  0  0  0
 16 50  1  0  0  0
 17 18  1  0  0  0
 17 19  2  0  0  0
 18 51  1  0  0  0
 18 52  1  0  0  0
 19 53  1  0  0  0
 19 68  1  0  0  0
 20 21  1  0  0  0
 20 54  1  0  0  0
 21 22  1  0  0  0
 21 24  1  0  0  0
 21 55  1  0  0  0
 22 23  2  0  0  0
 22 27  1  0  0  0
 24 25  1  0  0  0
 24 26  1  0  0  0
 24 56  1  0  0  0
 25 57  1  0  0  0
 26 58  1  0  0  0
 26 59  1  0  0  0
 26 60  1  0  0  0
 27 28  1  0  0  0
 27 61  1  0  0  0
 28 29  1  0  0  0
 28 31  1  0  0  0
 28 62  1  0  0  0
 29 30  1  0  0  0
 29 33  2  0  0  0
 31 32  1  0  0  0
 31 63  1  0  0  0
 31 64  1  0  0  0
 32 65  1  0  0  0
 32 66  1  0  0  0
 32 67  1  0  0  0
M  CHG  2  19   1  30  -1
M  END
> <s_m_source_file>
../3psl_ligand.sdf

> <i_m_source_file_index>
1

> <s_epik_input>
W0hdL049QyhbTkgyXSlcW05IXVtDSDJdW0NIMl1bQ0gyXVtDQEhdKFtOSF1DKD1PKVtDQEhdKFtDSDNdKVtOSF1DKD1PKVtDSDNdKUMoPU8pW05IXVtDQEBIXShbQ0BIXShbT0hdKVtDSDNdKUMoPU8pW05IXVtDQEhdKEMoPU8pW09IXSlbQ0gyXVtDSDNd

> <s_epik_cmdline>
J2VwaWtfYXBwJywgJy1pbWFlJywgJ2xpZ2FuZF9wcm8ubWFlJywgJy1vbWFlJywgJ2xpZ2FuZF9wcmVwLm1hZScsICctbXMnLCAnMScsICctcGgnLCAnNycsICctcGh0JywgJzAuNScsICctbnQn

> <r_lp_tautomer_probability>
1

> <r_epik_Ionization_Penalty>
  0.0002

> <r_epik_Ionization_Penalty_Charging>
  0.0002

> <r_epik_Ionization_Penalty_Neutral>
  0.0000

> <r_epik_State_Penalty>
 -0.0000

> <r_epik_Charging_Adjusted_Penalty>
0.000170289165788222

> <i_epik_Tot_Q>
0

> <i_epik_Tot_abs_Q>
2

> <s_epik_Chemistry_Notes>
This compound has an imine and may undergo hydrolysis.

$$$$
