3pty_ligand
                    3D
 Schrodinger Suite 2020-3.
 44 44  0  0  1  0            999 V2000
   92.5420   10.1150    1.8160 C   0  0  2  0  0  0
   93.2260   10.4020    3.0380 O   0  0  0  0  0  0
   92.8830    8.6750    1.4490 C   0  0  1  0  0  0
   91.7220    7.9260    1.0650 O   0  0  0  0  0  0
   93.8870    8.7590    0.3170 C   0  0  2  0  0  0
   95.0920    8.1310    0.7410 O   0  0  0  0  0  0
   94.1410   10.2460    0.1140 C   0  0  2  0  0  0
   93.0690   10.9380    0.7700 O   0  0  0  0  0  0
   94.2470   10.6450   -1.3560 C   0  0  0  0  0  0
   94.9400   11.8980   -1.4620 O   0  0  0  0  0  0
   93.0860   11.7500    3.4780 C   0  0  0  0  0  0
   94.0880   11.9660    4.6060 C   0  0  0  0  0  0
   93.7100   13.1400    5.5060 C   0  0  0  0  0  0
   94.8720   13.4480    6.4430 C   0  0  0  0  0  0
   95.7790   12.2340    6.6210 C   0  0  0  0  0  0
   95.1820   11.1780    7.5480 C   0  0  0  0  0  0
   96.0110    9.8970    7.5150 C   0  0  0  0  0  0
   95.4860    8.8760    8.5000 C   0  0  0  0  0  0
   91.4738   10.3421    1.9475 H   0  0  0  0  0  0
   93.2550    8.0961    2.3072 H   0  0  0  0  0  0
   90.9014    7.7773    1.7823 H   0  0  0  0  0  0
   93.5789    8.2341   -0.5993 H   0  0  0  0  0  0
   95.1078    7.0493    0.9404 H   0  0  0  0  0  0
   95.0856   10.5526    0.5871 H   0  0  0  0  0  0
   94.8016    9.8711   -1.9069 H   0  0  0  0  0  0
   93.2380   10.7464   -1.7821 H   0  0  0  0  0  0
   95.1134   12.3487   -2.4503 H   0  0  0  0  0  0
   93.2945   12.4325    2.6409 H   0  0  0  0  0  0
   92.0593   11.9137    3.8374 H   0  0  0  0  0  0
   94.1371   11.0620    5.2309 H   0  0  0  0  0  0
   95.0811   12.1716    4.1799 H   0  0  0  0  0  0
   93.4922   14.0221    4.8859 H   0  0  0  0  0  0
   92.8195   12.8777    6.0962 H   0  0  0  0  0  0
   95.4695   14.2727    6.0273 H   0  0  0  0  0  0
   94.4807   13.7394    7.4289 H   0  0  0  0  0  0
   95.9548   11.7612    5.6435 H   0  0  0  0  0  0
   96.7394   12.5538    7.0516 H   0  0  0  0  0  0
   95.1643   11.5625    8.5785 H   0  0  0  0  0  0
   94.1563   10.9450    7.2260 H   0  0  0  0  0  0
   95.9723    9.4612    6.5058 H   0  0  0  0  0  0
   97.0545   10.1287    7.7746 H   0  0  0  0  0  0
   96.1042    7.9675    8.4508 H   0  0  0  0  0  0
   94.4450    8.6253    8.2483 H   0  0  0  0  0  0
   95.5271    9.2929    9.5171 H   0  0  0  0  0  0
  1  2  1  0  0  0
  1  3  1  0  0  0
  1  8  1  0  0  0
  1 19  1  0  0  0
  2 11  1  0  0  0
  3  4  1  0  0  0
  3  5  1  0  0  0
  3 20  1  0  0  0
  4 21  1  0  0  0
  5  6  1  0  0  0
  5  7  1  0  0  0
  5 22  1  0  0  0
  6 23  1  0  0  0
  7  8  1  0  0  0
  7  9  1  0  0  0
  7 24  1  0  0  0
  9 10  1  0  0  0
  9 25  1  0  0  0
  9 26  1  0  0  0
 10 27  1  0  0  0
 11 12  1  0  0  0
 11 28  1  0  0  0
 11 29  1  0  0  0
 12 13  1  0  0  0
 12 30  1  0  0  0
 12 31  1  0  0  0
 13 14  1  0  0  0
 13 32  1  0  0  0
 13 33  1  0  0  0
 14 15  1  0  0  0
 14 34  1  0  0  0
 14 35  1  0  0  0
 15 16  1  0  0  0
 15 36  1  0  0  0
 15 37  1  0  0  0
 16 17  1  0  0  0
 16 38  1  0  0  0
 16 39  1  0  0  0
 17 18  1  0  0  0
 17 40  1  0  0  0
 17 41  1  0  0  0
 18 42  1  0  0  0
 18 43  1  0  0  0
 18 44  1  0  0  0
M  END
> <s_m_source_file>
../3pty_ligand.sdf

> <i_m_source_file_index>
1

> <s_epik_input>
W09IXVtDSDJdW0NAQEhdKE8xKVtDQEBIXShbT0hdKVtDQEhdKFtPSF0pW0NASF0xT1tDSDJdW0NIMl1bQ0gyXVtDSDJdW0NIMl1bQ0gyXVtDSDJdW0NIM10=

> <s_epik_cmdline>
J2VwaWtfYXBwJywgJy1pbWFlJywgJ2xpZ2FuZF9wcm8ubWFlJywgJy1vbWFlJywgJ2xpZ2FuZF9wcmVwLm1hZScsICctbXMnLCAnMScsICctcGgnLCAnNycsICctcGh0JywgJzAuNScsICctbnQn

> <r_lp_tautomer_probability>
1

> <r_epik_Ionization_Penalty>
  0.0000

> <r_epik_Ionization_Penalty_Charging>
  0.0000

> <r_epik_Ionization_Penalty_Neutral>
  0.0000

> <r_epik_State_Penalty>
 -0.0000

> <r_epik_Charging_Adjusted_Penalty>
0

> <i_epik_Tot_Q>
0

> <i_epik_Tot_abs_Q>
0

> <s_epik_Chemistry_Notes>
This compound contains an acetal/aminal-like group ( X-CH(R)-Y where X, Y are N, S, or O) that may be acid/base labile, releasing an aldehyde.

$$$$
