3puk_ligand
                    3D
 Schrodinger Suite 2020-3.
161161  0  0  1  0            999 V2000
  -39.8170  -57.1330   98.9580 N   0  3  0  0  0  0
  -40.7710  -56.7820  100.0020 C   0  0  2  0  0  0
  -40.0910  -56.7560  101.3670 C   0  0  0  0  0  0
  -39.0190  -57.3360  101.5430 O   0  0  0  0  0  0
  -41.9350  -57.7600  100.0040 C   0  0  0  0  0  0
  -40.7170  -56.0840  102.3290 N   0  0  0  0  0  0
  -40.1490  -55.9840  103.6700 C   0  0  2  0  0  0
  -41.0640  -56.5840  104.7410 C   0  0  0  0  0  0
  -40.5980  -56.9960  105.8020 O   0  0  0  0  0  0
  -39.7920  -54.5340  104.0030 C   0  0  0  0  0  0
  -38.7140  -54.4060  105.0610 C   0  0  0  0  0  0
  -38.0820  -53.0300  105.0530 C   0  0  0  0  0  0
  -37.0180  -52.9170  106.0490 N   0  0  0  0  0  0
  -37.2110  -52.5640  107.3180 C   0  0  0  0  0  0
  -38.4320  -52.2830  107.7540 N   0  0  0  0  0  0
  -36.1810  -52.4900  108.1540 N   0  0  0  0  0  0
  -42.3630  -56.6310  104.4580 N   0  0  0  0  0  0
  -43.3180  -57.2970  105.3410 C   0  0  2  0  0  0
  -44.1980  -58.2620  104.5490 C   0  0  0  0  0  0
  -45.0830  -57.8420  103.8020 O   0  0  0  0  0  0
  -44.1820  -56.2790  106.0850 C   0  0  0  0  0  0
  -45.0530  -56.9230  107.1510 C   0  0  0  0  0  0
  -45.0930  -58.1690  107.2190 O   0  0  0  0  0  0
  -45.6990  -56.1850  107.9250 O   0  0  0  0  0  0
  -43.9530  -59.5550  104.7300 N   0  0  0  0  0  0
  -44.5970  -60.5870  103.9240 C   0  0  2  0  0  0
  -45.8210  -61.2030  104.5960 C   0  0  0  0  0  0
  -46.4570  -62.0880  104.0280 O   0  0  0  0  0  0
  -43.5950  -61.6970  103.6050 C   0  0  0  0  0  0
  -42.3020  -61.2230  102.9610 C   0  0  0  0  0  0
  -42.4720  -61.0030  101.4720 C   0  0  0  0  0  0
  -41.1860  -61.0120  100.7810 N   0  0  0  0  0  0
  -40.5790  -62.1130  100.3490 C   0  0  0  0  0  0
  -41.1400  -63.3010  100.5360 N   0  0  0  0  0  0
  -39.4100  -62.0280   99.7300 N   0  0  0  0  0  0
  -46.1420  -60.7470  105.8030 N   0  0  0  0  0  0
  -47.2520  -61.3210  106.5610 C   0  0  2  0  0  0
  -48.5110  -61.4570  105.7070 C   0  0  0  0  0  0
  -49.0800  -62.5430  105.5890 O   0  0  0  0  0  0
  -47.5790  -60.4880  107.8130 C   0  0  2  0  0  0
  -46.3810  -60.2560  108.5630 O   0  0  0  0  0  0
  -48.5840  -61.2210  108.6850 C   0  0  0  0  0  0
  -48.9370  -60.3470  105.1140 N   0  0  0  0  0  0
  -50.1110  -60.3360  104.2530 C   0  0  2  0  0  0
  -49.9890  -61.3850  103.1530 C   0  0  0  0  0  0
  -50.9730  -62.0130  102.7680 O   0  0  0  0  0  0
  -50.2830  -58.9550  103.6220 C   0  0  0  0  0  0
  -49.1600  -58.5680  102.7100 C   0  0  0  0  0  0
  -49.1790  -58.8220  101.3560 N   0  0  0  0  0  0
  -47.9790  -57.9550  102.9610 C   0  0  0  0  0  0
  -48.0610  -58.3780  100.8110 C   0  0  0  0  0  0
  -47.3150  -57.8470  101.7630 N   0  0  0  0  0  0
  -48.7710  -61.5670  102.6530 N   0  0  0  0  0  0
  -48.5210  -62.4640  101.5300 C   0  0  2  0  0  0
  -48.7310  -63.9310  101.8990 C   0  0  0  0  0  0
  -49.0140  -64.7600  101.0350 O   0  0  0  0  0  0
  -47.1090  -62.2460  100.9810 C   0  0  0  0  0  0
  -46.8200  -62.9830   99.6840 C   0  0  0  0  0  0
  -45.4820  -62.6010   99.0840 C   0  0  0  0  0  0
  -44.8890  -61.6000   99.5400 O   0  0  0  0  0  0
  -45.0250  -63.2990   98.1530 O   0  0  0  0  0  0
  -48.5900  -64.2470  103.1820 N   0  0  0  0  0  0
  -48.8320  -65.6020  103.6600 C   0  0  2  0  0  0
  -50.2710  -66.0030  103.3710 C   0  0  0  0  0  0
  -50.5310  -67.0470  102.7730 O   0  0  0  0  0  0
  -48.5650  -65.6960  105.1620 C   0  0  0  0  0  0
  -47.1200  -65.5040  105.6210 C   0  0  0  0  0  0
  -47.0820  -65.1690  107.1000 C   0  0  0  0  0  0
  -46.2820  -66.7390  105.3160 C   0  0  0  0  0  0
  -51.2040  -65.1580  103.7990 N   0  0  0  0  0  0
  -52.6260  -65.4210  103.6240 C   0  0  2  0  0  0
  -53.1980  -64.6510  102.4380 C   0  0  0  0  0  0
  -53.4750  -65.2280  101.3860 O   0  0  0  0  0  0
  -53.3840  -65.0650  104.9030 C   0  0  0  0  0  0
  -53.0650  -63.6800  105.4500 C   0  0  0  0  0  0
  -53.5450  -63.5370  106.8860 C   0  0  0  0  0  0
  -52.7810  -64.3800  107.8020 N   0  0  0  0  0  0
  -51.9800  -63.9160  108.7560 C   0  0  0  0  0  0
  -51.8420  -62.6090  108.9340 N   0  0  0  0  0  0
  -51.3240  -64.7610  109.5400 N   0  0  0  0  0  0
  -53.3894  -63.4095  102.5359 O   0  0  0  0  0  0
  -38.9817  -56.4174   98.9690 H   0  0  0  0  0  0
  -40.3163  -57.0987   97.9785 H   0  0  0  0  0  0
  -39.4329  -58.1478   99.1385 H   0  0  0  0  0  0
  -41.1345  -55.7743   99.7522 H   0  0  0  0  0  0
  -42.4118  -57.7645   99.0127 H   0  0  0  0  0  0
  -42.6699  -57.4537  100.7630 H   0  0  0  0  0  0
  -41.5654  -58.7693  100.2378 H   0  0  0  0  0  0
  -41.6777  -55.5991  102.1010 H   0  0  0  0  0  0
  -39.2345  -56.5931  103.6188 H   0  0  0  0  0  0
  -39.4264  -54.0290  103.0967 H   0  0  0  0  0  0
  -40.6855  -54.0132  104.3777 H   0  0  0  0  0  0
  -39.1530  -54.5795  106.0546 H   0  0  0  0  0  0
  -37.9258  -55.1500  104.8733 H   0  0  0  0  0  0
  -37.6499  -52.8307  104.0612 H   0  0  0  0  0  0
  -38.8481  -52.2733  105.2779 H   0  0  0  0  0  0
  -35.9762  -53.1301  105.7675 H   0  0  0  0  0  0
  -39.2887  -52.3425  107.0666 H   0  0  0  0  0  0
  -35.1662  -52.7218  107.7984 H   0  0  0  0  0  0
  -36.3430  -52.1969  109.2018 H   0  0  0  0  0  0
  -42.7123  -56.1516  103.5317 H   0  0  0  0  0  0
  -42.7053  -57.8554  106.0640 H   0  0  0  0  0  0
  -43.5343  -55.5394  106.5784 H   0  0  0  0  0  0
  -44.8439  -55.7679  105.3704 H   0  0  0  0  0  0
  -46.3360  -56.6288  108.7043 H   0  0  0  0  0  0
  -43.2389  -59.8379  105.5174 H   0  0  0  0  0  0
  -44.9250  -60.0476  103.0232 H   0  0  0  0  0  0
  -43.3149  -62.2161  104.5335 H   0  0  0  0  0  0
  -44.0521  -62.4143  102.9075 H   0  0  0  0  0  0
  -41.9905  -60.2731  103.4200 H   0  0  0  0  0  0
  -41.5176  -61.9788  103.1140 H   0  0  0  0  0  0
  -43.0989  -61.8035  101.0523 H   0  0  0  0  0  0
  -42.9546  -60.0300  101.2978 H   0  0  0  0  0  0
  -40.6582  -60.0662  100.5890 H   0  0  0  0  0  0
  -42.1100  -63.3765  101.0492 H   0  0  0  0  0  0
  -40.6350  -64.2102  100.1778 H   0  0  0  0  0  0
  -38.9411  -61.0455   99.5727 H   0  0  0  0  0  0
  -45.5536  -59.9212  106.2295 H   0  0  0  0  0  0
  -46.8791  -62.3167  106.8430 H   0  0  0  0  0  0
  -47.9658  -59.4957  107.5378 H   0  0  0  0  0  0
  -45.5325  -59.7339  108.0966 H   0  0  0  0  0  0
  -49.5052  -61.4004  108.1112 H   0  0  0  0  0  0
  -48.8162  -60.6100  109.5697 H   0  0  0  0  0  0
  -48.1583  -62.1833  109.0055 H   0  0  0  0  0  0
  -48.3748  -59.4179  105.2893 H   0  0  0  0  0  0
  -50.9595  -60.5783  104.9098 H   0  0  0  0  0  0
  -51.2091  -58.9357  103.0288 H   0  0  0  0  0  0
  -50.3393  -58.1942  104.4145 H   0  0  0  0  0  0
  -47.5175  -57.5700  103.8823 H   0  0  0  0  0  0
  -47.7984  -58.4393   99.7549 H   0  0  0  0  0  0
  -47.9374  -61.0159  103.1128 H   0  0  0  0  0  0
  -49.2769  -62.1845  100.7813 H   0  0  0  0  0  0
  -46.9538  -61.1751  100.7833 H   0  0  0  0  0  0
  -46.3710  -62.5933  101.7190 H   0  0  0  0  0  0
  -46.8090  -64.0666   99.8727 H   0  0  0  0  0  0
  -47.6012  -62.7471   98.9463 H   0  0  0  0  0  0
  -44.0559  -63.0443   97.6992 H   0  0  0  0  0  0
  -48.2839  -63.4611  103.8882 H   0  0  0  0  0  0
  -48.1335  -66.2480  103.1079 H   0  0  0  0  0  0
  -49.1478  -64.9248  105.6870 H   0  0  0  0  0  0
  -48.8619  -66.6908  105.5257 H   0  0  0  0  0  0
  -46.6804  -64.6604  105.0686 H   0  0  0  0  0  0
  -47.6945  -64.2751  107.2893 H   0  0  0  0  0  0
  -46.0434  -64.9732  107.4050 H   0  0  0  0  0  0
  -47.4805  -66.0158  107.6781 H   0  0  0  0  0  0
  -46.3286  -66.9569  104.2388 H   0  0  0  0  0  0
  -46.6747  -67.5972  105.8810 H   0  0  0  0  0  0
  -45.2376  -66.5547  105.6080 H   0  0  0  0  0  0
  -50.8727  -64.2359  104.2990 H   0  0  0  0  0  0
  -52.6974  -66.4988  103.4160 H   0  0  0  0  0  0
  -54.4662  -65.0946  104.7081 H   0  0  0  0  0  0
  -53.1335  -65.7899  105.6915 H   0  0  0  0  0  0
  -51.9775  -63.5170  105.4239 H   0  0  0  0  0  0
  -53.5648  -62.9182  104.8336 H   0  0  0  0  0  0
  -53.4342  -62.4908  107.2071 H   0  0  0  0  0  0
  -54.6033  -63.8300  106.9498 H   0  0  0  0  0  0
  -52.8482  -65.4754  107.7270 H   0  0  0  0  0  0
  -52.3846  -61.9053  108.2856 H   0  0  0  0  0  0
  -51.4361  -65.8456  109.3952 H   0  0  0  0  0  0
  -50.6678  -64.3772  110.3350 H   0  0  0  0  0  0
  -53.8016  -62.8477  101.6847 H   0  0  0  0  0  0
  1  2  1  0  0  0
  1 82  1  0  0  0
  1 83  1  0  0  0
  1 84  1  0  0  0
  2  3  1  0  0  0
  2  5  1  0  0  0
  2 85  1  0  0  0
  3  4  2  0  0  0
  3  6  1  0  0  0
  5 86  1  0  0  0
  5 87  1  0  0  0
  5 88  1  0  0  0
  6  7  1  0  0  0
  6 89  1  0  0  0
  7  8  1  0  0  0
  7 10  1  0  0  0
  7 90  1  0  0  0
  8  9  2  0  0  0
  8 17  1  0  0  0
 10 11  1  0  0  0
 10 91  1  0  0  0
 10 92  1  0  0  0
 11 12  1  0  0  0
 11 93  1  0  0  0
 11 94  1  0  0  0
 12 13  1  0  0  0
 12 95  1  0  0  0
 12 96  1  0  0  0
 13 14  1  0  0  0
 13 97  1  0  0  0
 14 15  2  0  0  0
 14 16  1  0  0  0
 15 98  1  0  0  0
 16 99  1  0  0  0
 16100  1  0  0  0
 17 18  1  0  0  0
 17101  1  0  0  0
 18 19  1  0  0  0
 18 21  1  0  0  0
 18102  1  0  0  0
 19 20  2  0  0  0
 19 25  1  0  0  0
 21 22  1  0  0  0
 21103  1  0  0  0
 21104  1  0  0  0
 22 23  2  0  0  0
 22 24  1  0  0  0
 24105  1  0  0  0
 25 26  1  0  0  0
 25106  1  0  0  0
 26 27  1  0  0  0
 26 29  1  0  0  0
 26107  1  0  0  0
 27 28  2  0  0  0
 27 36  1  0  0  0
 29 30  1  0  0  0
 29108  1  0  0  0
 29109  1  0  0  0
 30 31  1  0  0  0
 30110  1  0  0  0
 30111  1  0  0  0
 31 32  1  0  0  0
 31112  1  0  0  0
 31113  1  0  0  0
 32 33  1  0  0  0
 32114  1  0  0  0
 33 34  1  0  0  0
 33 35  2  0  0  0
 34115  1  0  0  0
 34116  1  0  0  0
 35117  1  0  0  0
 36 37  1  0  0  0
 36118  1  0  0  0
 37 38  1  0  0  0
 37 40  1  0  0  0
 37119  1  0  0  0
 38 39  2  0  0  0
 38 43  1  0  0  0
 40 41  1  0  0  0
 40 42  1  0  0  0
 40120  1  0  0  0
 41121  1  0  0  0
 42122  1  0  0  0
 42123  1  0  0  0
 42124  1  0  0  0
 43 44  1  0  0  0
 43125  1  0  0  0
 44 45  1  0  0  0
 44 47  1  0  0  0
 44126  1  0  0  0
 45 46  2  0  0  0
 45 53  1  0  0  0
 47 48  1  0  0  0
 47127  1  0  0  0
 47128  1  0  0  0
 48 49  2  0  0  0
 48 50  1  0  0  0
 49 51  1  0  0  0
 50 52  2  0  0  0
 50129  1  0  0  0
 51 52  1  0  0  0
 51130  1  0  0  0
 53 54  1  0  0  0
 53131  1  0  0  0
 54 55  1  0  0  0
 54 57  1  0  0  0
 54132  1  0  0  0
 55 56  2  0  0  0
 55 62  1  0  0  0
 57 58  1  0  0  0
 57133  1  0  0  0
 57134  1  0  0  0
 58 59  1  0  0  0
 58135  1  0  0  0
 58136  1  0  0  0
 59 60  2  0  0  0
 59 61  1  0  0  0
 61137  1  0  0  0
 62 63  1  0  0  0
 62138  1  0  0  0
 63 64  1  0  0  0
 63 66  1  0  0  0
 63139  1  0  0  0
 64 65  2  0  0  0
 64 70  1  0  0  0
 66 67  1  0  0  0
 66140  1  0  0  0
 66141  1  0  0  0
 67 68  1  0  0  0
 67 69  1  0  0  0
 67142  1  0  0  0
 68143  1  0  0  0
 68144  1  0  0  0
 68145  1  0  0  0
 69146  1  0  0  0
 69147  1  0  0  0
 69148  1  0  0  0
 70 71  1  0  0  0
 70149  1  0  0  0
 71 72  1  0  0  0
 71 74  1  0  0  0
 71150  1  0  0  0
 72 73  2  0  0  0
 72 81  1  0  0  0
 74 75  1  0  0  0
 74151  1  0  0  0
 74152  1  0  0  0
 75 76  1  0  0  0
 75153  1  0  0  0
 75154  1  0  0  0
 76 77  1  0  0  0
 76155  1  0  0  0
 76156  1  0  0  0
 77 78  1  0  0  0
 77157  1  0  0  0
 78 79  2  0  0  0
 78 80  1  0  0  0
 79158  1  0  0  0
 80159  1  0  0  0
 80160  1  0  0  0
 81161  1  0  0  0
M  CHG  1   1   1
M  END
> <s_m_source_file>
../3puk_ligand.sdf

> <i_m_source_file_index>
1

> <s_epik_input>
W0hdL049QyhbTkgyXSlcW05IXVtDSDJdW0NIMl1bQ0gyXVtDQEhdKFtOSF1DKD1PKVtDQEBIXShbTkgzK10pW0NIM10pQyg9TylbTkhdW0NAQEhdKFtDSDJdQyg9TylbT0hdKUMoPU8pW05IXVtDQEBIXShbQ0gyXVtDSDJdW0NIMl1bTkhdL0MoW05IMl0pPU5cW0hdKUMoPU8pW05IXVtDQEBIXShbQ0BIXShbT0hdKVtDSDNdKUMoPU8pW05IXVtDQEBIXShbQ0gyXUMxPU5bQ0gyXU49W0NIXTEpQyg9TylbTkhdW0NAQEhdKFtDSDJdW0NIMl1DKD1PKVtPSF0pQyg9TylbTkhdW0NAQEhdKFtDSDJdW0NIXShbQ0gzXSlbQ0gzXSlDKD1PKVtOSF1bQ0BIXShDKD1PKVtPSF0pW0NIMl1bQ0gyXVtDSDJdW05IXS9DKD1OXFtIXSlbTkgyXQ==

> <s_epik_cmdline>
J2VwaWtfYXBwJywgJy1pbWFlJywgJ2xpZ2FuZF9wcm8ubWFlJywgJy1vbWFlJywgJ2xpZ2FuZF9wcmVwLm1hZScsICctbXMnLCAnMScsICctcGgnLCAnNycsICctcGh0JywgJzAuNScsICctbnQn

> <s_epik_pKa_notes>
Molecule size exceeds maximum supported for generating protonation states

> <s_epik_Chemistry_Notes>
This compound has an imine and may undergo hydrolysis.

$$$$
