3pup_ligand
                    3D
 Schrodinger Suite 2020-3.
 52 59  0  0  1  0            999 V2000
   21.8620  -17.3870   -8.0250 C   0  0  0  0  0  0
   20.7340  -18.1060   -7.5560 C   0  0  0  0  0  0
   21.1470  -18.7670   -6.3710 C   0  0  0  0  0  0
   20.6440  -19.5140   -5.5080 O   0  0  0  0  0  0
   22.4310  -18.4380   -6.1690 N   0  0  0  0  0  0
   22.9000  -17.6180   -7.1270 C   0  0  0  0  0  0
   24.0750  -17.1840   -7.1310 O   0  0  0  0  0  0
   19.5170  -18.0290   -8.2660 C   0  0  0  0  0  0
   19.5020  -17.2140   -9.4250 C   0  0  0  0  0  0
   20.6360  -16.5300   -9.8830 C   0  0  0  0  0  0
   21.8450  -16.5970   -9.1920 C   0  0  0  0  0  0
   22.7230  -15.7820   -9.9380 C   0  0  0  0  0  0
   21.9710  -15.2910  -11.0300 C   0  0  0  0  0  0
   20.7570  -15.7840  -10.9670 N   0  0  0  0  0  0
   18.8820  -15.7190  -11.7610 Ru  0  0  0  0  0  0
   16.5740  -15.5010  -12.3400 Cl  0  0  0  0  0  0
   19.0400  -17.0940  -12.9160 C   0  0  0  0  0  0
   19.0810  -17.9860  -13.6160 O   0  0  0  0  0  0
   18.3770  -17.0580  -10.2440 N   0  0  0  0  0  0
   17.2090  -17.6690   -9.8790 C   0  0  0  0  0  0
   17.1670  -18.4880   -8.7250 C   0  0  0  0  0  0
   16.0150  -19.1910   -8.2930 N   0  0  0  0  0  0
   18.3140  -18.6680   -7.9200 C   0  0  0  0  0  0
   18.5980  -14.0600  -10.4400 N   0  0  2  0  0  0
   19.6270  -13.0910  -10.8390 C   0  0  0  0  0  0
   19.5450  -13.0460  -12.3330 C   0  0  0  0  0  0
   19.2820  -14.1650  -13.0390 N   0  0  0  0  0  0
   19.1880  -14.0150  -14.3430 C   0  0  0  0  0  0
   19.3620  -12.8470  -15.0150 C   0  0  0  0  0  0
   19.6330  -11.7240  -14.2930 C   0  0  0  0  0  0
   19.7280  -11.8460  -12.9490 C   0  0  0  0  0  0
   22.5490  -14.4320  -11.9850 C   0  0  0  0  0  0
   23.9130  -14.0800  -11.8120 C   0  0  0  0  0  0
   24.6860  -14.5840  -10.7260 C   0  0  0  0  0  0
   24.0820  -15.4300   -9.7800 C   0  0  0  0  0  0
   22.9696  -18.8348   -5.2958 H   0  0  0  0  0  0
   19.8211  -16.3210  -12.9638 H   0  0  0  0  0  0
   16.3094  -17.5252  -10.4774 H   0  0  0  0  0  0
   15.0759  -19.1092   -8.8600 H   0  0  0  0  0  0
   16.0598  -19.8185   -7.3907 H   0  0  0  0  0  0
   18.2636  -19.3066   -7.0258 H   0  0  0  0  0  0
   18.6880  -14.3315   -9.4609 H   0  0  0  0  0  0
   19.4044  -12.1130  -10.3874 H   0  0  0  0  0  0
   20.6118  -13.4387  -10.4936 H   0  0  0  0  0  0
   18.9475  -14.9361  -14.8942 H   0  0  0  0  0  0
   19.2828  -12.8265  -16.1120 H   0  0  0  0  0  0
   19.7688  -10.7593  -14.7819 H   0  0  0  0  0  0
   19.9581  -10.9509  -12.3524 H   0  0  0  0  0  0
   21.9698  -14.0514  -12.8263 H   0  0  0  0  0  0
   24.3819  -13.4061  -12.5290 H   0  0  0  0  0  0
   25.7380  -14.3154  -10.6297 H   0  0  0  0  0  0
   24.6554  -15.8100   -8.9345 H   0  0  0  0  0  0
  1  2  2  0  0  0
  1  6  1  0  0  0
  1 11  1  0  0  0
  2  3  1  0  0  0
  2  8  1  0  0  0
  3  4  2  0  0  0
  3  5  1  0  0  0
  5  6  1  0  0  0
  5 36  1  0  0  0
  6  7  2  0  0  0
  8  9  2  0  0  0
  8 23  1  0  0  0
  9 10  1  0  0  0
  9 19  1  0  0  0
 10 11  2  0  0  0
 10 14  1  0  0  0
 11 12  1  0  0  0
 12 13  2  0  0  0
 12 35  1  0  0  0
 13 14  1  0  0  0
 13 32  1  0  0  0
 14 15  1  0  0  0
 15 17  1  0  0  0
 15 24  1  0  0  0
 15 27  1  0  0  0
 15 19  1  0  0  0
 15 16  1  0  0  0
 17 18  2  0  0  0
 17 37  1  0  0  0
 19 20  1  0  0  0
 20 21  1  0  0  0
 20 38  1  0  0  0
 21 22  1  0  0  0
 21 23  2  0  0  0
 22 39  1  0  0  0
 22 40  1  0  0  0
 23 41  1  0  0  0
 24 25  1  0  0  0
 24 42  1  0  0  0
 25 26  1  0  0  0
 25 43  1  0  0  0
 25 44  1  0  0  0
 26 27  1  0  0  0
 26 31  2  0  0  0
 27 28  1  0  0  0
 28 29  2  0  0  0
 28 45  1  0  0  0
 29 30  1  0  0  0
 29 46  1  0  0  0
 30 31  1  0  0  0
 30 47  1  0  0  0
 31 48  1  0  0  0
 32 33  2  0  0  0
 32 49  1  0  0  0
 33 34  1  0  0  0
 33 50  1  0  0  0
 34 35  2  0  0  0
 34 51  1  0  0  0
 35 52  1  0  0  0
M  END
> <s_m_source_file>
../3pup_ligand.sdf

> <i_m_source_file_index>
1

> <s_epik_input>
W2NIXTFbY0hdW2NIXVtjSF1jMmMxYzNjKEMoPU8pW05IXUM0PU8pYzRjKFtDSF09QyhbQ0gyXU41NilbTkgyXSljNWMzbjJbUnVdNjcoQ2wpKFtDSF09TylOOEMoW0NIMl1bTkgyK103KT1bQ0hdW0NIMl1bQ0hdPVtDSF04

> <s_epik_cmdline>
J2VwaWtfYXBwJywgJy1pbWFlJywgJ2xpZ2FuZF9wcm8ubWFlJywgJy1vbWFlJywgJ2xpZ2FuZF9wcmVwLm1hZScsICctbXMnLCAnMScsICctcGgnLCAnNycsICctcGh0JywgJzAuNScsICctbnQn

> <r_lp_tautomer_probability>
1

> <r_epik_Ionization_Penalty>
  0.0043

> <r_epik_Ionization_Penalty_Charging>
  0.0000

> <r_epik_Ionization_Penalty_Neutral>
  0.0043

> <r_epik_State_Penalty>
 -0.0000

> <r_epik_Charging_Adjusted_Penalty>
0

> <i_epik_Tot_Q>
0

> <i_epik_Tot_abs_Q>
0

> <s_epik_Chemistry_Notes>
This compound has an imine and may undergo hydrolysis.

$$$$
