3pvw_ligand
                    3D
 Schrodinger Suite 2020-3.
 57 60  0  0  1  0            999 V2000
   36.6360   -2.6390   50.7840 C   0  0  0  0  0  0
   35.3490   -2.5140   50.2690 C   0  0  0  0  0  0
   34.8920   -1.2580   49.8840 C   0  0  0  0  0  0
   35.6740   -0.1990   50.0280 N   0  0  0  0  0  0
   36.9000   -0.3350   50.5170 C   0  0  0  0  0  0
   37.3750   -1.5230   50.8810 N   0  0  0  0  0  0
   37.1970   -3.8580   51.1900 C   0  0  0  0  0  0
   38.1260   -3.9940   52.1350 N   0  0  0  0  0  0
   38.4410   -5.1830   52.2600 N   0  0  0  0  0  0
   37.7450   -5.9260   51.4040 C   0  0  0  0  0  0
   36.9750   -5.0920   50.7380 N   0  0  0  0  0  0
   36.0320   -5.4980   49.6910 C   0  0  0  0  0  0
   34.6070   -5.4390   50.2600 C   0  0  0  0  0  0
   33.5860   -5.0690   49.1760 C   0  0  0  0  0  0
   37.8140   -7.4480   51.2220 C   0  0  0  0  0  0
   38.5240   -8.0900   52.3430 N   0  0  0  0  0  0
   37.9990   -8.2290   53.5690 C   0  0  0  0  0  0
   38.7190   -8.9670   54.4960 C   0  0  0  0  0  0
   38.2520   -9.1600   55.7980 C   0  0  0  0  0  0
   37.0250   -8.6020   56.1660 C   0  0  0  0  0  0
   36.2850   -7.8580   55.2380 C   0  0  0  0  0  0
   36.7700   -7.6740   53.9440 C   0  0  0  0  0  0
   39.0970  -10.0020   56.7840 C   0  0  0  0  0  0
   40.3900  -10.0910   56.4720 N   0  0  0  0  0  0
   38.5860  -10.5690   57.7500 O   0  0  0  0  0  0
   41.3640  -10.8640   57.2410 C   0  0  0  0  0  0
   42.4020  -11.4160   56.2560 C   0  0  0  0  0  0
   43.6110  -10.7460   56.0610 C   0  0  0  0  0  0
   44.5780  -11.2210   55.1710 C   0  0  0  0  0  0
   44.3470  -12.3860   54.4430 C   0  0  0  0  0  0
   43.1450  -13.0690   54.6200 C   0  0  0  0  0  0
   42.1830  -12.5860   55.5140 C   0  0  0  0  0  0
   41.0270  -13.2680   55.6600 F   0  0  0  0  0  0
   43.8540   -9.6190   56.7600 F   0  0  0  0  0  0
   34.7073   -3.3894   50.1687 H   0  0  0  0  0  0
   33.8922   -1.1456   49.4646 H   0  0  0  0  0  0
   37.5321    0.5466   50.6228 H   0  0  0  0  0  0
   36.1199   -4.8148   48.8334 H   0  0  0  0  0  0
   36.2625   -6.5238   49.3677 H   0  0  0  0  0  0
   34.3363   -6.4217   50.6735 H   0  0  0  0  0  0
   34.5611   -4.6811   51.0559 H   0  0  0  0  0  0
   32.5788   -5.0358   49.6170 H   0  0  0  0  0  0
   33.6113   -5.8233   48.3758 H   0  0  0  0  0  0
   33.8360   -4.0826   48.7582 H   0  0  0  0  0  0
   36.7944   -7.8580   51.1729 H   0  0  0  0  0  0
   38.3485   -7.6819   50.2895 H   0  0  0  0  0  0
   39.5398   -8.4857   52.1962 H   0  0  0  0  0  0
   39.6719   -9.4069   54.2017 H   0  0  0  0  0  0
   36.6430   -8.7458   57.1767 H   0  0  0  0  0  0
   35.3288   -7.4224   55.5280 H   0  0  0  0  0  0
   36.1911   -7.0969   53.2230 H   0  0  0  0  0  0
   40.7102   -9.5379   55.5767 H   0  0  0  0  0  0
   41.8484  -10.2105   57.9814 H   0  0  0  0  0  0
   40.8515  -11.6881   57.7589 H   0  0  0  0  0  0
   45.5152  -10.6787   55.0461 H   0  0  0  0  0  0
   45.0962  -12.7584   53.7443 H   0  0  0  0  0  0
   42.9534  -13.9839   54.0593 H   0  0  0  0  0  0
  1  2  2  0  0  0
  1  6  1  0  0  0
  1  7  1  0  0  0
  2  3  1  0  0  0
  2 35  1  0  0  0
  3  4  2  0  0  0
  3 36  1  0  0  0
  4  5  1  0  0  0
  5  6  2  0  0  0
  5 37  1  0  0  0
  7  8  2  0  0  0
  7 11  1  0  0  0
  8  9  1  0  0  0
  9 10  2  0  0  0
 10 11  1  0  0  0
 10 15  1  0  0  0
 11 12  1  0  0  0
 12 13  1  0  0  0
 12 38  1  0  0  0
 12 39  1  0  0  0
 13 14  1  0  0  0
 13 40  1  0  0  0
 13 41  1  0  0  0
 14 42  1  0  0  0
 14 43  1  0  0  0
 14 44  1  0  0  0
 15 16  1  0  0  0
 15 45  1  0  0  0
 15 46  1  0  0  0
 16 17  1  0  0  0
 16 47  1  0  0  0
 17 18  2  0  0  0
 17 22  1  0  0  0
 18 19  1  0  0  0
 18 48  1  0  0  0
 19 20  2  0  0  0
 19 23  1  0  0  0
 20 21  1  0  0  0
 20 49  1  0  0  0
 21 22  2  0  0  0
 21 50  1  0  0  0
 22 51  1  0  0  0
 23 24  1  0  0  0
 23 25  2  0  0  0
 24 26  1  0  0  0
 24 52  1  0  0  0
 26 27  1  0  0  0
 26 53  1  0  0  0
 26 54  1  0  0  0
 27 28  2  0  0  0
 27 32  1  0  0  0
 28 29  1  0  0  0
 28 34  1  0  0  0
 29 30  2  0  0  0
 29 55  1  0  0  0
 30 31  1  0  0  0
 30 56  1  0  0  0
 31 32  2  0  0  0
 31 57  1  0  0  0
 32 33  1  0  0  0
M  END
> <s_m_source_file>
../3pvw_ligand.sdf

> <i_m_source_file_index>
1

> <s_epik_input>
bjFbY0hdbltjSF1bY0hdYzEtYzJubmMobjJbQ0gyXVtDSDJdW0NIM10pW0NIMl1bTkhdYzNbY0hdYyhbY0hdW2NIXVtjSF0zKUMoPU8pW05IXVtDSDJdYzRjKEYpW2NIXVtjSF1bY0hdYzRG

> <s_epik_cmdline>
J2VwaWtfYXBwJywgJy1pbWFlJywgJ2xpZ2FuZF9wcm8ubWFlJywgJy1vbWFlJywgJ2xpZ2FuZF9wcmVwLm1hZScsICctbXMnLCAnMScsICctcGgnLCAnNycsICctcGh0JywgJzAuNScsICctbnQn

> <r_lp_tautomer_probability>
1

> <r_epik_Ionization_Penalty>
  0.0002

> <r_epik_Ionization_Penalty_Charging>
  0.0000

> <r_epik_Ionization_Penalty_Neutral>
  0.0002

> <r_epik_State_Penalty>
 -0.0000

> <r_epik_Charging_Adjusted_Penalty>
0

> <i_epik_Tot_Q>
0

> <i_epik_Tot_abs_Q>
0

$$$$
