3pwd_ligand
                    3D
 Schrodinger Suite 2020-3.
 28 30  0  0  1  0            999 V2000
   23.3690    9.4640   16.2220 C   0  0  0  0  0  0
   25.1950    6.3090   16.3890 N   0  3  0  0  0  0
   24.1450    8.3660   15.8930 C   0  0  0  0  0  0
   25.4870    5.3770   17.1230 O   0  0  0  0  0  0
   24.3990    7.3770   16.8210 C   0  0  0  0  0  0
   25.6000    6.3220   15.2410 O   0  5  0  0  0  0
   22.8380    9.5690   17.4970 C   0  0  0  0  0  0
   23.0830    8.5790   18.4340 C   0  0  0  0  0  0
   23.8690    7.4730   18.1110 C   0  0  0  0  0  0
   24.0990    6.4880   19.0800 C   0  0  0  0  0  0
   22.5310    8.7020   19.7050 C   0  0  0  0  0  0
   22.7640    7.7220   20.6620 C   0  0  0  0  0  0
   23.5440    6.6120   20.3600 C   0  0  0  0  0  0
   23.7610    5.6510   21.3300 O   0  0  0  0  0  0
   23.2290    5.7630   22.5940 C   0  0  0  0  0  0
   22.4350    6.8570   22.9540 C   0  0  0  0  0  0
   22.1840    7.8530   22.0220 C   0  0  0  0  0  0
   24.6580    8.2470   14.6440 O   0  5  0  0  0  0
   23.4550    4.8610   23.4310 O   0  0  0  0  0  0
   21.3450    9.0520   22.3640 C   0  0  0  0  0  0
   23.1770   10.2412   15.4823 H   0  0  0  0  0  0
   22.2269   10.4314   17.7631 H   0  0  0  0  0  0
   24.7129    5.6208   18.8367 H   0  0  0  0  0  0
   21.9155    9.5675   19.9502 H   0  0  0  0  0  0
   22.0172    6.9261   23.9584 H   0  0  0  0  0  0
   21.2739    9.7120   21.4869 H   0  0  0  0  0  0
   21.8097    9.5989   23.1977 H   0  0  0  0  0  0
   20.3374    8.7227   22.6578 H   0  0  0  0  0  0
  1  3  2  0  0  0
  1  7  1  0  0  0
  1 21  1  0  0  0
  2  4  2  0  0  0
  2  5  1  0  0  0
  2  6  1  0  0  0
  3  5  1  0  0  0
  3 18  1  0  0  0
  5  9  2  0  0  0
  7  8  2  0  0  0
  7 22  1  0  0  0
  8  9  1  0  0  0
  8 11  1  0  0  0
  9 10  1  0  0  0
 10 13  2  0  0  0
 10 23  1  0  0  0
 11 12  2  0  0  0
 11 24  1  0  0  0
 12 13  1  0  0  0
 12 17  1  0  0  0
 13 14  1  0  0  0
 14 15  1  0  0  0
 15 16  1  0  0  0
 15 19  2  0  0  0
 16 17  2  0  0  0
 16 25  1  0  0  0
 17 20  1  0  0  0
 20 26  1  0  0  0
 20 27  1  0  0  0
 20 28  1  0  0  0
M  CHG  3   2   1   6  -1  18  -1
M  END
> <s_m_source_file>
../3pwd_ligand.sdf

> <i_m_source_file_index>
1

> <s_epik_input>
W2NIXTFbY0hdYyhbT0hdKWMoW04rXSg9TylbTy1dKWMoYzEyKVtjSF1jM2MoW2NIXTIpYyhbQ0gzXSlbY0hdYyhvMyk9Tw==

> <s_epik_cmdline>
J2VwaWtfYXBwJywgJy1pbWFlJywgJ2xpZ2FuZF9wcm8ubWFlJywgJy1vbWFlJywgJ2xpZ2FuZF9wcmVwLm1hZScsICctbXMnLCAnMScsICctcGgnLCAnNycsICctcGh0JywgJzAuNScsICctbnQn

> <r_epik_Ionization_Penalty>
  0.1125

> <r_epik_Ionization_Penalty_Charging>
  0.1125

> <r_epik_Ionization_Penalty_Neutral>
  0.0000

> <r_epik_State_Penalty>
  0.1022

> <r_epik_Charging_Adjusted_Penalty>
0.214675374395765

> <i_epik_Tot_Q>
-1

> <i_epik_Tot_abs_Q>
3

$$$$
