3pwm_ligand
                    3D
 Schrodinger Suite 2020-3.
 75 78  0  0  1  0            999 V2000
    7.2120   14.4990   14.5710 N   0  0  0  0  0  0
    8.0170   15.5300   14.8510 C   0  0  0  0  0  0
    9.3760   15.5090   14.5770 C   0  0  0  0  0  0
   10.1760   16.6190   14.8830 C   0  0  0  0  0  0
    9.6200   17.6670   15.6050 C   0  0  0  0  0  0
    8.2700   17.6550   15.9090 C   0  0  0  0  0  0
    7.4580   16.6020   15.5490 C   0  0  0  0  0  0
   10.5730   19.0600   16.1150 S   0  0  0  0  0  0
   11.6640   19.2760   15.1330 O   0  0  0  0  0  0
    9.6740   20.2340   16.2800 O   0  0  0  0  0  0
   11.2780   18.7540   17.5620 N   0  0  1  0  0  0
   10.4050   18.4100   18.6550 C   0  0  0  0  0  0
   10.7140   19.0590   20.0220 C   0  0  0  0  0  0
   10.7190   20.5820   19.9290 C   0  0  0  0  0  0
    9.6060   18.6240   21.0130 C   0  0  0  0  0  0
   12.5300   18.0240   17.4860 C   0  0  0  0  0  0
   13.6530   18.8770   18.0620 C   0  0  1  0  0  0
   14.7870   18.1030   18.4090 O   0  0  0  0  0  0
   14.0430   20.0180   17.1240 C   0  0  1  0  0  0
   14.8930   20.9470   17.8660 N   0  0  0  0  0  0
   14.6400   22.2020   18.2380 C   0  0  0  0  0  0
   13.5660   22.7580   17.9910 O   0  0  0  0  0  0
   15.6630   22.7980   18.8910 O   0  0  0  0  0  0
   15.5010   24.2120   19.1040 C   0  0  1  0  0  0
   16.0760   24.5420   20.4880 C   0  0  0  0  0  0
   17.4870   24.4300   20.2780 O   0  0  0  0  0  0
   17.7700   24.9680   18.9950 C   0  0  1  0  0  0
   18.7220   24.1400   18.3060 O   0  0  0  0  0  0
   18.0430   23.3900   17.3460 C   0  0  0  0  0  0
   16.8730   24.2860   16.8940 C   0  0  0  0  0  0
   16.4750   24.9400   18.1950 C   0  0  1  0  0  0
   14.7850   19.5270   15.8920 C   0  0  0  0  0  0
   16.4810   21.0740   14.8380 C   0  0  0  0  0  0
   16.8230   22.1650   14.0440 C   0  0  0  0  0  0
   15.8470   22.9050   13.3890 C   0  0  0  0  0  0
   14.5290   22.4740   13.4980 C   0  0  0  0  0  0
   14.1770   21.3880   14.2850 C   0  0  0  0  0  0
   15.1580   20.6880   14.9690 C   0  0  0  0  0  0
    7.6029   13.6291   14.0229 H   0  0  0  0  0  0
    6.1592   14.5211   14.8889 H   0  0  0  0  0  0
    9.8243   14.6259   14.1218 H   0  0  0  0  0  0
   11.2162   16.6587   14.5598 H   0  0  0  0  0  0
    7.8386   18.4994   16.4465 H   0  0  0  0  0  0
    6.3984   16.6058   15.8045 H   0  0  0  0  0  0
    9.3751   18.7082   18.4094 H   0  0  0  0  0  0
   10.4415   17.3239   18.8256 H   0  0  0  0  0  0
   11.7152   18.7477   20.3546 H   0  0  0  0  0  0
   11.5026   20.9039   19.2273 H   0  0  0  0  0  0
   10.9186   21.0094   20.9228 H   0  0  0  0  0  0
    9.7395   20.9306   19.5699 H   0  0  0  0  0  0
    9.5922   17.5267   21.0889 H   0  0  0  0  0  0
    8.6299   18.9788   20.6505 H   0  0  0  0  0  0
    9.8090   19.0576   22.0034 H   0  0  0  0  0  0
   12.4461   17.0912   18.0629 H   0  0  0  0  0  0
   12.7528   17.7865   16.4353 H   0  0  0  0  0  0
   13.3204   19.2801   19.0299 H   0  0  0  0  0  0
   14.6784   17.2388   19.0808 H   0  0  0  0  0  0
   13.1391   20.5467   16.7871 H   0  0  0  0  0  0
   15.8946   20.6331   18.1950 H   0  0  0  0  0  0
   14.4360   24.4336   18.9409 H   0  0  0  0  0  0
   15.7690   25.5571   20.7800 H   0  0  0  0  0  0
   15.6971   23.8182   21.2246 H   0  0  0  0  0  0
   18.2166   25.9625   19.1420 H   0  0  0  0  0  0
   18.7230   23.1591   16.5128 H   0  0  0  0  0  0
   17.6857   22.4530   17.7980 H   0  0  0  0  0  0
   17.2298   25.0016   16.1386 H   0  0  0  0  0  0
   16.0786   23.6608   16.4604 H   0  0  0  0  0  0
   15.9765   25.8788   17.9121 H   0  0  0  0  0  0
   15.7081   19.0142   16.2001 H   0  0  0  0  0  0
   14.1458   18.8273   15.3336 H   0  0  0  0  0  0
   17.2606   20.5196   15.3604 H   0  0  0  0  0  0
   17.8714   22.4425   13.9348 H   0  0  0  0  0  0
   16.1047   23.7919   12.8102 H   0  0  0  0  0  0
   13.7510   23.0049   12.9493 H   0  0  0  0  0  0
   13.1327   21.0861   14.3653 H   0  0  0  0  0  0
  1  2  1  0  0  0
  1 39  1  0  0  0
  1 40  1  0  0  0
  2  3  2  0  0  0
  2  7  1  0  0  0
  3  4  1  0  0  0
  3 41  1  0  0  0
  4  5  2  0  0  0
  4 42  1  0  0  0
  5  6  1  0  0  0
  5  8  1  0  0  0
  6  7  2  0  0  0
  6 43  1  0  0  0
  7 44  1  0  0  0
  8  9  2  0  0  0
  8 10  2  0  0  0
  8 11  1  0  0  0
 11 12  1  0  0  0
 11 16  1  0  0  0
 12 13  1  0  0  0
 12 45  1  0  0  0
 12 46  1  0  0  0
 13 14  1  0  0  0
 13 15  1  0  0  0
 13 47  1  0  0  0
 14 48  1  0  0  0
 14 49  1  0  0  0
 14 50  1  0  0  0
 15 51  1  0  0  0
 15 52  1  0  0  0
 15 53  1  0  0  0
 16 17  1  0  0  0
 16 54  1  0  0  0
 16 55  1  0  0  0
 17 18  1  0  0  0
 17 19  1  0  0  0
 17 56  1  0  0  0
 18 57  1  0  0  0
 19 20  1  0  0  0
 19 32  1  0  0  0
 19 58  1  0  0  0
 20 21  1  0  0  0
 20 59  1  0  0  0
 21 22  2  0  0  0
 21 23  1  0  0  0
 23 24  1  0  0  0
 24 25  1  0  0  0
 24 31  1  0  0  0
 24 60  1  0  0  0
 25 26  1  0  0  0
 25 61  1  0  0  0
 25 62  1  0  0  0
 26 27  1  0  0  0
 27 28  1  0  0  0
 27 31  1  0  0  0
 27 63  1  0  0  0
 28 29  1  0  0  0
 29 30  1  0  0  0
 29 64  1  0  0  0
 29 65  1  0  0  0
 30 31  1  0  0  0
 30 66  1  0  0  0
 30 67  1  0  0  0
 31 68  1  0  0  0
 32 38  1  0  0  0
 32 69  1  0  0  0
 32 70  1  0  0  0
 33 34  2  0  0  0
 33 38  1  0  0  0
 33 71  1  0  0  0
 34 35  1  0  0  0
 34 72  1  0  0  0
 35 36  2  0  0  0
 35 73  1  0  0  0
 36 37  1  0  0  0
 36 74  1  0  0  0
 37 38  2  0  0  0
 37 75  1  0  0  0
M  END
> <s_m_source_file>
../3pwm_ligand.sdf

> <i_m_source_file_index>
1

> <s_epik_input>
W05IMl1jMVtjSF1bY0hdYyhbY0hdW2NIXTEpUyg9TykoPU8pTihbQ0gyXVtDSF0oW0NIM10pW0NIM10pW0NIMl1bQ0BASF0oW09IXSlbQ0BASF0oW05IXUMoPU8pT1tDQEBIXShbQ0gyXU8yKVtDQEBIXShbQ0BASF0yMylbQ0gyXVtDSDJdTzMpW0NIMl1jNFtjSF1bY0hdW2NIXVtjSF1bY0hdNA==

> <s_epik_cmdline>
J2VwaWtfYXBwJywgJy1pbWFlJywgJ2xpZ2FuZF9wcm8ubWFlJywgJy1vbWFlJywgJ2xpZ2FuZF9wcmVwLm1hZScsICctbXMnLCAnMScsICctcGgnLCAnNycsICctcGh0JywgJzAuNScsICctbnQn

> <r_lp_tautomer_probability>
1

> <r_epik_Ionization_Penalty>
  0.0000

> <r_epik_Ionization_Penalty_Charging>
  0.0000

> <r_epik_Ionization_Penalty_Neutral>
  0.0000

> <r_epik_State_Penalty>
 -0.0000

> <r_epik_Charging_Adjusted_Penalty>
0

> <i_epik_Tot_Q>
0

> <i_epik_Tot_abs_Q>
0

> <s_epik_Chemistry_Notes>
This compound has an ester and may undergo hydrolysis at high or low pH. This compound contains an acetal/aminal-like group ( X-CH(R)-Y where X, Y are N, S, or O) that may be acid/base labile, releasing an aldehyde.

$$$$
