3px8_ligand
                    3D
 Schrodinger Suite 2020-3.
 18 19  0  0  1  0            999 V2000
    2.7170    3.3470    8.4280 C   0  0  0  0  0  0
    3.7870    3.0330    9.1810 N   0  0  0  0  0  0
   -0.7260    3.1600    8.4760 O   0  0  0  0  0  0
    0.4810    3.4130    8.1150 C   0  0  0  0  0  0
    1.4880    3.0590    8.8930 N   0  3  0  0  0  0
    2.6270    6.7300    3.2230 O   0  5  0  0  0  0
    0.6120    4.1400    6.8760 C   0  0  0  0  0  0
    2.9620    3.9920    7.2640 N   0  5  0  0  0  0
    0.4800    6.9920    2.8640 O   0  0  0  0  0  0
    1.9460    4.4350    6.4460 C   0  0  0  0  0  0
    2.2430    5.1690    5.3630 N   0  0  0  0  0  0
    1.1650    5.6570    4.6570 C   0  0  0  0  0  0
   -0.4560    4.5010    6.0610 N   0  0  0  0  0  0
   -0.2060    5.2730    4.9930 C   0  0  0  0  0  0
    1.4120    6.4790    3.4980 C   0  0  0  0  0  0
    3.6511    2.5082   10.1381 H   0  0  0  0  0  0
   -1.0316    5.6172    4.3700 H   0  0  0  0  0  0
    1.3712    2.5589    9.8658 H   0  0  0  0  0  0
  1  2  2  0  0  0
  1  5  1  0  0  0
  1  8  1  0  0  0
  2 16  1  0  0  0
  3  4  2  0  0  0
  4  5  1  0  0  0
  4  7  1  0  0  0
  5 18  1  0  0  0
  6 15  1  0  0  0
  7 10  2  0  0  0
  7 13  1  0  0  0
  8 10  1  0  0  0
  9 15  2  0  0  0
 10 11  1  0  0  0
 11 12  2  0  0  0
 12 14  1  0  0  0
 12 15  1  0  0  0
 13 14  2  0  0  0
 14 17  1  0  0  0
M  CHG  3   5   1   6  -1   8  -1
M  END
> <s_m_source_file>
../3px8_ligand.sdf

> <i_m_source_file_index>
1

> <s_epik_input>
Tz1jMVtuSF0vYyg9TlxbSF0pW25IXWMoYzEyKW5jKFtjSF1uMilDKD1PKVtPSF0=

> <s_epik_cmdline>
J2VwaWtfYXBwJywgJy1pbWFlJywgJ2xpZ2FuZF9wcm8ubWFlJywgJy1vbWFlJywgJ2xpZ2FuZF9wcmVwLm1hZScsICctbXMnLCAnMScsICctcGgnLCAnNycsICctcGh0JywgJzAuNScsICctbnQn

> <r_epik_Ionization_Penalty>
  4.8381

> <r_epik_Ionization_Penalty_Charging>
  4.8381

> <r_epik_Ionization_Penalty_Neutral>
  0.0000

> <r_epik_State_Penalty>
  0.0039

> <r_epik_Charging_Adjusted_Penalty>
4.84201030326611

> <i_epik_Tot_Q>
-1

> <i_epik_Tot_abs_Q>
3

> <s_epik_Chemistry_Notes>
This compound has an imine and may undergo hydrolysis.

$$$$
