3px9_ligand
                    3D
 Schrodinger Suite 2020-3.
 31 33  0  0  1  0            999 V2000
    2.3470    3.3540    8.2080 C   0  0  0  0  0  0
    3.4230    3.0270    8.9430 N   0  0  0  0  0  0
   -1.0910    3.0780    8.3460 O   0  0  0  0  0  0
    0.0260    3.3730    7.9340 C   0  0  0  0  0  0
    1.1140    3.0350    8.6890 N   0  3  0  0  0  0
    2.0710    6.4430    2.8140 O   0  0  0  0  0  0
    0.2010    4.0560    6.6400 C   0  0  0  0  0  0
    2.5670    3.9670    7.0280 N   0  0  0  0  0  0
    0.4960    9.8460    2.3590 O   0  0  0  0  0  0
    1.5660    4.3670    6.2240 C   0  0  0  0  0  0
    1.7750    5.0150    5.0570 N   0  0  0  0  0  0
    0.6870    5.3760    4.3060 C   0  0  0  0  0  0
   -0.8200    4.4160    5.8540 N   0  0  0  0  0  0
   -0.6080    5.0930    4.7240 C   0  0  0  0  0  0
   -0.0900    6.7980    2.4580 N   0  0  0  0  0  0
    0.9080    6.2020    3.1090 C   0  0  0  0  0  0
    0.1450    7.5230    1.1800 C   0  0  0  0  0  0
   -0.0420    9.0450    1.3420 C   0  0  0  0  0  0
   -0.7670    9.8910    0.4730 C   0  0  0  0  0  0
   -0.6740   11.1850    0.9860 C   0  0  0  0  0  0
    0.1010   11.1670    2.1490 C   0  0  0  0  0  0
    3.2944    2.5252    9.9134 H   0  0  0  0  0  0
   -1.4555    5.4262    4.1250 H   0  0  0  0  0  0
   -1.1033    6.7466    2.8829 H   0  0  0  0  0  0
    1.1730    7.3362    0.8362 H   0  0  0  0  0  0
   -0.5662    7.1668    0.4202 H   0  0  0  0  0  0
   -1.2992    9.5892   -0.4291 H   0  0  0  0  0  0
   -1.1337   12.0712    0.5484 H   0  0  0  0  0  0
    0.3499   12.0243    2.7744 H   0  0  0  0  0  0
    4.4326    3.2610    8.5744 H   0  0  0  0  0  0
    1.0172    2.5214    9.6569 H   0  0  0  0  0  0
  1  2  1  0  0  0
  1  5  1  0  0  0
  1  8  2  0  0  0
  2 22  1  0  0  0
  2 30  1  0  0  0
  3  4  2  0  0  0
  4  5  1  0  0  0
  4  7  1  0  0  0
  5 31  1  0  0  0
  6 16  2  0  0  0
  7 10  2  0  0  0
  7 13  1  0  0  0
  8 10  1  0  0  0
  9 18  1  0  0  0
  9 21  1  0  0  0
 10 11  1  0  0  0
 11 12  2  0  0  0
 12 14  1  0  0  0
 12 16  1  0  0  0
 13 14  2  0  0  0
 14 23  1  0  0  0
 15 16  1  0  0  0
 15 17  1  0  0  0
 15 24  1  0  0  0
 17 18  1  0  0  0
 17 25  1  0  0  0
 17 26  1  0  0  0
 18 19  2  0  0  0
 19 20  1  0  0  0
 19 27  1  0  0  0
 20 21  2  0  0  0
 20 28  1  0  0  0
 21 29  1  0  0  0
M  CHG  1   5   1
M  END
> <s_m_source_file>
../3px9_ligand.sdf

> <i_m_source_file_index>
1

> <s_epik_input>
Tz1jMVtuSF0vYyg9TlxbSF0pW25IXWMoYzEyKW5jKFtjSF1uMilDKD1PKVtOSF1bQ0gyXWMzb1tjSF1bY0hdW2NIXTM=

> <s_epik_cmdline>
J2VwaWtfYXBwJywgJy1pbWFlJywgJ2xpZ2FuZF9wcm8ubWFlJywgJy1vbWFlJywgJ2xpZ2FuZF9wcmVwLm1hZScsICctbXMnLCAnMScsICctcGgnLCAnNycsICctcGh0JywgJzAuNScsICctbnQn

> <r_lp_tautomer_probability>
1

> <r_epik_Ionization_Penalty>
  0.2786

> <r_epik_Ionization_Penalty_Charging>
  0.2785

> <r_epik_Ionization_Penalty_Neutral>
  0.0000

> <r_epik_State_Penalty>
 -0.0000

> <r_epik_Charging_Adjusted_Penalty>
0.278547180283863

> <i_epik_Tot_Q>
1

> <i_epik_Tot_abs_Q>
1

> <s_epik_Chemistry_Notes>
This compound has an imine and may undergo hydrolysis.

$$$$
