3pxe_ligand
                    3D
 Schrodinger Suite 2020-3.
104105  0  0  1  0            999 V2000
   12.0520  -24.6550  -37.5380 N   0  3  0  0  0  0
   11.9400  -23.5480  -38.4990 C   0  0  2  0  0  0
   13.2770  -23.1560  -39.1600 C   0  0  0  0  0  0
   14.3540  -23.3480  -38.5840 O   0  0  0  0  0  0
   11.2960  -22.3110  -37.8390 C   0  0  0  0  0  0
   11.1430  -21.2270  -38.7500 O   0  0  0  0  0  0
   13.1940  -22.6060  -40.3740 N   0  0  0  0  0  0
   14.3800  -22.1240  -41.0880 C   0  0  2  0  0  0
   14.8110  -20.7190  -40.6200 C   0  0  0  0  0  0
   15.9830  -20.3500  -40.7630 O   0  0  0  0  0  0
   14.1910  -22.1310  -42.6500 C   0  0  2  0  0  0
   13.7430  -23.4210  -43.0920 O   0  0  0  0  0  0
   15.5060  -21.7700  -43.3710 C   0  0  0  0  0  0
   13.8790  -19.9400  -40.0600 N   0  0  0  0  0  0
   14.2150  -18.5810  -39.6200 C   0  0  1  0  0  0
   13.0370  -17.8900  -38.9240 C   0  0  0  0  0  0
   11.8730  -17.9870  -39.7130 O   0  0  0  0  0  0
   15.4300  -18.5970  -38.6830 C   0  0  0  0  0  0
   15.4670  -19.3500  -37.6970 O   0  0  0  0  0  0
   10.5430  -17.3930  -39.0020 P   0  0  0  0  0  0
   10.8900  -16.2420  -37.9390 O   0  0  0  0  0  0
    9.6820  -18.6010  -38.3660 O   0  5  0  0  0  0
    9.6480  -16.6940  -40.1640 O   0  5  0  0  0  0
   16.4250  -17.7510  -38.9780 N   0  0  0  0  0  0
   17.6590  -17.6320  -38.1960 C   0  0  2  0  0  0
   17.3840  -17.3050  -36.7230 C   0  0  0  0  0  0
   16.5520  -16.4570  -36.4130 O   0  0  0  0  0  0
   18.3780  -16.4490  -38.8670 C   0  0  0  0  0  0
   17.8940  -16.4470  -40.2310 C   0  0  0  0  0  0
   16.4420  -16.8650  -40.1490 C   0  0  0  0  0  0
   18.0930  -17.9770  -35.8250 N   0  0  0  0  0  0
   18.0030  -17.6660  -34.4000 C   0  0  2  0  0  0
   19.2560  -16.9450  -33.8850 C   0  0  0  0  0  0
   20.3530  -17.1190  -34.4120 O   0  0  0  0  0  0
   17.6900  -18.9120  -33.5530 C   0  0  2  0  0  0
   18.5080  -20.0060  -33.9830 O   0  0  0  0  0  0
   16.2190  -19.3080  -33.6730 C   0  0  0  0  0  0
   19.0870  -16.1370  -32.8470 N   0  0  0  0  0  0
   20.2030  -15.3740  -32.3040 C   0  0  2  0  0  0
   20.3870  -15.6610  -30.8170 C   0  0  0  0  0  0
   19.5540  -15.2900  -29.9940 O   0  0  0  0  0  0
   19.9840  -13.8910  -32.5780 C   0  0  0  0  0  0
   19.8910  -13.5760  -34.0400 C   0  0  0  0  0  0
   18.6680  -13.6290  -34.6990 C   0  0  0  0  0  0
   21.0310  -13.2730  -34.7660 C   0  0  0  0  0  0
   18.5840  -13.3600  -36.0400 C   0  0  0  0  0  0
   20.9550  -13.0090  -36.1120 C   0  0  0  0  0  0
   19.7320  -13.0530  -36.7520 C   0  0  0  0  0  0
   21.4820  -16.3350  -30.4840 N   0  0  0  0  0  0
   21.6310  -16.9190  -29.1600 C   0  0  2  0  0  0
   22.9630  -16.6160  -28.4470 C   0  0  0  0  0  0
   24.0440  -16.9470  -28.9290 O   0  0  0  0  0  0
   21.3510  -18.4340  -29.2440 C   0  0  0  0  0  0
   20.0030  -18.7600  -29.9270 C   0  0  0  0  0  0
   19.0390  -17.9920  -29.8360 O   0  0  0  0  0  0
   19.9390  -19.9070  -30.6060 N   0  0  0  0  0  0
   22.9433  -16.0131  -27.3408 O   0  5  0  0  0  0
   12.5131  -25.5234  -38.0312 H   0  0  0  0  0  0
   11.0502  -24.9284  -37.1753 H   0  0  0  0  0  0
   12.6766  -24.3414  -36.6886 H   0  0  0  0  0  0
   11.2876  -23.9711  -39.2770 H   0  0  0  0  0  0
   10.2993  -22.5765  -37.4568 H   0  0  0  0  0  0
   11.9285  -21.9684  -37.0068 H   0  0  0  0  0  0
   10.6960  -20.2813  -38.4095 H   0  0  0  0  0  0
   12.2001  -22.5196  -40.8374 H   0  0  0  0  0  0
   15.1384  -22.8599  -40.7827 H   0  0  0  0  0  0
   13.3940  -21.4352  -42.9511 H   0  0  0  0  0  0
   12.8151  -23.8499  -42.6858 H   0  0  0  0  0  0
   15.8501  -20.7814  -43.0328 H   0  0  0  0  0  0
   15.3341  -21.7466  -44.4572 H   0  0  0  0  0  0
   16.2715  -22.5245  -43.1370 H   0  0  0  0  0  0
   12.8561  -20.3231  -39.9300 H   0  0  0  0  0  0
   14.4487  -18.0464  -40.5525 H   0  0  0  0  0  0
   12.8517  -18.3712  -37.9524 H   0  0  0  0  0  0
   13.2755  -16.8277  -38.7674 H   0  0  0  0  0  0
   18.2022  -18.5884  -38.2098 H   0  0  0  0  0  0
   18.1201  -15.5175  -38.3417 H   0  0  0  0  0  0
   19.4656  -16.6070  -38.8208 H   0  0  0  0  0  0
   17.9968  -15.4372  -40.6551 H   0  0  0  0  0  0
   18.4823  -17.1578  -40.8299 H   0  0  0  0  0  0
   16.1102  -17.4239  -41.0365 H   0  0  0  0  0  0
   15.7647  -16.0157  -39.9761 H   0  0  0  0  0  0
   18.7581  -18.7818  -36.1714 H   0  0  0  0  0  0
   17.1499  -16.9736  -34.3478 H   0  0  0  0  0  0
   17.9465  -18.7280  -32.4993 H   0  0  0  0  0  0
   19.6039  -19.9119  -33.9695 H   0  0  0  0  0  0
   15.5859  -18.4708  -33.3438 H   0  0  0  0  0  0
   16.0231  -20.1866  -33.0408 H   0  0  0  0  0  0
   15.9892  -19.5516  -34.7208 H   0  0  0  0  0  0
   18.0879  -16.0471  -32.3956 H   0  0  0  0  0  0
   21.1071  -15.7141  -32.8303 H   0  0  0  0  0  0
   19.0460  -13.5653  -32.1047 H   0  0  0  0  0  0
   20.8236  -13.3136  -32.1635 H   0  0  0  0  0  0
   17.7666  -13.8872  -34.1432 H   0  0  0  0  0  0
   21.9982  -13.2437  -34.2643 H   0  0  0  0  0  0
   17.6181  -13.3875  -36.5443 H   0  0  0  0  0  0
   21.8572  -12.7655  -36.6731 H   0  0  0  0  0  0
   19.6698  -12.8456  -37.8203 H   0  0  0  0  0  0
   22.2839  -16.4481  -31.2284 H   0  0  0  0  0  0
   20.8676  -16.3881  -28.5724 H   0  0  0  0  0  0
   22.1474  -18.9224  -29.8247 H   0  0  0  0  0  0
   21.3238  -18.8587  -28.2296 H   0  0  0  0  0  0
   20.8205  -20.5626  -30.6625 H   0  0  0  0  0  0
   19.0048  -20.1969  -31.1092 H   0  0  0  0  0  0
  1  2  1  0  0  0
  1 58  1  0  0  0
  1 59  1  0  0  0
  1 60  1  0  0  0
  2  3  1  0  0  0
  2  5  1  0  0  0
  2 61  1  0  0  0
  3  4  2  0  0  0
  3  7  1  0  0  0
  5  6  1  0  0  0
  5 62  1  0  0  0
  5 63  1  0  0  0
  6 64  1  0  0  0
  7  8  1  0  0  0
  7 65  1  0  0  0
  8  9  1  0  0  0
  8 11  1  0  0  0
  8 66  1  0  0  0
  9 10  2  0  0  0
  9 14  1  0  0  0
 11 12  1  0  0  0
 11 13  1  0  0  0
 11 67  1  0  0  0
 12 68  1  0  0  0
 13 69  1  0  0  0
 13 70  1  0  0  0
 13 71  1  0  0  0
 14 15  1  0  0  0
 14 72  1  0  0  0
 15 16  1  0  0  0
 15 18  1  0  0  0
 15 73  1  0  0  0
 16 17  1  0  0  0
 16 74  1  0  0  0
 16 75  1  0  0  0
 17 20  1  0  0  0
 18 19  2  0  0  0
 18 24  1  0  0  0
 20 21  2  0  0  0
 20 22  1  0  0  0
 20 23  1  0  0  0
 24 25  1  0  0  0
 24 30  1  0  0  0
 25 26  1  0  0  0
 25 28  1  0  0  0
 25 76  1  0  0  0
 26 27  2  0  0  0
 26 31  1  0  0  0
 28 29  1  0  0  0
 28 77  1  0  0  0
 28 78  1  0  0  0
 29 30  1  0  0  0
 29 79  1  0  0  0
 29 80  1  0  0  0
 30 81  1  0  0  0
 30 82  1  0  0  0
 31 32  1  0  0  0
 31 83  1  0  0  0
 32 33  1  0  0  0
 32 35  1  0  0  0
 32 84  1  0  0  0
 33 34  2  0  0  0
 33 38  1  0  0  0
 35 36  1  0  0  0
 35 37  1  0  0  0
 35 85  1  0  0  0
 36 86  1  0  0  0
 37 87  1  0  0  0
 37 88  1  0  0  0
 37 89  1  0  0  0
 38 39  1  0  0  0
 38 90  1  0  0  0
 39 40  1  0  0  0
 39 42  1  0  0  0
 39 91  1  0  0  0
 40 41  2  0  0  0
 40 49  1  0  0  0
 42 43  1  0  0  0
 42 92  1  0  0  0
 42 93  1  0  0  0
 43 44  2  0  0  0
 43 45  1  0  0  0
 44 46  1  0  0  0
 44 94  1  0  0  0
 45 47  2  0  0  0
 45 95  1  0  0  0
 46 48  2  0  0  0
 46 96  1  0  0  0
 47 48  1  0  0  0
 47 97  1  0  0  0
 48 98  1  0  0  0
 49 50  1  0  0  0
 49 99  1  0  0  0
 50 51  1  0  0  0
 50 53  1  0  0  0
 50100  1  0  0  0
 51 52  2  0  0  0
 51 57  1  0  0  0
 53 54  1  0  0  0
 53101  1  0  0  0
 53102  1  0  0  0
 54 55  2  0  0  0
 54 56  1  0  0  0
 56103  1  0  0  0
 56104  1  0  0  0
M  CHG  4   1   1  22  -1  23  -1  57  -1
M  END
> <s_m_source_file>
../3pxe_ligand.sdf

> <i_m_source_file_index>
1

> <s_epik_input>
W09IXVtDSDJdW0NASF0oW05IMytdKUMoPU8pW05IXVtDQEBIXShbQ0BIXShbT0hdKVtDSDNdKUMoPU8pW05IXVtDQEBIXShbQ0gyXU9QKD1PKShbT0hdKVtPSF0pQyg9TylOMVtDQEBIXShbQ0gyXVtDSDJdW0NIMl0xKUMoPU8pW05IXVtDQEBIXShbQ0BIXShbT0hdKVtDSDNdKUMoPU8pW05IXVtDQEhdKEMoPU8pW05IXVtDQEhdKEMoPU8pW09IXSlbQ0gyXUMoPU8pW05IMl0pW0NIMl1jMltjSF1bY0hdW2NIXVtjSF1bY0hdMg==

> <s_epik_cmdline>
J2VwaWtfYXBwJywgJy1pbWFlJywgJ2xpZ2FuZF9wcm8ubWFlJywgJy1vbWFlJywgJ2xpZ2FuZF9wcmVwLm1hZScsICctbXMnLCAnMScsICctcGgnLCAnNycsICctcGh0JywgJzAuNScsICctbnQn

> <r_lp_tautomer_probability>
1

> <r_epik_Ionization_Penalty>
  0.2318

> <r_epik_Ionization_Penalty_Charging>
  0.2318

> <r_epik_Ionization_Penalty_Neutral>
  0.0000

> <r_epik_State_Penalty>
 -0.0000

> <r_epik_Charging_Adjusted_Penalty>
0.231783474337846

> <i_epik_Tot_Q>
-2

> <i_epik_Tot_abs_Q>
4

$$$$
