3pxq_ligand
                    3D
 Schrodinger Suite 2020-3.
 33 35  0  0  1  0            999 V2000
  104.9440   95.3900   28.9750 C   0  0  0  0  0  0
  103.9580   95.2590   30.0180 C   0  0  0  0  0  0
  103.7660   96.2760   30.9680 C   0  0  0  0  0  0
  104.5490   97.4480   30.9220 C   0  0  0  0  0  0
  105.5420   97.6360   29.9210 C   0  0  0  0  0  0
  106.3200   98.8230   29.9000 C   0  0  0  0  0  0
  107.3100   99.0300   28.9110 C   0  0  0  0  0  0
  107.5410   98.0600   27.9180 C   0  0  0  0  0  0
  105.1300   94.4420   28.0950 N   0  0  0  0  0  0
  107.1630   95.6970   26.5620 S   0  0  0  0  0  0
  106.7920   96.8520   27.8900 C   0  0  0  0  0  0
  105.7630   96.6000   28.9060 C   0  0  0  0  0  0
  104.2520   93.6650   27.5200 C   0  0  0  0  0  0
  102.9390   94.1040   27.1400 C   0  0  0  0  0  0
  102.0440   93.2010   26.5030 C   0  0  0  0  0  0
  102.4440   91.8670   26.2350 C   0  0  0  0  0  0
  103.7360   91.4280   26.6020 C   0  0  0  0  0  0
  104.6380   92.3250   27.2420 C   0  0  0  0  0  0
  105.9730   95.5280   25.7480 O   0  0  0  0  0  0
  107.5590   94.3990   27.0900 O   0  0  0  0  0  0
  108.3760   96.2870   25.6400 O   0  5  0  0  0  0
  103.3508   94.3553   30.0706 H   0  0  0  0  0  0
  103.0091   96.1588   31.7435 H   0  0  0  0  0  0
  104.3900   98.2258   31.6689 H   0  0  0  0  0  0
  106.1518   99.5876   30.6584 H   0  0  0  0  0  0
  107.8983   99.9476   28.9181 H   0  0  0  0  0  0
  108.3043   98.2372   27.1603 H   0  0  0  0  0  0
  106.1459   94.2105   27.7424 H   0  0  0  0  0  0
  102.6281   95.1295   27.3398 H   0  0  0  0  0  0
  101.0461   93.5356   26.2195 H   0  0  0  0  0  0
  101.7541   91.1797   25.7454 H   0  0  0  0  0  0
  104.0423   90.4026   26.3952 H   0  0  0  0  0  0
  105.6339   91.9811   27.5215 H   0  0  0  0  0  0
  1  2  2  0  0  0
  1  9  1  0  0  0
  1 12  1  0  0  0
  2  3  1  0  0  0
  2 22  1  0  0  0
  3  4  2  0  0  0
  3 23  1  0  0  0
  4  5  1  0  0  0
  4 24  1  0  0  0
  5  6  1  0  0  0
  5 12  2  0  0  0
  6  7  2  0  0  0
  6 25  1  0  0  0
  7  8  1  0  0  0
  7 26  1  0  0  0
  8 11  2  0  0  0
  8 27  1  0  0  0
  9 13  1  0  0  0
  9 28  1  0  0  0
 10 11  1  0  0  0
 10 19  2  0  0  0
 10 20  2  0  0  0
 10 21  1  0  0  0
 11 12  1  0  0  0
 13 14  2  0  0  0
 13 18  1  0  0  0
 14 15  1  0  0  0
 14 29  1  0  0  0
 15 16  2  0  0  0
 15 30  1  0  0  0
 16 17  1  0  0  0
 16 31  1  0  0  0
 17 18  2  0  0  0
 17 32  1  0  0  0
 18 33  1  0  0  0
M  CHG  1  21  -1
M  END
> <s_m_source_file>
../3pxq_ligand.sdf

> <i_m_source_file_index>
1

> <s_epik_input>
W2NIXTFbY0hdW2NIXWMoUyg9TykoPU8pW09IXSljKGMxMiljKFtjSF1bY0hdW2NIXTIpW05IXWMzW2NIXVtjSF1bY0hdW2NIXVtjSF0z

> <s_epik_cmdline>
J2VwaWtfYXBwJywgJy1pbWFlJywgJ2xpZ2FuZF9wcm8ubWFlJywgJy1vbWFlJywgJ2xpZ2FuZF9wcmVwLm1hZScsICctbXMnLCAnMScsICctcGgnLCAnNycsICctcGh0JywgJzAuNScsICctbnQn

> <r_lp_tautomer_probability>
1

> <r_epik_Ionization_Penalty>
  0.0000

> <r_epik_Ionization_Penalty_Charging>
  0.0000

> <r_epik_Ionization_Penalty_Neutral>
  0.0000

> <r_epik_State_Penalty>
 -0.0000

> <r_epik_Charging_Adjusted_Penalty>
1.09818092811241e-05

> <i_epik_Tot_Q>
-1

> <i_epik_Tot_abs_Q>
1

$$$$
