3pxy_ligand
                    3D
 Schrodinger Suite 2020-3.
 28 29  0  0  1  0            999 V2000
   62.2180   81.5410  -82.3630 N   0  0  0  0  0  0
   63.2220   80.6550  -82.0750 C   0  0  0  0  0  0
   63.3140   80.0940  -80.8500 N   0  0  0  0  0  0
   64.1460   80.3290  -83.0440 N   0  0  0  0  0  0
   64.0650   80.8850  -84.3020 C   0  0  0  0  0  0
   65.0670   80.5150  -85.3490 C   0  0  0  0  0  0
   65.0210   81.0600  -86.7050 C   0  0  0  0  0  0
   64.0340   81.9470  -87.0430 O   0  0  0  0  0  0
   66.0080   80.6540  -87.6650 C   0  0  0  0  0  0
   67.0470   79.7180  -87.2980 C   0  0  0  0  0  0
   67.1310   79.1530  -85.9400 C   0  0  0  0  0  0
   68.1050   78.3130  -85.6710 O   0  0  0  0  0  0
   66.1060   79.5850  -84.9960 C   0  0  0  0  0  0
   63.0500   81.7720  -84.5740 N   0  0  0  0  0  0
   62.1300   82.1070  -83.6200 C   0  0  0  0  0  0
   61.1570   82.9780  -83.9190 N   0  0  0  0  0  0
   69.1080   77.9040  -86.6280 C   0  0  0  0  0  0
   62.5800   80.3495  -80.0715 H   0  0  0  0  0  0
   64.1229   79.3816  -80.6307 H   0  0  0  0  0  0
   63.2853   82.2478  -86.2954 H   0  0  0  0  0  0
   65.9739   81.0544  -88.6782 H   0  0  0  0  0  0
   67.7855   79.4234  -88.0436 H   0  0  0  0  0  0
   66.1284   79.1867  -83.9816 H   0  0  0  0  0  0
   60.4123   83.2534  -83.1577 H   0  0  0  0  0  0
   61.1027   83.4177  -84.9258 H   0  0  0  0  0  0
   69.8040   77.1984  -86.1508 H   0  0  0  0  0  0
   69.6632   78.7871  -86.9773 H   0  0  0  0  0  0
   68.6201   77.4153  -87.4842 H   0  0  0  0  0  0
  1  2  2  0  0  0
  1 15  1  0  0  0
  2  3  1  0  0  0
  2  4  1  0  0  0
  3 18  1  0  0  0
  3 19  1  0  0  0
  4  5  2  0  0  0
  5  6  1  0  0  0
  5 14  1  0  0  0
  6  7  2  0  0  0
  6 13  1  0  0  0
  7  8  1  0  0  0
  7  9  1  0  0  0
  8 20  1  0  0  0
  9 10  2  0  0  0
  9 21  1  0  0  0
 10 11  1  0  0  0
 10 22  1  0  0  0
 11 12  1  0  0  0
 11 13  2  0  0  0
 12 17  1  0  0  0
 13 23  1  0  0  0
 14 15  2  0  0  0
 15 16  1  0  0  0
 16 24  1  0  0  0
 16 25  1  0  0  0
 17 26  1  0  0  0
 17 27  1  0  0  0
 17 28  1  0  0  0
M  END
> <s_m_source_file>
../3pxy_ligand.sdf

> <i_m_source_file_index>
1

> <s_epik_input>
W05IMl1jMW5jKFtOSDJdKW5jKG4xKS1jMmMoW09IXSlbY0hdW2NIXWMoW2NIXTIpT1tDSDNd

> <s_epik_cmdline>
J2VwaWtfYXBwJywgJy1pbWFlJywgJ2xpZ2FuZF9wcm8ubWFlJywgJy1vbWFlJywgJ2xpZ2FuZF9wcmVwLm1hZScsICctbXMnLCAnMScsICctcGgnLCAnNycsICctcGh0JywgJzAuNScsICctbnQn

> <r_lp_tautomer_probability>
1

> <r_epik_Ionization_Penalty>
  0.0008

> <r_epik_Ionization_Penalty_Charging>
  0.0000

> <r_epik_Ionization_Penalty_Neutral>
  0.0008

> <r_epik_State_Penalty>
 -0.0000

> <r_epik_Charging_Adjusted_Penalty>
0

> <i_epik_Tot_Q>
0

> <i_epik_Tot_abs_Q>
0

$$$$
