3py0_ligand
                    3D
 Schrodinger Suite 2020-3.
 29 31  0  0  1  0            999 V2000
  -89.8660   82.2950   84.6310 N   0  3  0  0  0  0
  -88.8190   82.6620   83.9150 C   0  0  0  0  0  0
  -88.7660   81.9930   82.7400 N   0  0  0  0  0  0
  -89.8570   81.1500   82.7200 C   0  0  0  0  0  0
  -90.5300   81.3540   83.9130 C   0  0  0  0  0  0
  -91.7360   80.6270   84.2720 C   0  0  0  0  0  0
  -92.5100   80.7020   85.4120 C   0  0  0  0  0  0
  -92.3520   81.5810   86.6120 C   0  0  0  0  0  0
  -91.5040   82.4490   86.8480 O   0  0  0  0  0  0
  -93.3500   81.2880   87.5190 N   0  0  0  0  0  0
  -94.1610   80.2770   86.9960 C   0  0  0  0  0  0
  -95.2970   79.6550   87.5760 C   0  0  0  0  0  0
  -95.9440   78.6400   86.8200 C   0  0  0  0  0  0
  -95.5000   78.2250   85.5130 C   0  0  0  0  0  0
  -96.2200   77.2280   84.8840 O   0  0  0  0  0  0
  -95.5890   76.4120   83.8990 C   0  0  0  0  0  0
  -94.3440   78.8800   84.9680 C   0  0  0  0  0  0
  -93.6840   79.8950   85.7040 C   0  0  0  0  0  0
  -88.0902   83.4087   84.2303 H   0  0  0  0  0  0
  -90.1346   80.4599   81.9232 H   0  0  0  0  0  0
  -92.0112   79.9319   83.4651 H   0  0  0  0  0  0
  -93.4013   81.8304   88.4746 H   0  0  0  0  0  0
  -95.6592   79.9442   88.5625 H   0  0  0  0  0  0
  -96.8186   78.1516   87.2496 H   0  0  0  0  0  0
  -96.3123   75.6794   83.5116 H   0  0  0  0  0  0
  -94.7378   75.8826   84.3520 H   0  0  0  0  0  0
  -95.2303   77.0447   83.0738 H   0  0  0  0  0  0
  -93.9726   78.5950   83.9836 H   0  0  0  0  0  0
  -90.0467   82.7518   85.6152 H   0  0  0  0  0  0
  1  2  2  0  0  0
  1  5  1  0  0  0
  1 29  1  0  0  0
  2  3  1  0  0  0
  2 19  1  0  0  0
  3  4  1  0  0  0
  4  5  2  0  0  0
  4 20  1  0  0  0
  5  6  1  0  0  0
  6  7  2  0  0  0
  6 21  1  0  0  0
  7  8  1  0  0  0
  7 18  1  0  0  0
  8  9  2  0  0  0
  8 10  1  0  0  0
 10 11  1  0  0  0
 10 22  1  0  0  0
 11 12  2  0  0  0
 11 18  1  0  0  0
 12 13  1  0  0  0
 12 23  1  0  0  0
 13 14  2  0  0  0
 13 24  1  0  0  0
 14 15  1  0  0  0
 14 17  1  0  0  0
 15 16  1  0  0  0
 16 25  1  0  0  0
 16 26  1  0  0  0
 16 27  1  0  0  0
 17 18  2  0  0  0
 17 28  1  0  0  0
M  CHG  1   1   1
M  END
> <s_m_source_file>
../3py0_ligand.sdf

> <i_m_source_file_index>
1

> <s_epik_input>
W2NIXTFbbkhdW2NIXW5jMS9bQ0hdPUMoXEMoPU8pW05IXTIpYyhjMjMpW2NIXWMoW2NIXVtjSF0zKU9bQ0gzXQ==

> <s_epik_cmdline>
J2VwaWtfYXBwJywgJy1pbWFlJywgJ2xpZ2FuZF9wcm8ubWFlJywgJy1vbWFlJywgJ2xpZ2FuZF9wcmVwLm1hZScsICctbXMnLCAnMScsICctcGgnLCAnNycsICctcGh0JywgJzAuNScsICctbnQn

> <r_epik_Ionization_Penalty>
  0.5236

> <r_epik_Ionization_Penalty_Charging>
  0.0000

> <r_epik_Ionization_Penalty_Neutral>
  0.5236

> <r_epik_State_Penalty>
  0.0000

> <r_epik_Charging_Adjusted_Penalty>
5.85877627464684e-06

> <i_epik_Tot_Q>
1

> <i_epik_Tot_abs_Q>
1

$$$$
