3py1_ligand
                    3D
 Schrodinger Suite 2020-3.
 29 31  0  0  1  0            999 V2000
  -75.3620  -97.6910   29.6820 N   0  3  0  0  0  0
  -74.2540  -96.9760   29.7320 C   0  0  0  0  0  0
  -74.3340  -95.8890   28.9310 N   0  0  0  0  0  0
  -75.5800  -95.9280   28.3340 C   0  0  0  0  0  0
  -76.1990  -97.0590   28.8180 C   0  0  0  0  0  0
  -77.5510  -97.4300   28.3990 C   0  0  0  0  0  0
  -78.3200  -98.5040   28.7670 C   0  0  0  0  0  0
  -78.0230  -99.5640   29.6760 C   0  0  0  0  0  0
  -77.0040  -99.7570   30.3470 O   0  0  0  0  0  0
  -79.0880 -100.4410   29.7370 N   0  0  0  0  0  0
  -80.0970  -99.9890   28.8850 C   0  0  0  0  0  0
  -81.3820 -100.5480   28.5950 C   0  0  0  0  0  0
  -82.2170  -99.8460   27.6640 C   0  0  0  0  0  0
  -81.8140  -98.6180   27.0200 C   0  0  0  0  0  0
  -82.7100  -98.0280   26.1480 O   0  0  0  0  0  0
  -82.3610  -96.8200   25.4930 C   0  0  0  0  0  0
  -80.5110  -98.1100   27.3460 C   0  0  0  0  0  0
  -79.6690  -98.7930   28.2680 C   0  0  0  0  0  0
  -73.3858  -97.2289   30.3406 H   0  0  0  0  0  0
  -75.9896  -95.2094   27.6241 H   0  0  0  0  0  0
  -77.9431  -96.6922   27.6835 H   0  0  0  0  0  0
  -79.0364 -101.3243   30.3906 H   0  0  0  0  0  0
  -81.7141 -101.4738   29.0647 H   0  0  0  0  0  0
  -83.1993 -100.2576   27.4323 H   0  0  0  0  0  0
  -83.1902  -96.5021   24.8438 H   0  0  0  0  0  0
  -81.4592  -96.9805   24.8839 H   0  0  0  0  0  0
  -82.1629  -96.0402   26.2431 H   0  0  0  0  0  0
  -80.1619  -97.1882   26.8807 H   0  0  0  0  0  0
  -75.4525  -98.6078   30.2830 H   0  0  0  0  0  0
  1  2  2  0  0  0
  1  5  1  0  0  0
  1 29  1  0  0  0
  2  3  1  0  0  0
  2 19  1  0  0  0
  3  4  1  0  0  0
  4  5  2  0  0  0
  4 20  1  0  0  0
  5  6  1  0  0  0
  6  7  2  0  0  0
  6 21  1  0  0  0
  7  8  1  0  0  0
  7 18  1  0  0  0
  8  9  2  0  0  0
  8 10  1  0  0  0
 10 11  1  0  0  0
 10 22  1  0  0  0
 11 12  2  0  0  0
 11 18  1  0  0  0
 12 13  1  0  0  0
 12 23  1  0  0  0
 13 14  2  0  0  0
 13 24  1  0  0  0
 14 15  1  0  0  0
 14 17  1  0  0  0
 15 16  1  0  0  0
 16 25  1  0  0  0
 16 26  1  0  0  0
 16 27  1  0  0  0
 17 18  2  0  0  0
 17 28  1  0  0  0
M  CHG  1   1   1
M  END
> <s_m_source_file>
../3py1_ligand.sdf

> <i_m_source_file_index>
1

> <s_epik_input>
W2NIXTFbbkhdW2NIXW5jMS9bQ0hdPUMoXEMoPU8pW05IXTIpYyhjMjMpW2NIXWMoW2NIXVtjSF0zKU9bQ0gzXQ==

> <s_epik_cmdline>
J2VwaWtfYXBwJywgJy1pbWFlJywgJ2xpZ2FuZF9wcm8ubWFlJywgJy1vbWFlJywgJ2xpZ2FuZF9wcmVwLm1hZScsICctbXMnLCAnMScsICctcGgnLCAnNycsICctcGh0JywgJzAuNScsICctbnQn

> <r_epik_Ionization_Penalty>
  0.5236

> <r_epik_Ionization_Penalty_Charging>
  0.0000

> <r_epik_Ionization_Penalty_Neutral>
  0.5236

> <r_epik_State_Penalty>
  0.0000

> <r_epik_Charging_Adjusted_Penalty>
5.85877627464684e-06

> <i_epik_Tot_Q>
1

> <i_epik_Tot_abs_Q>
1

$$$$
