3pz1_ligand
                    3D
 Schrodinger Suite 2020-3.
 68 72  0  0  1  0            999 V2000
    2.9880   19.8490   27.5190 C   0  0  0  0  0  0
    5.9050   21.0360   27.2070 N   0  0  2  0  0  0
    6.6160   22.1000   29.4000 O   0  0  0  0  0  0
    6.5070   20.7580   28.7570 S   0  0  0  0  0  0
    3.3490   21.1820   27.6450 C   0  0  0  0  0  0
    3.7410   18.9610   26.8720 N   0  0  0  0  0  0
    7.8510   20.1140   28.6770 O   0  0  0  0  0  0
    2.5020   22.0840   28.2830 C   0  0  0  0  0  0
    1.1570   16.5370   24.6630 N   0  3  0  0  0  0
    3.0040   17.4440   32.1090 O   0  0  0  0  0  0
    1.2790   21.6620   28.8070 C   0  0  0  0  0  0
    2.4670   15.5450   26.0420 N   0  0  0  0  0  0
    0.9040   20.3240   28.6850 C   0  0  0  0  0  0
   -0.1890   23.4220   29.9800 N   0  0  0  0  0  0
    1.7510   19.4100   28.0350 C   0  0  0  0  0  0
    4.6380   21.8520   27.1430 C   0  0  0  0  0  0
    5.9850   19.8600   26.3160 C   0  0  1  0  0  0
    4.6170   19.4080   25.7840 C   0  0  0  0  0  0
    3.6880   17.5140   27.1190 C   0  0  0  0  0  0
    2.6940   16.8550   26.1690 C   0  0  0  0  0  0
    1.8800   17.4640   25.2990 C   0  0  0  0  0  0
    1.5320   15.3440   25.1320 C   0  0  0  0  0  0
    3.1510   14.4450   26.8110 C   0  0  0  0  0  0
    6.9700   20.1280   25.1570 C   0  0  0  0  0  0
    5.8360   23.4920   22.6740 C   0  0  0  0  0  0
    6.3850   23.7150   23.9370 C   0  0  0  0  0  0
    6.7530   22.6370   24.7410 C   0  0  0  0  0  0
    6.5720   21.3300   24.2850 C   0  0  0  0  0  0
    6.0300   21.1100   23.0230 C   0  0  0  0  0  0
    5.6630   22.1880   22.2180 C   0  0  0  0  0  0
    3.8250   18.1990   31.3280 C   0  0  0  0  0  0
    3.6790   19.5830   31.3100 C   0  0  0  0  0  0
    4.5090   20.3660   30.5230 C   0  0  0  0  0  0
    5.4840   19.7570   29.7420 C   0  0  0  0  0  0
    5.6460   18.3720   29.7570 C   0  0  0  0  0  0
    4.8080   17.5920   30.5520 C   0  0  0  0  0  0
    1.6100   17.6560   31.7920 C   0  0  0  0  0  0
    0.4440   22.6280   29.4630 C   0  0  0  0  0  0
    2.7966   23.1295   28.3742 H   0  0  0  0  0  0
   -0.0480   19.9866   29.0947 H   0  0  0  0  0  0
    1.4533   18.3667   27.9302 H   0  0  0  0  0  0
    4.7554   22.7599   27.7528 H   0  0  0  0  0  0
    4.4364   22.1349   26.0993 H   0  0  0  0  0  0
    6.3606   19.0552   26.9650 H   0  0  0  0  0  0
    4.7737   18.5808   25.0761 H   0  0  0  0  0  0
    4.1488   20.2547   25.2607 H   0  0  0  0  0  0
    4.6847   17.0777   26.9573 H   0  0  0  0  0  0
    3.3713   17.3304   28.1563 H   0  0  0  0  0  0
    1.8168   18.5398   25.1357 H   0  0  0  0  0  0
    1.1368   14.3775   24.8194 H   0  0  0  0  0  0
    3.8855   14.8832   27.5027 H   0  0  0  0  0  0
    3.6646   13.7716   26.1091 H   0  0  0  0  0  0
    2.4023   13.8770   27.3827 H   0  0  0  0  0  0
    7.9704   20.3328   25.5660 H   0  0  0  0  0  0
    7.0151   19.2450   24.5026 H   0  0  0  0  0  0
    5.5439   24.3346   22.0473 H   0  0  0  0  0  0
    6.5266   24.7344   24.2961 H   0  0  0  0  0  0
    7.1826   22.8149   25.7269 H   0  0  0  0  0  0
    5.8916   20.0909   22.6618 H   0  0  0  0  0  0
    5.2398   22.0092   21.2296 H   0  0  0  0  0  0
    2.9071   20.0541   31.9186 H   0  0  0  0  0  0
    4.3979   21.4503   30.5167 H   0  0  0  0  0  0
    6.4219   17.9031   29.1518 H   0  0  0  0  0  0
    4.9224   16.5081   30.5659 H   0  0  0  0  0  0
    0.9859   17.0282   32.4450 H   0  0  0  0  0  0
    1.4279   17.3866   30.7412 H   0  0  0  0  0  0
    1.3553   18.7146   31.9486 H   0  0  0  0  0  0
    0.4167   16.8395   23.9077 H   0  0  0  0  0  0
  1  5  2  0  0  0
  1  6  1  0  0  0
  1 15  1  0  0  0
  2  4  1  0  0  0
  2 16  1  0  0  0
  2 17  1  0  0  0
  3  4  2  0  0  0
  4  7  2  0  0  0
  4 34  1  0  0  0
  5  8  1  0  0  0
  5 16  1  0  0  0
  6 18  1  0  0  0
  6 19  1  0  0  0
  8 11  2  0  0  0
  8 39  1  0  0  0
  9 21  1  0  0  0
  9 22  2  0  0  0
  9 68  1  0  0  0
 10 31  1  0  0  0
 10 37  1  0  0  0
 11 13  1  0  0  0
 11 38  1  0  0  0
 12 20  1  0  0  0
 12 22  1  0  0  0
 12 23  1  0  0  0
 13 15  2  0  0  0
 13 40  1  0  0  0
 14 38  3  0  0  0
 15 41  1  0  0  0
 16 42  1  0  0  0
 16 43  1  0  0  0
 17 18  1  0  0  0
 17 24  1  0  0  0
 17 44  1  0  0  0
 18 45  1  0  0  0
 18 46  1  0  0  0
 19 20  1  0  0  0
 19 47  1  0  0  0
 19 48  1  0  0  0
 20 21  2  0  0  0
 21 49  1  0  0  0
 22 50  1  0  0  0
 23 51  1  0  0  0
 23 52  1  0  0  0
 23 53  1  0  0  0
 24 28  1  0  0  0
 24 54  1  0  0  0
 24 55  1  0  0  0
 25 26  2  0  0  0
 25 30  1  0  0  0
 25 56  1  0  0  0
 26 27  1  0  0  0
 26 57  1  0  0  0
 27 28  2  0  0  0
 27 58  1  0  0  0
 28 29  1  0  0  0
 29 30  2  0  0  0
 29 59  1  0  0  0
 30 60  1  0  0  0
 31 32  2  0  0  0
 31 36  1  0  0  0
 32 33  1  0  0  0
 32 61  1  0  0  0
 33 34  2  0  0  0
 33 62  1  0  0  0
 34 35  1  0  0  0
 35 36  2  0  0  0
 35 63  1  0  0  0
 36 64  1  0  0  0
 37 65  1  0  0  0
 37 66  1  0  0  0
 37 67  1  0  0  0
M  CHG  1   9   1
M  END
> <s_m_source_file>
../3pz1_ligand.sdf

> <i_m_source_file_index>
1

> <s_epik_input>
W0NIM11PYzFbY0hdW2NIXWMoW2NIXVtjSF0xKVMoPU8pKD1PKU4oW0NIMl1jKGMyMylbY0hdYyhDI04pW2NIXVtjSF0zKVtDQEBIXShbQ0gyXU4yW0NIMl1jKG40W0NIM10pW2NIXW5bY0hdNClbQ0gyXWM1W2NIXVtjSF1bY0hdW2NIXVtjSF01

> <s_epik_cmdline>
J2VwaWtfYXBwJywgJy1pbWFlJywgJ2xpZ2FuZF9wcm8ubWFlJywgJy1vbWFlJywgJ2xpZ2FuZF9wcmVwLm1hZScsICctbXMnLCAnMScsICctcGgnLCAnNycsICctcGh0JywgJzAuNScsICctbnQn

> <r_lp_tautomer_probability>
1

> <r_epik_Ionization_Penalty>
  0.0978

> <r_epik_Ionization_Penalty_Charging>
  0.0000

> <r_epik_Ionization_Penalty_Neutral>
  0.0978

> <r_epik_State_Penalty>
  0.0879

> <r_epik_Charging_Adjusted_Penalty>
0.0879386092385751

> <i_epik_Tot_Q>
1

> <i_epik_Tot_abs_Q>
1

$$$$
