3pz3_ligand
                    3D
 Schrodinger Suite 2020-3.
 96102  0  0  1  0            999 V2000
    3.2570   17.8650   31.7160 C   0  0  0  0  0  0
    3.6560   14.5290   26.3390 C   0  0  0  0  0  0
    0.0430   26.7420   30.4040 O   0  0  0  0  0  0
    7.7320   24.3480   19.7900 O   0  0  0  0  0  0
    7.7820   20.9060   26.6340 O   0  0  0  0  0  0
    6.5900   22.8510   27.5530 O   0  0  0  0  0  0
   -0.4630   25.7680   30.9630 C   0  0  0  0  0  0
    3.4970   27.7570   17.7680 C   0  0  0  0  0  0
    4.4340   28.7850   17.7460 C   0  0  0  0  0  0
    3.9040   26.4580   18.0660 C   0  0  0  0  0  0
    5.7710   28.5140   18.0260 C   0  0  0  0  0  0
    5.2450   26.1850   18.3460 C   0  0  0  0  0  0
    5.4080   22.5310   22.8630 C   0  0  0  0  0  0
    7.6790   21.7410   23.1000 C   0  0  0  0  0  0
   -0.0280   23.3800   31.6990 C   0  0  0  0  0  0
    5.8830   23.7660   22.4220 C   0  0  0  0  0  0
    8.1580   22.9730   22.6590 C   0  0  0  0  0  0
    4.7120   20.1770   30.5910 C   0  0  0  0  0  0
    5.9000   18.2850   29.6830 C   0  0  0  0  0  0
    1.3890   20.2940   29.1410 C   0  0  0  0  0  0
    5.1360   20.9560   29.5160 C   0  0  0  0  0  0
    6.3170   19.0670   28.6020 C   0  0  0  0  0  0
    0.5260   22.2760   31.1950 C   0  0  0  0  0  0
    2.0350   19.4190   28.2680 C   0  0  0  0  0  0
    1.4360   17.2540   25.6690 C   0  0  0  0  0  0
    1.4660   15.1260   25.3130 C   0  0  0  0  0  0
    2.4850   22.1670   28.1030 C   0  0  0  0  0  0
    7.6460   26.9150   18.6340 C   0  0  0  0  0  0
    5.7990   20.1460   23.6970 C   0  0  0  0  0  0
    3.6610   17.6150   26.8860 C   0  0  0  0  0  0
    4.0540   22.0430   26.2420 C   0  0  0  0  0  0
    3.9230   19.4070   25.1600 C   0  0  0  0  0  0
    0.7550   16.2390   25.1430 N   0  3  0  0  0  0
    7.6990   26.5860   20.0630 N   0  0  0  0  0  0
    4.6820   18.0770   31.7370 O   0  0  0  0  0  0
    7.7440   25.1900   21.8820 O   0  0  0  0  0  0
    0.6700   23.8380   29.6630 O   0  0  0  0  0  0
    7.7220   25.3390   20.5240 C   0  0  0  0  0  0
    6.1810   27.2160   18.3190 C   0  0  0  0  0  0
    6.3060   21.5210   23.2090 C   0  0  0  0  0  0
    0.0590   24.3340   30.7770 C   0  0  0  0  0  0
    5.0930   18.8370   30.6790 C   0  0  0  0  0  0
    7.2600   23.9870   22.3170 C   0  0  0  0  0  0
    1.6030   21.6690   29.0650 C   0  0  0  0  0  0
    5.9350   20.4090   28.5110 C   0  0  0  0  0  0
    3.1380   21.2980   27.2310 C   0  0  0  0  0  0
    2.5750   16.7850   26.1790 C   0  0  0  0  0  0
    0.9540   22.5320   29.9550 C   0  0  0  0  0  0
    2.9230   19.9290   27.3130 C   0  0  0  0  0  0
    5.3020   20.0590   25.1880 C   0  0  2  0  0  0
    3.4890   19.0290   26.5050 N   0  0  0  0  0  0
    5.3450   21.3800   25.8750 N   0  0  2  0  0  0
    2.5770   15.4750   25.9490 N   0  0  0  0  0  0
    6.4530   21.4110   27.1380 S   0  0  0  0  0  0
    2.9649   17.2509   32.5806 H   0  0  0  0  0  0
    2.9770   17.3469   30.7869 H   0  0  0  0  0  0
    2.7412   18.8354   31.7645 H   0  0  0  0  0  0
    3.3849   13.5119   26.0197 H   0  0  0  0  0  0
    3.7837   14.5486   27.4314 H   0  0  0  0  0  0
    4.5975   14.8268   25.8544 H   0  0  0  0  0  0
   -0.3695   27.7479   30.5714 H   0  0  0  0  0  0
   -0.4060   25.9006   32.0535 H   0  0  0  0  0  0
   -1.5163   25.6772   30.6593 H   0  0  0  0  0  0
    2.4492   27.9667   17.5531 H   0  0  0  0  0  0
    4.1218   29.8022   17.5097 H   0  0  0  0  0  0
    3.1719   25.6505   18.0807 H   0  0  0  0  0  0
    6.5012   29.3232   18.0157 H   0  0  0  0  0  0
    5.5578   25.1685   18.5848 H   0  0  0  0  0  0
    4.3349   22.3549   22.9373 H   0  0  0  0  0  0
    8.3791   20.9472   23.3604 H   0  0  0  0  0  0
   -0.4723   23.4817   32.6891 H   0  0  0  0  0  0
    5.1817   24.5581   22.1595 H   0  0  0  0  0  0
    9.2315   23.1452   22.5810 H   0  0  0  0  0  0
    4.0815   20.6150   31.3648 H   0  0  0  0  0  0
    6.2060   17.2409   29.7483 H   0  0  0  0  0  0
    0.7073   19.8969   29.8931 H   0  0  0  0  0  0
    4.8404   22.0036   29.4596 H   0  0  0  0  0  0
    6.9436   18.6281   27.8255 H   0  0  0  0  0  0
    0.6152   21.3200   31.7109 H   0  0  0  0  0  0
    1.8501   18.3465   28.3286 H   0  0  0  0  0  0
    1.1158   18.2958   25.6809 H   0  0  0  0  0  0
    1.1888   14.1220   24.9917 H   0  0  0  0  0  0
    2.6633   23.2401   28.0341 H   0  0  0  0  0  0
    8.2811   27.7909   18.4356 H   0  0  0  0  0  0
    8.0088   26.0585   18.0468 H   0  0  0  0  0  0
    4.9445   19.8304   23.0804 H   0  0  0  0  0  0
    6.6074   19.4051   23.6099 H   0  0  0  0  0  0
    3.5564   17.5037   27.9753 H   0  0  0  0  0  0
    4.6545   17.2599   26.5749 H   0  0  0  0  0  0
    3.5209   22.1952   25.2919 H   0  0  0  0  0  0
    4.3343   23.0187   26.6656 H   0  0  0  0  0  0
    3.1917   20.1139   24.7411 H   0  0  0  0  0  0
    3.9578   18.5022   24.5354 H   0  0  0  0  0  0
    7.7217   27.3910   20.8123 H   0  0  0  0  0  0
    5.9599   19.4662   25.8404 H   0  0  0  0  0  0
   -0.2233   16.4179   24.6730 H   0  0  0  0  0  0
  1 35  1  0  0  0
  1 55  1  0  0  0
  1 56  1  0  0  0
  1 57  1  0  0  0
  2 53  1  0  0  0
  2 58  1  0  0  0
  2 59  1  0  0  0
  2 60  1  0  0  0
  3  7  1  0  0  0
  3 61  1  0  0  0
  4 38  2  0  0  0
  5 54  2  0  0  0
  6 54  2  0  0  0
  7 41  1  0  0  0
  7 62  1  0  0  0
  7 63  1  0  0  0
  8  9  2  0  0  0
  8 10  1  0  0  0
  8 64  1  0  0  0
  9 11  1  0  0  0
  9 65  1  0  0  0
 10 12  2  0  0  0
 10 66  1  0  0  0
 11 39  2  0  0  0
 11 67  1  0  0  0
 12 39  1  0  0  0
 12 68  1  0  0  0
 13 16  2  0  0  0
 13 40  1  0  0  0
 13 69  1  0  0  0
 14 17  1  0  0  0
 14 40  2  0  0  0
 14 70  1  0  0  0
 15 23  1  0  0  0
 15 41  2  0  0  0
 15 71  1  0  0  0
 16 43  1  0  0  0
 16 72  1  0  0  0
 17 43  2  0  0  0
 17 73  1  0  0  0
 18 21  2  0  0  0
 18 42  1  0  0  0
 18 74  1  0  0  0
 19 22  1  0  0  0
 19 42  2  0  0  0
 19 75  1  0  0  0
 20 24  2  0  0  0
 20 44  1  0  0  0
 20 76  1  0  0  0
 21 45  1  0  0  0
 21 77  1  0  0  0
 22 45  2  0  0  0
 22 78  1  0  0  0
 23 48  2  0  0  0
 23 79  1  0  0  0
 24 49  1  0  0  0
 24 80  1  0  0  0
 25 33  1  0  0  0
 25 47  2  0  0  0
 25 81  1  0  0  0
 26 33  2  0  0  0
 26 53  1  0  0  0
 26 82  1  0  0  0
 27 44  2  0  0  0
 27 46  1  0  0  0
 27 83  1  0  0  0
 28 34  1  0  0  0
 28 39  1  0  0  0
 28 84  1  0  0  0
 28 85  1  0  0  0
 29 40  1  0  0  0
 29 50  1  0  0  0
 29 86  1  0  0  0
 29 87  1  0  0  0
 30 47  1  0  0  0
 30 51  1  0  0  0
 30 88  1  0  0  0
 30 89  1  0  0  0
 31 46  1  0  0  0
 31 52  1  0  0  0
 31 90  1  0  0  0
 31 91  1  0  0  0
 32 50  1  0  0  0
 32 51  1  0  0  0
 32 92  1  0  0  0
 32 93  1  0  0  0
 33 96  1  0  0  0
 34 38  1  0  0  0
 34 94  1  0  0  0
 35 42  1  0  0  0
 36 38  1  0  0  0
 36 43  1  0  0  0
 37 41  1  0  0  0
 37 48  1  0  0  0
 44 48  1  0  0  0
 45 54  1  0  0  0
 46 49  2  0  0  0
 47 53  1  0  0  0
 49 51  1  0  0  0
 50 52  1  0  0  0
 50 95  1  0  0  0
 52 54  1  0  0  0
M  CHG  1  33   1
M  END
> <s_m_source_file>
../3pz3_ligand.sdf

> <i_m_source_file_index>
1

> <s_epik_input>
W09IXVtDSDJdYzFbY0hdW2NIXWMobzEpLWMoW2NIXTIpW2NIXVtjSF1jKGMyMylOKFtDSDJdYzRbY0hdbltjSF1uNFtDSDNdKVtDSDJdW0NASF0oTihbQ0gyXTMpUyg9TykoPU8pYyhbY0hdW2NIXTUpW2NIXVtjSF1jNU9bQ0gzXSlbQ0gyXWM2W2NIXVtjSF1jKFtjSF1bY0hdNilPQyg9TylbTkhdW0NIMl1jN1tjSF1bY0hdW2NIXVtjSF1bY0hdNw==

> <s_epik_cmdline>
J2VwaWtfYXBwJywgJy1pbWFlJywgJ2xpZ2FuZF9wcm8ubWFlJywgJy1vbWFlJywgJ2xpZ2FuZF9wcmVwLm1hZScsICctbXMnLCAnMScsICctcGgnLCAnNycsICctcGh0JywgJzAuNScsICctbnQn

> <r_lp_tautomer_probability>
1

> <r_epik_Ionization_Penalty>
  0.0978

> <r_epik_Ionization_Penalty_Charging>
  0.0000

> <r_epik_Ionization_Penalty_Neutral>
  0.0978

> <r_epik_State_Penalty>
  0.0879

> <r_epik_Charging_Adjusted_Penalty>
0.0879386092385751

> <i_epik_Tot_Q>
1

> <i_epik_Tot_abs_Q>
1

$$$$
