3pz4_ligand
                    3D
 Schrodinger Suite 2020-3.
 68 72  0  0  1  0            999 V2000
   50.9050  -51.1910    5.1060 C   0  0  0  0  0  0
   52.0640  -51.6440    2.2590 N   0  0  2  0  0  0
   50.3420  -52.9800    0.4590 O   0  0  0  0  0  0
   50.4420  -51.7140    1.3070 S   0  0  0  0  0  0
   51.5220  -52.3400    4.6190 C   0  0  0  0  0  0
   51.1800  -49.9790    4.6000 N   0  0  0  0  0  0
   50.3480  -50.5290    0.3730 O   0  0  0  0  0  0
   51.3130  -53.5590    5.2040 C   0  0  0  0  0  0
   51.4840  -47.6490    7.9130 N   0  3  0  0  0  0
   45.6770  -51.5490    4.6630 O   0  0  0  0  0  0
   50.4790  -53.6520    6.2950 C   0  0  0  0  0  0
   50.0400  -47.0670    6.4660 N   0  0  0  0  0  0
   49.8760  -52.4970    6.8140 C   0  0  0  0  0  0
   50.2220  -56.0290    7.2730 N   0  0  0  0  0  0
   50.0910  -51.2620    6.2380 C   0  0  0  0  0  0
   52.4260  -52.4760    3.4400 C   0  0  0  0  0  0
   52.4770  -50.2250    2.4970 C   0  0  1  0  0  0
   52.4920  -49.7650    3.9600 C   0  0  0  0  0  0
   50.3190  -48.8340    4.7020 C   0  0  0  0  0  0
   50.6540  -48.1530    6.0180 C   0  0  0  0  0  0
   51.5570  -48.5120    6.9160 C   0  0  0  0  0  0
   50.5390  -46.7430    7.6390 C   0  0  0  0  0  0
   48.9190  -46.3650    5.7270 C   0  0  0  0  0  0
   53.8100  -49.9640    1.7690 C   0  0  0  0  0  0
   57.4560  -51.8270    3.1850 C   0  0  0  0  0  0
   56.6160  -52.4980    2.2950 C   0  0  0  0  0  0
   55.4410  -51.9050    1.8340 C   0  0  0  0  0  0
   55.0750  -50.6440    2.2810 C   0  0  0  0  0  0
   55.9150  -49.9620    3.1510 C   0  0  0  0  0  0
   57.1090  -50.5440    3.6100 C   0  0  0  0  0  0
   46.7760  -51.6000    3.8610 C   0  0  0  0  0  0
   47.3970  -52.8140    3.6150 C   0  0  0  0  0  0
   48.5140  -52.8770    2.8050 C   0  0  0  0  0  0
   49.0200  -51.6850    2.2890 C   0  0  0  0  0  0
   48.4020  -50.4620    2.5180 C   0  0  0  0  0  0
   47.2780  -50.4160    3.3250 C   0  0  0  0  0  0
   46.0560  -50.9100    5.9570 C   0  0  0  0  0  0
   50.2930  -54.9620    6.8600 C   0  0  0  0  0  0
   51.8029  -54.4491    4.8093 H   0  0  0  0  0  0
   49.2272  -52.5764    7.6863 H   0  0  0  0  0  0
   49.6366  -50.3639    6.6564 H   0  0  0  0  0  0
   52.4119  -53.5391    3.1577 H   0  0  0  0  0  0
   53.4333  -52.2020    3.7867 H   0  0  0  0  0  0
   51.6660  -49.6196    2.0659 H   0  0  0  0  0  0
   52.7437  -48.6946    3.9887 H   0  0  0  0  0  0
   53.2610  -50.3371    4.4998 H   0  0  0  0  0  0
   50.5044  -48.1591    3.8534 H   0  0  0  0  0  0
   49.2692  -49.1621    4.6869 H   0  0  0  0  0  0
   52.2353  -49.3623    6.8459 H   0  0  0  0  0  0
   50.2410  -45.9017    8.2647 H   0  0  0  0  0  0
   48.7330  -46.8768    4.7712 H   0  0  0  0  0  0
   49.2048  -45.3204    5.5341 H   0  0  0  0  0  0
   48.0054  -46.3881    6.3392 H   0  0  0  0  0  0
   53.7256  -50.2894    0.7216 H   0  0  0  0  0  0
   54.0412  -48.8891    1.8015 H   0  0  0  0  0  0
   58.3709  -52.2989    3.5433 H   0  0  0  0  0  0
   56.8820  -53.4991    1.9557 H   0  0  0  0  0  0
   54.8087  -52.4337    1.1207 H   0  0  0  0  0  0
   55.6442  -48.9598    3.4831 H   0  0  0  0  0  0
   57.7592  -49.9972    4.2929 H   0  0  0  0  0  0
   47.0014  -53.7252    4.0636 H   0  0  0  0  0  0
   48.9866  -53.8321    2.5757 H   0  0  0  0  0  0
   48.7968  -49.5509    2.0684 H   0  0  0  0  0  0
   46.7913  -49.4643    3.5386 H   0  0  0  0  0  0
   45.1754  -50.8629    6.6145 H   0  0  0  0  0  0
   46.4275  -49.8920    5.7683 H   0  0  0  0  0  0
   46.8445  -51.5040    6.4422 H   0  0  0  0  0  0
   52.1476  -47.7570    8.7836 H   0  0  0  0  0  0
  1  5  2  0  0  0
  1  6  1  0  0  0
  1 15  1  0  0  0
  2  4  1  0  0  0
  2 16  1  0  0  0
  2 17  1  0  0  0
  3  4  2  0  0  0
  4  7  2  0  0  0
  4 34  1  0  0  0
  5  8  1  0  0  0
  5 16  1  0  0  0
  6 18  1  0  0  0
  6 19  1  0  0  0
  8 11  2  0  0  0
  8 39  1  0  0  0
  9 21  1  0  0  0
  9 22  2  0  0  0
  9 68  1  0  0  0
 10 31  1  0  0  0
 10 37  1  0  0  0
 11 13  1  0  0  0
 11 38  1  0  0  0
 12 20  1  0  0  0
 12 22  1  0  0  0
 12 23  1  0  0  0
 13 15  2  0  0  0
 13 40  1  0  0  0
 14 38  3  0  0  0
 15 41  1  0  0  0
 16 42  1  0  0  0
 16 43  1  0  0  0
 17 18  1  0  0  0
 17 24  1  0  0  0
 17 44  1  0  0  0
 18 45  1  0  0  0
 18 46  1  0  0  0
 19 20  1  0  0  0
 19 47  1  0  0  0
 19 48  1  0  0  0
 20 21  2  0  0  0
 21 49  1  0  0  0
 22 50  1  0  0  0
 23 51  1  0  0  0
 23 52  1  0  0  0
 23 53  1  0  0  0
 24 28  1  0  0  0
 24 54  1  0  0  0
 24 55  1  0  0  0
 25 26  2  0  0  0
 25 30  1  0  0  0
 25 56  1  0  0  0
 26 27  1  0  0  0
 26 57  1  0  0  0
 27 28  2  0  0  0
 27 58  1  0  0  0
 28 29  1  0  0  0
 29 30  2  0  0  0
 29 59  1  0  0  0
 30 60  1  0  0  0
 31 32  2  0  0  0
 31 36  1  0  0  0
 32 33  1  0  0  0
 32 61  1  0  0  0
 33 34  2  0  0  0
 33 62  1  0  0  0
 34 35  1  0  0  0
 35 36  2  0  0  0
 35 63  1  0  0  0
 36 64  1  0  0  0
 37 65  1  0  0  0
 37 66  1  0  0  0
 37 67  1  0  0  0
M  CHG  1   9   1
M  END
> <s_m_source_file>
../3pz4_ligand.sdf

> <i_m_source_file_index>
1

> <s_epik_input>
W0NIM11PYzFbY0hdW2NIXWMoW2NIXVtjSF0xKVMoPU8pKD1PKU4oW0NIMl1jKGMyMylbY0hdYyhDI04pW2NIXVtjSF0zKVtDQEBIXShbQ0gyXU4yW0NIMl1jKG40W0NIM10pW2NIXW5bY0hdNClbQ0gyXWM1W2NIXVtjSF1bY0hdW2NIXVtjSF01

> <s_epik_cmdline>
J2VwaWtfYXBwJywgJy1pbWFlJywgJ2xpZ2FuZF9wcm8ubWFlJywgJy1vbWFlJywgJ2xpZ2FuZF9wcmVwLm1hZScsICctbXMnLCAnMScsICctcGgnLCAnNycsICctcGh0JywgJzAuNScsICctbnQn

> <r_lp_tautomer_probability>
1

> <r_epik_Ionization_Penalty>
  0.0978

> <r_epik_Ionization_Penalty_Charging>
  0.0000

> <r_epik_Ionization_Penalty_Neutral>
  0.0978

> <r_epik_State_Penalty>
  0.0879

> <r_epik_Charging_Adjusted_Penalty>
0.0879386092385751

> <i_epik_Tot_Q>
1

> <i_epik_Tot_abs_Q>
1

$$$$
