3q0z_ligand
                    3D
 Schrodinger Suite 2020-3.
 84 90  0  0  1  0            999 V2000
   20.7290    3.4770  -15.3650 N   0  0  0  0  0  0
   20.3560    3.6680  -16.7680 C   0  0  0  0  0  0
   20.9650    4.9380  -17.3480 C   0  0  0  0  0  0
   22.2840    5.1770  -17.1270 N   0  0  0  0  0  0
   22.9540    6.3200  -17.6190 C   0  0  0  0  0  0
   20.2550    5.6940  -18.0000 O   0  0  0  0  0  0
   22.2330    7.4410  -18.0780 C   0  0  0  0  0  0
   22.9130    8.5570  -18.5560 C   0  0  0  0  0  0
   24.3220    8.5660  -18.5770 C   0  0  0  0  0  0
   25.0360    7.4500  -18.0990 C   0  0  0  0  0  0
   24.3570    6.3230  -17.6220 C   0  0  0  0  0  0
   25.0110    9.8050  -19.1040 C   0  0  0  0  0  0
   26.2230   10.1620  -18.6780 C   0  0  0  0  0  0
   26.9560   11.3450  -19.1380 C   0  0  0  0  0  0
   26.2730   12.3630  -19.7090 O   0  5  0  0  0  0
   18.8130    3.5250  -16.8970 C   0  0  0  0  0  0
   20.8240    2.4500  -17.6060 C   0  0  0  0  0  0
   18.5450    2.9760  -18.3130 C   0  0  0  0  0  0
   19.9290    2.5670  -18.8640 C   0  0  0  0  0  0
   28.1790   11.3690  -18.9800 O   0  0  0  0  0  0
   20.5070    4.4230  -14.4140 C   0  0  0  0  0  0
   20.8780    4.1090  -12.9940 C   0  0  0  0  0  0
   20.1150    4.6320  -11.9350 C   0  0  0  0  0  0
   20.3860    4.3050  -10.6040 C   0  0  0  0  0  0
   21.8960    3.1730  -12.7350 C   0  0  0  0  0  0
   23.0620    2.0220  -10.8500 N   0  0  0  0  0  0
   22.1410    2.8390  -11.3870 C   0  0  0  0  0  0
   21.4170    3.4070  -10.3560 C   0  0  0  0  0  0
   21.9920    2.7930   -9.1040 C   0  0  0  0  0  0
   22.9710    1.9870   -9.5330 C   0  0  0  0  0  0
   21.4610    3.1030   -7.7200 C   0  0  0  0  0  0
   23.8390    1.1100   -8.6740 C   0  0  0  0  0  0
   21.7460    4.5400   -7.1700 C   0  0  0  0  0  0
   21.0800    4.7530   -5.7840 C   0  0  0  0  0  0
   19.5640    4.4460   -5.8710 C   0  0  0  0  0  0
   19.3660    2.9530   -6.2420 C   0  0  0  0  0  0
   19.9390    2.7390   -7.6630 C   0  0  0  0  0  0
   19.9590    5.4950  -14.6320 O   0  0  0  0  0  0
   24.3360    1.6040   -7.4540 C   0  0  0  0  0  0
   25.0180    0.7510   -6.5710 C   0  0  0  0  0  0
   25.2270   -0.5910   -6.9390 C   0  0  0  0  0  0
   24.7570   -1.0800   -8.1750 C   0  0  0  0  0  0
   24.0610   -0.2360   -9.0580 C   0  0  0  0  0  0
   24.0510    1.2770  -11.6240 C   0  0  0  0  0  0
   23.5700   -0.7750  -10.2900 N   0  0  0  0  0  0
   23.5440   -0.1350  -11.4940 C   0  0  0  0  0  0
   23.0930   -0.6850  -12.4990 O   0  0  0  0  0  0
   21.2084    2.5398  -15.0460 H   0  0  0  0  0  0
   22.8816    4.4634  -16.5408 H   0  0  0  0  0  0
   21.1432    7.4336  -18.0585 H   0  0  0  0  0  0
   22.3564    9.4232  -18.9138 H   0  0  0  0  0  0
   26.1259    7.4642  -18.1006 H   0  0  0  0  0  0
   24.9113    5.4582  -17.2573 H   0  0  0  0  0  0
   24.4898   10.4166  -19.8552 H   0  0  0  0  0  0
   26.7443    9.5503  -17.9269 H   0  0  0  0  0  0
   18.4436    2.8304  -16.1282 H   0  0  0  0  0  0
   18.3408    4.5089  -16.7595 H   0  0  0  0  0  0
   21.8968    2.5483  -17.8281 H   0  0  0  0  0  0
   20.6507    1.5249  -17.0367 H   0  0  0  0  0  0
   17.8663    2.1127  -18.2492 H   0  0  0  0  0  0
   18.0826    3.7611  -18.9293 H   0  0  0  0  0  0
   20.3443    3.3291  -19.5398 H   0  0  0  0  0  0
   19.8954    1.5970  -19.3816 H   0  0  0  0  0  0
   19.2911    5.3098  -12.1582 H   0  0  0  0  0  0
   19.8084    4.7394   -9.7880 H   0  0  0  0  0  0
   22.4723    2.7240  -13.5439 H   0  0  0  0  0  0
   22.0594    2.4563   -7.0614 H   0  0  0  0  0  0
   22.8314    4.6832   -7.0634 H   0  0  0  0  0  0
   21.3447    5.2871   -7.8706 H   0  0  0  0  0  0
   21.5435    4.0804   -5.0473 H   0  0  0  0  0  0
   21.2199    5.7968   -5.4665 H   0  0  0  0  0  0
   19.0921    4.6503   -4.8986 H   0  0  0  0  0  0
   19.1048    5.0819   -6.6422 H   0  0  0  0  0  0
   19.8990    2.3211   -5.5163 H   0  0  0  0  0  0
   18.2935    2.7094   -6.2222 H   0  0  0  0  0  0
   19.3829    3.3771   -8.3656 H   0  0  0  0  0  0
   19.8038    1.6833   -7.9407 H   0  0  0  0  0  0
   24.1912    2.6524   -7.1932 H   0  0  0  0  0  0
   25.3807    1.1237   -5.6131 H   0  0  0  0  0  0
   25.7579   -1.2596   -6.2613 H   0  0  0  0  0  0
   24.9346   -2.1202   -8.4480 H   0  0  0  0  0  0
   24.0546    1.6415  -12.6619 H   0  0  0  0  0  0
   25.0476    1.4213  -11.1812 H   0  0  0  0  0  0
   23.1653   -1.7974  -10.3205 H   0  0  0  0  0  0
  1  2  1  0  0  0
  1 21  1  0  0  0
  1 48  1  0  0  0
  2  3  1  0  0  0
  2 16  1  0  0  0
  2 17  1  0  0  0
  3  4  1  0  0  0
  3  6  2  0  0  0
  4  5  1  0  0  0
  4 49  1  0  0  0
  5  7  2  0  0  0
  5 11  1  0  0  0
  7  8  1  0  0  0
  7 50  1  0  0  0
  8  9  2  0  0  0
  8 51  1  0  0  0
  9 10  1  0  0  0
  9 12  1  0  0  0
 10 11  2  0  0  0
 10 52  1  0  0  0
 11 53  1  0  0  0
 12 13  2  0  0  0
 12 54  1  0  0  0
 13 14  1  0  0  0
 13 55  1  0  0  0
 14 15  1  0  0  0
 14 20  2  0  0  0
 16 18  1  0  0  0
 16 56  1  0  0  0
 16 57  1  0  0  0
 17 19  1  0  0  0
 17 58  1  0  0  0
 17 59  1  0  0  0
 18 19  1  0  0  0
 18 60  1  0  0  0
 18 61  1  0  0  0
 19 62  1  0  0  0
 19 63  1  0  0  0
 21 22  1  0  0  0
 21 38  2  0  0  0
 22 23  2  0  0  0
 22 25  1  0  0  0
 23 24  1  0  0  0
 23 64  1  0  0  0
 24 28  2  0  0  0
 24 65  1  0  0  0
 25 27  2  0  0  0
 25 66  1  0  0  0
 26 27  1  0  0  0
 26 30  1  0  0  0
 26 44  1  0  0  0
 27 28  1  0  0  0
 28 29  1  0  0  0
 29 30  2  0  0  0
 29 31  1  0  0  0
 30 32  1  0  0  0
 31 33  1  0  0  0
 31 37  1  0  0  0
 31 67  1  0  0  0
 32 39  2  0  0  0
 32 43  1  0  0  0
 33 34  1  0  0  0
 33 68  1  0  0  0
 33 69  1  0  0  0
 34 35  1  0  0  0
 34 70  1  0  0  0
 34 71  1  0  0  0
 35 36  1  0  0  0
 35 72  1  0  0  0
 35 73  1  0  0  0
 36 37  1  0  0  0
 36 74  1  0  0  0
 36 75  1  0  0  0
 37 76  1  0  0  0
 37 77  1  0  0  0
 39 40  1  0  0  0
 39 78  1  0  0  0
 40 41  2  0  0  0
 40 79  1  0  0  0
 41 42  1  0  0  0
 41 80  1  0  0  0
 42 43  2  0  0  0
 42 81  1  0  0  0
 43 45  1  0  0  0
 44 46  1  0  0  0
 44 82  1  0  0  0
 44 83  1  0  0  0
 45 46  1  0  0  0
 45 84  1  0  0  0
 46 47  2  0  0  0
M  CHG  1  15  -1
M  END
> <s_m_source_file>
../3q0z_ligand.sdf

> <i_m_source_file_index>
1

> <s_epik_input>
W09IXUMoPU8pXFtDSF09W0NIXVxjKFtjSF1bY0hdMSlbY0hdW2NIXWMxW05IXUMoPU8pQzIoW0NIMl1bQ0gyXVtDSDJdW0NIMl0yKVtOSF1DKD1PKWMoW2NIXTMpW2NIXVtjSF1jKGMzbjQ1KWMoW0NIXTZbQ0gyXVtDSDJdW0NIMl1bQ0gyXVtDSDJdNiljNGM3YyhbTkhdQyg9TylbQ0gyXTUpW2NIXVtjSF1bY0hdW2NIXTc=

> <s_epik_cmdline>
J2VwaWtfYXBwJywgJy1pbWFlJywgJ2xpZ2FuZF9wcm8ubWFlJywgJy1vbWFlJywgJ2xpZ2FuZF9wcmVwLm1hZScsICctbXMnLCAnMScsICctcGgnLCAnNycsICctcGh0JywgJzAuNScsICctbnQn

> <r_lp_tautomer_probability>
1

> <r_epik_Ionization_Penalty>
  0.0018

> <r_epik_Ionization_Penalty_Charging>
  0.0018

> <r_epik_Ionization_Penalty_Neutral>
  0.0000

> <r_epik_State_Penalty>
 -0.0000

> <r_epik_Charging_Adjusted_Penalty>
0.00184654539990615

> <i_epik_Tot_Q>
-1

> <i_epik_Tot_abs_Q>
1

$$$$
