3q1x_ligand
                    3D
 Schrodinger Suite 2020-3.
 14 13  0  0  1  0            999 V2000
   -2.6190  -15.9300  -11.8020 N   0  3  0  0  0  0
   -2.8470  -16.3760  -10.3940 C   0  0  2  0  0  0
   -4.1080  -17.2230  -10.2980 C   0  0  0  0  0  0
   -4.8300  -17.3960  -11.2780 O   0  5  0  0  0  0
   -2.9480  -15.1680   -9.4590 C   0  0  0  0  0  0
   -4.1000  -14.3880   -9.7520 O   0  0  0  0  0  0
   -4.4270  -17.7490   -9.2390 O   0  0  0  0  0  0
   -2.5491  -16.8098  -12.4585 H   0  0  0  0  0  0
   -1.6825  -15.3557  -11.8576 H   0  0  0  0  0  0
   -3.4576  -15.2962  -12.1262 H   0  0  0  0  0  0
   -1.9819  -16.9916  -10.1064 H   0  0  0  0  0  0
   -3.0142  -15.5152   -8.4173 H   0  0  0  0  0  0
   -2.0557  -14.5359   -9.5788 H   0  0  0  0  0  0
   -4.3147  -13.4824   -9.1657 H   0  0  0  0  0  0
  1  2  1  0  0  0
  1  8  1  0  0  0
  1  9  1  0  0  0
  1 10  1  0  0  0
  2  3  1  0  0  0
  2  5  1  0  0  0
  2 11  1  0  0  0
  3  4  1  0  0  0
  3  7  2  0  0  0
  5  6  1  0  0  0
  5 12  1  0  0  0
  5 13  1  0  0  0
  6 14  1  0  0  0
M  CHG  2   1   1   4  -1
M  END
> <s_m_source_file>
../3q1x_ligand.sdf

> <i_m_source_file_index>
1

> <s_epik_input>
W09IXVtDSDJdW0NASF0oW05IMytdKUMoPU8pW09IXQ==

> <s_epik_cmdline>
J2VwaWtfYXBwJywgJy1pbWFlJywgJ2xpZ2FuZF9wcm8ubWFlJywgJy1vbWFlJywgJ2xpZ2FuZF9wcmVwLm1hZScsICctbXMnLCAnMScsICctcGgnLCAnNycsICctcGh0JywgJzAuNScsICctbnQn

> <r_lp_tautomer_probability>
1

> <r_epik_Ionization_Penalty>
  0.0007

> <r_epik_Ionization_Penalty_Charging>
  0.0007

> <r_epik_Ionization_Penalty_Neutral>
  0.0000

> <r_epik_State_Penalty>
 -0.0000

> <r_epik_Charging_Adjusted_Penalty>
0.000747601593621184

> <i_epik_Tot_Q>
0

> <i_epik_Tot_abs_Q>
2

$$$$
