3q2g_ligand
                    3D
 Schrodinger Suite 2020-3.
 65 67  0  0  1  0            999 V2000
    9.1530  -12.1080    3.7220 C   0  0  0  0  0  0
   10.5310  -14.8000   21.2150 Cl  0  0  0  0  0  0
   10.0580  -12.2030    4.9540 C   0  0  1  0  0  0
   11.5440  -11.4160   17.2100 Cl  0  0  0  0  0  0
    9.1590  -12.1520    6.1830 C   0  0  0  0  0  0
    9.8700  -11.6320    7.4430 C   0  0  1  0  0  0
   10.5070  -10.2640    7.1900 C   0  0  0  0  0  0
    8.7230  -11.4770    8.4460 C   0  0  0  0  0  0
    9.1080  -10.7120   10.0460 S   0  0  0  0  0  0
   10.1260   -9.7070   10.0110 O   0  0  0  0  0  0
    7.9060  -10.4550   10.7290 O   0  0  0  0  0  0
    9.7610  -11.9420   10.9400 N   0  0  3  0  0  0
    8.9240  -13.1040   11.2660 C   0  0  0  0  0  0
    8.9600  -13.3110   12.7830 C   0  0  0  0  0  0
   10.3930  -13.5100   13.2500 C   0  0  0  0  0  0
   11.1900  -12.2230   12.9530 C   0  0  0  0  0  0
   11.1510  -11.8900   11.4430 C   0  0  0  0  0  0
   10.3510  -13.8170   14.6520 O   0  0  0  0  0  0
   11.5920  -13.9160   15.3590 C   0  0  0  0  0  0
   11.3270  -14.1300   16.8280 C   0  0  0  0  0  0
   11.1200  -15.4250   17.2890 C   0  0  0  0  0  0
   10.8730  -15.6290   18.6410 C   0  0  0  0  0  0
   10.8320  -14.5520   19.5240 C   0  0  0  0  0  0
   11.0400  -13.2660   19.0660 C   0  0  0  0  0  0
   11.2900  -13.0560   17.7240 C   0  0  0  0  0  0
   10.8840  -12.6230    7.9040 N   0  0  0  0  0  0
   10.5040  -13.9090    8.3340 O   0  0  0  0  0  0
   12.2080  -12.3660    7.9400 C   0  0  0  0  0  0
   12.9390  -13.2520    8.3480 O   0  0  0  0  0  0
   10.8560  -13.4890    4.8720 C   0  0  0  0  0  0
   10.2350  -14.6690    4.7910 N   0  0  0  0  0  0
   10.9270  -15.7920    4.6960 C   0  0  0  0  0  0
   12.3220  -15.7180    4.6810 C   0  0  0  0  0  0
   13.0700  -16.8440    4.6020 F   0  0  0  0  0  0
   12.9460  -14.4760    4.7700 C   0  0  0  0  0  0
   12.1830  -13.3980    4.8620 N   0  0  0  0  0  0
    8.5671  -11.1782    3.7683 H   0  0  0  0  0  0
    8.4708  -12.9706    3.7008 H   0  0  0  0  0  0
    9.7712  -12.1070    2.8121 H   0  0  0  0  0  0
   10.7847  -11.3795    5.0154 H   0  0  0  0  0  0
    8.3072  -11.4842    5.9868 H   0  0  0  0  0  0
    8.7881  -13.1628    6.4082 H   0  0  0  0  0  0
    9.7351   -9.5570    6.8520 H   0  0  0  0  0  0
   11.2824  -10.3582    6.4155 H   0  0  0  0  0  0
   10.9614   -9.8934    8.1207 H   0  0  0  0  0  0
    7.9335  -10.8500    8.0061 H   0  0  0  0  0  0
    8.3117  -12.4679    8.6887 H   0  0  0  0  0  0
    7.8918  -12.9168   10.9349 H   0  0  0  0  0  0
    9.3175  -13.9945   10.7540 H   0  0  0  0  0  0
    8.5368  -12.4277   13.2837 H   0  0  0  0  0  0
    8.3682  -14.2002   13.0459 H   0  0  0  0  0  0
   10.8895  -14.3733   12.7828 H   0  0  0  0  0  0
   10.7525  -11.3834   13.5130 H   0  0  0  0  0  0
   12.2375  -12.3615   13.2589 H   0  0  0  0  0  0
   11.7656  -12.6220   10.8985 H   0  0  0  0  0  0
   11.5596  -10.8806   11.2878 H   0  0  0  0  0  0
   12.1710  -14.7649   14.9663 H   0  0  0  0  0  0
   12.1658  -12.9872   15.2244 H   0  0  0  0  0  0
   11.1510  -16.2686   16.5995 H   0  0  0  0  0  0
   10.7099  -16.6401   19.0140 H   0  0  0  0  0  0
   11.0072  -12.4241   19.7575 H   0  0  0  0  0  0
    9.4424  -14.1973    8.3350 H   0  0  0  0  0  0
   12.6352  -11.4043    7.6198 H   0  0  0  0  0  0
   10.4198  -16.7546    4.6308 H   0  0  0  0  0  0
   14.0329  -14.3938    4.7641 H   0  0  0  0  0  0
  1  3  1  0  0  0
  1 37  1  0  0  0
  1 38  1  0  0  0
  1 39  1  0  0  0
  2 23  1  0  0  0
  3  5  1  0  0  0
  3 30  1  0  0  0
  3 40  1  0  0  0
  4 25  1  0  0  0
  5  6  1  0  0  0
  5 41  1  0  0  0
  5 42  1  0  0  0
  6  7  1  0  0  0
  6  8  1  0  0  0
  6 26  1  0  0  0
  7 43  1  0  0  0
  7 44  1  0  0  0
  7 45  1  0  0  0
  8  9  1  0  0  0
  8 46  1  0  0  0
  8 47  1  0  0  0
  9 10  2  0  0  0
  9 11  2  0  0  0
  9 12  1  0  0  0
 12 13  1  0  0  0
 12 17  1  0  0  0
 13 14  1  0  0  0
 13 48  1  0  0  0
 13 49  1  0  0  0
 14 15  1  0  0  0
 14 50  1  0  0  0
 14 51  1  0  0  0
 15 16  1  0  0  0
 15 18  1  0  0  0
 15 52  1  0  0  0
 16 17  1  0  0  0
 16 53  1  0  0  0
 16 54  1  0  0  0
 17 55  1  0  0  0
 17 56  1  0  0  0
 18 19  1  0  0  0
 19 20  1  0  0  0
 19 57  1  0  0  0
 19 58  1  0  0  0
 20 21  2  0  0  0
 20 25  1  0  0  0
 21 22  1  0  0  0
 21 59  1  0  0  0
 22 23  2  0  0  0
 22 60  1  0  0  0
 23 24  1  0  0  0
 24 25  2  0  0  0
 24 61  1  0  0  0
 26 27  1  0  0  0
 26 28  1  0  0  0
 27 62  1  0  0  0
 28 29  2  0  0  0
 28 63  1  0  0  0
 30 31  2  0  0  0
 30 36  1  0  0  0
 31 32  1  0  0  0
 32 33  2  0  0  0
 32 64  1  0  0  0
 33 34  1  0  0  0
 33 35  1  0  0  0
 35 36  2  0  0  0
 35 65  1  0  0  0
M  END
> <s_m_source_file>
../3q2g_ligand.sdf

> <i_m_source_file_index>
1

> <s_epik_input>
bjFbY0hdYyhGKVtjSF1uYzFbQ0BASF0oW0NIM10pW0NIMl1bQ0BdKFtDSDNdKShOKFtPSF0pW0NIXT1PKVtDSDJdUyg9TykoPU8pTjJbQ0gyXVtDSDJdW0NIXShbQ0gyXVtDSDJdMilPW0NIMl1jM1tjSF1bY0hdYyhDbClbY0hdYzNDbA==

> <s_epik_cmdline>
J2VwaWtfYXBwJywgJy1pbWFlJywgJ2xpZ2FuZF9wcm8ubWFlJywgJy1vbWFlJywgJ2xpZ2FuZF9wcmVwLm1hZScsICctbXMnLCAnMScsICctcGgnLCAnNycsICctcGh0JywgJzAuNScsICctbnQn

> <r_lp_tautomer_probability>
1

> <r_epik_Ionization_Penalty>
  0.0093

> <r_epik_Ionization_Penalty_Charging>
  0.0000

> <r_epik_Ionization_Penalty_Neutral>
  0.0093

> <r_epik_State_Penalty>
 -0.0000

> <r_epik_Charging_Adjusted_Penalty>
0

> <i_epik_Tot_Q>
0

> <i_epik_Tot_abs_Q>
0

> <s_epik_Chemistry_Notes>
This compound contains an electron-poor aromatic ring that is susceptible to covalent hydrolysis at low pH, typically resulting in measured values for nitrogen ring protonation that are around two units higher than predicted values. This compound has a N-S or N-O group and may undergo hydrolysis at high or low pH.

$$$$
