3q2h_ligand
                    3D
 Schrodinger Suite 2020-3.
 69 71  0  0  1  0            999 V2000
    9.2210  -14.5250    2.4060 C   0  0  0  0  0  0
   12.8150  -19.1190    3.9190 F   0  0  0  0  0  0
    9.3110  -14.0750    9.6020 N   0  0  2  0  0  0
    9.3610  -11.6400    8.8480 O   0  0  0  0  0  0
    8.4950  -12.8020    8.8450 S   0  0  0  0  0  0
    9.9240  -14.5210    3.7560 C   0  0  1  0  0  0
   10.1540  -13.9680   18.3050 N   0  0  0  0  0  0
    7.1680  -12.7320    9.4210 O   0  0  0  0  0  0
    8.9290  -14.2280    4.8970 C   0  0  0  0  0  0
   10.4060  -14.6410    6.7830 N   0  0  0  0  0  0
   10.0690  -15.3550   18.2270 O   0  0  0  0  0  0
    9.4650  -13.6770    6.2230 C   0  0  1  0  0  0
   11.9730  -15.6910    3.9550 N   0  0  0  0  0  0
    9.9380  -15.9220    7.1090 O   0  0  0  0  0  0
   10.1940  -12.3920    5.9920 C   0  0  0  0  0  0
    9.9760  -16.9700    3.6870 N   0  0  0  0  0  0
   12.4110  -15.3940    7.5200 O   0  0  0  0  0  0
    8.2710  -13.4040    7.1560 C   0  0  0  0  0  0
    8.3850  -15.0800   10.1790 C   0  0  0  0  0  0
    8.2660  -14.9340   11.6710 C   0  0  0  0  0  0
    9.6430  -14.9950   12.3100 C   0  0  0  0  0  0
    9.4200  -14.9230   13.8120 C   0  0  0  0  0  0
   10.6680  -14.6630   14.6410 C   0  0  0  0  0  0
   10.4240  -14.6360   16.1260 C   0  0  0  0  0  0
   10.3540  -13.5470   17.0580 C   0  0  0  0  0  0
   10.4620  -12.0930   16.9110 C   0  0  0  0  0  0
   10.2390  -15.7480   16.9290 C   0  0  0  0  0  0
   10.1980  -17.2040   16.6760 C   0  0  0  0  0  0
   10.5150  -13.8380   11.8240 C   0  0  0  0  0  0
   10.5640  -13.6870   10.3230 C   0  0  0  0  0  0
   11.7350  -14.4980    7.0400 C   0  0  0  0  0  0
   10.6570  -15.8280    3.8080 C   0  0  0  0  0  0
   12.6920  -16.8060    3.9850 C   0  0  0  0  0  0
   12.0760  -18.0180    3.8790 C   0  0  0  0  0  0
   10.7090  -18.0780    3.7340 C   0  0  0  0  0  0
    8.6534  -13.5905    2.2854 H   0  0  0  0  0  0
    8.5327  -15.3815    2.3536 H   0  0  0  0  0  0
    9.9689  -14.6059    1.6034 H   0  0  0  0  0  0
   10.6761  -13.7276    3.8784 H   0  0  0  0  0  0
    8.1966  -13.4789    4.5615 H   0  0  0  0  0  0
    8.4050  -15.1548    5.1736 H   0  0  0  0  0  0
    8.8796  -16.1773    6.9522 H   0  0  0  0  0  0
   11.0511  -12.5713    5.3262 H   0  0  0  0  0  0
   10.5531  -11.9962    6.9535 H   0  0  0  0  0  0
    9.5141  -11.6633    5.5264 H   0  0  0  0  0  0
    7.7497  -14.3724    7.1780 H   0  0  0  0  0  0
    7.6732  -12.6788    6.5845 H   0  0  0  0  0  0
    7.3854  -14.9534    9.7378 H   0  0  0  0  0  0
    8.7577  -16.0912    9.9586 H   0  0  0  0  0  0
    7.7991  -13.9668   11.9087 H   0  0  0  0  0  0
    7.6449  -15.7491   12.0708 H   0  0  0  0  0  0
   10.1669  -15.9234   12.0387 H   0  0  0  0  0  0
    8.7178  -14.1075   14.0397 H   0  0  0  0  0  0
    9.0020  -15.8766   14.1668 H   0  0  0  0  0  0
   11.4074  -15.4543   14.4486 H   0  0  0  0  0  0
   11.0948  -13.6874   14.3651 H   0  0  0  0  0  0
   10.3479  -11.6155   17.8954 H   0  0  0  0  0  0
    9.6722  -11.7331   16.2352 H   0  0  0  0  0  0
   11.4469  -11.8390   16.4921 H   0  0  0  0  0  0
   10.0227  -17.7359   17.6228 H   0  0  0  0  0  0
   11.1567  -17.5284   16.2452 H   0  0  0  0  0  0
    9.3840  -17.4310   15.9718 H   0  0  0  0  0  0
   10.1287  -12.8918   12.2307 H   0  0  0  0  0  0
   11.5493  -13.9893   12.1667 H   0  0  0  0  0  0
   11.3976  -14.3133    9.9725 H   0  0  0  0  0  0
   10.7902  -12.6294   10.1220 H   0  0  0  0  0  0
   12.1972  -13.5295    6.7981 H   0  0  0  0  0  0
   13.7752  -16.7531    4.0944 H   0  0  0  0  0  0
   10.2196  -19.0489    3.6565 H   0  0  0  0  0  0
  1  6  1  0  0  0
  1 36  1  0  0  0
  1 37  1  0  0  0
  1 38  1  0  0  0
  2 34  1  0  0  0
  3  5  1  0  0  0
  3 19  1  0  0  0
  3 30  1  0  0  0
  4  5  2  0  0  0
  5  8  2  0  0  0
  5 18  1  0  0  0
  6  9  1  0  0  0
  6 32  1  0  0  0
  6 39  1  0  0  0
  7 11  1  0  0  0
  7 25  2  0  0  0
  9 12  1  0  0  0
  9 40  1  0  0  0
  9 41  1  0  0  0
 10 12  1  0  0  0
 10 14  1  0  0  0
 10 31  1  0  0  0
 11 27  1  0  0  0
 12 15  1  0  0  0
 12 18  1  0  0  0
 13 32  2  0  0  0
 13 33  1  0  0  0
 14 42  1  0  0  0
 15 43  1  0  0  0
 15 44  1  0  0  0
 15 45  1  0  0  0
 16 32  1  0  0  0
 16 35  2  0  0  0
 17 31  2  0  0  0
 18 46  1  0  0  0
 18 47  1  0  0  0
 19 20  1  0  0  0
 19 48  1  0  0  0
 19 49  1  0  0  0
 20 21  1  0  0  0
 20 50  1  0  0  0
 20 51  1  0  0  0
 21 22  1  0  0  0
 21 29  1  0  0  0
 21 52  1  0  0  0
 22 23  1  0  0  0
 22 53  1  0  0  0
 22 54  1  0  0  0
 23 24  1  0  0  0
 23 55  1  0  0  0
 23 56  1  0  0  0
 24 25  1  0  0  0
 24 27  2  0  0  0
 25 26  1  0  0  0
 26 57  1  0  0  0
 26 58  1  0  0  0
 26 59  1  0  0  0
 27 28  1  0  0  0
 28 60  1  0  0  0
 28 61  1  0  0  0
 28 62  1  0  0  0
 29 30  1  0  0  0
 29 63  1  0  0  0
 29 64  1  0  0  0
 30 65  1  0  0  0
 30 66  1  0  0  0
 31 67  1  0  0  0
 33 34  2  0  0  0
 33 68  1  0  0  0
 34 35  1  0  0  0
 35 69  1  0  0  0
M  END
> <s_m_source_file>
../3q2h_ligand.sdf

> <i_m_source_file_index>
1

> <s_epik_input>
bjFbY0hdYyhGKVtjSF1uYzFbQ0BASF0oW0NIM10pW0NIMl1bQ0BdKFtDSDNdKShOKFtPSF0pW0NIXT1PKVtDSDJdUyg9TykoPU8pTjJbQ0gyXVtDSDJdW0NIXShbQ0gyXVtDSDJdMilbQ0gyXVtDSDJdYzNjKFtDSDNdKW5vYzNbQ0gzXQ==

> <s_epik_cmdline>
J2VwaWtfYXBwJywgJy1pbWFlJywgJ2xpZ2FuZF9wcm8ubWFlJywgJy1vbWFlJywgJ2xpZ2FuZF9wcmVwLm1hZScsICctbXMnLCAnMScsICctcGgnLCAnNycsICctcGh0JywgJzAuNScsICctbnQn

> <r_lp_tautomer_probability>
1

> <r_epik_Ionization_Penalty>
  0.0093

> <r_epik_Ionization_Penalty_Charging>
  0.0000

> <r_epik_Ionization_Penalty_Neutral>
  0.0093

> <r_epik_State_Penalty>
 -0.0000

> <r_epik_Charging_Adjusted_Penalty>
0

> <i_epik_Tot_Q>
0

> <i_epik_Tot_abs_Q>
0

> <s_epik_Chemistry_Notes>
This compound contains an electron-poor aromatic ring that is susceptible to covalent hydrolysis at low pH, typically resulting in measured values for nitrogen ring protonation that are around two units higher than predicted values. This compound has a N-S or N-O group and may undergo hydrolysis at high or low pH.

$$$$
