3q2j_ligand
                    3D
 Schrodinger Suite 2020-3.
 31 32  0  0  1  0            999 V2000
   29.2340   10.7470   69.9760 C   0  0  0  0  0  0
   28.8390   11.4140   71.0850 N   0  0  0  0  0  0
   27.6260   11.1500   71.6580 C   0  0  0  0  0  0
   26.7850   10.1940   71.1220 C   0  0  0  0  0  0
   26.3390    8.3940   69.3230 C   0  0  0  0  0  0
   24.8400    7.9800   69.9300 Cl  0  0  0  0  0  0
   26.7830    7.6990   68.1600 C   0  0  0  0  0  0
   28.0050    8.0030   67.6070 C   0  0  0  0  0  0
   28.8420    9.0130   68.1990 C   0  0  0  0  0  0
   28.4050    9.7360   69.3860 C   0  0  0  0  0  0
   27.1770    9.4410   69.9370 C   0  0  0  0  0  0
   30.3800    9.3200   67.4130 S   0  0  0  0  0  0
   31.4990    8.9680   68.3160 O   0  0  0  0  0  0
   30.4760   10.7980   67.0700 O   0  0  0  0  0  0
   30.4370    8.4430   66.0270 N   0  0  3  0  0  0
   31.0630    7.1270   66.2590 C   0  0  0  0  0  0
   30.7990    6.4130   67.5980 C   0  0  0  0  0  0
   31.5860    5.2200   67.9390 N   0  3  0  0  0  0
   30.1976   10.9817   69.5237 H   0  0  0  0  0  0
   27.3191   11.7000   72.5476 H   0  0  0  0  0  0
   25.8194   10.0010   71.5895 H   0  0  0  0  0  0
   26.1559    6.9291   67.7105 H   0  0  0  0  0  0
   28.3417    7.4755   66.7145 H   0  0  0  0  0  0
   30.2341    8.7822   65.0005 H   0  0  0  0  0  0
   30.7212    6.4179   65.4907 H   0  0  0  0  0  0
   32.1571    7.2268   66.2051 H   0  0  0  0  0  0
   30.9838    7.1106   68.4282 H   0  0  0  0  0  0
   29.7539    6.0716   67.6317 H   0  0  0  0  0  0
   31.2698    4.8408   68.9219 H   0  0  0  0  0  0
   32.6536    5.4826   67.9734 H   0  0  0  0  0  0
   31.4237    4.4436   67.1769 H   0  0  0  0  0  0
  1  2  2  0  0  0
  1 10  1  0  0  0
  1 19  1  0  0  0
  2  3  1  0  0  0
  3  4  2  0  0  0
  3 20  1  0  0  0
  4 11  1  0  0  0
  4 21  1  0  0  0
  5  6  1  0  0  0
  5  7  1  0  0  0
  5 11  2  0  0  0
  7  8  2  0  0  0
  7 22  1  0  0  0
  8  9  1  0  0  0
  8 23  1  0  0  0
  9 10  2  0  0  0
  9 12  1  0  0  0
 10 11  1  0  0  0
 12 13  2  0  0  0
 12 14  2  0  0  0
 12 15  1  0  0  0
 15 16  1  0  0  0
 15 24  1  0  0  0
 16 17  1  0  0  0
 16 25  1  0  0  0
 16 26  1  0  0  0
 17 18  1  0  0  0
 17 27  1  0  0  0
 17 28  1  0  0  0
 18 29  1  0  0  0
 18 30  1  0  0  0
 18 31  1  0  0  0
M  CHG  1  18   1
M  END
> <s_m_source_file>
../3q2j_ligand.sdf

> <i_m_source_file_index>
1

> <s_epik_input>
W2NIXTFuW2NIXVtjSF1jKGMxMiljKENsKVtjSF1bY0hdYzJTKD1PKSg9TylbTkhdW0NIMl1bQ0gyXVtOSDMrXQ==

> <s_epik_cmdline>
J2VwaWtfYXBwJywgJy1pbWFlJywgJ2xpZ2FuZF9wcm8ubWFlJywgJy1vbWFlJywgJ2xpZ2FuZF9wcmVwLm1hZScsICctbXMnLCAnMScsICctcGgnLCAnNycsICctcGh0JywgJzAuNScsICctbnQn

> <r_lp_tautomer_probability>
1

> <r_epik_Ionization_Penalty>
  0.0084

> <r_epik_Ionization_Penalty_Charging>
  0.0058

> <r_epik_Ionization_Penalty_Neutral>
  0.0025

> <r_epik_State_Penalty>
 -0.0000

> <r_epik_Charging_Adjusted_Penalty>
0.00584841165286454

> <i_epik_Tot_Q>
1

> <i_epik_Tot_abs_Q>
1

$$$$
