3q2m_ligand
                    3D
 Schrodinger Suite 2020-3.
 31 32  0  0  1  0            999 V2000
   -2.4990   25.7210   34.9530 C   0  0  0  0  0  0
   -3.7550   25.3540   34.4580 N   0  0  0  0  0  0
   -4.2200   26.0290   33.3340 C   0  0  0  0  0  0
   -3.4820   27.0690   32.6710 C   0  0  0  0  0  0
   -1.3960   28.4810   32.5650 C   0  0  0  0  0  0
   -1.9380   29.3370   31.1660 Cl  0  0  0  0  0  0
   -0.1200   28.8300   33.1050 C   0  0  0  0  0  0
    0.3890   28.1610   34.2620 C   0  0  0  0  0  0
   -0.3670   27.1200   34.9030 C   0  0  0  0  0  0
   -1.6780   26.7520   34.3600 C   0  0  0  0  0  0
   -2.1920   27.4400   33.1870 C   0  0  0  0  0  0
    0.3790   26.3510   36.3540 S   0  0  0  0  0  0
   -0.0940   27.0960   37.4950 O   0  0  0  0  0  0
    1.7900   26.4910   36.1770 O   0  0  0  0  0  0
   -0.0870   24.7070   36.5620 N   0  0  3  0  0  0
    0.9110   23.5600   36.5900 C   0  0  0  0  0  0
    2.4410   23.7290   36.3760 C   0  0  0  0  0  0
    2.7990   24.7910   35.4460 N   0  3  0  0  0  0
   -2.1194   25.2016   35.8329 H   0  0  0  0  0  0
   -5.1964   25.7545   32.9347 H   0  0  0  0  0  0
   -3.8927   27.5675   31.7930 H   0  0  0  0  0  0
    0.4710   29.6135   32.6307 H   0  0  0  0  0  0
    1.3623   28.4440   34.6627 H   0  0  0  0  0  0
   -1.1655   24.4965   36.5119 H   0  0  0  0  0  0
    0.8762   23.0676   37.5730 H   0  0  0  0  0  0
    0.6551   22.8320   35.8060 H   0  0  0  0  0  0
    2.9217   23.9653   37.3368 H   0  0  0  0  0  0
    2.8608   22.7942   35.9761 H   0  0  0  0  0  0
    3.8938   24.8428   35.3524 H   0  0  0  0  0  0
    2.4173   25.7517   35.8220 H   0  0  0  0  0  0
    2.3563   24.5806   34.4612 H   0  0  0  0  0  0
  1  2  2  0  0  0
  1 10  1  0  0  0
  1 19  1  0  0  0
  2  3  1  0  0  0
  3  4  2  0  0  0
  3 20  1  0  0  0
  4 11  1  0  0  0
  4 21  1  0  0  0
  5  6  1  0  0  0
  5  7  1  0  0  0
  5 11  2  0  0  0
  7  8  2  0  0  0
  7 22  1  0  0  0
  8  9  1  0  0  0
  8 23  1  0  0  0
  9 10  2  0  0  0
  9 12  1  0  0  0
 10 11  1  0  0  0
 12 13  2  0  0  0
 12 14  2  0  0  0
 12 15  1  0  0  0
 15 16  1  0  0  0
 15 24  1  0  0  0
 16 17  1  0  0  0
 16 25  1  0  0  0
 16 26  1  0  0  0
 17 18  1  0  0  0
 17 27  1  0  0  0
 17 28  1  0  0  0
 18 29  1  0  0  0
 18 30  1  0  0  0
 18 31  1  0  0  0
M  CHG  1  18   1
M  END
> <s_m_source_file>
../3q2m_ligand.sdf

> <i_m_source_file_index>
1

> <s_epik_input>
W2NIXTFuW2NIXVtjSF1jKGMxMiljKENsKVtjSF1bY0hdYzJTKD1PKSg9TylbTkhdW0NIMl1bQ0gyXVtOSDMrXQ==

> <s_epik_cmdline>
J2VwaWtfYXBwJywgJy1pbWFlJywgJ2xpZ2FuZF9wcm8ubWFlJywgJy1vbWFlJywgJ2xpZ2FuZF9wcmVwLm1hZScsICctbXMnLCAnMScsICctcGgnLCAnNycsICctcGh0JywgJzAuNScsICctbnQn

> <r_lp_tautomer_probability>
1

> <r_epik_Ionization_Penalty>
  0.0084

> <r_epik_Ionization_Penalty_Charging>
  0.0058

> <r_epik_Ionization_Penalty_Neutral>
  0.0025

> <r_epik_State_Penalty>
 -0.0000

> <r_epik_Charging_Adjusted_Penalty>
0.00584841165286454

> <i_epik_Tot_Q>
1

> <i_epik_Tot_abs_Q>
1

$$$$
